=
 OpenBabel11042409553D

 66 73  0  0  1  0  0  0  0  0999 V2000
  185.1290  179.2140  142.6170 C   0  0  2  0  0  3  0  0  0  0  0  0
  185.5720  178.5040  143.8550 C   0  0  0  0  0  0  0  0  0  0  0  0
  185.1360  178.9400  145.1070 O   0  0  0  0  0  0  0  0  0  0  0  0
  185.4710  178.3170  146.3510 C   0  0  0  0  0  0  0  0  0  0  0  0
  186.9540  178.4780  146.6330 C   0  0  2  0  0  3  0  0  0  0  0  0
  186.4190  177.1140  146.2330 C   0  0  0  0  0  0  0  0  0  0  0  0
  186.3860  177.4650  143.7560 C   0  0  0  0  0  3  0  0  0  0  0  0
  186.8280  176.7970  144.8980 O   0  0  0  0  0  0  0  0  0  0  0  0
  187.1730  178.5240  148.1310 C   0  0  0  0  0  2  0  0  0  0  0  0
  188.5750  178.0560  148.4570 C   0  0  0  0  0  2  0  0  0  0  0  0
  189.3600  177.8830  147.1730 C   0  0  0  0  0  2  0  0  0  0  0  0
  189.7110  176.4190  146.9710 C   0  0  0  0  0  2  0  0  0  0  0  0
  191.9660  177.0010  147.0240 C   0  0  0  0  0  1  0  0  0  0  0  0
  190.9630  176.2980  146.2410 N   0  0  0  0  0  0  0  0  0  0  0  0
  191.1960  176.2120  143.8790 N   0  0  0  0  0  0  0  0  0  0  0  0
  190.8010  177.0400  145.0010 C   0  0  1  0  0  3  0  0  0  0  0  0
  189.8680  176.4290  144.2160 O   0  0  0  0  0  0  0  0  0  0  0  0
  191.5500  177.0400  142.7070 C   0  0  0  0  0  0  0  0  0  0  0  0
  192.8300  176.7550  142.2080 O   0  0  0  0  0  1  0  0  0  0  0  0
  191.5100  178.3850  143.0820 O   0  0  0  0  0  1  0  0  0  0  0  0
  190.5320  176.8140  141.5950 C   0  0  0  0  0  2  0  0  0  0  0  0
  190.8670  177.5520  140.4720 F   0  0  0  0  0  0  0  0  0  0  0  0
  182.8190  178.3980  143.0580 C   0  0  0  0  0  2  0  0  0  0  0  0
  182.8640  178.9340  141.6390 C   0  0  2  0  0  3  0  0  0  0  0  0
  183.6660  179.6150  142.7350 C   0  0  2  0  0  3  0  0  0  0  0  0
  181.6670  179.7120  141.3790 N   0  0  0  0  0  2  0  0  0  0  0  0
  180.9870  179.0810  140.2640 C   0  0  0  0  0  2  0  0  0  0  0  0
  182.3850  175.5130  138.2230 C   0  0  2  0  0  3  0  0  0  0  0  0
  180.9380  177.6450  140.4750 N   0  0  0  0  0  2  0  0  0  0  0  0
  181.5380  176.7490  139.5430 C   0  0  0  0  0  0  0  0  0  0  0  0
  181.6540  175.4110  139.4700 N   0  0  0  0  0  0  0  0  0  0  0  0
  182.2650  176.9150  138.2340 C   0  0  1  0  0  3  0  0  0  0  0  0
  183.4470  178.9940  138.1540 F   0  0  0  0  0  0  0  0  0  0  0  0
  183.6120  177.6400  138.3840 C   0  0  2  0  0  3  0  0  0  0  0  0
  184.9600  177.0020  137.3230 S   0  0  0  0  0  1  0  0  0  0  0  0
  181.5630  174.9300  137.0820 C   0  0  0  0  0  2  0  0  0  0  0  0
  181.9240  173.4670  136.8460 C   0  0  2  0  0  3  0  0  0  0  0  0
  183.7010  172.0470  136.0700 O   0  0  0  0  0  0  0  0  0  0  0  0
  183.9250  172.2190  137.3810 O   0  0  0  0  0  0  0  0  0  0  0  0
  183.4370  173.2760  136.6380 C   0  0  0  0  0  3  0  0  0  0  0  0
  181.1760  172.9580  135.7800 O   0  0  0  0  0  0  0  0  0  0  0  0
  180.2850  172.0580  136.3650 C   0  0  0  0  0  2  0  0  0  0  0  0
  180.9390  170.8720  136.6380 F   0  0  0  0  0  0  0  0  0  0  0  0
  185.2990  178.3760  141.5110 O   0  0  0  0  0  0  0  0  0  0  0  0
  186.6790  178.1790  141.4100 C   0  0  0  0  0  2  0  0  0  0  0  0
  187.2200  178.9330  140.2080 C   0  0  0  0  0  2  0  0  0  0  0  0
  188.0640  178.0820  139.4450 O   0  0  0  0  0  0  0  0  0  0  0  0
  188.0540  179.4440  137.5820 O   0  0  0  0  0  0  0  0  0  0  0  0
  188.8450  177.2860  137.2690 N   0  0  0  0  0  2  0  0  0  0  0  0
  188.3190  178.3230  138.0940 C   0  0  0  0  0  0  0  0  0  0  0  0
  188.7930  172.3530  134.5940 C   0  0  0  0  0  1  0  0  0  0  0  0
  191.8640  174.2390  135.8190 C   0  0  2  0  0  3  0  0  0  0  0  0
  191.6470  171.9270  135.1030 O   0  0  0  0  0  0  0  0  0  0  0  0
  191.1120  173.0430  135.3490 C   0  0  0  0  0  0  0  0  0  0  0  0
  190.9110  174.5300  138.3960 O   0  0  0  0  0  1  0  0  0  0  0  0
  189.4120  174.6350  135.5700 C   0  0  2  0  0  3  0  0  0  0  0  0
  189.1160  175.9550  137.7890 C   0  0  1  0  0  3  0  0  0  0  0  0
  188.1330  174.7380  136.8670 S   0  0  0  0  0  0  0  0  0  0  0  0
  190.5730  175.6060  137.5690 C   0  0  2  0  0  3  0  0  0  0  0  0
  189.7180  173.2580  135.2540 N   0  0  0  0  0  0  0  0  0  0  0  0
  190.7240  175.2420  136.0910 C   0  0  1  0  0  3  0  0  0  0  0  0
  192.8150  174.8080  134.7500 C   0  0  2  0  0  3  0  0  0  0  0  0
  194.1350  174.0520  134.7180 C   0  0  0  0  0  1  0  0  0  0  0  0
  193.1400  176.2720  135.0300 C   0  0  0  0  0  2  0  0  0  0  0  0
  194.0140  176.4490  136.2630 C   0  0  0  0  0  2  0  0  0  0  0  0
  195.0950  177.2870  135.9770 O   0  0  0  0  0  1  0  0  0  0  0  0
  1 44  1  6  0  0  0
  1  2  1  0  0  0  0
  2  3  1  0  0  0  0
  3  4  1  0  0  0  0
  4  5  1  0  0  0  0
  5  9  1  1  0  0  0
  6  4  2  0  0  0  0
  6  5  1  0  0  0  0
  7  2  2  0  0  0  0
  7  8  1  0  0  0  0
  8  6  1  0  0  0  0
  9 10  1  0  0  0  0
 11 10  1  0  0  0  0
 12 11  1  0  0  0  0
 14 12  1  0  0  0  0
 14 13  1  0  0  0  0
 15 17  1  0  0  0  0
 15 16  1  0  0  0  0
 16 14  1  1  0  0  0
 17 16  1  0  0  0  0
 18 20  1  0  0  0  0
 18 15  1  0  0  0  0
 19 18  1  0  0  0  0
 21 18  1  0  0  0  0
 22 21  1  0  0  0  0
 24 26  1  1  0  0  0
 24 25  1  0  0  0  0
 24 23  1  0  0  0  0
 25  1  1  6  0  0  0
 25 23  1  0  0  0  0
 27 29  1  0  0  0  0
 27 26  1  0  0  0  0
 28 36  1  6  0  0  0
 28 32  1  0  0  0  0
 28 31  1  0  0  0  0
 30 29  1  0  0  0  0
 31 30  2  0  0  0  0
 32 34  1  1  0  0  0
 32 30  1  0  0  0  0
 33 34  1  0  0  0  0
 34 35  1  6  0  0  0
 37 36  1  6  0  0  0
 38 40  1  0  0  0  0
 38 39  1  0  0  0  0
 40 37  1  0  0  0  0
 40 39  1  0  0  0  0
 41 42  1  0  0  0  0
 41 37  1  0  0  0  0
 42 43  1  0  0  0  0
 45 44  1  0  0  0  0
 46 45  1  0  0  0  0
 47 46  1  0  0  0  0
 48 50  2  0  0  0  0
 49 50  1  0  0  0  0
 50 47  1  0  0  0  0
 51 60  1  0  0  0  0
 52 62  1  6  0  0  0
 52 61  1  0  0  0  0
 53 54  2  0  0  0  0
 54 52  1  0  0  0  0
 56 61  1  0  0  0  0
 56 58  1  1  0  0  0
 57 49  1  6  0  0  0
 58 57  1  0  0  0  0
 59 57  1  0  0  0  0
 59 55  1  1  0  0  0
 60 54  1  0  0  0  0
 60 56  1  0  0  0  0
 61 59  1  0  0  0  0
 62 64  1  0  0  0  0
 63 62  1  0  0  0  0
 64 65  1  0  0  0  0
 66 65  1  0  0  0  0
M  END
>  <MODEL>
1

>  <REMARK>
 VINA RESULT:      -5.0      0.000      0.000
  Name = 
  28 active torsions:
  status: ('A' for Active; 'I' for Inactive)
    1  A    between atoms: C_1  and  C_34
    2  A    between atoms: C_2  and  O_12
    3  A    between atoms: C_2  and  C_27
    4  A    between atoms: C_2  and  C_52
    5  A    between atoms: O_3  and  C_32
    6  A    between atoms: O_3  and  C_34
    7  A    between atoms: C_5  and  C_18
    8  A    between atoms: C_5  and  N_55
    9  A    between atoms: C_7  and  C_17
   10  A    between atoms: C_7  and  C_25
   11  A    between atoms: C_9  and  C_11
   12  A    between atoms: C_9  and  C_14
   13  A    between atoms: C_10  and  C_24
   14  A    between atoms: C_11  and  C_18
   15  A    between atoms: O_12  and  C_53
   16  A    between atoms: C_13  and  N_22
   17  A    between atoms: C_13  and  N_33
   18  A    between atoms: N_15  and  C_24
   19  A    between atoms: C_19  and  C_27
   20  A    between atoms: C_25  and  C_54
   21  A    between atoms: O_28  and  C_49
   22  A    between atoms: O_28  and  C_65
   23  A    between atoms: C_32  and  C_49
   24  A    between atoms: N_33  and  C_43
   25  A    between atoms: C_34  and  C_59
   26  A    between atoms: C_35  and  C_61
   27  A    between atoms: C_45  and  N_63
   28  A    between atoms: C_46  and  N_55
                            x       y       z     vdW  Elec       q    Type
                         _______ _______ _______ _____ _____    ______ ____

>  <TORSDO>
F 28

$$$$
=
 OpenBabel11042409553D

 66 73  0  0  1  0  0  0  0  0999 V2000
  184.8270  179.0930  138.8790 C   0  0  2  0  0  3  0  0  0  0  0  0
  183.5040  179.7200  138.5800 C   0  0  0  0  0  0  0  0  0  0  0  0
  183.1440  180.9230  139.1900 O   0  0  0  0  0  0  0  0  0  0  0  0
  181.9200  181.6240  138.9520 C   0  0  0  0  0  0  0  0  0  0  0  0
  180.7450  180.8200  139.4800 C   0  0  2  0  0  3  0  0  0  0  0  0
  180.9570  180.9280  137.9790 C   0  0  0  0  0  0  0  0  0  0  0  0
  182.6740  179.1240  137.7390 C   0  0  0  0  0  3  0  0  0  0  0  0
  181.4260  179.6800  137.4580 O   0  0  0  0  0  0  0  0  0  0  0  0
  179.6470  181.7690  139.9130 C   0  0  0  0  0  2  0  0  0  0  0  0
  179.0410  181.2890  141.2150 C   0  0  0  0  0  2  0  0  0  0  0  0
  179.5480  179.8950  141.5230 C   0  0  0  0  0  2  0  0  0  0  0  0
  179.6200  179.6890  143.0270 C   0  0  0  0  0  2  0  0  0  0  0  0
  180.0970  177.9710  144.5260 C   0  0  0  0  0  1  0  0  0  0  0  0
  180.5960  178.6590  143.3460 N   0  0  0  0  0  0  0  0  0  0  0  0
  182.8680  178.3740  143.9790 N   0  0  0  0  0  0  0  0  0  0  0  0
  181.8160  179.3430  143.7430 C   0  0  1  0  0  3  0  0  0  0  0  0
  182.7910  179.1250  142.8150 O   0  0  0  0  0  0  0  0  0  0  0  0
  183.9160  178.9320  144.8590 C   0  0  0  0  0  0  0  0  0  0  0  0
  183.4880  179.0790  146.1870 O   0  0  0  0  0  1  0  0  0  0  0  0
  184.2870  180.1870  144.3710 O   0  0  0  0  0  1  0  0  0  0  0  0
  185.1380  178.0210  144.8400 C   0  0  0  0  0  2  0  0  0  0  0  0
  185.5960  177.7950  146.1270 F   0  0  0  0  0  0  0  0  0  0  0  0
  185.9780  176.9560  138.3260 C   0  0  0  0  0  2  0  0  0  0  0  0
  184.7540  177.0730  137.4360 C   0  0  2  0  0  3  0  0  0  0  0  0
  184.7040  177.5760  138.8690 C   0  0  2  0  0  3  0  0  0  0  0  0
  184.0850  175.7880  137.3640 N   0  0  0  0  0  2  0  0  0  0  0  0
  184.0260  175.4200  135.9620 C   0  0  0  0  0  2  0  0  0  0  0  0
  179.7330  174.7770  135.8730 C   0  0  2  0  0  3  0  0  0  0  0  0
  183.1210  174.2970  135.7940 N   0  0  0  0  0  2  0  0  0  0  0  0
  181.7090  174.4860  135.8250 C   0  0  0  0  0  0  0  0  0  0  0  0
  180.6490  173.6670  135.7010 N   0  0  0  0  0  0  0  0  0  0  0  0
  180.8050  175.6720  136.0410 C   0  0  1  0  0  3  0  0  0  0  0  0
  182.1360  177.3490  134.9710 F   0  0  0  0  0  0  0  0  0  0  0  0
  180.9070  176.7160  134.9170 C   0  0  2  0  0  3  0  0  0  0  0  0
  179.5760  177.9710  134.8990 S   0  0  0  0  0  1  0  0  0  0  0  0
  178.9680  174.6300  137.1810 C   0  0  0  0  0  2  0  0  0  0  0  0
  179.7710  175.2010  138.3450 C   0  0  2  0  0  3  0  0  0  0  0  0
  180.0550  172.8530  138.7740 O   0  0  0  0  0  0  0  0  0  0  0  0
  179.1570  173.2760  139.6750 O   0  0  0  0  0  0  0  0  0  0  0  0
  180.2080  174.1040  139.3330 C   0  0  0  0  0  3  0  0  0  0  0  0
  179.0430  176.2160  138.9730 O   0  0  0  0  0  0  0  0  0  0  0  0
  179.7380  177.3890  138.6790 C   0  0  0  0  0  2  0  0  0  0  0  0
  180.9300  177.4080  139.3760 F   0  0  0  0  0  0  0  0  0  0  0  0
  185.2750  179.5200  140.1320 O   0  0  0  0  0  0  0  0  0  0  0  0
  185.4250  178.3510  140.8840 C   0  0  0  0  0  2  0  0  0  0  0  0
  186.3250  178.6180  142.0760 C   0  0  0  0  0  2  0  0  0  0  0  0
  187.6840  178.4300  141.7070 O   0  0  0  0  0  0  0  0  0  0  0  0
  188.0810  176.3870  142.7040 O   0  0  0  0  0  0  0  0  0  0  0  0
  189.1680  176.7730  140.6920 N   0  0  0  0  0  2  0  0  0  0  0  0
  188.2840  177.1690  141.7370 C   0  0  0  0  0  0  0  0  0  0  0  0
  193.5130  176.5810  137.1440 C   0  0  0  0  0  1  0  0  0  0  0  0
  189.8930  175.7130  136.3500 C   0  0  2  0  0  3  0  0  0  0  0  0
  191.7510  176.1430  134.8440 O   0  0  0  0  0  0  0  0  0  0  0  0
  191.2960  176.0850  136.0190 C   0  0  0  0  0  0  0  0  0  0  0  0
  188.8910  178.0940  137.3280 O   0  0  0  0  0  1  0  0  0  0  0  0
  191.2850  176.2350  138.3540 C   0  0  2  0  0  3  0  0  0  0  0  0
  189.4870  177.6550  139.5800 C   0  0  1  0  0  3  0  0  0  0  0  0
  191.2900  177.7420  139.3810 S   0  0  0  0  0  0  0  0  0  0  0  0
  188.9280  177.0840  138.2950 C   0  0  2  0  0  3  0  0  0  0  0  0
  192.0690  176.4250  137.1540 N   0  0  0  0  0  0  0  0  0  0  0  0
  189.8560  175.9430  137.8740 C   0  0  1  0  0  3  0  0  0  0  0  0
  189.5740  174.2390  136.0370 C   0  0  2  0  0  3  0  0  0  0  0  0
  188.8530  174.0940  134.7050 C   0  0  0  0  0  1  0  0  0  0  0  0
  188.6700  173.6360  137.1070 C   0  0  0  0  0  2  0  0  0  0  0  0
  187.1940  173.7580  136.7600 C   0  0  0  0  0  2  0  0  0  0  0  0
  186.4330  172.9010  137.5590 O   0  0  0  0  0  1  0  0  0  0  0  0
  1 44  1  1  0  0  0
  2  1  1  0  0  0  0
  2  3  1  0  0  0  0
  4  3  1  0  0  0  0
  4  5  1  0  0  0  0
  5  9  1  6  0  0  0
  6  4  2  0  0  0  0
  6  5  1  0  0  0  0
  7  2  2  0  0  0  0
  8  7  1  0  0  0  0
  8  6  1  0  0  0  0
  9 10  1  0  0  0  0
 10 11  1  0  0  0  0
 11 12  1  0  0  0  0
 12 14  1  0  0  0  0
 14 13  1  0  0  0  0
 15 18  1  0  0  0  0
 16 14  1  6  0  0  0
 16 15  1  0  0  0  0
 17 16  1  0  0  0  0
 17 15  1  0  0  0  0
 18 19  1  0  0  0  0
 20 18  1  0  0  0  0
 21 18  1  0  0  0  0
 21 22  1  0  0  0  0
 23 25  1  0  0  0  0
 24 26  1  1  0  0  0
 24 23  1  0  0  0  0
 24 25  1  0  0  0  0
 25  1  1  6  0  0  0
 27 26  1  0  0  0  0
 28 32  1  0  0  0  0
 28 36  1  1  0  0  0
 29 30  1  0  0  0  0
 29 27  1  0  0  0  0
 30 32  1  0  0  0  0
 31 30  2  0  0  0  0
 31 28  1  0  0  0  0
 32 34  1  6  0  0  0
 34 35  1  1  0  0  0
 34 33  1  0  0  0  0
 37 36  1  6  0  0  0
 37 41  1  0  0  0  0
 37 40  1  0  0  0  0
 38 40  1  0  0  0  0
 38 39  1  0  0  0  0
 40 39  1  0  0  0  0
 42 41  1  0  0  0  0
 42 43  1  0  0  0  0
 44 45  1  0  0  0  0
 45 46  1  0  0  0  0
 47 50  1  0  0  0  0
 47 46  1  0  0  0  0
 49 50  1  0  0  0  0
 50 48  2  0  0  0  0
 51 60  1  0  0  0  0
 52 62  1  1  0  0  0
 52 61  1  0  0  0  0
 53 54  2  0  0  0  0
 54 52  1  0  0  0  0
 54 60  1  0  0  0  0
 56 58  1  1  0  0  0
 57 49  1  1  0  0  0
 58 57  1  0  0  0  0
 59 55  1  6  0  0  0
 59 57  1  0  0  0  0
 60 56  1  0  0  0  0
 61 59  1  0  0  0  0
 61 56  1  0  0  0  0
 62 64  1  0  0  0  0
 63 62  1  0  0  0  0
 65 64  1  0  0  0  0
 65 66  1  0  0  0  0
M  END
>  <MODEL>
2

>  <REMARK>
 VINA RESULT:      -4.2      3.267      6.614
  Name = 
  28 active torsions:
  status: ('A' for Active; 'I' for Inactive)
    1  A    between atoms: C_1  and  C_34
    2  A    between atoms: C_2  and  O_12
    3  A    between atoms: C_2  and  C_27
    4  A    between atoms: C_2  and  C_52
    5  A    between atoms: O_3  and  C_32
    6  A    between atoms: O_3  and  C_34
    7  A    between atoms: C_5  and  C_18
    8  A    between atoms: C_5  and  N_55
    9  A    between atoms: C_7  and  C_17
   10  A    between atoms: C_7  and  C_25
   11  A    between atoms: C_9  and  C_11
   12  A    between atoms: C_9  and  C_14
   13  A    between atoms: C_10  and  C_24
   14  A    between atoms: C_11  and  C_18
   15  A    between atoms: O_12  and  C_53
   16  A    between atoms: C_13  and  N_22
   17  A    between atoms: C_13  and  N_33
   18  A    between atoms: N_15  and  C_24
   19  A    between atoms: C_19  and  C_27
   20  A    between atoms: C_25  and  C_54
   21  A    between atoms: O_28  and  C_49
   22  A    between atoms: O_28  and  C_65
   23  A    between atoms: C_32  and  C_49
   24  A    between atoms: N_33  and  C_43
   25  A    between atoms: C_34  and  C_59
   26  A    between atoms: C_35  and  C_61
   27  A    between atoms: C_45  and  N_63
   28  A    between atoms: C_46  and  N_55
                            x       y       z     vdW  Elec       q    Type
                         _______ _______ _______ _____ _____    ______ ____

>  <TORSDO>
F 28

$$$$
=
 OpenBabel11042409553D

 66 73  0  0  1  0  0  0  0  0999 V2000
  184.7390  178.6870  144.5680 C   0  0  2  0  0  3  0  0  0  0  0  0
  185.8570  178.4640  145.5340 C   0  0  0  0  0  0  0  0  0  0  0  0
  187.1720  178.7530  145.1630 O   0  0  0  0  0  0  0  0  0  0  0  0
  188.3110  178.6090  146.0180 C   0  0  0  0  0  0  0  0  0  0  0  0
  188.5500  177.1410  146.3260 C   0  0  2  0  0  3  0  0  0  0  0  0
  188.0010  178.0490  147.4140 C   0  0  0  0  0  0  0  0  0  0  0  0
  185.5930  177.9860  146.7390 C   0  0  0  0  0  3  0  0  0  0  0  0
  186.6210  177.7520  147.6520 O   0  0  0  0  0  0  0  0  0  0  0  0
  190.0310  176.9150  146.5460 C   0  0  0  0  0  2  0  0  0  0  0  0
  190.6770  176.4680  145.2510 C   0  0  0  0  0  2  0  0  0  0  0  0
  191.3610  177.6500  144.5950 C   0  0  0  0  0  2  0  0  0  0  0  0
  190.5880  178.0760  143.3580 C   0  0  0  0  0  2  0  0  0  0  0  0
  191.3220  175.9080  142.9240 C   0  0  0  0  0  1  0  0  0  0  0  0
  190.7460  177.0890  142.3020 N   0  0  0  0  0  0  0  0  0  0  0  0
  191.9050  176.7040  140.2640 N   0  0  0  0  0  0  0  0  0  0  0  0
  191.7470  177.6100  141.3840 C   0  0  1  0  0  3  0  0  0  0  0  0
  191.1710  177.8780  140.1770 O   0  0  0  0  0  0  0  0  0  0  0  0
  193.2170  176.8920  139.6110 C   0  0  0  0  0  0  0  0  0  0  0  0
  194.2730  176.3230  140.3400 O   0  0  0  0  0  1  0  0  0  0  0  0
  193.4580  178.2610  139.4770 O   0  0  0  0  0  1  0  0  0  0  0  0
  193.1920  176.2630  138.2220 C   0  0  0  0  0  2  0  0  0  0  0  0
  194.4380  175.7580  137.8940 F   0  0  0  0  0  0  0  0  0  0  0  0
  184.7780  178.3440  142.1020 C   0  0  0  0  0  2  0  0  0  0  0  0
  186.1910  178.1560  142.6230 C   0  0  2  0  0  3  0  0  0  0  0  0
  185.2830  179.2050  143.2440 C   0  0  2  0  0  3  0  0  0  0  0  0
  187.1260  178.8120  141.7300 N   0  0  0  0  0  2  0  0  0  0  0  0
  187.0100  178.1560  140.4410 C   0  0  0  0  0  2  0  0  0  0  0  0
  188.1040  177.7180  136.2620 C   0  0  2  0  0  3  0  0  0  0  0  0
  188.0690  178.6210  139.5630 N   0  0  0  0  0  2  0  0  0  0  0  0
  188.0920  178.2510  138.1870 C   0  0  0  0  0  0  0  0  0  0  0  0
  188.9160  178.5160  137.1580 N   0  0  0  0  0  0  0  0  0  0  0  0
  187.2280  177.3830  137.3110 C   0  0  1  0  0  3  0  0  0  0  0  0
  185.4310  178.6590  138.2450 F   0  0  0  0  0  0  0  0  0  0  0  0
  185.8090  177.9460  137.1210 C   0  0  2  0  0  3  0  0  0  0  0  0
  184.5260  176.7020  136.7280 S   0  0  0  0  0  1  0  0  0  0  0  0
  188.8740  176.4840  135.8130 C   0  0  0  0  0  2  0  0  0  0  0  0
  188.5530  175.2900  136.7050 C   0  0  2  0  0  3  0  0  0  0  0  0
  190.8410  174.5570  136.7590 O   0  0  0  0  0  0  0  0  0  0  0  0
  190.1320  173.5620  137.3120 O   0  0  0  0  0  0  0  0  0  0  0  0
  189.7630  174.8700  137.5590 C   0  0  0  0  0  3  0  0  0  0  0  0
  188.0620  174.2350  135.9300 O   0  0  0  0  0  0  0  0  0  0  0  0
  186.8360  173.9050  136.5090 C   0  0  0  0  0  2  0  0  0  0  0  0
  187.0400  173.0290  137.5570 F   0  0  0  0  0  0  0  0  0  0  0  0
  183.8380  179.6130  145.1000 O   0  0  0  0  0  0  0  0  0  0  0  0
  182.8380  179.7480  144.1320 C   0  0  0  0  0  2  0  0  0  0  0  0
  182.3650  178.3760  143.6860 C   0  0  0  0  0  2  0  0  0  0  0  0
  180.9490  178.3040  143.7700 O   0  0  0  0  0  0  0  0  0  0  0  0
  179.2610  179.8660  143.9530 O   0  0  0  0  0  0  0  0  0  0  0  0
  180.2430  179.6610  141.8620 N   0  0  0  0  0  2  0  0  0  0  0  0
  180.1300  179.3020  143.2370 C   0  0  0  0  0  0  0  0  0  0  0  0
  179.2410  176.4810  137.3470 C   0  0  0  0  0  1  0  0  0  0  0  0
  180.6250  180.0270  137.3650 C   0  0  2  0  0  3  0  0  0  0  0  0
  180.5970  178.3820  135.5770 O   0  0  0  0  0  0  0  0  0  0  0  0
  180.3480  178.6880  136.7750 C   0  0  0  0  0  0  0  0  0  0  0  0
  182.6460  179.4490  139.1570 O   0  0  0  0  0  1  0  0  0  0  0  0
  179.6250  178.4110  138.9830 C   0  0  2  0  0  3  0  0  0  0  0  0
  181.1880  179.0040  140.9720 C   0  0  1  0  0  3  0  0  0  0  0  0
  180.4410  177.4810  140.3230 S   0  0  0  0  0  0  0  0  0  0  0  0
  181.4780  179.8960  139.7840 C   0  0  2  0  0  3  0  0  0  0  0  0
  179.8250  177.7610  137.7070 N   0  0  0  0  0  0  0  0  0  0  0  0
  180.2720  179.7980  138.8490 C   0  0  1  0  0  3  0  0  0  0  0  0
  179.7300  181.1360  136.7810 C   0  0  2  0  0  3  0  0  0  0  0  0
  179.1460  180.7320  135.4350 C   0  0  0  0  0  1  0  0  0  0  0  0
  180.5230  182.4200  136.5620 C   0  0  0  0  0  2  0  0  0  0  0  0
  181.0730  182.9930  137.8600 C   0  0  0  0  0  2  0  0  0  0  0  0
  182.1100  183.8910  137.5940 O   0  0  0  0  0  1  0  0  0  0  0  0
  1 44  1  1  0  0  0
  1  2  1  0  0  0  0
  2  7  2  0  0  0  0
  3  2  1  0  0  0  0
  3  4  1  0  0  0  0
  4  5  1  0  0  0  0
  4  6  2  0  0  0  0
  5  9  1  1  0  0  0
  5  6  1  0  0  0  0
  6  8  1  0  0  0  0
  7  8  1  0  0  0  0
 10  9  1  0  0  0  0
 11 10  1  0  0  0  0
 12 11  1  0  0  0  0
 14 13  1  0  0  0  0
 14 12  1  0  0  0  0
 15 16  1  0  0  0  0
 16 14  1  1  0  0  0
 17 15  1  0  0  0  0
 17 16  1  0  0  0  0
 18 15  1  0  0  0  0
 18 19  1  0  0  0  0
 20 18  1  0  0  0  0
 21 18  1  0  0  0  0
 22 21  1  0  0  0  0
 23 24  1  0  0  0  0
 23 25  1  0  0  0  0
 24 26  1  6  0  0  0
 24 25  1  0  0  0  0
 25  1  1  1  0  0  0
 27 26  1  0  0  0  0
 28 36  1  1  0  0  0
 28 31  1  0  0  0  0
 28 32  1  0  0  0  0
 29 27  1  0  0  0  0
 30 29  1  0  0  0  0
 31 30  2  0  0  0  0
 32 34  1  6  0  0  0
 32 30  1  0  0  0  0
 34 35  1  1  0  0  0
 34 33  1  0  0  0  0
 37 36  1  6  0  0  0
 37 40  1  0  0  0  0
 38 39  1  0  0  0  0
 38 40  1  0  0  0  0
 39 40  1  0  0  0  0
 41 42  1  0  0  0  0
 41 37  1  0  0  0  0
 42 43  1  0  0  0  0
 45 44  1  0  0  0  0
 46 47  1  0  0  0  0
 46 45  1  0  0  0  0
 49 50  1  0  0  0  0
 50 47  1  0  0  0  0
 50 48  2  0  0  0  0
 51 60  1  0  0  0  0
 52 62  1  6  0  0  0
 52 61  1  0  0  0  0
 53 54  2  0  0  0  0
 54 52  1  0  0  0  0
 54 60  1  0  0  0  0
 56 58  1  1  0  0  0
 57 49  1  1  0  0  0
 58 57  1  0  0  0  0
 59 55  1  6  0  0  0
 59 57  1  0  0  0  0
 60 56  1  0  0  0  0
 61 56  1  0  0  0  0
 61 59  1  0  0  0  0
 63 62  1  0  0  0  0
 64 62  1  0  0  0  0
 64 65  1  0  0  0  0
 66 65  1  0  0  0  0
M  END
>  <MODEL>
3

>  <REMARK>
 VINA RESULT:      -4.1      2.962      7.677
  Name = 
  28 active torsions:
  status: ('A' for Active; 'I' for Inactive)
    1  A    between atoms: C_1  and  C_34
    2  A    between atoms: C_2  and  O_12
    3  A    between atoms: C_2  and  C_27
    4  A    between atoms: C_2  and  C_52
    5  A    between atoms: O_3  and  C_32
    6  A    between atoms: O_3  and  C_34
    7  A    between atoms: C_5  and  C_18
    8  A    between atoms: C_5  and  N_55
    9  A    between atoms: C_7  and  C_17
   10  A    between atoms: C_7  and  C_25
   11  A    between atoms: C_9  and  C_11
   12  A    between atoms: C_9  and  C_14
   13  A    between atoms: C_10  and  C_24
   14  A    between atoms: C_11  and  C_18
   15  A    between atoms: O_12  and  C_53
   16  A    between atoms: C_13  and  N_22
   17  A    between atoms: C_13  and  N_33
   18  A    between atoms: N_15  and  C_24
   19  A    between atoms: C_19  and  C_27
   20  A    between atoms: C_25  and  C_54
   21  A    between atoms: O_28  and  C_49
   22  A    between atoms: O_28  and  C_65
   23  A    between atoms: C_32  and  C_49
   24  A    between atoms: N_33  and  C_43
   25  A    between atoms: C_34  and  C_59
   26  A    between atoms: C_35  and  C_61
   27  A    between atoms: C_45  and  N_63
   28  A    between atoms: C_46  and  N_55
                            x       y       z     vdW  Elec       q    Type
                         _______ _______ _______ _____ _____    ______ ____

>  <TORSDO>
F 28

$$$$
=
 OpenBabel11042409553D

 66 73  0  0  1  0  0  0  0  0999 V2000
  190.3440  176.5360  138.9750 C   0  0  2  0  0  3  0  0  0  0  0  0
  190.2130  176.9860  140.3940 C   0  0  0  0  0  0  0  0  0  0  0  0
  191.3250  177.4800  141.0780 O   0  0  0  0  0  0  0  0  0  0  0  0
  191.3060  177.9660  142.4240 C   0  0  0  0  0  0  0  0  0  0  0  0
  191.0180  176.8270  143.3870 C   0  0  2  0  0  3  0  0  0  0  0  0
  189.9420  177.8670  143.1240 C   0  0  0  0  0  0  0  0  0  0  0  0
  189.0390  176.9050  140.9990 C   0  0  0  0  0  3  0  0  0  0  0  0
  188.8950  177.3010  142.3280 O   0  0  0  0  0  0  0  0  0  0  0  0
  191.6960  177.1130  144.7110 C   0  0  0  0  0  2  0  0  0  0  0  0
  190.7170  176.8900  145.8440 C   0  0  0  0  0  2  0  0  0  0  0  0
  189.5960  177.9060  145.7490 C   0  0  0  0  0  2  0  0  0  0  0  0
  188.2820  177.2700  146.1720 C   0  0  0  0  0  2  0  0  0  0  0  0
  187.1370  177.9710  148.0760 C   0  0  0  0  0  1  0  0  0  0  0  0
  187.3720  178.2870  146.6770 N   0  0  0  0  0  0  0  0  0  0  0  0
  186.2450  178.4860  144.5950 N   0  0  0  0  0  0  0  0  0  0  0  0
  186.1060  178.0990  145.9850 C   0  0  1  0  0  3  0  0  0  0  0  0
  186.2500  177.1610  145.0060 O   0  0  0  0  0  0  0  0  0  0  0  0
  184.9320  178.8150  144.0030 C   0  0  0  0  0  0  0  0  0  0  0  0
  184.5720  177.9450  142.9630 O   0  0  0  0  0  1  0  0  0  0  0  0
  184.9820  180.1150  143.4960 O   0  0  0  0  0  1  0  0  0  0  0  0
  183.8550  178.7540  145.0810 C   0  0  0  0  0  2  0  0  0  0  0  0
  182.5940  178.7650  144.5110 F   0  0  0  0  0  0  0  0  0  0  0  0
  189.2970  178.7860  138.7750 C   0  0  0  0  0  2  0  0  0  0  0  0
  188.5180  177.8270  137.8940 C   0  0  2  0  0  3  0  0  0  0  0  0
  190.0250  177.6840  138.0280 C   0  0  2  0  0  3  0  0  0  0  0  0
  188.2160  178.4690  136.6300 N   0  0  0  0  0  2  0  0  0  0  0  0
  186.7880  178.7250  136.6150 C   0  0  0  0  0  2  0  0  0  0  0  0
  182.9880  176.7420  137.3050 C   0  0  2  0  0  3  0  0  0  0  0  0
  186.1530  177.9860  137.6910 N   0  0  0  0  0  2  0  0  0  0  0  0
  184.8350  177.4640  137.5400 C   0  0  0  0  0  0  0  0  0  0  0  0
  184.0090  176.7580  138.3330 N   0  0  0  0  0  0  0  0  0  0  0  0
  183.8000  177.5060  136.4470 C   0  0  1  0  0  3  0  0  0  0  0  0
  183.1330  176.1430  134.5970 F   0  0  0  0  0  0  0  0  0  0  0  0
  184.2310  176.7470  135.1820 C   0  0  2  0  0  3  0  0  0  0  0  0
  185.5490  175.5030  135.4340 S   0  0  0  0  0  1  0  0  0  0  0  0
  181.7830  177.5610  137.7480 C   0  0  0  0  0  2  0  0  0  0  0  0
  181.8600  178.9800  137.1970 C   0  0  2  0  0  3  0  0  0  0  0  0
  182.2830  181.1000  138.2470 O   0  0  0  0  0  0  0  0  0  0  0  0
  182.3700  180.1900  139.2270 O   0  0  0  0  0  0  0  0  0  0  0  0
  181.4200  180.0250  138.2380 C   0  0  0  0  0  3  0  0  0  0  0  0
  181.1210  179.0720  136.0130 O   0  0  0  0  0  0  0  0  0  0  0  0
  180.1840  178.0410  136.0950 C   0  0  0  0  0  2  0  0  0  0  0  0
  179.4770  177.9650  134.9110 F   0  0  0  0  0  0  0  0  0  0  0  0
  189.4680  175.4740  138.7370 O   0  0  0  0  0  0  0  0  0  0  0  0
  189.5790  175.2070  137.3690 C   0  0  0  0  0  2  0  0  0  0  0  0
  189.4230  173.7180  137.1210 C   0  0  0  0  0  2  0  0  0  0  0  0
  190.5980  173.2050  136.5090 O   0  0  0  0  0  0  0  0  0  0  0  0
  191.1470  174.8930  135.0330 O   0  0  0  0  0  0  0  0  0  0  0  0
  192.9140  173.9140  136.1720 N   0  0  0  0  0  2  0  0  0  0  0  0
  191.5240  174.0430  135.8830 C   0  0  0  0  0  0  0  0  0  0  0  0
  196.4140  169.6310  135.2200 C   0  0  0  0  0  1  0  0  0  0  0  0
  197.2060  172.8300  137.1240 C   0  0  2  0  0  3  0  0  0  0  0  0
  198.4230  170.7280  137.0490 O   0  0  0  0  0  0  0  0  0  0  0  0
  197.4190  171.4140  136.7140 C   0  0  0  0  0  0  0  0  0  0  0  0
  195.0290  172.6090  138.8100 O   0  0  0  0  0  1  0  0  0  0  0  0
  195.3690  171.9150  135.7050 C   0  0  2  0  0  3  0  0  0  0  0  0
  193.4160  172.9120  137.1000 C   0  0  1  0  0  3  0  0  0  0  0  0
  193.7060  171.3580  136.2070 S   0  0  0  0  0  0  0  0  0  0  0  0
  194.7510  173.3550  137.6610 C   0  0  2  0  0  3  0  0  0  0  0  0
  196.3540  170.8850  135.9490 N   0  0  0  0  0  0  0  0  0  0  0  0
  195.7950  173.1100  136.5700 C   0  0  1  0  0  3  0  0  0  0  0  0
  198.2190  173.7980  136.4850 C   0  0  2  0  0  3  0  0  0  0  0  0
  199.1660  173.0730  135.5410 C   0  0  0  0  0  1  0  0  0  0  0  0
  199.0750  174.4750  137.5510 C   0  0  0  0  0  2  0  0  0  0  0  0
  198.3940  174.5080  138.9110 C   0  0  0  0  0  2  0  0  0  0  0  0
  198.6700  175.7120  139.5650 O   0  0  0  0  0  1  0  0  0  0  0  0
  1 44  1  6  0  0  0
  1  2  1  0  0  0  0
  2  7  2  0  0  0  0
  2  3  1  0  0  0  0
  3  4  1  0  0  0  0
  4  6  2  0  0  0  0
  4  5  1  0  0  0  0
  5  9  1  1  0  0  0
  6  5  1  0  0  0  0
  7  8  1  0  0  0  0
  8  6  1  0  0  0  0
  9 10  1  0  0  0  0
 11 10  1  0  0  0  0
 11 12  1  0  0  0  0
 12 14  1  0  0  0  0
 14 13  1  0  0  0  0
 15 17  1  0  0  0  0
 15 16  1  0  0  0  0
 16 14  1  1  0  0  0
 17 16  1  0  0  0  0
 18 15  1  0  0  0  0
 18 21  1  0  0  0  0
 19 18  1  0  0  0  0
 20 18  1  0  0  0  0
 22 21  1  0  0  0  0
 24 26  1  6  0  0  0
 24 25  1  0  0  0  0
 24 23  1  0  0  0  0
 25 23  1  0  0  0  0
 25  1  1  1  0  0  0
 27 26  1  0  0  0  0
 27 29  1  0  0  0  0
 28 36  1  1  0  0  0
 28 31  1  0  0  0  0
 30 29  1  0  0  0  0
 30 31  2  0  0  0  0
 32 34  1  6  0  0  0
 32 28  1  0  0  0  0
 32 30  1  0  0  0  0
 34 33  1  1  0  0  0
 34 35  1  0  0  0  0
 37 36  1  1  0  0  0
 37 40  1  0  0  0  0
 38 39  1  0  0  0  0
 40 38  1  0  0  0  0
 40 39  1  0  0  0  0
 41 42  1  0  0  0  0
 41 37  1  0  0  0  0
 43 42  1  0  0  0  0
 45 44  1  0  0  0  0
 46 45  1  0  0  0  0
 47 46  1  0  0  0  0
 48 50  2  0  0  0  0
 50 49  1  0  0  0  0
 50 47  1  0  0  0  0
 51 60  1  0  0  0  0
 52 62  1  6  0  0  0
 54 53  2  0  0  0  0
 54 52  1  0  0  0  0
 56 60  1  0  0  0  0
 56 58  1  1  0  0  0
 56 61  1  0  0  0  0
 57 49  1  6  0  0  0
 57 59  1  0  0  0  0
 58 57  1  0  0  0  0
 59 55  1  1  0  0  0
 60 54  1  0  0  0  0
 61 52  1  0  0  0  0
 61 59  1  0  0  0  0
 62 64  1  0  0  0  0
 63 62  1  0  0  0  0
 64 65  1  0  0  0  0
 65 66  1  0  0  0  0
M  END
>  <MODEL>
4

>  <REMARK>
 VINA RESULT:      -4.0      3.396      5.974
  Name = 
  28 active torsions:
  status: ('A' for Active; 'I' for Inactive)
    1  A    between atoms: C_1  and  C_34
    2  A    between atoms: C_2  and  O_12
    3  A    between atoms: C_2  and  C_27
    4  A    between atoms: C_2  and  C_52
    5  A    between atoms: O_3  and  C_32
    6  A    between atoms: O_3  and  C_34
    7  A    between atoms: C_5  and  C_18
    8  A    between atoms: C_5  and  N_55
    9  A    between atoms: C_7  and  C_17
   10  A    between atoms: C_7  and  C_25
   11  A    between atoms: C_9  and  C_11
   12  A    between atoms: C_9  and  C_14
   13  A    between atoms: C_10  and  C_24
   14  A    between atoms: C_11  and  C_18
   15  A    between atoms: O_12  and  C_53
   16  A    between atoms: C_13  and  N_22
   17  A    between atoms: C_13  and  N_33
   18  A    between atoms: N_15  and  C_24
   19  A    between atoms: C_19  and  C_27
   20  A    between atoms: C_25  and  C_54
   21  A    between atoms: O_28  and  C_49
   22  A    between atoms: O_28  and  C_65
   23  A    between atoms: C_32  and  C_49
   24  A    between atoms: N_33  and  C_43
   25  A    between atoms: C_34  and  C_59
   26  A    between atoms: C_35  and  C_61
   27  A    between atoms: C_45  and  N_63
   28  A    between atoms: C_46  and  N_55
                            x       y       z     vdW  Elec       q    Type
                         _______ _______ _______ _____ _____    ______ ____

>  <TORSDO>
F 28

$$$$
=
 OpenBabel11042409553D

 66 73  0  0  1  0  0  0  0  0999 V2000
  184.5770  179.6110  143.3800 C   0  0  2  0  0  3  0  0  0  0  0  0
  185.1060  178.8120  144.5270 C   0  0  0  0  0  0  0  0  0  0  0  0
  185.0460  179.3240  145.8250 O   0  0  0  0  0  0  0  0  0  0  0  0
  185.4920  178.6330  146.9960 C   0  0  0  0  0  0  0  0  0  0  0  0
  187.0010  178.4640  146.9600 C   0  0  2  0  0  3  0  0  0  0  0  0
  186.1120  177.2520  146.7320 C   0  0  0  0  0  0  0  0  0  0  0  0
  185.6380  177.6210  144.3030 C   0  0  0  0  0  3  0  0  0  0  0  0
  186.1550  176.8640  145.3540 O   0  0  0  0  0  0  0  0  0  0  0  0
  187.5330  178.4500  148.3780 C   0  0  0  0  0  2  0  0  0  0  0  0
  189.0330  178.2480  148.3580 C   0  0  0  0  0  2  0  0  0  0  0  0
  189.5400  178.3760  146.9360 C   0  0  0  0  0  2  0  0  0  0  0  0
  189.9200  177.0080  146.3950 C   0  0  0  0  0  2  0  0  0  0  0  0
  191.2400  176.4130  144.5700 C   0  0  0  0  0  1  0  0  0  0  0  0
  191.2820  177.0290  145.8860 N   0  0  0  0  0  0  0  0  0  0  0  0
  192.1090  176.6810  148.0850 N   0  0  0  0  0  0  0  0  0  0  0  0
  192.0640  176.1470  146.7380 C   0  0  1  0  0  3  0  0  0  0  0  0
  191.2720  175.6360  147.7230 O   0  0  0  0  0  0  0  0  0  0  0  0
  193.2710  176.1480  148.8270 C   0  0  0  0  0  0  0  0  0  0  0  0
  193.9180  177.1270  149.5970 O   0  0  0  0  0  1  0  0  0  0  0  0
  194.1880  175.6280  147.9100 O   0  0  0  0  0  1  0  0  0  0  0  0
  192.8160  175.0250  149.7520 C   0  0  0  0  0  2  0  0  0  0  0  0
  193.4150  175.1430  150.9940 F   0  0  0  0  0  0  0  0  0  0  0  0
  182.4110  178.6220  144.1080 C   0  0  0  0  0  2  0  0  0  0  0  0
  182.3030  178.9520  142.6300 C   0  0  2  0  0  3  0  0  0  0  0  0
  183.0870  179.8640  143.5590 C   0  0  2  0  0  3  0  0  0  0  0  0
  181.0090  179.5510  142.3630 N   0  0  0  0  0  2  0  0  0  0  0  0
  180.7420  179.3670  140.9490 C   0  0  0  0  0  2  0  0  0  0  0  0
  182.1020  178.0620  137.0380 C   0  0  2  0  0  3  0  0  0  0  0  0
  181.9970  179.3140  140.2220 N   0  0  0  0  0  2  0  0  0  0  0  0
  182.0510  178.7940  138.8960 C   0  0  0  0  0  0  0  0  0  0  0  0
  183.0350  178.6220  137.9950 N   0  0  0  0  0  0  0  0  0  0  0  0
  181.0420  178.1910  137.9550 C   0  0  1  0  0  3  0  0  0  0  0  0
  179.1630  178.6200  136.5360 F   0  0  0  0  0  0  0  0  0  0  0  0
  179.9670  179.1940  137.5040 C   0  0  2  0  0  3  0  0  0  0  0  0
  180.6070  180.7950  136.8930 S   0  0  0  0  0  1  0  0  0  0  0  0
  182.4100  176.5890  136.8040 C   0  0  0  0  0  2  0  0  0  0  0  0
  183.9050  176.3200  136.9340 C   0  0  2  0  0  3  0  0  0  0  0  0
  185.8910  176.6980  135.6340 O   0  0  0  0  0  0  0  0  0  0  0  0
  184.9490  177.4820  135.0880 O   0  0  0  0  0  0  0  0  0  0  0  0
  184.5940  176.2330  135.5610 C   0  0  0  0  0  3  0  0  0  0  0  0
  184.1170  175.1730  137.7040 O   0  0  0  0  0  0  0  0  0  0  0  0
  182.9980  174.3730  137.4700 C   0  0  0  0  0  2  0  0  0  0  0  0
  183.3970  173.1710  136.9190 F   0  0  0  0  0  0  0  0  0  0  0  0
  184.7960  178.9180  142.1870 O   0  0  0  0  0  0  0  0  0  0  0  0
  186.0660  178.3480  142.3220 C   0  0  0  0  0  2  0  0  0  0  0  0
  187.0290  179.0020  141.3480 C   0  0  0  0  0  2  0  0  0  0  0  0
  187.7770  178.0050  140.6670 O   0  0  0  0  0  0  0  0  0  0  0  0
  188.4870  176.7470  142.4660 O   0  0  0  0  0  0  0  0  0  0  0  0
  190.0030  176.9950  140.7290 N   0  0  0  0  0  2  0  0  0  0  0  0
  188.7290  177.2240  141.3250 C   0  0  0  0  0  0  0  0  0  0  0  0
  193.6100  175.0850  136.8760 C   0  0  0  0  0  1  0  0  0  0  0  0
  189.8120  175.0890  136.6260 C   0  0  2  0  0  3  0  0  0  0  0  0
  191.4800  174.7610  134.8900 O   0  0  0  0  0  0  0  0  0  0  0  0
  191.2010  175.0170  136.0930 C   0  0  0  0  0  0  0  0  0  0  0  0
  189.5700  177.7770  137.2160 O   0  0  0  0  0  1  0  0  0  0  0  0
  191.5650  175.5430  138.3430 C   0  0  2  0  0  3  0  0  0  0  0  0
  190.3620  177.5680  139.4410 C   0  0  1  0  0  3  0  0  0  0  0  0
  192.0840  177.1410  139.0520 S   0  0  0  0  0  0  0  0  0  0  0  0
  189.5010  176.9650  138.3520 C   0  0  2  0  0  3  0  0  0  0  0  0
  192.1880  175.3210  137.0580 N   0  0  0  0  0  0  0  0  0  0  0  0
  190.0530  175.5660  138.0730 C   0  0  1  0  0  3  0  0  0  0  0  0
  189.1030  173.7220  136.6390 C   0  0  2  0  0  3  0  0  0  0  0  0
  189.7290  172.7590  135.6410 C   0  0  0  0  0  1  0  0  0  0  0  0
  187.6310  173.8660  136.2650 C   0  0  0  0  0  2  0  0  0  0  0  0
  186.8110  172.6410  136.6430 C   0  0  0  0  0  2  0  0  0  0  0  0
  186.3530  172.7500  137.9580 O   0  0  0  0  0  1  0  0  0  0  0  0
  1 44  1  6  0  0  0
  1  2  1  0  0  0  0
  2  3  1  0  0  0  0
  3  4  1  0  0  0  0
  5  4  1  0  0  0  0
  5  9  1  1  0  0  0
  6  5  1  0  0  0  0
  6  4  2  0  0  0  0
  7  2  2  0  0  0  0
  7  8  1  0  0  0  0
  8  6  1  0  0  0  0
 10  9  1  0  0  0  0
 11 10  1  0  0  0  0
 12 11  1  0  0  0  0
 13 14  1  0  0  0  0
 14 12  1  0  0  0  0
 15 18  1  0  0  0  0
 16 14  1  6  0  0  0
 16 17  1  0  0  0  0
 16 15  1  0  0  0  0
 17 15  1  0  0  0  0
 18 19  1  0  0  0  0
 18 21  1  0  0  0  0
 20 18  1  0  0  0  0
 21 22  1  0  0  0  0
 24 26  1  1  0  0  0
 24 25  1  0  0  0  0
 24 23  1  0  0  0  0
 25  1  1  6  0  0  0
 25 23  1  0  0  0  0
 27 26  1  0  0  0  0
 28 36  1  1  0  0  0
 28 32  1  0  0  0  0
 28 31  1  0  0  0  0
 29 27  1  0  0  0  0
 30 29  1  0  0  0  0
 31 30  2  0  0  0  0
 32 34  1  6  0  0  0
 32 30  1  0  0  0  0
 34 33  1  6  0  0  0
 35 34  1  0  0  0  0
 37 36  1  6  0  0  0
 37 41  1  0  0  0  0
 39 40  1  0  0  0  0
 39 38  1  0  0  0  0
 40 38  1  0  0  0  0
 40 37  1  0  0  0  0
 42 41  1  0  0  0  0
 43 42  1  0  0  0  0
 44 45  1  0  0  0  0
 46 45  1  0  0  0  0
 47 50  1  0  0  0  0
 47 46  1  0  0  0  0
 49 50  1  0  0  0  0
 50 48  2  0  0  0  0
 51 60  1  0  0  0  0
 52 62  1  1  0  0  0
 52 61  1  0  0  0  0
 53 54  2  0  0  0  0
 54 52  1  0  0  0  0
 54 60  1  0  0  0  0
 56 58  1  6  0  0  0
 57 49  1  1  0  0  0
 58 57  1  0  0  0  0
 59 55  1  6  0  0  0
 59 57  1  0  0  0  0
 60 56  1  0  0  0  0
 61 56  1  0  0  0  0
 61 59  1  0  0  0  0
 63 62  1  0  0  0  0
 64 62  1  0  0  0  0
 64 65  1  0  0  0  0
 65 66  1  0  0  0  0
M  END
>  <MODEL>
5

>  <REMARK>
 VINA RESULT:      -3.8      2.828      4.028
  Name = 
  28 active torsions:
  status: ('A' for Active; 'I' for Inactive)
    1  A    between atoms: C_1  and  C_34
    2  A    between atoms: C_2  and  O_12
    3  A    between atoms: C_2  and  C_27
    4  A    between atoms: C_2  and  C_52
    5  A    between atoms: O_3  and  C_32
    6  A    between atoms: O_3  and  C_34
    7  A    between atoms: C_5  and  C_18
    8  A    between atoms: C_5  and  N_55
    9  A    between atoms: C_7  and  C_17
   10  A    between atoms: C_7  and  C_25
   11  A    between atoms: C_9  and  C_11
   12  A    between atoms: C_9  and  C_14
   13  A    between atoms: C_10  and  C_24
   14  A    between atoms: C_11  and  C_18
   15  A    between atoms: O_12  and  C_53
   16  A    between atoms: C_13  and  N_22
   17  A    between atoms: C_13  and  N_33
   18  A    between atoms: N_15  and  C_24
   19  A    between atoms: C_19  and  C_27
   20  A    between atoms: C_25  and  C_54
   21  A    between atoms: O_28  and  C_49
   22  A    between atoms: O_28  and  C_65
   23  A    between atoms: C_32  and  C_49
   24  A    between atoms: N_33  and  C_43
   25  A    between atoms: C_34  and  C_59
   26  A    between atoms: C_35  and  C_61
   27  A    between atoms: C_45  and  N_63
   28  A    between atoms: C_46  and  N_55
                            x       y       z     vdW  Elec       q    Type
                         _______ _______ _______ _____ _____    ______ ____

>  <TORSDO>
F 28

$$$$
=
 OpenBabel11042409553D

 66 73  0  0  1  0  0  0  0  0999 V2000
  184.3890  179.4130  143.4580 C   0  0  2  0  0  3  0  0  0  0  0  0
  185.0650  178.7040  144.5870 C   0  0  0  0  0  0  0  0  0  0  0  0
  184.9750  179.2090  145.8860 O   0  0  0  0  0  0  0  0  0  0  0  0
  185.5540  178.5960  147.0410 C   0  0  0  0  0  0  0  0  0  0  0  0
  187.0700  178.6450  146.9550 C   0  0  2  0  0  3  0  0  0  0  0  0
  186.3570  177.3170  146.7580 C   0  0  0  0  0  0  0  0  0  0  0  0
  185.7530  177.6000  144.3460 C   0  0  0  0  0  3  0  0  0  0  0  0
  186.4080  176.9310  145.3800 O   0  0  0  0  0  0  0  0  0  0  0  0
  187.6450  178.7150  148.3540 C   0  0  0  0  0  2  0  0  0  0  0  0
  189.0460  178.1400  148.3590 C   0  0  0  0  0  2  0  0  0  0  0  0
  189.7160  178.4330  147.0330 C   0  0  0  0  0  2  0  0  0  0  0  0
  189.9360  177.1400  146.2650 C   0  0  0  0  0  2  0  0  0  0  0  0
  191.4070  176.3690  144.6310 C   0  0  0  0  0  1  0  0  0  0  0  0
  191.3470  176.9760  145.9510 N   0  0  0  0  0  0  0  0  0  0  0  0
  192.3300  176.6670  148.0910 N   0  0  0  0  0  0  0  0  0  0  0  0
  191.8760  175.9980  146.8880 C   0  0  1  0  0  3  0  0  0  0  0  0
  191.1210  175.9910  148.0230 O   0  0  0  0  0  0  0  0  0  0  0  0
  193.3180  175.8420  148.8160 C   0  0  0  0  0  0  0  0  0  0  0  0
  194.5760  175.8280  148.1930 O   0  0  0  0  0  1  0  0  0  0  0  0
  192.8420  174.5300  148.8830 O   0  0  0  0  0  1  0  0  0  0  0  0
  193.4850  176.3720  150.2350 C   0  0  0  0  0  2  0  0  0  0  0  0
  194.6630  177.0910  150.3510 F   0  0  0  0  0  0  0  0  0  0  0  0
  182.2430  178.4490  144.2750 C   0  0  0  0  0  2  0  0  0  0  0  0
  182.0160  178.9750  142.8690 C   0  0  2  0  0  3  0  0  0  0  0  0
  182.9420  179.7170  143.8190 C   0  0  2  0  0  3  0  0  0  0  0  0
  180.7440  179.6700  142.8140 N   0  0  0  0  0  2  0  0  0  0  0  0
  180.0700  179.2220  141.6090 C   0  0  0  0  0  2  0  0  0  0  0  0
  180.9750  176.0910  138.7410 C   0  0  2  0  0  3  0  0  0  0  0  0
  180.0500  177.7710  141.5760 N   0  0  0  0  0  2  0  0  0  0  0  0
  180.4330  177.0620  140.4000 C   0  0  0  0  0  0  0  0  0  0  0  0
  180.5170  175.7600  140.0750 N   0  0  0  0  0  0  0  0  0  0  0  0
  180.8750  177.4670  139.0180 C   0  0  1  0  0  3  0  0  0  0  0  0
  182.9300  177.8950  140.1680 F   0  0  0  0  0  0  0  0  0  0  0  0
  182.2330  178.1890  139.0100 C   0  0  2  0  0  3  0  0  0  0  0  0
  182.1460  180.0040  138.7940 S   0  0  0  0  0  1  0  0  0  0  0  0
  179.9270  175.6910  137.7110 C   0  0  0  0  0  2  0  0  0  0  0  0
  180.4410  174.5610  136.8260 C   0  0  2  0  0  3  0  0  0  0  0  0
  180.6390  172.1660  136.7780 O   0  0  0  0  0  0  0  0  0  0  0  0
  179.5520  172.4220  137.5190 O   0  0  0  0  0  0  0  0  0  0  0  0
  180.6460  173.2580  137.6200 C   0  0  0  0  0  3  0  0  0  0  0  0
  181.6060  174.9650  136.1660 O   0  0  0  0  0  0  0  0  0  0  0  0
  181.1950  175.9880  135.3100 C   0  0  0  0  0  2  0  0  0  0  0  0
  181.8800  177.1480  135.6150 F   0  0  0  0  0  0  0  0  0  0  0  0
  184.4290  178.6130  142.3130 O   0  0  0  0  0  0  0  0  0  0  0  0
  185.7740  178.2650  142.1570 C   0  0  0  0  0  2  0  0  0  0  0  0
  186.4080  179.1310  141.0830 C   0  0  0  0  0  2  0  0  0  0  0  0
  187.4040  178.3900  140.3920 O   0  0  0  0  0  0  0  0  0  0  0  0
  188.2780  177.4050  142.2870 O   0  0  0  0  0  0  0  0  0  0  0  0
  189.6370  177.3940  140.4080 N   0  0  0  0  0  2  0  0  0  0  0  0
  188.4170  177.7100  141.0730 C   0  0  0  0  0  0  0  0  0  0  0  0
  191.4860  174.2530  136.1400 C   0  0  0  0  0  1  0  0  0  0  0  0
  187.9450  175.5590  136.6300 C   0  0  2  0  0  3  0  0  0  0  0  0
  188.9940  174.6280  134.6460 O   0  0  0  0  0  0  0  0  0  0  0  0
  189.0820  174.9980  135.8480 C   0  0  0  0  0  0  0  0  0  0  0  0
  188.7410  178.1800  136.9850 O   0  0  0  0  0  1  0  0  0  0  0  0
  190.0760  175.4270  137.9220 C   0  0  2  0  0  3  0  0  0  0  0  0
  189.8790  177.7720  139.0240 C   0  0  1  0  0  3  0  0  0  0  0  0
  191.2350  176.7670  138.3550 S   0  0  0  0  0  0  0  0  0  0  0  0
  188.6520  177.4730  138.1880 C   0  0  2  0  0  3  0  0  0  0  0  0
  190.2980  174.9690  136.5690 N   0  0  0  0  0  0  0  0  0  0  0  0
  188.6360  175.9630  137.9480 C   0  0  1  0  0  3  0  0  0  0  0  0
  186.8440  174.5210  136.9150 C   0  0  2  0  0  3  0  0  0  0  0  0
  187.2650  173.1250  136.4780 C   0  0  0  0  0  1  0  0  0  0  0  0
  185.5620  174.8620  136.1610 C   0  0  0  0  0  2  0  0  0  0  0  0
  185.4100  176.3560  135.9180 C   0  0  0  0  0  2  0  0  0  0  0  0
  184.8850  176.9830  137.0510 O   0  0  0  0  0  1  0  0  0  0  0  0
  1 44  1  6  0  0  0
  1  2  1  0  0  0  0
  2  3  1  0  0  0  0
  3  4  1  0  0  0  0
  5  4  1  0  0  0  0
  5  9  1  1  0  0  0
  6  5  1  0  0  0  0
  6  4  2  0  0  0  0
  7  2  2  0  0  0  0
  7  8  1  0  0  0  0
  8  6  1  0  0  0  0
  9 10  1  0  0  0  0
 11 10  1  0  0  0  0
 12 11  1  0  0  0  0
 13 14  1  0  0  0  0
 14 12  1  0  0  0  0
 15 18  1  0  0  0  0
 16 14  1  6  0  0  0
 16 17  1  0  0  0  0
 16 15  1  0  0  0  0
 17 15  1  0  0  0  0
 18 20  1  0  0  0  0
 18 21  1  0  0  0  0
 19 18  1  0  0  0  0
 21 22  1  0  0  0  0
 24 26  1  1  0  0  0
 24 25  1  0  0  0  0
 24 23  1  0  0  0  0
 25  1  1  6  0  0  0
 25 23  1  0  0  0  0
 27 26  1  0  0  0  0
 28 36  1  6  0  0  0
 28 32  1  0  0  0  0
 28 31  1  0  0  0  0
 29 27  1  0  0  0  0
 30 29  1  0  0  0  0
 31 30  2  0  0  0  0
 32 34  1  1  0  0  0
 32 30  1  0  0  0  0
 34 35  1  1  0  0  0
 34 33  1  0  0  0  0
 37 40  1  0  0  0  0
 37 36  1  1  0  0  0
 38 39  1  0  0  0  0
 38 40  1  0  0  0  0
 39 40  1  0  0  0  0
 41 37  1  0  0  0  0
 42 43  1  0  0  0  0
 42 41  1  0  0  0  0
 45 44  1  0  0  0  0
 46 45  1  0  0  0  0
 47 50  1  0  0  0  0
 47 46  1  0  0  0  0
 49 50  1  0  0  0  0
 50 48  2  0  0  0  0
 51 60  1  0  0  0  0
 52 62  1  1  0  0  0
 52 61  1  0  0  0  0
 53 54  2  0  0  0  0
 54 60  1  0  0  0  0
 54 52  1  0  0  0  0
 56 61  1  0  0  0  0
 56 58  1  6  0  0  0
 57 49  1  1  0  0  0
 58 57  1  0  0  0  0
 59 55  1  6  0  0  0
 59 57  1  0  0  0  0
 60 56  1  0  0  0  0
 61 59  1  0  0  0  0
 63 62  1  0  0  0  0
 64 62  1  0  0  0  0
 65 64  1  0  0  0  0
 65 66  1  0  0  0  0
M  END
>  <MODEL>
6

>  <REMARK>
 VINA RESULT:      -3.8      2.579      3.984
  Name = 
  28 active torsions:
  status: ('A' for Active; 'I' for Inactive)
    1  A    between atoms: C_1  and  C_34
    2  A    between atoms: C_2  and  O_12
    3  A    between atoms: C_2  and  C_27
    4  A    between atoms: C_2  and  C_52
    5  A    between atoms: O_3  and  C_32
    6  A    between atoms: O_3  and  C_34
    7  A    between atoms: C_5  and  C_18
    8  A    between atoms: C_5  and  N_55
    9  A    between atoms: C_7  and  C_17
   10  A    between atoms: C_7  and  C_25
   11  A    between atoms: C_9  and  C_11
   12  A    between atoms: C_9  and  C_14
   13  A    between atoms: C_10  and  C_24
   14  A    between atoms: C_11  and  C_18
   15  A    between atoms: O_12  and  C_53
   16  A    between atoms: C_13  and  N_22
   17  A    between atoms: C_13  and  N_33
   18  A    between atoms: N_15  and  C_24
   19  A    between atoms: C_19  and  C_27
   20  A    between atoms: C_25  and  C_54
   21  A    between atoms: O_28  and  C_49
   22  A    between atoms: O_28  and  C_65
   23  A    between atoms: C_32  and  C_49
   24  A    between atoms: N_33  and  C_43
   25  A    between atoms: C_34  and  C_59
   26  A    between atoms: C_35  and  C_61
   27  A    between atoms: C_45  and  N_63
   28  A    between atoms: C_46  and  N_55
                            x       y       z     vdW  Elec       q    Type
                         _______ _______ _______ _____ _____    ______ ____

>  <TORSDO>
F 28

$$$$
=
 OpenBabel11042409553D

 66 73  0  0  1  0  0  0  0  0999 V2000
  190.3390  176.9700  139.3370 C   0  0  2  0  0  3  0  0  0  0  0  0
  190.7460  176.8780  140.7720 C   0  0  0  0  0  0  0  0  0  0  0  0
  190.1360  175.9460  141.6150 O   0  0  0  0  0  0  0  0  0  0  0  0
  190.4700  175.7510  142.9930 C   0  0  0  0  0  0  0  0  0  0  0  0
  190.0850  176.9760  143.8030 C   0  0  2  0  0  3  0  0  0  0  0  0
  191.5540  176.6960  143.5330 C   0  0  0  0  0  0  0  0  0  0  0  0
  191.6820  177.6880  141.2390 C   0  0  0  0  0  3  0  0  0  0  0  0
  192.0660  177.6330  142.5790 O   0  0  0  0  0  0  0  0  0  0  0  0
  189.7330  176.5490  145.2120 C   0  0  0  0  0  2  0  0  0  0  0  0
  188.2360  176.6550  145.4180 C   0  0  0  0  0  2  0  0  0  0  0  0
  187.7450  177.9810  144.8730 C   0  0  0  0  0  2  0  0  0  0  0  0
  186.2330  177.9530  144.7230 C   0  0  0  0  0  2  0  0  0  0  0  0
  185.2710  180.0550  144.4340 C   0  0  0  0  0  1  0  0  0  0  0  0
  185.8100  178.9120  143.7140 N   0  0  0  0  0  0  0  0  0  0  0  0
  183.9640  179.3280  142.2790 N   0  0  0  0  0  0  0  0  0  0  0  0
  184.7000  178.3060  142.9960 C   0  0  1  0  0  3  0  0  0  0  0  0
  184.8680  178.4820  141.6550 O   0  0  0  0  0  0  0  0  0  0  0  0
  182.5860  178.8820  141.9870 C   0  0  0  0  0  0  0  0  0  0  0  0
  181.6610  179.3070  142.9530 O   0  0  0  0  0  1  0  0  0  0  0  0
  182.5680  177.4860  141.9400 O   0  0  0  0  0  1  0  0  0  0  0  0
  182.1510  179.4210  140.6290 C   0  0  0  0  0  2  0  0  0  0  0  0
  180.8980  178.9380  140.2910 F   0  0  0  0  0  0  0  0  0  0  0  0
  191.1510  177.1280  136.9890 C   0  0  0  0  0  2  0  0  0  0  0  0
  191.6360  175.8100  137.5650 C   0  0  2  0  0  3  0  0  0  0  0  0
  191.5700  177.0470  138.4450 C   0  0  2  0  0  3  0  0  0  0  0  0
  193.0130  175.5880  137.1690 N   0  0  0  0  0  2  0  0  0  0  0  0
  193.0840  174.2470  136.6190 C   0  0  0  0  0  2  0  0  0  0  0  0
  196.4750  171.6510  135.8350 C   0  0  2  0  0  3  0  0  0  0  0  0
  194.1690  174.1740  135.6570 N   0  0  0  0  0  2  0  0  0  0  0  0
  195.1340  173.1280  135.7230 C   0  0  0  0  0  0  0  0  0  0  0  0
  196.2180  172.8040  134.9950 N   0  0  0  0  0  0  0  0  0  0  0  0
  195.3700  171.9630  136.6480 C   0  0  1  0  0  3  0  0  0  0  0  0
  194.6920  169.7200  137.1350 F   0  0  0  0  0  0  0  0  0  0  0  0
  194.2510  170.9090  136.5840 C   0  0  2  0  0  3  0  0  0  0  0  0
  193.5770  170.5940  134.9120 S   0  0  0  0  0  1  0  0  0  0  0  0
  197.7670  171.8470  136.6160 C   0  0  0  0  0  2  0  0  0  0  0  0
  198.0960  173.3290  136.7560 C   0  0  2  0  0  3  0  0  0  0  0  0
  198.9990  175.2110  135.5620 O   0  0  0  0  0  0  0  0  0  0  0  0
  198.2480  174.5470  134.6720 O   0  0  0  0  0  0  0  0  0  0  0  0
  198.9800  173.8320  135.6000 C   0  0  0  0  0  3  0  0  0  0  0  0
  198.6740  173.5730  138.0060 O   0  0  0  0  0  0  0  0  0  0  0  0
  198.2150  174.8390  138.3710 C   0  0  0  0  0  2  0  0  0  0  0  0
  197.8860  174.8420  139.7120 F   0  0  0  0  0  0  0  0  0  0  0  0
  189.5490  178.1070  139.1470 O   0  0  0  0  0  0  0  0  0  0  0  0
  188.3590  177.6360  138.5850 C   0  0  0  0  0  2  0  0  0  0  0  0
  187.9920  178.4770  137.3760 C   0  0  0  0  0  2  0  0  0  0  0  0
  186.6280  178.2680  137.0380 O   0  0  0  0  0  0  0  0  0  0  0  0
  185.7060  179.3290  138.8680 O   0  0  0  0  0  0  0  0  0  0  0  0
  184.4540  177.6100  137.9430 N   0  0  0  0  0  2  0  0  0  0  0  0
  185.6050  178.4500  137.9720 C   0  0  0  0  0  0  0  0  0  0  0  0
  181.0460  173.1520  138.0530 C   0  0  0  0  0  1  0  0  0  0  0  0
  180.7130  176.2100  135.8110 C   0  0  2  0  0  3  0  0  0  0  0  0
  179.6360  174.0380  135.6420 O   0  0  0  0  0  0  0  0  0  0  0  0
  180.4550  174.8020  136.2220 C   0  0  0  0  0  0  0  0  0  0  0  0
  183.3070  176.0600  134.8740 O   0  0  0  0  0  1  0  0  0  0  0  0
  182.0760  175.4770  137.7690 C   0  0  2  0  0  3  0  0  0  0  0  0
  184.3080  176.5400  136.9690 C   0  0  1  0  0  3  0  0  0  0  0  0
  183.8370  175.0080  137.8250 S   0  0  0  0  0  0  0  0  0  0  0  0
  183.1870  176.8710  136.0070 C   0  0  2  0  0  3  0  0  0  0  0  0
  181.2630  174.3760  137.3020 N   0  0  0  0  0  0  0  0  0  0  0  0
  181.8740  176.6050  136.7460 C   0  0  1  0  0  3  0  0  0  0  0  0
  179.5070  177.1360  136.0560 C   0  0  2  0  0  3  0  0  0  0  0  0
  179.1940  177.9820  134.8310 C   0  0  0  0  0  1  0  0  0  0  0  0
  179.7810  178.0960  137.2100 C   0  0  0  0  0  2  0  0  0  0  0  0
  179.3010  179.5100  136.9190 C   0  0  0  0  0  2  0  0  0  0  0  0
  180.2090  180.4460  137.4200 O   0  0  0  0  0  1  0  0  0  0  0  0
  1 44  1  1  0  0  0
  1  2  1  0  0  0  0
  2  7  2  0  0  0  0
  2  3  1  0  0  0  0
  3  4  1  0  0  0  0
  4  6  2  0  0  0  0
  4  5  1  0  0  0  0
  5  9  1  1  0  0  0
  6  5  1  0  0  0  0
  7  8  1  0  0  0  0
  8  6  1  0  0  0  0
  9 10  1  0  0  0  0
 11 10  1  0  0  0  0
 12 11  1  0  0  0  0
 14 13  1  0  0  0  0
 14 12  1  0  0  0  0
 15 16  1  0  0  0  0
 16 14  1  1  0  0  0
 17 15  1  0  0  0  0
 17 16  1  0  0  0  0
 18 15  1  0  0  0  0
 18 19  1  0  0  0  0
 20 18  1  0  0  0  0
 21 18  1  0  0  0  0
 22 21  1  0  0  0  0
 23 24  1  0  0  0  0
 23 25  1  0  0  0  0
 24 26  1  6  0  0  0
 24 25  1  0  0  0  0
 25  1  1  1  0  0  0
 27 26  1  0  0  0  0
 28 36  1  1  0  0  0
 28 32  1  0  0  0  0
 29 30  1  0  0  0  0
 29 27  1  0  0  0  0
 30 32  1  0  0  0  0
 31 30  2  0  0  0  0
 31 28  1  0  0  0  0
 32 34  1  6  0  0  0
 34 35  1  6  0  0  0
 34 33  1  0  0  0  0
 37 36  1  6  0  0  0
 37 41  1  0  0  0  0
 38 40  1  0  0  0  0
 39 38  1  0  0  0  0
 39 40  1  0  0  0  0
 40 37  1  0  0  0  0
 41 42  1  0  0  0  0
 42 43  1  0  0  0  0
 45 44  1  0  0  0  0
 46 45  1  0  0  0  0
 47 46  1  0  0  0  0
 47 50  1  0  0  0  0
 49 50  1  0  0  0  0
 50 48  2  0  0  0  0
 52 62  1  1  0  0  0
 52 54  1  0  0  0  0
 52 61  1  0  0  0  0
 53 54  2  0  0  0  0
 54 60  1  0  0  0  0
 56 58  1  6  0  0  0
 57 58  1  0  0  0  0
 57 49  1  1  0  0  0
 59 55  1  6  0  0  0
 59 61  1  0  0  0  0
 59 57  1  0  0  0  0
 60 56  1  0  0  0  0
 60 51  1  0  0  0  0
 61 56  1  0  0  0  0
 62 64  1  0  0  0  0
 63 62  1  0  0  0  0
 65 64  1  0  0  0  0
 65 66  1  0  0  0  0
M  END
>  <MODEL>
7

>  <REMARK>
 VINA RESULT:      -3.7      3.427     10.662
  Name = 
  28 active torsions:
  status: ('A' for Active; 'I' for Inactive)
    1  A    between atoms: C_1  and  C_34
    2  A    between atoms: C_2  and  O_12
    3  A    between atoms: C_2  and  C_27
    4  A    between atoms: C_2  and  C_52
    5  A    between atoms: O_3  and  C_32
    6  A    between atoms: O_3  and  C_34
    7  A    between atoms: C_5  and  C_18
    8  A    between atoms: C_5  and  N_55
    9  A    between atoms: C_7  and  C_17
   10  A    between atoms: C_7  and  C_25
   11  A    between atoms: C_9  and  C_11
   12  A    between atoms: C_9  and  C_14
   13  A    between atoms: C_10  and  C_24
   14  A    between atoms: C_11  and  C_18
   15  A    between atoms: O_12  and  C_53
   16  A    between atoms: C_13  and  N_22
   17  A    between atoms: C_13  and  N_33
   18  A    between atoms: N_15  and  C_24
   19  A    between atoms: C_19  and  C_27
   20  A    between atoms: C_25  and  C_54
   21  A    between atoms: O_28  and  C_49
   22  A    between atoms: O_28  and  C_65
   23  A    between atoms: C_32  and  C_49
   24  A    between atoms: N_33  and  C_43
   25  A    between atoms: C_34  and  C_59
   26  A    between atoms: C_35  and  C_61
   27  A    between atoms: C_45  and  N_63
   28  A    between atoms: C_46  and  N_55
                            x       y       z     vdW  Elec       q    Type
                         _______ _______ _______ _____ _____    ______ ____

>  <TORSDO>
F 28

$$$$
=
 OpenBabel11042409553D

 66 73  0  0  1  0  0  0  0  0999 V2000
  185.4070  179.4220  140.7520 C   0  0  2  0  0  3  0  0  0  0  0  0
  186.4370  178.7400  139.9110 C   0  0  0  0  0  0  0  0  0  0  0  0
  186.3940  178.8530  138.5200 O   0  0  0  0  0  0  0  0  0  0  0  0
  187.3450  178.2710  137.6240 C   0  0  0  0  0  0  0  0  0  0  0  0
  187.2430  176.7560  137.6650 C   0  0  2  0  0  3  0  0  0  0  0  0
  188.4420  177.4370  138.3030 C   0  0  0  0  0  0  0  0  0  0  0  0
  187.3850  178.0240  140.4930 C   0  0  0  0  0  3  0  0  0  0  0  0
  188.3480  177.3640  139.7300 O   0  0  0  0  0  0  0  0  0  0  0  0
  187.6300  176.1960  136.3120 C   0  0  0  0  0  2  0  0  0  0  0  0
  188.6400  177.1110  135.6510 C   0  0  0  0  0  2  0  0  0  0  0  0
  189.4050  176.3380  134.5960 C   0  0  0  0  0  2  0  0  0  0  0  0
  189.5970  174.8990  135.0440 C   0  0  0  0  0  2  0  0  0  0  0  0
  191.1500  173.2660  135.6340 C   0  0  0  0  0  1  0  0  0  0  0  0
  190.9900  174.5080  134.8960 N   0  0  0  0  0  0  0  0  0  0  0  0
  193.1700  175.0880  135.6380 N   0  0  0  0  0  0  0  0  0  0  0  0
  191.7850  175.5120  135.5850 C   0  0  1  0  0  3  0  0  0  0  0  0
  192.7120  176.0320  134.7310 O   0  0  0  0  0  0  0  0  0  0  0  0
  193.8890  175.7670  136.7360 C   0  0  0  0  0  0  0  0  0  0  0  0
  194.2260  177.0940  136.4270 O   0  0  0  0  0  1  0  0  0  0  0  0
  195.0660  175.0630  137.0030 O   0  0  0  0  0  1  0  0  0  0  0  0
  193.0250  175.7660  137.9920 C   0  0  0  0  0  2  0  0  0  0  0  0
  193.2680  176.8970  138.7520 F   0  0  0  0  0  0  0  0  0  0  0  0
  184.0210  178.9970  142.7760 C   0  0  0  0  0  2  0  0  0  0  0  0
  185.1510  179.9310  143.1690 C   0  0  2  0  0  3  0  0  0  0  0  0
  185.3940  178.8280  142.1530 C   0  0  2  0  0  3  0  0  0  0  0  0
  185.6930  179.5200  144.4500 N   0  0  0  0  0  2  0  0  0  0  0  0
  185.1590  178.2010  144.7320 C   0  0  0  0  0  2  0  0  0  0  0  0
  189.1660  176.7010  145.4630 C   0  0  2  0  0  3  0  0  0  0  0  0
  186.0370  177.1910  144.1690 N   0  0  0  0  0  2  0  0  0  0  0  0
  187.3420  176.9790  144.7010 C   0  0  0  0  0  0  0  0  0  0  0  0
  188.3530  176.1440  144.4020 N   0  0  0  0  0  0  0  0  0  0  0  0
  188.1530  177.6180  145.7970 C   0  0  1  0  0  3  0  0  0  0  0  0
  186.2090  177.6860  147.1910 F   0  0  0  0  0  0  0  0  0  0  0  0
  187.5600  177.3860  147.1960 C   0  0  2  0  0  3  0  0  0  0  0  0
  188.3820  178.3000  148.5510 S   0  0  0  0  0  1  0  0  0  0  0  0
  190.3630  177.4380  144.8770 C   0  0  0  0  0  2  0  0  0  0  0  0
  190.1970  177.6310  143.3730 C   0  0  2  0  0  3  0  0  0  0  0  0
  191.9360  177.0050  141.8360 O   0  0  0  0  0  0  0  0  0  0  0  0
  190.7840  176.7210  141.2110 O   0  0  0  0  0  0  0  0  0  0  0  0
  190.8810  176.5080  142.5730 C   0  0  0  0  0  3  0  0  0  0  0  0
  190.6560  178.8980  143.0020 O   0  0  0  0  0  0  0  0  0  0  0  0
  191.4190  179.3350  144.0860 C   0  0  0  0  0  2  0  0  0  0  0  0
  190.7910  180.4060  144.6910 F   0  0  0  0  0  0  0  0  0  0  0  0
  184.1470  179.2680  140.1650 O   0  0  0  0  0  0  0  0  0  0  0  0
  184.1170  177.9480  139.7050 C   0  0  0  0  0  2  0  0  0  0  0  0
  183.5280  177.9040  138.3060 C   0  0  0  0  0  2  0  0  0  0  0  0
  182.1350  177.6360  138.3780 O   0  0  0  0  0  0  0  0  0  0  0  0
  181.4090  179.0650  136.7180 O   0  0  0  0  0  0  0  0  0  0  0  0
  180.1870  177.1130  136.9950 N   0  0  0  0  0  2  0  0  0  0  0  0
  181.2680  177.9770  137.3380 C   0  0  0  0  0  0  0  0  0  0  0  0
  179.5330  171.9160  134.9790 C   0  0  0  0  0  1  0  0  0  0  0  0
  182.5480  173.2510  136.8810 C   0  0  2  0  0  3  0  0  0  0  0  0
  181.9180  170.9570  136.3850 O   0  0  0  0  0  0  0  0  0  0  0  0
  181.6570  172.1900  136.3330 C   0  0  0  0  0  0  0  0  0  0  0  0
  181.0490  174.2130  138.9920 O   0  0  0  0  0  1  0  0  0  0  0  0
  180.4560  174.1380  135.8480 C   0  0  2  0  0  3  0  0  0  0  0  0
  179.9390  175.8720  137.7130 C   0  0  1  0  0  3  0  0  0  0  0  0
  178.9520  174.7620  136.6690 S   0  0  0  0  0  0  0  0  0  0  0  0
  181.2500  175.1680  137.9910 C   0  0  2  0  0  3  0  0  0  0  0  0
  180.4530  172.6930  135.7910 N   0  0  0  0  0  0  0  0  0  0  0  0
  181.6910  174.5170  136.6790 C   0  0  1  0  0  3  0  0  0  0  0  0
  183.8700  173.3850  136.1020 C   0  0  2  0  0  3  0  0  0  0  0  0
  183.6380  173.3550  134.5990 C   0  0  0  0  0  1  0  0  0  0  0  0
  184.8190  172.2380  136.4350 C   0  0  0  0  0  2  0  0  0  0  0  0
  186.2800  172.6590  136.3870 C   0  0  0  0  0  2  0  0  0  0  0  0
  186.7480  172.9430  137.6730 O   0  0  0  0  0  1  0  0  0  0  0  0
  1 44  1  6  0  0  0
  2  7  2  0  0  0  0
  2  1  1  0  0  0  0
  3  2  1  0  0  0  0
  4  5  1  0  0  0  0
  4  6  2  0  0  0  0
  4  3  1  0  0  0  0
  5  9  1  6  0  0  0
  5  6  1  0  0  0  0
  6  8  1  0  0  0  0
  8  7  1  0  0  0  0
 10  9  1  0  0  0  0
 11 12  1  0  0  0  0
 11 10  1  0  0  0  0
 14 12  1  0  0  0  0
 14 13  1  0  0  0  0
 15 18  1  0  0  0  0
 16 14  1  6  0  0  0
 16 15  1  0  0  0  0
 17 16  1  0  0  0  0
 17 15  1  0  0  0  0
 18 20  1  0  0  0  0
 18 21  1  0  0  0  0
 19 18  1  0  0  0  0
 21 22  1  0  0  0  0
 23 24  1  0  0  0  0
 24 26  1  1  0  0  0
 25  1  1  6  0  0  0
 25 23  1  0  0  0  0
 25 24  1  0  0  0  0
 26 27  1  0  0  0  0
 28 36  1  6  0  0  0
 28 32  1  0  0  0  0
 29 30  1  0  0  0  0
 29 27  1  0  0  0  0
 30 32  1  0  0  0  0
 31 30  2  0  0  0  0
 31 28  1  0  0  0  0
 32 34  1  1  0  0  0
 34 33  1  6  0  0  0
 34 35  1  0  0  0  0
 37 36  1  1  0  0  0
 38 40  1  0  0  0  0
 39 38  1  0  0  0  0
 39 40  1  0  0  0  0
 40 37  1  0  0  0  0
 41 37  1  0  0  0  0
 41 42  1  0  0  0  0
 42 43  1  0  0  0  0
 45 44  1  0  0  0  0
 46 47  1  0  0  0  0
 46 45  1  0  0  0  0
 48 50  2  0  0  0  0
 49 50  1  0  0  0  0
 50 47  1  0  0  0  0
 51 60  1  0  0  0  0
 52 62  1  6  0  0  0
 54 53  2  0  0  0  0
 54 52  1  0  0  0  0
 56 58  1  1  0  0  0
 56 61  1  0  0  0  0
 57 49  1  6  0  0  0
 57 59  1  0  0  0  0
 58 57  1  0  0  0  0
 59 55  1  1  0  0  0
 60 56  1  0  0  0  0
 60 54  1  0  0  0  0
 61 52  1  0  0  0  0
 61 59  1  0  0  0  0
 62 64  1  0  0  0  0
 63 62  1  0  0  0  0
 65 64  1  0  0  0  0
 65 66  1  0  0  0  0
M  END
>  <MODEL>
8

>  <REMARK>
 VINA RESULT:      -3.6      3.279      8.982
  Name = 
  28 active torsions:
  status: ('A' for Active; 'I' for Inactive)
    1  A    between atoms: C_1  and  C_34
    2  A    between atoms: C_2  and  O_12
    3  A    between atoms: C_2  and  C_27
    4  A    between atoms: C_2  and  C_52
    5  A    between atoms: O_3  and  C_32
    6  A    between atoms: O_3  and  C_34
    7  A    between atoms: C_5  and  C_18
    8  A    between atoms: C_5  and  N_55
    9  A    between atoms: C_7  and  C_17
   10  A    between atoms: C_7  and  C_25
   11  A    between atoms: C_9  and  C_11
   12  A    between atoms: C_9  and  C_14
   13  A    between atoms: C_10  and  C_24
   14  A    between atoms: C_11  and  C_18
   15  A    between atoms: O_12  and  C_53
   16  A    between atoms: C_13  and  N_22
   17  A    between atoms: C_13  and  N_33
   18  A    between atoms: N_15  and  C_24
   19  A    between atoms: C_19  and  C_27
   20  A    between atoms: C_25  and  C_54
   21  A    between atoms: O_28  and  C_49
   22  A    between atoms: O_28  and  C_65
   23  A    between atoms: C_32  and  C_49
   24  A    between atoms: N_33  and  C_43
   25  A    between atoms: C_34  and  C_59
   26  A    between atoms: C_35  and  C_61
   27  A    between atoms: C_45  and  N_63
   28  A    between atoms: C_46  and  N_55
                            x       y       z     vdW  Elec       q    Type
                         _______ _______ _______ _____ _____    ______ ____

>  <TORSDO>
F 28

$$$$
=
 OpenBabel11042409553D

 66 73  0  0  1  0  0  0  0  0999 V2000
  190.0620  176.4020  138.8100 C   0  0  2  0  0  3  0  0  0  0  0  0
  190.0300  176.8570  140.2340 C   0  0  0  0  0  0  0  0  0  0  0  0
  191.2190  177.1660  140.8970 O   0  0  0  0  0  0  0  0  0  0  0  0
  191.3010  177.6400  142.2450 C   0  0  0  0  0  0  0  0  0  0  0  0
  190.8580  176.5540  143.2090 C   0  0  2  0  0  3  0  0  0  0  0  0
  189.9520  177.7520  142.9720 C   0  0  0  0  0  0  0  0  0  0  0  0
  188.8700  176.9570  140.8610 C   0  0  0  0  0  3  0  0  0  0  0  0
  188.8150  177.3620  142.1950 O   0  0  0  0  0  0  0  0  0  0  0  0
  191.5970  176.7220  144.5200 C   0  0  0  0  0  2  0  0  0  0  0  0
  190.7010  176.3050  145.6680 C   0  0  0  0  0  2  0  0  0  0  0  0
  189.8840  177.4950  146.1280 C   0  0  0  0  0  2  0  0  0  0  0  0
  188.4090  177.2490  145.8560 C   0  0  0  0  0  2  0  0  0  0  0  0
  187.5690  178.6590  147.5090 C   0  0  0  0  0  1  0  0  0  0  0  0
  187.6480  178.4700  146.0700 N   0  0  0  0  0  0  0  0  0  0  0  0
  186.1650  178.6150  144.2200 N   0  0  0  0  0  0  0  0  0  0  0  0
  186.2950  178.2100  145.6060 C   0  0  1  0  0  3  0  0  0  0  0  0
  186.3210  177.2900  144.6000 O   0  0  0  0  0  0  0  0  0  0  0  0
  184.7510  178.8660  143.8710 C   0  0  0  0  0  0  0  0  0  0  0  0
  184.3480  180.1810  144.1520 O   0  0  0  0  0  1  0  0  0  0  0  0
  183.9470  177.9900  144.6040 O   0  0  0  0  0  1  0  0  0  0  0  0
  184.5360  178.5990  142.3860 C   0  0  0  0  0  2  0  0  0  0  0  0
  183.2400  178.9160  142.0170 F   0  0  0  0  0  0  0  0  0  0  0  0
  189.8300  178.8770  138.6760 C   0  0  0  0  0  2  0  0  0  0  0  0
  188.5530  178.2570  138.1380 C   0  0  2  0  0  3  0  0  0  0  0  0
  189.8930  177.5910  137.8750 C   0  0  2  0  0  3  0  0  0  0  0  0
  188.1370  178.9670  136.9440 N   0  0  0  0  0  2  0  0  0  0  0  0
  186.8010  178.5030  136.6200 C   0  0  0  0  0  2  0  0  0  0  0  0
  183.3980  176.0400  137.7150 C   0  0  2  0  0  3  0  0  0  0  0  0
  186.1120  178.1200  137.8390 N   0  0  0  0  0  2  0  0  0  0  0  0
  184.9810  177.2550  137.7980 C   0  0  0  0  0  0  0  0  0  0  0  0
  184.1610  176.7370  138.7300 N   0  0  0  0  0  0  0  0  0  0  0  0
  184.2060  176.5790  136.6970 C   0  0  1  0  0  3  0  0  0  0  0  0
  185.8100  174.8100  136.8420 F   0  0  0  0  0  0  0  0  0  0  0  0
  185.0280  175.5180  135.9470 C   0  0  2  0  0  3  0  0  0  0  0  0
  186.0810  176.1630  134.5970 S   0  0  0  0  0  1  0  0  0  0  0  0
  181.9920  176.6180  137.6240 C   0  0  0  0  0  2  0  0  0  0  0  0
  181.3450  176.6880  139.0020 C   0  0  2  0  0  3  0  0  0  0  0  0
  179.1820  176.6030  140.0490 O   0  0  0  0  0  0  0  0  0  0  0  0
  179.0650  175.8870  138.9220 O   0  0  0  0  0  0  0  0  0  0  0  0
  179.8450  177.0260  138.9160 C   0  0  0  0  0  3  0  0  0  0  0  0
  182.0430  177.5900  139.8110 O   0  0  0  0  0  0  0  0  0  0  0  0
  181.1670  178.6610  139.9920 C   0  0  0  0  0  2  0  0  0  0  0  0
  181.4830  179.6710  139.1050 F   0  0  0  0  0  0  0  0  0  0  0  0
  189.0350  175.4810  138.5900 O   0  0  0  0  0  0  0  0  0  0  0  0
  189.0080  175.2880  137.2050 C   0  0  0  0  0  2  0  0  0  0  0  0
  188.9020  173.8060  136.8950 C   0  0  0  0  0  2  0  0  0  0  0  0
  190.0680  173.3720  136.2090 O   0  0  0  0  0  0  0  0  0  0  0  0
  190.3740  175.0510  134.6550 O   0  0  0  0  0  0  0  0  0  0  0  0
  192.2880  174.2620  135.7020 N   0  0  0  0  0  2  0  0  0  0  0  0
  190.8770  174.2640  135.5020 C   0  0  0  0  0  0  0  0  0  0  0  0
  195.7640  169.9970  134.5940 C   0  0  0  0  0  1  0  0  0  0  0  0
  196.6960  173.3360  136.1670 C   0  0  2  0  0  3  0  0  0  0  0  0
  197.9540  171.2590  136.0750 O   0  0  0  0  0  0  0  0  0  0  0  0
  196.8970  171.9000  135.8270 C   0  0  0  0  0  0  0  0  0  0  0  0
  194.7560  173.1870  138.1280 O   0  0  0  0  0  1  0  0  0  0  0  0
  194.7210  172.2870  135.0580 C   0  0  2  0  0  3  0  0  0  0  0  0
  192.9320  173.3380  136.6220 C   0  0  1  0  0  3  0  0  0  0  0  0
  193.1520  171.7320  135.8030 S   0  0  0  0  0  0  0  0  0  0  0  0
  194.3130  173.8460  136.9770 C   0  0  2  0  0  3  0  0  0  0  0  0
  195.7590  171.2980  135.2410 N   0  0  0  0  0  0  0  0  0  0  0  0
  195.2180  173.5480  135.7810 C   0  0  1  0  0  3  0  0  0  0  0  0
  197.5920  174.2780  135.3410 C   0  0  2  0  0  3  0  0  0  0  0  0
  199.0400  173.8130  135.3390 C   0  0  0  0  0  1  0  0  0  0  0  0
  197.5720  175.6920  135.9150 C   0  0  0  0  0  2  0  0  0  0  0  0
  197.2300  176.7410  134.8670 C   0  0  0  0  0  2  0  0  0  0  0  0
  195.8450  176.8560  134.7280 O   0  0  0  0  0  1  0  0  0  0  0  0
  1 44  1  1  0  0  0
  1  2  1  0  0  0  0
  2  7  2  0  0  0  0
  2  3  1  0  0  0  0
  3  4  1  0  0  0  0
  4  6  2  0  0  0  0
  4  5  1  0  0  0  0
  5  9  1  1  0  0  0
  6  5  1  0  0  0  0
  7  8  1  0  0  0  0
  8  6  1  0  0  0  0
  9 10  1  0  0  0  0
 10 11  1  0  0  0  0
 12 14  1  0  0  0  0
 12 11  1  0  0  0  0
 14 13  1  0  0  0  0
 15 17  1  0  0  0  0
 15 16  1  0  0  0  0
 16 14  1  6  0  0  0
 17 16  1  0  0  0  0
 18 19  1  0  0  0  0
 18 15  1  0  0  0  0
 18 20  1  0  0  0  0
 21 18  1  0  0  0  0
 22 21  1  0  0  0  0
 24 26  1  6  0  0  0
 24 23  1  0  0  0  0
 25 24  1  0  0  0  0
 25 23  1  0  0  0  0
 25  1  1  1  0  0  0
 27 26  1  0  0  0  0
 27 29  1  0  0  0  0
 28 36  1  6  0  0  0
 28 31  1  0  0  0  0
 30 29  1  0  0  0  0
 30 31  2  0  0  0  0
 32 34  1  1  0  0  0
 32 28  1  0  0  0  0
 32 30  1  0  0  0  0
 34 35  1  6  0  0  0
 34 33  1  0  0  0  0
 37 36  1  6  0  0  0
 37 41  1  0  0  0  0
 39 38  1  0  0  0  0
 40 39  1  0  0  0  0
 40 37  1  0  0  0  0
 40 38  1  0  0  0  0
 41 42  1  0  0  0  0
 43 42  1  0  0  0  0
 45 44  1  0  0  0  0
 46 45  1  0  0  0  0
 47 46  1  0  0  0  0
 48 50  2  0  0  0  0
 50 49  1  0  0  0  0
 50 47  1  0  0  0  0
 51 60  1  0  0  0  0
 52 62  1  6  0  0  0
 54 53  2  0  0  0  0
 54 52  1  0  0  0  0
 56 60  1  0  0  0  0
 56 61  1  0  0  0  0
 56 58  1  1  0  0  0
 57 49  1  6  0  0  0
 57 59  1  0  0  0  0
 58 57  1  0  0  0  0
 59 55  1  1  0  0  0
 60 54  1  0  0  0  0
 61 52  1  0  0  0  0
 61 59  1  0  0  0  0
 62 64  1  0  0  0  0
 63 62  1  0  0  0  0
 65 64  1  0  0  0  0
 66 65  1  0  0  0  0
M  END
>  <MODEL>
9

>  <REMARK>
 VINA RESULT:      -3.5      2.890      5.662
  Name = 
  28 active torsions:
  status: ('A' for Active; 'I' for Inactive)
    1  A    between atoms: C_1  and  C_34
    2  A    between atoms: C_2  and  O_12
    3  A    between atoms: C_2  and  C_27
    4  A    between atoms: C_2  and  C_52
    5  A    between atoms: O_3  and  C_32
    6  A    between atoms: O_3  and  C_34
    7  A    between atoms: C_5  and  C_18
    8  A    between atoms: C_5  and  N_55
    9  A    between atoms: C_7  and  C_17
   10  A    between atoms: C_7  and  C_25
   11  A    between atoms: C_9  and  C_11
   12  A    between atoms: C_9  and  C_14
   13  A    between atoms: C_10  and  C_24
   14  A    between atoms: C_11  and  C_18
   15  A    between atoms: O_12  and  C_53
   16  A    between atoms: C_13  and  N_22
   17  A    between atoms: C_13  and  N_33
   18  A    between atoms: N_15  and  C_24
   19  A    between atoms: C_19  and  C_27
   20  A    between atoms: C_25  and  C_54
   21  A    between atoms: O_28  and  C_49
   22  A    between atoms: O_28  and  C_65
   23  A    between atoms: C_32  and  C_49
   24  A    between atoms: N_33  and  C_43
   25  A    between atoms: C_34  and  C_59
   26  A    between atoms: C_35  and  C_61
   27  A    between atoms: C_45  and  N_63
   28  A    between atoms: C_46  and  N_55
                            x       y       z     vdW  Elec       q    Type
                         _______ _______ _______ _____ _____    ______ ____

>  <TORSDO>
F 28

$$$$
