=
 OpenBabel11032419183D

 25 28  0  0  0  0  0  0  0  0999 V2000
  187.4480  177.9500  145.3770 C   0  0  0  0  0  3  0  0  0  0  0  0
  182.9170  178.8740  143.5390 N   0  0  0  0  0  0  0  0  0  0  0  0
  184.9830  178.1980  142.5800 C   0  0  0  0  0  3  0  0  0  0  0  0
  185.3090  178.6360  146.2630 C   0  0  0  0  0  3  0  0  0  0  0  0
  182.8170  178.5730  141.3680 C   0  0  0  0  0  3  0  0  0  0  0  0
  183.6380  178.5290  142.4720 C   0  0  0  0  0  0  0  0  0  0  0  0
  186.9430  177.9180  144.0670 C   0  0  0  0  0  0  0  0  0  0  0  0
  181.6850  179.1320  143.1500 N   0  0  0  0  0  0  0  0  0  0  0  0
  184.7660  178.6080  144.9810 C   0  0  0  0  0  0  0  0  0  0  0  0
  183.4130  178.9300  144.7970 C   0  0  0  0  0  3  0  0  0  0  0  0
  185.5760  178.2430  143.8590 C   0  0  0  0  0  0  0  0  0  0  0  0
  186.6470  178.3070  146.4700 C   0  0  0  0  0  0  0  0  0  0  0  0
  181.6000  178.9560  141.8360 N   0  0  0  0  0  0  0  0  0  0  0  0
  189.3890  177.2870  141.0190 C   0  0  0  0  0  3  0  0  0  0  0  0
  188.2230  178.3690  141.5570 S   0  0  0  0  0  0  0  0  0  0  0  0
  187.8870  177.5360  142.9830 C   0  0  0  0  0  0  0  0  0  0  0  0
  188.7210  176.4210  143.0070 C   0  0  0  0  0  3  0  0  0  0  0  0
  189.5350  176.2920  141.9230 N   0  0  0  0  0  0  0  0  0  0  0  0
  187.1580  178.3410  147.7710 O   0  0  0  0  0  0  0  0  0  0  0  0
  188.0170  177.3310  148.2850 C   0  0  0  0  0  2  0  0  0  0  0  0
  189.4160  177.5750  147.8300 C   0  0  0  0  0  3  0  0  0  0  0  0
  190.1350  176.5890  147.2970 C   0  0  0  0  0  3  0  0  0  0  0  0
  192.4180  176.1330  147.6650 O   0  0  0  0  0  1  0  0  0  0  0  0
  191.6890  176.3930  145.5250 O   0  0  0  0  0  1  0  0  0  0  0  0
  191.5360  176.8300  146.8410 C   0  0  0  0  0  3  0  0  0  0  0  0
  1 12  1  0  0  0  0
  2 10  1  0  0  0  0
  3 11  2  0  0  0  0
  4 12  2  0  0  0  0
  5 13  1  0  0  0  0
  5  6  2  0  0  0  0
  6  3  1  0  0  0  0
  6  2  1  0  0  0  0
  7  1  2  0  0  0  0
  8  2  1  0  0  0  0
  9  4  1  0  0  0  0
 10  9  2  0  0  0  0
 11  7  1  0  0  0  0
 11  9  1  0  0  0  0
 12 19  1  0  0  0  0
 13  8  2  0  0  0  0
 14 15  1  0  0  0  0
 14 18  2  0  0  0  0
 15 16  1  0  0  0  0
 16 17  2  0  0  0  0
 16  7  1  0  0  0  0
 18 17  1  0  0  0  0
 19 20  1  0  0  0  0
 21 20  1  0  0  0  0
 22 21  2  0  0  0  0
 24 25  1  0  0  0  0
 25 22  1  0  0  0  0
 25 23  1  0  0  0  0
M  END
>  <MODEL>
1

>  <REMARK>
 VINA RESULT:      -9.3      0.000      0.000
  Name = 
  5 active torsions:
  status: ('A' for Active; 'I' for Inactive)
    1  A    between atoms: C_3  and  C_13
    2  A    between atoms: C_10  and  C_23
    3  A    between atoms: C_11  and  C_18
    4  A    between atoms: C_13  and  O_22
    5  A    between atoms: O_22  and  C_24
                            x       y       z     vdW  Elec       q    Type
                         _______ _______ _______ _____ _____    ______ ____

>  <TORSDO>
F 5

$$$$
=
 OpenBabel11032419183D

 25 28  0  0  0  0  0  0  0  0999 V2000
  186.0710  178.2230  143.5800 C   0  0  0  0  0  3  0  0  0  0  0  0
  189.7480  177.1280  146.7480 N   0  0  0  0  0  0  0  0  0  0  0  0
  189.6170  177.3650  144.3870 C   0  0  0  0  0  3  0  0  0  0  0  0
  186.2980  177.9600  145.9690 C   0  0  0  0  0  3  0  0  0  0  0  0
  191.6660  176.8130  145.7290 C   0  0  0  0  0  3  0  0  0  0  0  0
  190.3330  177.1100  145.5500 C   0  0  0  0  0  0  0  0  0  0  0  0
  187.4260  177.9200  143.3740 C   0  0  0  0  0  0  0  0  0  0  0  0
  190.6540  176.8550  147.6640 N   0  0  0  0  0  0  0  0  0  0  0  0
  187.6500  177.6630  145.8100 C   0  0  0  0  0  0  0  0  0  0  0  0
  188.4350  177.3950  146.9410 C   0  0  0  0  0  3  0  0  0  0  0  0
  188.2390  177.6420  144.5060 C   0  0  0  0  0  0  0  0  0  0  0  0
  185.5030  178.2430  144.8600 C   0  0  0  0  0  0  0  0  0  0  0  0
  191.8270  176.6590  147.0690 N   0  0  0  0  0  0  0  0  0  0  0  0
  188.9850  177.5890  139.7500 C   0  0  0  0  0  3  0  0  0  0  0  0
  189.2130  177.0540  141.3250 S   0  0  0  0  0  0  0  0  0  0  0  0
  187.9190  177.9170  141.9700 C   0  0  0  0  0  0  0  0  0  0  0  0
  187.3220  178.6030  140.9150 C   0  0  0  0  0  3  0  0  0  0  0  0
  187.9190  178.4200  139.7040 N   0  0  0  0  0  0  0  0  0  0  0  0
  184.1520  178.5420  145.0570 O   0  0  0  0  0  0  0  0  0  0  0  0
  183.3740  179.2460  144.0980 C   0  0  0  0  0  2  0  0  0  0  0  0
  181.9840  178.7060  144.0750 C   0  0  0  0  0  3  0  0  0  0  0  0
  181.0850  179.1860  143.2190 C   0  0  0  0  0  3  0  0  0  0  0  0
  179.6460  177.5260  142.3670 O   0  0  0  0  0  1  0  0  0  0  0  0
  179.3010  178.2880  144.4830 O   0  0  0  0  0  1  0  0  0  0  0  0
  179.6940  178.6470  143.1940 C   0  0  0  0  0  3  0  0  0  0  0  0
  1 12  1  0  0  0  0
  2 10  1  0  0  0  0
  2  8  1  0  0  0  0
  3 11  2  0  0  0  0
  3  6  1  0  0  0  0
  5 13  1  0  0  0  0
  6  5  2  0  0  0  0
  6  2  1  0  0  0  0
  7  1  2  0  0  0  0
  7 11  1  0  0  0  0
  9  4  1  0  0  0  0
  9 10  2  0  0  0  0
 11  9  1  0  0  0  0
 12 19  1  0  0  0  0
 12  4  2  0  0  0  0
 13  8  2  0  0  0  0
 14 15  1  0  0  0  0
 15 16  1  0  0  0  0
 16  7  1  0  0  0  0
 17 16  2  0  0  0  0
 18 14  2  0  0  0  0
 18 17  1  0  0  0  0
 20 19  1  0  0  0  0
 21 20  1  0  0  0  0
 22 21  2  0  0  0  0
 23 25  1  0  0  0  0
 25 22  1  0  0  0  0
 25 24  1  0  0  0  0
M  END
>  <MODEL>
2

>  <REMARK>
 VINA RESULT:      -9.0      3.693      7.263
  Name = 
  5 active torsions:
  status: ('A' for Active; 'I' for Inactive)
    1  A    between atoms: C_3  and  C_13
    2  A    between atoms: C_10  and  C_23
    3  A    between atoms: C_11  and  C_18
    4  A    between atoms: C_13  and  O_22
    5  A    between atoms: O_22  and  C_24
                            x       y       z     vdW  Elec       q    Type
                         _______ _______ _______ _____ _____    ______ ____

>  <TORSDO>
F 5

$$$$
=
 OpenBabel11032419183D

 25 28  0  0  0  0  0  0  0  0999 V2000
  190.5820  176.3900  143.6580 C   0  0  0  0  0  3  0  0  0  0  0  0
  186.1110  178.1480  144.9510 N   0  0  0  0  0  0  0  0  0  0  0  0
  188.0770  177.5850  146.1600 C   0  0  0  0  0  3  0  0  0  0  0  0
  188.5410  176.9860  142.5140 C   0  0  0  0  0  3  0  0  0  0  0  0
  185.9370  178.4870  147.1130 C   0  0  0  0  0  3  0  0  0  0  0  0
  186.7700  178.0540  146.1050 C   0  0  0  0  0  0  0  0  0  0  0  0
  190.0280  176.7150  144.9060 C   0  0  0  0  0  0  0  0  0  0  0  0
  184.9050  178.6200  145.1920 N   0  0  0  0  0  0  0  0  0  0  0  0
  187.9560  177.3280  143.7300 C   0  0  0  0  0  0  0  0  0  0  0  0
  186.6390  177.8100  143.7520 C   0  0  0  0  0  3  0  0  0  0  0  0
  188.6940  177.2020  144.9500 C   0  0  0  0  0  0  0  0  0  0  0  0
  189.8530  176.5190  142.4690 C   0  0  0  0  0  0  0  0  0  0  0  0
  184.7750  178.8320  146.4980 N   0  0  0  0  0  0  0  0  0  0  0  0
  192.5370  175.9320  147.8670 C   0  0  0  0  0  3  0  0  0  0  0  0
  192.0670  175.3510  146.3640 S   0  0  0  0  0  0  0  0  0  0  0  0
  190.8900  176.5280  146.1040 C   0  0  0  0  0  0  0  0  0  0  0  0
  190.9050  177.3690  147.2150 C   0  0  0  0  0  3  0  0  0  0  0  0
  191.8080  177.0290  148.1760 N   0  0  0  0  0  0  0  0  0  0  0  0
  190.4100  176.1900  141.2300 O   0  0  0  0  0  0  0  0  0  0  0  0
  191.0270  177.1540  140.3850 C   0  0  0  0  0  2  0  0  0  0  0  0
  190.2080  177.3470  139.1520 C   0  0  0  0  0  3  0  0  0  0  0  0
  189.2710  178.2910  139.1040 C   0  0  0  0  0  3  0  0  0  0  0  0
  187.1010  178.5310  138.2170 O   0  0  0  0  0  1  0  0  0  0  0  0
  188.8090  179.6800  137.2480 O   0  0  0  0  0  1  0  0  0  0  0  0
  188.4510  178.4860  137.8720 C   0  0  0  0  0  3  0  0  0  0  0  0
  1  7  2  0  0  0  0
  2  8  1  0  0  0  0
  2  6  1  0  0  0  0
  4  9  1  0  0  0  0
  6  3  1  0  0  0  0
  6  5  2  0  0  0  0
  7 11  1  0  0  0  0
  7 16  1  0  0  0  0
  8 13  2  0  0  0  0
  9 10  2  0  0  0  0
  9 11  1  0  0  0  0
 10  2  1  0  0  0  0
 11  3  2  0  0  0  0
 12  4  2  0  0  0  0
 12  1  1  0  0  0  0
 13  5  1  0  0  0  0
 14 18  2  0  0  0  0
 15 14  1  0  0  0  0
 16 15  1  0  0  0  0
 16 17  2  0  0  0  0
 17 18  1  0  0  0  0
 19 12  1  0  0  0  0
 20 19  1  0  0  0  0
 21 20  1  0  0  0  0
 22 21  2  0  0  0  0
 24 25  1  0  0  0  0
 25 23  1  0  0  0  0
 25 22  1  0  0  0  0
M  END
>  <MODEL>
3

>  <REMARK>
 VINA RESULT:      -8.7      3.774      6.460
  Name = 
  5 active torsions:
  status: ('A' for Active; 'I' for Inactive)
    1  A    between atoms: C_3  and  C_13
    2  A    between atoms: C_10  and  C_23
    3  A    between atoms: C_11  and  C_18
    4  A    between atoms: C_13  and  O_22
    5  A    between atoms: O_22  and  C_24
                            x       y       z     vdW  Elec       q    Type
                         _______ _______ _______ _____ _____    ______ ____

>  <TORSDO>
F 5

$$$$
=
 OpenBabel11032419183D

 25 28  0  0  0  0  0  0  0  0999 V2000
  189.9510  177.2120  143.0150 C   0  0  0  0  0  3  0  0  0  0  0  0
  185.3120  178.4170  144.3490 N   0  0  0  0  0  0  0  0  0  0  0  0
  187.2920  177.8870  145.5510 C   0  0  0  0  0  3  0  0  0  0  0  0
  187.8930  177.7600  141.8780 C   0  0  0  0  0  3  0  0  0  0  0  0
  185.0570  178.4850  146.5280 C   0  0  0  0  0  3  0  0  0  0  0  0
  185.9500  178.2460  145.5070 C   0  0  0  0  0  0  0  0  0  0  0  0
  189.3410  177.3400  144.2730 C   0  0  0  0  0  0  0  0  0  0  0  0
  184.0630  178.7510  144.6020 N   0  0  0  0  0  0  0  0  0  0  0  0
  187.2510  177.9060  143.1060 C   0  0  0  0  0  0  0  0  0  0  0  0
  185.8960  178.2670  143.1380 C   0  0  0  0  0  3  0  0  0  0  0  0
  187.9680  177.7020  144.3270 C   0  0  0  0  0  0  0  0  0  0  0  0
  189.2420  177.4150  141.8240 C   0  0  0  0  0  0  0  0  0  0  0  0
  183.8840  178.7980  145.9180 N   0  0  0  0  0  0  0  0  0  0  0  0
  191.2360  176.6590  147.6810 C   0  0  0  0  0  3  0  0  0  0  0  0
  189.7200  177.0710  147.0890 S   0  0  0  0  0  0  0  0  0  0  0  0
  190.1880  177.0890  145.4700 C   0  0  0  0  0  0  0  0  0  0  0  0
  191.5390  176.7520  145.4340 C   0  0  0  0  0  3  0  0  0  0  0  0
  192.1030  176.5240  146.6520 N   0  0  0  0  0  0  0  0  0  0  0  0
  189.8550  177.2820  140.5750 O   0  0  0  0  0  0  0  0  0  0  0  0
  189.1590  177.4910  139.3520 C   0  0  0  0  0  2  0  0  0  0  0  0
  189.5080  176.4150  138.3790 C   0  0  0  0  0  3  0  0  0  0  0  0
  190.7350  175.8990  138.3530 C   0  0  0  0  0  3  0  0  0  0  0  0
  192.3890  174.3890  137.6200 O   0  0  0  0  0  1  0  0  0  0  0  0
  190.2080  173.7480  137.5240 O   0  0  0  0  0  1  0  0  0  0  0  0
  191.0860  174.8220  137.3810 C   0  0  0  0  0  3  0  0  0  0  0  0
  1  7  2  0  0  0  0
  2  8  1  0  0  0  0
  2  6  1  0  0  0  0
  4  9  1  0  0  0  0
  6  3  1  0  0  0  0
  6  5  2  0  0  0  0
  7 11  1  0  0  0  0
  7 16  1  0  0  0  0
  8 13  2  0  0  0  0
  9 10  2  0  0  0  0
  9 11  1  0  0  0  0
 10  2  1  0  0  0  0
 11  3  2  0  0  0  0
 12  4  2  0  0  0  0
 12  1  1  0  0  0  0
 13  5  1  0  0  0  0
 15 14  1  0  0  0  0
 16 15  1  0  0  0  0
 17 16  2  0  0  0  0
 17 18  1  0  0  0  0
 18 14  2  0  0  0  0
 19 12  1  0  0  0  0
 20 19  1  0  0  0  0
 21 20  1  0  0  0  0
 22 21  2  0  0  0  0
 25 24  1  0  0  0  0
 25 23  1  0  0  0  0
 25 22  1  0  0  0  0
M  END
>  <MODEL>
4

>  <REMARK>
 VINA RESULT:      -8.4      3.514      6.060
  Name = 
  5 active torsions:
  status: ('A' for Active; 'I' for Inactive)
    1  A    between atoms: C_3  and  C_13
    2  A    between atoms: C_10  and  C_23
    3  A    between atoms: C_11  and  C_18
    4  A    between atoms: C_13  and  O_22
    5  A    between atoms: O_22  and  C_24
                            x       y       z     vdW  Elec       q    Type
                         _______ _______ _______ _____ _____    ______ ____

>  <TORSDO>
F 5

$$$$
=
 OpenBabel11032419183D

 25 28  0  0  0  0  0  0  0  0999 V2000
  187.2890  177.8690  142.3870 C   0  0  0  0  0  3  0  0  0  0  0  0
  190.9560  176.9250  145.6140 N   0  0  0  0  0  0  0  0  0  0  0  0
  188.6770  177.5610  145.8410 C   0  0  0  0  0  3  0  0  0  0  0  0
  189.6120  177.2250  142.2520 C   0  0  0  0  0  3  0  0  0  0  0  0
  190.3070  177.1300  147.7010 C   0  0  0  0  0  3  0  0  0  0  0  0
  189.9110  177.2250  146.3860 C   0  0  0  0  0  0  0  0  0  0  0  0
  187.3360  177.9080  143.7890 C   0  0  0  0  0  0  0  0  0  0  0  0
  191.9850  176.6470  146.3880 N   0  0  0  0  0  0  0  0  0  0  0  0
  189.6990  177.2420  143.6420 C   0  0  0  0  0  0  0  0  0  0  0  0
  190.9140  176.9130  144.2620 C   0  0  0  0  0  3  0  0  0  0  0  0
  188.5580  177.5810  144.4360 C   0  0  0  0  0  0  0  0  0  0  0  0
  188.4110  177.5350  141.6170 C   0  0  0  0  0  0  0  0  0  0  0  0
  191.6160  176.7650  147.6600 N   0  0  0  0  0  0  0  0  0  0  0  0
  183.8150  178.8820  145.3150 C   0  0  0  0  0  3  0  0  0  0  0  0
  184.5840  178.6630  143.8390 S   0  0  0  0  0  0  0  0  0  0  0  0
  186.0870  178.2880  144.5020 C   0  0  0  0  0  0  0  0  0  0  0  0
  185.9410  178.3300  145.8870 C   0  0  0  0  0  3  0  0  0  0  0  0
  184.6940  178.6620  146.3200 N   0  0  0  0  0  0  0  0  0  0  0  0
  188.3580  177.5020  140.2210 O   0  0  0  0  0  0  0  0  0  0  0  0
  189.2850  178.2020  139.4010 C   0  0  0  0  0  2  0  0  0  0  0  0
  190.0080  177.2420  138.5170 C   0  0  0  0  0  3  0  0  0  0  0  0
  191.1160  176.6370  138.9390 C   0  0  0  0  0  3  0  0  0  0  0  0
  191.1180  174.4870  137.9740 O   0  0  0  0  0  1  0  0  0  0  0  0
  191.9840  176.2190  136.7800 O   0  0  0  0  0  1  0  0  0  0  0  0
  191.8400  175.6750  138.0560 C   0  0  0  0  0  3  0  0  0  0  0  0
  1  7  2  0  0  0  0
  2  6  1  0  0  0  0
  2  8  1  0  0  0  0
  3  6  1  0  0  0  0
  4  9  1  0  0  0  0
  6  5  2  0  0  0  0
  7 11  1  0  0  0  0
  7 16  1  0  0  0  0
  8 13  2  0  0  0  0
  9 10  2  0  0  0  0
  9 11  1  0  0  0  0
 10  2  1  0  0  0  0
 11  3  2  0  0  0  0
 12  4  2  0  0  0  0
 12  1  1  0  0  0  0
 13  5  1  0  0  0  0
 14 18  2  0  0  0  0
 15 16  1  0  0  0  0
 15 14  1  0  0  0  0
 16 17  2  0  0  0  0
 17 18  1  0  0  0  0
 19 12  1  0  0  0  0
 20 19  1  0  0  0  0
 21 22  2  0  0  0  0
 21 20  1  0  0  0  0
 23 25  1  0  0  0  0
 24 25  1  0  0  0  0
 25 22  1  0  0  0  0
M  END
>  <MODEL>
5

>  <REMARK>
 VINA RESULT:      -8.3      3.702      7.435
  Name = 
  5 active torsions:
  status: ('A' for Active; 'I' for Inactive)
    1  A    between atoms: C_3  and  C_13
    2  A    between atoms: C_10  and  C_23
    3  A    between atoms: C_11  and  C_18
    4  A    between atoms: C_13  and  O_22
    5  A    between atoms: O_22  and  C_24
                            x       y       z     vdW  Elec       q    Type
                         _______ _______ _______ _____ _____    ______ ____

>  <TORSDO>
F 5

$$$$
=
 OpenBabel11032419183D

 25 28  0  0  0  0  0  0  0  0999 V2000
  183.1760  179.0600  144.7340 C   0  0  0  0  0  3  0  0  0  0  0  0
  185.6820  178.7160  140.4500 N   0  0  0  0  0  0  0  0  0  0  0  0
  183.3760  178.8380  141.0100 C   0  0  0  0  0  3  0  0  0  0  0  0
  185.4940  178.9310  144.0720 C   0  0  0  0  0  3  0  0  0  0  0  0
  184.3540  178.6860  138.7030 C   0  0  0  0  0  3  0  0  0  0  0  0
  184.4030  178.7500  140.0770 C   0  0  0  0  0  0  0  0  0  0  0  0
  182.7460  178.9800  143.4000 C   0  0  0  0  0  0  0  0  0  0  0  0
  186.4330  178.6340  139.3710 N   0  0  0  0  0  0  0  0  0  0  0  0
  185.1100  178.8580  142.7350 C   0  0  0  0  0  0  0  0  0  0  0  0
  186.0930  178.7680  141.7380 C   0  0  0  0  0  3  0  0  0  0  0  0
  183.7250  178.8850  142.3760 C   0  0  0  0  0  0  0  0  0  0  0  0
  184.5340  179.0340  145.0760 C   0  0  0  0  0  0  0  0  0  0  0  0
  185.6500  178.6130  138.2970 N   0  0  0  0  0  0  0  0  0  0  0  0
  178.9310  179.1990  142.3640 C   0  0  0  0  0  3  0  0  0  0  0  0
  180.4520  179.6970  141.8590 S   0  0  0  0  0  0  0  0  0  0  0  0
  181.2780  179.0050  143.1550 C   0  0  0  0  0  0  0  0  0  0  0  0
  180.3250  178.3790  143.9550 C   0  0  0  0  0  3  0  0  0  0  0  0
  179.0420  178.4970  143.5140 N   0  0  0  0  0  0  0  0  0  0  0  0
  184.9550  179.1110  146.4070 O   0  0  0  0  0  0  0  0  0  0  0  0
  185.4800  177.9930  147.1120 C   0  0  0  0  0  2  0  0  0  0  0  0
  186.9160  178.2280  147.4400 C   0  0  0  0  0  3  0  0  0  0  0  0
  187.8700  177.5010  146.8610 C   0  0  0  0  0  3  0  0  0  0  0  0
  189.4100  178.2670  148.4720 O   0  0  0  0  0  1  0  0  0  0  0  0
  190.0090  176.5300  147.1280 O   0  0  0  0  0  1  0  0  0  0  0  0
  189.3070  177.7340  147.1880 C   0  0  0  0  0  3  0  0  0  0  0  0
  1 12  1  0  0  0  0
  2 10  1  0  0  0  0
  3 11  2  0  0  0  0
  4 12  2  0  0  0  0
  5  6  2  0  0  0  0
  6  2  1  0  0  0  0
  6  3  1  0  0  0  0
  7  1  2  0  0  0  0
  8  2  1  0  0  0  0
  9  4  1  0  0  0  0
 10  9  2  0  0  0  0
 11  9  1  0  0  0  0
 11  7  1  0  0  0  0
 12 19  1  0  0  0  0
 13  5  1  0  0  0  0
 13  8  2  0  0  0  0
 14 18  2  0  0  0  0
 15 14  1  0  0  0  0
 15 16  1  0  0  0  0
 16  7  1  0  0  0  0
 16 17  2  0  0  0  0
 18 17  1  0  0  0  0
 19 20  1  0  0  0  0
 20 21  1  0  0  0  0
 22 25  1  0  0  0  0
 22 21  2  0  0  0  0
 24 25  1  0  0  0  0
 25 23  1  0  0  0  0
M  END
>  <MODEL>
6

>  <REMARK>
 VINA RESULT:      -8.3      2.920      5.111
  Name = 
  5 active torsions:
  status: ('A' for Active; 'I' for Inactive)
    1  A    between atoms: C_3  and  C_13
    2  A    between atoms: C_10  and  C_23
    3  A    between atoms: C_11  and  C_18
    4  A    between atoms: C_13  and  O_22
    5  A    between atoms: O_22  and  C_24
                            x       y       z     vdW  Elec       q    Type
                         _______ _______ _______ _____ _____    ______ ____

>  <TORSDO>
F 5

$$$$
=
 OpenBabel11032419183D

 25 28  0  0  0  0  0  0  0  0999 V2000
  186.0080  177.9650  142.7230 C   0  0  0  0  0  3  0  0  0  0  0  0
  187.5780  178.1120  147.4420 N   0  0  0  0  0  0  0  0  0  0  0  0
  188.6190  177.5910  145.3700 C   0  0  0  0  0  3  0  0  0  0  0  0
  185.0350  178.4750  144.8730 C   0  0  0  0  0  3  0  0  0  0  0  0
  189.7030  177.5950  147.6340 C   0  0  0  0  0  3  0  0  0  0  0  0
  188.6590  177.7510  146.7500 C   0  0  0  0  0  0  0  0  0  0  0  0
  187.2540  177.6850  143.3060 C   0  0  0  0  0  0  0  0  0  0  0  0
  187.9010  178.1890  148.7170 N   0  0  0  0  0  0  0  0  0  0  0  0
  186.2570  178.2160  145.4900 C   0  0  0  0  0  0  0  0  0  0  0  0
  186.3720  178.3570  146.8810 C   0  0  0  0  0  3  0  0  0  0  0  0
  187.3910  177.8180  144.7130 C   0  0  0  0  0  0  0  0  0  0  0  0
  184.9030  178.3540  143.4910 C   0  0  0  0  0  0  0  0  0  0  0  0
  189.1850  177.8780  148.8590 N   0  0  0  0  0  0  0  0  0  0  0  0
  190.0800  176.9100  140.6430 C   0  0  0  0  0  3  0  0  0  0  0  0
  188.7240  177.8740  140.8660 S   0  0  0  0  0  0  0  0  0  0  0  0
  188.3540  177.2680  142.3940 C   0  0  0  0  0  0  0  0  0  0  0  0
  189.3270  176.3200  142.7010 C   0  0  0  0  0  3  0  0  0  0  0  0
  190.2640  176.1280  141.7310 N   0  0  0  0  0  0  0  0  0  0  0  0
  183.6640  178.6280  142.9050 O   0  0  0  0  0  0  0  0  0  0  0  0
  182.5640  179.1470  143.6420 C   0  0  0  0  0  2  0  0  0  0  0  0
  181.2820  178.6790  143.0400 C   0  0  0  0  0  3  0  0  0  0  0  0
  181.1260  178.6550  141.7180 C   0  0  0  0  0  3  0  0  0  0  0  0
  180.0860  177.0570  140.3330 O   0  0  0  0  0  1  0  0  0  0  0  0
  178.9330  177.8680  142.1190 O   0  0  0  0  0  1  0  0  0  0  0  0
  179.8450  178.1870  141.1120 C   0  0  0  0  0  3  0  0  0  0  0  0
  1  7  2  0  0  0  0
  1 12  1  0  0  0  0
  2  8  1  0  0  0  0
  3  6  1  0  0  0  0
  4  9  1  0  0  0  0
  5 13  1  0  0  0  0
  6  2  1  0  0  0  0
  6  5  2  0  0  0  0
  7 11  1  0  0  0  0
  8 13  2  0  0  0  0
  9 10  2  0  0  0  0
 10  2  1  0  0  0  0
 11  3  2  0  0  0  0
 11  9  1  0  0  0  0
 12  4  2  0  0  0  0
 14 15  1  0  0  0  0
 14 18  2  0  0  0  0
 15 16  1  0  0  0  0
 16 17  2  0  0  0  0
 16  7  1  0  0  0  0
 18 17  1  0  0  0  0
 19 12  1  0  0  0  0
 19 20  1  0  0  0  0
 21 20  1  0  0  0  0
 22 21  2  0  0  0  0
 23 25  1  0  0  0  0
 25 22  1  0  0  0  0
 25 24  1  0  0  0  0
M  END
>  <MODEL>
7

>  <REMARK>
 VINA RESULT:      -8.2      4.067      7.124
  Name = 
  5 active torsions:
  status: ('A' for Active; 'I' for Inactive)
    1  A    between atoms: C_3  and  C_13
    2  A    between atoms: C_10  and  C_23
    3  A    between atoms: C_11  and  C_18
    4  A    between atoms: C_13  and  O_22
    5  A    between atoms: O_22  and  C_24
                            x       y       z     vdW  Elec       q    Type
                         _______ _______ _______ _____ _____    ______ ____

>  <TORSDO>
F 5

$$$$
=
 OpenBabel11032419183D

 25 28  0  0  0  0  0  0  0  0999 V2000
  187.5190  177.5910  145.2260 C   0  0  0  0  0  3  0  0  0  0  0  0
  189.2580  177.6840  140.5650 N   0  0  0  0  0  0  0  0  0  0  0  0
  190.2460  177.2910  142.6900 C   0  0  0  0  0  3  0  0  0  0  0  0
  186.6020  177.9780  143.0270 C   0  0  0  0  0  3  0  0  0  0  0  0
  191.4070  177.2500  140.4640 C   0  0  0  0  0  3  0  0  0  0  0  0
  190.3280  177.3980  141.3070 C   0  0  0  0  0  0  0  0  0  0  0  0
  188.8090  177.4070  144.7030 C   0  0  0  0  0  0  0  0  0  0  0  0
  189.6200  177.7210  139.3000 N   0  0  0  0  0  0  0  0  0  0  0  0
  187.8630  177.7940  142.4660 C   0  0  0  0  0  0  0  0  0  0  0  0
  188.0210  177.8870  141.0750 C   0  0  0  0  0  3  0  0  0  0  0  0
  188.9900  177.5000  143.2970 C   0  0  0  0  0  0  0  0  0  0  0  0
  186.4210  177.8770  144.4050 C   0  0  0  0  0  0  0  0  0  0  0  0
  190.9210  177.4620  139.2130 N   0  0  0  0  0  0  0  0  0  0  0  0
  191.4160  176.5920  147.5690 C   0  0  0  0  0  3  0  0  0  0  0  0
  189.7940  176.9590  147.3440 S   0  0  0  0  0  0  0  0  0  0  0  0
  189.9020  177.1190  145.6700 C   0  0  0  0  0  0  0  0  0  0  0  0
  191.2260  176.8630  145.3240 C   0  0  0  0  0  3  0  0  0  0  0  0
  192.0480  176.5810  146.3730 N   0  0  0  0  0  0  0  0  0  0  0  0
  185.1410  178.0630  144.9330 O   0  0  0  0  0  0  0  0  0  0  0  0
  184.4470  179.3020  144.8470 C   0  0  0  0  0  2  0  0  0  0  0  0
  182.9990  179.0570  144.5880 C   0  0  0  0  0  3  0  0  0  0  0  0
  182.5040  179.1680  143.3570 C   0  0  0  0  0  3  0  0  0  0  0  0
  180.4590  178.3970  144.2410 O   0  0  0  0  0  1  0  0  0  0  0  0
  180.4260  180.1200  142.7540 O   0  0  0  0  0  1  0  0  0  0  0  0
  181.0550  178.9230  143.0950 C   0  0  0  0  0  3  0  0  0  0  0  0
  2 10  1  0  0  0  0
  2  6  1  0  0  0  0
  3 11  2  0  0  0  0
  4 12  2  0  0  0  0
  5  6  2  0  0  0  0
  6  3  1  0  0  0  0
  7  1  2  0  0  0  0
  7 16  1  0  0  0  0
  8  2  1  0  0  0  0
  9  4  1  0  0  0  0
  9 11  1  0  0  0  0
 10  9  2  0  0  0  0
 11  7  1  0  0  0  0
 12 19  1  0  0  0  0
 12  1  1  0  0  0  0
 13  8  2  0  0  0  0
 13  5  1  0  0  0  0
 15 14  1  0  0  0  0
 16 15  1  0  0  0  0
 17 16  2  0  0  0  0
 17 18  1  0  0  0  0
 18 14  2  0  0  0  0
 20 19  1  0  0  0  0
 21 20  1  0  0  0  0
 22 21  2  0  0  0  0
 24 25  1  0  0  0  0
 25 22  1  0  0  0  0
 25 23  1  0  0  0  0
M  END
>  <MODEL>
8

>  <REMARK>
 VINA RESULT:      -8.1      3.902      6.962
  Name = 
  5 active torsions:
  status: ('A' for Active; 'I' for Inactive)
    1  A    between atoms: C_3  and  C_13
    2  A    between atoms: C_10  and  C_23
    3  A    between atoms: C_11  and  C_18
    4  A    between atoms: C_13  and  O_22
    5  A    between atoms: O_22  and  C_24
                            x       y       z     vdW  Elec       q    Type
                         _______ _______ _______ _____ _____    ______ ____

>  <TORSDO>
F 5

$$$$
=
 OpenBabel11032419183D

 25 28  0  0  0  0  0  0  0  0999 V2000
  185.9500  177.8830  142.6900 C   0  0  0  0  0  3  0  0  0  0  0  0
  187.2850  178.2240  147.4710 N   0  0  0  0  0  0  0  0  0  0  0  0
  188.4290  177.6300  145.4740 C   0  0  0  0  0  3  0  0  0  0  0  0
  184.8700  178.4700  144.7680 C   0  0  0  0  0  3  0  0  0  0  0  0
  189.4000  177.7290  147.7870 C   0  0  0  0  0  3  0  0  0  0  0  0
  188.4000  177.8440  146.8470 C   0  0  0  0  0  0  0  0  0  0  0  0
  187.1670  177.6340  143.3430 C   0  0  0  0  0  0  0  0  0  0  0  0
  187.5440  178.3520  148.7560 N   0  0  0  0  0  0  0  0  0  0  0  0
  186.0610  178.2430  145.4540 C   0  0  0  0  0  0  0  0  0  0  0  0
  186.1070  178.4390  146.8420 C   0  0  0  0  0  3  0  0  0  0  0  0
  187.2340  177.8230  144.7500 C   0  0  0  0  0  0  0  0  0  0  0  0
  184.8070  178.2950  143.3870 C   0  0  0  0  0  0  0  0  0  0  0  0
  188.8220  178.0560  148.9720 N   0  0  0  0  0  0  0  0  0  0  0  0
  190.1590  176.8050  140.8860 C   0  0  0  0  0  3  0  0  0  0  0  0
  188.8590  177.8530  141.0540 S   0  0  0  0  0  0  0  0  0  0  0  0
  188.3120  177.1890  142.5040 C   0  0  0  0  0  0  0  0  0  0  0  0
  189.1870  176.1550  142.8310 C   0  0  0  0  0  3  0  0  0  0  0  0
  190.1910  175.9510  141.9340 N   0  0  0  0  0  0  0  0  0  0  0  0
  183.5970  178.5380  142.7310 O   0  0  0  0  0  0  0  0  0  0  0  0
  183.3890  178.2160  141.3610 C   0  0  0  0  0  2  0  0  0  0  0  0
  182.0840  178.7740  140.9010 C   0  0  0  0  0  3  0  0  0  0  0  0
  181.1230  179.0570  141.7770 C   0  0  0  0  0  3  0  0  0  0  0  0
  179.4950  180.7320  142.0890 O   0  0  0  0  0  1  0  0  0  0  0  0
  179.9040  179.9880  139.9780 O   0  0  0  0  0  1  0  0  0  0  0  0
  179.8160  179.6150  141.3190 C   0  0  0  0  0  3  0  0  0  0  0  0
  1  7  2  0  0  0  0
  1 12  1  0  0  0  0
  2  8  1  0  0  0  0
  3  6  1  0  0  0  0
  4  9  1  0  0  0  0
  5 13  1  0  0  0  0
  6  2  1  0  0  0  0
  6  5  2  0  0  0  0
  7 11  1  0  0  0  0
  8 13  2  0  0  0  0
  9 10  2  0  0  0  0
 10  2  1  0  0  0  0
 11  9  1  0  0  0  0
 11  3  2  0  0  0  0
 12  4  2  0  0  0  0
 14 15  1  0  0  0  0
 14 18  2  0  0  0  0
 15 16  1  0  0  0  0
 16 17  2  0  0  0  0
 16  7  1  0  0  0  0
 18 17  1  0  0  0  0
 19 12  1  0  0  0  0
 20 19  1  0  0  0  0
 21 20  1  0  0  0  0
 21 22  2  0  0  0  0
 24 25  1  0  0  0  0
 25 22  1  0  0  0  0
 25 23  1  0  0  0  0
M  END
>  <MODEL>
9

>  <REMARK>
 VINA RESULT:      -8.0      4.068      7.228
  Name = 
  5 active torsions:
  status: ('A' for Active; 'I' for Inactive)
    1  A    between atoms: C_3  and  C_13
    2  A    between atoms: C_10  and  C_23
    3  A    between atoms: C_11  and  C_18
    4  A    between atoms: C_13  and  O_22
    5  A    between atoms: O_22  and  C_24
                            x       y       z     vdW  Elec       q    Type
                         _______ _______ _______ _____ _____    ______ ____

>  <TORSDO>
F 5

$$$$
