=
 OpenBabel11042410513D

 31 35  0  0  1  0  0  0  0  0999 V2000
  187.4660  177.3210  139.0700 N   0  0  1  0  0  0  0  0  0  0  0  0
  187.3980  178.1300  137.8370 C   0  0  1  0  0  3  0  0  0  0  0  0
  190.0320  177.0910  140.7020 C   0  0  0  0  0  3  0  0  0  0  0  0
  188.2660  177.3730  142.7540 S   0  0  0  0  0  0  0  0  0  0  0  0
  188.8300  177.5420  141.0700 C   0  0  0  0  0  0  0  0  0  0  0  0
  189.8090  177.8610  138.2320 C   0  0  0  0  0  2  0  0  0  0  0  0
  188.4730  177.1490  137.9880 C   0  0  1  0  0  3  0  0  0  0  0  0
  186.6990  178.5720  140.9790 C   0  0  0  0  0  3  0  0  0  0  0  0
  187.8790  178.2290  140.1420 C   0  0  2  0  0  3  0  0  0  0  0  0
  186.7580  178.2090  142.2560 C   0  0  0  0  0  0  0  0  0  0  0  0
  190.5700  177.1890  139.3330 C   0  0  0  0  0  0  0  0  0  0  0  0
  191.7020  176.7020  139.0840 O   0  0  0  0  0  0  0  0  0  0  0  0
  184.8320  178.6400  145.4840 C   0  0  0  0  0  3  0  0  0  0  0  0
  185.8750  178.4030  144.5840 C   0  0  0  0  0  3  0  0  0  0  0  0
  185.6500  178.4650  143.2000 C   0  0  0  0  0  0  0  0  0  0  0  0
  183.5530  178.9420  145.0080 C   0  0  0  0  0  3  0  0  0  0  0  0
  184.3600  178.7690  142.7330 C   0  0  0  0  0  3  0  0  0  0  0  0
  183.3180  179.0060  143.6320 C   0  0  0  0  0  3  0  0  0  0  0  0
  185.5660  177.3280  134.7680 O   0  0  0  0  0  0  0  0  0  0  0  0
  187.6440  178.2540  134.9840 O   0  0  0  0  0  1  0  0  0  0  0  0
  186.3430  177.6140  136.9630 N   0  0  0  0  0  0  0  0  0  0  0  0
  186.4870  177.7140  135.5350 C   0  0  0  0  0  0  0  0  0  0  0  0
  184.2030  178.0060  138.0980 C   0  0  0  0  0  3  0  0  0  0  0  0
  184.8040  175.7380  137.5250 C   0  0  0  0  0  0  0  0  0  0  0  0
  182.7200  176.1730  138.5860 C   0  0  0  0  0  0  0  0  0  0  0  0
  185.1210  177.1110  137.5370 C   0  0  0  0  0  0  0  0  0  0  0  0
  182.9990  177.5400  138.6260 C   0  0  0  0  0  0  0  0  0  0  0  0
  183.6220  175.3110  138.0460 N   0  0  0  0  0  0  0  0  0  0  0  0
  181.5550  175.7000  139.0920 F   0  0  0  0  0  0  0  0  0  0  0  0
  182.1120  178.4110  139.1670 F   0  0  0  0  0  0  0  0  0  0  0  0
  185.7560  174.7230  136.9890 C   0  0  0  0  0  1  0  0  0  0  0  0
  1  9  1  0  0  0  0
  2  7  1  0  0  0  0
  2  1  1  0  0  0  0
  3  5  2  0  0  0  0
  5  4  1  0  0  0  0
  6 11  1  0  0  0  0
  7  6  1  0  0  0  0
  7  1  1  0  0  0  0
  8 10  2  0  0  0  0
  9  8  1  0  0  0  0
  9  5  1  0  0  0  0
 10  4  1  0  0  0  0
 10 15  1  0  0  0  0
 11  3  1  0  0  0  0
 12 11  2  0  0  0  0
 14 13  2  0  0  0  0
 15 14  1  0  0  0  0
 16 13  1  0  0  0  0
 17 15  2  0  0  0  0
 17 18  1  0  0  0  0
 18 16  2  0  0  0  0
 19 22  2  0  0  0  0
 20 22  1  0  0  0  0
 21 26  1  0  0  0  0
 21  2  1  0  0  0  0
 22 21  1  0  0  0  0
 23 27  1  0  0  0  0
 24 26  1  0  0  0  0
 24 28  2  0  0  0  0
 25 27  2  0  0  0  0
 25 29  1  0  0  0  0
 26 23  2  0  0  0  0
 27 30  1  0  0  0  0
 28 25  1  0  0  0  0
 31 24  1  0  0  0  0
M  END
>  <MODEL>
1

>  <REMARK>
 VINA RESULT:      -8.2      0.000      0.000
  Name = 
  3 active torsions:
  status: ('A' for Active; 'I' for Inactive)
    1  A    between atoms: C_2  and  N_16
    2  A    between atoms: C_11  and  N_16
    3  A    between atoms: C_21  and  C_26
                            x       y       z     vdW  Elec       q    Type
                         _______ _______ _______ _____ _____    ______ ____

>  <TORSDO>
F 3

$$$$
=
 OpenBabel11042410513D

 31 35  0  0  1  0  0  0  0  0999 V2000
  187.9510  177.1560  139.6190 N   0  0  1  0  0  0  0  0  0  0  0  0
  187.6710  178.0180  138.4530 C   0  0  1  0  0  3  0  0  0  0  0  0
  190.7460  176.9300  140.8150 C   0  0  0  0  0  3  0  0  0  0  0  0
  189.3210  177.0650  143.1290 S   0  0  0  0  0  0  0  0  0  0  0  0
  189.6080  177.3270  141.3890 C   0  0  0  0  0  0  0  0  0  0  0  0
  190.1190  177.8040  138.4520 C   0  0  0  0  0  2  0  0  0  0  0  0
  188.7780  177.0640  138.3850 C   0  0  1  0  0  3  0  0  0  0  0  0
  187.4660  178.2960  141.6840 C   0  0  0  0  0  3  0  0  0  0  0  0
  188.5070  178.0260  140.6570 C   0  0  2  0  0  3  0  0  0  0  0  0
  187.7350  177.8760  142.9160 C   0  0  0  0  0  0  0  0  0  0  0  0
  191.0590  177.1060  139.3850 C   0  0  0  0  0  0  0  0  0  0  0  0
  192.1490  176.6650  138.9390 O   0  0  0  0  0  0  0  0  0  0  0  0
  186.2830  177.9230  146.4100 C   0  0  0  0  0  3  0  0  0  0  0  0
  187.1770  177.7600  145.3470 C   0  0  0  0  0  3  0  0  0  0  0  0
  186.7830  178.0560  144.0330 C   0  0  0  0  0  0  0  0  0  0  0  0
  184.9860  178.3850  146.1680 C   0  0  0  0  0  3  0  0  0  0  0  0
  185.4770  178.5180  143.8020 C   0  0  0  0  0  3  0  0  0  0  0  0
  184.5840  178.6820  144.8630 C   0  0  0  0  0  3  0  0  0  0  0  0
  184.1940  177.6780  137.3490 O   0  0  0  0  0  0  0  0  0  0  0  0
  185.0970  179.2480  138.7440 O   0  0  0  0  0  1  0  0  0  0  0  0
  186.5030  177.5110  137.7300 N   0  0  0  0  0  0  0  0  0  0  0  0
  185.2210  178.1360  137.9180 C   0  0  0  0  0  0  0  0  0  0  0  0
  186.3260  175.0760  137.4840 C   0  0  0  0  0  3  0  0  0  0  0  0
  187.0010  176.3810  135.5670 C   0  0  0  0  0  0  0  0  0  0  0  0
  186.7720  174.0220  135.3660 C   0  0  0  0  0  0  0  0  0  0  0  0
  186.6220  176.3230  136.9230 C   0  0  0  0  0  0  0  0  0  0  0  0
  186.4010  173.9200  136.7080 C   0  0  0  0  0  0  0  0  0  0  0  0
  187.0660  175.2370  134.8320 N   0  0  0  0  0  0  0  0  0  0  0  0
  186.8490  172.9110  134.5940 F   0  0  0  0  0  0  0  0  0  0  0  0
  186.1120  172.7140  137.2540 F   0  0  0  0  0  0  0  0  0  0  0  0
  187.3790  177.6690  134.9180 C   0  0  0  0  0  1  0  0  0  0  0  0
  1  9  1  0  0  0  0
  2  1  1  0  0  0  0
  3  5  2  0  0  0  0
  5  4  1  0  0  0  0
  6 11  1  0  0  0  0
  7  6  1  0  0  0  0
  7  2  1  0  0  0  0
  7  1  1  0  0  0  0
  8 10  2  0  0  0  0
  9  5  1  0  0  0  0
  9  8  1  0  0  0  0
 10  4  1  0  0  0  0
 10 15  1  0  0  0  0
 11  3  1  0  0  0  0
 12 11  2  0  0  0  0
 14 13  2  0  0  0  0
 15 14  1  0  0  0  0
 16 13  1  0  0  0  0
 17 15  2  0  0  0  0
 17 18  1  0  0  0  0
 18 16  2  0  0  0  0
 19 22  2  0  0  0  0
 21 22  1  0  0  0  0
 21  2  1  0  0  0  0
 22 20  1  0  0  0  0
 24 26  2  0  0  0  0
 25 27  1  0  0  0  0
 26 23  1  0  0  0  0
 26 21  1  0  0  0  0
 27 30  1  0  0  0  0
 27 23  2  0  0  0  0
 28 25  2  0  0  0  0
 28 24  1  0  0  0  0
 29 25  1  0  0  0  0
 31 24  1  0  0  0  0
M  END
>  <MODEL>
2

>  <REMARK>
 VINA RESULT:      -8.1      2.302      3.087
  Name = 
  3 active torsions:
  status: ('A' for Active; 'I' for Inactive)
    1  A    between atoms: C_2  and  N_16
    2  A    between atoms: C_11  and  N_16
    3  A    between atoms: C_21  and  C_26
                            x       y       z     vdW  Elec       q    Type
                         _______ _______ _______ _____ _____    ______ ____

>  <TORSDO>
F 3

$$$$
=
 OpenBabel11042410513D

 31 35  0  0  1  0  0  0  0  0999 V2000
  187.9460  177.0900  139.1240 N   0  0  1  0  0  0  0  0  0  0  0  0
  187.4150  178.0820  138.1680 C   0  0  1  0  0  3  0  0  0  0  0  0
  190.9410  176.6100  139.4420 C   0  0  0  0  0  3  0  0  0  0  0  0
  190.2380  176.5670  142.0710 S   0  0  0  0  0  0  0  0  0  0  0  0
  190.0420  176.9970  140.3520 C   0  0  0  0  0  0  0  0  0  0  0  0
  189.7400  177.7550  137.4450 C   0  0  0  0  0  2  0  0  0  0  0  0
  188.3840  177.0890  137.7010 C   0  0  1  0  0  3  0  0  0  0  0  0
  188.1490  178.0280  141.3330 C   0  0  0  0  0  3  0  0  0  0  0  0
  188.8350  177.8200  140.0300 C   0  0  2  0  0  3  0  0  0  0  0  0
  188.7210  177.4690  142.3940 C   0  0  0  0  0  0  0  0  0  0  0  0
  190.8510  176.9200  138.0040 C   0  0  0  0  0  0  0  0  0  0  0  0
  191.7350  176.4780  137.2260 O   0  0  0  0  0  0  0  0  0  0  0  0
  186.1940  177.8290  145.1880 C   0  0  0  0  0  3  0  0  0  0  0  0
  186.7520  177.7240  143.9110 C   0  0  0  0  0  3  0  0  0  0  0  0
  188.1390  177.5750  143.7490 C   0  0  0  0  0  0  0  0  0  0  0  0
  187.0170  177.7850  146.3170 C   0  0  0  0  0  3  0  0  0  0  0  0
  188.9560  177.5340  144.8910 C   0  0  0  0  0  3  0  0  0  0  0  0
  188.3980  177.6380  146.1670 C   0  0  0  0  0  3  0  0  0  0  0  0
  183.7550  178.0960  138.0070 O   0  0  0  0  0  0  0  0  0  0  0  0
  185.1350  179.5270  139.1360 O   0  0  0  0  0  1  0  0  0  0  0  0
  186.0560  177.7080  137.7700 N   0  0  0  0  0  0  0  0  0  0  0  0
  184.9330  178.4390  138.2930 C   0  0  0  0  0  0  0  0  0  0  0  0
  185.5260  175.3220  137.5480 C   0  0  0  0  0  3  0  0  0  0  0  0
  185.9270  176.6060  135.5400 C   0  0  0  0  0  0  0  0  0  0  0  0
  185.3660  174.3000  135.3740 C   0  0  0  0  0  0  0  0  0  0  0  0
  185.8470  176.5450  136.9460 C   0  0  0  0  0  0  0  0  0  0  0  0
  185.2860  174.1940  136.7640 C   0  0  0  0  0  0  0  0  0  0  0  0
  185.6860  175.4890  134.8000 N   0  0  0  0  0  0  0  0  0  0  0  0
  185.1340  173.2160  134.5940 F   0  0  0  0  0  0  0  0  0  0  0  0
  184.9740  173.0130  137.3500 F   0  0  0  0  0  0  0  0  0  0  0  0
  186.3120  177.8610  134.8350 C   0  0  0  0  0  1  0  0  0  0  0  0
  1  9  1  0  0  0  0
  2  1  1  0  0  0  0
  3  5  2  0  0  0  0
  4 10  1  0  0  0  0
  5  4  1  0  0  0  0
  6  7  1  0  0  0  0
  6 11  1  0  0  0  0
  7  2  1  0  0  0  0
  7  1  1  0  0  0  0
  8 10  2  0  0  0  0
  9  5  1  0  0  0  0
  9  8  1  0  0  0  0
 10 15  1  0  0  0  0
 11  3  1  0  0  0  0
 12 11  2  0  0  0  0
 13 16  1  0  0  0  0
 14 13  2  0  0  0  0
 15 14  1  0  0  0  0
 15 17  2  0  0  0  0
 17 18  1  0  0  0  0
 18 16  2  0  0  0  0
 19 22  2  0  0  0  0
 21  2  1  0  0  0  0
 21 22  1  0  0  0  0
 22 20  1  0  0  0  0
 24 26  2  0  0  0  0
 25 27  1  0  0  0  0
 26 23  1  0  0  0  0
 26 21  1  0  0  0  0
 27 30  1  0  0  0  0
 27 23  2  0  0  0  0
 28 25  2  0  0  0  0
 28 24  1  0  0  0  0
 29 25  1  0  0  0  0
 31 24  1  0  0  0  0
M  END
>  <MODEL>
3

>  <REMARK>
 VINA RESULT:      -8.1      2.433      3.262
  Name = 
  3 active torsions:
  status: ('A' for Active; 'I' for Inactive)
    1  A    between atoms: C_2  and  N_16
    2  A    between atoms: C_11  and  N_16
    3  A    between atoms: C_21  and  C_26
                            x       y       z     vdW  Elec       q    Type
                         _______ _______ _______ _____ _____    ______ ____

>  <TORSDO>
F 3

$$$$
=
 OpenBabel11042410513D

 31 35  0  0  1  0  0  0  0  0999 V2000
  189.0630  176.9610  140.9300 N   0  0  1  0  0  0  0  0  0  0  0  0
  189.9470  177.6990  140.0070 C   0  0  1  0  0  3  0  0  0  0  0  0
  189.6220  176.8270  143.9250 C   0  0  0  0  0  3  0  0  0  0  0  0
  186.9310  177.2200  144.0280 S   0  0  0  0  0  0  0  0  0  0  0  0
  188.5490  177.2960  143.2820 C   0  0  0  0  0  0  0  0  0  0  0  0
  191.2980  177.4570  142.0440 C   0  0  0  0  0  2  0  0  0  0  0  0
  190.5340  176.7300  140.9320 C   0  0  1  0  0  3  0  0  0  0  0  0
  187.1980  178.3160  141.6250 C   0  0  0  0  0  3  0  0  0  0  0  0
  188.6010  177.9280  141.9270 C   0  0  2  0  0  3  0  0  0  0  0  0
  186.2950  178.0240  142.5550 C   0  0  0  0  0  0  0  0  0  0  0  0
  190.9910  176.8500  143.3780 C   0  0  0  0  0  0  0  0  0  0  0  0
  191.9280  176.3510  144.0540 O   0  0  0  0  0  0  0  0  0  0  0  0
  182.7100  178.9490  143.3400 C   0  0  0  0  0  3  0  0  0  0  0  0
  184.0700  178.6610  143.4940 C   0  0  0  0  0  3  0  0  0  0  0  0
  184.8590  178.3310  142.3810 C   0  0  0  0  0  0  0  0  0  0  0  0
  182.1270  178.9100  142.0700 C   0  0  0  0  0  3  0  0  0  0  0  0
  184.2610  178.2930  141.1100 C   0  0  0  0  0  3  0  0  0  0  0  0
  182.9030  178.5810  140.9560 C   0  0  0  0  0  3  0  0  0  0  0  0
  190.9570  176.1910  136.8240 O   0  0  0  0  0  0  0  0  0  0  0  0
  192.2430  176.6350  138.6610 O   0  0  0  0  0  1  0  0  0  0  0  0
  189.8410  177.1330  138.6600 N   0  0  0  0  0  0  0  0  0  0  0  0
  191.0180  176.6290  138.0030 C   0  0  0  0  0  0  0  0  0  0  0  0
  187.7780  176.0400  137.9030 C   0  0  0  0  0  3  0  0  0  0  0  0
  188.1190  178.3680  137.3510 C   0  0  0  0  0  0  0  0  0  0  0  0
  186.1150  177.2770  136.6770 C   0  0  0  0  0  0  0  0  0  0  0  0
  188.5830  177.1840  137.9600 C   0  0  0  0  0  0  0  0  0  0  0  0
  186.5410  176.0820  137.2600 C   0  0  0  0  0  0  0  0  0  0  0  0
  186.9070  178.3800  136.7310 N   0  0  0  0  0  0  0  0  0  0  0  0
  184.9150  177.3390  136.0490 F   0  0  0  0  0  0  0  0  0  0  0  0
  185.7640  174.9730  137.2090 F   0  0  0  0  0  0  0  0  0  0  0  0
  188.9450  179.6080  137.3290 C   0  0  0  0  0  1  0  0  0  0  0  0
  1  7  1  0  0  0  0
  1  9  1  0  0  0  0
  2  1  1  0  0  0  0
  2  7  1  0  0  0  0
  5  3  2  0  0  0  0
  5  4  1  0  0  0  0
  6 11  1  0  0  0  0
  7  6  1  0  0  0  0
  8  9  1  0  0  0  0
  8 10  2  0  0  0  0
  9  5  1  0  0  0  0
 10  4  1  0  0  0  0
 11  3  1  0  0  0  0
 11 12  2  0  0  0  0
 13 14  1  0  0  0  0
 15 10  1  0  0  0  0
 15 14  2  0  0  0  0
 16 13  2  0  0  0  0
 17 15  1  0  0  0  0
 18 17  2  0  0  0  0
 18 16  1  0  0  0  0
 19 22  2  0  0  0  0
 21  2  1  0  0  0  0
 22 21  1  0  0  0  0
 22 20  1  0  0  0  0
 23 26  1  0  0  0  0
 24 26  2  0  0  0  0
 25 28  2  0  0  0  0
 25 27  1  0  0  0  0
 26 21  1  0  0  0  0
 27 23  2  0  0  0  0
 28 24  1  0  0  0  0
 29 25  1  0  0  0  0
 30 27  1  0  0  0  0
 31 24  1  0  0  0  0
M  END
>  <MODEL>
4

>  <REMARK>
 VINA RESULT:      -8.0      2.426      3.819
  Name = 
  3 active torsions:
  status: ('A' for Active; 'I' for Inactive)
    1  A    between atoms: C_2  and  N_16
    2  A    between atoms: C_11  and  N_16
    3  A    between atoms: C_21  and  C_26
                            x       y       z     vdW  Elec       q    Type
                         _______ _______ _______ _____ _____    ______ ____

>  <TORSDO>
F 3

$$$$
=
 OpenBabel11042410513D

 31 35  0  0  1  0  0  0  0  0999 V2000
  188.8390  177.2060  140.4310 N   0  0  1  0  0  0  0  0  0  0  0  0
  189.6180  178.0800  139.5320 C   0  0  1  0  0  3  0  0  0  0  0  0
  189.7650  176.5880  143.2700 C   0  0  0  0  0  3  0  0  0  0  0  0
  187.1180  176.9720  143.7770 S   0  0  0  0  0  0  0  0  0  0  0  0
  188.6320  177.1600  142.8530 C   0  0  0  0  0  0  0  0  0  0  0  0
  191.2070  177.5060  141.3150 C   0  0  0  0  0  2  0  0  0  0  0  0
  190.2920  176.9720  140.2080 C   0  0  1  0  0  3  0  0  0  0  0  0
  187.1100  178.4390  141.5660 C   0  0  0  0  0  3  0  0  0  0  0  0
  188.5290  178.0020  141.6210 C   0  0  2  0  0  3  0  0  0  0  0  0
  186.3230  178.0060  142.5450 C   0  0  0  0  0  0  0  0  0  0  0  0
  191.0550  176.6920  142.5630 C   0  0  0  0  0  0  0  0  0  0  0  0
  192.0560  176.0880  143.0250 O   0  0  0  0  0  0  0  0  0  0  0  0
  182.9370  179.0140  143.9010 C   0  0  0  0  0  3  0  0  0  0  0  0
  184.2970  178.6970  143.8310 C   0  0  0  0  0  3  0  0  0  0  0  0
  184.8850  178.3430  142.6070 C   0  0  0  0  0  0  0  0  0  0  0  0
  182.1520  178.9800  142.7450 C   0  0  0  0  0  3  0  0  0  0  0  0
  184.0850  178.3110  141.4520 C   0  0  0  0  0  3  0  0  0  0  0  0
  182.7260  178.6280  141.5210 C   0  0  0  0  0  3  0  0  0  0  0  0
  188.7220  178.5070  136.0050 O   0  0  0  0  0  0  0  0  0  0  0  0
  189.0550  180.1160  137.5930 O   0  0  0  0  0  1  0  0  0  0  0  0
  189.3300  177.7390  138.1370 N   0  0  0  0  0  0  0  0  0  0  0  0
  189.0280  178.7840  137.1950 C   0  0  0  0  0  0  0  0  0  0  0  0
  187.9900  175.7360  137.6780 C   0  0  0  0  0  3  0  0  0  0  0  0
  190.3850  175.6120  137.3870 C   0  0  0  0  0  0  0  0  0  0  0  0
  189.0390  173.7090  136.9120 C   0  0  0  0  0  0  0  0  0  0  0  0
  189.2430  176.3570  137.7420 C   0  0  0  0  0  0  0  0  0  0  0  0
  187.8840  174.4080  137.2640 C   0  0  0  0  0  0  0  0  0  0  0  0
  190.2520  174.3180  136.9860 N   0  0  0  0  0  0  0  0  0  0  0  0
  188.9580  172.4180  136.5040 F   0  0  0  0  0  0  0  0  0  0  0  0
  186.6690  173.8110  137.2000 F   0  0  0  0  0  0  0  0  0  0  0  0
  191.7540  176.1930  137.4800 C   0  0  0  0  0  1  0  0  0  0  0  0
  1  9  1  0  0  0  0
  2  7  1  0  0  0  0
  2  1  1  0  0  0  0
  5  3  2  0  0  0  0
  5  4  1  0  0  0  0
  6 11  1  0  0  0  0
  7  1  1  0  0  0  0
  7  6  1  0  0  0  0
  8  9  1  0  0  0  0
  8 10  2  0  0  0  0
  9  5  1  0  0  0  0
 10 15  1  0  0  0  0
 10  4  1  0  0  0  0
 11 12  2  0  0  0  0
 11  3  1  0  0  0  0
 14 13  1  0  0  0  0
 15 14  2  0  0  0  0
 16 13  2  0  0  0  0
 17 18  2  0  0  0  0
 17 15  1  0  0  0  0
 18 16  1  0  0  0  0
 19 22  2  0  0  0  0
 21  2  1  0  0  0  0
 22 20  1  0  0  0  0
 22 21  1  0  0  0  0
 23 26  1  0  0  0  0
 24 31  1  0  0  0  0
 24 26  2  0  0  0  0
 25 28  2  0  0  0  0
 25 27  1  0  0  0  0
 26 21  1  0  0  0  0
 27 23  2  0  0  0  0
 28 24  1  0  0  0  0
 29 25  1  0  0  0  0
 30 27  1  0  0  0  0
M  END
>  <MODEL>
5

>  <REMARK>
 VINA RESULT:      -7.8      2.872      4.016
  Name = 
  3 active torsions:
  status: ('A' for Active; 'I' for Inactive)
    1  A    between atoms: C_2  and  N_16
    2  A    between atoms: C_11  and  N_16
    3  A    between atoms: C_21  and  C_26
                            x       y       z     vdW  Elec       q    Type
                         _______ _______ _______ _____ _____    ______ ____

>  <TORSDO>
F 3

$$$$
=
 OpenBabel11042410513D

 31 35  0  0  1  0  0  0  0  0999 V2000
  189.2660  177.0190  140.8620 N   0  0  1  0  0  0  0  0  0  0  0  0
  190.1880  177.8690  140.0820 C   0  0  1  0  0  3  0  0  0  0  0  0
  189.7690  176.3790  143.8000 C   0  0  0  0  0  3  0  0  0  0  0  0
  187.0900  176.8410  143.9350 S   0  0  0  0  0  0  0  0  0  0  0  0
  188.7220  176.9830  143.2310 C   0  0  0  0  0  0  0  0  0  0  0  0
  191.4960  177.2500  142.0680 C   0  0  0  0  0  2  0  0  0  0  0  0
  190.7280  176.7410  140.8430 C   0  0  1  0  0  3  0  0  0  0  0  0
  187.4330  178.3050  141.7470 C   0  0  0  0  0  3  0  0  0  0  0  0
  188.8180  177.8250  141.9990 C   0  0  2  0  0  3  0  0  0  0  0  0
  186.5050  177.8960  142.6060 C   0  0  0  0  0  0  0  0  0  0  0  0
  191.1470  176.4430  143.2810 C   0  0  0  0  0  0  0  0  0  0  0  0
  192.0550  175.8100  143.8760 O   0  0  0  0  0  0  0  0  0  0  0  0
  182.9940  179.0030  143.4800 C   0  0  0  0  0  3  0  0  0  0  0  0
  184.3400  178.6460  143.6000 C   0  0  0  0  0  3  0  0  0  0  0  0
  185.0830  178.2760  142.4690 C   0  0  0  0  0  0  0  0  0  0  0  0
  182.3770  178.9940  142.2260 C   0  0  0  0  0  3  0  0  0  0  0  0
  184.4520  178.2700  141.2130 C   0  0  0  0  0  3  0  0  0  0  0  0
  183.1070  178.6270  141.0930 C   0  0  0  0  0  3  0  0  0  0  0  0
  189.0720  177.9890  136.5950 O   0  0  0  0  0  0  0  0  0  0  0  0
  188.5060  179.3790  138.3190 O   0  0  0  0  0  1  0  0  0  0  0  0
  190.0880  177.5340  138.6600 N   0  0  0  0  0  0  0  0  0  0  0  0
  189.2150  178.2970  137.8080 C   0  0  0  0  0  0  0  0  0  0  0  0
  192.1720  176.3930  138.0500 C   0  0  0  0  0  3  0  0  0  0  0  0
  190.0850  175.2100  137.7650 C   0  0  0  0  0  0  0  0  0  0  0  0
  192.1360  174.1290  137.2300 C   0  0  0  0  0  0  0  0  0  0  0  0
  190.7760  176.3770  138.1470 C   0  0  0  0  0  0  0  0  0  0  0  0
  192.8580  175.2690  137.5890 C   0  0  0  0  0  0  0  0  0  0  0  0
  190.7790  174.1270  137.3200 N   0  0  0  0  0  0  0  0  0  0  0  0
  192.7830  173.0260  136.7810 F   0  0  0  0  0  0  0  0  0  0  0  0
  194.2100  175.2870  137.4990 F   0  0  0  0  0  0  0  0  0  0  0  0
  188.5970  175.1410  137.7940 C   0  0  0  0  0  1  0  0  0  0  0  0
  1  9  1  0  0  0  0
  2  7  1  0  0  0  0
  2  1  1  0  0  0  0
  5  3  2  0  0  0  0
  5  4  1  0  0  0  0
  6 11  1  0  0  0  0
  7  1  1  0  0  0  0
  7  6  1  0  0  0  0
  8  9  1  0  0  0  0
  8 10  2  0  0  0  0
  9  5  1  0  0  0  0
 10  4  1  0  0  0  0
 11  3  1  0  0  0  0
 11 12  2  0  0  0  0
 13 14  1  0  0  0  0
 15 10  1  0  0  0  0
 15 14  2  0  0  0  0
 16 13  2  0  0  0  0
 17 15  1  0  0  0  0
 18 17  2  0  0  0  0
 18 16  1  0  0  0  0
 19 22  2  0  0  0  0
 21  2  1  0  0  0  0
 22 20  1  0  0  0  0
 22 21  1  0  0  0  0
 23 26  1  0  0  0  0
 24 31  1  0  0  0  0
 24 26  2  0  0  0  0
 25 28  2  0  0  0  0
 25 27  1  0  0  0  0
 26 21  1  0  0  0  0
 27 23  2  0  0  0  0
 28 24  1  0  0  0  0
 29 25  1  0  0  0  0
 30 27  1  0  0  0  0
M  END
>  <MODEL>
6

>  <REMARK>
 VINA RESULT:      -7.8      4.008      5.356
  Name = 
  3 active torsions:
  status: ('A' for Active; 'I' for Inactive)
    1  A    between atoms: C_2  and  N_16
    2  A    between atoms: C_11  and  N_16
    3  A    between atoms: C_21  and  C_26
                            x       y       z     vdW  Elec       q    Type
                         _______ _______ _______ _____ _____    ______ ____

>  <TORSDO>
F 3

$$$$
=
 OpenBabel11042410513D

 31 35  0  0  1  0  0  0  0  0999 V2000
  185.9960  178.0440  143.3390 N   0  0  1  0  0  0  0  0  0  0  0  0
  186.6240  178.8350  144.4170 C   0  0  1  0  0  3  0  0  0  0  0  0
  183.1670  178.6250  142.3600 C   0  0  0  0  0  3  0  0  0  0  0  0
  184.3580  178.2080  139.9480 S   0  0  0  0  0  0  0  0  0  0  0  0
  184.3180  178.6280  141.6810 C   0  0  0  0  0  0  0  0  0  0  0  0
  184.2350  179.3770  144.6040 C   0  0  0  0  0  2  0  0  0  0  0  0
  185.2910  178.2680  144.6310 C   0  0  1  0  0  3  0  0  0  0  0  0
  186.6160  178.8820  141.1690 C   0  0  0  0  0  3  0  0  0  0  0  0
  185.6380  178.9920  142.2820 C   0  0  2  0  0  3  0  0  0  0  0  0
  186.1270  178.5060  139.9920 C   0  0  0  0  0  0  0  0  0  0  0  0
  183.0500  178.9570  143.7920 C   0  0  0  0  0  0  0  0  0  0  0  0
  181.9210  178.8910  144.3440 O   0  0  0  0  0  0  0  0  0  0  0  0
  189.1990  178.0940  137.8220 C   0  0  0  0  0  3  0  0  0  0  0  0
  188.3790  178.2530  138.9430 C   0  0  0  0  0  3  0  0  0  0  0  0
  186.9850  178.3330  138.8010 C   0  0  0  0  0  0  0  0  0  0  0  0
  188.6320  178.0130  136.5470 C   0  0  0  0  0  3  0  0  0  0  0  0
  186.4270  178.2530  137.5140 C   0  0  0  0  0  3  0  0  0  0  0  0
  187.2460  178.0930  136.3940 C   0  0  0  0  0  3  0  0  0  0  0  0
  188.3160  176.9430  147.0590 O   0  0  0  0  0  0  0  0  0  0  0  0
  186.2300  177.8790  147.0910 O   0  0  0  0  0  1  0  0  0  0  0  0
  187.6450  178.0300  145.0920 N   0  0  0  0  0  0  0  0  0  0  0  0
  187.4260  177.5870  146.4430 C   0  0  0  0  0  0  0  0  0  0  0  0
  189.9900  178.6280  144.6910 C   0  0  0  0  0  3  0  0  0  0  0  0
  189.0890  176.6850  143.5730 C   0  0  0  0  0  0  0  0  0  0  0  0
  191.3700  177.2790  143.2510 C   0  0  0  0  0  0  0  0  0  0  0  0
  188.9050  177.7810  144.4400 C   0  0  0  0  0  0  0  0  0  0  0  0
  191.2270  178.3810  144.0960 C   0  0  0  0  0  0  0  0  0  0  0  0
  190.3080  176.4670  143.0070 N   0  0  0  0  0  0  0  0  0  0  0  0
  192.5650  177.0200  142.6650 F   0  0  0  0  0  0  0  0  0  0  0  0
  192.2760  179.2020  144.3430 F   0  0  0  0  0  0  0  0  0  0  0  0
  187.9660  175.7710  143.2220 C   0  0  0  0  0  1  0  0  0  0  0  0
  1  2  1  0  0  0  0
  1  7  1  0  0  0  0
  2  7  1  0  0  0  0
  2 21  1  0  0  0  0
  3 11  1  0  0  0  0
  4 10  1  0  0  0  0
  4  5  1  0  0  0  0
  5  9  1  0  0  0  0
  5  3  2  0  0  0  0
  6  7  1  0  0  0  0
  8  9  1  0  0  0  0
  9  1  1  0  0  0  0
 10  8  2  0  0  0  0
 11 12  2  0  0  0  0
 11  6  1  0  0  0  0
 13 14  1  0  0  0  0
 15 14  2  0  0  0  0
 15 10  1  0  0  0  0
 16 13  2  0  0  0  0
 17 15  1  0  0  0  0
 18 16  1  0  0  0  0
 18 17  2  0  0  0  0
 21 22  1  0  0  0  0
 22 19  2  0  0  0  0
 22 20  1  0  0  0  0
 24 26  2  0  0  0  0
 25 27  1  0  0  0  0
 26 23  1  0  0  0  0
 26 21  1  0  0  0  0
 27 30  1  0  0  0  0
 27 23  2  0  0  0  0
 28 25  2  0  0  0  0
 28 24  1  0  0  0  0
 29 25  1  0  0  0  0
 31 24  1  0  0  0  0
M  END
>  <MODEL>
7

>  <REMARK>
 VINA RESULT:      -7.6      5.017      8.272
  Name = 
  3 active torsions:
  status: ('A' for Active; 'I' for Inactive)
    1  A    between atoms: C_2  and  N_16
    2  A    between atoms: C_11  and  N_16
    3  A    between atoms: C_21  and  C_26
                            x       y       z     vdW  Elec       q    Type
                         _______ _______ _______ _____ _____    ______ ____

>  <TORSDO>
F 3

$$$$
=
 OpenBabel11042410513D

 31 35  0  0  1  0  0  0  0  0999 V2000
  188.9530  176.9190  140.9030 N   0  0  1  0  0  0  0  0  0  0  0  0
  189.7710  177.6860  139.9420 C   0  0  1  0  0  3  0  0  0  0  0  0
  189.7910  176.5830  143.8160 C   0  0  0  0  0  3  0  0  0  0  0  0
  187.1390  177.0530  144.2040 S   0  0  0  0  0  0  0  0  0  0  0  0
  188.6790  177.1240  143.3090 C   0  0  0  0  0  0  0  0  0  0  0  0
  191.3020  177.2750  141.8200 C   0  0  0  0  0  2  0  0  0  0  0  0
  190.4080  176.6430  140.7470 C   0  0  1  0  0  3  0  0  0  0  0  0
  187.2150  178.2860  141.8550 C   0  0  0  0  0  3  0  0  0  0  0  0
  188.6250  177.8370  141.9950 C   0  0  2  0  0  3  0  0  0  0  0  0
  186.3950  177.9660  142.8500 C   0  0  0  0  0  0  0  0  0  0  0  0
  191.1010  176.5970  143.1390 C   0  0  0  0  0  0  0  0  0  0  0  0
  192.0790  176.0290  143.6900 O   0  0  0  0  0  0  0  0  0  0  0  0
  182.9670  179.0630  144.0190 C   0  0  0  0  0  3  0  0  0  0  0  0
  184.3230  178.7230  144.0220 C   0  0  0  0  0  3  0  0  0  0  0  0
  184.9610  178.3270  142.8360 C   0  0  0  0  0  0  0  0  0  0  0  0
  182.2350  179.0110  142.8290 C   0  0  0  0  0  3  0  0  0  0  0  0
  184.2150  178.2770  141.6460 C   0  0  0  0  0  3  0  0  0  0  0  0
  182.8600  178.6170  141.6430 C   0  0  0  0  0  3  0  0  0  0  0  0
  190.4130  176.6460  136.4880 O   0  0  0  0  0  0  0  0  0  0  0  0
  191.9240  177.2090  138.1090 O   0  0  0  0  0  1  0  0  0  0  0  0
  189.5160  177.2070  138.5810 N   0  0  0  0  0  0  0  0  0  0  0  0
  190.6170  177.0020  137.6790 C   0  0  0  0  0  0  0  0  0  0  0  0
  187.2630  178.1200  138.2420 C   0  0  0  0  0  3  0  0  0  0  0  0
  187.7110  175.8580  137.5200 C   0  0  0  0  0  0  0  0  0  0  0  0
  185.5550  176.8020  137.1720 C   0  0  0  0  0  0  0  0  0  0  0  0
  188.1590  177.0520  138.1210 C   0  0  0  0  0  0  0  0  0  0  0  0
  185.9570  177.9980  137.7700 C   0  0  0  0  0  0  0  0  0  0  0  0
  186.4310  175.7680  137.0660 N   0  0  0  0  0  0  0  0  0  0  0  0
  184.2910  176.6640  136.7050 F   0  0  0  0  0  0  0  0  0  0  0  0
  185.0920  179.0350  137.8880 F   0  0  0  0  0  0  0  0  0  0  0  0
  188.5960  174.6650  137.4020 C   0  0  0  0  0  1  0  0  0  0  0  0
  1  9  1  0  0  0  0
  2  7  1  0  0  0  0
  2  1  1  0  0  0  0
  5  3  2  0  0  0  0
  5  4  1  0  0  0  0
  6 11  1  0  0  0  0
  7  1  1  0  0  0  0
  7  6  1  0  0  0  0
  8  9  1  0  0  0  0
  8 10  2  0  0  0  0
  9  5  1  0  0  0  0
 10  4  1  0  0  0  0
 11 12  2  0  0  0  0
 11  3  1  0  0  0  0
 13 14  1  0  0  0  0
 15 10  1  0  0  0  0
 15 14  2  0  0  0  0
 16 13  2  0  0  0  0
 17 15  1  0  0  0  0
 18 17  2  0  0  0  0
 18 16  1  0  0  0  0
 19 22  2  0  0  0  0
 21  2  1  0  0  0  0
 22 20  1  0  0  0  0
 22 21  1  0  0  0  0
 24 26  2  0  0  0  0
 25 27  1  0  0  0  0
 26 23  1  0  0  0  0
 26 21  1  0  0  0  0
 27 30  1  0  0  0  0
 27 23  2  0  0  0  0
 28 25  2  0  0  0  0
 28 24  1  0  0  0  0
 29 25  1  0  0  0  0
 31 24  1  0  0  0  0
M  END
>  <MODEL>
8

>  <REMARK>
 VINA RESULT:      -7.6      2.106      3.147
  Name = 
  3 active torsions:
  status: ('A' for Active; 'I' for Inactive)
    1  A    between atoms: C_2  and  N_16
    2  A    between atoms: C_11  and  N_16
    3  A    between atoms: C_21  and  C_26
                            x       y       z     vdW  Elec       q    Type
                         _______ _______ _______ _____ _____    ______ ____

>  <TORSDO>
F 3

$$$$
=
 OpenBabel11042410513D

 31 35  0  0  1  0  0  0  0  0999 V2000
  188.3130  177.3360  139.9400 N   0  0  1  0  0  0  0  0  0  0  0  0
  188.8010  178.1590  138.8160 C   0  0  1  0  0  3  0  0  0  0  0  0
  189.9010  177.0510  142.5280 C   0  0  0  0  0  3  0  0  0  0  0  0
  187.4170  177.3380  143.6020 S   0  0  0  0  0  0  0  0  0  0  0  0
  188.6630  177.5160  142.3390 C   0  0  0  0  0  0  0  0  0  0  0  0
  190.7910  177.8480  140.2230 C   0  0  0  0  0  2  0  0  0  0  0  0
  189.6920  177.1600  139.4070 C   0  0  1  0  0  3  0  0  0  0  0  0
  186.7980  178.5800  141.3390 C   0  0  0  0  0  3  0  0  0  0  0  0
  188.2220  178.2270  141.0990 C   0  0  2  0  0  3  0  0  0  0  0  0
  186.2880  178.2020  142.5060 C   0  0  0  0  0  0  0  0  0  0  0  0
  190.9860  177.1540  141.5350 C   0  0  0  0  0  0  0  0  0  0  0  0
  192.1080  176.6520  141.8010 O   0  0  0  0  0  0  0  0  0  0  0  0
  182.5570  178.7620  142.2160 C   0  0  0  0  0  3  0  0  0  0  0  0
  183.8900  178.5100  141.8790 C   0  0  0  0  0  3  0  0  0  0  0  0
  184.8800  178.4660  142.8730 C   0  0  0  0  0  0  0  0  0  0  0  0
  182.2010  178.9740  143.5510 C   0  0  0  0  0  3  0  0  0  0  0  0
  184.5110  178.6810  144.2110 C   0  0  0  0  0  3  0  0  0  0  0  0
  183.1790  178.9330  144.5480 C   0  0  0  0  0  3  0  0  0  0  0  0
  186.3950  177.6540  136.0990 O   0  0  0  0  0  0  0  0  0  0  0  0
  186.2230  179.0340  137.9140 O   0  0  0  0  0  1  0  0  0  0  0  0
  188.2310  177.6680  137.5590 N   0  0  0  0  0  0  0  0  0  0  0  0
  186.9250  178.1090  137.1480 C   0  0  0  0  0  0  0  0  0  0  0  0
  190.0940  177.0170  136.1000 C   0  0  0  0  0  3  0  0  0  0  0  0
  188.5020  175.3240  136.7610 C   0  0  0  0  0  0  0  0  0  0  0  0
  190.3500  174.7320  135.3850 C   0  0  0  0  0  0  0  0  0  0  0  0
  188.9330  176.6660  136.7990 C   0  0  0  0  0  0  0  0  0  0  0  0
  190.8060  176.0520  135.3890 C   0  0  0  0  0  0  0  0  0  0  0  0
  189.2170  174.4030  136.0600 N   0  0  0  0  0  0  0  0  0  0  0  0
  191.0280  173.7790  134.7020 F   0  0  0  0  0  0  0  0  0  0  0  0
  191.9300  176.3950  134.7150 F   0  0  0  0  0  0  0  0  0  0  0  0
  187.2480  174.8900  137.4400 C   0  0  0  0  0  1  0  0  0  0  0  0
  1  9  1  0  0  0  0
  2  7  1  0  0  0  0
  2  1  1  0  0  0  0
  5  3  2  0  0  0  0
  5  4  1  0  0  0  0
  6 11  1  0  0  0  0
  7  1  1  0  0  0  0
  7  6  1  0  0  0  0
  8 10  2  0  0  0  0
  9  8  1  0  0  0  0
  9  5  1  0  0  0  0
 10 15  1  0  0  0  0
 10  4  1  0  0  0  0
 11 12  2  0  0  0  0
 11  3  1  0  0  0  0
 13 16  1  0  0  0  0
 14 13  2  0  0  0  0
 14 15  1  0  0  0  0
 15 17  2  0  0  0  0
 16 18  2  0  0  0  0
 17 18  1  0  0  0  0
 19 22  2  0  0  0  0
 21  2  1  0  0  0  0
 22 21  1  0  0  0  0
 22 20  1  0  0  0  0
 23 26  1  0  0  0  0
 24 26  2  0  0  0  0
 24 31  1  0  0  0  0
 25 27  1  0  0  0  0
 25 28  2  0  0  0  0
 26 21  1  0  0  0  0
 27 23  2  0  0  0  0
 28 24  1  0  0  0  0
 29 25  1  0  0  0  0
 30 27  1  0  0  0  0
M  END
>  <MODEL>
9

>  <REMARK>
 VINA RESULT:      -7.4      3.357      4.302
  Name = 
  3 active torsions:
  status: ('A' for Active; 'I' for Inactive)
    1  A    between atoms: C_2  and  N_16
    2  A    between atoms: C_11  and  N_16
    3  A    between atoms: C_21  and  C_26
                            x       y       z     vdW  Elec       q    Type
                         _______ _______ _______ _____ _____    ______ ____

>  <TORSDO>
F 3

$$$$
