=
 OpenBabel11032420183D

 64 70  0  0  1  0  0  0  0  0999 V2000
  185.7780  177.3700  136.1250 C   0  0  2  0  0  3  0  0  0  0  0  0
  183.7230  177.1960  137.5850 N   0  0  0  0  0  0  0  0  0  0  0  0
  184.2950  177.3580  136.2880 C   0  0  0  0  0  0  0  0  0  0  0  0
  183.7510  175.8600  138.1860 C   0  0  0  0  0  2  0  0  0  0  0  0
  182.6060  175.6980  139.1930 C   0  0  0  0  0  2  0  0  0  0  0  0
  182.7120  178.1470  138.0250 C   0  0  0  0  0  2  0  0  0  0  0  0
  181.3510  177.4450  137.9760 C   0  0  1  0  0  3  0  0  0  0  0  0
  181.3190  176.1030  138.5970 N   0  0  0  0  0  2  0  0  0  0  0  0
  183.5490  177.5340  135.2880 O   0  0  0  0  0  0  0  0  0  0  0  0
  180.2260  178.3260  138.4440 C   0  0  0  0  0  0  0  0  0  0  0  0
  179.2890  178.4960  137.6750 O   0  0  0  0  0  0  0  0  0  0  0  0
  181.5760  179.1950  140.1890 O   0  0  0  0  0  1  0  0  0  0  0  0
  179.5810  178.0930  140.8410 C   0  0  0  0  0  1  0  0  0  0  0  0
  180.2420  179.0110  139.8080 C   0  0  2  0  0  0  0  0  0  0  0  0
  179.2680  180.8650  141.0700 C   0  0  0  0  0  1  0  0  0  0  0  0
  179.5690  180.3330  139.7420 N   0  0  0  0  0  0  0  0  0  0  0  0
  180.4330  181.3150  139.0910 C   0  0  0  0  0  1  0  0  0  0  0  0
  186.3210  178.3290  137.0330 O   0  0  0  0  0  0  0  0  0  0  0  0
  187.5670  177.8640  140.4830 C   0  0  0  0  0  0  0  0  0  0  0  0
  186.7140  178.0280  139.3920 C   0  0  0  0  0  3  0  0  0  0  0  0
  190.9280  177.7540  138.7460 C   0  0  0  0  0  1  0  0  0  0  0  0
  188.6010  178.0100  137.8920 C   0  0  0  0  0  3  0  0  0  0  0  0
  188.9500  177.7760  140.2740 C   0  0  0  0  0  3  0  0  0  0  0  0
  187.2190  178.1070  138.0890 C   0  0  0  0  0  0  0  0  0  0  0  0
  189.4630  177.8480  138.9770 C   0  0  0  0  0  0  0  0  0  0  0  0
  185.6810  179.6360  141.8580 O   0  0  0  0  0  0  0  0  0  0  0  0
  186.1470  178.6250  142.4560 C   0  0  0  0  0  0  0  0  0  0  0  0
  186.9950  177.6950  141.7780 N   0  0  0  0  0  2  0  0  0  0  0  0
  185.6940  178.3170  143.8360 C   0  0  0  0  0  2  0  0  0  0  0  0
  186.7330  177.4620  144.5350 C   0  0  0  0  0  2  0  0  0  0  0  0
  187.8290  178.2070  149.1650 C   0  0  0  0  0  1  0  0  0  0  0  0
  188.9560  178.1860  145.6700 C   0  0  1  0  0  3  0  0  0  0  0  0
  186.9180  177.7610  146.9520 N   0  0  0  0  0  2  0  0  0  0  0  0
  187.4140  178.2300  145.6620 C   0  0  2  0  0  3  0  0  0  0  0  0
  188.0730  177.5660  147.8180 C   0  0  0  0  0  0  0  0  0  0  0  0
  189.2680  178.2080  147.1510 C   0  0  0  0  0  2  0  0  0  0  0  0
  188.3120  176.0820  147.9990 C   0  0  0  0  0  1  0  0  0  0  0  0
  192.1430  175.5050  144.1880 C   0  0  1  0  0  3  0  0  0  0  0  0
  191.8630  176.2520  145.3490 O   0  0  0  0  0  0  0  0  0  0  0  0
  189.5750  176.9310  145.0190 C   0  0  2  0  0  3  0  0  0  0  0  0
  191.9830  177.1910  142.2960 C   0  0  0  0  0  1  0  0  0  0  0  0
  191.0350  177.1340  144.6210 C   0  0  2  0  0  3  0  0  0  0  0  0
  189.8970  175.8250  142.8840 C   0  0  0  0  0  2  0  0  0  0  0  0
  188.8660  176.5420  143.7300 C   0  0  0  0  0  2  0  0  0  0  0  0
  191.6470  174.0740  144.3620 C   0  0  0  0  0  1  0  0  0  0  0  0
  191.2420  176.3790  143.3390 C   0  0  2  0  0  0  0  0  0  0  0  0
  186.1530  177.6080  134.6680 C   0  0  0  0  0  2  0  0  0  0  0  0
  187.6600  177.8290  134.6030 C   0  0  0  0  0  2  0  0  0  0  0  0
  193.7790  173.9320  137.4760 C   0  0  2  0  0  3  0  0  0  0  0  0
  192.0110  175.7080  134.8400 N   0  0  0  0  0  0  0  0  0  0  0  0
  190.2450  174.0230  137.1230 C   0  0  0  0  0  3  0  0  0  0  0  0
  189.8520  176.6390  134.9100 N   0  0  0  0  0  2  0  0  0  0  0  0
  190.2030  174.2070  135.6080 C   0  0  0  0  0  2  0  0  0  0  0  0
  192.9560  173.8190  136.1920 C   0  0  2  0  0  3  0  0  0  0  0  0
  193.1190  174.7380  134.9740 C   0  0  0  0  0  2  0  0  0  0  0  0
  188.4320  176.5570  134.7330 C   0  0  0  0  0  0  0  0  0  0  0  0
  191.3080  174.1930  137.8520 N   0  0  0  0  0  0  0  0  0  0  0  0
  187.8560  175.4380  134.5940 O   0  0  0  0  0  0  0  0  0  0  0  0
  192.5220  174.7480  137.3140 C   0  0  1  0  0  3  0  0  0  0  0  0
  190.7390  175.5290  135.1000 C   0  0  0  0  0  0  0  0  0  0  0  0
  194.9980  174.8090  137.2600 C   0  0  0  0  0  2  0  0  0  0  0  0
  196.1660  174.2910  138.0920 C   0  0  0  0  0  2  0  0  0  0  0  0
  197.5710  175.5800  136.8100 O   0  0  0  0  0  0  0  0  0  0  0  0
  197.3280  175.1200  137.8880 N   0  0  0  0  0  0  0  0  0  0  0  0
  1 47  1  6  0  0  0
  1  3  1  0  0  0  0
  1 18  1  0  0  0  0
  2  6  1  0  0  0  0
  2  4  1  0  0  0  0
  3  2  1  0  0  0  0
  4  5  1  0  0  0  0
  7  6  1  0  0  0  0
  7 10  1  1  0  0  0
  7  8  1  0  0  0  0
  8  5  1  0  0  0  0
  9  3  2  0  0  0  0
 10 14  1  0  0  0  0
 11 10  2  0  0  0  0
 14 12  1  0  0  0  0
 14 13  1  1  0  0  0
 16 14  1  0  0  0  0
 16 15  1  0  0  0  0
 17 16  1  0  0  0  0
 18 24  1  0  0  0  0
 19 28  1  0  0  0  0
 20 19  2  0  0  0  0
 21 25  1  0  0  0  0
 22 24  2  0  0  0  0
 22 25  1  0  0  0  0
 23 19  1  0  0  0  0
 24 20  1  0  0  0  0
 25 23  2  0  0  0  0
 26 27  2  0  0  0  0
 27 29  1  0  0  0  0
 28 27  1  0  0  0  0
 29 30  1  0  0  0  0
 32 36  1  1  0  0  0
 33 35  1  0  0  0  0
 34 30  1  6  0  0  0
 34 32  1  0  0  0  0
 34 33  1  0  0  0  0
 35 37  1  0  0  0  0
 35 31  1  0  0  0  0
 36 35  1  0  0  0  0
 38 45  1  1  0  0  0
 38 39  1  0  0  0  0
 40 44  1  6  0  0  0
 40 32  1  0  0  0  0
 42 40  1  0  0  0  0
 42 39  1  1  0  0  0
 43 46  1  0  0  0  0
 43 44  1  0  0  0  0
 46 41  1  6  0  0  0
 46 38  1  0  0  0  0
 46 42  1  0  0  0  0
 48 47  1  0  0  0  0
 48 56  1  0  0  0  0
 49 61  1  6  0  0  0
 50 55  1  0  0  0  0
 50 60  2  0  0  0  0
 51 57  2  0  0  0  0
 52 60  1  0  0  0  0
 53 51  1  0  0  0  0
 54 55  1  6  0  0  0
 54 59  1  0  0  0  0
 54 49  1  0  0  0  0
 56 52  1  0  0  0  0
 58 56  2  0  0  0  0
 59 49  1  0  0  0  0
 59 57  1  1  0  0  0
 60 53  1  0  0  0  0
 61 62  1  0  0  0  0
 63 64  2  0  0  0  0
 64 62  1  0  0  0  0
M  END
>  <MODEL>
1

>  <REMARK>
 VINA RESULT:      -7.5      0.000      0.000
  Name = 
  17 active torsions:
  status: ('A' for Active; 'I' for Inactive)
    1  A    between atoms: C_3  and  C_50
    2  A    between atoms: C_7  and  N_27
    3  A    between atoms: C_8  and  C_30
    4  A    between atoms: C_8  and  C_45
    5  A    between atoms: O_9  and  C_50
    6  A    between atoms: O_9  and  C_54
    7  A    between atoms: C_10  and  C_16
    8  A    between atoms: C_11  and  C_44
    9  A    between atoms: C_12  and  C_34
   10  A    between atoms: C_12  and  C_52
   11  A    between atoms: C_21  and  C_42
   12  A    between atoms: C_30  and  C_50
   13  A    between atoms: C_31  and  C_44
   14  A    between atoms: C_31  and  N_51
   15  A    between atoms: C_34  and  N_49
   16  A    between atoms: C_42  and  C_43
   17  A    between atoms: C_43  and  C_56
                            x       y       z     vdW  Elec       q    Type
                         _______ _______ _______ _____ _____    ______ ____

>  <TORSDO>
F 17

$$$$
=
 OpenBabel11032420183D

 64 70  0  0  1  0  0  0  0  0999 V2000
  187.1320  176.3710  136.8350 C   0  0  2  0  0  3  0  0  0  0  0  0
  185.1540  174.8540  137.2500 N   0  0  0  0  0  0  0  0  0  0  0  0
  185.7830  175.8580  136.4550 C   0  0  0  0  0  0  0  0  0  0  0  0
  185.6530  173.4800  137.1420 C   0  0  0  0  0  2  0  0  0  0  0  0
  184.5510  172.4770  137.5020 C   0  0  0  0  0  2  0  0  0  0  0  0
  183.7870  175.0750  137.6990 C   0  0  0  0  0  2  0  0  0  0  0  0
  182.8660  174.1720  136.8720 C   0  0  1  0  0  3  0  0  0  0  0  0
  183.3120  172.7670  136.7580 N   0  0  0  0  0  2  0  0  0  0  0  0
  185.1820  176.3410  135.4590 O   0  0  0  0  0  0  0  0  0  0  0  0
  181.4230  174.2920  137.2740 C   0  0  0  0  0  0  0  0  0  0  0  0
  180.8870  173.2960  137.7440 O   0  0  0  0  0  0  0  0  0  0  0  0
  179.3520  175.2510  136.6310 O   0  0  0  0  0  1  0  0  0  0  0  0
  181.3080  176.4450  136.0210 C   0  0  0  0  0  1  0  0  0  0  0  0
  180.6310  175.5840  137.0920 C   0  0  2  0  0  0  0  0  0  0  0  0
  181.1820  177.6100  138.3460 C   0  0  0  0  0  1  0  0  0  0  0  0
  180.5080  176.3120  138.3810 N   0  0  0  0  0  0  0  0  0  0  0  0
  179.1050  176.5830  138.6840 C   0  0  0  0  0  1  0  0  0  0  0  0
  186.9810  177.6980  137.3420 O   0  0  0  0  0  0  0  0  0  0  0  0
  187.8410  178.5220  140.8430 C   0  0  0  0  0  0  0  0  0  0  0  0
  187.9510  178.1820  139.4940 C   0  0  0  0  0  3  0  0  0  0  0  0
  184.0970  178.9890  141.1510 C   0  0  0  0  0  1  0  0  0  0  0  0
  185.5630  178.3720  139.2320 C   0  0  0  0  0  3  0  0  0  0  0  0
  186.5770  178.7860  141.3890 C   0  0  0  0  0  3  0  0  0  0  0  0
  186.8180  178.0990  138.6770 C   0  0  0  0  0  0  0  0  0  0  0  0
  185.4410  178.7110  140.5800 C   0  0  0  0  0  0  0  0  0  0  0  0
  189.9790  176.5640  141.2720 O   0  0  0  0  0  0  0  0  0  0  0  0
  190.0130  177.6770  141.8700 C   0  0  0  0  0  0  0  0  0  0  0  0
  189.0330  178.6840  141.6060 N   0  0  0  0  0  2  0  0  0  0  0  0
  191.1670  178.0020  142.7470 C   0  0  0  0  0  2  0  0  0  0  0  0
  190.6730  178.2920  144.1500 C   0  0  0  0  0  2  0  0  0  0  0  0
  192.1640  175.9050  148.0580 C   0  0  0  0  0  1  0  0  0  0  0  0
  189.4380  176.6130  145.7010 C   0  0  1  0  0  3  0  0  0  0  0  0
  191.7710  177.2470  146.0660 N   0  0  0  0  0  2  0  0  0  0  0  0
  190.7570  177.0540  145.0340 C   0  0  2  0  0  3  0  0  0  0  0  0
  191.1960  176.8090  147.3300 C   0  0  0  0  0  0  0  0  0  0  0  0
  189.9210  176.0560  147.0240 C   0  0  0  0  0  2  0  0  0  0  0  0
  190.8930  178.0210  148.1850 C   0  0  0  0  0  1  0  0  0  0  0  0
  186.2500  178.8610  147.7810 C   0  0  1  0  0  3  0  0  0  0  0  0
  187.4740  178.2430  148.1050 O   0  0  0  0  0  0  0  0  0  0  0  0
  188.4210  177.7480  145.9460 C   0  0  2  0  0  3  0  0  0  0  0  0
  184.9100  177.0430  146.6200 C   0  0  0  0  0  1  0  0  0  0  0  0
  187.3700  177.3810  146.9920 C   0  0  2  0  0  3  0  0  0  0  0  0
  186.3000  178.6360  145.1730 C   0  0  0  0  0  2  0  0  0  0  0  0
  187.6280  178.0890  144.6930 C   0  0  0  0  0  2  0  0  0  0  0  0
  186.4790  180.3400  147.4930 C   0  0  0  0  0  1  0  0  0  0  0  0
  186.0790  178.0030  146.5430 C   0  0  2  0  0  0  0  0  0  0  0  0
  188.0960  176.2580  135.6620 C   0  0  0  0  0  2  0  0  0  0  0  0
  189.4900  176.6160  136.1650 C   0  0  0  0  0  2  0  0  0  0  0  0
  196.6520  173.5650  136.6960 C   0  0  2  0  0  3  0  0  0  0  0  0
  194.2070  175.8820  135.3250 N   0  0  0  0  0  0  0  0  0  0  0  0
  193.1760  172.8900  136.4040 C   0  0  0  0  0  3  0  0  0  0  0  0
  191.9180  176.0530  135.8410 N   0  0  0  0  0  2  0  0  0  0  0  0
  192.9030  173.7860  135.1970 C   0  0  0  0  0  2  0  0  0  0  0  0
  195.7220  173.8940  135.5270 C   0  0  2  0  0  3  0  0  0  0  0  0
  195.5150  175.3030  134.9540 C   0  0  0  0  0  2  0  0  0  0  0  0
  190.5440  175.7000  135.6330 C   0  0  0  0  0  0  0  0  0  0  0  0
  194.2550  172.9470  137.1270 N   0  0  0  0  0  0  0  0  0  0  0  0
  190.2270  174.6940  134.9330 O   0  0  0  0  0  0  0  0  0  0  0  0
  195.2310  173.9920  136.9620 C   0  0  1  0  0  3  0  0  0  0  0  0
  193.0520  175.2720  135.4440 C   0  0  0  0  0  0  0  0  0  0  0  0
  197.6000  174.7170  136.9710 C   0  0  0  0  0  2  0  0  0  0  0  0
  198.2910  174.5120  138.3150 C   0  0  0  0  0  2  0  0  0  0  0  0
  196.8110  175.2530  139.9090 O   0  0  0  0  0  0  0  0  0  0  0  0
  197.8030  175.4700  139.2760 N   0  0  0  0  0  0  0  0  0  0  0  0
  1 47  1  6  0  0  0
  1 18  1  0  0  0  0
  2  6  1  0  0  0  0
  3  1  1  0  0  0  0
  3  2  1  0  0  0  0
  4  2  1  0  0  0  0
  4  5  1  0  0  0  0
  7 10  1  1  0  0  0
  7  6  1  0  0  0  0
  8  7  1  0  0  0  0
  8  5  1  0  0  0  0
  9  3  2  0  0  0  0
 10 11  2  0  0  0  0
 12 14  1  0  0  0  0
 14 13  1  6  0  0  0
 14 10  1  0  0  0  0
 14 16  1  0  0  0  0
 15 16  1  0  0  0  0
 16 17  1  0  0  0  0
 18 24  1  0  0  0  0
 19 23  1  0  0  0  0
 19 28  1  0  0  0  0
 20 19  2  0  0  0  0
 22 25  1  0  0  0  0
 24 22  2  0  0  0  0
 24 20  1  0  0  0  0
 25 21  1  0  0  0  0
 25 23  2  0  0  0  0
 26 27  2  0  0  0  0
 27 29  1  0  0  0  0
 28 27  1  0  0  0  0
 29 30  1  0  0  0  0
 32 40  1  0  0  0  0
 32 36  1  1  0  0  0
 33 35  1  0  0  0  0
 34 30  1  1  0  0  0
 34 32  1  0  0  0  0
 34 33  1  0  0  0  0
 35 31  1  0  0  0  0
 35 37  1  0  0  0  0
 36 35  1  0  0  0  0
 38 45  1  6  0  0  0
 38 39  1  0  0  0  0
 40 44  1  6  0  0  0
 40 42  1  0  0  0  0
 42 39  1  1  0  0  0
 43 46  1  0  0  0  0
 44 43  1  0  0  0  0
 46 41  1  1  0  0  0
 46 42  1  0  0  0  0
 46 38  1  0  0  0  0
 47 48  1  0  0  0  0
 49 59  1  0  0  0  0
 49 61  1  1  0  0  0
 50 60  2  0  0  0  0
 51 57  2  0  0  0  0
 53 60  1  0  0  0  0
 53 51  1  0  0  0  0
 54 55  1  1  0  0  0
 54 49  1  0  0  0  0
 54 59  1  0  0  0  0
 55 50  1  0  0  0  0
 56 52  1  0  0  0  0
 56 48  1  0  0  0  0
 58 56  2  0  0  0  0
 59 57  1  6  0  0  0
 60 52  1  0  0  0  0
 61 62  1  0  0  0  0
 62 64  1  0  0  0  0
 64 63  2  0  0  0  0
M  END
>  <MODEL>
2

>  <REMARK>
 VINA RESULT:      -7.4      2.349      3.999
  Name = 
  17 active torsions:
  status: ('A' for Active; 'I' for Inactive)
    1  A    between atoms: C_3  and  C_50
    2  A    between atoms: C_7  and  N_27
    3  A    between atoms: C_8  and  C_30
    4  A    between atoms: C_8  and  C_45
    5  A    between atoms: O_9  and  C_50
    6  A    between atoms: O_9  and  C_54
    7  A    between atoms: C_10  and  C_16
    8  A    between atoms: C_11  and  C_44
    9  A    between atoms: C_12  and  C_34
   10  A    between atoms: C_12  and  C_52
   11  A    between atoms: C_21  and  C_42
   12  A    between atoms: C_30  and  C_50
   13  A    between atoms: C_31  and  C_44
   14  A    between atoms: C_31  and  N_51
   15  A    between atoms: C_34  and  N_49
   16  A    between atoms: C_42  and  C_43
   17  A    between atoms: C_43  and  C_56
                            x       y       z     vdW  Elec       q    Type
                         _______ _______ _______ _____ _____    ______ ____

>  <TORSDO>
F 17

$$$$
=
 OpenBabel11032420183D

 64 70  0  0  1  0  0  0  0  0999 V2000
  190.1750  177.5790  139.8060 C   0  0  2  0  0  3  0  0  0  0  0  0
  190.1870  178.0190  142.2940 N   0  0  0  0  0  0  0  0  0  0  0  0
  189.8890  177.1470  141.2050 C   0  0  0  0  0  0  0  0  0  0  0  0
  191.5910  178.1790  142.6820 C   0  0  0  0  0  2  0  0  0  0  0  0
  191.7000  178.5760  144.1590 C   0  0  0  0  0  2  0  0  0  0  0  0
  189.1480  178.2850  143.2780 C   0  0  0  0  0  2  0  0  0  0  0  0
  189.5010  177.5180  144.5570 C   0  0  1  0  0  3  0  0  0  0  0  0
  190.9020  177.6710  145.0080 N   0  0  0  0  0  2  0  0  0  0  0  0
  189.3460  176.0310  141.4220 O   0  0  0  0  0  0  0  0  0  0  0  0
  188.5090  177.7460  145.6630 C   0  0  0  0  0  0  0  0  0  0  0  0
  188.9480  178.1210  146.7430 O   0  0  0  0  0  0  0  0  0  0  0  0
  186.5500  176.7740  146.5790 O   0  0  0  0  0  1  0  0  0  0  0  0
  186.7910  176.6530  144.2230 C   0  0  0  0  0  1  0  0  0  0  0  0
  187.0140  177.5030  145.4780 C   0  0  2  0  0  0  0  0  0  0  0  0
  185.0840  178.6940  144.5620 C   0  0  0  0  0  1  0  0  0  0  0  0
  186.2760  178.7900  145.4030 N   0  0  0  0  0  0  0  0  0  0  0  0
  185.8140  179.1930  146.7290 C   0  0  0  0  0  1  0  0  0  0  0  0
  188.9590  178.0530  139.2260 O   0  0  0  0  0  0  0  0  0  0  0  0
  187.1560  175.6390  137.0820 C   0  0  0  0  0  0  0  0  0  0  0  0
  187.7970  176.2210  138.1760 C   0  0  0  0  0  3  0  0  0  0  0  0
  187.2690  178.4910  134.5950 C   0  0  0  0  0  1  0  0  0  0  0  0
  188.0860  178.2700  136.9390 C   0  0  0  0  0  3  0  0  0  0  0  0
  186.9830  176.3820  135.9060 C   0  0  0  0  0  3  0  0  0  0  0  0
  188.2720  177.5360  138.1160 C   0  0  0  0  0  0  0  0  0  0  0  0
  187.4480  177.6960  135.8380 C   0  0  0  0  0  0  0  0  0  0  0  0
  186.3990  173.7640  134.9610 O   0  0  0  0  0  0  0  0  0  0  0  0
  186.1660  173.4780  136.1690 C   0  0  0  0  0  0  0  0  0  0  0  0
  186.6090  174.3320  137.2270 N   0  0  0  0  0  2  0  0  0  0  0  0
  185.5540  172.1660  136.5060 C   0  0  0  0  0  2  0  0  0  0  0  0
  184.1990  172.3870  137.1490 C   0  0  0  0  0  2  0  0  0  0  0  0
  179.8890  170.7720  135.7300 C   0  0  0  0  0  1  0  0  0  0  0  0
  182.3150  173.5290  135.7710 C   0  0  1  0  0  3  0  0  0  0  0  0
  182.1170  171.2360  136.5960 N   0  0  0  0  0  2  0  0  0  0  0  0
  183.0740  172.2350  136.1320 C   0  0  2  0  0  3  0  0  0  0  0  0
  180.7820  171.7880  136.4040 C   0  0  0  0  0  0  0  0  0  0  0  0
  180.9090  173.0180  135.5340 C   0  0  0  0  0  2  0  0  0  0  0  0
  180.2010  172.1600  137.7520 C   0  0  0  0  0  1  0  0  0  0  0  0
  180.6420  176.6530  138.4130 C   0  0  1  0  0  3  0  0  0  0  0  0
  180.3060  175.3510  137.9920 O   0  0  0  0  0  0  0  0  0  0  0  0
  182.3060  174.6080  136.8740 C   0  0  2  0  0  3  0  0  0  0  0  0
  180.9850  177.9480  136.2560 C   0  0  0  0  0  1  0  0  0  0  0  0
  181.0690  175.5010  136.8130 C   0  0  2  0  0  3  0  0  0  0  0  0
  183.0300  176.8720  137.3620 C   0  0  0  0  0  2  0  0  0  0  0  0
  183.4860  175.5620  136.7540 C   0  0  0  0  0  2  0  0  0  0  0  0
  181.4070  176.5880  139.7300 C   0  0  0  0  0  1  0  0  0  0  0  0
  181.5150  176.8830  137.1950 C   0  0  2  0  0  0  0  0  0  0  0  0
  190.8420  176.4550  139.0250 C   0  0  0  0  0  2  0  0  0  0  0  0
  191.1720  176.9820  137.6330 C   0  0  0  0  0  2  0  0  0  0  0  0
  197.9020  173.1370  136.7310 C   0  0  2  0  0  3  0  0  0  0  0  0
  195.6010  175.8610  136.0150 N   0  0  0  0  0  0  0  0  0  0  0  0
  194.3620  172.8830  136.8930 C   0  0  0  0  0  3  0  0  0  0  0  0
  193.4430  176.2080  136.8850 N   0  0  0  0  0  2  0  0  0  0  0  0
  194.0410  173.9510  135.8500 C   0  0  0  0  0  2  0  0  0  0  0  0
  196.8700  173.7130  135.7610 C   0  0  2  0  0  3  0  0  0  0  0  0
  196.7640  175.1970  135.3870 C   0  0  0  0  0  2  0  0  0  0  0  0
  192.0200  176.0350  136.8490 C   0  0  0  0  0  0  0  0  0  0  0  0
  195.5290  172.7300  137.4470 N   0  0  0  0  0  0  0  0  0  0  0  0
  191.4890  175.1670  136.0970 O   0  0  0  0  0  0  0  0  0  0  0  0
  196.5950  173.6760  137.2550 C   0  0  1  0  0  3  0  0  0  0  0  0
  194.4060  175.3680  136.2370 C   0  0  0  0  0  0  0  0  0  0  0  0
  199.0150  174.1350  136.9880 C   0  0  0  0  0  2  0  0  0  0  0  0
  199.1770  174.3600  138.4870 C   0  0  0  0  0  2  0  0  0  0  0  0
  198.0830  175.6270  140.0620 O   0  0  0  0  0  0  0  0  0  0  0  0
  198.3760  175.4830  138.9110 N   0  0  0  0  0  0  0  0  0  0  0  0
  1 47  1  6  0  0  0
  1  3  1  0  0  0  0
  2  4  1  0  0  0  0
  2  6  1  0  0  0  0
  3  9  2  0  0  0  0
  3  2  1  0  0  0  0
  4  5  1  0  0  0  0
  5  8  1  0  0  0  0
  6  7  1  0  0  0  0
  7  8  1  0  0  0  0
  7 10  1  1  0  0  0
 10 11  2  0  0  0  0
 14 13  1  6  0  0  0
 14 10  1  0  0  0  0
 14 12  1  0  0  0  0
 15 16  1  0  0  0  0
 16 14  1  0  0  0  0
 16 17  1  0  0  0  0
 18  1  1  0  0  0  0
 19 28  1  0  0  0  0
 19 20  1  0  0  0  0
 21 25  1  0  0  0  0
 22 24  1  0  0  0  0
 23 19  2  0  0  0  0
 24 20  2  0  0  0  0
 24 18  1  0  0  0  0
 25 23  1  0  0  0  0
 25 22  2  0  0  0  0
 26 27  2  0  0  0  0
 27 29  1  0  0  0  0
 27 28  1  0  0  0  0
 29 30  1  0  0  0  0
 31 35  1  0  0  0  0
 32 36  1  1  0  0  0
 32 34  1  0  0  0  0
 32 40  1  0  0  0  0
 34 33  1  0  0  0  0
 34 30  1  1  0  0  0
 35 33  1  0  0  0  0
 35 37  1  0  0  0  0
 36 35  1  0  0  0  0
 38 45  1  1  0  0  0
 39 38  1  0  0  0  0
 40 44  1  6  0  0  0
 42 40  1  0  0  0  0
 42 46  1  0  0  0  0
 42 39  1  1  0  0  0
 44 43  1  0  0  0  0
 46 41  1  6  0  0  0
 46 43  1  0  0  0  0
 46 38  1  0  0  0  0
 48 47  1  0  0  0  0
 49 61  1  1  0  0  0
 49 59  1  0  0  0  0
 50 60  2  0  0  0  0
 51 57  2  0  0  0  0
 53 60  1  0  0  0  0
 53 51  1  0  0  0  0
 54 55  1  1  0  0  0
 54 49  1  0  0  0  0
 54 59  1  0  0  0  0
 55 50  1  0  0  0  0
 56 52  1  0  0  0  0
 56 48  1  0  0  0  0
 58 56  2  0  0  0  0
 59 57  1  6  0  0  0
 60 52  1  0  0  0  0
 61 62  1  0  0  0  0
 62 64  1  0  0  0  0
 64 63  2  0  0  0  0
M  END
>  <MODEL>
3

>  <REMARK>
 VINA RESULT:      -6.8      2.864      8.737
  Name = 
  17 active torsions:
  status: ('A' for Active; 'I' for Inactive)
    1  A    between atoms: C_3  and  C_50
    2  A    between atoms: C_7  and  N_27
    3  A    between atoms: C_8  and  C_30
    4  A    between atoms: C_8  and  C_45
    5  A    between atoms: O_9  and  C_50
    6  A    between atoms: O_9  and  C_54
    7  A    between atoms: C_10  and  C_16
    8  A    between atoms: C_11  and  C_44
    9  A    between atoms: C_12  and  C_34
   10  A    between atoms: C_12  and  C_52
   11  A    between atoms: C_21  and  C_42
   12  A    between atoms: C_30  and  C_50
   13  A    between atoms: C_31  and  C_44
   14  A    between atoms: C_31  and  N_51
   15  A    between atoms: C_34  and  N_49
   16  A    between atoms: C_42  and  C_43
   17  A    between atoms: C_43  and  C_56
                            x       y       z     vdW  Elec       q    Type
                         _______ _______ _______ _____ _____    ______ ____

>  <TORSDO>
F 17

$$$$
=
 OpenBabel11032420183D

 64 70  0  0  1  0  0  0  0  0999 V2000
  190.8600  177.1790  139.5230 C   0  0  2  0  0  3  0  0  0  0  0  0
  189.5950  175.8690  137.7710 N   0  0  0  0  0  0  0  0  0  0  0  0
  189.9680  177.1290  138.3280 C   0  0  0  0  0  0  0  0  0  0  0  0
  190.5980  175.1380  136.9930 C   0  0  0  0  0  2  0  0  0  0  0  0
  189.9210  174.2100  135.9770 C   0  0  0  0  0  2  0  0  0  0  0  0
  188.1840  175.6040  137.5300 C   0  0  0  0  0  2  0  0  0  0  0  0
  187.9390  175.6860  136.0200 C   0  0  1  0  0  3  0  0  0  0  0  0
  188.9090  174.9390  135.1910 N   0  0  0  0  0  2  0  0  0  0  0  0
  189.5100  178.1940  137.8370 O   0  0  0  0  0  0  0  0  0  0  0  0
  186.5120  175.3950  135.6470 C   0  0  0  0  0  0  0  0  0  0  0  0
  186.2710  174.2960  135.1640 O   0  0  0  0  0  0  0  0  0  0  0  0
  185.1710  177.0480  134.6030 O   0  0  0  0  0  1  0  0  0  0  0  0
  185.8530  177.4880  136.8310 C   0  0  0  0  0  1  0  0  0  0  0  0
  185.3960  176.4190  135.8330 C   0  0  2  0  0  0  0  0  0  0  0  0
  184.0620  175.6490  137.7320 C   0  0  0  0  0  1  0  0  0  0  0  0
  184.1420  175.7580  136.2760 N   0  0  0  0  0  0  0  0  0  0  0  0
  182.9780  176.5340  135.8550 C   0  0  0  0  0  1  0  0  0  0  0  0
  190.2920  178.0850  140.4690 O   0  0  0  0  0  0  0  0  0  0  0  0
  187.6340  177.8260  143.0280 C   0  0  0  0  0  0  0  0  0  0  0  0
  188.2970  178.0560  141.8220 C   0  0  0  0  0  3  0  0  0  0  0  0
  190.4680  176.4800  145.1470 C   0  0  0  0  0  1  0  0  0  0  0  0
  190.3590  177.2600  142.7830 C   0  0  0  0  0  3  0  0  0  0  0  0
  188.3450  177.3100  144.1210 C   0  0  0  0  0  3  0  0  0  0  0  0
  189.6620  177.7820  141.6870 C   0  0  0  0  0  0  0  0  0  0  0  0
  189.7070  177.0270  143.9940 C   0  0  0  0  0  0  0  0  0  0  0  0
  186.0170  179.6240  141.3720 O   0  0  0  0  0  0  0  0  0  0  0  0
  185.4800  178.9860  142.3210 C   0  0  0  0  0  0  0  0  0  0  0  0
  186.2250  178.0330  143.0840 N   0  0  0  0  0  2  0  0  0  0  0  0
  184.0190  179.1160  142.5560 C   0  0  0  0  0  2  0  0  0  0  0  0
  183.2610  178.4650  141.4160 C   0  0  0  0  0  2  0  0  0  0  0  0
  179.3500  178.6040  144.2240 C   0  0  0  0  0  1  0  0  0  0  0  0
  180.7480  178.0970  140.8660 C   0  0  1  0  0  3  0  0  0  0  0  0
  181.5240  178.6000  143.1280 N   0  0  0  0  0  2  0  0  0  0  0  0
  181.9030  177.9500  141.8780 C   0  0  2  0  0  3  0  0  0  0  0  0
  180.1350  179.0180  143.0000 C   0  0  0  0  0  0  0  0  0  0  0  0
  179.5610  178.3510  141.7710 C   0  0  0  0  0  2  0  0  0  0  0  0
  180.0810  180.5240  142.8490 C   0  0  0  0  0  1  0  0  0  0  0  0
  179.4890  181.4230  138.2410 C   0  0  1  0  0  3  0  0  0  0  0  0
  179.2540  180.9870  139.5590 O   0  0  0  0  0  0  0  0  0  0  0  0
  180.9050  179.2590  139.8630 C   0  0  2  0  0  3  0  0  0  0  0  0
  178.9370  179.4070  136.7990 C   0  0  0  0  0  1  0  0  0  0  0  0
  179.5820  179.6590  139.2130 C   0  0  2  0  0  3  0  0  0  0  0  0
  181.3680  179.7450  137.5310 C   0  0  0  0  0  2  0  0  0  0  0  0
  181.8200  178.8970  138.7020 C   0  0  0  0  0  2  0  0  0  0  0  0
  180.6220  182.4420  138.2270 C   0  0  0  0  0  1  0  0  0  0  0  0
  179.8940  180.0330  137.7920 C   0  0  2  0  0  0  0  0  0  0  0  0
  192.2860  177.5190  139.1120 C   0  0  0  0  0  2  0  0  0  0  0  0
  193.0940  176.2260  139.1100 C   0  0  0  0  0  2  0  0  0  0  0  0
  197.6750  171.7870  134.6160 C   0  0  2  0  0  3  0  0  0  0  0  0
  197.0920  174.4490  137.0250 N   0  0  0  0  0  0  0  0  0  0  0  0
  194.7160  173.7470  134.7800 C   0  0  0  0  0  3  0  0  0  0  0  0
  195.0380  175.2000  137.8920 N   0  0  0  0  0  2  0  0  0  0  0  0
  195.3490  175.0090  135.3640 C   0  0  0  0  0  2  0  0  0  0  0  0
  197.5530  173.2940  134.8480 C   0  0  2  0  0  3  0  0  0  0  0  0
  198.1330  174.0350  136.0600 C   0  0  0  0  0  2  0  0  0  0  0  0
  193.8800  176.0450  137.8530 C   0  0  0  0  0  0  0  0  0  0  0  0
  195.2960  172.5830  134.7540 N   0  0  0  0  0  0  0  0  0  0  0  0
  193.5860  176.6990  136.8100 O   0  0  0  0  0  0  0  0  0  0  0  0
  196.5360  172.3330  135.4390 C   0  0  1  0  0  3  0  0  0  0  0  0
  195.8770  174.8760  136.7770 C   0  0  0  0  0  0  0  0  0  0  0  0
  198.7310  171.1860  135.5250 C   0  0  0  0  0  2  0  0  0  0  0  0
  198.3690  169.7440  135.8590 C   0  0  0  0  0  2  0  0  0  0  0  0
  197.0970  170.3700  137.6680 O   0  0  0  0  0  0  0  0  0  0  0  0
  197.9430  169.6440  137.2340 N   0  0  0  0  0  0  0  0  0  0  0  0
  1 47  1  6  0  0  0
  1 18  1  0  0  0  0
  2  3  1  0  0  0  0
  3  1  1  0  0  0  0
  4  2  1  0  0  0  0
  5  4  1  0  0  0  0
  6  2  1  0  0  0  0
  7 10  1  1  0  0  0
  7  6  1  0  0  0  0
  8  5  1  0  0  0  0
  8  7  1  0  0  0  0
  9  3  2  0  0  0  0
 10 14  1  0  0  0  0
 11 10  2  0  0  0  0
 12 14  1  0  0  0  0
 14 16  1  0  0  0  0
 14 13  1  1  0  0  0
 16 15  1  0  0  0  0
 17 16  1  0  0  0  0
 18 24  1  0  0  0  0
 19 28  1  0  0  0  0
 19 23  1  0  0  0  0
 20 19  2  0  0  0  0
 22 25  1  0  0  0  0
 24 20  1  0  0  0  0
 24 22  2  0  0  0  0
 25 23  2  0  0  0  0
 25 21  1  0  0  0  0
 26 27  2  0  0  0  0
 27 29  1  0  0  0  0
 27 28  1  0  0  0  0
 30 29  1  0  0  0  0
 32 36  1  1  0  0  0
 32 34  1  0  0  0  0
 34 30  1  6  0  0  0
 34 33  1  0  0  0  0
 35 33  1  0  0  0  0
 35 31  1  0  0  0  0
 36 35  1  0  0  0  0
 37 35  1  0  0  0  0
 38 45  1  1  0  0  0
 38 39  1  0  0  0  0
 40 44  1  6  0  0  0
 40 32  1  0  0  0  0
 42 39  1  1  0  0  0
 42 40  1  0  0  0  0
 43 46  1  0  0  0  0
 43 44  1  0  0  0  0
 46 41  1  6  0  0  0
 46 38  1  0  0  0  0
 46 42  1  0  0  0  0
 48 47  1  0  0  0  0
 49 54  1  0  0  0  0
 49 59  1  0  0  0  0
 49 61  1  1  0  0  0
 51 53  1  0  0  0  0
 53 60  1  0  0  0  0
 54 59  1  0  0  0  0
 54 55  1  1  0  0  0
 55 50  1  0  0  0  0
 56 52  1  0  0  0  0
 56 48  1  0  0  0  0
 57 51  2  0  0  0  0
 58 56  2  0  0  0  0
 59 57  1  6  0  0  0
 60 50  2  0  0  0  0
 60 52  1  0  0  0  0
 61 62  1  0  0  0  0
 62 64  1  0  0  0  0
 64 63  2  0  0  0  0
M  END
>  <MODEL>
4

>  <REMARK>
 VINA RESULT:      -6.4      2.550      7.690
  Name = 
  17 active torsions:
  status: ('A' for Active; 'I' for Inactive)
    1  A    between atoms: C_3  and  C_50
    2  A    between atoms: C_7  and  N_27
    3  A    between atoms: C_8  and  C_30
    4  A    between atoms: C_8  and  C_45
    5  A    between atoms: O_9  and  C_50
    6  A    between atoms: O_9  and  C_54
    7  A    between atoms: C_10  and  C_16
    8  A    between atoms: C_11  and  C_44
    9  A    between atoms: C_12  and  C_34
   10  A    between atoms: C_12  and  C_52
   11  A    between atoms: C_21  and  C_42
   12  A    between atoms: C_30  and  C_50
   13  A    between atoms: C_31  and  C_44
   14  A    between atoms: C_31  and  N_51
   15  A    between atoms: C_34  and  N_49
   16  A    between atoms: C_42  and  C_43
   17  A    between atoms: C_43  and  C_56
                            x       y       z     vdW  Elec       q    Type
                         _______ _______ _______ _____ _____    ______ ____

>  <TORSDO>
F 17

$$$$
=
 OpenBabel11032420183D

 64 70  0  0  1  0  0  0  0  0999 V2000
  183.0160  176.8850  139.0190 C   0  0  2  0  0  3  0  0  0  0  0  0
  185.1840  176.9720  137.7250 N   0  0  0  0  0  0  0  0  0  0  0  0
  183.8010  176.6250  137.7770 C   0  0  0  0  0  0  0  0  0  0  0  0
  185.5320  178.3890  137.5890 C   0  0  0  0  0  2  0  0  0  0  0  0
  186.9040  178.5460  136.9220 C   0  0  0  0  0  2  0  0  0  0  0  0
  186.1390  175.9650  137.2840 C   0  0  0  0  0  2  0  0  0  0  0  0
  186.5920  176.3320  135.8670 C   0  0  1  0  0  3  0  0  0  0  0  0
  186.9830  177.7470  135.6850 N   0  0  0  0  0  2  0  0  0  0  0  0
  183.2560  176.0600  136.7930 O   0  0  0  0  0  0  0  0  0  0  0  0
  187.6120  175.3740  135.3170 C   0  0  0  0  0  0  0  0  0  0  0  0
  187.1940  174.3530  134.7880 O   0  0  0  0  0  0  0  0  0  0  0  0
  189.3810  176.8860  134.8620 O   0  0  0  0  0  1  0  0  0  0  0  0
  189.8660  174.5790  134.6070 C   0  0  0  0  0  1  0  0  0  0  0  0
  189.1120  175.6320  135.4240 C   0  0  2  0  0  0  0  0  0  0  0  0
  190.3960  174.4880  137.1630 C   0  0  0  0  0  1  0  0  0  0  0  0
  189.5460  175.6350  136.8450 N   0  0  0  0  0  0  0  0  0  0  0  0
  190.3370  176.8280  137.1360 C   0  0  0  0  0  1  0  0  0  0  0  0
  183.8110  177.6870  139.8930 O   0  0  0  0  0  0  0  0  0  0  0  0
  184.1320  178.7130  143.4310 C   0  0  0  0  0  0  0  0  0  0  0  0
  184.4400  178.2600  142.1490 C   0  0  0  0  0  3  0  0  0  0  0  0
  180.4490  179.4990  143.0400 C   0  0  0  0  0  1  0  0  0  0  0  0
  182.1590  178.6190  141.4550 C   0  0  0  0  0  3  0  0  0  0  0  0
  182.8220  179.1190  143.7260 C   0  0  0  0  0  3  0  0  0  0  0  0
  183.4600  178.2030  141.1510 C   0  0  0  0  0  0  0  0  0  0  0  0
  181.8390  179.0710  142.7360 C   0  0  0  0  0  0  0  0  0  0  0  0
  186.2710  176.7960  144.0080 O   0  0  0  0  0  0  0  0  0  0  0  0
  186.1610  177.8450  144.7020 C   0  0  0  0  0  0  0  0  0  0  0  0
  185.1850  178.8410  144.3820 N   0  0  0  0  0  2  0  0  0  0  0  0
  187.1520  178.1220  145.7730 C   0  0  0  0  0  2  0  0  0  0  0  0
  188.1930  177.0200  145.8000 C   0  0  0  0  0  2  0  0  0  0  0  0
  192.3300  176.3740  148.1810 C   0  0  0  0  0  1  0  0  0  0  0  0
  190.5690  177.9910  145.3940 C   0  0  1  0  0  3  0  0  0  0  0  0
  190.0830  176.4740  147.2480 N   0  0  0  0  0  2  0  0  0  0  0  0
  189.5040  177.5130  146.4020 C   0  0  2  0  0  3  0  0  0  0  0  0
  191.4990  176.3820  146.9180 C   0  0  0  0  0  0  0  0  0  0  0  0
  191.8590  177.5840  146.0740 C   0  0  0  0  0  2  0  0  0  0  0  0
  191.7460  175.1060  146.1410 C   0  0  0  0  0  1  0  0  0  0  0  0
  190.4660  177.8000  140.9780 C   0  0  1  0  0  3  0  0  0  0  0  0
  191.2420  178.4160  141.9790 O   0  0  0  0  0  0  0  0  0  0  0  0
  190.4820  177.3420  143.9960 C   0  0  2  0  0  3  0  0  0  0  0  0
  188.0810  178.4950  141.5090 C   0  0  0  0  0  1  0  0  0  0  0  0
  190.1700  178.3530  142.8950 C   0  0  2  0  0  3  0  0  0  0  0  0
  188.9370  176.2760  142.4590 C   0  0  0  0  0  2  0  0  0  0  0  0
  189.3660  176.3100  143.9110 C   0  0  0  0  0  2  0  0  0  0  0  0
  191.1050  176.4790  140.5680 C   0  0  0  0  0  1  0  0  0  0  0  0
  189.2780  177.6560  141.9090 C   0  0  2  0  0  0  0  0  0  0  0  0
  182.5390  175.5770  139.6340 C   0  0  0  0  0  2  0  0  0  0  0  0
  181.0680  175.7390  139.9980 C   0  0  0  0  0  2  0  0  0  0  0  0
  180.3900  182.6460  136.4320 C   0  0  2  0  0  3  0  0  0  0  0  0
  179.5200  180.2220  139.0000 N   0  0  0  0  0  0  0  0  0  0  0  0
  180.5610  179.1220  136.0200 C   0  0  0  0  0  3  0  0  0  0  0  0
  180.3670  178.0470  139.2920 N   0  0  0  0  0  2  0  0  0  0  0  0
  179.4590  178.7540  137.0120 C   0  0  0  0  0  2  0  0  0  0  0  0
  179.3880  181.5920  136.9040 C   0  0  2  0  0  3  0  0  0  0  0  0
  178.9320  181.4180  138.3590 C   0  0  0  0  0  2  0  0  0  0  0  0
  180.3380  176.6340  139.0500 C   0  0  0  0  0  0  0  0  0  0  0  0
  181.1250  180.2920  135.9530 N   0  0  0  0  0  0  0  0  0  0  0  0
  179.6350  176.1470  138.1180 O   0  0  0  0  0  0  0  0  0  0  0  0
  180.8820  181.3140  136.9370 C   0  0  1  0  0  3  0  0  0  0  0  0
  179.7680  179.0510  138.4640 C   0  0  0  0  0  0  0  0  0  0  0  0
  180.5930  183.7100  137.4950 C   0  0  0  0  0  2  0  0  0  0  0  0
  180.1880  185.0740  136.9500 C   0  0  0  0  0  2  0  0  0  0  0  0
  180.9250  184.9940  134.7740 O   0  0  0  0  0  0  0  0  0  0  0  0
  179.9910  185.0010  135.5230 N   0  0  0  0  0  0  0  0  0  0  0  0
  1 47  1  1  0  0  0
  1 18  1  0  0  0  0
  2  3  1  0  0  0  0
  3  1  1  0  0  0  0
  4  2  1  0  0  0  0
  5  4  1  0  0  0  0
  6  2  1  0  0  0  0
  7 10  1  1  0  0  0
  7  6  1  0  0  0  0
  8  7  1  0  0  0  0
  8  5  1  0  0  0  0
  9  3  2  0  0  0  0
 10 14  1  0  0  0  0
 11 10  2  0  0  0  0
 12 14  1  0  0  0  0
 14 13  1  6  0  0  0
 14 16  1  0  0  0  0
 16 17  1  0  0  0  0
 16 15  1  0  0  0  0
 18 24  1  0  0  0  0
 19 23  1  0  0  0  0
 19 28  1  0  0  0  0
 20 19  2  0  0  0  0
 22 25  1  0  0  0  0
 24 22  2  0  0  0  0
 24 20  1  0  0  0  0
 25 21  1  0  0  0  0
 25 23  2  0  0  0  0
 26 27  2  0  0  0  0
 27 29  1  0  0  0  0
 28 27  1  0  0  0  0
 29 30  1  0  0  0  0
 32 36  1  1  0  0  0
 32 34  1  0  0  0  0
 34 30  1  6  0  0  0
 34 33  1  0  0  0  0
 35 33  1  0  0  0  0
 35 31  1  0  0  0  0
 36 35  1  0  0  0  0
 37 35  1  0  0  0  0
 38 45  1  1  0  0  0
 38 46  1  0  0  0  0
 38 39  1  0  0  0  0
 40 44  1  1  0  0  0
 40 32  1  0  0  0  0
 42 39  1  6  0  0  0
 42 40  1  0  0  0  0
 43 44  1  0  0  0  0
 46 41  1  6  0  0  0
 46 43  1  0  0  0  0
 46 42  1  0  0  0  0
 47 48  1  0  0  0  0
 49 54  1  0  0  0  0
 49 59  1  0  0  0  0
 49 61  1  1  0  0  0
 51 53  1  0  0  0  0
 53 60  1  0  0  0  0
 54 59  1  0  0  0  0
 54 55  1  1  0  0  0
 55 50  1  0  0  0  0
 56 52  1  0  0  0  0
 56 48  1  0  0  0  0
 57 51  2  0  0  0  0
 58 56  2  0  0  0  0
 59 57  1  6  0  0  0
 60 50  2  0  0  0  0
 60 52  1  0  0  0  0
 62 61  1  0  0  0  0
 63 64  2  0  0  0  0
 64 62  1  0  0  0  0
M  END
>  <MODEL>
5

>  <REMARK>
 VINA RESULT:      -6.3      2.657      9.029
  Name = 
  17 active torsions:
  status: ('A' for Active; 'I' for Inactive)
    1  A    between atoms: C_3  and  C_50
    2  A    between atoms: C_7  and  N_27
    3  A    between atoms: C_8  and  C_30
    4  A    between atoms: C_8  and  C_45
    5  A    between atoms: O_9  and  C_50
    6  A    between atoms: O_9  and  C_54
    7  A    between atoms: C_10  and  C_16
    8  A    between atoms: C_11  and  C_44
    9  A    between atoms: C_12  and  C_34
   10  A    between atoms: C_12  and  C_52
   11  A    between atoms: C_21  and  C_42
   12  A    between atoms: C_30  and  C_50
   13  A    between atoms: C_31  and  C_44
   14  A    between atoms: C_31  and  N_51
   15  A    between atoms: C_34  and  N_49
   16  A    between atoms: C_42  and  C_43
   17  A    between atoms: C_43  and  C_56
                            x       y       z     vdW  Elec       q    Type
                         _______ _______ _______ _____ _____    ______ ____

>  <TORSDO>
F 17

$$$$
=
 OpenBabel11032420183D

 64 70  0  0  1  0  0  0  0  0999 V2000
  191.7300  177.1460  140.4090 C   0  0  2  0  0  3  0  0  0  0  0  0
  190.9480  176.1640  138.2150 N   0  0  0  0  0  0  0  0  0  0  0  0
  190.9140  177.2310  139.1620 C   0  0  0  0  0  0  0  0  0  0  0  0
  192.1380  176.0340  137.3700 C   0  0  0  0  0  2  0  0  0  0  0  0
  191.7900  175.3280  136.0540 C   0  0  0  0  0  2  0  0  0  0  0  0
  189.6880  175.6030  137.7510 C   0  0  0  0  0  2  0  0  0  0  0  0
  189.4530  176.0910  136.3170 C   0  0  1  0  0  3  0  0  0  0  0  0
  190.6170  175.9540  135.4150 N   0  0  0  0  0  2  0  0  0  0  0  0
  190.1630  178.2220  138.9660 O   0  0  0  0  0  0  0  0  0  0  0  0
  188.1880  175.5440  135.7180 C   0  0  0  0  0  0  0  0  0  0  0  0
  188.2970  174.8460  134.7180 O   0  0  0  0  0  0  0  0  0  0  0  0
  185.8980  175.9340  135.2440 O   0  0  0  0  0  1  0  0  0  0  0  0
  186.8510  177.2160  136.9970 C   0  0  0  0  0  1  0  0  0  0  0  0
  186.8120  175.8520  136.3010 C   0  0  2  0  0  0  0  0  0  0  0  0
  184.9260  174.6410  137.2800 C   0  0  0  0  0  1  0  0  0  0  0  0
  186.3810  174.7760  137.2310 N   0  0  0  0  0  0  0  0  0  0  0  0
  186.9010  173.4830  136.7940 C   0  0  0  0  0  1  0  0  0  0  0  0
  191.1780  178.0490  141.3680 O   0  0  0  0  0  0  0  0  0  0  0  0
  187.7200  177.7360  142.6380 C   0  0  0  0  0  0  0  0  0  0  0  0
  188.8090  177.9000  141.7820 C   0  0  0  0  0  3  0  0  0  0  0  0
  189.4910  177.1380  145.9300 C   0  0  0  0  0  1  0  0  0  0  0  0
  190.3290  177.5640  143.6220 C   0  0  0  0  0  3  0  0  0  0  0  0
  187.9410  177.4880  144.0000 C   0  0  0  0  0  3  0  0  0  0  0  0
  190.1200  177.8210  142.2620 C   0  0  0  0  0  0  0  0  0  0  0  0
  189.2470  177.4020  144.4880 C   0  0  0  0  0  0  0  0  0  0  0  0
  185.5130  179.5710  143.2300 O   0  0  0  0  0  0  0  0  0  0  0  0
  185.3260  178.5870  142.4600 C   0  0  0  0  0  0  0  0  0  0  0  0
  186.4080  177.7320  142.0820 N   0  0  0  0  0  2  0  0  0  0  0  0
  183.9980  178.4000  141.8210 C   0  0  0  0  0  2  0  0  0  0  0  0
  184.0100  179.0120  140.4340 C   0  0  0  0  0  2  0  0  0  0  0  0
  181.6010  175.1040  138.9800 C   0  0  0  0  0  1  0  0  0  0  0  0
  182.6500  178.5510  138.2690 C   0  0  1  0  0  3  0  0  0  0  0  0
  182.9160  176.8680  140.0220 N   0  0  0  0  0  2  0  0  0  0  0  0
  183.5700  178.0040  139.3800 C   0  0  2  0  0  3  0  0  0  0  0  0
  181.7000  176.5830  139.2730 C   0  0  0  0  0  0  0  0  0  0  0  0
  181.7590  177.3610  137.9780 C   0  0  0  0  0  2  0  0  0  0  0  0
  180.5010  177.0200  140.0890 C   0  0  0  0  0  1  0  0  0  0  0  0
  179.0880  181.1640  138.4230 C   0  0  1  0  0  3  0  0  0  0  0  0
  179.3840  179.7930  138.5550 O   0  0  0  0  0  0  0  0  0  0  0  0
  181.7890  179.7660  138.6750 C   0  0  2  0  0  3  0  0  0  0  0  0
  180.0940  181.8150  136.1840 C   0  0  0  0  0  1  0  0  0  0  0  0
  180.5590  179.9390  137.7880 C   0  0  2  0  0  3  0  0  0  0  0  0
  181.5110  182.1450  138.2920 C   0  0  0  0  0  2  0  0  0  0  0  0
  182.5520  181.0770  138.5520 C   0  0  0  0  0  2  0  0  0  0  0  0
  179.0710  181.8250  139.7960 C   0  0  0  0  0  1  0  0  0  0  0  0
  180.3500  181.4180  137.6240 C   0  0  2  0  0  0  0  0  0  0  0  0
  193.2010  177.3830  140.1020 C   0  0  0  0  0  2  0  0  0  0  0  0
  194.0140  176.3450  140.8660 C   0  0  0  0  0  2  0  0  0  0  0  0
  195.6240  171.2770  135.1550 C   0  0  2  0  0  3  0  0  0  0  0  0
  195.3460  172.2460  138.6500 N   0  0  0  0  0  0  0  0  0  0  0  0
  196.0750  174.5840  136.3750 C   0  0  0  0  0  3  0  0  0  0  0  0
  194.7140  174.3320  139.5350 N   0  0  0  0  0  2  0  0  0  0  0  0
  196.5610  174.2120  137.7740 C   0  0  0  0  0  2  0  0  0  0  0  0
  196.3630  171.7250  136.4180 C   0  0  2  0  0  3  0  0  0  0  0  0
  196.0410  171.2270  137.8330 C   0  0  0  0  0  2  0  0  0  0  0  0
  195.0170  175.6530  140.0020 C   0  0  0  0  0  0  0  0  0  0  0  0
  195.4960  173.7540  135.5570 N   0  0  0  0  0  0  0  0  0  0  0  0
  196.1430  176.1830  139.7720 O   0  0  0  0  0  0  0  0  0  0  0  0
  195.0970  172.4330  135.9660 C   0  0  1  0  0  3  0  0  0  0  0  0
  195.5330  173.5430  138.6620 C   0  0  0  0  0  0  0  0  0  0  0  0
  194.7980  170.0340  135.4270 C   0  0  0  0  0  2  0  0  0  0  0  0
  193.3910  170.4290  135.8610 C   0  0  0  0  0  2  0  0  0  0  0  0
  191.3970  170.8870  134.8140 O   0  0  0  0  0  0  0  0  0  0  0  0
  192.5050  170.4440  134.7230 N   0  0  0  0  0  0  0  0  0  0  0  0
  1 47  1  6  0  0  0
  1 18  1  0  0  0  0
  2  3  1  0  0  0  0
  3  1  1  0  0  0  0
  4  2  1  0  0  0  0
  5  4  1  0  0  0  0
  6  2  1  0  0  0  0
  7 10  1  6  0  0  0
  7  6  1  0  0  0  0
  8  5  1  0  0  0  0
  8  7  1  0  0  0  0
  9  3  2  0  0  0  0
 10 14  1  0  0  0  0
 11 10  2  0  0  0  0
 12 14  1  0  0  0  0
 14 13  1  1  0  0  0
 14 16  1  0  0  0  0
 16 15  1  0  0  0  0
 17 16  1  0  0  0  0
 18 24  1  0  0  0  0
 19 23  1  0  0  0  0
 20 24  1  0  0  0  0
 20 19  2  0  0  0  0
 22 25  1  0  0  0  0
 23 25  2  0  0  0  0
 24 22  2  0  0  0  0
 25 21  1  0  0  0  0
 27 26  2  0  0  0  0
 28 27  1  0  0  0  0
 28 19  1  0  0  0  0
 29 27  1  0  0  0  0
 30 29  1  0  0  0  0
 31 35  1  0  0  0  0
 32 36  1  1  0  0  0
 32 40  1  0  0  0  0
 32 34  1  0  0  0  0
 34 33  1  0  0  0  0
 34 30  1  1  0  0  0
 35 33  1  0  0  0  0
 35 37  1  0  0  0  0
 36 35  1  0  0  0  0
 38 39  1  0  0  0  0
 38 45  1  1  0  0  0
 40 44  1  6  0  0  0
 42 39  1  1  0  0  0
 42 40  1  0  0  0  0
 43 44  1  0  0  0  0
 46 41  1  6  0  0  0
 46 42  1  0  0  0  0
 46 43  1  0  0  0  0
 46 38  1  0  0  0  0
 47 48  1  0  0  0  0
 49 61  1  1  0  0  0
 49 59  1  0  0  0  0
 49 54  1  0  0  0  0
 50 60  2  0  0  0  0
 51 53  1  0  0  0  0
 52 56  1  0  0  0  0
 53 60  1  0  0  0  0
 54 55  1  1  0  0  0
 55 50  1  0  0  0  0
 56 48  1  0  0  0  0
 57 51  2  0  0  0  0
 58 56  2  0  0  0  0
 59 57  1  6  0  0  0
 59 54  1  0  0  0  0
 60 52  1  0  0  0  0
 61 62  1  0  0  0  0
 64 63  2  0  0  0  0
 64 62  1  0  0  0  0
M  END
>  <MODEL>
6

>  <REMARK>
 VINA RESULT:      -5.3      2.414      8.495
  Name = 
  17 active torsions:
  status: ('A' for Active; 'I' for Inactive)
    1  A    between atoms: C_3  and  C_50
    2  A    between atoms: C_7  and  N_27
    3  A    between atoms: C_8  and  C_30
    4  A    between atoms: C_8  and  C_45
    5  A    between atoms: O_9  and  C_50
    6  A    between atoms: O_9  and  C_54
    7  A    between atoms: C_10  and  C_16
    8  A    between atoms: C_11  and  C_44
    9  A    between atoms: C_12  and  C_34
   10  A    between atoms: C_12  and  C_52
   11  A    between atoms: C_21  and  C_42
   12  A    between atoms: C_30  and  C_50
   13  A    between atoms: C_31  and  C_44
   14  A    between atoms: C_31  and  N_51
   15  A    between atoms: C_34  and  N_49
   16  A    between atoms: C_42  and  C_43
   17  A    between atoms: C_43  and  C_56
                            x       y       z     vdW  Elec       q    Type
                         _______ _______ _______ _____ _____    ______ ____

>  <TORSDO>
F 17

$$$$
=
 OpenBabel11032420183D

 64 70  0  0  1  0  0  0  0  0999 V2000
  186.8780  177.3620  143.9130 C   0  0  2  0  0  3  0  0  0  0  0  0
  188.0780  177.2910  146.1350 N   0  0  0  0  0  0  0  0  0  0  0  0
  187.9790  177.8150  144.8110 C   0  0  0  0  0  0  0  0  0  0  0  0
  187.1270  177.7760  147.1380 C   0  0  0  0  0  2  0  0  0  0  0  0
  187.7200  177.6530  148.5470 C   0  0  0  0  0  2  0  0  0  0  0  0
  189.3560  176.7500  146.5770 C   0  0  0  0  0  2  0  0  0  0  0  0
  189.9810  177.7510  147.5530 C   0  0  1  0  0  3  0  0  0  0  0  0
  189.0680  178.2490  148.6040 N   0  0  0  0  0  2  0  0  0  0  0  0
  188.8460  178.6250  144.3890 O   0  0  0  0  0  0  0  0  0  0  0  0
  191.2980  177.2790  148.1040 C   0  0  0  0  0  0  0  0  0  0  0  0
  191.8470  177.9930  148.9340 O   0  0  0  0  0  0  0  0  0  0  0  0
  190.9980  174.9590  147.7230 O   0  0  0  0  0  1  0  0  0  0  0  0
  193.0970  175.6260  148.6020 C   0  0  0  0  0  1  0  0  0  0  0  0
  191.9530  175.9800  147.6470 C   0  0  2  0  0  0  0  0  0  0  0  0
  192.2330  174.8540  145.4940 C   0  0  0  0  0  1  0  0  0  0  0  0
  192.4280  176.0950  146.2440 N   0  0  0  0  0  0  0  0  0  0  0  0
  191.6810  177.1290  145.5330 C   0  0  0  0  0  1  0  0  0  0  0  0
  187.4480  176.5810  142.8620 O   0  0  0  0  0  0  0  0  0  0  0  0
  189.1960  177.5240  139.7430 C   0  0  0  0  0  0  0  0  0  0  0  0
  188.1900  177.2230  140.6600 C   0  0  0  0  0  3  0  0  0  0  0  0
  192.2630  177.2640  141.9470 C   0  0  0  0  0  1  0  0  0  0  0  0
  189.8330  176.9560  142.4030 C   0  0  0  0  0  3  0  0  0  0  0  0
  190.5340  177.5370  140.1630 C   0  0  0  0  0  3  0  0  0  0  0  0
  188.4950  176.9320  141.9950 C   0  0  0  0  0  0  0  0  0  0  0  0
  190.8480  177.2530  141.4930 C   0  0  0  0  0  0  0  0  0  0  0  0
  186.6280  178.6110  138.8430 O   0  0  0  0  0  0  0  0  0  0  0  0
  187.5320  178.3480  138.0000 C   0  0  0  0  0  0  0  0  0  0  0  0
  188.8250  177.9050  138.4210 N   0  0  0  0  0  2  0  0  0  0  0  0
  187.3000  178.6410  136.5630 C   0  0  0  0  0  2  0  0  0  0  0  0
  187.1230  177.3430  135.8000 C   0  0  0  0  0  2  0  0  0  0  0  0
  183.6930  173.9880  136.2200 C   0  0  0  0  0  1  0  0  0  0  0  0
  187.0580  175.1250  137.1520 C   0  0  1  0  0  3  0  0  0  0  0  0
  185.1730  175.8720  135.7880 N   0  0  0  0  0  2  0  0  0  0  0  0
  186.2930  176.3430  136.5960 C   0  0  2  0  0  3  0  0  0  0  0  0
  185.1110  174.4240  135.9290 C   0  0  0  0  0  0  0  0  0  0  0  0
  186.0150  174.0300  137.0750 C   0  0  0  0  0  2  0  0  0  0  0  0
  185.5860  173.7790  134.6440 C   0  0  0  0  0  1  0  0  0  0  0  0
  191.2040  173.7550  136.4610 C   0  0  1  0  0  3  0  0  0  0  0  0
  190.0980  173.3800  137.2480 O   0  0  0  0  0  0  0  0  0  0  0  0
  188.3100  174.7180  136.3460 C   0  0  2  0  0  3  0  0  0  0  0  0
  191.5690  176.2070  137.0120 C   0  0  0  0  0  1  0  0  0  0  0  0
  189.5760  174.6900  137.1990 C   0  0  2  0  0  3  0  0  0  0  0  0
  190.1080  175.6220  134.9910 C   0  0  0  0  0  2  0  0  0  0  0  0
  188.6140  175.6990  135.2230 C   0  0  0  0  0  2  0  0  0  0  0  0
  191.2070  172.9610  135.1600 C   0  0  0  0  0  1  0  0  0  0  0  0
  190.6960  175.1770  136.3240 C   0  0  2  0  0  0  0  0  0  0  0  0
  186.0580  178.5520  143.4320 C   0  0  0  0  0  2  0  0  0  0  0  0
  184.8190  178.6550  144.3130 C   0  0  0  0  0  2  0  0  0  0  0  0
  179.2560  176.8200  139.1590 C   0  0  2  0  0  3  0  0  0  0  0  0
  182.3910  178.3880  140.1270 N   0  0  0  0  0  0  0  0  0  0  0  0
  179.9660  178.0730  142.4070 C   0  0  0  0  0  3  0  0  0  0  0  0
  183.3930  178.4430  142.2550 N   0  0  0  0  0  2  0  0  0  0  0  0
  180.9550  179.1580  141.9860 C   0  0  0  0  0  2  0  0  0  0  0  0
  179.9700  178.1190  139.5330 C   0  0  2  0  0  3  0  0  0  0  0  0
  181.3770  178.5040  139.0570 C   0  0  0  0  0  2  0  0  0  0  0  0
  183.5990  179.0400  143.5420 C   0  0  0  0  0  0  0  0  0  0  0  0
  179.5740  177.1020  141.6350 N   0  0  0  0  0  0  0  0  0  0  0  0
  182.8220  179.9420  143.9740 O   0  0  0  0  0  0  0  0  0  0  0  0
  180.1770  176.8560  140.3520 C   0  0  1  0  0  3  0  0  0  0  0  0
  182.2600  178.6570  141.4040 C   0  0  0  0  0  0  0  0  0  0  0  0
  179.9470  176.1430  137.9900 C   0  0  0  0  0  2  0  0  0  0  0  0
  180.7780  174.9660  138.4880 C   0  0  0  0  0  2  0  0  0  0  0  0
  179.6330  172.9790  138.3440 O   0  0  0  0  0  0  0  0  0  0  0  0
  180.3770  173.7540  137.8170 N   0  0  0  0  0  0  0  0  0  0  0  0
  1 47  1  6  0  0  0
  1  3  1  0  0  0  0
  2  6  1  0  0  0  0
  2  4  1  0  0  0  0
  3  2  1  0  0  0  0
  4  5  1  0  0  0  0
  5  8  1  0  0  0  0
  6  7  1  0  0  0  0
  7 10  1  1  0  0  0
  7  8  1  0  0  0  0
  9  3  2  0  0  0  0
 10 11  2  0  0  0  0
 14 12  1  0  0  0  0
 14 10  1  0  0  0  0
 14 13  1  1  0  0  0
 15 16  1  0  0  0  0
 16 14  1  0  0  0  0
 17 16  1  0  0  0  0
 18  1  1  0  0  0  0
 19 23  2  0  0  0  0
 19 20  1  0  0  0  0
 20 24  2  0  0  0  0
 23 25  1  0  0  0  0
 24 22  1  0  0  0  0
 24 18  1  0  0  0  0
 25 21  1  0  0  0  0
 25 22  2  0  0  0  0
 27 28  1  0  0  0  0
 27 26  2  0  0  0  0
 28 19  1  0  0  0  0
 29 27  1  0  0  0  0
 30 29  1  0  0  0  0
 32 36  1  6  0  0  0
 33 35  1  0  0  0  0
 33 34  1  0  0  0  0
 34 30  1  6  0  0  0
 34 32  1  0  0  0  0
 35 31  1  0  0  0  0
 35 36  1  0  0  0  0
 37 35  1  0  0  0  0
 38 45  1  6  0  0  0
 38 39  1  0  0  0  0
 40 44  1  6  0  0  0
 40 32  1  0  0  0  0
 40 42  1  0  0  0  0
 42 39  1  6  0  0  0
 43 44  1  0  0  0  0
 43 46  1  0  0  0  0
 46 38  1  0  0  0  0
 46 41  1  1  0  0  0
 46 42  1  0  0  0  0
 47 48  1  0  0  0  0
 49 61  1  6  0  0  0
 49 54  1  0  0  0  0
 49 59  1  0  0  0  0
 50 60  2  0  0  0  0
 52 56  1  0  0  0  0
 53 51  1  0  0  0  0
 54 55  1  6  0  0  0
 54 59  1  0  0  0  0
 55 50  1  0  0  0  0
 56 58  2  0  0  0  0
 56 48  1  0  0  0  0
 57 51  2  0  0  0  0
 59 57  1  1  0  0  0
 60 53  1  0  0  0  0
 60 52  1  0  0  0  0
 61 62  1  0  0  0  0
 64 63  2  0  0  0  0
 64 62  1  0  0  0  0
M  END
>  <MODEL>
7

>  <REMARK>
 VINA RESULT:      -5.3      2.801     10.975
  Name = 
  17 active torsions:
  status: ('A' for Active; 'I' for Inactive)
    1  A    between atoms: C_3  and  C_50
    2  A    between atoms: C_7  and  N_27
    3  A    between atoms: C_8  and  C_30
    4  A    between atoms: C_8  and  C_45
    5  A    between atoms: O_9  and  C_50
    6  A    between atoms: O_9  and  C_54
    7  A    between atoms: C_10  and  C_16
    8  A    between atoms: C_11  and  C_44
    9  A    between atoms: C_12  and  C_34
   10  A    between atoms: C_12  and  C_52
   11  A    between atoms: C_21  and  C_42
   12  A    between atoms: C_30  and  C_50
   13  A    between atoms: C_31  and  C_44
   14  A    between atoms: C_31  and  N_51
   15  A    between atoms: C_34  and  N_49
   16  A    between atoms: C_42  and  C_43
   17  A    between atoms: C_43  and  C_56
                            x       y       z     vdW  Elec       q    Type
                         _______ _______ _______ _____ _____    ______ ____

>  <TORSDO>
F 17

$$$$
=
 OpenBabel11032420183D

 64 70  0  0  1  0  0  0  0  0999 V2000
  183.5900  176.6500  137.1140 C   0  0  2  0  0  3  0  0  0  0  0  0
  186.1090  176.4630  137.0380 N   0  0  0  0  0  0  0  0  0  0  0  0
  184.8340  176.0540  136.5450 C   0  0  0  0  0  0  0  0  0  0  0  0
  186.6120  177.7780  136.6340 C   0  0  0  0  0  2  0  0  0  0  0  0
  188.1440  177.8060  136.6790 C   0  0  0  0  0  2  0  0  0  0  0  0
  187.0590  175.4380  137.4470 C   0  0  0  0  0  2  0  0  0  0  0  0
  188.1510  175.3530  136.3760 C   0  0  1  0  0  3  0  0  0  0  0  0
  188.7130  176.6540  135.9550 N   0  0  0  0  0  2  0  0  0  0  0  0
  184.7580  175.1600  135.6610 O   0  0  0  0  0  0  0  0  0  0  0  0
  189.2140  174.3430  136.7110 C   0  0  0  0  0  0  0  0  0  0  0  0
  188.8410  173.2240  137.0370 O   0  0  0  0  0  0  0  0  0  0  0  0
  191.3890  173.7130  137.4120 O   0  0  0  0  0  1  0  0  0  0  0  0
  190.9260  176.0380  137.3560 C   0  0  0  0  0  1  0  0  0  0  0  0
  190.7010  174.6840  136.6750 C   0  0  2  0  0  0  0  0  0  0  0  0
  191.9980  175.8770  134.9800 C   0  0  0  0  0  1  0  0  0  0  0  0
  191.2080  174.6840  135.2790 N   0  0  0  0  0  0  0  0  0  0  0  0
  192.0870  173.5390  135.0540 C   0  0  0  0  0  1  0  0  0  0  0  0
  183.5650  176.3820  138.5160 O   0  0  0  0  0  0  0  0  0  0  0  0
  183.2320  178.2270  141.7040 C   0  0  0  0  0  0  0  0  0  0  0  0
  183.7710  177.5050  140.6390 C   0  0  0  0  0  3  0  0  0  0  0  0
  179.6640  178.6750  140.5200 C   0  0  0  0  0  1  0  0  0  0  0  0
  181.6440  177.5530  139.5060 C   0  0  0  0  0  3  0  0  0  0  0  0
  181.8840  178.6110  141.6670 C   0  0  0  0  0  3  0  0  0  0  0  0
  182.9860  177.1570  139.5340 C   0  0  0  0  0  0  0  0  0  0  0  0
  181.0940  178.2730  140.5670 C   0  0  0  0  0  0  0  0  0  0  0  0
  182.6670  178.2560  144.5790 O   0  0  0  0  0  0  0  0  0  0  0  0
  183.7580  178.7240  144.1460 C   0  0  0  0  0  0  0  0  0  0  0  0
  184.0970  178.6370  142.7590 N   0  0  0  0  0  2  0  0  0  0  0  0
  184.7670  179.2390  145.1060 C   0  0  0  0  0  2  0  0  0  0  0  0
  185.7300  178.1280  145.4760 C   0  0  0  0  0  2  0  0  0  0  0  0
  187.9020  177.5380  149.7340 C   0  0  0  0  0  1  0  0  0  0  0  0
  188.1740  178.5920  146.2270 C   0  0  1  0  0  3  0  0  0  0  0  0
  186.4860  177.7160  147.7620 N   0  0  0  0  0  2  0  0  0  0  0  0
  186.6750  178.5640  146.5900 C   0  0  2  0  0  3  0  0  0  0  0  0
  187.8060  177.3300  148.2400 C   0  0  0  0  0  0  0  0  0  0  0  0
  188.8260  178.1950  147.5350 C   0  0  0  0  0  2  0  0  0  0  0  0
  188.0460  175.8710  147.9140 C   0  0  0  0  0  1  0  0  0  0  0  0
  190.1390  177.2420  142.5040 C   0  0  1  0  0  3  0  0  0  0  0  0
  190.4770  177.9790  143.6560 O   0  0  0  0  0  0  0  0  0  0  0  0
  188.5930  177.6130  145.1100 C   0  0  2  0  0  3  0  0  0  0  0  0
  188.0750  178.4070  141.5910 C   0  0  0  0  0  1  0  0  0  0  0  0
  189.1260  178.3270  143.8700 C   0  0  2  0  0  3  0  0  0  0  0  0
  187.7460  176.4200  143.1740 C   0  0  0  0  0  2  0  0  0  0  0  0
  187.4230  176.7780  144.6100 C   0  0  0  0  0  2  0  0  0  0  0  0
  190.5170  175.7780  142.6980 C   0  0  0  0  0  1  0  0  0  0  0  0
  188.6620  177.5340  142.6820 C   0  0  2  0  0  0  0  0  0  0  0  0
  182.3650  176.1490  136.3610 C   0  0  0  0  0  2  0  0  0  0  0  0
  182.0710  177.1330  135.2350 C   0  0  0  0  0  2  0  0  0  0  0  0
  179.5030  184.4130  136.3780 C   0  0  2  0  0  3  0  0  0  0  0  0
  180.6900  181.1730  137.5290 N   0  0  0  0  0  0  0  0  0  0  0  0
  179.0050  181.3500  134.6470 C   0  0  0  0  0  3  0  0  0  0  0  0
  181.2760  179.2970  136.2370 N   0  0  0  0  0  2  0  0  0  0  0  0
  179.0170  180.4310  135.8670 C   0  0  0  0  0  2  0  0  0  0  0  0
  179.1270  183.0500  136.9610 C   0  0  2  0  0  3  0  0  0  0  0  0
  179.9230  182.3240  138.0540 C   0  0  0  0  0  2  0  0  0  0  0  0
  180.9550  178.0690  135.5700 C   0  0  0  0  0  0  0  0  0  0  0  0
  179.4160  182.5840  134.6570 N   0  0  0  0  0  0  0  0  0  0  0  0
  179.7520  177.7380  135.3560 O   0  0  0  0  0  0  0  0  0  0  0  0
  180.0920  183.1550  135.7920 C   0  0  1  0  0  3  0  0  0  0  0  0
  180.3440  180.3270  136.5890 C   0  0  0  0  0  0  0  0  0  0  0  0
  180.5300  185.1080  137.2520 C   0  0  0  0  0  2  0  0  0  0  0  0
  181.8960  184.4550  137.0700 C   0  0  0  0  0  2  0  0  0  0  0  0
  182.4740  185.7230  138.8970 O   0  0  0  0  0  0  0  0  0  0  0  0
  182.7850  184.8580  138.1310 N   0  0  0  0  0  0  0  0  0  0  0  0
  1 47  1  6  0  0  0
  1 18  1  0  0  0  0
  2  6  1  0  0  0  0
  3  2  1  0  0  0  0
  3  1  1  0  0  0  0
  4  5  1  0  0  0  0
  4  2  1  0  0  0  0
  7 10  1  1  0  0  0
  7  6  1  0  0  0  0
  8  7  1  0  0  0  0
  8  5  1  0  0  0  0
  9  3  2  0  0  0  0
 10 11  2  0  0  0  0
 14 10  1  0  0  0  0
 14 13  1  1  0  0  0
 14 12  1  0  0  0  0
 15 16  1  0  0  0  0
 16 14  1  0  0  0  0
 17 16  1  0  0  0  0
 18 24  1  0  0  0  0
 19 28  1  0  0  0  0
 20 19  2  0  0  0  0
 21 25  1  0  0  0  0
 22 24  2  0  0  0  0
 22 25  1  0  0  0  0
 23 19  1  0  0  0  0
 24 20  1  0  0  0  0
 25 23  2  0  0  0  0
 27 26  2  0  0  0  0
 27 29  1  0  0  0  0
 28 27  1  0  0  0  0
 29 30  1  0  0  0  0
 32 34  1  0  0  0  0
 32 36  1  1  0  0  0
 33 35  1  0  0  0  0
 34 30  1  6  0  0  0
 34 33  1  0  0  0  0
 35 31  1  0  0  0  0
 36 35  1  0  0  0  0
 37 35  1  0  0  0  0
 38 46  1  0  0  0  0
 38 45  1  1  0  0  0
 38 39  1  0  0  0  0
 40 44  1  6  0  0  0
 40 32  1  0  0  0  0
 42 39  1  1  0  0  0
 42 40  1  0  0  0  0
 43 44  1  0  0  0  0
 46 41  1  6  0  0  0
 46 43  1  0  0  0  0
 46 42  1  0  0  0  0
 48 56  1  0  0  0  0
 48 47  1  0  0  0  0
 49 54  1  0  0  0  0
 49 61  1  1  0  0  0
 50 55  1  0  0  0  0
 51 57  2  0  0  0  0
 51 53  1  0  0  0  0
 52 60  1  0  0  0  0
 53 60  1  0  0  0  0
 54 55  1  1  0  0  0
 56 52  1  0  0  0  0
 58 56  2  0  0  0  0
 59 57  1  6  0  0  0
 59 49  1  0  0  0  0
 59 54  1  0  0  0  0
 60 50  2  0  0  0  0
 62 61  1  0  0  0  0
 62 64  1  0  0  0  0
 64 63  2  0  0  0  0
M  END
>  <MODEL>
8

>  <REMARK>
 VINA RESULT:      -5.1      2.676      9.208
  Name = 
  17 active torsions:
  status: ('A' for Active; 'I' for Inactive)
    1  A    between atoms: C_3  and  C_50
    2  A    between atoms: C_7  and  N_27
    3  A    between atoms: C_8  and  C_30
    4  A    between atoms: C_8  and  C_45
    5  A    between atoms: O_9  and  C_50
    6  A    between atoms: O_9  and  C_54
    7  A    between atoms: C_10  and  C_16
    8  A    between atoms: C_11  and  C_44
    9  A    between atoms: C_12  and  C_34
   10  A    between atoms: C_12  and  C_52
   11  A    between atoms: C_21  and  C_42
   12  A    between atoms: C_30  and  C_50
   13  A    between atoms: C_31  and  C_44
   14  A    between atoms: C_31  and  N_51
   15  A    between atoms: C_34  and  N_49
   16  A    between atoms: C_42  and  C_43
   17  A    between atoms: C_43  and  C_56
                            x       y       z     vdW  Elec       q    Type
                         _______ _______ _______ _____ _____    ______ ____

>  <TORSDO>
F 17

$$$$
=
 OpenBabel11032420183D

 64 70  0  0  1  0  0  0  0  0999 V2000
  185.7540  177.9060  140.7490 C   0  0  2  0  0  3  0  0  0  0  0  0
  183.5480  178.7450  141.6510 N   0  0  0  0  0  0  0  0  0  0  0  0
  184.2630  177.8600  140.7910 C   0  0  0  0  0  0  0  0  0  0  0  0
  183.5490  178.4560  143.0880 C   0  0  0  0  0  2  0  0  0  0  0  0
  182.2990  179.0420  143.7560 C   0  0  0  0  0  2  0  0  0  0  0  0
  182.4620  179.5360  141.0900 C   0  0  0  0  0  2  0  0  0  0  0  0
  181.1390  178.9330  141.5760 C   0  0  1  0  0  3  0  0  0  0  0  0
  181.0790  178.6500  143.0260 N   0  0  0  0  0  2  0  0  0  0  0  0
  183.6350  177.0710  140.0360 O   0  0  0  0  0  0  0  0  0  0  0  0
  179.9400  179.6930  141.0830 C   0  0  0  0  0  0  0  0  0  0  0  0
  178.9880  179.7950  141.8460 O   0  0  0  0  0  0  0  0  0  0  0  0
  181.1870  180.4080  139.1980 O   0  0  0  0  0  1  0  0  0  0  0  0
  179.2940  181.7140  139.7730 C   0  0  0  0  0  1  0  0  0  0  0  0
  179.8790  180.3020  139.6850 C   0  0  2  0  0  0  0  0  0  0  0  0
  179.4470  179.6540  137.3670 C   0  0  0  0  0  1  0  0  0  0  0  0
  179.0900  179.4390  138.7690 N   0  0  0  0  0  0  0  0  0  0  0  0
  179.3440  178.0280  139.0480 C   0  0  0  0  0  1  0  0  0  0  0  0
  186.2300  178.2260  142.0560 O   0  0  0  0  0  0  0  0  0  0  0  0
  189.8980  177.7810  142.1960 C   0  0  0  0  0  0  0  0  0  0  0  0
  188.6120  178.0520  141.7300 C   0  0  0  0  0  3  0  0  0  0  0  0
  189.1930  177.0610  145.8450 C   0  0  0  0  0  1  0  0  0  0  0  0
  187.7150  177.6810  143.9370 C   0  0  0  0  0  3  0  0  0  0  0  0
  190.0910  177.4540  143.5460 C   0  0  0  0  0  3  0  0  0  0  0  0
  187.5090  178.0010  142.5900 C   0  0  0  0  0  0  0  0  0  0  0  0
  188.9980  177.4060  144.4130 C   0  0  0  0  0  0  0  0  0  0  0  0
  190.4850  176.2290  139.7810 O   0  0  0  0  0  0  0  0  0  0  0  0
  191.3020  177.1050  140.1810 C   0  0  0  0  0  0  0  0  0  0  0  0
  190.9970  177.9390  141.3020 N   0  0  0  0  0  2  0  0  0  0  0  0
  192.5310  177.3750  139.3920 C   0  0  0  0  0  2  0  0  0  0  0  0
  193.1590  176.0640  138.9630 C   0  0  0  0  0  2  0  0  0  0  0  0
  191.0740  175.8910  134.6250 C   0  0  0  0  0  1  0  0  0  0  0  0
  192.9610  174.1310  137.2370 C   0  0  1  0  0  3  0  0  0  0  0  0
  191.9940  176.3390  136.8330 N   0  0  0  0  0  2  0  0  0  0  0  0
  192.3280  175.3810  137.8820 C   0  0  2  0  0  3  0  0  0  0  0  0
  192.2500  175.6930  135.5540 C   0  0  0  0  0  0  0  0  0  0  0  0
  192.4570  174.2180  135.8120 C   0  0  0  0  0  2  0  0  0  0  0  0
  193.4930  176.2940  134.9330 C   0  0  0  0  0  1  0  0  0  0  0  0
  197.0520  173.7440  135.6070 C   0  0  1  0  0  3  0  0  0  0  0  0
  195.8580  174.4170  135.2830 O   0  0  0  0  0  0  0  0  0  0  0  0
  194.5050  174.1020  137.2500 C   0  0  2  0  0  3  0  0  0  0  0  0
  196.3660  171.3090  135.8310 C   0  0  0  0  0  1  0  0  0  0  0  0
  195.0920  173.4670  135.9920 C   0  0  2  0  0  3  0  0  0  0  0  0
  196.4020  172.7580  137.9430 C   0  0  0  0  0  2  0  0  0  0  0  0
  195.0540  173.2740  138.4030 C   0  0  0  0  0  2  0  0  0  0  0  0
  197.9540  174.6580  136.4280 C   0  0  0  0  0  1  0  0  0  0  0  0
  196.3110  172.7030  136.4230 C   0  0  2  0  0  0  0  0  0  0  0  0
  186.2290  178.8590  139.6610 C   0  0  0  0  0  2  0  0  0  0  0  0
  187.4330  178.2250  138.9740 C   0  0  0  0  0  2  0  0  0  0  0  0
  184.0910  172.5210  134.8280 C   0  0  2  0  0  3  0  0  0  0  0  0
  186.9530  174.1970  136.3220 N   0  0  0  0  0  0  0  0  0  0  0  0
  184.3230  176.0260  135.3670 C   0  0  0  0  0  3  0  0  0  0  0  0
  186.9840  176.2000  137.5550 N   0  0  0  0  0  2  0  0  0  0  0  0
  185.8430  176.1390  135.2700 C   0  0  0  0  0  2  0  0  0  0  0  0
  185.2980  173.4330  134.6000 C   0  0  2  0  0  3  0  0  0  0  0  0
  186.6760  173.2250  135.2430 C   0  0  0  0  0  2  0  0  0  0  0  0
  187.0880  177.6270  137.6490 C   0  0  0  0  0  0  0  0  0  0  0  0
  183.6810  174.9040  135.5120 N   0  0  0  0  0  0  0  0  0  0  0  0
  186.9880  178.3570  136.6210 O   0  0  0  0  0  0  0  0  0  0  0  0
  184.3610  173.6630  135.7740 C   0  0  1  0  0  3  0  0  0  0  0  0
  186.6160  175.4620  136.3830 C   0  0  0  0  0  0  0  0  0  0  0  0
  184.5190  171.2110  135.4620 C   0  0  0  0  0  2  0  0  0  0  0  0
  183.4650  170.1400  135.2020 C   0  0  0  0  0  2  0  0  0  0  0  0
  181.2070  170.4330  134.8940 O   0  0  0  0  0  0  0  0  0  0  0  0
  182.1620  170.6200  135.5910 N   0  0  0  0  0  0  0  0  0  0  0  0
  1 47  1  6  0  0  0
  1  3  1  0  0  0  0
  1 18  1  0  0  0  0
  2  4  1  0  0  0  0
  3  2  1  0  0  0  0
  4  5  1  0  0  0  0
  6  7  1  0  0  0  0
  6  2  1  0  0  0  0
  7 10  1  1  0  0  0
  7  8  1  0  0  0  0
  8  5  1  0  0  0  0
  9  3  2  0  0  0  0
 10 11  2  0  0  0  0
 12 14  1  0  0  0  0
 14 13  1  1  0  0  0
 14 10  1  0  0  0  0
 15 16  1  0  0  0  0
 16 17  1  0  0  0  0
 16 14  1  0  0  0  0
 18 24  1  0  0  0  0
 19 23  1  0  0  0  0
 20 19  2  0  0  0  0
 20 24  1  0  0  0  0
 22 25  1  0  0  0  0
 23 25  2  0  0  0  0
 24 22  2  0  0  0  0
 25 21  1  0  0  0  0
 26 27  2  0  0  0  0
 27 28  1  0  0  0  0
 28 19  1  0  0  0  0
 29 27  1  0  0  0  0
 30 29  1  0  0  0  0
 31 35  1  0  0  0  0
 32 36  1  6  0  0  0
 32 40  1  0  0  0  0
 32 34  1  0  0  0  0
 33 34  1  0  0  0  0
 34 30  1  1  0  0  0
 35 36  1  0  0  0  0
 35 33  1  0  0  0  0
 37 35  1  0  0  0  0
 38 46  1  0  0  0  0
 38 45  1  1  0  0  0
 39 38  1  0  0  0  0
 40 44  1  1  0  0  0
 42 39  1  6  0  0  0
 42 46  1  0  0  0  0
 42 40  1  0  0  0  0
 43 44  1  0  0  0  0
 46 41  1  6  0  0  0
 46 43  1  0  0  0  0
 48 47  1  0  0  0  0
 49 61  1  1  0  0  0
 49 59  1  0  0  0  0
 50 60  2  0  0  0  0
 51 57  2  0  0  0  0
 52 56  1  0  0  0  0
 53 51  1  0  0  0  0
 53 60  1  0  0  0  0
 54 49  1  0  0  0  0
 54 55  1  1  0  0  0
 54 59  1  0  0  0  0
 55 50  1  0  0  0  0
 56 48  1  0  0  0  0
 58 56  2  0  0  0  0
 59 57  1  6  0  0  0
 60 52  1  0  0  0  0
 62 61  1  0  0  0  0
 62 64  1  0  0  0  0
 63 64  2  0  0  0  0
M  END
>  <MODEL>
9

>  <REMARK>
 VINA RESULT:      -4.8      2.834      7.952
  Name = 
  17 active torsions:
  status: ('A' for Active; 'I' for Inactive)
    1  A    between atoms: C_3  and  C_50
    2  A    between atoms: C_7  and  N_27
    3  A    between atoms: C_8  and  C_30
    4  A    between atoms: C_8  and  C_45
    5  A    between atoms: O_9  and  C_50
    6  A    between atoms: O_9  and  C_54
    7  A    between atoms: C_10  and  C_16
    8  A    between atoms: C_11  and  C_44
    9  A    between atoms: C_12  and  C_34
   10  A    between atoms: C_12  and  C_52
   11  A    between atoms: C_21  and  C_42
   12  A    between atoms: C_30  and  C_50
   13  A    between atoms: C_31  and  C_44
   14  A    between atoms: C_31  and  N_51
   15  A    between atoms: C_34  and  N_49
   16  A    between atoms: C_42  and  C_43
   17  A    between atoms: C_43  and  C_56
                            x       y       z     vdW  Elec       q    Type
                         _______ _______ _______ _____ _____    ______ ____

>  <TORSDO>
F 17

$$$$
