=
 OpenBabel11032419213D

 70 75  0  0  1  0  0  0  0  0999 V2000
  190.3380  176.7570  143.7020 N   0  0  0  0  0  0  0  0  0  0  0  0
  190.5090  177.0460  145.0990 C   0  0  0  0  0  0  0  0  0  0  0  0
  191.3770  176.2600  145.8840 C   0  0  0  0  0  3  0  0  0  0  0  0
  191.5360  176.5090  147.2330 C   0  0  0  0  0  3  0  0  0  0  0  0
  189.9610  178.3300  147.1020 C   0  0  0  0  0  3  0  0  0  0  0  0
  189.8250  178.0970  145.7340 C   0  0  0  0  0  3  0  0  0  0  0  0
  190.8180  177.5280  147.8600 C   0  0  0  0  0  3  0  0  0  0  0  0
  189.6830  175.4780  143.2490 C   0  0  0  0  0  2  0  0  0  0  0  0
  188.1380  175.4620  143.3450 C   0  0  0  0  0  2  0  0  0  0  0  0
  186.9240  176.9020  144.7820 N   0  0  0  0  0  0  0  0  0  0  0  0
  187.5310  176.7460  143.6530 N   0  0  0  0  0  0  0  0  0  0  0  0
  186.3180  178.1710  145.0930 C   0  0  0  0  0  0  0  0  0  0  0  0
  186.5290  178.7040  146.1980 O   0  0  0  0  0  0  0  0  0  0  0  0
  183.3220  177.7830  142.8710 C   0  0  0  0  0  2  0  0  0  0  0  0
  185.2720  178.6670  140.2790 O   0  0  0  0  0  1  0  0  0  0  0  0
  183.4830  178.7950  141.8160 N   0  0  0  0  0  0  0  0  0  0  0  0
  184.8540  179.2080  141.5100 C   0  0  1  0  0  3  0  0  0  0  0  0
  185.2960  178.8310  144.1380 C   0  0  1  0  0  3  0  0  0  0  0  0
  185.8270  178.7850  142.6740 C   0  0  0  0  0  2  0  0  0  0  0  0
  183.9410  178.1870  144.2670 C   0  0  0  0  0  2  0  0  0  0  0  0
  182.4160  179.1620  140.7710 C   0  0  2  0  0  3  0  0  0  0  0  0
  179.5620  180.1930  142.0820 C   0  0  0  0  0  2  0  0  0  0  0  0
  178.9380  178.4530  140.2950 O   0  0  0  0  0  0  0  0  0  0  0  0
  180.9540  180.2000  142.4370 N   0  0  0  0  0  2  0  0  0  0  0  0
  181.1070  179.0580  141.5690 C   0  0  1  0  0  3  0  0  0  0  0  0
  179.6820  179.0740  141.0580 C   0  0  0  0  0  0  0  0  0  0  0  0
  182.5120  178.4060  139.3720 C   0  0  1  0  0  3  0  0  0  0  0  0
  182.6850  179.2050  138.2310 O   0  0  0  0  0  0  0  0  0  0  0  0
  181.6080  179.6260  137.3870 C   0  0  0  0  0  0  0  0  0  0  0  0
  181.4550  179.1810  136.2510 O   0  0  0  0  0  0  0  0  0  0  0  0
  180.6290  180.5530  138.0190 C   0  0  0  0  0  2  0  0  0  0  0  0
  179.3010  180.9320  135.4640 O   0  0  0  0  0  0  0  0  0  0  0  0
  180.0150  181.7490  136.7600 P   0  0  0  0  0  0  0  0  0  0  0  0
  181.2920  182.7060  136.1730 O   0  0  0  0  0  1  0  0  0  0  0  0
  178.9330  182.6130  137.3970 O   0  0  0  0  0  1  0  0  0  0  0  0
  183.0610  176.9560  139.2610 C   0  0  0  0  0  2  0  0  0  0  0  0
  182.1180  175.9870  139.9960 C   0  0  0  0  0  2  0  0  0  0  0  0
  179.8110  175.2460  139.9040 O   0  0  0  0  0  1  0  0  0  0  0  0
  180.9170  175.6140  139.1260 C   0  0  0  0  0  2  0  0  0  0  0  0
  190.6400  177.8590  142.7330 C   0  0  0  0  0  2  0  0  0  0  0  0
  188.4870  176.7830  141.0690 O   0  0  0  0  0  1  0  0  0  0  0  0
  189.8160  177.8170  141.0730 P   0  0  1  0  0  0  0  0  0  0  0  0
  189.2280  179.1800  140.8220 O   0  0  0  0  0  0  0  0  0  0  0  0
  190.8770  177.2050  139.8360 O   0  0  0  0  0  0  0  0  0  0  0  0
  190.3120  177.6240  138.6120 C   0  0  0  0  0  2  0  0  0  0  0  0
  188.7110  175.3950  135.6600 C   0  0  2  0  0  3  0  0  0  0  0  0
  189.5250  174.2000  136.1300 C   0  0  0  0  0  2  0  0  0  0  0  0
  190.1390  176.4720  137.6390 C   0  0  0  0  0  0  0  0  0  0  0  0
  188.8220  176.4450  136.7780 C   0  0  0  0  0  2  0  0  0  0  0  0
  190.9890  174.2810  136.6660 C   0  0  2  0  0  3  0  0  0  0  0  0
  191.0200  175.4300  137.6270 C   0  0  0  0  0  3  0  0  0  0  0  0
  187.2240  174.9590  134.9840 C   0  0  1  0  0  3  0  0  0  0  0  0
  187.4880  173.6450  134.7360 O   0  0  0  0  0  0  0  0  0  0  0  0
  187.1330  171.2650  135.1770 C   0  0  0  0  0  2  0  0  0  0  0  0
  185.8280  171.7080  134.6250 C   0  0  2  0  0  3  0  0  0  0  0  0
  186.6940  172.6610  135.5250 C   0  0  2  0  0  3  0  0  0  0  0  0
  184.1940  169.6450  134.5940 O   0  0  0  0  0  1  0  0  0  0  0  0
  184.8480  170.6260  135.3790 C   0  0  0  0  0  2  0  0  0  0  0  0
  185.9480  175.0380  135.6150 O   0  0  0  0  0  0  0  0  0  0  0  0
  184.7570  177.0640  135.3610 O   0  0  0  0  0  1  0  0  0  0  0  0
  184.5440  175.4950  134.6000 P   0  0  2  0  0  0  0  0  0  0  0  0
  182.3720  175.5490  136.1460 O   0  0  0  0  0  0  0  0  0  0  0  0
  182.0470  174.5190  135.2260 C   0  0  0  0  0  2  0  0  0  0  0  0
  183.4210  174.5970  135.8030 C   0  0  1  0  0  3  0  0  0  0  0  0
  191.9850  174.3720  135.5880 O   0  0  0  0  0  0  0  0  0  0  0  0
  192.5980  175.5520  135.2370 C   0  0  0  0  0  0  0  0  0  0  0  0
  191.9420  176.4990  134.6080 O   0  0  0  0  0  0  0  0  0  0  0  0
  194.8750  174.8980  135.1850 O   0  0  0  0  0  0  0  0  0  0  0  0
  193.9640  175.7390  135.5420 C   0  0  0  0  0  0  0  0  0  0  0  0
  194.3890  176.8900  136.1540 O   0  0  0  0  0  1  0  0  0  0  0  0
  1  2  1  0  0  0  0
  2  6  2  0  0  0  0
  2  3  1  0  0  0  0
  3  4  2  0  0  0  0
  4  7  1  0  0  0  0
  5  7  2  0  0  0  0
  6  5  1  0  0  0  0
  8  9  1  0  0  0  0
  8  1  1  0  0  0  0
  9 11  1  0  0  0  0
 10 12  1  0  0  0  0
 11 10  2  0  0  0  0
 12 13  2  0  0  0  0
 14 20  1  0  0  0  0
 16 14  1  0  0  0  0
 17 15  1  6  0  0  0
 17 16  1  0  0  0  0
 17 19  1  0  0  0  0
 18 20  1  0  0  0  0
 18 12  1  1  0  0  0
 19 18  1  0  0  0  0
 21 27  1  6  0  0  0
 21 16  1  0  0  0  0
 22 24  1  0  0  0  0
 23 26  2  0  0  0  0
 25 21  1  6  0  0  0
 25 24  1  0  0  0  0
 26 25  1  0  0  0  0
 26 22  1  0  0  0  0
 27 36  1  1  0  0  0
 28 27  1  0  0  0  0
 29 31  1  0  0  0  0
 29 28  1  0  0  0  0
 30 29  2  0  0  0  0
 32 33  2  0  0  0  0
 33 35  1  0  0  0  0
 33 31  1  0  0  0  0
 34 33  1  0  0  0  0
 36 37  1  0  0  0  0
 39 38  1  0  0  0  0
 39 37  1  0  0  0  0
 40  1  1  0  0  0  0
 41 42  1  0  0  0  0
 42 43  2  6  0  0  0
 42 40  1  0  0  0  0
 44 42  1  0  0  0  0
 45 44  1  0  0  0  0
 46 52  1  1  0  0  0
 46 47  1  0  0  0  0
 46 49  1  0  0  0  0
 47 50  1  0  0  0  0
 48 45  1  0  0  0  0
 49 48  1  0  0  0  0
 50 65  1  6  0  0  0
 50 51  1  0  0  0  0
 51 48  2  0  0  0  0
 52 53  1  1  0  0  0
 52 59  1  0  0  0  0
 54 56  1  0  0  0  0
 55 54  1  0  0  0  0
 55 58  1  1  0  0  0
 55 56  1  0  0  0  0
 56 53  1  6  0  0  0
 57 58  1  0  0  0  0
 61 60  1  1  0  0  0
 61 59  1  0  0  0  0
 63 64  1  0  0  0  0
 63 62  1  0  0  0  0
 64 61  1  6  0  0  0
 64 62  1  0  0  0  0
 66 69  1  0  0  0  0
 66 65  1  0  0  0  0
 67 66  2  0  0  0  0
 68 69  2  0  0  0  0
 69 70  1  0  0  0  0
M  END
>  <MODEL>
1

>  <REMARK>
 VINA RESULT:      -3.9      0.000      0.000
  Name = 
  31 active torsions:
  status: ('A' for Active; 'I' for Inactive)
    1  A    between atoms: C_4  and  N_20
    2  A    between atoms: C_7  and  C_67
    3  A    between atoms: C_9  and  P_16
    4  A    between atoms: C_9  and  C_36
    5  A    between atoms: O_14  and  C_22
    6  A    between atoms: O_14  and  P_30
    7  A    between atoms: C_15  and  C_21
    8  A    between atoms: C_15  and  O_37
    9  A    between atoms: C_15  and  C_52
   10  A    between atoms: C_17  and  N_20
   11  A    between atoms: C_17  and  P_30
   12  A    between atoms: C_18  and  N_34
   13  A    between atoms: C_18  and  C_56
   14  A    between atoms: N_20  and  C_33
   15  A    between atoms: C_21  and  C_45
   16  A    between atoms: C_22  and  C_31
   17  A    between atoms: C_24  and  C_40
   18  A    between atoms: O_25  and  P_35
   19  A    between atoms: O_25  and  C_67
   20  A    between atoms: C_27  and  C_52
   21  A    between atoms: O_32  and  C_40
   22  A    between atoms: O_32  and  C_58
   23  A    between atoms: C_33  and  C_60
   24  A    between atoms: P_35  and  C_68
   25  A    between atoms: C_36  and  O_37
   26  A    between atoms: N_38  and  C_52
   27  A    between atoms: N_43  and  C_60
   28  A    between atoms: C_45  and  C_64
   29  A    between atoms: C_48  and  C_62
   30  A    between atoms: O_50  and  C_57
   31  A    between atoms: O_50  and  C_67
                            x       y       z     vdW  Elec       q    Type
                         _______ _______ _______ _____ _____    ______ ____

>  <TORSDO>
F 31

$$$$
=
 OpenBabel11032419213D

 70 75  0  0  1  0  0  0  0  0999 V2000
  180.4010  181.5340  138.6360 N   0  0  0  0  0  0  0  0  0  0  0  0
  180.0440  182.7370  137.9360 C   0  0  0  0  0  0  0  0  0  0  0  0
  179.4330  183.8030  138.6260 C   0  0  0  0  0  3  0  0  0  0  0  0
  179.0630  184.9580  137.9650 C   0  0  0  0  0  3  0  0  0  0  0  0
  179.8750  184.0500  135.8840 C   0  0  0  0  0  3  0  0  0  0  0  0
  180.2760  182.8970  136.5590 C   0  0  0  0  0  3  0  0  0  0  0  0
  179.2590  185.0870  136.5890 C   0  0  0  0  0  3  0  0  0  0  0  0
  179.8350  181.2330  139.9990 C   0  0  0  0  0  2  0  0  0  0  0  0
  179.2250  179.8200  140.1590 C   0  0  0  0  0  2  0  0  0  0  0  0
  180.0310  179.6400  142.3780 N   0  0  0  0  0  0  0  0  0  0  0  0
  179.7580  179.0450  141.2660 N   0  0  0  0  0  0  0  0  0  0  0  0
  180.5630  178.8780  143.4790 C   0  0  0  0  0  0  0  0  0  0  0  0
  179.8820  178.7200  144.5090 O   0  0  0  0  0  0  0  0  0  0  0  0
  184.0240  179.0880  144.9070 C   0  0  0  0  0  2  0  0  0  0  0  0
  185.0900  180.0810  141.8780 O   0  0  0  0  0  1  0  0  0  0  0  0
  184.9260  178.7250  143.8040 N   0  0  0  0  0  0  0  0  0  0  0  0
  184.4330  178.9740  142.4470 C   0  0  1  0  0  3  0  0  0  0  0  0
  182.0210  178.3620  143.4720 C   0  0  1  0  0  3  0  0  0  0  0  0
  182.8730  179.1870  142.4610 C   0  0  0  0  0  2  0  0  0  0  0  0
  182.6110  178.3860  144.8580 C   0  0  0  0  0  2  0  0  0  0  0  0
  186.4380  178.4780  143.9400 C   0  0  2  0  0  3  0  0  0  0  0  0
  187.9110  177.4310  141.1720 C   0  0  0  0  0  2  0  0  0  0  0  0
  188.6560  175.8170  143.0290 O   0  0  0  0  0  0  0  0  0  0  0  0
  186.7980  178.2660  141.5270 N   0  0  0  0  0  2  0  0  0  0  0  0
  186.7350  177.5300  142.7670 C   0  0  1  0  0  3  0  0  0  0  0  0
  187.9760  176.7040  142.5070 C   0  0  0  0  0  0  0  0  0  0  0  0
  186.9570  178.0720  145.3900 C   0  0  1  0  0  3  0  0  0  0  0  0
  188.2070  178.5800  145.7790 O   0  0  0  0  0  0  0  0  0  0  0  0
  189.4530  177.9540  145.4530 C   0  0  0  0  0  0  0  0  0  0  0  0
  190.1730  178.3640  144.5450 O   0  0  0  0  0  0  0  0  0  0  0  0
  189.8640  176.8470  146.3590 C   0  0  0  0  0  2  0  0  0  0  0  0
  192.6770  177.5320  146.1300 O   0  0  0  0  0  1  0  0  0  0  0  0
  191.5590  176.2830  145.9110 P   0  0  0  0  0  0  0  0  0  0  0  0
  191.6100  175.7760  144.2890 O   0  0  0  0  0  0  0  0  0  0  0  0
  191.9600  175.1520  146.8500 O   0  0  0  0  0  1  0  0  0  0  0  0
  185.9760  177.7540  146.5520 C   0  0  0  0  0  2  0  0  0  0  0  0
  186.1230  178.8120  147.6600 C   0  0  0  0  0  2  0  0  0  0  0  0
  188.1900  178.1480  148.7400 O   0  0  0  0  0  1  0  0  0  0  0  0
  186.8000  178.2250  148.9000 C   0  0  0  0  0  2  0  0  0  0  0  0
  181.1790  180.5040  137.8740 C   0  0  0  0  0  2  0  0  0  0  0  0
  179.4930  178.1440  138.2590 O   0  0  0  0  0  1  0  0  0  0  0  0
  180.2510  179.1000  137.0990 P   0  0  1  0  0  0  0  0  0  0  0  0
  179.1180  179.6890  136.3020 O   0  0  0  0  0  0  0  0  0  0  0  0
  181.3090  178.0200  136.2360 O   0  0  0  0  0  0  0  0  0  0  0  0
  182.4560  177.8830  137.0490 C   0  0  0  0  0  2  0  0  0  0  0  0
  185.3090  175.0390  137.1900 C   0  0  2  0  0  3  0  0  0  0  0  0
  184.5050  174.1950  136.2150 C   0  0  0  0  0  2  0  0  0  0  0  0
  183.1150  176.5270  136.8830 C   0  0  0  0  0  0  0  0  0  0  0  0
  184.6590  176.4340  137.1720 C   0  0  0  0  0  2  0  0  0  0  0  0
  182.9480  174.0770  136.2180 C   0  0  2  0  0  3  0  0  0  0  0  0
  182.4230  175.4730  136.3590 C   0  0  0  0  0  3  0  0  0  0  0  0
  186.9790  174.8270  137.0320 C   0  0  1  0  0  3  0  0  0  0  0  0
  186.9910  173.4900  136.7650 O   0  0  0  0  0  0  0  0  0  0  0  0
  187.4970  171.6210  135.2690 C   0  0  0  0  0  2  0  0  0  0  0  0
  188.8210  171.9620  135.8500 C   0  0  2  0  0  3  0  0  0  0  0  0
  187.7540  173.0750  135.5530 C   0  0  2  0  0  3  0  0  0  0  0  0
  191.1330  171.1520  134.8880 O   0  0  0  0  0  1  0  0  0  0  0  0
  189.7800  171.4720  134.6100 C   0  0  0  0  0  2  0  0  0  0  0  0
  187.8320  175.4700  136.0890 O   0  0  0  0  0  0  0  0  0  0  0  0
  189.6400  176.7940  135.3370 O   0  0  0  0  0  1  0  0  0  0  0  0
  188.3050  177.1680  136.4170 P   0  0  2  0  0  0  0  0  0  0  0  0
  190.2880  176.0910  137.8350 O   0  0  0  0  0  0  0  0  0  0  0  0
  190.2040  177.3920  138.3960 C   0  0  0  0  0  2  0  0  0  0  0  0
  188.9590  176.6310  138.0890 C   0  0  1  0  0  3  0  0  0  0  0  0
  182.4510  173.1420  137.2370 O   0  0  0  0  0  0  0  0  0  0  0  0
  181.9270  171.9090  136.9250 C   0  0  0  0  0  0  0  0  0  0  0  0
  182.6800  170.9540  136.4290 O   0  0  0  0  0  0  0  0  0  0  0  0
  179.9110  172.1150  138.1550 O   0  0  0  0  0  1  0  0  0  0  0  0
  180.5490  171.6730  137.1240 C   0  0  0  0  0  0  0  0  0  0  0  0
  179.8060  171.0390  136.1610 O   0  0  0  0  0  0  0  0  0  0  0  0
  1  8  1  0  0  0  0
  2  3  1  0  0  0  0
  2  1  1  0  0  0  0
  4  3  2  0  0  0  0
  5  6  1  0  0  0  0
  5  7  2  0  0  0  0
  6  2  2  0  0  0  0
  7  4  1  0  0  0  0
  8  9  1  0  0  0  0
  9 11  1  0  0  0  0
 10 12  1  0  0  0  0
 11 10  2  0  0  0  0
 12 13  2  0  0  0  0
 16 21  1  0  0  0  0
 16 14  1  0  0  0  0
 17 15  1  1  0  0  0
 17 19  1  0  0  0  0
 17 16  1  0  0  0  0
 18 12  1  1  0  0  0
 18 20  1  0  0  0  0
 19 18  1  0  0  0  0
 20 14  1  0  0  0  0
 21 27  1  1  0  0  0
 22 24  1  0  0  0  0
 22 26  1  0  0  0  0
 24 25  1  0  0  0  0
 25 21  1  1  0  0  0
 26 25  1  0  0  0  0
 26 23  2  0  0  0  0
 27 28  1  0  0  0  0
 27 36  1  1  0  0  0
 29 28  1  0  0  0  0
 29 31  1  0  0  0  0
 30 29  2  0  0  0  0
 33 32  1  0  0  0  0
 33 31  1  0  0  0  0
 33 35  1  0  0  0  0
 34 33  2  0  0  0  0
 36 37  1  0  0  0  0
 37 39  1  0  0  0  0
 38 39  1  0  0  0  0
 40  1  1  0  0  0  0
 42 43  2  6  0  0  0
 42 40  1  0  0  0  0
 42 41  1  0  0  0  0
 44 45  1  0  0  0  0
 44 42  1  0  0  0  0
 46 52  1  6  0  0  0
 47 50  1  0  0  0  0
 47 46  1  0  0  0  0
 48 45  1  0  0  0  0
 48 49  1  0  0  0  0
 49 46  1  0  0  0  0
 50 51  1  0  0  0  0
 50 65  1  1  0  0  0
 51 48  2  0  0  0  0
 52 59  1  6  0  0  0
 53 52  1  0  0  0  0
 54 56  1  0  0  0  0
 54 55  1  0  0  0  0
 55 58  1  6  0  0  0
 56 55  1  0  0  0  0
 56 53  1  1  0  0  0
 58 57  1  0  0  0  0
 59 61  1  0  0  0  0
 61 60  1  6  0  0  0
 62 64  1  0  0  0  0
 62 63  1  0  0  0  0
 64 61  1  6  0  0  0
 64 63  1  0  0  0  0
 66 69  1  0  0  0  0
 66 65  1  0  0  0  0
 67 66  2  0  0  0  0
 69 68  1  0  0  0  0
 70 69  2  0  0  0  0
M  END
>  <MODEL>
2

>  <REMARK>
 VINA RESULT:      -3.4      2.823      9.921
  Name = 
  31 active torsions:
  status: ('A' for Active; 'I' for Inactive)
    1  A    between atoms: C_4  and  N_20
    2  A    between atoms: C_7  and  C_67
    3  A    between atoms: C_9  and  P_16
    4  A    between atoms: C_9  and  C_36
    5  A    between atoms: O_14  and  C_22
    6  A    between atoms: O_14  and  P_30
    7  A    between atoms: C_15  and  C_21
    8  A    between atoms: C_15  and  O_37
    9  A    between atoms: C_15  and  C_52
   10  A    between atoms: C_17  and  N_20
   11  A    between atoms: C_17  and  P_30
   12  A    between atoms: C_18  and  N_34
   13  A    between atoms: C_18  and  C_56
   14  A    between atoms: N_20  and  C_33
   15  A    between atoms: C_21  and  C_45
   16  A    between atoms: C_22  and  C_31
   17  A    between atoms: C_24  and  C_40
   18  A    between atoms: O_25  and  P_35
   19  A    between atoms: O_25  and  C_67
   20  A    between atoms: C_27  and  C_52
   21  A    between atoms: O_32  and  C_40
   22  A    between atoms: O_32  and  C_58
   23  A    between atoms: C_33  and  C_60
   24  A    between atoms: P_35  and  C_68
   25  A    between atoms: C_36  and  O_37
   26  A    between atoms: N_38  and  C_52
   27  A    between atoms: N_43  and  C_60
   28  A    between atoms: C_45  and  C_64
   29  A    between atoms: C_48  and  C_62
   30  A    between atoms: O_50  and  C_57
   31  A    between atoms: O_50  and  C_67
                            x       y       z     vdW  Elec       q    Type
                         _______ _______ _______ _____ _____    ______ ____

>  <TORSDO>
F 31

$$$$
