=
 OpenBabel11032420113D

 36 38  0  0  1  0  0  0  0  0999 V2000
  183.1290  174.7700  136.3060 C   0  0  2  0  0  3  0  0  0  0  0  0
  182.0730  179.1890  140.7740 O   0  0  0  0  0  0  0  0  0  0  0  0
  179.4130  179.9080  140.0550 O   0  0  0  0  0  1  0  0  0  0  0  0
  181.9790  177.4000  136.6520 C   0  0  2  0  0  3  0  0  0  0  0  0
  181.4410  176.9740  140.3970 F   0  0  0  0  0  0  0  0  0  0  0  0
  179.7010  178.2250  136.5180 O   0  0  0  0  0  0  0  0  0  0  0  0
  184.5800  178.5630  139.3990 C   0  0  0  0  0  0  0  0  0  0  0  0
  182.9840  175.7010  135.1900 N   0  0  0  0  0  2  0  0  0  0  0  0
  180.3720  178.2090  141.9490 F   0  0  0  0  0  0  0  0  0  0  0  0
  184.0600  177.9390  140.4520 C   0  0  0  0  0  3  0  0  0  0  0  0
  180.1420  176.5090  137.9950 O   0  0  0  0  0  1  0  0  0  0  0  0
  181.0090  178.2560  140.7200 C   0  0  0  0  0  0  0  0  0  0  0  0
  185.2510  177.7430  138.3440 C   0  0  1  0  0  3  0  0  0  0  0  0
  183.0370  176.9550  137.5790 N   0  0  2  0  0  0  0  0  0  0  0  0
  183.1750  178.6250  141.4440 C   0  0  0  0  0  2  0  0  0  0  0  0
  180.0080  178.7070  139.6540 C   0  0  2  0  0  3  0  0  0  0  0  0
  180.6530  177.6610  137.3830 C   0  0  1  0  0  0  0  0  0  0  0  0
  180.6840  178.8900  138.2800 C   0  0  1  0  0  3  0  0  0  0  0  0
  184.3070  177.5500  137.1580 C   0  0  0  0  0  2  0  0  0  0  0  0
  184.4000  179.9320  139.2160 O   0  0  0  0  0  1  0  0  0  0  0  0
  183.1790  175.4910  137.6680 C   0  0  0  0  0  2  0  0  0  0  0  0
  181.7790  176.4750  135.4410 C   0  0  0  0  0  2  0  0  0  0  0  0
  179.6800  179.4100  137.2760 C   0  0  0  0  0  2  0  0  0  0  0  0
  184.3290  173.8380  136.1200 C   0  0  1  0  0  3  0  0  0  0  0  0
  185.6260  174.6260  136.0560 C   0  0  0  0  0  1  0  0  0  0  0  0
  184.4110  172.7600  137.1580 C   0  0  0  0  0  0  0  0  0  0  0  0
  185.3290  172.8450  138.1980 O   0  0  0  0  0  1  0  0  0  0  0  0
  183.5960  171.7200  137.0860 C   0  0  0  0  0  2  0  0  0  0  0  0
  186.5370  178.4050  137.8650 C   0  0  0  0  0  2  0  0  0  0  0  0
  187.7640  177.6140  138.3030 C   0  0  0  0  0  2  0  0  0  0  0  0
  188.6270  178.4260  139.2540 C   0  0  0  0  0  2  0  0  0  0  0  0
  188.1510  178.2360  140.6840 C   0  0  0  0  0  2  0  0  0  0  0  0
  189.1530  177.4070  141.4680 C   0  0  0  0  0  2  0  0  0  0  0  0
  188.9570  177.5880  142.8370 O   0  0  0  0  0  0  0  0  0  0  0  0
  187.1510  177.1990  144.3320 C   0  0  0  0  0  1  0  0  0  0  0  0
  187.9660  176.6650  143.1740 C   0  0  0  0  0  2  0  0  0  0  0  0
  1 24  1  6  0  0  0
  1 21  1  0  0  0  0
  2 15  1  0  0  0  0
  4 22  1  6  0  0  0
  4 17  1  0  0  0  0
  4 14  1  0  0  0  0
  5 12  1  0  0  0  0
  6 23  1  0  0  0  0
  6 17  1  0  0  0  0
  7 10  2  0  0  0  0
  8 22  1  0  0  0  0
  8  1  1  0  0  0  0
 10 15  1  0  0  0  0
 12  2  1  0  0  0  0
 12  9  1  0  0  0  0
 13 29  1  6  0  0  0
 13  7  1  0  0  0  0
 14 19  1  6  0  0  0
 14 21  1  0  0  0  0
 16  3  1  1  0  0  0
 16 12  1  0  0  0  0
 17 11  1  1  0  0  0
 17 18  1  0  0  0  0
 18 23  1  6  0  0  0
 18 16  1  0  0  0  0
 19 13  1  0  0  0  0
 20  7  1  0  0  0  0
 24 25  1  1  0  0  0
 24 26  1  0  0  0  0
 26 27  1  0  0  0  0
 28 26  2  0  0  0  0
 29 30  1  0  0  0  0
 30 31  1  0  0  0  0
 31 32  1  0  0  0  0
 32 33  1  0  0  0  0
 33 34  1  0  0  0  0
 34 36  1  0  0  0  0
 36 35  1  0  0  0  0
M  END
>  <MODEL>
1

>  <REMARK>
 VINA RESULT:      -5.7      0.000      0.000
  Name = 
  9 active torsions:
  status: ('A' for Active; 'I' for Inactive)
    1  A    between atoms: C_1  and  C_21
    2  A    between atoms: C_1  and  C_30
    3  A    between atoms: C_2  and  C_5
    4  A    between atoms: C_2  and  C_30
    5  A    between atoms: C_3  and  C_15
    6  A    between atoms: C_5  and  C_22
    7  A    between atoms: C_7  and  C_15
    8  A    between atoms: C_22  and  O_24
    9  A    between atoms: O_24  and  C_34
                            x       y       z     vdW  Elec       q    Type
                         _______ _______ _______ _____ _____    ______ ____

>  <TORSDO>
F 9

$$$$
=
 OpenBabel11032420113D

 36 38  0  0  1  0  0  0  0  0999 V2000
  191.2400  176.9100  140.8100 C   0  0  2  0  0  3  0  0  0  0  0  0
  190.4220  174.1770  135.1120 O   0  0  0  0  0  0  0  0  0  0  0  0
  193.1200  173.4200  134.6010 O   0  0  0  0  0  1  0  0  0  0  0  0
  192.4430  176.7590  138.1850 C   0  0  2  0  0  3  0  0  0  0  0  0
  190.7690  173.4550  137.3040 F   0  0  0  0  0  0  0  0  0  0  0  0
  194.5260  175.8030  137.3880 O   0  0  0  0  0  0  0  0  0  0  0  0
  189.0090  176.4790  136.2380 C   0  0  0  0  0  0  0  0  0  0  0  0
  192.1270  177.9560  140.3070 N   0  0  0  0  0  2  0  0  0  0  0  0
  191.0090  172.0170  135.5870 F   0  0  0  0  0  0  0  0  0  0  0  0
  188.7540  175.1920  136.4550 C   0  0  0  0  0  3  0  0  0  0  0  0
  193.0660  174.4180  138.5160 O   0  0  0  0  0  1  0  0  0  0  0  0
  191.1650  173.3370  135.9770 C   0  0  0  0  0  0  0  0  0  0  0  0
  188.8940  177.4310  137.3860 C   0  0  1  0  0  3  0  0  0  0  0  0
  190.9940  176.5220  138.3220 N   0  0  2  0  0  0  0  0  0  0  0  0
  189.0560  174.1270  135.4480 C   0  0  0  0  0  2  0  0  0  0  0  0
  192.6450  173.7150  135.8840 C   0  0  2  0  0  3  0  0  0  0  0  0
  193.1770  175.5170  137.6540 C   0  0  1  0  0  0  0  0  0  0  0  0
  192.8720  175.2080  136.1960 C   0  0  1  0  0  3  0  0  0  0  0  0
  190.2830  177.7440  137.9410 C   0  0  0  0  0  2  0  0  0  0  0  0
  189.4900  176.9180  135.0070 O   0  0  0  0  0  1  0  0  0  0  0  0
  190.5790  176.1060  139.6730 C   0  0  0  0  0  2  0  0  0  0  0  0
  193.1100  177.3020  139.4590 C   0  0  0  0  0  2  0  0  0  0  0  0
  194.3320  175.5570  136.0160 C   0  0  0  0  0  2  0  0  0  0  0  0
  190.1970  177.4640  141.7840 C   0  0  1  0  0  3  0  0  0  0  0  0
  188.8620  177.6730  141.0930 C   0  0  0  0  0  1  0  0  0  0  0  0
  190.0350  176.6310  143.0180 C   0  0  0  0  0  0  0  0  0  0  0  0
  191.0280  176.5990  143.9900 O   0  0  0  0  0  1  0  0  0  0  0  0
  188.9300  175.9220  143.1880 C   0  0  0  0  0  2  0  0  0  0  0  0
  188.2140  178.7260  136.9620 C   0  0  0  0  0  2  0  0  0  0  0  0
  186.7010  178.5610  136.8960 C   0  0  0  0  0  2  0  0  0  0  0  0
  186.1330  178.1700  138.2500 C   0  0  0  0  0  2  0  0  0  0  0  0
  184.7060  178.6750  138.3840 C   0  0  0  0  0  2  0  0  0  0  0  0
  184.4610  179.1950  139.7890 C   0  0  0  0  0  2  0  0  0  0  0  0
  185.6740  179.3490  140.4610 O   0  0  0  0  0  0  0  0  0  0  0  0
  184.1850  178.2290  141.9350 C   0  0  0  0  0  1  0  0  0  0  0  0
  185.3500  179.1860  141.8080 C   0  0  0  0  0  2  0  0  0  0  0  0
  1 24  1  6  0  0  0
  2 15  1  0  0  0  0
  2 12  1  0  0  0  0
  4 14  1  0  0  0  0
  4 22  1  1  0  0  0
  6 17  1  0  0  0  0
  7 10  2  0  0  0  0
  7 13  1  0  0  0  0
  8  1  1  0  0  0  0
  9 12  1  0  0  0  0
 12  5  1  0  0  0  0
 13 29  1  6  0  0  0
 13 19  1  0  0  0  0
 14 19  1  1  0  0  0
 14 21  1  0  0  0  0
 15 10  1  0  0  0  0
 16  3  1  6  0  0  0
 16 12  1  0  0  0  0
 16 18  1  0  0  0  0
 17  4  1  0  0  0  0
 17 11  1  1  0  0  0
 18 23  1  6  0  0  0
 18 17  1  0  0  0  0
 20  7  1  0  0  0  0
 21  1  1  0  0  0  0
 22  8  1  0  0  0  0
 23  6  1  0  0  0  0
 24 25  1  6  0  0  0
 24 26  1  0  0  0  0
 26 28  2  0  0  0  0
 26 27  1  0  0  0  0
 30 29  1  0  0  0  0
 30 31  1  0  0  0  0
 31 32  1  0  0  0  0
 32 33  1  0  0  0  0
 33 34  1  0  0  0  0
 34 36  1  0  0  0  0
 36 35  1  0  0  0  0
M  END
>  <MODEL>
2

>  <REMARK>
 VINA RESULT:      -5.5      5.221      9.622
  Name = 
  9 active torsions:
  status: ('A' for Active; 'I' for Inactive)
    1  A    between atoms: C_1  and  C_21
    2  A    between atoms: C_1  and  C_30
    3  A    between atoms: C_2  and  C_5
    4  A    between atoms: C_2  and  C_30
    5  A    between atoms: C_3  and  C_15
    6  A    between atoms: C_5  and  C_22
    7  A    between atoms: C_7  and  C_15
    8  A    between atoms: C_22  and  O_24
    9  A    between atoms: O_24  and  C_34
                            x       y       z     vdW  Elec       q    Type
                         _______ _______ _______ _____ _____    ______ ____

>  <TORSDO>
F 9

$$$$
=
 OpenBabel11032420113D

 36 38  0  0  1  0  0  0  0  0999 V2000
  181.5590  176.5310  136.6870 C   0  0  2  0  0  3  0  0  0  0  0  0
  187.9300  176.6810  136.7460 O   0  0  0  0  0  0  0  0  0  0  0  0
  188.4340  173.9180  136.2770 O   0  0  0  0  0  1  0  0  0  0  0  0
  183.8420  175.0750  137.7010 C   0  0  2  0  0  3  0  0  0  0  0  0
  186.2530  176.5180  135.1310 F   0  0  0  0  0  0  0  0  0  0  0  0
  184.7540  172.8870  137.1830 O   0  0  0  0  0  0  0  0  0  0  0  0
  186.0630  178.2910  138.3240 C   0  0  0  0  0  0  0  0  0  0  0  0
  181.4570  175.6440  137.8430 N   0  0  0  0  0  2  0  0  0  0  0  0
  188.3900  176.0540  134.5940 F   0  0  0  0  0  0  0  0  0  0  0  0
  186.4610  178.5120  137.0740 C   0  0  0  0  0  3  0  0  0  0  0  0
  184.5080  174.3900  135.4510 O   0  0  0  0  0  1  0  0  0  0  0  0
  187.4480  175.9910  135.6070 C   0  0  0  0  0  0  0  0  0  0  0  0
  184.6340  178.5560  138.6740 C   0  0  1  0  0  3  0  0  0  0  0  0
  183.9760  176.5200  137.4350 N   0  0  2  0  0  0  0  0  0  0  0  0
  187.7940  178.0700  136.5600 C   0  0  0  0  0  2  0  0  0  0  0  0
  187.2100  174.5260  135.9800 C   0  0  2  0  0  3  0  0  0  0  0  0
  184.7830  174.2430  136.8160 C   0  0  1  0  0  0  0  0  0  0  0  0
  186.2530  174.3920  137.1820 C   0  0  1  0  0  3  0  0  0  0  0  0
  183.8550  177.2410  138.7040 C   0  0  0  0  0  2  0  0  0  0  0  0
  186.9190  177.7120  139.2580 O   0  0  0  0  0  1  0  0  0  0  0  0
  182.9960  177.0450  136.4690 C   0  0  0  0  0  2  0  0  0  0  0  0
  182.3970  174.5570  137.6240 C   0  0  0  0  0  2  0  0  0  0  0  0
  186.1070  172.9380  137.5670 C   0  0  0  0  0  2  0  0  0  0  0  0
  180.5560  177.6850  136.7610 C   0  0  1  0  0  3  0  0  0  0  0  0
  179.9660  177.8050  138.1550 C   0  0  0  0  0  1  0  0  0  0  0  0
  181.1220  178.9950  136.3060 C   0  0  0  0  0  0  0  0  0  0  0  0
  181.2800  179.2680  134.9530 O   0  0  0  0  0  1  0  0  0  0  0  0
  181.4690  179.9040  137.2030 C   0  0  0  0  0  2  0  0  0  0  0  0
  184.5150  179.2450  140.0270 C   0  0  0  0  0  2  0  0  0  0  0  0
  183.7670  178.3750  141.0290 C   0  0  0  0  0  2  0  0  0  0  0  0
  184.5410  178.2490  142.3300 C   0  0  0  0  0  2  0  0  0  0  0  0
  183.6350  178.5620  143.5090 C   0  0  0  0  0  2  0  0  0  0  0  0
  184.2850  179.5920  144.4150 C   0  0  0  0  0  2  0  0  0  0  0  0
  184.3930  179.0900  145.7120 O   0  0  0  0  0  0  0  0  0  0  0  0
  186.2610  177.6430  145.9680 C   0  0  0  0  0  1  0  0  0  0  0  0
  185.7650  179.0730  145.9670 C   0  0  0  0  0  2  0  0  0  0  0  0
  1 24  1  1  0  0  0
  1  8  1  0  0  0  0
  4 22  1  6  0  0  0
  5 12  1  0  0  0  0
  6 23  1  0  0  0  0
  7 13  1  0  0  0  0
  7 20  1  0  0  0  0
  9 12  1  0  0  0  0
 10  7  2  0  0  0  0
 12 16  1  0  0  0  0
 12  2  1  0  0  0  0
 13 19  1  0  0  0  0
 13 29  1  1  0  0  0
 14 21  1  6  0  0  0
 14  4  1  0  0  0  0
 14 19  1  0  0  0  0
 15  2  1  0  0  0  0
 15 10  1  0  0  0  0
 16  3  1  1  0  0  0
 16 18  1  0  0  0  0
 17 11  1  6  0  0  0
 17 18  1  0  0  0  0
 17  6  1  0  0  0  0
 17  4  1  0  0  0  0
 18 23  1  6  0  0  0
 21  1  1  0  0  0  0
 22  8  1  0  0  0  0
 24 25  1  1  0  0  0
 26 24  1  0  0  0  0
 26 28  2  0  0  0  0
 27 26  1  0  0  0  0
 29 30  1  0  0  0  0
 30 31  1  0  0  0  0
 31 32  1  0  0  0  0
 32 33  1  0  0  0  0
 33 34  1  0  0  0  0
 34 36  1  0  0  0  0
 36 35  1  0  0  0  0
M  END
>  <MODEL>
3

>  <REMARK>
 VINA RESULT:      -5.4      3.120      6.084
  Name = 
  9 active torsions:
  status: ('A' for Active; 'I' for Inactive)
    1  A    between atoms: C_1  and  C_21
    2  A    between atoms: C_1  and  C_30
    3  A    between atoms: C_2  and  C_5
    4  A    between atoms: C_2  and  C_30
    5  A    between atoms: C_3  and  C_15
    6  A    between atoms: C_5  and  C_22
    7  A    between atoms: C_7  and  C_15
    8  A    between atoms: C_22  and  O_24
    9  A    between atoms: O_24  and  C_34
                            x       y       z     vdW  Elec       q    Type
                         _______ _______ _______ _____ _____    ______ ____

>  <TORSDO>
F 9

$$$$
=
 OpenBabel11032420113D

 36 38  0  0  1  0  0  0  0  0999 V2000
  182.8370  174.8970  136.2930 C   0  0  2  0  0  3  0  0  0  0  0  0
  182.1860  179.1870  140.9590 O   0  0  0  0  0  0  0  0  0  0  0  0
  179.4820  179.9440  140.4810 O   0  0  0  0  0  1  0  0  0  0  0  0
  181.7420  177.5230  136.8080 C   0  0  2  0  0  3  0  0  0  0  0  0
  181.5060  176.9880  140.5710 F   0  0  0  0  0  0  0  0  0  0  0  0
  179.4670  178.3650  136.8850 O   0  0  0  0  0  0  0  0  0  0  0  0
  184.5670  178.5870  139.3670 C   0  0  0  0  0  0  0  0  0  0  0  0
  182.6100  175.8620  135.2200 N   0  0  0  0  0  2  0  0  0  0  0  0
  180.5780  178.1820  142.2400 F   0  0  0  0  0  0  0  0  0  0  0  0
  184.1290  177.9350  140.4400 C   0  0  0  0  0  3  0  0  0  0  0  0
  180.0120  176.6040  138.2700 O   0  0  0  0  0  1  0  0  0  0  0  0
  181.1130  178.2630  140.9660 C   0  0  0  0  0  0  0  0  0  0  0  0
  185.1430  177.7950  138.2370 C   0  0  1  0  0  3  0  0  0  0  0  0
  182.8670  177.0430  137.6320 N   0  0  2  0  0  0  0  0  0  0  0  0
  183.3340  178.5960  141.5200 C   0  0  0  0  0  2  0  0  0  0  0  0
  180.0330  178.7510  139.9980 C   0  0  2  0  0  3  0  0  0  0  0  0
  180.4810  177.7700  137.6520 C   0  0  1  0  0  0  0  0  0  0  0  0
  180.5960  178.9710  138.5790 C   0  0  1  0  0  3  0  0  0  0  0  0
  184.1040  177.6430  137.1270 C   0  0  0  0  0  2  0  0  0  0  0  0
  184.3850  179.9620  139.2390 O   0  0  0  0  0  1  0  0  0  0  0  0
  183.0040  175.5770  137.6660 C   0  0  0  0  0  2  0  0  0  0  0  0
  181.4360  176.6350  135.5910 C   0  0  0  0  0  2  0  0  0  0  0  0
  179.5180  179.5280  137.6760 C   0  0  0  0  0  2  0  0  0  0  0  0
  184.0100  173.9640  135.9820 C   0  0  1  0  0  3  0  0  0  0  0  0
  185.2900  174.7510  135.7660 C   0  0  0  0  0  1  0  0  0  0  0  0
  184.2090  172.8960  137.0140 C   0  0  0  0  0  0  0  0  0  0  0  0
  183.2440  171.9150  137.2150 O   0  0  0  0  0  1  0  0  0  0  0  0
  185.3170  172.8820  137.7360 C   0  0  0  0  0  2  0  0  0  0  0  0
  186.3910  178.4630  137.6750 C   0  0  0  0  0  2  0  0  0  0  0  0
  187.6480  177.9770  138.3860 C   0  0  0  0  0  2  0  0  0  0  0  0
  188.8240  177.9000  137.4280 C   0  0  0  0  0  2  0  0  0  0  0  0
  189.4620  176.5220  137.4940 C   0  0  0  0  0  2  0  0  0  0  0  0
  190.8260  176.6030  138.1540 C   0  0  0  0  0  2  0  0  0  0  0  0
  190.7850  176.0050  139.4140 O   0  0  0  0  0  0  0  0  0  0  0  0
  192.1850  177.5010  140.6170 C   0  0  0  0  0  1  0  0  0  0  0  0
  190.7660  177.0750  140.3090 C   0  0  0  0  0  2  0  0  0  0  0  0
  1 24  1  6  0  0  0
  1 21  1  0  0  0  0
  2 12  1  0  0  0  0
  2 15  1  0  0  0  0
  4 22  1  6  0  0  0
  4 14  1  0  0  0  0
  4 17  1  0  0  0  0
  5 12  1  0  0  0  0
  6 17  1  0  0  0  0
  6 23  1  0  0  0  0
  7 10  2  0  0  0  0
  8 22  1  0  0  0  0
  8  1  1  0  0  0  0
 10 15  1  0  0  0  0
 12  9  1  0  0  0  0
 13 29  1  6  0  0  0
 13  7  1  0  0  0  0
 14 19  1  6  0  0  0
 14 21  1  0  0  0  0
 16  3  1  1  0  0  0
 16 12  1  0  0  0  0
 17 11  1  1  0  0  0
 17 18  1  0  0  0  0
 18 23  1  6  0  0  0
 18 16  1  0  0  0  0
 19 13  1  0  0  0  0
 20  7  1  0  0  0  0
 24 25  1  1  0  0  0
 24 26  1  0  0  0  0
 26 27  1  0  0  0  0
 26 28  2  0  0  0  0
 29 30  1  0  0  0  0
 31 32  1  0  0  0  0
 31 30  1  0  0  0  0
 32 33  1  0  0  0  0
 33 34  1  0  0  0  0
 34 36  1  0  0  0  0
 36 35  1  0  0  0  0
M  END
>  <MODEL>
4

>  <REMARK>
 VINA RESULT:      -5.1      1.494      1.822
  Name = 
  9 active torsions:
  status: ('A' for Active; 'I' for Inactive)
    1  A    between atoms: C_1  and  C_21
    2  A    between atoms: C_1  and  C_30
    3  A    between atoms: C_2  and  C_5
    4  A    between atoms: C_2  and  C_30
    5  A    between atoms: C_3  and  C_15
    6  A    between atoms: C_5  and  C_22
    7  A    between atoms: C_7  and  C_15
    8  A    between atoms: C_22  and  O_24
    9  A    between atoms: O_24  and  C_34
                            x       y       z     vdW  Elec       q    Type
                         _______ _______ _______ _____ _____    ______ ____

>  <TORSDO>
F 9

$$$$
=
 OpenBabel11032420113D

 36 38  0  0  1  0  0  0  0  0999 V2000
  181.2520  177.6450  137.9310 C   0  0  2  0  0  3  0  0  0  0  0  0
  187.4630  176.7080  136.8610 O   0  0  0  0  0  0  0  0  0  0  0  0
  187.3480  174.0090  135.9610 O   0  0  0  0  0  1  0  0  0  0  0  0
  183.3390  175.6830  138.3240 C   0  0  2  0  0  3  0  0  0  0  0  0
  185.5580  177.0880  135.5670 F   0  0  0  0  0  0  0  0  0  0  0  0
  183.7220  173.4820  137.3750 O   0  0  0  0  0  0  0  0  0  0  0  0
  186.2070  178.3400  138.9420 C   0  0  0  0  0  0  0  0  0  0  0  0
  181.1590  176.6160  138.9640 N   0  0  0  0  0  2  0  0  0  0  0  0
  187.4580  176.3610  134.5990 F   0  0  0  0  0  0  0  0  0  0  0  0
  186.4430  178.6850  137.6790 C   0  0  0  0  0  3  0  0  0  0  0  0
  183.5070  175.2610  135.9220 O   0  0  0  0  0  1  0  0  0  0  0  0
  186.6880  176.2980  135.7490 C   0  0  0  0  0  0  0  0  0  0  0  0
  184.9270  178.7820  139.5740 C   0  0  1  0  0  3  0  0  0  0  0  0
  183.7070  177.1080  138.2250 N   0  0  2  0  0  0  0  0  0  0  0  0
  187.5710  178.1120  136.8810 C   0  0  0  0  0  2  0  0  0  0  0  0
  186.2320  174.8540  135.9690 C   0  0  2  0  0  3  0  0  0  0  0  0
  183.9550  174.8550  137.1850 C   0  0  1  0  0  0  0  0  0  0  0  0
  185.4640  174.6950  137.2970 C   0  0  1  0  0  3  0  0  0  0  0  0
  183.9230  177.6290  139.5760 C   0  0  0  0  0  2  0  0  0  0  0  0
  187.0690  177.4840  139.6250 O   0  0  0  0  0  1  0  0  0  0  0  0
  182.7100  177.9380  137.5260 C   0  0  0  0  0  2  0  0  0  0  0  0
  181.8270  175.4350  138.4430 C   0  0  0  0  0  2  0  0  0  0  0  0
  185.1020  173.2430  137.5130 C   0  0  0  0  0  2  0  0  0  0  0  0
  180.5130  178.9240  138.3310 C   0  0  1  0  0  3  0  0  0  0  0  0
  180.5850  179.1490  139.8320 C   0  0  0  0  0  1  0  0  0  0  0  0
  180.9800  180.1370  137.5870 C   0  0  0  0  0  0  0  0  0  0  0  0
  180.7950  180.2420  136.2130 O   0  0  0  0  0  1  0  0  0  0  0  0
  181.5690  181.1230  138.2460 C   0  0  0  0  0  2  0  0  0  0  0  0
  185.1530  179.2590  141.0030 C   0  0  0  0  0  2  0  0  0  0  0  0
  184.2750  178.4950  141.9870 C   0  0  0  0  0  2  0  0  0  0  0  0
  185.0970  177.9450  143.1400 C   0  0  0  0  0  2  0  0  0  0  0  0
  186.5590  178.3170  142.9640 C   0  0  0  0  0  2  0  0  0  0  0  0
  187.4370  177.0850  143.0990 C   0  0  0  0  0  2  0  0  0  0  0  0
  187.7270  176.8480  144.4430 O   0  0  0  0  0  0  0  0  0  0  0  0
  189.2590  177.6810  146.0560 C   0  0  0  0  0  1  0  0  0  0  0  0
  189.0320  177.3120  144.6060 C   0  0  0  0  0  2  0  0  0  0  0  0
  1 24  1  1  0  0  0
  1  8  1  0  0  0  0
  2 15  1  0  0  0  0
  4 22  1  6  0  0  0
  5 12  1  0  0  0  0
  6 23  1  0  0  0  0
  7 13  1  0  0  0  0
  7 20  1  0  0  0  0
  9 12  1  0  0  0  0
 10  7  2  0  0  0  0
 12 16  1  0  0  0  0
 12  2  1  0  0  0  0
 13 19  1  0  0  0  0
 13 29  1  1  0  0  0
 14 21  1  1  0  0  0
 14  4  1  0  0  0  0
 14 19  1  0  0  0  0
 15 10  1  0  0  0  0
 16  3  1  1  0  0  0
 16 18  1  0  0  0  0
 17 11  1  6  0  0  0
 17 18  1  0  0  0  0
 17  6  1  0  0  0  0
 17  4  1  0  0  0  0
 18 23  1  6  0  0  0
 21  1  1  0  0  0  0
 22  8  1  0  0  0  0
 24 25  1  1  0  0  0
 26 28  2  0  0  0  0
 26 24  1  0  0  0  0
 27 26  1  0  0  0  0
 29 30  1  0  0  0  0
 30 31  1  0  0  0  0
 32 33  1  0  0  0  0
 32 31  1  0  0  0  0
 33 34  1  0  0  0  0
 34 36  1  0  0  0  0
 36 35  1  0  0  0  0
M  END
>  <MODEL>
5

>  <REMARK>
 VINA RESULT:      -5.0      2.691      5.781
  Name = 
  9 active torsions:
  status: ('A' for Active; 'I' for Inactive)
    1  A    between atoms: C_1  and  C_21
    2  A    between atoms: C_1  and  C_30
    3  A    between atoms: C_2  and  C_5
    4  A    between atoms: C_2  and  C_30
    5  A    between atoms: C_3  and  C_15
    6  A    between atoms: C_5  and  C_22
    7  A    between atoms: C_7  and  C_15
    8  A    between atoms: C_22  and  O_24
    9  A    between atoms: O_24  and  C_34
                            x       y       z     vdW  Elec       q    Type
                         _______ _______ _______ _____ _____    ______ ____

>  <TORSDO>
F 9

$$$$
=
 OpenBabel11032420113D

 36 38  0  0  1  0  0  0  0  0999 V2000
  191.0770  176.7740  140.6970 C   0  0  2  0  0  3  0  0  0  0  0  0
  190.8600  174.2440  134.8520 O   0  0  0  0  0  0  0  0  0  0  0  0
  193.5970  173.4970  134.6000 O   0  0  0  0  0  1  0  0  0  0  0  0
  192.5480  176.7120  138.2080 C   0  0  2  0  0  3  0  0  0  0  0  0
  190.9760  173.4450  137.0420 F   0  0  0  0  0  0  0  0  0  0  0  0
  194.7030  175.7770  137.6000 O   0  0  0  0  0  0  0  0  0  0  0  0
  189.3360  176.5100  135.9060 C   0  0  0  0  0  0  0  0  0  0  0  0
  192.0110  177.8340  140.3270 N   0  0  0  0  0  2  0  0  0  0  0  0
  191.3950  172.0670  135.3100 F   0  0  0  0  0  0  0  0  0  0  0  0
  189.0610  175.2170  136.0490 C   0  0  0  0  0  3  0  0  0  0  0  0
  193.1340  174.3590  138.5200 O   0  0  0  0  0  1  0  0  0  0  0  0
  191.5090  173.3730  135.7600 C   0  0  0  0  0  0  0  0  0  0  0  0
  189.1010  177.4220  137.0670 C   0  0  1  0  0  3  0  0  0  0  0  0
  191.0920  176.4740  138.1850 N   0  0  2  0  0  0  0  0  0  0  0  0
  189.4660  174.1870  135.0430 C   0  0  0  0  0  2  0  0  0  0  0  0
  192.9910  173.7500  135.8360 C   0  0  2  0  0  3  0  0  0  0  0  0
  193.3340  175.4870  137.7140 C   0  0  1  0  0  0  0  0  0  0  0  0
  193.1830  175.2300  136.2220 C   0  0  1  0  0  3  0  0  0  0  0  0
  190.4250  177.7110  137.7750 C   0  0  0  0  0  2  0  0  0  0  0  0
  189.9420  176.9910  134.7480 O   0  0  0  0  0  1  0  0  0  0  0  0
  190.5390  176.0130  139.4700 C   0  0  0  0  0  2  0  0  0  0  0  0
  193.0780  177.2080  139.5640 C   0  0  0  0  0  2  0  0  0  0  0  0
  194.6530  175.5800  136.2080 C   0  0  0  0  0  2  0  0  0  0  0  0
  189.9380  177.2980  141.5760 C   0  0  1  0  0  3  0  0  0  0  0  0
  188.6770  177.5180  140.7600 C   0  0  0  0  0  1  0  0  0  0  0  0
  189.6590  176.4310  142.7660 C   0  0  0  0  0  0  0  0  0  0  0  0
  188.4160  176.4570  143.3870 O   0  0  0  0  0  1  0  0  0  0  0  0
  190.6040  175.6270  143.2250 C   0  0  0  0  0  2  0  0  0  0  0  0
  188.4680  178.7330  136.6210 C   0  0  0  0  0  2  0  0  0  0  0  0
  186.9580  178.5960  136.4680 C   0  0  0  0  0  2  0  0  0  0  0  0
  186.3500  177.8770  137.6610 C   0  0  0  0  0  2  0  0  0  0  0  0
  185.1140  177.1050  137.2320 C   0  0  0  0  0  2  0  0  0  0  0  0
  185.5080  175.9100  136.3830 C   0  0  0  0  0  2  0  0  0  0  0  0
  186.0150  174.8930  137.1930 O   0  0  0  0  0  0  0  0  0  0  0  0
  184.5720  173.0520  137.6080 C   0  0  0  0  0  1  0  0  0  0  0  0
  185.5170  173.7170  136.6310 C   0  0  0  0  0  2  0  0  0  0  0  0
  1 24  1  6  0  0  0
  2 15  1  0  0  0  0
  2 12  1  0  0  0  0
  4 22  1  1  0  0  0
  6 17  1  0  0  0  0
  7 10  2  0  0  0  0
  7 13  1  0  0  0  0
  8  1  1  0  0  0  0
  9 12  1  0  0  0  0
 12 16  1  0  0  0  0
 12  5  1  0  0  0  0
 13 29  1  6  0  0  0
 13 19  1  0  0  0  0
 14 19  1  1  0  0  0
 14  4  1  0  0  0  0
 14 21  1  0  0  0  0
 15 10  1  0  0  0  0
 16  3  1  6  0  0  0
 16 18  1  0  0  0  0
 17  4  1  0  0  0  0
 17 11  1  1  0  0  0
 18 23  1  6  0  0  0
 18 17  1  0  0  0  0
 20  7  1  0  0  0  0
 21  1  1  0  0  0  0
 22  8  1  0  0  0  0
 23  6  1  0  0  0  0
 24 25  1  6  0  0  0
 24 26  1  0  0  0  0
 26 28  2  0  0  0  0
 26 27  1  0  0  0  0
 30 29  1  0  0  0  0
 30 31  1  0  0  0  0
 32 31  1  0  0  0  0
 33 34  1  0  0  0  0
 33 32  1  0  0  0  0
 36 34  1  0  0  0  0
 36 35  1  0  0  0  0
M  END
>  <MODEL>
6

>  <REMARK>
 VINA RESULT:      -5.0      5.385      9.942
  Name = 
  9 active torsions:
  status: ('A' for Active; 'I' for Inactive)
    1  A    between atoms: C_1  and  C_21
    2  A    between atoms: C_1  and  C_30
    3  A    between atoms: C_2  and  C_5
    4  A    between atoms: C_2  and  C_30
    5  A    between atoms: C_3  and  C_15
    6  A    between atoms: C_5  and  C_22
    7  A    between atoms: C_7  and  C_15
    8  A    between atoms: C_22  and  O_24
    9  A    between atoms: O_24  and  C_34
                            x       y       z     vdW  Elec       q    Type
                         _______ _______ _______ _____ _____    ______ ____

>  <TORSDO>
F 9

$$$$
=
 OpenBabel11032420113D

 36 38  0  0  1  0  0  0  0  0999 V2000
  183.4490  176.2180  137.5190 C   0  0  2  0  0  3  0  0  0  0  0  0
  182.3320  179.4370  142.9040 O   0  0  0  0  0  0  0  0  0  0  0  0
  179.9640  180.8060  142.1090 O   0  0  0  0  0  1  0  0  0  0  0  0
  182.6600  178.8350  138.4620 C   0  0  2  0  0  3  0  0  0  0  0  0
  181.4500  177.5570  141.8380 F   0  0  0  0  0  0  0  0  0  0  0  0
  180.5840  180.0800  138.2990 O   0  0  0  0  0  0  0  0  0  0  0  0
  184.9120  178.7300  141.7150 C   0  0  0  0  0  0  0  0  0  0  0  0
  183.6310  177.4170  136.7060 N   0  0  0  0  0  2  0  0  0  0  0  0
  180.3330  178.5220  143.5400 F   0  0  0  0  0  0  0  0  0  0  0  0
  184.1370  177.9620  142.4760 C   0  0  0  0  0  3  0  0  0  0  0  0
  180.5130  177.9870  139.2670 O   0  0  0  0  0  1  0  0  0  0  0  0
  181.1660  178.7670  142.4600 C   0  0  0  0  0  0  0  0  0  0  0  0
  185.6200  178.1020  140.5580 C   0  0  1  0  0  3  0  0  0  0  0  0
  183.4710  177.9720  139.3420 N   0  0  2  0  0  0  0  0  0  0  0  0
  183.2110  178.5200  143.5110 C   0  0  0  0  0  2  0  0  0  0  0  0
  180.4340  179.6610  141.4560 C   0  0  2  0  0  3  0  0  0  0  0  0
  181.2840  179.1400  139.0740 C   0  0  1  0  0  0  0  0  0  0  0  0
  181.3470  180.0650  140.2810 C   0  0  1  0  0  3  0  0  0  0  0  0
  184.8670  178.4060  139.2620 C   0  0  0  0  0  2  0  0  0  0  0  0
  184.9700  180.1080  141.9100 O   0  0  0  0  0  1  0  0  0  0  0  0
  183.3780  176.5360  139.0250 C   0  0  0  0  0  2  0  0  0  0  0  0
  182.5290  178.3110  137.0220 C   0  0  0  0  0  2  0  0  0  0  0  0
  180.6130  181.0080  139.3560 C   0  0  0  0  0  2  0  0  0  0  0  0
  184.5120  175.1570  137.2190 C   0  0  1  0  0  3  0  0  0  0  0  0
  184.1210  173.8130  137.8060 C   0  0  0  0  0  1  0  0  0  0  0  0
  184.8290  175.0300  135.7600 C   0  0  0  0  0  0  0  0  0  0  0  0
  183.8590  174.6140  134.8560 O   0  0  0  0  0  1  0  0  0  0  0  0
  186.0440  175.3240  135.3270 C   0  0  0  0  0  2  0  0  0  0  0  0
  187.0510  178.6110  140.4440 C   0  0  0  0  0  2  0  0  0  0  0  0
  187.7720  178.5430  141.7840 C   0  0  0  0  0  2  0  0  0  0  0  0
  188.2860  177.1400  142.0580 C   0  0  0  0  0  2  0  0  0  0  0  0
  187.8060  176.6630  143.4180 C   0  0  0  0  0  2  0  0  0  0  0  0
  188.7000  177.2140  144.5150 C   0  0  0  0  0  2  0  0  0  0  0  0
  187.9680  177.3840  145.6900 O   0  0  0  0  0  0  0  0  0  0  0  0
  185.9190  178.5210  146.0880 C   0  0  0  0  0  1  0  0  0  0  0  0
  186.6420  177.4760  145.2650 C   0  0  0  0  0  2  0  0  0  0  0  0
  1 24  1  1  0  0  0
  1 21  1  0  0  0  0
  2 15  1  0  0  0  0
  4 22  1  6  0  0  0
  4 17  1  0  0  0  0
  4 14  1  0  0  0  0
  5 12  1  0  0  0  0
  6 17  1  0  0  0  0
  6 23  1  0  0  0  0
  7 20  1  0  0  0  0
  7 10  2  0  0  0  0
  8 22  1  0  0  0  0
  8  1  1  0  0  0  0
 10 15  1  0  0  0  0
 12  2  1  0  0  0  0
 12  9  1  0  0  0  0
 13 29  1  6  0  0  0
 13  7  1  0  0  0  0
 14 21  1  6  0  0  0
 16  3  1  1  0  0  0
 16 12  1  0  0  0  0
 17 11  1  1  0  0  0
 17 18  1  0  0  0  0
 18 23  1  6  0  0  0
 18 16  1  0  0  0  0
 19 14  1  0  0  0  0
 19 13  1  0  0  0  0
 24 25  1  6  0  0  0
 26 24  1  0  0  0  0
 27 26  1  0  0  0  0
 28 26  2  0  0  0  0
 29 30  1  0  0  0  0
 30 31  1  0  0  0  0
 31 32  1  0  0  0  0
 32 33  1  0  0  0  0
 33 34  1  0  0  0  0
 36 34  1  0  0  0  0
 36 35  1  0  0  0  0
M  END
>  <MODEL>
7

>  <REMARK>
 VINA RESULT:      -5.0      1.893      2.584
  Name = 
  9 active torsions:
  status: ('A' for Active; 'I' for Inactive)
    1  A    between atoms: C_1  and  C_21
    2  A    between atoms: C_1  and  C_30
    3  A    between atoms: C_2  and  C_5
    4  A    between atoms: C_2  and  C_30
    5  A    between atoms: C_3  and  C_15
    6  A    between atoms: C_5  and  C_22
    7  A    between atoms: C_7  and  C_15
    8  A    between atoms: C_22  and  O_24
    9  A    between atoms: O_24  and  C_34
                            x       y       z     vdW  Elec       q    Type
                         _______ _______ _______ _____ _____    ______ ____

>  <TORSDO>
F 9

$$$$
=
 OpenBabel11032420113D

 36 38  0  0  1  0  0  0  0  0999 V2000
  191.1730  176.7960  140.7950 C   0  0  2  0  0  3  0  0  0  0  0  0
  190.7830  174.3000  134.9450 O   0  0  0  0  0  0  0  0  0  0  0  0
  193.5170  173.5800  134.5960 O   0  0  0  0  0  1  0  0  0  0  0  0
  192.5610  176.7620  138.2580 C   0  0  2  0  0  3  0  0  0  0  0  0
  190.9800  173.4890  137.1240 F   0  0  0  0  0  0  0  0  0  0  0  0
  194.7030  175.8510  137.5730 O   0  0  0  0  0  0  0  0  0  0  0  0
  189.2750  176.5460  136.0630 C   0  0  0  0  0  0  0  0  0  0  0  0
  192.0850  177.8660  140.4010 N   0  0  0  0  0  2  0  0  0  0  0  0
  191.3530  172.1250  135.3700 F   0  0  0  0  0  0  0  0  0  0  0  0
  189.0160  175.2500  136.2070 C   0  0  0  0  0  3  0  0  0  0  0  0
  193.1770  174.4130  138.5350 O   0  0  0  0  0  1  0  0  0  0  0  0
  191.4700  173.4290  135.8250 C   0  0  0  0  0  0  0  0  0  0  0  0
  189.0710  177.4480  137.2380 C   0  0  1  0  0  3  0  0  0  0  0  0
  191.1070  176.5110  138.2820 N   0  0  2  0  0  0  0  0  0  0  0  0
  189.3970  174.2300  135.1810 C   0  0  0  0  0  2  0  0  0  0  0  0
  192.9500  173.8190  135.8530 C   0  0  2  0  0  3  0  0  0  0  0  0
  193.3400  175.5470  137.7300 C   0  0  1  0  0  0  0  0  0  0  0  0
  193.1420  175.2980  136.2420 C   0  0  1  0  0  3  0  0  0  0  0  0
  190.4150  177.7450  137.9030 C   0  0  0  0  0  2  0  0  0  0  0  0
  189.8390  177.0390  134.8880 O   0  0  0  0  0  1  0  0  0  0  0  0
  190.6010  176.0370  139.5820 C   0  0  0  0  0  2  0  0  0  0  0  0
  193.1310  177.2540  139.5990 C   0  0  0  0  0  2  0  0  0  0  0  0
  194.6080  175.6620  136.1820 C   0  0  0  0  0  2  0  0  0  0  0  0
  190.0600  177.3030  141.7150 C   0  0  1  0  0  3  0  0  0  0  0  0
  188.7820  177.5570  140.9350 C   0  0  0  0  0  1  0  0  0  0  0  0
  189.8010  176.4060  142.8860 C   0  0  0  0  0  0  0  0  0  0  0  0
  190.8540  175.9050  143.6440 O   0  0  0  0  0  1  0  0  0  0  0  0
  188.5560  176.0910  143.2070 C   0  0  0  0  0  2  0  0  0  0  0  0
  188.4120  178.7560  136.8210 C   0  0  0  0  0  2  0  0  0  0  0  0
  186.8940  178.6290  136.7980 C   0  0  0  0  0  2  0  0  0  0  0  0
  186.3860  177.9050  138.0330 C   0  0  0  0  0  2  0  0  0  0  0  0
  185.0150  178.4320  138.4210 C   0  0  0  0  0  2  0  0  0  0  0  0
  183.9290  177.5050  137.9060 C   0  0  0  0  0  2  0  0  0  0  0  0
  182.8970  177.4090  138.8410 O   0  0  0  0  0  0  0  0  0  0  0  0
  183.1780  175.2280  137.9410 C   0  0  0  0  0  1  0  0  0  0  0  0
  182.8440  176.0530  139.1650 C   0  0  0  0  0  2  0  0  0  0  0  0
  1 24  1  6  0  0  0
  2 15  1  0  0  0  0
  2 12  1  0  0  0  0
  4 14  1  0  0  0  0
  4 22  1  1  0  0  0
  6 17  1  0  0  0  0
  7 10  2  0  0  0  0
  7 13  1  0  0  0  0
  8  1  1  0  0  0  0
  9 12  1  0  0  0  0
 12 16  1  0  0  0  0
 12  5  1  0  0  0  0
 13 29  1  6  0  0  0
 13 19  1  0  0  0  0
 14 19  1  1  0  0  0
 14 21  1  0  0  0  0
 15 10  1  0  0  0  0
 16  3  1  6  0  0  0
 16 18  1  0  0  0  0
 17  4  1  0  0  0  0
 17 11  1  1  0  0  0
 18 23  1  6  0  0  0
 18 17  1  0  0  0  0
 20  7  1  0  0  0  0
 21  1  1  0  0  0  0
 22  8  1  0  0  0  0
 23  6  1  0  0  0  0
 24 25  1  6  0  0  0
 24 26  1  0  0  0  0
 26 28  2  0  0  0  0
 26 27  1  0  0  0  0
 30 29  1  0  0  0  0
 30 31  1  0  0  0  0
 31 32  1  0  0  0  0
 33 32  1  0  0  0  0
 33 34  1  0  0  0  0
 34 36  1  0  0  0  0
 35 36  1  0  0  0  0
M  END
>  <MODEL>
8

>  <REMARK>
 VINA RESULT:      -4.9      5.351      9.885
  Name = 
  9 active torsions:
  status: ('A' for Active; 'I' for Inactive)
    1  A    between atoms: C_1  and  C_21
    2  A    between atoms: C_1  and  C_30
    3  A    between atoms: C_2  and  C_5
    4  A    between atoms: C_2  and  C_30
    5  A    between atoms: C_3  and  C_15
    6  A    between atoms: C_5  and  C_22
    7  A    between atoms: C_7  and  C_15
    8  A    between atoms: C_22  and  O_24
    9  A    between atoms: O_24  and  C_34
                            x       y       z     vdW  Elec       q    Type
                         _______ _______ _______ _____ _____    ______ ____

>  <TORSDO>
F 9

$$$$
=
 OpenBabel11032420113D

 36 38  0  0  1  0  0  0  0  0999 V2000
  184.2420  174.6710  136.6820 C   0  0  2  0  0  3  0  0  0  0  0  0
  181.7690  179.5360  139.9720 O   0  0  0  0  0  0  0  0  0  0  0  0
  179.6380  180.2150  138.2080 O   0  0  0  0  0  1  0  0  0  0  0  0
  183.1890  177.3390  136.3170 C   0  0  2  0  0  3  0  0  0  0  0  0
  181.2160  177.3030  139.5740 F   0  0  0  0  0  0  0  0  0  0  0  0
  181.1880  178.1780  135.2300 O   0  0  0  0  0  0  0  0  0  0  0  0
  184.5760  178.7380  139.7490 C   0  0  0  0  0  0  0  0  0  0  0  0
  184.5910  175.4860  135.5210 N   0  0  0  0  0  2  0  0  0  0  0  0
  179.6960  178.7040  140.4690 F   0  0  0  0  0  0  0  0  0  0  0  0
  183.6560  178.2310  140.5650 C   0  0  0  0  0  3  0  0  0  0  0  0
  180.9290  176.6150  136.9060 O   0  0  0  0  0  1  0  0  0  0  0  0
  180.7620  178.6170  139.5890 C   0  0  0  0  0  0  0  0  0  0  0  0
  185.5600  177.8060  139.1180 C   0  0  1  0  0  3  0  0  0  0  0  0
  183.7780  176.9750  137.6200 N   0  0  2  0  0  0  0  0  0  0  0  0
  182.4930  179.0270  141.0670 C   0  0  0  0  0  2  0  0  0  0  0  0
  180.2790  178.9720  138.1800 C   0  0  2  0  0  3  0  0  0  0  0  0
  181.6980  177.6910  136.4450 C   0  0  1  0  0  0  0  0  0  0  0  0
  181.4430  179.0040  137.1700 C   0  0  1  0  0  3  0  0  0  0  0  0
  185.1410  177.5070  137.6790 C   0  0  0  0  0  2  0  0  0  0  0  0
  184.5540  180.0840  139.3910 O   0  0  0  0  0  1  0  0  0  0  0  0
  183.7980  175.5260  137.8850 C   0  0  0  0  0  2  0  0  0  0  0  0
  183.4260  176.2980  135.2110 C   0  0  0  0  0  2  0  0  0  0  0  0
  180.9370  179.4340  135.8120 C   0  0  0  0  0  2  0  0  0  0  0  0
  185.3700  173.7080  137.0640 C   0  0  1  0  0  3  0  0  0  0  0  0
  185.0100  172.2780  136.7030 C   0  0  0  0  0  1  0  0  0  0  0  0
  186.6970  174.0880  136.4830 C   0  0  0  0  0  0  0  0  0  0  0  0
  187.0990  173.5930  135.2470 O   0  0  0  0  0  1  0  0  0  0  0  0
  187.4930  174.9070  137.1500 C   0  0  0  0  0  2  0  0  0  0  0  0
  186.9640  178.3980  139.1250 C   0  0  0  0  0  2  0  0  0  0  0  0
  187.4590  178.6340  140.5460 C   0  0  0  0  0  2  0  0  0  0  0  0
  188.5180  177.6160  140.9330 C   0  0  0  0  0  2  0  0  0  0  0  0
  188.2430  177.0810  142.3290 C   0  0  0  0  0  2  0  0  0  0  0  0
  189.4730  177.2390  143.2050 C   0  0  0  0  0  2  0  0  0  0  0  0
  190.3560  176.1800  142.9870 O   0  0  0  0  0  0  0  0  0  0  0  0
  191.6860  178.0500  143.6020 C   0  0  0  0  0  1  0  0  0  0  0  0
  191.5890  176.7930  142.7650 C   0  0  0  0  0  2  0  0  0  0  0  0
  1 24  1  1  0  0  0
  1 21  1  0  0  0  0
  2 15  1  0  0  0  0
  4 22  1  6  0  0  0
  4 17  1  0  0  0  0
  4 14  1  0  0  0  0
  5 12  1  0  0  0  0
  6 23  1  0  0  0  0
  6 17  1  0  0  0  0
  7 10  2  0  0  0  0
  8  1  1  0  0  0  0
 10 15  1  0  0  0  0
 12  2  1  0  0  0  0
 12  9  1  0  0  0  0
 13 29  1  6  0  0  0
 13  7  1  0  0  0  0
 14 19  1  6  0  0  0
 14 21  1  0  0  0  0
 16  3  1  1  0  0  0
 16 12  1  0  0  0  0
 17 11  1  1  0  0  0
 17 18  1  0  0  0  0
 18 23  1  6  0  0  0
 18 16  1  0  0  0  0
 19 13  1  0  0  0  0
 20  7  1  0  0  0  0
 22  8  1  0  0  0  0
 24 25  1  6  0  0  0
 26 24  1  0  0  0  0
 26 28  2  0  0  0  0
 27 26  1  0  0  0  0
 29 30  1  0  0  0  0
 30 31  1  0  0  0  0
 31 32  1  0  0  0  0
 32 33  1  0  0  0  0
 34 33  1  0  0  0  0
 36 34  1  0  0  0  0
 36 35  1  0  0  0  0
M  END
>  <MODEL>
9

>  <REMARK>
 VINA RESULT:      -4.7      1.521      2.033
  Name = 
  9 active torsions:
  status: ('A' for Active; 'I' for Inactive)
    1  A    between atoms: C_1  and  C_21
    2  A    between atoms: C_1  and  C_30
    3  A    between atoms: C_2  and  C_5
    4  A    between atoms: C_2  and  C_30
    5  A    between atoms: C_3  and  C_15
    6  A    between atoms: C_5  and  C_22
    7  A    between atoms: C_7  and  C_15
    8  A    between atoms: C_22  and  O_24
    9  A    between atoms: O_24  and  C_34
                            x       y       z     vdW  Elec       q    Type
                         _______ _______ _______ _____ _____    ______ ____

>  <TORSDO>
F 9

$$$$
