=
 OpenBabel11032420153D

 28 31  0  0  1  0  0  0  0  0999 V2000
  186.8440  178.4150  147.7330 C   0  0  0  0  0  3  0  0  0  0  0  0
  182.6520  179.1100  144.4130 N   0  0  0  0  0  1  0  0  0  0  0  0
  185.8560  178.3150  145.5030 C   0  0  0  0  0  0  0  0  0  0  0  0
  186.9360  178.1340  146.3670 C   0  0  0  0  0  0  0  0  0  0  0  0
  184.7800  178.2850  143.5630 N   0  0  0  0  0  0  0  0  0  0  0  0
  189.1410  177.7030  148.0310 C   0  0  0  0  0  3  0  0  0  0  0  0
  188.1500  177.6420  145.8150 C   0  0  0  0  0  0  0  0  0  0  0  0
  184.0080  178.7200  144.5910 C   0  0  0  0  0  0  0  0  0  0  0  0
  188.2410  177.3660  144.4220 C   0  0  0  0  0  0  0  0  0  0  0  0
  185.9470  178.0340  144.1730 C   0  0  0  0  0  0  0  0  0  0  0  0
  190.5020  176.8410  146.1090 C   0  0  0  0  0  0  0  0  0  0  0  0
  189.5360  176.9070  143.7970 C   0  0  2  0  0  3  0  0  0  0  0  0
  184.6230  178.7560  145.8000 N   0  0  0  0  0  2  0  0  0  0  0  0
  187.1200  177.5620  143.5910 C   0  0  0  0  0  3  0  0  0  0  0  0
  189.2530  177.4160  146.6610 C   0  0  0  0  0  0  0  0  0  0  0  0
  187.9480  178.2040  148.5610 C   0  0  0  0  0  3  0  0  0  0  0  0
  190.6120  176.5860  144.8030 C   0  0  0  0  0  3  0  0  0  0  0  0
  192.5010  176.2410  147.6550 N   0  0  0  0  0  0  0  0  0  0  0  0
  191.6110  176.5090  146.9660 C   0  0  0  0  0  0  0  0  0  0  0  0
  190.0090  177.8840  142.9170 O   0  0  0  0  0  0  0  0  0  0  0  0
  190.9870  177.2410  142.1560 C   0  0  0  0  0  2  0  0  0  0  0  0
  190.5390  177.1760  140.7110 C   0  0  0  0  0  2  0  0  0  0  0  0
  187.4000  178.5190  139.4130 O   0  0  0  0  0  0  0  0  0  0  0  0
  189.4520  178.4170  138.3050 N   0  0  0  0  0  2  0  0  0  0  0  0
  188.6150  178.1880  139.4410 C   0  0  0  0  0  0  0  0  0  0  0  0
  189.1470  177.5800  140.6180 N   0  0  0  0  0  2  0  0  0  0  0  0
  188.9490  179.0320  137.0900 C   0  0  0  0  0  2  0  0  0  0  0  0
  188.6520  177.9570  136.0650 C   0  0  0  0  0  1  0  0  0  0  0  0
  1 16  1  0  0  0  0
  2  8  1  0  0  0  0
  3 13  1  0  0  0  0
  3  4  1  0  0  0  0
  4  1  2  0  0  0  0
  5 10  1  0  0  0  0
  5  8  2  0  0  0  0
  6 16  2  0  0  0  0
  7  4  1  0  0  0  0
  7 15  2  0  0  0  0
  8 13  1  0  0  0  0
  9  7  1  0  0  0  0
 10  3  2  0  0  0  0
 11 15  1  0  0  0  0
 11 19  1  0  0  0  0
 12 20  1  6  0  0  0
 12  9  1  0  0  0  0
 12 17  1  0  0  0  0
 14 10  1  0  0  0  0
 14  9  2  0  0  0  0
 15  6  1  0  0  0  0
 17 11  2  0  0  0  0
 19 18  3  0  0  0  0
 21 20  1  0  0  0  0
 22 21  1  0  0  0  0
 23 25  2  0  0  0  0
 24 25  1  0  0  0  0
 25 26  1  0  0  0  0
 26 22  1  0  0  0  0
 27 24  1  0  0  0  0
 28 27  1  0  0  0  0
M  END
>  <MODEL>
1

>  <REMARK>
 VINA RESULT:     -10.3      0.000      0.000
  Name = 
  6 active torsions:
  status: ('A' for Active; 'I' for Inactive)
    1  A    between atoms: C_3  and  N_5
    2  A    between atoms: C_11  and  C_14
    3  A    between atoms: C_11  and  N_22
    4  A    between atoms: C_14  and  O_15
    5  A    between atoms: O_15  and  C_23
    6  A    between atoms: C_16  and  C_21
                            x       y       z     vdW  Elec       q    Type
                         _______ _______ _______ _____ _____    ______ ____

>  <TORSDO>
F 6

$$$$
=
 OpenBabel11032420153D

 28 31  0  0  1  0  0  0  0  0999 V2000
  186.8850  178.2880  147.5320 C   0  0  0  0  0  3  0  0  0  0  0  0
  182.7840  179.1100  144.1270 N   0  0  0  0  0  1  0  0  0  0  0  0
  185.9570  178.2710  145.2730 C   0  0  0  0  0  0  0  0  0  0  0  0
  187.0130  178.0570  146.1590 C   0  0  0  0  0  0  0  0  0  0  0  0
  184.9350  178.3140  143.3050 N   0  0  0  0  0  0  0  0  0  0  0  0
  189.1720  177.5630  147.8650 C   0  0  0  0  0  3  0  0  0  0  0  0
  188.2430  177.5850  145.6230 C   0  0  0  0  0  0  0  0  0  0  0  0
  184.1350  178.7120  144.3260 C   0  0  0  0  0  0  0  0  0  0  0  0
  188.3720  177.3600  144.2230 C   0  0  0  0  0  0  0  0  0  0  0  0
  186.0850  178.0390  143.9360 C   0  0  0  0  0  0  0  0  0  0  0  0
  190.5850  176.7720  145.9510 C   0  0  0  0  0  0  0  0  0  0  0  0
  189.6830  176.9240  143.6180 C   0  0  2  0  0  3  0  0  0  0  0  0
  184.7170  178.7030  145.5530 N   0  0  0  0  0  2  0  0  0  0  0  0
  187.2730  177.5890  143.3700 C   0  0  0  0  0  3  0  0  0  0  0  0
  189.3220  177.3270  146.4900 C   0  0  0  0  0  0  0  0  0  0  0  0
  187.9650  178.0450  148.3810 C   0  0  0  0  0  3  0  0  0  0  0  0
  190.7310  176.5650  144.6400 C   0  0  0  0  0  3  0  0  0  0  0  0
  192.5430  176.1130  147.5270 N   0  0  0  0  0  0  0  0  0  0  0  0
  191.6710  176.4060  146.8250 C   0  0  0  0  0  0  0  0  0  0  0  0
  190.1800  177.9320  142.7870 O   0  0  0  0  0  0  0  0  0  0  0  0
  190.7770  177.2590  141.7200 C   0  0  0  0  0  2  0  0  0  0  0  0
  189.7600  177.0630  140.6150 C   0  0  0  0  0  2  0  0  0  0  0  0
  188.9850  179.3430  137.8690 O   0  0  0  0  0  0  0  0  0  0  0  0
  187.7910  177.4370  138.4950 N   0  0  0  0  0  2  0  0  0  0  0  0
  188.8730  178.3600  138.6480 C   0  0  0  0  0  0  0  0  0  0  0  0
  189.8360  178.1760  139.6860 N   0  0  0  0  0  2  0  0  0  0  0  0
  186.7920  177.5890  137.4530 C   0  0  0  0  0  2  0  0  0  0  0  0
  185.5370  178.1980  138.0420 C   0  0  0  0  0  1  0  0  0  0  0  0
  1 16  1  0  0  0  0
  2  8  1  0  0  0  0
  3 13  1  0  0  0  0
  3  4  1  0  0  0  0
  4  1  2  0  0  0  0
  5 10  1  0  0  0  0
  5  8  2  0  0  0  0
  6 16  2  0  0  0  0
  7  4  1  0  0  0  0
  7 15  2  0  0  0  0
  8 13  1  0  0  0  0
  9  7  1  0  0  0  0
 10  3  2  0  0  0  0
 11 15  1  0  0  0  0
 11 19  1  0  0  0  0
 12 20  1  1  0  0  0
 12  9  1  0  0  0  0
 12 17  1  0  0  0  0
 14 10  1  0  0  0  0
 14  9  2  0  0  0  0
 15  6  1  0  0  0  0
 17 11  2  0  0  0  0
 19 18  3  0  0  0  0
 21 20  1  0  0  0  0
 22 21  1  0  0  0  0
 23 25  2  0  0  0  0
 24 25  1  0  0  0  0
 25 26  1  0  0  0  0
 26 22  1  0  0  0  0
 27 28  1  0  0  0  0
 27 24  1  0  0  0  0
M  END
>  <MODEL>
2

>  <REMARK>
 VINA RESULT:     -10.1      1.048      1.107
  Name = 
  6 active torsions:
  status: ('A' for Active; 'I' for Inactive)
    1  A    between atoms: C_3  and  N_5
    2  A    between atoms: C_11  and  C_14
    3  A    between atoms: C_11  and  N_22
    4  A    between atoms: C_14  and  O_15
    5  A    between atoms: O_15  and  C_23
    6  A    between atoms: C_16  and  C_21
                            x       y       z     vdW  Elec       q    Type
                         _______ _______ _______ _____ _____    ______ ____

>  <TORSDO>
F 6

$$$$
=
 OpenBabel11032420153D

 28 31  0  0  1  0  0  0  0  0999 V2000
  186.9190  178.2630  147.7080 C   0  0  0  0  0  3  0  0  0  0  0  0
  182.8510  178.9910  144.2440 N   0  0  0  0  0  1  0  0  0  0  0  0
  186.0180  178.2010  145.4390 C   0  0  0  0  0  0  0  0  0  0  0  0
  187.0660  178.0120  146.3410 C   0  0  0  0  0  0  0  0  0  0  0  0
  185.0180  178.2040  143.4590 N   0  0  0  0  0  0  0  0  0  0  0  0
  189.2090  177.5660  148.0790 C   0  0  0  0  0  3  0  0  0  0  0  0
  188.3060  177.5430  145.8260 C   0  0  0  0  0  0  0  0  0  0  0  0
  184.2030  178.6090  144.4650 C   0  0  0  0  0  0  0  0  0  0  0  0
  188.4530  177.2980  144.4310 C   0  0  0  0  0  0  0  0  0  0  0  0
  186.1630  177.9500  144.1080 C   0  0  0  0  0  0  0  0  0  0  0  0
  190.6520  176.7580  146.1930 C   0  0  0  0  0  0  0  0  0  0  0  0
  189.7750  176.8650  143.8480 C   0  0  2  0  0  3  0  0  0  0  0  0
  184.7700  178.6250  145.6980 N   0  0  0  0  0  2  0  0  0  0  0  0
  187.3620  177.5020  143.5620 C   0  0  0  0  0  3  0  0  0  0  0  0
  189.3770  177.3090  146.7090 C   0  0  0  0  0  0  0  0  0  0  0  0
  187.9920  178.0440  148.5730 C   0  0  0  0  0  3  0  0  0  0  0  0
  190.8150  176.5320  144.8880 C   0  0  0  0  0  3  0  0  0  0  0  0
  192.5970  176.1430  147.8020 N   0  0  0  0  0  0  0  0  0  0  0  0
  191.7310  176.4170  147.0860 C   0  0  0  0  0  0  0  0  0  0  0  0
  190.2720  177.8650  143.0080 O   0  0  0  0  0  0  0  0  0  0  0  0
  191.5460  177.4280  142.6400 C   0  0  0  0  0  2  0  0  0  0  0  0
  191.6720  177.4540  141.1310 C   0  0  0  0  0  2  0  0  0  0  0  0
  188.8040  176.9680  138.9220 O   0  0  0  0  0  0  0  0  0  0  0  0
  190.8740  175.8960  138.7970 N   0  0  0  0  0  2  0  0  0  0  0  0
  189.9620  176.8190  139.3960 C   0  0  0  0  0  0  0  0  0  0  0  0
  190.3530  177.5810  140.5380 N   0  0  0  0  0  2  0  0  0  0  0  0
  190.5150  175.1040  137.6340 C   0  0  0  0  0  2  0  0  0  0  0  0
  191.0200  175.7880  136.3810 C   0  0  0  0  0  1  0  0  0  0  0  0
  1 16  1  0  0  0  0
  2  8  1  0  0  0  0
  3 13  1  0  0  0  0
  3  4  1  0  0  0  0
  4  1  2  0  0  0  0
  5 10  1  0  0  0  0
  5  8  2  0  0  0  0
  6 16  2  0  0  0  0
  7  4  1  0  0  0  0
  7 15  2  0  0  0  0
  8 13  1  0  0  0  0
  9  7  1  0  0  0  0
 10  3  2  0  0  0  0
 11 15  1  0  0  0  0
 11 19  1  0  0  0  0
 12 20  1  6  0  0  0
 12  9  1  0  0  0  0
 12 17  1  0  0  0  0
 14 10  1  0  0  0  0
 14  9  2  0  0  0  0
 15  6  1  0  0  0  0
 17 11  2  0  0  0  0
 19 18  3  0  0  0  0
 21 20  1  0  0  0  0
 22 21  1  0  0  0  0
 23 25  2  0  0  0  0
 24 25  1  0  0  0  0
 25 26  1  0  0  0  0
 26 22  1  0  0  0  0
 27 24  1  0  0  0  0
 28 27  1  0  0  0  0
M  END
>  <MODEL>
3

>  <REMARK>
 VINA RESULT:      -9.8      1.256      1.337
  Name = 
  6 active torsions:
  status: ('A' for Active; 'I' for Inactive)
    1  A    between atoms: C_3  and  N_5
    2  A    between atoms: C_11  and  C_14
    3  A    between atoms: C_11  and  N_22
    4  A    between atoms: C_14  and  O_15
    5  A    between atoms: O_15  and  C_23
    6  A    between atoms: C_16  and  C_21
                            x       y       z     vdW  Elec       q    Type
                         _______ _______ _______ _____ _____    ______ ____

>  <TORSDO>
F 6

$$$$
=
 OpenBabel11032420153D

 28 31  0  0  1  0  0  0  0  0999 V2000
  186.3770  178.3910  147.2490 C   0  0  0  0  0  3  0  0  0  0  0  0
  182.1230  179.0960  144.0090 N   0  0  0  0  0  1  0  0  0  0  0  0
  185.3690  178.3730  145.0250 C   0  0  0  0  0  0  0  0  0  0  0  0
  186.4650  178.1900  145.8690 C   0  0  0  0  0  0  0  0  0  0  0  0
  184.2740  178.4070  143.0960 N   0  0  0  0  0  0  0  0  0  0  0  0
  188.7030  177.7580  147.4860 C   0  0  0  0  0  3  0  0  0  0  0  0
  187.6920  177.7790  145.2800 C   0  0  0  0  0  0  0  0  0  0  0  0
  183.4960  178.7530  144.1530 C   0  0  0  0  0  0  0  0  0  0  0  0
  187.7790  177.5850  143.8720 C   0  0  0  0  0  0  0  0  0  0  0  0
  185.4570  178.1710  143.6810 C   0  0  0  0  0  0  0  0  0  0  0  0
  190.0770  177.0610  145.5080 C   0  0  0  0  0  0  0  0  0  0  0  0
  189.0850  177.2160  143.2120 C   0  0  2  0  0  3  0  0  0  0  0  0
  184.1230  178.7470  145.3570 N   0  0  0  0  0  2  0  0  0  0  0  0
  186.6420  177.7810  143.0630 C   0  0  0  0  0  3  0  0  0  0  0  0
  188.8120  177.5520  146.1020 C   0  0  0  0  0  0  0  0  0  0  0  0
  187.4970  178.1790  148.0540 C   0  0  0  0  0  3  0  0  0  0  0  0
  190.1830  176.8830  144.1890 C   0  0  0  0  0  3  0  0  0  0  0  0
  192.1170  176.4580  146.9990 N   0  0  0  0  0  0  0  0  0  0  0  0
  191.2080  176.7270  146.3350 C   0  0  0  0  0  0  0  0  0  0  0  0
  189.5080  178.2590  142.3840 O   0  0  0  0  0  0  0  0  0  0  0  0
  189.8140  177.6500  141.1650 C   0  0  0  0  0  2  0  0  0  0  0  0
  188.6200  177.7500  140.2380 C   0  0  0  0  0  2  0  0  0  0  0  0
  189.4060  179.0270  136.9070 O   0  0  0  0  0  0  0  0  0  0  0  0
  189.0520  176.8010  137.5130 N   0  0  0  0  0  2  0  0  0  0  0  0
  189.1400  178.1950  137.8150 C   0  0  0  0  0  0  0  0  0  0  0  0
  188.9290  178.6590  139.1490 N   0  0  0  0  0  2  0  0  0  0  0  0
  189.2610  176.2890  136.1700 C   0  0  0  0  0  2  0  0  0  0  0  0
  190.1770  175.0840  136.2250 C   0  0  0  0  0  1  0  0  0  0  0  0
  1 16  1  0  0  0  0
  2  8  1  0  0  0  0
  3 13  1  0  0  0  0
  3  4  1  0  0  0  0
  4  1  2  0  0  0  0
  5 10  1  0  0  0  0
  5  8  2  0  0  0  0
  6 16  2  0  0  0  0
  7  4  1  0  0  0  0
  7 15  2  0  0  0  0
  8 13  1  0  0  0  0
  9  7  1  0  0  0  0
 10  3  2  0  0  0  0
 11 15  1  0  0  0  0
 11 19  1  0  0  0  0
 12 20  1  1  0  0  0
 12  9  1  0  0  0  0
 12 17  1  0  0  0  0
 14 10  1  0  0  0  0
 14  9  2  0  0  0  0
 15  6  1  0  0  0  0
 17 11  2  0  0  0  0
 19 18  3  0  0  0  0
 21 20  1  0  0  0  0
 22 21  1  0  0  0  0
 23 25  2  0  0  0  0
 24 25  1  0  0  0  0
 25 26  1  0  0  0  0
 26 22  1  0  0  0  0
 27 28  1  0  0  0  0
 27 24  1  0  0  0  0
M  END
>  <MODEL>
4

>  <REMARK>
 VINA RESULT:      -9.5      1.229      1.423
  Name = 
  6 active torsions:
  status: ('A' for Active; 'I' for Inactive)
    1  A    between atoms: C_3  and  N_5
    2  A    between atoms: C_11  and  C_14
    3  A    between atoms: C_11  and  N_22
    4  A    between atoms: C_14  and  O_15
    5  A    between atoms: O_15  and  C_23
    6  A    between atoms: C_16  and  C_21
                            x       y       z     vdW  Elec       q    Type
                         _______ _______ _______ _____ _____    ______ ____

>  <TORSDO>
F 6

$$$$
=
 OpenBabel11032420153D

 28 31  0  0  1  0  0  0  0  0999 V2000
  187.4170  177.4440  146.7430 C   0  0  0  0  0  3  0  0  0  0  0  0
  192.4470  176.3750  148.3710 N   0  0  0  0  0  1  0  0  0  0  0  0
  189.7860  177.1060  146.2560 C   0  0  0  0  0  0  0  0  0  0  0  0
  188.4840  177.3850  145.8410 C   0  0  0  0  0  0  0  0  0  0  0  0
  191.9670  176.7760  146.0170 N   0  0  0  0  0  0  0  0  0  0  0  0
  185.9130  177.9900  144.9250 C   0  0  0  0  0  3  0  0  0  0  0  0
  188.2650  177.6180  144.4550 C   0  0  0  0  0  0  0  0  0  0  0  0
  191.5530  176.6690  147.3040 C   0  0  0  0  0  0  0  0  0  0  0  0
  189.3530  177.5470  143.5390 C   0  0  0  0  0  0  0  0  0  0  0  0
  190.8240  177.0550  145.3740 C   0  0  0  0  0  0  0  0  0  0  0  0
  186.7430  178.2440  142.5720 C   0  0  0  0  0  0  0  0  0  0  0  0
  189.1390  177.7240  142.0560 C   0  0  2  0  0  3  0  0  0  0  0  0
  190.2240  176.8630  147.5020 N   0  0  0  0  0  2  0  0  0  0  0  0
  190.6510  177.2650  144.0090 C   0  0  0  0  0  3  0  0  0  0  0  0
  186.9700  177.9340  144.0030 C   0  0  0  0  0  0  0  0  0  0  0  0
  186.1340  177.7410  146.2830 C   0  0  0  0  0  3  0  0  0  0  0  0
  187.7470  178.1730  141.6950 C   0  0  0  0  0  3  0  0  0  0  0  0
  184.4100  179.0050  141.7180 N   0  0  0  0  0  0  0  0  0  0  0  0
  185.4490  178.6660  142.0980 C   0  0  0  0  0  0  0  0  0  0  0  0
  189.4220  176.5270  141.3920 O   0  0  0  0  0  0  0  0  0  0  0  0
  190.4900  176.8280  140.5440 C   0  0  0  0  0  2  0  0  0  0  0  0
  190.0470  176.6790  139.1040 C   0  0  0  0  0  2  0  0  0  0  0  0
  188.6500  179.5750  137.3720 O   0  0  0  0  0  0  0  0  0  0  0  0
  187.5690  177.5600  137.8420 N   0  0  0  0  0  2  0  0  0  0  0  0
  188.7070  178.4250  137.8810 C   0  0  0  0  0  0  0  0  0  0  0  0
  189.9190  177.9920  138.4990 N   0  0  0  0  0  2  0  0  0  0  0  0
  186.3180  177.9630  137.2230 C   0  0  0  0  0  2  0  0  0  0  0  0
  185.3250  178.3510  138.2990 C   0  0  0  0  0  1  0  0  0  0  0  0
  3 13  1  0  0  0  0
  4  3  1  0  0  0  0
  4  1  2  0  0  0  0
  5  8  2  0  0  0  0
  6 16  2  0  0  0  0
  7  4  1  0  0  0  0
  8 13  1  0  0  0  0
  8  2  1  0  0  0  0
  9 14  2  0  0  0  0
  9  7  1  0  0  0  0
 10  5  1  0  0  0  0
 10  3  2  0  0  0  0
 11 15  1  0  0  0  0
 12 20  1  6  0  0  0
 12  9  1  0  0  0  0
 14 10  1  0  0  0  0
 15  7  2  0  0  0  0
 15  6  1  0  0  0  0
 16  1  1  0  0  0  0
 17 12  1  0  0  0  0
 17 11  2  0  0  0  0
 18 19  3  0  0  0  0
 19 11  1  0  0  0  0
 21 20  1  0  0  0  0
 22 21  1  0  0  0  0
 23 25  2  0  0  0  0
 24 25  1  0  0  0  0
 25 26  1  0  0  0  0
 26 22  1  0  0  0  0
 27 24  1  0  0  0  0
 27 28  1  0  0  0  0
M  END
>  <MODEL>
5

>  <REMARK>
 VINA RESULT:      -9.5      1.673      4.906
  Name = 
  6 active torsions:
  status: ('A' for Active; 'I' for Inactive)
    1  A    between atoms: C_3  and  N_5
    2  A    between atoms: C_11  and  C_14
    3  A    between atoms: C_11  and  N_22
    4  A    between atoms: C_14  and  O_15
    5  A    between atoms: O_15  and  C_23
    6  A    between atoms: C_16  and  C_21
                            x       y       z     vdW  Elec       q    Type
                         _______ _______ _______ _____ _____    ______ ____

>  <TORSDO>
F 6

$$$$
=
 OpenBabel11032420153D

 28 31  0  0  1  0  0  0  0  0999 V2000
  184.6930  178.7850  146.2450 C   0  0  0  0  0  3  0  0  0  0  0  0
  180.9700  179.3450  142.3840 N   0  0  0  0  0  1  0  0  0  0  0  0
  184.0210  178.6550  143.9020 C   0  0  0  0  0  0  0  0  0  0  0  0
  184.9790  178.5090  144.9050 C   0  0  0  0  0  0  0  0  0  0  0  0
  183.2200  178.5930  141.8340 N   0  0  0  0  0  0  0  0  0  0  0  0
  186.9500  178.1490  146.8540 C   0  0  0  0  0  3  0  0  0  0  0  0
  186.2730  178.0590  144.5250 C   0  0  0  0  0  0  0  0  0  0  0  0
  182.3020  179.0000  142.7460 C   0  0  0  0  0  0  0  0  0  0  0  0
  186.5620  177.7890  143.1570 C   0  0  0  0  0  0  0  0  0  0  0  0
  184.3020  178.3800  142.5970 C   0  0  0  0  0  0  0  0  0  0  0  0
  188.5880  177.3380  145.1380 C   0  0  0  0  0  0  0  0  0  0  0  0
  187.9440  177.3760  142.7160 C   0  0  2  0  0  3  0  0  0  0  0  0
  182.7450  179.0540  144.0270 N   0  0  0  0  0  2  0  0  0  0  0  0
  185.5580  177.9500  142.1820 C   0  0  0  0  0  3  0  0  0  0  0  0
  187.2580  177.8690  145.5140 C   0  0  0  0  0  0  0  0  0  0  0  0
  185.6800  178.6090  147.2160 C   0  0  0  0  0  3  0  0  0  0  0  0
  188.8830  177.0890  143.8600 C   0  0  0  0  0  3  0  0  0  0  0  0
  190.3780  176.8010  146.9430 N   0  0  0  0  0  0  0  0  0  0  0  0
  189.5810  177.0410  146.1390 C   0  0  0  0  0  0  0  0  0  0  0  0
  188.4990  178.3700  141.9060 O   0  0  0  0  0  0  0  0  0  0  0  0
  189.3840  177.6960  141.0610 C   0  0  0  0  0  2  0  0  0  0  0  0
  189.2930  178.2790  139.6670 C   0  0  0  0  0  2  0  0  0  0  0  0
  185.9830  178.1850  138.1260 O   0  0  0  0  0  0  0  0  0  0  0  0
  187.8170  176.8380  137.6050 N   0  0  0  0  0  2  0  0  0  0  0  0
  187.1840  177.8800  138.3510 C   0  0  0  0  0  0  0  0  0  0  0  0
  187.9070  178.5850  139.3600 N   0  0  0  0  0  2  0  0  0  0  0  0
  187.1160  176.0970  136.5700 C   0  0  0  0  0  2  0  0  0  0  0  0
  186.4740  174.8670  137.1770 C   0  0  0  0  0  1  0  0  0  0  0  0
  1 16  1  0  0  0  0
  2  8  1  0  0  0  0
  3 13  1  0  0  0  0
  3  4  1  0  0  0  0
  4  1  2  0  0  0  0
  5 10  1  0  0  0  0
  5  8  2  0  0  0  0
  6 16  2  0  0  0  0
  7  4  1  0  0  0  0
  7 15  2  0  0  0  0
  8 13  1  0  0  0  0
  9  7  1  0  0  0  0
 10  3  2  0  0  0  0
 11 15  1  0  0  0  0
 11 19  1  0  0  0  0
 12 20  1  1  0  0  0
 12  9  1  0  0  0  0
 12 17  1  0  0  0  0
 14 10  1  0  0  0  0
 14  9  2  0  0  0  0
 15  6  1  0  0  0  0
 17 11  2  0  0  0  0
 19 18  3  0  0  0  0
 21 20  1  0  0  0  0
 22 21  1  0  0  0  0
 23 25  2  0  0  0  0
 24 25  1  0  0  0  0
 25 26  1  0  0  0  0
 26 22  1  0  0  0  0
 27 28  1  0  0  0  0
 27 24  1  0  0  0  0
M  END
>  <MODEL>
6

>  <REMARK>
 VINA RESULT:      -9.1      1.760      2.413
  Name = 
  6 active torsions:
  status: ('A' for Active; 'I' for Inactive)
    1  A    between atoms: C_3  and  N_5
    2  A    between atoms: C_11  and  C_14
    3  A    between atoms: C_11  and  N_22
    4  A    between atoms: C_14  and  O_15
    5  A    between atoms: O_15  and  C_23
    6  A    between atoms: C_16  and  C_21
                            x       y       z     vdW  Elec       q    Type
                         _______ _______ _______ _____ _____    ______ ____

>  <TORSDO>
F 6

$$$$
=
 OpenBabel11032420153D

 28 31  0  0  1  0  0  0  0  0999 V2000
  187.2970  177.5300  146.0640 C   0  0  0  0  0  3  0  0  0  0  0  0
  192.1260  176.2450  148.0940 N   0  0  0  0  0  1  0  0  0  0  0  0
  189.6890  177.1290  145.7770 C   0  0  0  0  0  0  0  0  0  0  0  0
  188.4380  177.4640  145.2580 C   0  0  0  0  0  0  0  0  0  0  0  0
  191.8710  176.7350  145.7210 N   0  0  0  0  0  0  0  0  0  0  0  0
  185.9790  178.1830  144.1390 C   0  0  0  0  0  3  0  0  0  0  0  0
  188.3520  177.7480  143.8680 C   0  0  0  0  0  0  0  0  0  0  0  0
  191.3400  176.6020  146.9630 C   0  0  0  0  0  0  0  0  0  0  0  0
  189.5140  177.6700  143.0500 C   0  0  0  0  0  0  0  0  0  0  0  0
  190.7990  177.0720  144.9900 C   0  0  0  0  0  0  0  0  0  0  0  0
  187.0240  178.4820  141.8790 C   0  0  0  0  0  0  0  0  0  0  0  0
  189.4400  177.8990  141.5600 C   0  0  2  0  0  3  0  0  0  0  0  0
  190.0050  176.8330  147.0480 N   0  0  0  0  0  2  0  0  0  0  0  0
  190.7560  177.3300  143.6230 C   0  0  0  0  0  3  0  0  0  0  0  0
  187.1120  178.1210  143.3130 C   0  0  0  0  0  0  0  0  0  0  0  0
  186.0700  177.8840  145.5020 C   0  0  0  0  0  3  0  0  0  0  0  0
  188.1000  178.4050  141.0920 C   0  0  0  0  0  3  0  0  0  0  0  0
  184.8020  179.3450  140.8460 N   0  0  0  0  0  0  0  0  0  0  0  0
  185.7920  178.9610  141.3070 C   0  0  0  0  0  0  0  0  0  0  0  0
  189.7450  176.7150  140.8840 O   0  0  0  0  0  0  0  0  0  0  0  0
  189.8210  177.0780  139.5370 C   0  0  0  0  0  2  0  0  0  0  0  0
  190.6890  176.0830  138.7950 C   0  0  0  0  0  2  0  0  0  0  0  0
  193.9310  176.7060  137.2330 O   0  0  0  0  0  0  0  0  0  0  0  0
  192.9850  174.6320  137.7310 N   0  0  0  0  0  2  0  0  0  0  0  0
  192.9610  176.0610  137.7110 C   0  0  0  0  0  0  0  0  0  0  0  0
  191.8380  176.7710  138.2320 N   0  0  0  0  0  2  0  0  0  0  0  0
  194.1090  173.8730  137.2110 C   0  0  0  0  0  2  0  0  0  0  0  0
  195.0550  173.5330  138.3440 C   0  0  0  0  0  1  0  0  0  0  0  0
  3 13  1  0  0  0  0
  4  3  1  0  0  0  0
  4  1  2  0  0  0  0
  5  8  2  0  0  0  0
  6 16  2  0  0  0  0
  7  4  1  0  0  0  0
  8 13  1  0  0  0  0
  8  2  1  0  0  0  0
  9 14  2  0  0  0  0
  9  7  1  0  0  0  0
 10  5  1  0  0  0  0
 10  3  2  0  0  0  0
 11 15  1  0  0  0  0
 12 20  1  6  0  0  0
 12  9  1  0  0  0  0
 14 10  1  0  0  0  0
 15  7  2  0  0  0  0
 15  6  1  0  0  0  0
 16  1  1  0  0  0  0
 17 12  1  0  0  0  0
 17 11  2  0  0  0  0
 18 19  3  0  0  0  0
 19 11  1  0  0  0  0
 21 20  1  0  0  0  0
 22 21  1  0  0  0  0
 23 25  2  0  0  0  0
 25 24  1  0  0  0  0
 25 26  1  0  0  0  0
 26 22  1  0  0  0  0
 27 24  1  0  0  0  0
 27 28  1  0  0  0  0
M  END
>  <MODEL>
7

>  <REMARK>
 VINA RESULT:      -9.0      2.884      5.657
  Name = 
  6 active torsions:
  status: ('A' for Active; 'I' for Inactive)
    1  A    between atoms: C_3  and  N_5
    2  A    between atoms: C_11  and  C_14
    3  A    between atoms: C_11  and  N_22
    4  A    between atoms: C_14  and  O_15
    5  A    between atoms: O_15  and  C_23
    6  A    between atoms: C_16  and  C_21
                            x       y       z     vdW  Elec       q    Type
                         _______ _______ _______ _____ _____    ______ ____

>  <TORSDO>
F 6

$$$$
=
 OpenBabel11032420153D

 28 31  0  0  1  0  0  0  0  0999 V2000
  184.1810  178.8650  144.3540 C   0  0  0  0  0  3  0  0  0  0  0  0
  183.8970  179.3630  138.9920 N   0  0  0  0  0  1  0  0  0  0  0  0
  185.2240  178.7650  142.1490 C   0  0  0  0  0  0  0  0  0  0  0  0
  185.2910  178.6350  143.5360 C   0  0  0  0  0  0  0  0  0  0  0  0
  185.9870  178.7210  140.0660 N   0  0  0  0  0  0  0  0  0  0  0  0
  185.5070  178.3110  146.3050 C   0  0  0  0  0  3  0  0  0  0  0  0
  186.5350  178.2500  144.1070 C   0  0  0  0  0  0  0  0  0  0  0  0
  184.6770  179.0660  140.1440 C   0  0  0  0  0  0  0  0  0  0  0  0
  187.6650  178.0270  143.2700 C   0  0  0  0  0  0  0  0  0  0  0  0
  186.3070  178.5350  141.3550 C   0  0  0  0  0  0  0  0  0  0  0  0
  187.9060  177.6130  146.0990 C   0  0  0  0  0  0  0  0  0  0  0  0
  189.0140  177.6840  143.8520 C   0  0  2  0  0  3  0  0  0  0  0  0
  184.1640  179.1070  141.4000 N   0  0  0  0  0  2  0  0  0  0  0  0
  187.5450  178.1690  141.8730 C   0  0  0  0  0  3  0  0  0  0  0  0
  186.6330  178.0770  145.5010 C   0  0  0  0  0  0  0  0  0  0  0  0
  184.2920  178.7070  145.7360 C   0  0  0  0  0  3  0  0  0  0  0  0
  188.9810  177.4090  145.3340 C   0  0  0  0  0  3  0  0  0  0  0  0
  188.0900  177.1080  148.6410 N   0  0  0  0  0  0  0  0  0  0  0  0
  188.0080  177.3330  147.5090 C   0  0  0  0  0  0  0  0  0  0  0  0
  189.9170  178.7210  143.5990 O   0  0  0  0  0  0  0  0  0  0  0  0
  191.1500  178.0900  143.4210 C   0  0  0  0  0  2  0  0  0  0  0  0
  191.1220  177.2810  142.1410 C   0  0  0  0  0  2  0  0  0  0  0  0
  193.6430  177.3490  139.4990 O   0  0  0  0  0  0  0  0  0  0  0  0
  191.3750  176.8490  139.2670 N   0  0  0  0  0  2  0  0  0  0  0  0
  192.5170  177.2120  140.0460 C   0  0  0  0  0  0  0  0  0  0  0  0
  192.3930  177.4230  141.4520 N   0  0  0  0  0  2  0  0  0  0  0  0
  191.4600  176.6250  137.8340 C   0  0  0  0  0  2  0  0  0  0  0  0
  190.0670  176.6240  137.2400 C   0  0  0  0  0  1  0  0  0  0  0  0
  1 16  1  0  0  0  0
  2  8  1  0  0  0  0
  3  4  1  0  0  0  0
  4  7  1  0  0  0  0
  4  1  2  0  0  0  0
  5  8  2  0  0  0  0
  5 10  1  0  0  0  0
  7 15  2  0  0  0  0
  8 13  1  0  0  0  0
  9 12  1  0  0  0  0
  9  7  1  0  0  0  0
 10 14  1  0  0  0  0
 10  3  2  0  0  0  0
 11 19  1  0  0  0  0
 12 20  1  1  0  0  0
 12 17  1  0  0  0  0
 13  3  1  0  0  0  0
 14  9  2  0  0  0  0
 15 11  1  0  0  0  0
 15  6  1  0  0  0  0
 16  6  2  0  0  0  0
 17 11  2  0  0  0  0
 19 18  3  0  0  0  0
 21 20  1  0  0  0  0
 22 21  1  0  0  0  0
 23 25  2  0  0  0  0
 24 25  1  0  0  0  0
 25 26  1  0  0  0  0
 26 22  1  0  0  0  0
 27 24  1  0  0  0  0
 28 27  1  0  0  0  0
M  END
>  <MODEL>
8

>  <REMARK>
 VINA RESULT:      -8.9      2.451      3.480
  Name = 
  6 active torsions:
  status: ('A' for Active; 'I' for Inactive)
    1  A    between atoms: C_3  and  N_5
    2  A    between atoms: C_11  and  C_14
    3  A    between atoms: C_11  and  N_22
    4  A    between atoms: C_14  and  O_15
    5  A    between atoms: O_15  and  C_23
    6  A    between atoms: C_16  and  C_21
                            x       y       z     vdW  Elec       q    Type
                         _______ _______ _______ _____ _____    ______ ____

>  <TORSDO>
F 6

$$$$
=
 OpenBabel11032420153D

 28 31  0  0  1  0  0  0  0  0999 V2000
  187.4280  177.3700  146.4730 C   0  0  0  0  0  3  0  0  0  0  0  0
  192.3970  176.3590  148.3100 N   0  0  0  0  0  1  0  0  0  0  0  0
  189.8240  177.0980  146.0910 C   0  0  0  0  0  0  0  0  0  0  0  0
  188.5370  177.3620  145.6220 C   0  0  0  0  0  0  0  0  0  0  0  0
  192.0210  176.8230  145.9480 N   0  0  0  0  0  0  0  0  0  0  0  0
  186.0000  177.9410  144.6010 C   0  0  0  0  0  3  0  0  0  0  0  0
  188.3800  177.6340  144.2350 C   0  0  0  0  0  0  0  0  0  0  0  0
  191.5480  176.6670  147.2110 C   0  0  0  0  0  0  0  0  0  0  0  0
  189.5120  177.6150  143.3720 C   0  0  0  0  0  0  0  0  0  0  0  0
  190.9040  177.0970  145.2600 C   0  0  0  0  0  0  0  0  0  0  0  0
  186.9360  178.2860  142.3010 C   0  0  0  0  0  0  0  0  0  0  0  0
  189.3650  177.8330  141.8860 C   0  0  2  0  0  3  0  0  0  0  0  0
  190.2070  176.8260  147.3490 N   0  0  0  0  0  2  0  0  0  0  0  0
  190.7920  177.3460  143.8950 C   0  0  0  0  0  3  0  0  0  0  0  0
  187.1010  177.9360  143.7300 C   0  0  0  0  0  0  0  0  0  0  0  0
  186.1620  177.6540  145.9600 C   0  0  0  0  0  3  0  0  0  0  0  0
  187.9820  178.2630  141.4710 C   0  0  0  0  0  3  0  0  0  0  0  0
  184.6300  179.0230  141.3570 N   0  0  0  0  0  0  0  0  0  0  0  0
  185.6570  178.6940  141.7770 C   0  0  0  0  0  0  0  0  0  0  0  0
  189.7070  176.6640  141.2000 O   0  0  0  0  0  0  0  0  0  0  0  0
  190.7560  177.0340  140.3560 C   0  0  0  0  0  2  0  0  0  0  0  0
  190.3400  176.8270  138.9150 C   0  0  0  0  0  2  0  0  0  0  0  0
  190.3300  173.5860  137.2310 O   0  0  0  0  0  0  0  0  0  0  0  0
  188.7250  175.2710  137.0490 N   0  0  0  0  0  2  0  0  0  0  0  0
  189.9430  174.7350  137.5720 C   0  0  0  0  0  0  0  0  0  0  0  0
  190.7330  175.4970  138.4850 N   0  0  0  0  0  2  0  0  0  0  0  0
  187.8930  174.5280  136.1190 C   0  0  0  0  0  2  0  0  0  0  0  0
  186.8500  173.7460  136.8890 C   0  0  0  0  0  1  0  0  0  0  0  0
  3 13  1  0  0  0  0
  4  3  1  0  0  0  0
  4  1  2  0  0  0  0
  5  8  2  0  0  0  0
  6 16  2  0  0  0  0
  7  4  1  0  0  0  0
  8 13  1  0  0  0  0
  8  2  1  0  0  0  0
  9 14  2  0  0  0  0
  9  7  1  0  0  0  0
 10  5  1  0  0  0  0
 10  3  2  0  0  0  0
 11 15  1  0  0  0  0
 12 20  1  6  0  0  0
 12  9  1  0  0  0  0
 14 10  1  0  0  0  0
 15  7  2  0  0  0  0
 15  6  1  0  0  0  0
 16  1  1  0  0  0  0
 17 12  1  0  0  0  0
 17 11  2  0  0  0  0
 18 19  3  0  0  0  0
 19 11  1  0  0  0  0
 21 20  1  0  0  0  0
 22 21  1  0  0  0  0
 23 25  2  0  0  0  0
 24 25  1  0  0  0  0
 25 26  1  0  0  0  0
 26 22  1  0  0  0  0
 27 28  1  0  0  0  0
 27 24  1  0  0  0  0
M  END
>  <MODEL>
9

>  <REMARK>
 VINA RESULT:      -8.8      2.338      5.221
  Name = 
  6 active torsions:
  status: ('A' for Active; 'I' for Inactive)
    1  A    between atoms: C_3  and  N_5
    2  A    between atoms: C_11  and  C_14
    3  A    between atoms: C_11  and  N_22
    4  A    between atoms: C_14  and  O_15
    5  A    between atoms: O_15  and  C_23
    6  A    between atoms: C_16  and  C_21
                            x       y       z     vdW  Elec       q    Type
                         _______ _______ _______ _____ _____    ______ ____

>  <TORSDO>
F 6

$$$$
