=
 OpenBabel11042410333D

 67 73  0  0  1  0  0  0  0  0999 V2000
  187.5570  177.0650  137.1950 C   0  0  2  0  0  0  0  0  0  0  0  0
  189.0490  178.5570  135.9950 O   0  0  0  0  0  0  0  0  0  0  0  0
  188.9080  175.2200  137.0540 C   0  0  0  0  0  2  0  0  0  0  0  0
  188.8090  177.4450  136.4600 C   0  0  0  0  0  0  0  0  0  0  0  0
  189.6840  176.2840  136.2990 C   0  0  1  0  0  3  0  0  0  0  0  0
  187.8500  175.8130  137.7850 O   0  0  0  0  0  0  0  0  0  0  0  0
  185.1260  177.0470  136.7310 C   0  0  0  0  0  3  0  0  0  0  0  0
  186.5900  176.4900  134.8490 C   0  0  0  0  0  1  0  0  0  0  0  0
  186.3660  176.9150  136.2670 C   0  0  0  0  0  0  0  0  0  0  0  0
  183.9960  176.8590  135.9310 O   0  0  0  0  0  0  0  0  0  0  0  0
  182.8780  176.1740  136.4070 C   0  0  0  0  0  0  0  0  0  0  0  0
  181.9520  175.5790  135.5340 C   0  0  0  0  0  3  0  0  0  0  0  0
  180.8350  174.9070  136.0320 C   0  0  0  0  0  3  0  0  0  0  0  0
  180.6300  174.8260  137.4050 C   0  0  0  0  0  3  0  0  0  0  0  0
  182.6740  176.0720  137.7840 C   0  0  0  0  0  3  0  0  0  0  0  0
  181.5440  175.4170  138.2890 C   0  0  0  0  0  0  0  0  0  0  0  0
  181.3590  175.3460  139.6790 O   0  0  0  0  0  0  0  0  0  0  0  0
  180.0660  175.2770  140.2700 C   0  0  0  0  0  2  0  0  0  0  0  0
  179.5040  176.6750  140.5050 C   0  0  0  0  0  2  0  0  0  0  0  0
  180.4590  177.6650  140.2380 O   0  0  0  0  0  0  0  0  0  0  0  0
  179.7680  178.8680  140.4330 C   0  0  0  0  0  2  0  0  0  0  0  0
  179.9610  180.8980  139.0140 C   0  0  0  0  0  2  0  0  0  0  0  0
  180.6990  181.0090  137.6930 C   0  0  2  0  0  3  0  0  0  0  0  0
  179.4070  179.4860  139.0930 C   0  0  1  0  0  3  0  0  0  0  0  0
  180.2670  182.1420  136.9930 O   0  0  0  0  0  1  0  0  0  0  0  0
  181.4960  179.3520  136.1780 O   0  0  0  0  0  1  0  0  0  0  0  0
  180.0280  178.7110  137.9430 C   0  0  0  0  0  2  0  0  0  0  0  0
  180.3770  179.7590  136.9000 C   0  0  1  0  0  3  0  0  0  0  0  0
  191.0390  176.5170  136.9560 C   0  0  0  0  0  2  0  0  0  0  0  0
  191.6850  175.2410  137.2210 N   0  0  0  0  0  2  0  0  0  0  0  0
  193.7640  176.7240  137.7240 O   0  0  0  0  0  1  0  0  0  0  0  0
  193.9740  174.4850  136.9310 C   0  0  2  0  0  3  0  0  0  0  0  0
  192.7540  175.0980  136.2460 C   0  0  2  0  0  3  0  0  0  0  0  0
  193.9640  175.9610  136.5710 C   0  0  1  0  0  3  0  0  0  0  0  0
  194.8660  173.7530  135.9290 C   0  0  1  0  0  3  0  0  0  0  0  0
  196.1540  174.5110  135.7100 C   0  0  0  0  0  1  0  0  0  0  0  0
  197.6270  172.4020  136.7880 C   0  0  0  0  0  3  0  0  0  0  0  0
  194.8510  169.9540  136.5890 C   0  0  0  0  0  2  0  0  0  0  0  0
  196.2580  170.4050  136.8320 C   0  0  0  0  0  0  0  0  0  0  0  0
  196.3900  171.7660  136.6410 C   0  0  0  0  0  0  0  0  0  0  0  0
  198.5980  170.2560  137.3860 C   0  0  0  0  0  3  0  0  0  0  0  0
  193.0270  171.4090  135.8850 O   0  0  0  0  0  0  0  0  0  0  0  0
  195.1450  172.3660  136.3180 N   0  0  0  0  0  0  0  0  0  0  0  0
  198.7350  171.6370  137.1690 C   0  0  0  0  0  3  0  0  0  0  0  0
  194.2190  171.2830  136.2630 C   0  0  0  0  0  0  0  0  0  0  0  0
  197.3510  169.6280  137.2130 C   0  0  0  0  0  3  0  0  0  0  0  0
  187.2210  178.0400  138.3380 C   0  0  0  0  0  2  0  0  0  0  0  0
  188.6830  178.6260  139.2830 S   0  0  0  0  0  0  0  0  0  0  0  0
  188.2550  177.6280  140.7360 C   0  0  0  0  0  2  0  0  0  0  0  0
  187.6930  178.5180  141.8440 C   0  0  0  0  0  2  0  0  0  0  0  0
  185.6600  179.7580  141.3530 O   0  0  0  0  0  1  0  0  0  0  0  0
  186.1620  178.5520  141.8450 C   0  0  2  0  0  3  0  0  0  0  0  0
  185.5240  178.1390  143.1940 C   0  0  1  0  0  3  0  0  0  0  0  0
  186.4520  177.4320  143.9720 O   0  0  0  0  0  0  0  0  0  0  0  0
  186.5320  178.0810  145.2060 C   0  0  1  0  0  3  0  0  0  0  0  0
  185.6810  177.3120  146.1970 C   0  0  0  0  0  2  0  0  0  0  0  0
  187.1940  177.1850  146.2470 C   0  0  2  0  0  3  0  0  0  0  0  0
  189.0860  178.0170  147.7340 C   0  0  0  0  0  0  0  0  0  0  0  0
  189.3950  178.6510  148.7800 O   0  0  0  0  0  0  0  0  0  0  0  0
  187.7200  178.0320  147.3090 N   0  0  0  0  0  2  0  0  0  0  0  0
  190.0710  177.2760  147.0010 N   0  0  0  0  0  0  0  0  0  0  0  0
  191.0760  176.7030  147.5810 C   0  0  0  0  0  3  0  0  0  0  0  0
  191.7590  176.0710  145.2930 C   0  0  0  0  0  1  0  0  0  0  0  0
  192.0880  175.9750  146.7640 C   0  0  0  0  0  2  0  0  0  0  0  0
  185.0010  179.3330  143.9940 C   0  0  0  0  0  2  0  0  0  0  0  0
  182.6040  179.1290  142.8740 C   0  0  0  0  0  1  0  0  0  0  0  0
  183.3010  179.0250  144.5540 S   0  0  0  0  0  0  0  0  0  0  0  0
  1  6  1  0  0  0  0
  1 47  1  1  0  0  0
  2  4  2  0  0  0  0
  3  6  1  0  0  0  0
  4  1  1  0  0  0  0
  5  4  1  0  0  0  0
  5 29  1  1  0  0  0
  5  3  1  0  0  0  0
  8  9  1  0  0  0  0
  9  7  2  0  0  0  0
  9  1  1  0  0  0  0
 10 11  1  0  0  0  0
 10  7  1  0  0  0  0
 11 15  1  0  0  0  0
 12 13  1  0  0  0  0
 12 11  2  0  0  0  0
 13 14  2  0  0  0  0
 14 16  1  0  0  0  0
 15 16  2  0  0  0  0
 16 17  1  0  0  0  0
 17 18  1  0  0  0  0
 18 19  1  0  0  0  0
 20 21  1  0  0  0  0
 20 19  1  0  0  0  0
 22 24  1  0  0  0  0
 23 25  1  6  0  0  0
 23 22  1  0  0  0  0
 24 21  1  1  0  0  0
 27 24  1  0  0  0  0
 28 26  1  1  0  0  0
 28 23  1  0  0  0  0
 28 27  1  0  0  0  0
 29 30  1  0  0  0  0
 32 35  1  6  0  0  0
 33 34  1  0  0  0  0
 33 32  1  0  0  0  0
 33 30  1  1  0  0  0
 34 32  1  0  0  0  0
 34 31  1  1  0  0  0
 35 36  1  1  0  0  0
 35 43  1  0  0  0  0
 37 44  1  0  0  0  0
 38 39  1  0  0  0  0
 39 46  2  0  0  0  0
 40 37  2  0  0  0  0
 40 39  1  0  0  0  0
 42 45  2  0  0  0  0
 43 40  1  0  0  0  0
 44 41  2  0  0  0  0
 45 43  1  0  0  0  0
 45 38  1  0  0  0  0
 46 41  1  0  0  0  0
 47 48  1  0  0  0  0
 48 49  1  0  0  0  0
 49 50  1  0  0  0  0
 50 52  1  0  0  0  0
 52 51  1  1  0  0  0
 52 53  1  0  0  0  0
 53 54  1  0  0  0  0
 53 65  1  1  0  0  0
 55 54  1  6  0  0  0
 55 56  1  0  0  0  0
 55 57  1  0  0  0  0
 56 57  1  0  0  0  0
 57 60  1  1  0  0  0
 58 59  2  0  0  0  0
 60 58  1  0  0  0  0
 61 62  2  0  0  0  0
 61 58  1  0  0  0  0
 63 64  1  0  0  0  0
 64 62  1  0  0  0  0
 65 67  1  0  0  0  0
 66 67  1  0  0  0  0
M  END
>  <MODEL>
1

>  <REMARK>
 VINA RESULT:      -6.0      0.000      0.000
  Name = 
  27 active torsions:
  status: ('A' for Active; 'I' for Inactive)
    1  A    between atoms: N_1  and  C_20
    2  A    between atoms: C_2  and  C_42
    3  A    between atoms: C_2  and  S_61
    4  A    between atoms: O_3  and  C_19
    5  A    between atoms: O_3  and  C_42
    6  A    between atoms: C_6  and  C_22
    7  A    between atoms: C_6  and  C_60
    8  A    between atoms: C_7  and  O_48
    9  A    between atoms: O_11  and  C_37
   10  A    between atoms: O_11  and  C_67
   11  A    between atoms: C_14  and  O_48
   12  A    between atoms: C_15  and  S_21
   13  A    between atoms: C_15  and  C_50
   14  A    between atoms: C_17  and  C_67
   15  A    between atoms: S_21  and  C_22
   16  A    between atoms: N_26  and  C_49
   17  A    between atoms: N_26  and  C_55
   18  A    between atoms: N_28  and  C_53
   19  A    between atoms: O_32  and  C_63
   20  A    between atoms: O_32  and  C_64
   21  A    between atoms: N_35  and  C_47
   22  A    between atoms: C_37  and  C_63
   23  A    between atoms: C_39  and  C_47
   24  A    between atoms: C_40  and  C_42
   25  A    between atoms: C_40  and  C_50
   26  A    between atoms: C_45  and  C_66
   27  A    between atoms: C_49  and  C_54
                            x       y       z     vdW  Elec       q    Type
                         _______ _______ _______ _____ _____    ______ ____

>  <TORSDO>
F 27

$$$$
=
 OpenBabel11042410333D

 67 73  0  0  1  0  0  0  0  0999 V2000
  189.5470  177.1040  138.3370 C   0  0  2  0  0  0  0  0  0  0  0  0
  187.8960  175.4540  137.6710 O   0  0  0  0  0  0  0  0  0  0  0  0
  189.0330  178.6220  136.7000 C   0  0  0  0  0  2  0  0  0  0  0  0
  188.4270  176.5510  137.5070 C   0  0  0  0  0  0  0  0  0  0  0  0
  188.0960  177.4630  136.4120 C   0  0  1  0  0  3  0  0  0  0  0  0
  189.6200  178.4720  137.9800 O   0  0  0  0  0  0  0  0  0  0  0  0
  190.9680  175.5150  137.0810 C   0  0  0  0  0  3  0  0  0  0  0  0
  192.0570  176.7290  138.9060 C   0  0  0  0  0  1  0  0  0  0  0  0
  190.8750  176.4360  138.0350 C   0  0  0  0  0  0  0  0  0  0  0  0
  192.1540  174.8290  136.8050 O   0  0  0  0  0  0  0  0  0  0  0  0
  192.1400  173.5770  136.1900 C   0  0  0  0  0  0  0  0  0  0  0  0
  191.1870  173.2460  135.2130 C   0  0  0  0  0  3  0  0  0  0  0  0
  191.1860  171.9830  134.6180 C   0  0  0  0  0  3  0  0  0  0  0  0
  192.1350  171.0400  134.9950 C   0  0  0  0  0  3  0  0  0  0  0  0
  193.1010  172.6290  136.5490 C   0  0  0  0  0  3  0  0  0  0  0  0
  193.0920  171.3540  135.9710 C   0  0  0  0  0  0  0  0  0  0  0  0
  194.0600  170.4170  136.3650 O   0  0  0  0  0  0  0  0  0  0  0  0
  195.4540  170.7020  136.3220 C   0  0  0  0  0  2  0  0  0  0  0  0
  195.8250  171.3910  135.0120 C   0  0  0  0  0  2  0  0  0  0  0  0
  197.1150  171.0410  134.5950 O   0  0  0  0  0  0  0  0  0  0  0  0
  197.8670  172.2060  134.7970 C   0  0  0  0  0  2  0  0  0  0  0  0
  198.1120  173.4520  136.9320 C   0  0  0  0  0  2  0  0  0  0  0  0
  198.0690  174.9580  137.1080 C   0  0  2  0  0  3  0  0  0  0  0  0
  197.1660  173.1130  135.7940 C   0  0  1  0  0  3  0  0  0  0  0  0
  197.8350  175.2810  138.4500 O   0  0  0  0  0  1  0  0  0  0  0  0
  197.2770  176.6990  135.6870 O   0  0  0  0  0  1  0  0  0  0  0  0
  196.7670  174.4330  135.1540 C   0  0  0  0  0  2  0  0  0  0  0  0
  196.9320  175.4720  136.2490 C   0  0  1  0  0  3  0  0  0  0  0  0
  186.6450  177.9220  136.4950 C   0  0  0  0  0  2  0  0  0  0  0  0
  185.8100  176.8320  136.9730 N   0  0  0  0  0  2  0  0  0  0  0  0
  185.1650  175.3920  134.9040 O   0  0  0  0  0  1  0  0  0  0  0  0
  183.6220  175.8230  136.6700 C   0  0  2  0  0  3  0  0  0  0  0  0
  184.4640  177.0840  136.4840 C   0  0  2  0  0  3  0  0  0  0  0  0
  184.1050  176.2180  135.2850 C   0  0  1  0  0  3  0  0  0  0  0  0
  182.1350  176.1570  136.7730 C   0  0  1  0  0  3  0  0  0  0  0  0
  181.5850  176.5590  135.4250 C   0  0  0  0  0  1  0  0  0  0  0  0
  181.6800  173.1900  135.6870 C   0  0  0  0  0  3  0  0  0  0  0  0
  179.6950  173.9050  138.7340 C   0  0  0  0  0  2  0  0  0  0  0  0
  180.1970  173.0700  137.5970 C   0  0  0  0  0  0  0  0  0  0  0  0
  181.1010  173.7680  136.8210 C   0  0  0  0  0  0  0  0  0  0  0  0
  180.4510  171.1490  136.1650 C   0  0  0  0  0  3  0  0  0  0  0  0
  180.3310  176.2230  139.1430 O   0  0  0  0  0  0  0  0  0  0  0  0
  181.3420  175.0650  137.3470 N   0  0  0  0  0  0  0  0  0  0  0  0
  181.3530  171.8680  135.3640 C   0  0  0  0  0  3  0  0  0  0  0  0
  180.4850  175.1640  138.4830 C   0  0  0  0  0  0  0  0  0  0  0  0
  179.8610  171.7530  137.2910 C   0  0  0  0  0  3  0  0  0  0  0  0
  189.2530  177.0440  139.8470 C   0  0  0  0  0  2  0  0  0  0  0  0
  187.9410  178.2010  140.4060 S   0  0  0  0  0  0  0  0  0  0  0  0
  188.9120  178.7490  141.8380 C   0  0  0  0  0  2  0  0  0  0  0  0
  189.2260  177.5630  142.7500 C   0  0  0  0  0  2  0  0  0  0  0  0
  190.8860  177.5900  144.5270 O   0  0  0  0  0  1  0  0  0  0  0  0
  189.6020  178.0030  144.1690 C   0  0  2  0  0  3  0  0  0  0  0  0
  188.5360  177.6590  145.2370 C   0  0  1  0  0  3  0  0  0  0  0  0
  187.4850  176.9340  144.6570 O   0  0  0  0  0  0  0  0  0  0  0  0
  186.2990  177.4140  145.2160 C   0  0  1  0  0  3  0  0  0  0  0  0
  186.3790  178.9270  145.2630 C   0  0  0  0  0  2  0  0  0  0  0  0
  185.5230  178.2520  144.2050 C   0  0  2  0  0  3  0  0  0  0  0  0
  183.0540  178.6760  143.7530 C   0  0  0  0  0  0  0  0  0  0  0  0
  181.9110  178.8460  144.2590 O   0  0  0  0  0  0  0  0  0  0  0  0
  184.1260  178.2830  144.6160 N   0  0  0  0  0  2  0  0  0  0  0  0
  183.2840  178.8970  142.3550 N   0  0  0  0  0  0  0  0  0  0  0  0
  182.4200  178.5610  141.4530 C   0  0  0  0  0  3  0  0  0  0  0  0
  184.1980  178.5720  139.7390 C   0  0  0  0  0  1  0  0  0  0  0  0
  182.7270  178.7820  140.0110 C   0  0  0  0  0  2  0  0  0  0  0  0
  189.1090  176.8640  146.4120 C   0  0  0  0  0  2  0  0  0  0  0  0
  187.8650  177.5960  148.6380 C   0  0  0  0  0  1  0  0  0  0  0  0
  189.4480  177.9650  147.8170 S   0  0  0  0  0  0  0  0  0  0  0  0
  1 47  1  1  0  0  0
  3  6  1  0  0  0  0
  4  2  2  0  0  0  0
  4  1  1  0  0  0  0
  5 29  1  1  0  0  0
  5  3  1  0  0  0  0
  5  4  1  0  0  0  0
  6  1  1  0  0  0  0
  7  9  2  0  0  0  0
  9  1  1  0  0  0  0
  9  8  1  0  0  0  0
 10  7  1  0  0  0  0
 11 15  1  0  0  0  0
 11 10  1  0  0  0  0
 12 11  2  0  0  0  0
 13 14  2  0  0  0  0
 13 12  1  0  0  0  0
 14 16  1  0  0  0  0
 16 17  1  0  0  0  0
 16 15  2  0  0  0  0
 18 17  1  0  0  0  0
 19 18  1  0  0  0  0
 20 21  1  0  0  0  0
 20 19  1  0  0  0  0
 22 23  1  0  0  0  0
 23 25  1  1  0  0  0
 24 21  1  6  0  0  0
 24 22  1  0  0  0  0
 27 24  1  0  0  0  0
 27 28  1  0  0  0  0
 28 26  1  6  0  0  0
 28 23  1  0  0  0  0
 29 30  1  0  0  0  0
 32 35  1  6  0  0  0
 33 32  1  0  0  0  0
 33 30  1  1  0  0  0
 34 31  1  1  0  0  0
 34 33  1  0  0  0  0
 34 32  1  0  0  0  0
 35 36  1  6  0  0  0
 35 43  1  0  0  0  0
 37 40  1  0  0  0  0
 39 38  1  0  0  0  0
 40 43  1  0  0  0  0
 40 39  2  0  0  0  0
 41 46  2  0  0  0  0
 43 45  1  0  0  0  0
 44 37  2  0  0  0  0
 44 41  1  0  0  0  0
 45 38  1  0  0  0  0
 45 42  2  0  0  0  0
 46 39  1  0  0  0  0
 47 48  1  0  0  0  0
 48 49  1  0  0  0  0
 49 50  1  0  0  0  0
 50 52  1  0  0  0  0
 52 51  1  1  0  0  0
 52 53  1  0  0  0  0
 53 65  1  1  0  0  0
 54 53  1  0  0  0  0
 55 54  1  6  0  0  0
 55 56  1  0  0  0  0
 57 60  1  1  0  0  0
 57 55  1  0  0  0  0
 57 56  1  0  0  0  0
 58 59  2  0  0  0  0
 58 60  1  0  0  0  0
 61 58  1  0  0  0  0
 62 61  2  0  0  0  0
 63 64  1  0  0  0  0
 64 62  1  0  0  0  0
 65 67  1  0  0  0  0
 67 66  1  0  0  0  0
M  END
>  <MODEL>
2

>  <REMARK>
 VINA RESULT:      -5.8      2.939     11.590
  Name = 
  27 active torsions:
  status: ('A' for Active; 'I' for Inactive)
    1  A    between atoms: N_1  and  C_20
    2  A    between atoms: C_2  and  C_42
    3  A    between atoms: C_2  and  S_61
    4  A    between atoms: O_3  and  C_19
    5  A    between atoms: O_3  and  C_42
    6  A    between atoms: C_6  and  C_22
    7  A    between atoms: C_6  and  C_60
    8  A    between atoms: C_7  and  O_48
    9  A    between atoms: O_11  and  C_37
   10  A    between atoms: O_11  and  C_67
   11  A    between atoms: C_14  and  O_48
   12  A    between atoms: C_15  and  S_21
   13  A    between atoms: C_15  and  C_50
   14  A    between atoms: C_17  and  C_67
   15  A    between atoms: S_21  and  C_22
   16  A    between atoms: N_26  and  C_49
   17  A    between atoms: N_26  and  C_55
   18  A    between atoms: N_28  and  C_53
   19  A    between atoms: O_32  and  C_63
   20  A    between atoms: O_32  and  C_64
   21  A    between atoms: N_35  and  C_47
   22  A    between atoms: C_37  and  C_63
   23  A    between atoms: C_39  and  C_47
   24  A    between atoms: C_40  and  C_42
   25  A    between atoms: C_40  and  C_50
   26  A    between atoms: C_45  and  C_66
   27  A    between atoms: C_49  and  C_54
                            x       y       z     vdW  Elec       q    Type
                         _______ _______ _______ _____ _____    ______ ____

>  <TORSDO>
F 27

$$$$
=
 OpenBabel11042410333D

 67 73  0  0  1  0  0  0  0  0999 V2000
  187.6280  177.5900  138.2240 C   0  0  2  0  0  0  0  0  0  0  0  0
  189.3320  179.3060  138.0210 O   0  0  0  0  0  0  0  0  0  0  0  0
  189.0150  175.8270  137.7550 C   0  0  0  0  0  2  0  0  0  0  0  0
  189.0120  178.1200  137.9890 C   0  0  0  0  0  0  0  0  0  0  0  0
  189.9270  177.0350  137.6330 C   0  0  1  0  0  3  0  0  0  0  0  0
  187.7980  176.1930  138.3800 O   0  0  0  0  0  0  0  0  0  0  0  0
  185.4400  177.4310  137.0790 C   0  0  0  0  0  3  0  0  0  0  0  0
  187.2510  178.4830  135.8100 C   0  0  0  0  0  1  0  0  0  0  0  0
  186.7010  177.8540  137.0530 C   0  0  0  0  0  0  0  0  0  0  0  0
  184.5650  177.5970  136.0020 O   0  0  0  0  0  0  0  0  0  0  0  0
  183.3800  176.8660  135.9130 C   0  0  0  0  0  0  0  0  0  0  0  0
  182.6300  176.8200  134.7270 C   0  0  0  0  0  3  0  0  0  0  0  0
  181.4420  176.0900  134.6640 C   0  0  0  0  0  3  0  0  0  0  0  0
  180.9910  175.4030  135.7840 C   0  0  0  0  0  3  0  0  0  0  0  0
  182.9290  176.1580  137.0290 C   0  0  0  0  0  3  0  0  0  0  0  0
  181.7270  175.4420  136.9780 C   0  0  0  0  0  0  0  0  0  0  0  0
  181.2910  174.7540  138.1210 O   0  0  0  0  0  0  0  0  0  0  0  0
  180.0580  175.0560  138.7650 C   0  0  0  0  0  2  0  0  0  0  0  0
  180.0140  176.5210  139.1890 C   0  0  0  0  0  2  0  0  0  0  0  0
  180.8880  176.7740  140.2540 O   0  0  0  0  0  0  0  0  0  0  0  0
  180.3170  177.8720  140.9110 C   0  0  0  0  0  2  0  0  0  0  0  0
  182.5330  178.7880  140.2630 C   0  0  0  0  0  2  0  0  0  0  0  0
  182.8770  179.4810  138.9580 C   0  0  2  0  0  3  0  0  0  0  0  0
  181.0900  179.1380  140.5820 C   0  0  1  0  0  3  0  0  0  0  0  0
  184.0650  180.2090  139.0960 O   0  0  0  0  0  1  0  0  0  0  0  0
  181.5050  180.4480  137.2670 O   0  0  0  0  0  1  0  0  0  0  0  0
  180.5270  179.8240  139.3490 C   0  0  0  0  0  2  0  0  0  0  0  0
  181.7320  180.4210  138.6410 C   0  0  1  0  0  3  0  0  0  0  0  0
  191.0760  176.9330  138.6290 C   0  0  0  0  0  2  0  0  0  0  0  0
  191.6730  175.6080  138.5590 N   0  0  0  0  0  2  0  0  0  0  0  0
  193.9610  176.6780  139.1840 O   0  0  0  0  0  1  0  0  0  0  0  0
  193.8110  174.7340  137.8120 C   0  0  2  0  0  3  0  0  0  0  0  0
  192.6250  175.6310  137.4610 C   0  0  2  0  0  3  0  0  0  0  0  0
  193.9600  176.2440  137.8560 C   0  0  1  0  0  3  0  0  0  0  0  0
  194.5100  174.2180  136.5550 C   0  0  1  0  0  3  0  0  0  0  0  0
  195.9380  174.7080  136.5020 C   0  0  0  0  0  1  0  0  0  0  0  0
  192.3250  172.3690  135.1430 C   0  0  0  0  0  3  0  0  0  0  0  0
  194.9570  170.4000  136.8550 C   0  0  0  0  0  2  0  0  0  0  0  0
  193.7150  170.6030  136.0440 C   0  0  0  0  0  0  0  0  0  0  0  0
  193.4540  171.9450  135.8520 C   0  0  0  0  0  0  0  0  0  0  0  0
  191.7500  170.0380  134.7700 C   0  0  0  0  0  3  0  0  0  0  0  0
  196.3220  172.1950  137.7800 O   0  0  0  0  0  0  0  0  0  0  0  0
  194.4630  172.7570  136.4320 N   0  0  0  0  0  0  0  0  0  0  0  0
  191.4730  171.4030  134.5950 C   0  0  0  0  0  3  0  0  0  0  0  0
  195.3590  171.8390  137.0560 C   0  0  0  0  0  0  0  0  0  0  0  0
  192.8780  169.6280  135.5050 C   0  0  0  0  0  3  0  0  0  0  0  0
  187.0030  178.1200  139.5270 C   0  0  0  0  0  2  0  0  0  0  0  0
  188.2200  178.7780  140.7350 S   0  0  0  0  0  0  0  0  0  0  0  0
  188.4970  177.1470  141.4780 C   0  0  0  0  0  2  0  0  0  0  0  0
  188.7680  177.2860  142.9760 C   0  0  0  0  0  2  0  0  0  0  0  0
  191.0790  177.6150  142.2930 O   0  0  0  0  0  1  0  0  0  0  0  0
  190.1280  177.9290  143.2660 C   0  0  2  0  0  3  0  0  0  0  0  0
  190.6400  177.6960  144.7080 C   0  0  1  0  0  3  0  0  0  0  0  0
  190.0190  178.5900  145.5920 O   0  0  0  0  0  0  0  0  0  0  0  0
  189.1060  177.8520  146.3480 C   0  0  1  0  0  3  0  0  0  0  0  0
  189.5100  177.9550  147.8050 C   0  0  0  0  0  2  0  0  0  0  0  0
  188.3280  178.7590  147.2940 C   0  0  2  0  0  3  0  0  0  0  0  0
  185.9250  178.0610  146.8210 C   0  0  0  0  0  0  0  0  0  0  0  0
  184.8500  177.6110  147.3050 O   0  0  0  0  0  0  0  0  0  0  0  0
  187.0870  178.0850  147.6550 N   0  0  0  0  0  2  0  0  0  0  0  0
  185.9780  178.5630  145.4780 N   0  0  0  0  0  0  0  0  0  0  0  0
  184.9480  179.0860  144.8960 C   0  0  0  0  0  3  0  0  0  0  0  0
  185.0210  178.3920  142.5270 C   0  0  0  0  0  1  0  0  0  0  0  0
  185.0530  179.5580  143.4870 C   0  0  0  0  0  2  0  0  0  0  0  0
  190.4110  176.2640  145.1950 C   0  0  0  0  0  2  0  0  0  0  0  0
  192.0240  175.7540  147.2390 C   0  0  0  0  0  1  0  0  0  0  0  0
  192.0000  175.4200  145.4490 S   0  0  0  0  0  0  0  0  0  0  0  0
  1  6  1  0  0  0  0
  1 47  1  1  0  0  0
  3  6  1  0  0  0  0
  4  2  2  0  0  0  0
  4  1  1  0  0  0  0
  5  3  1  0  0  0  0
  5  4  1  0  0  0  0
  5 29  1  1  0  0  0
  8  9  1  0  0  0  0
  9  7  2  0  0  0  0
  9  1  1  0  0  0  0
 10  7  1  0  0  0  0
 11 10  1  0  0  0  0
 11 15  1  0  0  0  0
 12 11  2  0  0  0  0
 13 12  1  0  0  0  0
 13 14  2  0  0  0  0
 14 16  1  0  0  0  0
 16 15  2  0  0  0  0
 16 17  1  0  0  0  0
 17 18  1  0  0  0  0
 18 19  1  0  0  0  0
 19 20  1  0  0  0  0
 20 21  1  0  0  0  0
 22 24  1  0  0  0  0
 23 25  1  1  0  0  0
 23 22  1  0  0  0  0
 24 21  1  6  0  0  0
 27 24  1  0  0  0  0
 28 26  1  6  0  0  0
 28 23  1  0  0  0  0
 28 27  1  0  0  0  0
 30 29  1  0  0  0  0
 32 35  1  6  0  0  0
 32 34  1  0  0  0  0
 33 32  1  0  0  0  0
 33 34  1  0  0  0  0
 33 30  1  1  0  0  0
 34 31  1  1  0  0  0
 35 36  1  1  0  0  0
 37 40  1  0  0  0  0
 38 45  1  0  0  0  0
 39 38  1  0  0  0  0
 40 39  2  0  0  0  0
 40 43  1  0  0  0  0
 41 46  2  0  0  0  0
 43 35  1  0  0  0  0
 43 45  1  0  0  0  0
 44 41  1  0  0  0  0
 44 37  2  0  0  0  0
 45 42  2  0  0  0  0
 46 39  1  0  0  0  0
 47 48  1  0  0  0  0
 48 49  1  0  0  0  0
 49 50  1  0  0  0  0
 50 52  1  0  0  0  0
 52 51  1  6  0  0  0
 52 53  1  0  0  0  0
 53 65  1  1  0  0  0
 53 54  1  0  0  0  0
 55 54  1  6  0  0  0
 55 57  1  0  0  0  0
 55 56  1  0  0  0  0
 57 60  1  1  0  0  0
 57 56  1  0  0  0  0
 58 59  2  0  0  0  0
 58 60  1  0  0  0  0
 61 58  1  0  0  0  0
 62 61  2  0  0  0  0
 63 64  1  0  0  0  0
 64 62  1  0  0  0  0
 65 67  1  0  0  0  0
 67 66  1  0  0  0  0
M  END
>  <MODEL>
3

>  <REMARK>
 VINA RESULT:      -5.8      2.021      3.750
  Name = 
  27 active torsions:
  status: ('A' for Active; 'I' for Inactive)
    1  A    between atoms: N_1  and  C_20
    2  A    between atoms: C_2  and  C_42
    3  A    between atoms: C_2  and  S_61
    4  A    between atoms: O_3  and  C_19
    5  A    between atoms: O_3  and  C_42
    6  A    between atoms: C_6  and  C_22
    7  A    between atoms: C_6  and  C_60
    8  A    between atoms: C_7  and  O_48
    9  A    between atoms: O_11  and  C_37
   10  A    between atoms: O_11  and  C_67
   11  A    between atoms: C_14  and  O_48
   12  A    between atoms: C_15  and  S_21
   13  A    between atoms: C_15  and  C_50
   14  A    between atoms: C_17  and  C_67
   15  A    between atoms: S_21  and  C_22
   16  A    between atoms: N_26  and  C_49
   17  A    between atoms: N_26  and  C_55
   18  A    between atoms: N_28  and  C_53
   19  A    between atoms: O_32  and  C_63
   20  A    between atoms: O_32  and  C_64
   21  A    between atoms: N_35  and  C_47
   22  A    between atoms: C_37  and  C_63
   23  A    between atoms: C_39  and  C_47
   24  A    between atoms: C_40  and  C_42
   25  A    between atoms: C_40  and  C_50
   26  A    between atoms: C_45  and  C_66
   27  A    between atoms: C_49  and  C_54
                            x       y       z     vdW  Elec       q    Type
                         _______ _______ _______ _____ _____    ______ ____

>  <TORSDO>
F 27

$$$$
=
 OpenBabel11042410333D

 67 73  0  0  1  0  0  0  0  0999 V2000
  184.5340  178.3570  139.6820 C   0  0  2  0  0  0  0  0  0  0  0  0
  183.8840  180.6250  139.1140 O   0  0  0  0  0  0  0  0  0  0  0  0
  182.4050  177.5140  139.7500 C   0  0  0  0  0  2  0  0  0  0  0  0
  183.5730  179.4600  139.3540 C   0  0  0  0  0  0  0  0  0  0  0  0
  182.1920  178.9840  139.4350 C   0  0  1  0  0  3  0  0  0  0  0  0
  183.7690  177.1700  139.5850 O   0  0  0  0  0  0  0  0  0  0  0  0
  186.3480  178.1140  141.3480 C   0  0  0  0  0  3  0  0  0  0  0  0
  184.1890  178.8880  142.2050 C   0  0  0  0  0  1  0  0  0  0  0  0
  185.0960  178.4770  141.0860 C   0  0  0  0  0  0  0  0  0  0  0  0
  186.8920  178.1490  142.6340 O   0  0  0  0  0  0  0  0  0  0  0  0
  188.2710  178.0900  142.8400 C   0  0  0  0  0  0  0  0  0  0  0  0
  189.0710  179.2430  142.8060 C   0  0  0  0  0  3  0  0  0  0  0  0
  190.4500  179.1580  143.0040 C   0  0  0  0  0  3  0  0  0  0  0  0
  191.0420  177.9220  143.2350 C   0  0  0  0  0  3  0  0  0  0  0  0
  188.8710  176.8540  143.0900 C   0  0  0  0  0  3  0  0  0  0  0  0
  190.2570  176.7600  143.2690 C   0  0  0  0  0  0  0  0  0  0  0  0
  190.8330  175.5020  143.5030 O   0  0  0  0  0  0  0  0  0  0  0  0
  192.1250  175.3540  144.0810 C   0  0  0  0  0  2  0  0  0  0  0  0
  192.0740  174.4190  145.2840 C   0  0  0  0  0  2  0  0  0  0  0  0
  192.4880  175.0650  146.4560 O   0  0  0  0  0  0  0  0  0  0  0  0
  191.8750  176.3230  146.3870 C   0  0  0  0  0  2  0  0  0  0  0  0
  190.6410  177.6030  148.1220 C   0  0  0  0  0  2  0  0  0  0  0  0
  189.2780  178.2500  147.9670 C   0  0  2  0  0  3  0  0  0  0  0  0
  190.6350  176.3500  147.2650 C   0  0  1  0  0  3  0  0  0  0  0  0
  188.7270  178.5220  149.2260 O   0  0  0  0  0  1  0  0  0  0  0  0
  187.5500  177.9420  146.3560 O   0  0  0  0  0  1  0  0  0  0  0  0
  189.3670  176.4020  146.4290 C   0  0  0  0  0  2  0  0  0  0  0  0
  188.4010  177.2630  147.2240 C   0  0  1  0  0  3  0  0  0  0  0  0
  181.4740  179.1410  138.1000 C   0  0  0  0  0  2  0  0  0  0  0  0
  182.1670  178.3780  137.0740 N   0  0  0  0  0  2  0  0  0  0  0  0
  182.6090  177.7280  134.5940 O   0  0  0  0  0  1  0  0  0  0  0  0
  181.9470  176.1160  136.2210 C   0  0  2  0  0  3  0  0  0  0  0  0
  181.2140  177.4170  136.5450 C   0  0  2  0  0  3  0  0  0  0  0  0
  181.5040  177.0400  135.1000 C   0  0  1  0  0  3  0  0  0  0  0  0
  180.9980  174.9190  136.2590 C   0  0  1  0  0  3  0  0  0  0  0  0
  180.1530  174.8680  135.0080 C   0  0  0  0  0  1  0  0  0  0  0  0
  183.9200  174.0320  135.3290 C   0  0  0  0  0  3  0  0  0  0  0  0
  182.0540  171.2770  136.9610 C   0  0  0  0  0  2  0  0  0  0  0  0
  183.2250  171.9180  136.2820 C   0  0  0  0  0  0  0  0  0  0  0  0
  182.9730  173.2430  135.9900 C   0  0  0  0  0  0  0  0  0  0  0  0
  185.4210  172.1200  135.3120 C   0  0  0  0  0  3  0  0  0  0  0  0
  179.9430  172.3960  137.4420 O   0  0  0  0  0  0  0  0  0  0  0  0
  181.6950  173.6430  136.4610 N   0  0  0  0  0  0  0  0  0  0  0  0
  185.1540  173.4620  134.9950 C   0  0  0  0  0  3  0  0  0  0  0  0
  181.1270  172.4640  137.0260 C   0  0  0  0  0  0  0  0  0  0  0  0
  184.4490  171.3350  135.9580 C   0  0  0  0  0  3  0  0  0  0  0  0
  185.6790  178.2440  138.6590 C   0  0  0  0  0  2  0  0  0  0  0  0
  185.2800  177.2150  137.1910 S   0  0  0  0  0  0  0  0  0  0  0  0
  186.9440  177.4080  136.4950 C   0  0  0  0  0  2  0  0  0  0  0  0
  187.7000  176.0810  136.5530 C   0  0  0  0  0  2  0  0  0  0  0  0
  189.2170  175.5640  134.7230 O   0  0  0  0  0  1  0  0  0  0  0  0
  189.1120  176.1880  135.9680 C   0  0  2  0  0  3  0  0  0  0  0  0
  190.2340  175.7690  136.9490 C   0  0  1  0  0  3  0  0  0  0  0  0
  191.3150  176.6570  136.8570 O   0  0  0  0  0  0  0  0  0  0  0  0
  192.3570  175.9710  136.2290 C   0  0  1  0  0  3  0  0  0  0  0  0
  193.6580  176.6550  136.5960 C   0  0  0  0  0  2  0  0  0  0  0  0
  193.2870  175.3390  137.2570 C   0  0  2  0  0  3  0  0  0  0  0  0
  195.3900  173.9660  136.8410 C   0  0  0  0  0  0  0  0  0  0  0  0
  195.9600  173.1210  136.0970 O   0  0  0  0  0  0  0  0  0  0  0  0
  194.0070  174.2490  136.6120 N   0  0  0  0  0  2  0  0  0  0  0  0
  196.1150  174.6480  137.8740 N   0  0  0  0  0  0  0  0  0  0  0  0
  196.8990  174.0240  138.6920 C   0  0  0  0  0  3  0  0  0  0  0  0
  196.6190  175.5930  140.5800 C   0  0  0  0  0  1  0  0  0  0  0  0
  197.6000  174.7800  139.7690 C   0  0  0  0  0  2  0  0  0  0  0  0
  189.7580  175.7030  138.4010 C   0  0  0  0  0  2  0  0  0  0  0  0
  189.3820  178.1910  139.2440 C   0  0  0  0  0  1  0  0  0  0  0  0
  190.6610  176.9060  139.4190 S   0  0  0  0  0  0  0  0  0  0  0  0
  1 47  1  6  0  0  0
  1  9  1  0  0  0  0
  2  4  2  0  0  0  0
  4  5  1  0  0  0  0
  4  1  1  0  0  0  0
  5 29  1  6  0  0  0
  5  3  1  0  0  0  0
  6  1  1  0  0  0  0
  6  3  1  0  0  0  0
  7 10  1  0  0  0  0
  9  7  2  0  0  0  0
  9  8  1  0  0  0  0
 10 11  1  0  0  0  0
 11 15  1  0  0  0  0
 12 11  2  0  0  0  0
 12 13  1  0  0  0  0
 13 14  2  0  0  0  0
 14 16  1  0  0  0  0
 15 16  2  0  0  0  0
 16 17  1  0  0  0  0
 17 18  1  0  0  0  0
 18 19  1  0  0  0  0
 19 20  1  0  0  0  0
 21 20  1  0  0  0  0
 23 22  1  0  0  0  0
 23 25  1  1  0  0  0
 24 21  1  6  0  0  0
 24 22  1  0  0  0  0
 27 28  1  0  0  0  0
 27 24  1  0  0  0  0
 28 26  1  6  0  0  0
 28 23  1  0  0  0  0
 30 29  1  0  0  0  0
 32 35  1  6  0  0  0
 32 33  1  0  0  0  0
 33 30  1  1  0  0  0
 34 31  1  1  0  0  0
 34 32  1  0  0  0  0
 34 33  1  0  0  0  0
 35 36  1  6  0  0  0
 35 43  1  0  0  0  0
 37 40  1  0  0  0  0
 38 45  1  0  0  0  0
 39 38  1  0  0  0  0
 40 39  2  0  0  0  0
 40 43  1  0  0  0  0
 41 46  2  0  0  0  0
 43 45  1  0  0  0  0
 44 41  1  0  0  0  0
 44 37  2  0  0  0  0
 45 42  2  0  0  0  0
 46 39  1  0  0  0  0
 48 47  1  0  0  0  0
 49 50  1  0  0  0  0
 49 48  1  0  0  0  0
 52 51  1  6  0  0  0
 52 50  1  0  0  0  0
 52 53  1  0  0  0  0
 53 65  1  1  0  0  0
 54 53  1  0  0  0  0
 55 56  1  0  0  0  0
 55 54  1  1  0  0  0
 55 57  1  0  0  0  0
 56 57  1  0  0  0  0
 57 60  1  6  0  0  0
 58 61  1  0  0  0  0
 59 58  2  0  0  0  0
 60 58  1  0  0  0  0
 61 62  2  0  0  0  0
 62 64  1  0  0  0  0
 64 63  1  0  0  0  0
 65 67  1  0  0  0  0
 66 67  1  0  0  0  0
M  END
>  <MODEL>
4

>  <REMARK>
 VINA RESULT:      -5.4      3.151     11.032
  Name = 
  27 active torsions:
  status: ('A' for Active; 'I' for Inactive)
    1  A    between atoms: N_1  and  C_20
    2  A    between atoms: C_2  and  C_42
    3  A    between atoms: C_2  and  S_61
    4  A    between atoms: O_3  and  C_19
    5  A    between atoms: O_3  and  C_42
    6  A    between atoms: C_6  and  C_22
    7  A    between atoms: C_6  and  C_60
    8  A    between atoms: C_7  and  O_48
    9  A    between atoms: O_11  and  C_37
   10  A    between atoms: O_11  and  C_67
   11  A    between atoms: C_14  and  O_48
   12  A    between atoms: C_15  and  S_21
   13  A    between atoms: C_15  and  C_50
   14  A    between atoms: C_17  and  C_67
   15  A    between atoms: S_21  and  C_22
   16  A    between atoms: N_26  and  C_49
   17  A    between atoms: N_26  and  C_55
   18  A    between atoms: N_28  and  C_53
   19  A    between atoms: O_32  and  C_63
   20  A    between atoms: O_32  and  C_64
   21  A    between atoms: N_35  and  C_47
   22  A    between atoms: C_37  and  C_63
   23  A    between atoms: C_39  and  C_47
   24  A    between atoms: C_40  and  C_42
   25  A    between atoms: C_40  and  C_50
   26  A    between atoms: C_45  and  C_66
   27  A    between atoms: C_49  and  C_54
                            x       y       z     vdW  Elec       q    Type
                         _______ _______ _______ _____ _____    ______ ____

>  <TORSDO>
F 27

$$$$
=
 OpenBabel11042410333D

 67 73  0  0  1  0  0  0  0  0999 V2000
  187.8430  177.0360  137.2270 C   0  0  2  0  0  0  0  0  0  0  0  0
  188.2080  174.6950  137.7540 O   0  0  0  0  0  0  0  0  0  0  0  0
  189.6090  177.2280  135.7800 C   0  0  0  0  0  2  0  0  0  0  0  0
  188.5310  175.7060  137.1340 C   0  0  0  0  0  0  0  0  0  0  0  0
  189.7010  175.7900  136.2600 C   0  0  1  0  0  3  0  0  0  0  0  0
  188.3600  177.7860  136.1440 O   0  0  0  0  0  0  0  0  0  0  0  0
  187.8980  177.1770  139.6970 C   0  0  0  0  0  3  0  0  0  0  0  0
  188.6190  179.1770  138.4830 C   0  0  0  0  0  1  0  0  0  0  0  0
  188.1490  177.7560  138.5270 C   0  0  0  0  0  0  0  0  0  0  0  0
  188.1060  177.8210  140.9200 O   0  0  0  0  0  0  0  0  0  0  0  0
  189.2900  177.6480  141.6370 C   0  0  0  0  0  0  0  0  0  0  0  0
  190.5110  177.3930  140.9930 C   0  0  0  0  0  3  0  0  0  0  0  0
  191.6820  177.2130  141.7310 C   0  0  0  0  0  3  0  0  0  0  0  0
  191.6430  177.2840  143.1190 C   0  0  0  0  0  3  0  0  0  0  0  0
  189.2630  177.7360  143.0300 C   0  0  0  0  0  3  0  0  0  0  0  0
  190.4300  177.5350  143.7780 C   0  0  0  0  0  0  0  0  0  0  0  0
  190.3680  177.6130  145.1780 O   0  0  0  0  0  0  0  0  0  0  0  0
  189.3470  176.9660  145.9290 C   0  0  0  0  0  2  0  0  0  0  0  0
  188.1180  177.8600  146.0550 C   0  0  0  0  0  2  0  0  0  0  0  0
  186.9690  177.2270  145.5640 O   0  0  0  0  0  0  0  0  0  0  0  0
  185.9120  177.9630  146.1160 C   0  0  0  0  0  2  0  0  0  0  0  0
  185.5690  178.3370  143.6840 C   0  0  0  0  0  2  0  0  0  0  0  0
  184.2380  178.3750  142.9560 C   0  0  2  0  0  3  0  0  0  0  0  0
  185.3280  178.9020  145.0730 C   0  0  1  0  0  3  0  0  0  0  0  0
  184.3890  178.9970  141.7100 O   0  0  0  0  0  1  0  0  0  0  0  0
  182.0050  178.6300  143.7460 O   0  0  0  0  0  1  0  0  0  0  0  0
  183.8230  179.0360  145.2320 C   0  0  0  0  0  2  0  0  0  0  0  0
  183.2840  179.1760  143.8180 C   0  0  1  0  0  3  0  0  0  0  0  0
  189.5800  174.8310  135.0820 C   0  0  0  0  0  2  0  0  0  0  0  0
  190.9040  174.4800  134.5940 N   0  0  0  0  0  2  0  0  0  0  0  0
  190.2650  172.0360  135.2160 O   0  0  0  0  0  1  0  0  0  0  0  0
  192.5240  172.7960  135.2520 C   0  0  2  0  0  3  0  0  0  0  0  0
  191.6470  173.9530  135.7260 C   0  0  2  0  0  3  0  0  0  0  0  0
  191.2680  172.5180  136.0600 C   0  0  1  0  0  3  0  0  0  0  0  0
  193.7340  172.6040  136.1650 C   0  0  1  0  0  3  0  0  0  0  0  0
  194.0130  171.1350  136.3780 C   0  0  0  0  0  1  0  0  0  0  0  0
  194.2650  175.7240  135.7540 C   0  0  0  0  0  3  0  0  0  0  0  0
  197.1000  173.6380  134.5940 C   0  0  0  0  0  2  0  0  0  0  0  0
  196.3650  174.9150  134.8590 C   0  0  0  0  0  0  0  0  0  0  0  0
  195.1360  174.6750  135.4430 C   0  0  0  0  0  0  0  0  0  0  0  0
  195.9340  177.2840  134.9220 C   0  0  0  0  0  3  0  0  0  0  0  0
  196.2320  171.4090  135.0660 O   0  0  0  0  0  0  0  0  0  0  0  0
  194.9350  173.2890  135.6750 N   0  0  0  0  0  0  0  0  0  0  0  0
  194.6750  177.0370  135.4950 C   0  0  0  0  0  3  0  0  0  0  0  0
  196.1000  172.6560  135.1490 C   0  0  0  0  0  0  0  0  0  0  0  0
  196.7880  176.2160  134.5950 C   0  0  0  0  0  3  0  0  0  0  0  0
  186.3210  176.9320  137.0220 C   0  0  0  0  0  2  0  0  0  0  0  0
  185.8040  176.7810  135.2670 S   0  0  0  0  0  0  0  0  0  0  0  0
  184.1720  176.1280  135.7120 C   0  0  0  0  0  2  0  0  0  0  0  0
  183.0710  176.9590  135.0530 C   0  0  0  0  0  2  0  0  0  0  0  0
  182.6300  178.1590  137.1220 O   0  0  0  0  0  1  0  0  0  0  0  0
  182.0380  177.4650  136.0650 C   0  0  2  0  0  3  0  0  0  0  0  0
  181.0380  176.3820  136.5390 C   0  0  1  0  0  3  0  0  0  0  0  0
  181.6870  175.1450  136.6620 O   0  0  0  0  0  0  0  0  0  0  0  0
  180.7320  174.1550  136.4170 C   0  0  1  0  0  3  0  0  0  0  0  0
  180.2600  174.3030  134.9840 C   0  0  0  0  0  2  0  0  0  0  0  0
  181.2210  173.1850  135.3480 C   0  0  2  0  0  3  0  0  0  0  0  0
  181.0930  170.6440  135.4370 C   0  0  0  0  0  0  0  0  0  0  0  0
  180.3430  169.6300  135.3900 O   0  0  0  0  0  0  0  0  0  0  0  0
  180.4840  171.9370  135.4940 N   0  0  0  0  0  2  0  0  0  0  0  0
  182.5210  170.5090  135.4090 N   0  0  0  0  0  0  0  0  0  0  0  0
  183.3050  171.3540  135.9950 C   0  0  0  0  0  3  0  0  0  0  0  0
  185.4990  172.4110  136.4140 C   0  0  0  0  0  1  0  0  0  0  0  0
  184.7830  171.1820  135.9030 C   0  0  0  0  0  2  0  0  0  0  0  0
  180.3660  176.7350  137.8670 C   0  0  0  0  0  2  0  0  0  0  0  0
  180.0380  174.8360  139.6910 C   0  0  0  0  0  1  0  0  0  0  0  0
  181.3180  176.0570  139.2580 S   0  0  0  0  0  0  0  0  0  0  0  0
  1 47  1  6  0  0  0
  1  9  1  0  0  0  0
  3  6  1  0  0  0  0
  3  5  1  0  0  0  0
  4  1  1  0  0  0  0
  4  2  2  0  0  0  0
  5 29  1  6  0  0  0
  5  4  1  0  0  0  0
  6  1  1  0  0  0  0
  7 10  1  0  0  0  0
  8  9  1  0  0  0  0
  9  7  2  0  0  0  0
 10 11  1  0  0  0  0
 11 15  1  0  0  0  0
 12 11  2  0  0  0  0
 12 13  1  0  0  0  0
 13 14  2  0  0  0  0
 14 16  1  0  0  0  0
 15 16  2  0  0  0  0
 16 17  1  0  0  0  0
 17 18  1  0  0  0  0
 18 19  1  0  0  0  0
 20 19  1  0  0  0  0
 20 21  1  0  0  0  0
 22 24  1  0  0  0  0
 23 25  1  6  0  0  0
 23 22  1  0  0  0  0
 23 28  1  0  0  0  0
 24 27  1  0  0  0  0
 24 21  1  1  0  0  0
 28 26  1  1  0  0  0
 28 27  1  0  0  0  0
 30 29  1  0  0  0  0
 32 33  1  0  0  0  0
 32 34  1  0  0  0  0
 32 35  1  1  0  0  0
 33 30  1  6  0  0  0
 33 34  1  0  0  0  0
 34 31  1  6  0  0  0
 35 36  1  6  0  0  0
 38 39  1  0  0  0  0
 38 45  1  0  0  0  0
 39 40  1  0  0  0  0
 40 43  1  0  0  0  0
 40 37  2  0  0  0  0
 41 44  2  0  0  0  0
 42 45  2  0  0  0  0
 43 35  1  0  0  0  0
 44 37  1  0  0  0  0
 45 43  1  0  0  0  0
 46 39  2  0  0  0  0
 46 41  1  0  0  0  0
 48 49  1  0  0  0  0
 48 47  1  0  0  0  0
 50 49  1  0  0  0  0
 50 52  1  0  0  0  0
 52 53  1  0  0  0  0
 52 51  1  1  0  0  0
 53 54  1  0  0  0  0
 53 65  1  1  0  0  0
 55 54  1  6  0  0  0
 56 57  1  0  0  0  0
 56 55  1  0  0  0  0
 57 60  1  1  0  0  0
 57 55  1  0  0  0  0
 58 60  1  0  0  0  0
 59 58  2  0  0  0  0
 61 58  1  0  0  0  0
 61 62  2  0  0  0  0
 64 62  1  0  0  0  0
 64 63  1  0  0  0  0
 65 67  1  0  0  0  0
 67 66  1  0  0  0  0
M  END
>  <MODEL>
5

>  <REMARK>
 VINA RESULT:      -5.0      3.351      8.355
  Name = 
  27 active torsions:
  status: ('A' for Active; 'I' for Inactive)
    1  A    between atoms: N_1  and  C_20
    2  A    between atoms: C_2  and  C_42
    3  A    between atoms: C_2  and  S_61
    4  A    between atoms: O_3  and  C_19
    5  A    between atoms: O_3  and  C_42
    6  A    between atoms: C_6  and  C_22
    7  A    between atoms: C_6  and  C_60
    8  A    between atoms: C_7  and  O_48
    9  A    between atoms: O_11  and  C_37
   10  A    between atoms: O_11  and  C_67
   11  A    between atoms: C_14  and  O_48
   12  A    between atoms: C_15  and  S_21
   13  A    between atoms: C_15  and  C_50
   14  A    between atoms: C_17  and  C_67
   15  A    between atoms: S_21  and  C_22
   16  A    between atoms: N_26  and  C_49
   17  A    between atoms: N_26  and  C_55
   18  A    between atoms: N_28  and  C_53
   19  A    between atoms: O_32  and  C_63
   20  A    between atoms: O_32  and  C_64
   21  A    between atoms: N_35  and  C_47
   22  A    between atoms: C_37  and  C_63
   23  A    between atoms: C_39  and  C_47
   24  A    between atoms: C_40  and  C_42
   25  A    between atoms: C_40  and  C_50
   26  A    between atoms: C_45  and  C_66
   27  A    between atoms: C_49  and  C_54
                            x       y       z     vdW  Elec       q    Type
                         _______ _______ _______ _____ _____    ______ ____

>  <TORSDO>
F 27

$$$$
=
 OpenBabel11042410333D

 67 73  0  0  1  0  0  0  0  0999 V2000
  189.6520  176.9980  138.1970 C   0  0  2  0  0  0  0  0  0  0  0  0
  188.2380  175.2310  137.3200 O   0  0  0  0  0  0  0  0  0  0  0  0
  189.1120  178.5460  136.5960 C   0  0  0  0  0  2  0  0  0  0  0  0
  188.6630  176.3830  137.2520 C   0  0  0  0  0  0  0  0  0  0  0  0
  188.3250  177.3170  136.1780 C   0  0  1  0  0  3  0  0  0  0  0  0
  189.6100  178.3840  137.9120 O   0  0  0  0  0  0  0  0  0  0  0  0
  191.3420  175.7080  136.9320 C   0  0  0  0  0  3  0  0  0  0  0  0
  192.1100  176.7500  139.0100 C   0  0  0  0  0  1  0  0  0  0  0  0
  191.0620  176.4840  137.9750 C   0  0  0  0  0  0  0  0  0  0  0  0
  192.6100  175.1610  136.7160 O   0  0  0  0  0  0  0  0  0  0  0  0
  192.7650  173.8560  136.2480 C   0  0  0  0  0  0  0  0  0  0  0  0
  192.0600  173.3860  135.1280 C   0  0  0  0  0  3  0  0  0  0  0  0
  192.2240  172.0730  134.6830 C   0  0  0  0  0  3  0  0  0  0  0  0
  193.0910  171.2180  135.3530 C   0  0  0  0  0  3  0  0  0  0  0  0
  193.6480  172.9950  136.9040 C   0  0  0  0  0  3  0  0  0  0  0  0
  193.8010  171.6710  136.4750 C   0  0  0  0  0  0  0  0  0  0  0  0
  194.6830  170.8260  137.1650 O   0  0  0  0  0  0  0  0  0  0  0  0
  196.0310  170.6330  136.7500 C   0  0  0  0  0  2  0  0  0  0  0  0
  196.2180  171.0680  135.3010 C   0  0  0  0  0  2  0  0  0  0  0  0
  197.5230  170.8220  134.8540 O   0  0  0  0  0  0  0  0  0  0  0  0
  198.1520  172.0710  134.9330 C   0  0  0  0  0  2  0  0  0  0  0  0
  198.3560  173.3980  137.0240 C   0  0  0  0  0  2  0  0  0  0  0  0
  198.2260  174.9040  137.1530 C   0  0  2  0  0  3  0  0  0  0  0  0
  197.4140  172.9670  135.9140 C   0  0  1  0  0  3  0  0  0  0  0  0
  197.9950  175.2550  138.4890 O   0  0  0  0  0  1  0  0  0  0  0  0
  197.3070  176.5470  135.6930 O   0  0  0  0  0  1  0  0  0  0  0  0
  196.9260  174.2390  135.2400 C   0  0  0  0  0  2  0  0  0  0  0  0
  197.0460  175.3210  136.3000 C   0  0  1  0  0  3  0  0  0  0  0  0
  186.8320  177.6250  136.1620 C   0  0  0  0  0  2  0  0  0  0  0  0
  186.0840  176.4590  136.6070 N   0  0  0  0  0  2  0  0  0  0  0  0
  185.1780  174.0200  136.5830 O   0  0  0  0  0  1  0  0  0  0  0  0
  183.7320  175.9040  136.3780 C   0  0  2  0  0  3  0  0  0  0  0  0
  185.0250  176.2410  135.6370 C   0  0  2  0  0  3  0  0  0  0  0  0
  184.5000  174.8130  135.6530 C   0  0  1  0  0  3  0  0  0  0  0  0
  182.5030  176.2610  135.5430 C   0  0  1  0  0  3  0  0  0  0  0  0
  182.1440  175.1270  134.6120 C   0  0  0  0  0  1  0  0  0  0  0  0
  180.9730  179.0570  135.7220 C   0  0  0  0  0  3  0  0  0  0  0  0
  179.6610  176.5650  138.1310 C   0  0  0  0  0  2  0  0  0  0  0  0
  179.7310  177.8930  137.4450 C   0  0  0  0  0  0  0  0  0  0  0  0
  180.7120  177.9060  136.4730 C   0  0  0  0  0  0  0  0  0  0  0  0
  179.1800  180.1790  136.9190 C   0  0  0  0  0  3  0  0  0  0  0  0
  181.1240  174.6740  137.6530 O   0  0  0  0  0  0  0  0  0  0  0  0
  181.3460  176.6410  136.3610 N   0  0  0  0  0  0  0  0  0  0  0  0
  180.1940  180.1970  135.9470 C   0  0  0  0  0  3  0  0  0  0  0  0
  180.7360  175.8350  137.3670 C   0  0  0  0  0  0  0  0  0  0  0  0
  178.9460  179.0200  137.6810 C   0  0  0  0  0  3  0  0  0  0  0  0
  189.2490  176.8260  139.6730 C   0  0  0  0  0  2  0  0  0  0  0  0
  188.1030  178.1170  140.2980 S   0  0  0  0  0  0  0  0  0  0  0  0
  189.1440  178.4660  141.7420 C   0  0  0  0  0  2  0  0  0  0  0  0
  189.2120  177.2420  142.6550 C   0  0  0  0  0  2  0  0  0  0  0  0
  190.9450  176.7090  144.2750 O   0  0  0  0  0  1  0  0  0  0  0  0
  189.8700  177.5560  144.0030 C   0  0  2  0  0  3  0  0  0  0  0  0
  188.8710  177.6620  145.1810 C   0  0  1  0  0  3  0  0  0  0  0  0
  187.8100  176.7640  144.9980 O   0  0  0  0  0  0  0  0  0  0  0  0
  186.6350  177.4460  145.3230 C   0  0  1  0  0  3  0  0  0  0  0  0
  186.8890  178.9300  145.1450 C   0  0  0  0  0  2  0  0  0  0  0  0
  186.0780  178.1750  144.1050 C   0  0  2  0  0  3  0  0  0  0  0  0
  183.6980  178.5190  143.2720 C   0  0  0  0  0  0  0  0  0  0  0  0
  182.5330  178.9100  143.5600 O   0  0  0  0  0  0  0  0  0  0  0  0
  184.6580  178.4140  144.3260 N   0  0  0  0  0  2  0  0  0  0  0  0
  184.0610  178.2140  141.9180 N   0  0  0  0  0  0  0  0  0  0  0  0
  184.3390  179.1350  141.0540 C   0  0  0  0  0  3  0  0  0  0  0  0
  183.4480  178.2730  138.9170 C   0  0  0  0  0  1  0  0  0  0  0  0
  184.6760  178.7590  139.6510 C   0  0  0  0  0  2  0  0  0  0  0  0
  189.5250  177.4010  146.5390 C   0  0  0  0  0  2  0  0  0  0  0  0
  188.4370  178.2170  148.8170 C   0  0  0  0  0  1  0  0  0  0  0  0
  188.2990  176.7680  147.7210 S   0  0  0  0  0  0  0  0  0  0  0  0
  1 47  1  1  0  0  0
  3  6  1  0  0  0  0
  4  2  2  0  0  0  0
  4  1  1  0  0  0  0
  5 29  1  1  0  0  0
  5  3  1  0  0  0  0
  5  4  1  0  0  0  0
  6  1  1  0  0  0  0
  7  9  2  0  0  0  0
  9  1  1  0  0  0  0
  9  8  1  0  0  0  0
 10  7  1  0  0  0  0
 11 10  1  0  0  0  0
 11 15  1  0  0  0  0
 12 11  2  0  0  0  0
 13 12  1  0  0  0  0
 13 14  2  0  0  0  0
 14 16  1  0  0  0  0
 16 15  2  0  0  0  0
 16 17  1  0  0  0  0
 18 17  1  0  0  0  0
 19 18  1  0  0  0  0
 20 21  1  0  0  0  0
 20 19  1  0  0  0  0
 22 23  1  0  0  0  0
 23 25  1  1  0  0  0
 24 21  1  6  0  0  0
 24 22  1  0  0  0  0
 27 24  1  0  0  0  0
 27 28  1  0  0  0  0
 28 26  1  6  0  0  0
 28 23  1  0  0  0  0
 29 30  1  0  0  0  0
 32 35  1  6  0  0  0
 33 34  1  0  0  0  0
 33 32  1  0  0  0  0
 33 30  1  1  0  0  0
 34 32  1  0  0  0  0
 34 31  1  1  0  0  0
 35 36  1  1  0  0  0
 35 43  1  0  0  0  0
 37 44  2  0  0  0  0
 37 40  1  0  0  0  0
 39 46  1  0  0  0  0
 39 38  1  0  0  0  0
 40 39  2  0  0  0  0
 41 46  2  0  0  0  0
 43 40  1  0  0  0  0
 43 45  1  0  0  0  0
 44 41  1  0  0  0  0
 45 42  2  0  0  0  0
 45 38  1  0  0  0  0
 47 48  1  0  0  0  0
 48 49  1  0  0  0  0
 49 50  1  0  0  0  0
 50 52  1  0  0  0  0
 52 51  1  1  0  0  0
 52 53  1  0  0  0  0
 53 65  1  1  0  0  0
 54 53  1  0  0  0  0
 55 54  1  6  0  0  0
 56 55  1  0  0  0  0
 57 60  1  1  0  0  0
 57 56  1  0  0  0  0
 57 55  1  0  0  0  0
 58 59  2  0  0  0  0
 58 60  1  0  0  0  0
 61 58  1  0  0  0  0
 62 61  2  0  0  0  0
 63 64  1  0  0  0  0
 64 62  1  0  0  0  0
 65 67  1  0  0  0  0
 67 66  1  0  0  0  0
M  END
>  <MODEL>
6

>  <REMARK>
 VINA RESULT:      -4.9      2.806     12.005
  Name = 
  27 active torsions:
  status: ('A' for Active; 'I' for Inactive)
    1  A    between atoms: N_1  and  C_20
    2  A    between atoms: C_2  and  C_42
    3  A    between atoms: C_2  and  S_61
    4  A    between atoms: O_3  and  C_19
    5  A    between atoms: O_3  and  C_42
    6  A    between atoms: C_6  and  C_22
    7  A    between atoms: C_6  and  C_60
    8  A    between atoms: C_7  and  O_48
    9  A    between atoms: O_11  and  C_37
   10  A    between atoms: O_11  and  C_67
   11  A    between atoms: C_14  and  O_48
   12  A    between atoms: C_15  and  S_21
   13  A    between atoms: C_15  and  C_50
   14  A    between atoms: C_17  and  C_67
   15  A    between atoms: S_21  and  C_22
   16  A    between atoms: N_26  and  C_49
   17  A    between atoms: N_26  and  C_55
   18  A    between atoms: N_28  and  C_53
   19  A    between atoms: O_32  and  C_63
   20  A    between atoms: O_32  and  C_64
   21  A    between atoms: N_35  and  C_47
   22  A    between atoms: C_37  and  C_63
   23  A    between atoms: C_39  and  C_47
   24  A    between atoms: C_40  and  C_42
   25  A    between atoms: C_40  and  C_50
   26  A    between atoms: C_45  and  C_66
   27  A    between atoms: C_49  and  C_54
                            x       y       z     vdW  Elec       q    Type
                         _______ _______ _______ _____ _____    ______ ____

>  <TORSDO>
F 27

$$$$
=
 OpenBabel11042410333D

 67 73  0  0  1  0  0  0  0  0999 V2000
  184.3940  178.1720  140.5560 C   0  0  2  0  0  0  0  0  0  0  0  0
  183.5220  180.4030  140.1610 O   0  0  0  0  0  0  0  0  0  0  0  0
  182.3510  177.1590  140.7780 C   0  0  0  0  0  2  0  0  0  0  0  0
  183.3250  179.2080  140.3720 C   0  0  0  0  0  0  0  0  0  0  0  0
  181.9980  178.6190  140.5570 C   0  0  1  0  0  3  0  0  0  0  0  0
  183.7150  176.9330  140.4720 O   0  0  0  0  0  0  0  0  0  0  0  0
  186.3050  177.8020  142.0840 C   0  0  0  0  0  3  0  0  0  0  0  0
  184.3070  178.8120  143.0750 C   0  0  0  0  0  1  0  0  0  0  0  0
  185.0760  178.2790  141.9060 C   0  0  0  0  0  0  0  0  0  0  0  0
  186.9530  177.8230  143.3220 O   0  0  0  0  0  0  0  0  0  0  0  0
  188.3440  177.8580  143.4100 C   0  0  0  0  0  0  0  0  0  0  0  0
  189.0680  179.0370  143.1750 C   0  0  0  0  0  3  0  0  0  0  0  0
  190.4620  179.0460  143.2590 C   0  0  0  0  0  3  0  0  0  0  0  0
  191.1440  177.8780  143.5780 C   0  0  0  0  0  3  0  0  0  0  0  0
  189.0360  176.6920  143.7470 C   0  0  0  0  0  3  0  0  0  0  0  0
  190.4350  176.6900  143.8130 C   0  0  0  0  0  0  0  0  0  0  0  0
  191.1030  175.4990  144.1380 O   0  0  0  0  0  0  0  0  0  0  0  0
  192.2230  175.4730  145.0160 C   0  0  0  0  0  2  0  0  0  0  0  0
  191.7950  175.0860  146.4270 C   0  0  0  0  0  2  0  0  0  0  0  0
  190.6230  175.7520  146.8100 O   0  0  0  0  0  0  0  0  0  0  0  0
  191.0820  176.9390  147.3960 C   0  0  0  0  0  2  0  0  0  0  0  0
  188.8190  177.5500  146.5730 C   0  0  0  0  0  2  0  0  0  0  0  0
  187.5360  177.5580  147.3820 C   0  0  2  0  0  3  0  0  0  0  0  0
  189.9410  177.9360  147.5200 C   0  0  1  0  0  3  0  0  0  0  0  0
  186.5600  178.3230  146.7320 O   0  0  0  0  0  1  0  0  0  0  0  0
  187.1430  177.5370  149.7320 O   0  0  0  0  0  1  0  0  0  0  0  0
  189.3500  177.9260  148.9200 C   0  0  0  0  0  2  0  0  0  0  0  0
  187.8640  178.1760  148.7260 C   0  0  1  0  0  3  0  0  0  0  0  0
  181.1450  178.7730  139.3030 C   0  0  0  0  0  2  0  0  0  0  0  0
  181.9320  178.4350  138.1270 N   0  0  0  0  0  2  0  0  0  0  0  0
  181.4410  179.1400  135.6710 O   0  0  0  0  0  1  0  0  0  0  0  0
  182.0400  176.9050  136.2450 C   0  0  2  0  0  3  0  0  0  0  0  0
  181.1710  177.4480  137.3780 C   0  0  2  0  0  3  0  0  0  0  0  0
  180.9120  177.8760  135.9410 C   0  0  1  0  0  3  0  0  0  0  0  0
  181.5950  175.5050  135.8250 C   0  0  1  0  0  3  0  0  0  0  0  0
  180.6560  175.5770  134.6430 C   0  0  0  0  0  1  0  0  0  0  0  0
  181.9740  172.4190  136.5480 C   0  0  0  0  0  3  0  0  0  0  0  0
  184.9700  173.8740  134.9220 C   0  0  0  0  0  2  0  0  0  0  0  0
  184.1510  172.7930  135.5560 C   0  0  0  0  0  0  0  0  0  0  0  0
  182.9000  173.2540  135.9130 C   0  0  0  0  0  0  0  0  0  0  0  0
  183.5890  170.6090  136.4040 C   0  0  0  0  0  3  0  0  0  0  0  0
  184.2310  176.1760  134.6090 O   0  0  0  0  0  0  0  0  0  0  0  0
  182.7200  174.6100  135.5340 N   0  0  0  0  0  0  0  0  0  0  0  0
  182.3250  171.0860  136.7870 C   0  0  0  0  0  3  0  0  0  0  0  0
  183.9660  174.9970  134.9570 C   0  0  0  0  0  0  0  0  0  0  0  0
  184.5160  171.4680  135.7860 C   0  0  0  0  0  3  0  0  0  0  0  0
  185.4410  178.1930  139.4270 C   0  0  0  0  0  2  0  0  0  0  0  0
  184.7420  178.4810  137.7540 S   0  0  0  0  0  0  0  0  0  0  0  0
  186.3490  178.2490  136.9460 C   0  0  0  0  0  2  0  0  0  0  0  0
  186.8160  176.8020  137.1000 C   0  0  0  0  0  2  0  0  0  0  0  0
  187.9610  175.6120  135.3150 O   0  0  0  0  0  1  0  0  0  0  0  0
  188.1260  176.5300  136.3530 C   0  0  2  0  0  3  0  0  0  0  0  0
  189.3180  176.1850  137.2790 C   0  0  1  0  0  3  0  0  0  0  0  0
  190.2990  175.4810  136.5650 O   0  0  0  0  0  0  0  0  0  0  0  0
  191.4940  176.1890  136.7030 C   0  0  1  0  0  3  0  0  0  0  0  0
  192.4050  175.3980  137.6200 C   0  0  0  0  0  2  0  0  0  0  0  0
  192.6620  175.3980  136.1230 C   0  0  2  0  0  3  0  0  0  0  0  0
  195.1250  176.0100  135.9230 C   0  0  0  0  0  0  0  0  0  0  0  0
  195.9670  176.9430  135.8090 O   0  0  0  0  0  0  0  0  0  0  0  0
  193.7360  176.3330  135.8130 N   0  0  0  0  0  2  0  0  0  0  0  0
  195.5450  174.6630  136.1820 N   0  0  0  0  0  0  0  0  0  0  0  0
  196.0310  174.3000  137.3250 C   0  0  0  0  0  3  0  0  0  0  0  0
  197.9420  172.7440  137.1600 C   0  0  0  0  0  1  0  0  0  0  0  0
  196.4840  172.8950  137.5260 C   0  0  0  0  0  2  0  0  0  0  0  0
  189.9510  177.4230  137.9180 C   0  0  0  0  0  2  0  0  0  0  0  0
  191.0770  177.0740  140.2950 C   0  0  0  0  0  1  0  0  0  0  0  0
  189.4440  177.5670  139.6570 S   0  0  0  0  0  0  0  0  0  0  0  0
  1 47  1  6  0  0  0
  1  9  1  0  0  0  0
  2  4  2  0  0  0  0
  4  1  1  0  0  0  0
  4  5  1  0  0  0  0
  5 29  1  6  0  0  0
  5  3  1  0  0  0  0
  6  1  1  0  0  0  0
  6  3  1  0  0  0  0
  7 10  1  0  0  0  0
  9  7  2  0  0  0  0
  9  8  1  0  0  0  0
 10 11  1  0  0  0  0
 11 15  1  0  0  0  0
 12 13  1  0  0  0  0
 12 11  2  0  0  0  0
 13 14  2  0  0  0  0
 14 16  1  0  0  0  0
 15 16  2  0  0  0  0
 16 17  1  0  0  0  0
 17 18  1  0  0  0  0
 18 19  1  0  0  0  0
 19 20  1  0  0  0  0
 20 21  1  0  0  0  0
 22 23  1  0  0  0  0
 22 24  1  0  0  0  0
 23 25  1  6  0  0  0
 23 28  1  0  0  0  0
 24 21  1  1  0  0  0
 24 27  1  0  0  0  0
 28 27  1  0  0  0  0
 28 26  1  1  0  0  0
 30 29  1  0  0  0  0
 32 35  1  6  0  0  0
 32 33  1  0  0  0  0
 33 30  1  1  0  0  0
 34 31  1  1  0  0  0
 34 32  1  0  0  0  0
 34 33  1  0  0  0  0
 35 36  1  6  0  0  0
 37 44  1  0  0  0  0
 38 45  1  0  0  0  0
 38 39  1  0  0  0  0
 39 46  2  0  0  0  0
 39 40  1  0  0  0  0
 40 37  2  0  0  0  0
 41 44  2  0  0  0  0
 42 45  2  0  0  0  0
 43 35  1  0  0  0  0
 43 40  1  0  0  0  0
 45 43  1  0  0  0  0
 46 41  1  0  0  0  0
 48 47  1  0  0  0  0
 49 50  1  0  0  0  0
 49 48  1  0  0  0  0
 52 51  1  6  0  0  0
 52 50  1  0  0  0  0
 52 53  1  0  0  0  0
 53 65  1  6  0  0  0
 54 53  1  0  0  0  0
 55 54  1  6  0  0  0
 55 56  1  0  0  0  0
 57 60  1  1  0  0  0
 57 55  1  0  0  0  0
 57 56  1  0  0  0  0
 58 61  1  0  0  0  0
 59 58  2  0  0  0  0
 60 58  1  0  0  0  0
 61 62  2  0  0  0  0
 62 64  1  0  0  0  0
 63 64  1  0  0  0  0
 65 67  1  0  0  0  0
 67 66  1  0  0  0  0
M  END
>  <MODEL>
7

>  <REMARK>
 VINA RESULT:      -4.1      2.959     11.082
  Name = 
  27 active torsions:
  status: ('A' for Active; 'I' for Inactive)
    1  A    between atoms: N_1  and  C_20
    2  A    between atoms: C_2  and  C_42
    3  A    between atoms: C_2  and  S_61
    4  A    between atoms: O_3  and  C_19
    5  A    between atoms: O_3  and  C_42
    6  A    between atoms: C_6  and  C_22
    7  A    between atoms: C_6  and  C_60
    8  A    between atoms: C_7  and  O_48
    9  A    between atoms: O_11  and  C_37
   10  A    between atoms: O_11  and  C_67
   11  A    between atoms: C_14  and  O_48
   12  A    between atoms: C_15  and  S_21
   13  A    between atoms: C_15  and  C_50
   14  A    between atoms: C_17  and  C_67
   15  A    between atoms: S_21  and  C_22
   16  A    between atoms: N_26  and  C_49
   17  A    between atoms: N_26  and  C_55
   18  A    between atoms: N_28  and  C_53
   19  A    between atoms: O_32  and  C_63
   20  A    between atoms: O_32  and  C_64
   21  A    between atoms: N_35  and  C_47
   22  A    between atoms: C_37  and  C_63
   23  A    between atoms: C_39  and  C_47
   24  A    between atoms: C_40  and  C_42
   25  A    between atoms: C_40  and  C_50
   26  A    between atoms: C_45  and  C_66
   27  A    between atoms: C_49  and  C_54
                            x       y       z     vdW  Elec       q    Type
                         _______ _______ _______ _____ _____    ______ ____

>  <TORSDO>
F 27

$$$$
=
 OpenBabel11042410333D

 67 73  0  0  1  0  0  0  0  0999 V2000
  190.0890  177.6390  139.8610 C   0  0  2  0  0  0  0  0  0  0  0  0
  188.7740  175.6010  139.9280 O   0  0  0  0  0  0  0  0  0  0  0  0
  189.0880  178.5020  137.9890 C   0  0  0  0  0  2  0  0  0  0  0  0
  189.0340  176.6790  139.3980 C   0  0  0  0  0  0  0  0  0  0  0  0
  188.3990  177.1610  138.1720 C   0  0  1  0  0  3  0  0  0  0  0  0
  189.8260  178.8350  139.1510 O   0  0  0  0  0  0  0  0  0  0  0  0
  191.6800  176.1370  138.7050 C   0  0  0  0  0  3  0  0  0  0  0  0
  192.6580  177.7660  140.2490 C   0  0  0  0  0  1  0  0  0  0  0  0
  191.4910  177.1600  139.5330 C   0  0  0  0  0  0  0  0  0  0  0  0
  192.9470  175.6210  138.4180 O   0  0  0  0  0  0  0  0  0  0  0  0
  193.2580  175.1280  137.1500 C   0  0  0  0  0  0  0  0  0  0  0  0
  193.4860  175.9840  136.0620 C   0  0  0  0  0  3  0  0  0  0  0  0
  193.7860  175.4680  134.8000 C   0  0  0  0  0  3  0  0  0  0  0  0
  193.8580  174.0920  134.6140 C   0  0  0  0  0  3  0  0  0  0  0  0
  193.3490  173.7480  136.9590 C   0  0  0  0  0  3  0  0  0  0  0  0
  193.6290  173.2230  135.6910 C   0  0  0  0  0  0  0  0  0  0  0  0
  193.6980  171.8310  135.5270 O   0  0  0  0  0  0  0  0  0  0  0  0
  194.6330  171.0280  136.2390 C   0  0  0  0  0  2  0  0  0  0  0  0
  196.0370  171.1990  135.6690 C   0  0  0  0  0  2  0  0  0  0  0  0
  197.0040  170.6150  136.4980 O   0  0  0  0  0  0  0  0  0  0  0  0
  197.1110  171.5040  137.5750 C   0  0  0  0  0  2  0  0  0  0  0  0
  197.0930  173.7230  136.4590 C   0  0  0  0  0  2  0  0  0  0  0  0
  197.3530  175.0660  137.1150 C   0  0  2  0  0  3  0  0  0  0  0  0
  197.9560  172.7040  137.1810 C   0  0  1  0  0  3  0  0  0  0  0  0
  197.6600  176.0260  136.1430 O   0  0  0  0  0  1  0  0  0  0  0  0
  198.3540  175.6450  139.1980 O   0  0  0  0  0  1  0  0  0  0  0  0
  198.5240  173.4050  138.4030 C   0  0  0  0  0  2  0  0  0  0  0  0
  198.5330  174.8820  138.0470 C   0  0  1  0  0  3  0  0  0  0  0  0
  186.9010  177.3590  138.3660 C   0  0  0  0  0  2  0  0  0  0  0  0
  186.3910  178.2830  137.3650 N   0  0  0  0  0  2  0  0  0  0  0  0
  186.5410  177.8870  134.7970 O   0  0  0  0  0  1  0  0  0  0  0  0
  185.5490  176.2900  136.2640 C   0  0  2  0  0  3  0  0  0  0  0  0
  185.1980  177.6780  136.7980 C   0  0  2  0  0  3  0  0  0  0  0  0
  185.3160  177.4400  135.3000 C   0  0  1  0  0  3  0  0  0  0  0  0
  184.3220  175.3800  136.2310 C   0  0  1  0  0  3  0  0  0  0  0  0
  183.3720  175.8070  135.1370 C   0  0  0  0  0  1  0  0  0  0  0  0
  182.4110  172.8230  136.1750 C   0  0  0  0  0  3  0  0  0  0  0  0
  186.0020  171.9130  136.0580 C   0  0  0  0  0  2  0  0  0  0  0  0
  184.5280  171.6520  136.0780 C   0  0  0  0  0  0  0  0  0  0  0  0
  183.8090  172.8290  136.1230 C   0  0  0  0  0  0  0  0  0  0  0  0
  182.4720  170.3960  136.0760 C   0  0  0  0  0  3  0  0  0  0  0  0
  187.0230  174.1250  136.1580 O   0  0  0  0  0  0  0  0  0  0  0  0
  184.6660  173.9610  136.0870 N   0  0  0  0  0  0  0  0  0  0  0  0
  181.7430  171.5940  136.1450 C   0  0  0  0  0  3  0  0  0  0  0  0
  185.9860  173.4210  136.0700 C   0  0  0  0  0  0  0  0  0  0  0  0
  183.8780  170.4190  136.0460 C   0  0  0  0  0  3  0  0  0  0  0  0
  189.9770  177.9680  141.3610 C   0  0  0  0  0  2  0  0  0  0  0  0
  188.7150  176.9800  142.2570 S   0  0  0  0  0  0  0  0  0  0  0  0
  187.4830  178.3070  142.1660 C   0  0  0  0  0  2  0  0  0  0  0  0
  186.1010  177.7290  141.8610 C   0  0  0  0  0  2  0  0  0  0  0  0
  185.2610  180.0110  141.8920 O   0  0  0  0  0  1  0  0  0  0  0  0
  184.9700  178.6900  142.2390 C   0  0  2  0  0  3  0  0  0  0  0  0
  184.4820  178.5440  143.7010 C   0  0  1  0  0  3  0  0  0  0  0  0
  185.3140  179.2720  144.5640 O   0  0  0  0  0  0  0  0  0  0  0  0
  185.5400  178.4730  145.6860 C   0  0  1  0  0  3  0  0  0  0  0  0
  186.7610  177.6170  145.4150 C   0  0  0  0  0  2  0  0  0  0  0  0
  186.8750  178.8180  146.3370 C   0  0  2  0  0  3  0  0  0  0  0  0
  187.9550  177.8050  148.4080 C   0  0  0  0  0  0  0  0  0  0  0  0
  187.7630  177.2860  149.5420 O   0  0  0  0  0  0  0  0  0  0  0  0
  186.8350  178.3740  147.7240 N   0  0  0  0  0  2  0  0  0  0  0  0
  189.2560  177.8040  147.8050 N   0  0  0  0  0  0  0  0  0  0  0  0
  189.6690  176.8320  147.0580 C   0  0  0  0  0  3  0  0  0  0  0  0
  191.0230  177.3840  145.0670 C   0  0  0  0  0  1  0  0  0  0  0  0
  191.0450  176.8680  146.4860 C   0  0  0  0  0  2  0  0  0  0  0  0
  183.0340  178.9990  143.8920 C   0  0  0  0  0  2  0  0  0  0  0  0
  180.6270  179.6220  142.9660 C   0  0  0  0  0  1  0  0  0  0  0  0
  182.0580  178.6480  142.4000 S   0  0  0  0  0  0  0  0  0  0  0  0
  1 47  1  1  0  0  0
  3  5  1  0  0  0  0
  3  6  1  0  0  0  0
  4  1  1  0  0  0  0
  4  2  2  0  0  0  0
  5 29  1  1  0  0  0
  5  4  1  0  0  0  0
  6  1  1  0  0  0  0
  7  9  2  0  0  0  0
  9  1  1  0  0  0  0
  9  8  1  0  0  0  0
 10  7  1  0  0  0  0
 11 10  1  0  0  0  0
 12 11  2  0  0  0  0
 13 12  1  0  0  0  0
 14 13  2  0  0  0  0
 14 16  1  0  0  0  0
 15 11  1  0  0  0  0
 16 15  2  0  0  0  0
 17 16  1  0  0  0  0
 17 18  1  0  0  0  0
 19 18  1  0  0  0  0
 19 20  1  0  0  0  0
 20 21  1  0  0  0  0
 22 23  1  0  0  0  0
 22 24  1  0  0  0  0
 23 25  1  6  0  0  0
 23 28  1  0  0  0  0
 24 21  1  1  0  0  0
 24 27  1  0  0  0  0
 28 27  1  0  0  0  0
 28 26  1  1  0  0  0
 30 29  1  0  0  0  0
 32 35  1  6  0  0  0
 32 33  1  0  0  0  0
 33 30  1  1  0  0  0
 34 31  1  1  0  0  0
 34 32  1  0  0  0  0
 34 33  1  0  0  0  0
 35 36  1  6  0  0  0
 38 45  1  0  0  0  0
 38 39  1  0  0  0  0
 39 40  1  0  0  0  0
 40 37  2  0  0  0  0
 41 44  2  0  0  0  0
 43 40  1  0  0  0  0
 43 35  1  0  0  0  0
 44 37  1  0  0  0  0
 45 43  1  0  0  0  0
 45 42  2  0  0  0  0
 46 41  1  0  0  0  0
 46 39  2  0  0  0  0
 47 48  1  0  0  0  0
 49 48  1  0  0  0  0
 50 49  1  0  0  0  0
 50 52  1  0  0  0  0
 52 51  1  1  0  0  0
 52 53  1  0  0  0  0
 53 65  1  6  0  0  0
 53 54  1  0  0  0  0
 55 54  1  6  0  0  0
 55 57  1  0  0  0  0
 56 55  1  0  0  0  0
 56 57  1  0  0  0  0
 57 60  1  1  0  0  0
 58 59  2  0  0  0  0
 60 58  1  0  0  0  0
 61 58  1  0  0  0  0
 62 61  2  0  0  0  0
 63 64  1  0  0  0  0
 64 62  1  0  0  0  0
 67 66  1  0  0  0  0
 67 65  1  0  0  0  0
M  END
>  <MODEL>
8

>  <REMARK>
 VINA RESULT:      -4.1      3.070     10.476
  Name = 
  27 active torsions:
  status: ('A' for Active; 'I' for Inactive)
    1  A    between atoms: N_1  and  C_20
    2  A    between atoms: C_2  and  C_42
    3  A    between atoms: C_2  and  S_61
    4  A    between atoms: O_3  and  C_19
    5  A    between atoms: O_3  and  C_42
    6  A    between atoms: C_6  and  C_22
    7  A    between atoms: C_6  and  C_60
    8  A    between atoms: C_7  and  O_48
    9  A    between atoms: O_11  and  C_37
   10  A    between atoms: O_11  and  C_67
   11  A    between atoms: C_14  and  O_48
   12  A    between atoms: C_15  and  S_21
   13  A    between atoms: C_15  and  C_50
   14  A    between atoms: C_17  and  C_67
   15  A    between atoms: S_21  and  C_22
   16  A    between atoms: N_26  and  C_49
   17  A    between atoms: N_26  and  C_55
   18  A    between atoms: N_28  and  C_53
   19  A    between atoms: O_32  and  C_63
   20  A    between atoms: O_32  and  C_64
   21  A    between atoms: N_35  and  C_47
   22  A    between atoms: C_37  and  C_63
   23  A    between atoms: C_39  and  C_47
   24  A    between atoms: C_40  and  C_42
   25  A    between atoms: C_40  and  C_50
   26  A    between atoms: C_45  and  C_66
   27  A    between atoms: C_49  and  C_54
                            x       y       z     vdW  Elec       q    Type
                         _______ _______ _______ _____ _____    ______ ____

>  <TORSDO>
F 27

$$$$
=
 OpenBabel11042410333D

 67 74  0  0  1  0  0  0  0  0999 V2000
  188.2790  177.2100  137.1250 C   0  0  2  0  0  0  0  0  0  0  0  0
  186.7000  175.3790  136.9150 O   0  0  0  0  0  0  0  0  0  0  0  0
  187.0690  178.7060  135.8810 C   0  0  0  0  0  2  0  0  0  0  0  0
  187.0140  176.5430  136.6730 C   0  0  0  0  0  0  0  0  0  0  0  0
  186.2280  177.4430  135.8290 C   0  0  1  0  0  3  0  0  0  0  0  0
  188.0690  178.5880  136.8760 O   0  0  0  0  0  0  0  0  0  0  0  0
  190.6280  176.4450  136.9720 C   0  0  0  0  0  3  0  0  0  0  0  0
  189.4420  176.7300  134.8480 C   0  0  0  0  0  1  0  0  0  0  0  0
  189.4920  176.7390  136.3450 C   0  0  0  0  0  0  0  0  0  0  0  0
  191.7890  176.0650  136.2930 O   0  0  0  0  0  0  0  0  0  0  0  0
  192.1470  174.7230  136.1660 C   0  0  0  0  0  0  0  0  0  0  0  0
  193.3420  174.2240  136.7090 C   0  0  0  0  0  3  0  0  0  0  0  0
  193.6850  172.8790  136.5610 C   0  0  0  0  0  3  0  0  0  0  0  0
  192.8390  172.0210  135.8680 C   0  0  0  0  0  3  0  0  0  0  0  0
  191.2940  173.8500  135.4870 C   0  0  0  0  0  3  0  0  0  0  0  0
  191.6430  172.5040  135.3170 C   0  0  0  0  0  0  0  0  0  0  0  0
  190.7730  171.6550  134.6150 O   0  0  0  0  0  0  0  0  0  0  0  0
  190.5490  170.3050  135.0070 C   0  0  0  0  0  2  0  0  0  0  0  0
  189.0730  170.0670  135.3070 C   0  0  0  0  0  2  0  0  0  0  0  0
  188.3030  171.2060  135.0370 O   0  0  0  0  0  0  0  0  0  0  0  0
  186.9840  170.7860  135.2580 C   0  0  0  0  0  2  0  0  0  0  0  0
  185.6230  172.7880  134.7000 C   0  0  0  0  0  2  0  0  0  0  0  0
  184.1380  172.9680  134.9520 C   0  0  2  0  0  3  0  0  0  0  0  0
  186.1620  171.9290  135.8300 C   0  0  1  0  0  3  0  0  0  0  0  0
  183.8000  174.3260  134.8920 O   0  0  0  0  0  1  0  0  0  0  0  0
  182.6150  171.7960  136.3600 O   0  0  0  0  0  1  0  0  0  0  0  0
  184.9550  171.4120  136.5950 C   0  0  0  0  0  2  0  0  0  0  0  0
  183.8560  172.4280  136.3390 C   0  0  1  0  0  3  0  0  0  0  0  0
  184.8500  177.7000  136.4270 C   0  0  0  0  0  2  0  0  0  0  0  0
  184.9890  178.2920  137.7480 N   0  0  0  0  0  2  0  0  0  0  0  0
  184.8810  179.5360  140.0310 O   0  0  0  0  0  1  0  0  0  0  0  0
  183.1300  179.7000  138.4220 C   0  0  2  0  0  3  0  0  0  0  0  0
  183.6710  178.2730  138.3610 C   0  0  2  0  0  3  0  0  0  0  0  0
  183.6290  179.0210  139.6850 C   0  0  1  0  0  3  0  0  0  0  0  0
  181.6020  179.7160  138.4570 C   0  0  1  0  0  3  0  0  0  0  0  0
  181.0350  179.3540  137.1040 C   0  0  0  0  0  1  0  0  0  0  0  0
  180.7300  176.6500  138.2850 C   0  0  0  0  0  3  0  0  0  0  0  0
  179.9800  178.1560  141.5870 C   0  0  0  0  0  2  0  0  0  0  0  0
  180.0260  177.0630  140.5650 C   0  0  0  0  0  0  0  0  0  0  0  0
  180.6070  177.4980  139.3900 C   0  0  0  0  0  0  0  0  0  0  0  0
  179.7120  174.8780  139.6010 C   0  0  0  0  0  3  0  0  0  0  0  0
  180.7660  180.4340  141.2250 O   0  0  0  0  0  0  0  0  0  0  0  0
  181.0450  178.8450  139.4970 N   0  0  0  0  0  0  0  0  0  0  0  0
  180.2830  175.3290  138.3990 C   0  0  0  0  0  3  0  0  0  0  0  0
  180.6530  179.2550  140.8060 C   0  0  0  0  0  0  0  0  0  0  0  0
  179.5760  175.7510  140.6960 C   0  0  0  0  0  3  0  0  0  0  0  0
  188.5260  177.0540  138.6370 C   0  0  0  0  0  2  0  0  0  0  0  0
  188.8050  178.6380  139.5230 S   0  0  2  0  0  3  0  0  0  0  0  0
  190.4360  178.1180  140.1210 C   0  0  0  0  0  2  0  0  0  0  0  0
  190.2970  176.9420  141.0880 C   0  0  0  0  0  2  0  0  0  0  0  0
  188.0950  177.9420  141.3500 O   0  0  0  0  0  0  0  0  0  0  0  0
  188.9570  176.9540  141.8300 C   0  0  2  0  0  3  0  0  0  0  0  0
  189.0920  176.9700  143.3720 C   0  0  1  0  0  3  0  0  0  0  0  0
  187.8810  176.5880  143.9690 O   0  0  0  0  0  0  0  0  0  0  0  0
  187.5120  177.6140  144.8420 C   0  0  1  0  0  3  0  0  0  0  0  0
  185.9990  177.6360  144.9280 C   0  0  0  0  0  2  0  0  0  0  0  0
  186.8090  177.0520  146.0720 C   0  0  2  0  0  3  0  0  0  0  0  0
  187.9890  178.0620  148.0890 C   0  0  0  0  0  0  0  0  0  0  0  0
  187.8900  178.8310  149.0850 O   0  0  0  0  0  0  0  0  0  0  0  0
  186.9150  178.0320  147.1450 N   0  0  0  0  0  2  0  0  0  0  0  0
  189.1370  177.2180  147.9190 N   0  0  0  0  0  0  0  0  0  0  0  0
  190.3450  177.6630  148.0460 C   0  0  0  0  0  3  0  0  0  0  0  0
  191.0710  175.5200  147.0550 C   0  0  0  0  0  1  0  0  0  0  0  0
  191.5000  176.7480  147.8230 C   0  0  0  0  0  2  0  0  0  0  0  0
  190.2120  176.0600  143.8790 C   0  0  0  0  0  2  0  0  0  0  0  0
  191.4860  178.3350  144.3740 C   0  0  0  0  0  1  0  0  0  0  0  0
  191.8350  176.7790  143.4930 S   0  0  0  0  0  0  0  0  0  0  0  0
  1 47  1  1  0  0  0
  3  6  1  0  0  0  0
  4  2  2  0  0  0  0
  4  1  1  0  0  0  0
  5  3  1  0  0  0  0
  5 29  1  1  0  0  0
  5  4  1  0  0  0  0
  6  1  1  0  0  0  0
  8  9  1  0  0  0  0
  9  7  2  0  0  0  0
  9  1  1  0  0  0  0
 10  7  1  0  0  0  0
 11 10  1  0  0  0  0
 11 12  1  0  0  0  0
 13 12  2  0  0  0  0
 14 13  1  0  0  0  0
 15 11  2  0  0  0  0
 16 15  1  0  0  0  0
 16 14  2  0  0  0  0
 17 18  1  0  0  0  0
 17 16  1  0  0  0  0
 18 19  1  0  0  0  0
 20 21  1  0  0  0  0
 20 19  1  0  0  0  0
 22 23  1  0  0  0  0
 22 24  1  0  0  0  0
 23 25  1  1  0  0  0
 23 28  1  0  0  0  0
 24 21  1  6  0  0  0
 24 27  1  0  0  0  0
 28 26  1  6  0  0  0
 28 27  1  0  0  0  0
 29 30  1  0  0  0  0
 32 35  1  1  0  0  0
 32 34  1  0  0  0  0
 33 30  1  6  0  0  0
 33 32  1  0  0  0  0
 33 34  1  0  0  0  0
 34 31  1  6  0  0  0
 35 36  1  6  0  0  0
 35 43  1  0  0  0  0
 37 44  2  0  0  0  0
 37 40  1  0  0  0  0
 39 46  1  0  0  0  0
 39 38  1  0  0  0  0
 40 43  1  0  0  0  0
 40 39  2  0  0  0  0
 41 46  2  0  0  0  0
 43 45  1  0  0  0  0
 44 41  1  0  0  0  0
 45 42  2  0  0  0  0
 45 38  1  0  0  0  0
 48 47  1  6  0  0  0
 48 49  1  0  0  0  0
 48 51  1  0  0  0  0
 49 50  1  0  0  0  0
 50 52  1  0  0  0  0
 51 52  1  0  0  0  0
 52 53  1  1  0  0  0
 53 65  1  6  0  0  0
 53 54  1  0  0  0  0
 55 54  1  6  0  0  0
 55 56  1  0  0  0  0
 55 57  1  0  0  0  0
 56 57  1  0  0  0  0
 57 60  1  1  0  0  0
 58 59  2  0  0  0  0
 60 58  1  0  0  0  0
 61 62  2  0  0  0  0
 61 58  1  0  0  0  0
 63 64  1  0  0  0  0
 64 62  1  0  0  0  0
 67 65  1  0  0  0  0
 67 66  1  0  0  0  0
M  END
>  <MODEL>
9

>  <REMARK>
 VINA RESULT:      -3.6      3.027      9.969
  Name = 
  27 active torsions:
  status: ('A' for Active; 'I' for Inactive)
    1  A    between atoms: N_1  and  C_20
    2  A    between atoms: C_2  and  C_42
    3  A    between atoms: C_2  and  S_61
    4  A    between atoms: O_3  and  C_19
    5  A    between atoms: O_3  and  C_42
    6  A    between atoms: C_6  and  C_22
    7  A    between atoms: C_6  and  C_60
    8  A    between atoms: C_7  and  O_48
    9  A    between atoms: O_11  and  C_37
   10  A    between atoms: O_11  and  C_67
   11  A    between atoms: C_14  and  O_48
   12  A    between atoms: C_15  and  S_21
   13  A    between atoms: C_15  and  C_50
   14  A    between atoms: C_17  and  C_67
   15  A    between atoms: S_21  and  C_22
   16  A    between atoms: N_26  and  C_49
   17  A    between atoms: N_26  and  C_55
   18  A    between atoms: N_28  and  C_53
   19  A    between atoms: O_32  and  C_63
   20  A    between atoms: O_32  and  C_64
   21  A    between atoms: N_35  and  C_47
   22  A    between atoms: C_37  and  C_63
   23  A    between atoms: C_39  and  C_47
   24  A    between atoms: C_40  and  C_42
   25  A    between atoms: C_40  and  C_50
   26  A    between atoms: C_45  and  C_66
   27  A    between atoms: C_49  and  C_54
                            x       y       z     vdW  Elec       q    Type
                         _______ _______ _______ _____ _____    ______ ____

>  <TORSDO>
F 27

$$$$
