=
 OpenBabel11032420483D

 51 54  0  0  1  0  0  0  0  0999 V2000
  190.1460  176.9070  141.4050 C   0  0  0  0  0  0  0  0  0  0  0  0
  189.4480  178.1680  143.2010 C   0  0  0  0  0  3  0  0  0  0  0  0
  189.3360  178.1210  141.7110 C   0  0  2  0  0  3  0  0  0  0  0  0
  190.1880  177.1520  143.6330 C   0  0  0  0  0  0  0  0  0  0  0  0
  190.6380  176.3520  142.5020 C   0  0  0  0  0  3  0  0  0  0  0  0
  193.7790  176.8640  137.4250 O   0  0  0  0  0  0  0  0  0  0  0  0
  190.3780  176.4340  140.0710 N   0  0  0  0  0  2  0  0  0  0  0  0
  191.6420  176.0770  137.9840 N   0  0  0  0  0  2  0  0  0  0  0  0
  191.5630  176.6470  139.2960 C   0  0  0  0  0  0  0  0  0  0  0  0
  192.5210  177.3250  139.7560 O   0  0  0  0  0  0  0  0  0  0  0  0
  192.7580  176.2000  137.0960 C   0  0  0  0  0  0  0  0  0  0  0  0
  192.6970  175.5310  135.7610 C   0  0  0  0  0  3  0  0  0  0  0  0
  194.0640  175.5010  135.0990 C   0  0  0  0  0  2  0  0  0  0  0  0
  192.9830  173.3440  134.8120 C   0  0  0  0  0  2  0  0  0  0  0  0
  192.2420  174.0920  135.8920 C   0  0  0  0  0  2  0  0  0  0  0  0
  194.3020  174.0690  134.6500 C   0  0  0  0  0  2  0  0  0  0  0  0
  191.2330  176.3620  147.7290 C   0  0  0  0  0  3  0  0  0  0  0  0
  189.6470  177.2580  146.1160 C   0  0  0  0  0  0  0  0  0  0  0  0
  190.5240  176.9080  145.0610 C   0  0  0  0  0  0  0  0  0  0  0  0
  192.1020  176.0250  146.6940 C   0  0  0  0  0  3  0  0  0  0  0  0
  191.7490  176.2960  145.3720 C   0  0  0  0  0  3  0  0  0  0  0  0
  190.0140  176.9750  147.4420 C   0  0  0  0  0  3  0  0  0  0  0  0
  188.4280  177.8950  145.8400 O   0  0  0  0  0  0  0  0  0  0  0  0
  187.2900  177.8170  146.6920 C   0  0  0  0  0  2  0  0  0  0  0  0
  185.5020  178.9370  145.4340 C   0  0  0  0  0  3  0  0  0  0  0  0
  186.0340  177.7990  145.8830 C   0  0  0  0  0  3  0  0  0  0  0  0
  184.2490  178.9300  144.6210 C   0  0  0  0  0  2  0  0  0  0  0  0
  184.5760  178.9340  143.1400 C   0  0  0  0  0  1  0  0  0  0  0  0
  187.8890  177.9020  141.2950 C   0  0  0  0  0  2  0  0  0  0  0  0
  187.6250  178.5550  139.9520 C   0  0  0  0  0  2  0  0  0  0  0  0
  187.1910  179.0620  137.2040 O   0  0  0  0  0  0  0  0  0  0  0  0
  187.2390  177.8550  137.5640 C   0  0  0  0  0  0  0  0  0  0  0  0
  187.4430  177.5270  138.9400 N   0  0  0  0  0  2  0  0  0  0  0  0
  187.0840  176.7830  136.5710 C   0  0  0  0  0  0  0  0  0  0  0  0
  188.0930  176.1260  136.1950 O   0  0  0  0  0  0  0  0  0  0  0  0
  185.7300  176.4760  136.0100 C   0  0  0  0  0  2  0  0  0  0  0  0
  184.7870  176.3070  137.0290 O   0  0  0  0  0  0  0  0  0  0  0  0
  184.0160  177.4210  136.9760 N   0  0  0  0  0  2  0  0  0  0  0  0
  182.3680  176.5230  138.3600 O   0  0  0  0  0  0  0  0  0  0  0  0
  182.7900  177.5100  137.7000 C   0  0  0  0  0  0  0  0  0  0  0  0
  181.9960  178.7770  137.6670 C   0  0  0  0  0  2  0  0  0  0  0  0
  182.2590  181.0080  138.5060 O   0  0  0  0  0  1  0  0  0  0  0  0
  182.2200  179.6670  138.8990 C   0  0  1  0  0  0  0  0  0  0  0  0
  179.1150  180.4440  141.0950 C   0  0  0  0  0  2  0  0  0  0  0  0
  179.6770  179.9660  142.3180 O   0  0  0  0  0  0  0  0  0  0  0  0
  181.0590  179.4630  139.8960 C   0  0  2  0  0  3  0  0  0  0  0  0
  180.8360  179.1790  142.3460 C   0  0  0  0  0  3  0  0  0  0  0  0
  180.2190  180.7320  140.0830 C   0  0  0  0  0  2  0  0  0  0  0  0
  181.5290  178.9390  141.2300 C   0  0  0  0  0  3  0  0  0  0  0  0
  184.5760  180.1640  139.1240 O   0  0  0  0  0  1  0  0  0  0  0  0
  183.5580  179.3110  139.5590 C   0  0  0  0  0  2  0  0  0  0  0  0
  1  3  1  0  0  0  0
  1  5  2  0  0  0  0
  2  4  2  0  0  0  0
  3 29  1  1  0  0  0
  3  2  1  0  0  0  0
  4 19  1  0  0  0  0
  5  4  1  0  0  0  0
  7  1  1  0  0  0  0
  8  9  1  0  0  0  0
  9 10  2  0  0  0  0
  9  7  1  0  0  0  0
 11  6  2  0  0  0  0
 11  8  1  0  0  0  0
 12 15  1  0  0  0  0
 12 11  1  0  0  0  0
 13 12  1  0  0  0  0
 14 15  1  0  0  0  0
 16 14  1  0  0  0  0
 16 13  1  0  0  0  0
 18 22  2  0  0  0  0
 19 21  2  0  0  0  0
 19 18  1  0  0  0  0
 20 17  2  0  0  0  0
 21 20  1  0  0  0  0
 22 17  1  0  0  0  0
 23 18  1  0  0  0  0
 23 24  1  0  0  0  0
 25 26  2  0  0  0  0
 26 24  1  0  0  0  0
 27 25  1  0  0  0  0
 28 27  1  0  0  0  0
 30 29  1  0  0  0  0
 31 32  2  0  0  0  0
 32 33  1  0  0  0  0
 33 30  1  0  0  0  0
 34 32  1  0  0  0  0
 35 34  2  0  0  0  0
 36 34  1  0  0  0  0
 36 37  1  0  0  0  0
 38 37  1  0  0  0  0
 38 40  1  0  0  0  0
 40 39  2  0  0  0  0
 41 40  1  0  0  0  0
 41 43  1  0  0  0  0
 43 42  1  6  0  0  0
 43 51  1  0  0  0  0
 44 45  1  0  0  0  0
 45 47  1  0  0  0  0
 46 43  1  6  0  0  0
 46 48  1  0  0  0  0
 46 49  1  0  0  0  0
 48 44  1  0  0  0  0
 49 47  2  0  0  0  0
 50 51  1  0  0  0  0
M  END
>  <MODEL>
1

>  <REMARK>
 VINA RESULT:      -8.3      0.000      0.000
  Name = 
  18 active torsions:
  status: ('A' for Active; 'I' for Inactive)
    1  A    between atoms: N_3  and  C_12
    2  A    between atoms: C_4  and  C_20
    3  A    between atoms: C_4  and  C_24
    4  A    between atoms: C_6  and  C_8
    5  A    between atoms: C_7  and  C_40
    6  A    between atoms: C_7  and  C_48
    7  A    between atoms: C_8  and  C_46
    8  A    between atoms: O_11  and  N_26
    9  A    between atoms: O_11  and  C_46
   10  A    between atoms: C_13  and  O_43
   11  A    between atoms: C_16  and  C_37
   12  A    between atoms: C_17  and  C_50
   13  A    between atoms: N_19  and  C_24
   14  A    between atoms: C_22  and  C_40
   15  A    between atoms: C_28  and  C_33
   16  A    between atoms: C_34  and  C_45
   17  A    between atoms: C_39  and  C_40
   18  A    between atoms: O_43  and  C_45
                            x       y       z     vdW  Elec       q    Type
                         _______ _______ _______ _____ _____    ______ ____

>  <TORSDO>
F 18

$$$$
=
 OpenBabel11032420483D

 51 54  0  0  1  0  0  0  0  0999 V2000
  186.9040  178.6000  140.9310 C   0  0  0  0  0  0  0  0  0  0  0  0
  188.8230  177.3490  141.1770 C   0  0  0  0  0  3  0  0  0  0  0  0
  187.8380  177.7590  140.1290 C   0  0  2  0  0  3  0  0  0  0  0  0
  188.4850  177.8790  142.3480 C   0  0  0  0  0  0  0  0  0  0  0  0
  187.2690  178.6670  142.2020 C   0  0  0  0  0  3  0  0  0  0  0  0
  181.5560  178.1080  140.4990 O   0  0  0  0  0  0  0  0  0  0  0  0
  185.7380  179.2240  140.3790 N   0  0  0  0  0  2  0  0  0  0  0  0
  183.3350  179.5110  139.9020 N   0  0  0  0  0  2  0  0  0  0  0  0
  184.3920  178.7460  140.4920 C   0  0  0  0  0  0  0  0  0  0  0  0
  184.1400  177.6710  141.1000 O   0  0  0  0  0  0  0  0  0  0  0  0
  181.9460  179.1660  139.9350 C   0  0  0  0  0  0  0  0  0  0  0  0
  180.9580  180.0790  139.2850 C   0  0  0  0  0  3  0  0  0  0  0  0
  181.6560  181.1170  138.4220 C   0  0  0  0  0  2  0  0  0  0  0  0
  179.7220  180.2510  137.2330 C   0  0  0  0  0  2  0  0  0  0  0  0
  180.0220  179.3110  138.3750 C   0  0  0  0  0  2  0  0  0  0  0  0
  180.9670  181.0960  137.0690 C   0  0  0  0  0  2  0  0  0  0  0  0
  190.7410  177.2040  145.9470 C   0  0  0  0  0  3  0  0  0  0  0  0
  188.5810  177.3750  144.8390 C   0  0  0  0  0  0  0  0  0  0  0  0
  189.2330  177.6570  143.6140 C   0  0  0  0  0  0  0  0  0  0  0  0
  191.3850  177.4910  144.7450 C   0  0  0  0  0  3  0  0  0  0  0  0
  190.6360  177.7140  143.5890 C   0  0  0  0  0  3  0  0  0  0  0  0
  189.3490  177.1480  145.9940 C   0  0  0  0  0  3  0  0  0  0  0  0
  187.1810  177.3370  144.9020 O   0  0  0  0  0  0  0  0  0  0  0  0
  186.4420  177.5490  146.1010 C   0  0  0  0  0  2  0  0  0  0  0  0
  184.8050  178.6440  144.6330 C   0  0  0  0  0  3  0  0  0  0  0  0
  185.3160  178.5010  145.8570 C   0  0  0  0  0  3  0  0  0  0  0  0
  183.6780  179.5900  144.3790 C   0  0  0  0  0  2  0  0  0  0  0  0
  182.4640  178.8430  143.8570 C   0  0  0  0  0  1  0  0  0  0  0  0
  188.5200  178.6060  139.0640 C   0  0  0  0  0  2  0  0  0  0  0  0
  189.9240  178.0940  138.8080 C   0  0  0  0  0  2  0  0  0  0  0  0
  190.7440  175.3870  138.8190 O   0  0  0  0  0  0  0  0  0  0  0  0
  190.3370  175.8600  137.7230 C   0  0  0  0  0  0  0  0  0  0  0  0
  189.9200  177.2240  137.6430 N   0  0  0  0  0  2  0  0  0  0  0  0
  190.2930  175.0090  136.5250 C   0  0  0  0  0  0  0  0  0  0  0  0
  190.5220  175.5130  135.3910 O   0  0  0  0  0  0  0  0  0  0  0  0
  189.9790  173.5510  136.6550 C   0  0  0  0  0  2  0  0  0  0  0  0
  189.6240  172.9990  135.4200 O   0  0  0  0  0  0  0  0  0  0  0  0
  188.2850  173.1920  135.3260 N   0  0  0  0  0  2  0  0  0  0  0  0
  187.7780  171.0010  135.9450 O   0  0  0  0  0  0  0  0  0  0  0  0
  187.3610  172.1490  135.6340 C   0  0  0  0  0  0  0  0  0  0  0  0
  185.8910  172.4160  135.5780 C   0  0  0  0  0  2  0  0  0  0  0  0
  186.2370  172.8690  137.9070 O   0  0  0  0  0  1  0  0  0  0  0  0
  185.3440  173.0780  136.8520 C   0  0  1  0  0  0  0  0  0  0  0  0
  186.1690  176.8710  136.7980 C   0  0  0  0  0  2  0  0  0  0  0  0
  184.9780  177.2890  137.4640 O   0  0  0  0  0  0  0  0  0  0  0  0
  185.1870  174.5950  136.6130 C   0  0  2  0  0  3  0  0  0  0  0  0
  183.8760  176.4370  137.6240 C   0  0  0  0  0  3  0  0  0  0  0  0
  186.4230  175.3880  137.0510 C   0  0  0  0  0  2  0  0  0  0  0  0
  183.9430  175.1550  137.2580 C   0  0  0  0  0  3  0  0  0  0  0  0
  183.8990  171.1420  136.7490 O   0  0  0  0  0  1  0  0  0  0  0  0
  183.9940  172.4540  137.2220 C   0  0  0  0  0  2  0  0  0  0  0  0
  1  5  2  0  0  0  0
  2  4  2  0  0  0  0
  3 29  1  6  0  0  0
  3  1  1  0  0  0  0
  3  2  1  0  0  0  0
  4 19  1  0  0  0  0
  5  4  1  0  0  0  0
  7  9  1  0  0  0  0
  7  1  1  0  0  0  0
  8 11  1  0  0  0  0
  8  9  1  0  0  0  0
  9 10  2  0  0  0  0
 11  6  2  0  0  0  0
 12 11  1  0  0  0  0
 13 12  1  0  0  0  0
 14 15  1  0  0  0  0
 15 12  1  0  0  0  0
 16 14  1  0  0  0  0
 16 13  1  0  0  0  0
 17 22  1  0  0  0  0
 18 23  1  0  0  0  0
 18 22  2  0  0  0  0
 19 18  1  0  0  0  0
 20 17  2  0  0  0  0
 21 19  2  0  0  0  0
 21 20  1  0  0  0  0
 23 24  1  0  0  0  0
 25 26  2  0  0  0  0
 26 24  1  0  0  0  0
 27 25  1  0  0  0  0
 28 27  1  0  0  0  0
 30 29  1  0  0  0  0
 32 31  2  0  0  0  0
 33 32  1  0  0  0  0
 33 30  1  0  0  0  0
 34 36  1  0  0  0  0
 34 32  1  0  0  0  0
 35 34  2  0  0  0  0
 37 36  1  0  0  0  0
 38 37  1  0  0  0  0
 38 40  1  0  0  0  0
 40 39  2  0  0  0  0
 41 40  1  0  0  0  0
 41 43  1  0  0  0  0
 43 51  1  0  0  0  0
 43 42  1  1  0  0  0
 44 48  1  0  0  0  0
 44 45  1  0  0  0  0
 45 47  1  0  0  0  0
 46 43  1  1  0  0  0
 46 48  1  0  0  0  0
 46 49  1  0  0  0  0
 49 47  2  0  0  0  0
 50 51  1  0  0  0  0
M  END
>  <MODEL>
2

>  <REMARK>
 VINA RESULT:      -8.2      2.514      7.171
  Name = 
  18 active torsions:
  status: ('A' for Active; 'I' for Inactive)
    1  A    between atoms: N_3  and  C_12
    2  A    between atoms: C_4  and  C_20
    3  A    between atoms: C_4  and  C_24
    4  A    between atoms: C_6  and  C_8
    5  A    between atoms: C_7  and  C_40
    6  A    between atoms: C_7  and  C_48
    7  A    between atoms: C_8  and  C_46
    8  A    between atoms: O_11  and  N_26
    9  A    between atoms: O_11  and  C_46
   10  A    between atoms: C_13  and  O_43
   11  A    between atoms: C_16  and  C_37
   12  A    between atoms: C_17  and  C_50
   13  A    between atoms: N_19  and  C_24
   14  A    between atoms: C_22  and  C_40
   15  A    between atoms: C_28  and  C_33
   16  A    between atoms: C_34  and  C_45
   17  A    between atoms: C_39  and  C_40
   18  A    between atoms: O_43  and  C_45
                            x       y       z     vdW  Elec       q    Type
                         _______ _______ _______ _____ _____    ______ ____

>  <TORSDO>
F 18

$$$$
=
 OpenBabel11032420483D

 51 54  0  0  1  0  0  0  0  0999 V2000
  187.2190  178.4150  140.6370 C   0  0  0  0  0  0  0  0  0  0  0  0
  189.2360  177.3570  140.9780 C   0  0  0  0  0  3  0  0  0  0  0  0
  188.2730  177.6800  139.8800 C   0  0  2  0  0  3  0  0  0  0  0  0
  188.7860  177.8370  142.1330 C   0  0  0  0  0  0  0  0  0  0  0  0
  187.5070  178.5040  141.9260 C   0  0  0  0  0  3  0  0  0  0  0  0
  181.8400  178.2860  140.9190 O   0  0  0  0  0  0  0  0  0  0  0  0
  186.0280  178.9290  140.0260 N   0  0  0  0  0  2  0  0  0  0  0  0
  183.6030  179.2580  139.7190 N   0  0  0  0  0  2  0  0  0  0  0  0
  184.6830  178.6340  140.4220 C   0  0  0  0  0  0  0  0  0  0  0  0
  184.4520  177.8400  141.3730 O   0  0  0  0  0  0  0  0  0  0  0  0
  182.2120  179.0670  140.0010 C   0  0  0  0  0  0  0  0  0  0  0  0
  181.2010  179.8040  139.1860 C   0  0  0  0  0  3  0  0  0  0  0  0
  181.7950  180.2710  137.8670 C   0  0  0  0  0  2  0  0  0  0  0  0
  179.5770  179.3610  137.4740 C   0  0  0  0  0  2  0  0  0  0  0  0
  180.0220  178.9170  138.8450 C   0  0  0  0  0  2  0  0  0  0  0  0
  180.8330  179.8350  136.7750 C   0  0  0  0  0  2  0  0  0  0  0  0
  190.9050  177.3530  145.8440 C   0  0  0  0  0  3  0  0  0  0  0  0
  188.8120  177.2440  144.6050 C   0  0  0  0  0  0  0  0  0  0  0  0
  189.4830  177.6750  143.4350 C   0  0  0  0  0  0  0  0  0  0  0  0
  191.5660  177.7860  144.6970 C   0  0  0  0  0  3  0  0  0  0  0  0
  190.8610  177.9450  143.5040 C   0  0  0  0  0  3  0  0  0  0  0  0
  189.5370  177.0840  145.7990 C   0  0  0  0  0  3  0  0  0  0  0  0
  187.4330  176.9920  144.5770 O   0  0  0  0  0  0  0  0  0  0  0  0
  186.5070  177.5800  145.4850 C   0  0  0  0  0  2  0  0  0  0  0  0
  184.2890  178.5370  145.0400 C   0  0  0  0  0  3  0  0  0  0  0  0
  185.5940  178.5170  144.7630 C   0  0  0  0  0  3  0  0  0  0  0  0
  183.3680  179.4720  144.3270 C   0  0  0  0  0  2  0  0  0  0  0  0
  182.0110  178.8260  144.1210 C   0  0  0  0  0  1  0  0  0  0  0  0
  188.9230  178.6020  138.8600 C   0  0  0  0  0  2  0  0  0  0  0  0
  188.5410  178.1800  137.4540 C   0  0  0  0  0  2  0  0  0  0  0  0
  190.4210  176.3430  136.4100 O   0  0  0  0  0  0  0  0  0  0  0  0
  189.3530  175.8670  136.8820 C   0  0  0  0  0  0  0  0  0  0  0  0
  188.3530  176.7390  137.4130 N   0  0  0  0  0  2  0  0  0  0  0  0
  189.1320  174.4140  136.8830 C   0  0  0  0  0  0  0  0  0  0  0  0
  189.9570  173.6550  137.4630 O   0  0  0  0  0  0  0  0  0  0  0  0
  187.9310  173.8410  136.1970 C   0  0  0  0  0  2  0  0  0  0  0  0
  187.0850  173.2020  137.1090 O   0  0  0  0  0  0  0  0  0  0  0  0
  186.1270  174.1190  137.3940 N   0  0  0  0  0  2  0  0  0  0  0  0
  184.4050  172.5460  137.3570 O   0  0  0  0  0  0  0  0  0  0  0  0
  184.7590  173.7400  137.5460 C   0  0  0  0  0  0  0  0  0  0  0  0
  183.7400  174.7680  137.9210 C   0  0  0  0  0  2  0  0  0  0  0  0
  183.8110  175.0960  135.5460 O   0  0  0  0  0  1  0  0  0  0  0  0
  183.1860  175.5420  136.7150 C   0  0  1  0  0  0  0  0  0  0  0  0
  179.4500  175.2490  137.7300 C   0  0  0  0  0  2  0  0  0  0  0  0
  179.2660  173.9260  137.2260 O   0  0  0  0  0  0  0  0  0  0  0  0
  181.6660  175.2970  136.6030 C   0  0  2  0  0  3  0  0  0  0  0  0
  180.1880  173.3240  136.3600 C   0  0  0  0  0  3  0  0  0  0  0  0
  180.9360  175.5350  137.9300 C   0  0  0  0  0  2  0  0  0  0  0  0
  181.3410  173.9260  136.0600 C   0  0  0  0  0  3  0  0  0  0  0  0
  184.8460  177.2790  136.9830 O   0  0  0  0  0  1  0  0  0  0  0  0
  183.4740  177.0390  136.8840 C   0  0  0  0  0  2  0  0  0  0  0  0
  1  5  2  0  0  0  0
  2  4  2  0  0  0  0
  3 29  1  6  0  0  0
  3  1  1  0  0  0  0
  3  2  1  0  0  0  0
  4 19  1  0  0  0  0
  5  4  1  0  0  0  0
  7  9  1  0  0  0  0
  7  1  1  0  0  0  0
  8 11  1  0  0  0  0
  8  9  1  0  0  0  0
  9 10  2  0  0  0  0
 11  6  2  0  0  0  0
 12 11  1  0  0  0  0
 13 12  1  0  0  0  0
 14 15  1  0  0  0  0
 15 12  1  0  0  0  0
 16 14  1  0  0  0  0
 16 13  1  0  0  0  0
 18 22  2  0  0  0  0
 19 21  2  0  0  0  0
 19 18  1  0  0  0  0
 20 17  2  0  0  0  0
 21 20  1  0  0  0  0
 22 17  1  0  0  0  0
 23 18  1  0  0  0  0
 23 24  1  0  0  0  0
 26 25  2  0  0  0  0
 26 24  1  0  0  0  0
 27 25  1  0  0  0  0
 28 27  1  0  0  0  0
 30 29  1  0  0  0  0
 31 32  2  0  0  0  0
 32 34  1  0  0  0  0
 32 33  1  0  0  0  0
 33 30  1  0  0  0  0
 34 35  2  0  0  0  0
 36 34  1  0  0  0  0
 36 37  1  0  0  0  0
 37 38  1  0  0  0  0
 38 40  1  0  0  0  0
 39 40  2  0  0  0  0
 40 41  1  0  0  0  0
 43 42  1  6  0  0  0
 43 51  1  0  0  0  0
 43 41  1  0  0  0  0
 44 48  1  0  0  0  0
 45 44  1  0  0  0  0
 46 43  1  1  0  0  0
 46 48  1  0  0  0  0
 47 45  1  0  0  0  0
 49 47  2  0  0  0  0
 49 46  1  0  0  0  0
 51 50  1  0  0  0  0
M  END
>  <MODEL>
3

>  <REMARK>
 VINA RESULT:      -8.0      2.489      6.430
  Name = 
  18 active torsions:
  status: ('A' for Active; 'I' for Inactive)
    1  A    between atoms: N_3  and  C_12
    2  A    between atoms: C_4  and  C_20
    3  A    between atoms: C_4  and  C_24
    4  A    between atoms: C_6  and  C_8
    5  A    between atoms: C_7  and  C_40
    6  A    between atoms: C_7  and  C_48
    7  A    between atoms: C_8  and  C_46
    8  A    between atoms: O_11  and  N_26
    9  A    between atoms: O_11  and  C_46
   10  A    between atoms: C_13  and  O_43
   11  A    between atoms: C_16  and  C_37
   12  A    between atoms: C_17  and  C_50
   13  A    between atoms: N_19  and  C_24
   14  A    between atoms: C_22  and  C_40
   15  A    between atoms: C_28  and  C_33
   16  A    between atoms: C_34  and  C_45
   17  A    between atoms: C_39  and  C_40
   18  A    between atoms: O_43  and  C_45
                            x       y       z     vdW  Elec       q    Type
                         _______ _______ _______ _____ _____    ______ ____

>  <TORSDO>
F 18

$$$$
=
 OpenBabel11032420483D

 51 54  0  0  1  0  0  0  0  0999 V2000
  183.8610  177.8970  138.5370 C   0  0  0  0  0  0  0  0  0  0  0  0
  182.2290  178.7930  139.8940 C   0  0  0  0  0  3  0  0  0  0  0  0
  183.3340  177.7850  139.9270 C   0  0  2  0  0  3  0  0  0  0  0  0
  182.1680  179.3590  138.6920 C   0  0  0  0  0  0  0  0  0  0  0  0
  183.1940  178.7930  137.8260 C   0  0  0  0  0  3  0  0  0  0  0  0
  188.8620  178.1710  136.5490 O   0  0  0  0  0  0  0  0  0  0  0  0
  184.9410  177.0950  138.0410 N   0  0  0  0  0  2  0  0  0  0  0  0
  187.1890  176.6370  137.1340 N   0  0  0  0  0  2  0  0  0  0  0  0
  186.2040  177.5810  137.5710 C   0  0  0  0  0  0  0  0  0  0  0  0
  186.4480  178.8180  137.5410 O   0  0  0  0  0  0  0  0  0  0  0  0
  188.4930  176.9690  136.6450 C   0  0  0  0  0  0  0  0  0  0  0  0
  189.4150  175.8660  136.2410 C   0  0  0  0  0  3  0  0  0  0  0  0
  190.8630  176.2320  136.5210 C   0  0  0  0  0  2  0  0  0  0  0  0
  190.4680  173.9350  137.2060 C   0  0  0  0  0  2  0  0  0  0  0  0
  189.1260  174.5990  137.0200 C   0  0  0  0  0  2  0  0  0  0  0  0
  191.4710  175.0660  137.2800 C   0  0  0  0  0  2  0  0  0  0  0  0
  179.3420  182.4180  137.6210 C   0  0  0  0  0  3  0  0  0  0  0  0
  179.8310  180.0600  137.9740 C   0  0  0  0  0  0  0  0  0  0  0  0
  181.1700  180.3890  138.3020 C   0  0  0  0  0  0  0  0  0  0  0  0
  180.6590  182.7430  137.9330 C   0  0  0  0  0  3  0  0  0  0  0  0
  181.5640  181.7370  138.2710 C   0  0  0  0  0  3  0  0  0  0  0  0
  178.9310  181.0860  137.6400 C   0  0  0  0  0  3  0  0  0  0  0  0
  179.4130  178.7220  137.9700 O   0  0  0  0  0  0  0  0  0  0  0  0
  179.1970  177.9700  136.7800 C   0  0  0  0  0  2  0  0  0  0  0  0
  180.5190  176.1760  137.8130 C   0  0  0  0  0  3  0  0  0  0  0  0
  179.5130  176.5280  137.0120 C   0  0  0  0  0  3  0  0  0  0  0  0
  180.8410  174.7380  138.0540 C   0  0  0  0  0  2  0  0  0  0  0  0
  179.6780  174.0380  138.7320 C   0  0  0  0  0  1  0  0  0  0  0  0
  184.4020  178.2040  140.9270 C   0  0  0  0  0  2  0  0  0  0  0  0
  183.7560  178.7030  142.2050 C   0  0  0  0  0  2  0  0  0  0  0  0
  183.1160  179.1300  144.9270 O   0  0  0  0  0  0  0  0  0  0  0  0
  184.3040  178.8030  144.6600 C   0  0  0  0  0  0  0  0  0  0  0  0
  184.7000  178.5850  143.3040 N   0  0  0  0  0  2  0  0  0  0  0  0
  185.2870  178.6500  145.7430 C   0  0  0  0  0  0  0  0  0  0  0  0
  185.4820  179.6000  146.5510 O   0  0  0  0  0  0  0  0  0  0  0  0
  186.0490  177.3700  145.8840 C   0  0  0  0  0  2  0  0  0  0  0  0
  187.2270  177.5600  146.6140 O   0  0  0  0  0  0  0  0  0  0  0  0
  188.1550  177.9100  145.6890 N   0  0  0  0  0  2  0  0  0  0  0  0
  189.9400  177.1320  146.9740 O   0  0  0  0  0  0  0  0  0  0  0  0
  189.5430  177.6450  145.8940 C   0  0  0  0  0  0  0  0  0  0  0  0
  190.5320  177.9890  144.8260 C   0  0  0  0  0  2  0  0  0  0  0  0
  189.5710  176.0060  143.8780 O   0  0  0  0  0  1  0  0  0  0  0  0
  190.4780  177.0380  143.6200 C   0  0  1  0  0  0  0  0  0  0  0  0
  188.1290  178.5800  140.9400 C   0  0  0  0  0  2  0  0  0  0  0  0
  188.8190  178.0380  139.8130 O   0  0  0  0  0  0  0  0  0  0  0  0
  190.0140  177.8210  142.3720 C   0  0  2  0  0  3  0  0  0  0  0  0
  190.1050  177.4910  139.9190 C   0  0  0  0  0  3  0  0  0  0  0  0
  188.4910  177.8030  142.2030 C   0  0  0  0  0  2  0  0  0  0  0  0
  190.6930  177.3490  141.1090 C   0  0  0  0  0  3  0  0  0  0  0  0
  191.9750  175.1790  144.0020 O   0  0  0  0  0  1  0  0  0  0  0  0
  191.8630  176.4260  143.3810 C   0  0  0  0  0  2  0  0  0  0  0  0
  1  3  1  0  0  0  0
  2  3  1  0  0  0  0
  3 29  1  1  0  0  0
  4  2  2  0  0  0  0
  5  1  2  0  0  0  0
  5  4  1  0  0  0  0
  6 11  2  0  0  0  0
  7  1  1  0  0  0  0
  8  9  1  0  0  0  0
  9  7  1  0  0  0  0
 10  9  2  0  0  0  0
 11  8  1  0  0  0  0
 12 13  1  0  0  0  0
 12 11  1  0  0  0  0
 12 15  1  0  0  0  0
 13 16  1  0  0  0  0
 14 16  1  0  0  0  0
 15 14  1  0  0  0  0
 17 22  2  0  0  0  0
 17 20  1  0  0  0  0
 18 19  2  0  0  0  0
 19  4  1  0  0  0  0
 20 21  2  0  0  0  0
 21 19  1  0  0  0  0
 22 18  1  0  0  0  0
 23 18  1  0  0  0  0
 24 26  1  0  0  0  0
 24 23  1  0  0  0  0
 25 27  1  0  0  0  0
 26 25  2  0  0  0  0
 27 28  1  0  0  0  0
 29 30  1  0  0  0  0
 30 33  1  0  0  0  0
 32 31  2  0  0  0  0
 32 34  1  0  0  0  0
 33 32  1  0  0  0  0
 34 36  1  0  0  0  0
 34 35  2  0  0  0  0
 36 37  1  0  0  0  0
 38 40  1  0  0  0  0
 38 37  1  0  0  0  0
 40 39  2  0  0  0  0
 41 40  1  0  0  0  0
 43 42  1  1  0  0  0
 43 41  1  0  0  0  0
 44 48  1  0  0  0  0
 45 47  1  0  0  0  0
 45 44  1  0  0  0  0
 46 43  1  1  0  0  0
 47 49  2  0  0  0  0
 48 46  1  0  0  0  0
 49 46  1  0  0  0  0
 51 43  1  0  0  0  0
 51 50  1  0  0  0  0
M  END
>  <MODEL>
4

>  <REMARK>
 VINA RESULT:      -7.7      2.526      9.395
  Name = 
  18 active torsions:
  status: ('A' for Active; 'I' for Inactive)
    1  A    between atoms: N_3  and  C_12
    2  A    between atoms: C_4  and  C_20
    3  A    between atoms: C_4  and  C_24
    4  A    between atoms: C_6  and  C_8
    5  A    between atoms: C_7  and  C_40
    6  A    between atoms: C_7  and  C_48
    7  A    between atoms: C_8  and  C_46
    8  A    between atoms: O_11  and  N_26
    9  A    between atoms: O_11  and  C_46
   10  A    between atoms: C_13  and  O_43
   11  A    between atoms: C_16  and  C_37
   12  A    between atoms: C_17  and  C_50
   13  A    between atoms: N_19  and  C_24
   14  A    between atoms: C_22  and  C_40
   15  A    between atoms: C_28  and  C_33
   16  A    between atoms: C_34  and  C_45
   17  A    between atoms: C_39  and  C_40
   18  A    between atoms: O_43  and  C_45
                            x       y       z     vdW  Elec       q    Type
                         _______ _______ _______ _____ _____    ______ ____

>  <TORSDO>
F 18

$$$$
=
 OpenBabel11032420483D

 51 54  0  0  1  0  0  0  0  0999 V2000
  190.2690  176.7590  141.2910 C   0  0  0  0  0  0  0  0  0  0  0  0
  189.6340  178.2990  142.8800 C   0  0  0  0  0  3  0  0  0  0  0  0
  189.7010  178.1330  141.3950 C   0  0  2  0  0  3  0  0  0  0  0  0
  190.0850  177.2020  143.4810 C   0  0  0  0  0  0  0  0  0  0  0  0
  190.4940  176.2250  142.4810 C   0  0  0  0  0  3  0  0  0  0  0  0
  193.8080  176.6750  137.2280 O   0  0  0  0  0  0  0  0  0  0  0  0
  190.5610  176.1230  140.0390 N   0  0  0  0  0  2  0  0  0  0  0  0
  191.8410  175.6490  137.9850 N   0  0  0  0  0  2  0  0  0  0  0  0
  191.6840  176.4010  139.1940 C   0  0  0  0  0  0  0  0  0  0  0  0
  192.5200  177.2900  139.5060 O   0  0  0  0  0  0  0  0  0  0  0  0
  192.9090  175.8090  137.0450 C   0  0  0  0  0  0  0  0  0  0  0  0
  192.9440  174.9360  135.8340 C   0  0  0  0  0  3  0  0  0  0  0  0
  194.3590  174.7930  135.3000 C   0  0  0  0  0  2  0  0  0  0  0  0
  193.2670  172.6230  135.2720 C   0  0  0  0  0  2  0  0  0  0  0  0
  192.4540  173.5390  136.1540 C   0  0  0  0  0  2  0  0  0  0  0  0
  194.6070  173.3070  135.1070 C   0  0  0  0  0  2  0  0  0  0  0  0
  190.4700  176.6630  147.7300 C   0  0  0  0  0  3  0  0  0  0  0  0
  189.0410  177.0200  145.7930 C   0  0  0  0  0  0  0  0  0  0  0  0
  190.1820  177.0350  144.9540 C   0  0  0  0  0  0  0  0  0  0  0  0
  191.5950  176.6870  146.9090 C   0  0  0  0  0  3  0  0  0  0  0  0
  191.4520  176.8710  145.5340 C   0  0  0  0  0  3  0  0  0  0  0  0
  189.2020  176.8300  147.1750 C   0  0  0  0  0  3  0  0  0  0  0  0
  187.7620  177.2080  145.2480 O   0  0  0  0  0  0  0  0  0  0  0  0
  186.8790  178.2480  145.6560 C   0  0  0  0  0  2  0  0  0  0  0  0
  185.7110  178.4090  143.5010 C   0  0  0  0  0  3  0  0  0  0  0  0
  185.6390  178.2340  144.8210 C   0  0  0  0  0  3  0  0  0  0  0  0
  184.4780  178.3940  142.6580 C   0  0  0  0  0  2  0  0  0  0  0  0
  184.7750  178.9370  141.2720 C   0  0  0  0  0  1  0  0  0  0  0  0
  188.3030  178.1680  140.7960 C   0  0  0  0  0  2  0  0  0  0  0  0
  188.3710  178.5610  139.3330 C   0  0  0  0  0  2  0  0  0  0  0  0
  186.5850  179.0350  137.1910 O   0  0  0  0  0  0  0  0  0  0  0  0
  186.8730  177.8340  137.4440 C   0  0  0  0  0  0  0  0  0  0  0  0
  187.7590  177.5220  138.5210 N   0  0  0  0  0  2  0  0  0  0  0  0
  186.2960  176.7520  136.6340 C   0  0  0  0  0  0  0  0  0  0  0  0
  186.9840  175.7260  136.3770 O   0  0  0  0  0  0  0  0  0  0  0  0
  184.8960  176.8710  136.1180 C   0  0  0  0  0  2  0  0  0  0  0  0
  183.9690  176.8700  137.1650 O   0  0  0  0  0  0  0  0  0  0  0  0
  183.1840  177.9510  136.9340 N   0  0  0  0  0  2  0  0  0  0  0  0
  181.2160  176.8170  137.4650 O   0  0  0  0  0  0  0  0  0  0  0  0
  181.7710  177.8980  137.1300 C   0  0  0  0  0  0  0  0  0  0  0  0
  180.9440  179.1270  136.9240 C   0  0  0  0  0  2  0  0  0  0  0  0
  182.1060  179.9980  138.8330 O   0  0  0  0  0  1  0  0  0  0  0  0
  180.8770  180.0280  138.1670 C   0  0  1  0  0  0  0  0  0  0  0  0
  180.1520  183.0760  135.8740 C   0  0  0  0  0  2  0  0  0  0  0  0
  181.1760  183.9120  136.4150 O   0  0  0  0  0  0  0  0  0  0  0  0
  180.5700  181.4770  137.7310 C   0  0  2  0  0  3  0  0  0  0  0  0
  181.8200  183.6120  137.6230 C   0  0  0  0  0  3  0  0  0  0  0  0
  180.4320  181.6140  136.2110 C   0  0  0  0  0  2  0  0  0  0  0  0
  181.5800  182.4650  138.2610 C   0  0  0  0  0  3  0  0  0  0  0  0
  180.3240  178.6380  140.0660 O   0  0  0  0  0  1  0  0  0  0  0  0
  179.7900  179.5170  139.1200 C   0  0  0  0  0  2  0  0  0  0  0  0
  1  3  1  0  0  0  0
  1  5  2  0  0  0  0
  2  4  2  0  0  0  0
  3 29  1  1  0  0  0
  3  2  1  0  0  0  0
  4 19  1  0  0  0  0
  5  4  1  0  0  0  0
  7  1  1  0  0  0  0
  8  9  1  0  0  0  0
  9 10  2  0  0  0  0
  9  7  1  0  0  0  0
 11  6  2  0  0  0  0
 11  8  1  0  0  0  0
 12 15  1  0  0  0  0
 12 11  1  0  0  0  0
 13 12  1  0  0  0  0
 14 15  1  0  0  0  0
 16 14  1  0  0  0  0
 16 13  1  0  0  0  0
 18 22  2  0  0  0  0
 19 21  2  0  0  0  0
 19 18  1  0  0  0  0
 20 17  2  0  0  0  0
 21 20  1  0  0  0  0
 22 17  1  0  0  0  0
 23 24  1  0  0  0  0
 23 18  1  0  0  0  0
 25 26  2  0  0  0  0
 26 24  1  0  0  0  0
 27 25  1  0  0  0  0
 28 27  1  0  0  0  0
 30 29  1  0  0  0  0
 31 32  2  0  0  0  0
 32 33  1  0  0  0  0
 33 30  1  0  0  0  0
 34 32  1  0  0  0  0
 35 34  2  0  0  0  0
 36 34  1  0  0  0  0
 36 37  1  0  0  0  0
 38 40  1  0  0  0  0
 38 37  1  0  0  0  0
 40 39  2  0  0  0  0
 41 40  1  0  0  0  0
 41 43  1  0  0  0  0
 43 42  1  1  0  0  0
 43 51  1  0  0  0  0
 44 48  1  0  0  0  0
 44 45  1  0  0  0  0
 45 47  1  0  0  0  0
 46 43  1  6  0  0  0
 46 49  1  0  0  0  0
 47 49  2  0  0  0  0
 48 46  1  0  0  0  0
 51 50  1  0  0  0  0
M  END
>  <MODEL>
5

>  <REMARK>
 VINA RESULT:      -7.6      1.551      2.225
  Name = 
  18 active torsions:
  status: ('A' for Active; 'I' for Inactive)
    1  A    between atoms: N_3  and  C_12
    2  A    between atoms: C_4  and  C_20
    3  A    between atoms: C_4  and  C_24
    4  A    between atoms: C_6  and  C_8
    5  A    between atoms: C_7  and  C_40
    6  A    between atoms: C_7  and  C_48
    7  A    between atoms: C_8  and  C_46
    8  A    between atoms: O_11  and  N_26
    9  A    between atoms: O_11  and  C_46
   10  A    between atoms: C_13  and  O_43
   11  A    between atoms: C_16  and  C_37
   12  A    between atoms: C_17  and  C_50
   13  A    between atoms: N_19  and  C_24
   14  A    between atoms: C_22  and  C_40
   15  A    between atoms: C_28  and  C_33
   16  A    between atoms: C_34  and  C_45
   17  A    between atoms: C_39  and  C_40
   18  A    between atoms: O_43  and  C_45
                            x       y       z     vdW  Elec       q    Type
                         _______ _______ _______ _____ _____    ______ ____

>  <TORSDO>
F 18

$$$$
=
 OpenBabel11032420483D

 51 54  0  0  1  0  0  0  0  0999 V2000
  183.0610  175.1520  137.1420 C   0  0  0  0  0  0  0  0  0  0  0  0
  184.3800  174.7940  135.2880 C   0  0  0  0  0  3  0  0  0  0  0  0
  183.3480  175.7450  135.8050 C   0  0  2  0  0  3  0  0  0  0  0  0
  184.6170  173.8480  136.1910 C   0  0  0  0  0  0  0  0  0  0  0  0
  183.7820  174.0650  137.3650 C   0  0  0  0  0  3  0  0  0  0  0  0
  182.4400  178.6560  141.1890 O   0  0  0  0  0  0  0  0  0  0  0  0
  182.0910  175.6940  138.0490 N   0  0  0  0  0  2  0  0  0  0  0  0
  181.2460  177.1380  139.8610 N   0  0  0  0  0  2  0  0  0  0  0  0
  182.3390  176.6830  139.0550 C   0  0  0  0  0  0  0  0  0  0  0  0
  183.4980  177.1470  139.2310 O   0  0  0  0  0  0  0  0  0  0  0  0
  181.3360  178.1200  140.8990 C   0  0  0  0  0  0  0  0  0  0  0  0
  180.0980  178.5020  141.6420 C   0  0  0  0  0  3  0  0  0  0  0  0
  180.0520  177.8380  143.0090 C   0  0  0  0  0  2  0  0  0  0  0  0
  179.3640  180.1590  143.2180 C   0  0  0  0  0  2  0  0  0  0  0  0
  180.0420  179.9960  141.8790 C   0  0  0  0  0  2  0  0  0  0  0  0
  179.7500  178.9330  144.0170 C   0  0  0  0  0  2  0  0  0  0  0  0
  187.2860  170.5220  135.6360 C   0  0  0  0  0  3  0  0  0  0  0  0
  186.9510  172.8410  136.2920 C   0  0  0  0  0  0  0  0  0  0  0  0
  185.5710  172.7240  135.9960 C   0  0  0  0  0  0  0  0  0  0  0  0
  185.9310  170.4070  135.3350 C   0  0  0  0  0  3  0  0  0  0  0  0
  185.0820  171.4980  135.5140 C   0  0  0  0  0  3  0  0  0  0  0  0
  187.7930  171.7310  136.1100 C   0  0  0  0  0  3  0  0  0  0  0  0
  187.4740  174.0590  136.7490 O   0  0  0  0  0  0  0  0  0  0  0  0
  188.6150  174.6900  136.1740 C   0  0  0  0  0  2  0  0  0  0  0  0
  190.5130  175.8400  137.2270 C   0  0  0  0  0  3  0  0  0  0  0  0
  189.7260  174.7650  137.1710 C   0  0  0  0  0  3  0  0  0  0  0  0
  191.6230  175.9270  138.2210 C   0  0  0  0  0  2  0  0  0  0  0  0
  192.8710  175.2480  137.6860 C   0  0  0  0  0  1  0  0  0  0  0  0
  183.9440  177.1360  135.9660 C   0  0  0  0  0  2  0  0  0  0  0  0
  185.4150  177.1210  135.5980 C   0  0  0  0  0  2  0  0  0  0  0  0
  188.0560  178.1130  135.4010 O   0  0  0  0  0  0  0  0  0  0  0  0
  187.5290  178.1060  136.5460 C   0  0  0  0  0  0  0  0  0  0  0  0
  186.2020  177.6060  136.7200 N   0  0  0  0  0  2  0  0  0  0  0  0
  188.2800  178.6090  137.7050 C   0  0  0  0  0  0  0  0  0  0  0  0
  189.0380  179.6090  137.5740 O   0  0  0  0  0  0  0  0  0  0  0  0
  188.1420  177.9340  139.0340 C   0  0  0  0  0  2  0  0  0  0  0  0
  189.2220  178.2360  139.8690 O   0  0  0  0  0  0  0  0  0  0  0  0
  188.9770  177.5530  141.0140 N   0  0  0  0  0  2  0  0  0  0  0  0
  191.2390  177.1910  141.4540 O   0  0  0  0  0  0  0  0  0  0  0  0
  190.0420  177.0550  141.8240 C   0  0  0  0  0  0  0  0  0  0  0  0
  189.7350  176.3590  143.1120 C   0  0  0  0  0  2  0  0  0  0  0  0
  190.0590  178.5790  143.9580 O   0  0  0  0  0  1  0  0  0  0  0  0
  189.9670  177.2400  144.3490 C   0  0  1  0  0  0  0  0  0  0  0  0
  186.4280  177.6440  145.8940 C   0  0  0  0  0  2  0  0  0  0  0  0
  186.8790  178.0380  147.1900 O   0  0  0  0  0  0  0  0  0  0  0  0
  188.7800  177.0760  145.3230 C   0  0  2  0  0  3  0  0  0  0  0  0
  188.2100  177.8760  147.5960 C   0  0  0  0  0  3  0  0  0  0  0  0
  187.5360  177.8470  144.8650 C   0  0  0  0  0  2  0  0  0  0  0  0
  189.1400  177.4480  146.7400 C   0  0  0  0  0  3  0  0  0  0  0  0
  191.8250  175.6970  144.4410 O   0  0  0  0  0  1  0  0  0  0  0  0
  191.2780  176.8380  145.0340 C   0  0  0  0  0  2  0  0  0  0  0  0
  1  5  2  0  0  0  0
  1  7  1  0  0  0  0
  2  3  1  0  0  0  0
  2  4  2  0  0  0  0
  3 29  1  1  0  0  0
  3  1  1  0  0  0  0
  4  5  1  0  0  0  0
  7  9  1  0  0  0  0
  8 11  1  0  0  0  0
  9 10  2  0  0  0  0
  9  8  1  0  0  0  0
 11  6  2  0  0  0  0
 11 12  1  0  0  0  0
 12 15  1  0  0  0  0
 12 13  1  0  0  0  0
 13 16  1  0  0  0  0
 14 16  1  0  0  0  0
 15 14  1  0  0  0  0
 17 22  1  0  0  0  0
 18 23  1  0  0  0  0
 19  4  1  0  0  0  0
 19 18  1  0  0  0  0
 20 21  1  0  0  0  0
 20 17  2  0  0  0  0
 21 19  2  0  0  0  0
 22 18  2  0  0  0  0
 24 23  1  0  0  0  0
 24 26  1  0  0  0  0
 25 27  1  0  0  0  0
 26 25  2  0  0  0  0
 28 27  1  0  0  0  0
 30 29  1  0  0  0  0
 30 33  1  0  0  0  0
 31 32  2  0  0  0  0
 32 33  1  0  0  0  0
 32 34  1  0  0  0  0
 34 36  1  0  0  0  0
 35 34  2  0  0  0  0
 36 37  1  0  0  0  0
 37 38  1  0  0  0  0
 38 40  1  0  0  0  0
 39 40  2  0  0  0  0
 40 41  1  0  0  0  0
 41 43  1  0  0  0  0
 43 42  1  6  0  0  0
 43 51  1  0  0  0  0
 44 45  1  0  0  0  0
 45 47  1  0  0  0  0
 46 43  1  6  0  0  0
 46 49  1  0  0  0  0
 48 46  1  0  0  0  0
 48 44  1  0  0  0  0
 49 47  2  0  0  0  0
 50 51  1  0  0  0  0
M  END
>  <MODEL>
6

>  <REMARK>
 VINA RESULT:      -7.5      2.640     10.234
  Name = 
  18 active torsions:
  status: ('A' for Active; 'I' for Inactive)
    1  A    between atoms: N_3  and  C_12
    2  A    between atoms: C_4  and  C_20
    3  A    between atoms: C_4  and  C_24
    4  A    between atoms: C_6  and  C_8
    5  A    between atoms: C_7  and  C_40
    6  A    between atoms: C_7  and  C_48
    7  A    between atoms: C_8  and  C_46
    8  A    between atoms: O_11  and  N_26
    9  A    between atoms: O_11  and  C_46
   10  A    between atoms: C_13  and  O_43
   11  A    between atoms: C_16  and  C_37
   12  A    between atoms: C_17  and  C_50
   13  A    between atoms: N_19  and  C_24
   14  A    between atoms: C_22  and  C_40
   15  A    between atoms: C_28  and  C_33
   16  A    between atoms: C_34  and  C_45
   17  A    between atoms: C_39  and  C_40
   18  A    between atoms: O_43  and  C_45
                            x       y       z     vdW  Elec       q    Type
                         _______ _______ _______ _____ _____    ______ ____

>  <TORSDO>
F 18

$$$$
=
 OpenBabel11032420483D

 51 54  0  0  1  0  0  0  0  0999 V2000
  185.7600  178.6410  142.3620 C   0  0  0  0  0  0  0  0  0  0  0  0
  187.5500  177.4110  143.1280 C   0  0  0  0  0  3  0  0  0  0  0  0
  186.8430  177.7510  141.8550 C   0  0  2  0  0  3  0  0  0  0  0  0
  186.9560  178.0160  144.1520 C   0  0  0  0  0  0  0  0  0  0  0  0
  185.8190  178.7920  143.6760 C   0  0  0  0  0  3  0  0  0  0  0  0
  181.2770  177.5320  139.5860 O   0  0  0  0  0  0  0  0  0  0  0  0
  184.7640  179.2280  141.5130 N   0  0  0  0  0  2  0  0  0  0  0  0
  182.7240  179.2940  140.1290 N   0  0  0  0  0  2  0  0  0  0  0  0
  183.6450  178.5480  140.9330 C   0  0  0  0  0  0  0  0  0  0  0  0
  183.4710  177.3140  141.1240 O   0  0  0  0  0  0  0  0  0  0  0  0
  181.5620  178.7560  139.4880 C   0  0  0  0  0  0  0  0  0  0  0  0
  180.6870  179.6690  138.6930 C   0  0  0  0  0  3  0  0  0  0  0  0
  180.8220  181.1070  139.1660 C   0  0  0  0  0  2  0  0  0  0  0  0
  180.8140  181.0580  136.7370 C   0  0  0  0  0  2  0  0  0  0  0  0
  181.0700  179.6540  137.2280 C   0  0  0  0  0  2  0  0  0  0  0  0
  181.0680  181.9540  137.9300 C   0  0  0  0  0  2  0  0  0  0  0  0
  188.1180  177.6970  148.2800 C   0  0  0  0  0  3  0  0  0  0  0  0
  188.6550  177.3670  145.9300 C   0  0  0  0  0  0  0  0  0  0  0  0
  187.3840  177.8760  145.5690 C   0  0  0  0  0  0  0  0  0  0  0  0
  186.8640  178.1900  147.9290 C   0  0  0  0  0  3  0  0  0  0  0  0
  186.5010  178.2790  146.5850 C   0  0  0  0  0  3  0  0  0  0  0  0
  189.0070  177.2870  147.2880 C   0  0  0  0  0  3  0  0  0  0  0  0
  189.5490  176.9320  144.9410 O   0  0  0  0  0  0  0  0  0  0  0  0
  190.9600  177.1000  145.0270 C   0  0  0  0  0  2  0  0  0  0  0  0
  191.3390  177.7200  142.6810 C   0  0  0  0  0  3  0  0  0  0  0  0
  191.5930  176.8860  143.6900 C   0  0  0  0  0  3  0  0  0  0  0  0
  191.9680  177.5170  141.3420 C   0  0  0  0  0  2  0  0  0  0  0  0
  190.9230  177.1130  140.3190 C   0  0  0  0  0  1  0  0  0  0  0  0
  187.7670  178.5270  140.9280 C   0  0  0  0  0  2  0  0  0  0  0  0
  187.1620  178.6160  139.5400 C   0  0  0  0  0  2  0  0  0  0  0  0
  187.6070  179.3590  136.8470 O   0  0  0  0  0  0  0  0  0  0  0  0
  188.1770  178.3110  137.2560 C   0  0  0  0  0  0  0  0  0  0  0  0
  187.9850  177.8710  138.6020 N   0  0  0  0  0  2  0  0  0  0  0  0
  189.0370  177.5390  136.3490 C   0  0  0  0  0  0  0  0  0  0  0  0
  188.7740  177.5030  135.1150 O   0  0  0  0  0  0  0  0  0  0  0  0
  190.2220  176.8010  136.8900 C   0  0  0  0  0  2  0  0  0  0  0  0
  190.3290  175.5290  136.3190 O   0  0  0  0  0  0  0  0  0  0  0  0
  191.5220  175.5360  135.6760 N   0  0  0  0  0  2  0  0  0  0  0  0
  192.3870  173.7860  136.9530 O   0  0  0  0  0  0  0  0  0  0  0  0
  192.5500  174.6030  136.0070 C   0  0  0  0  0  0  0  0  0  0  0  0
  193.8310  174.6010  135.2340 C   0  0  0  0  0  2  0  0  0  0  0  0
  194.4890  175.9400  137.1120 O   0  0  0  0  0  1  0  0  0  0  0  0
  194.9210  175.4830  135.8630 C   0  0  1  0  0  0  0  0  0  0  0  0
  197.8920  173.6840  137.5960 C   0  0  0  0  0  2  0  0  0  0  0  0
  198.9140  174.3000  136.8110 O   0  0  0  0  0  0  0  0  0  0  0  0
  196.2090  174.6520  136.0440 C   0  0  2  0  0  3  0  0  0  0  0  0
  198.6270  174.9900  135.6260 C   0  0  0  0  0  3  0  0  0  0  0  0
  196.6030  174.4960  137.5170 C   0  0  0  0  0  2  0  0  0  0  0  0
  197.3650  175.1980  135.2420 C   0  0  0  0  0  3  0  0  0  0  0  0
  195.2620  177.8710  135.7140 O   0  0  0  0  0  1  0  0  0  0  0  0
  195.1890  176.6950  134.9640 C   0  0  0  0  0  2  0  0  0  0  0  0
  1  5  2  0  0  0  0
  2  4  2  0  0  0  0
  3 29  1  6  0  0  0
  3  1  1  0  0  0  0
  3  2  1  0  0  0  0
  4 19  1  0  0  0  0
  5  4  1  0  0  0  0
  7  1  1  0  0  0  0
  8  9  1  0  0  0  0
  9 10  2  0  0  0  0
  9  7  1  0  0  0  0
 11  6  2  0  0  0  0
 11  8  1  0  0  0  0
 12 13  1  0  0  0  0
 12 11  1  0  0  0  0
 14 15  1  0  0  0  0
 14 16  1  0  0  0  0
 15 12  1  0  0  0  0
 16 13  1  0  0  0  0
 18 22  1  0  0  0  0
 19 18  2  0  0  0  0
 19 21  1  0  0  0  0
 20 17  1  0  0  0  0
 21 20  2  0  0  0  0
 22 17  2  0  0  0  0
 23 24  1  0  0  0  0
 23 18  1  0  0  0  0
 25 26  2  0  0  0  0
 26 24  1  0  0  0  0
 27 25  1  0  0  0  0
 28 27  1  0  0  0  0
 30 29  1  0  0  0  0
 31 32  2  0  0  0  0
 32 33  1  0  0  0  0
 33 30  1  0  0  0  0
 34 36  1  0  0  0  0
 34 32  1  0  0  0  0
 35 34  2  0  0  0  0
 37 36  1  0  0  0  0
 38 40  1  0  0  0  0
 38 37  1  0  0  0  0
 40 39  2  0  0  0  0
 41 43  1  0  0  0  0
 41 40  1  0  0  0  0
 43 42  1  1  0  0  0
 45 44  1  0  0  0  0
 46 43  1  1  0  0  0
 46 48  1  0  0  0  0
 47 45  1  0  0  0  0
 48 44  1  0  0  0  0
 49 47  2  0  0  0  0
 49 46  1  0  0  0  0
 51 50  1  0  0  0  0
 51 43  1  0  0  0  0
M  END
>  <MODEL>
7

>  <REMARK>
 VINA RESULT:      -7.4      2.266     10.153
  Name = 
  18 active torsions:
  status: ('A' for Active; 'I' for Inactive)
    1  A    between atoms: N_3  and  C_12
    2  A    between atoms: C_4  and  C_20
    3  A    between atoms: C_4  and  C_24
    4  A    between atoms: C_6  and  C_8
    5  A    between atoms: C_7  and  C_40
    6  A    between atoms: C_7  and  C_48
    7  A    between atoms: C_8  and  C_46
    8  A    between atoms: O_11  and  N_26
    9  A    between atoms: O_11  and  C_46
   10  A    between atoms: C_13  and  O_43
   11  A    between atoms: C_16  and  C_37
   12  A    between atoms: C_17  and  C_50
   13  A    between atoms: N_19  and  C_24
   14  A    between atoms: C_22  and  C_40
   15  A    between atoms: C_28  and  C_33
   16  A    between atoms: C_34  and  C_45
   17  A    between atoms: C_39  and  C_40
   18  A    between atoms: O_43  and  C_45
                            x       y       z     vdW  Elec       q    Type
                         _______ _______ _______ _____ _____    ______ ____

>  <TORSDO>
F 18

$$$$
=
 OpenBabel11032420483D

 51 54  0  0  1  0  0  0  0  0999 V2000
  189.8370  177.0930  139.9850 C   0  0  0  0  0  0  0  0  0  0  0  0
  189.8090  176.4420  137.7760 C   0  0  0  0  0  3  0  0  0  0  0  0
  188.9550  177.1430  138.7840 C   0  0  2  0  0  3  0  0  0  0  0  0
  190.9600  176.0770  138.3320 C   0  0  0  0  0  0  0  0  0  0  0  0
  190.9830  176.4810  139.7320 C   0  0  0  0  0  3  0  0  0  0  0  0
  190.2420  176.2480  145.2910 O   0  0  0  0  0  0  0  0  0  0  0  0
  189.4550  177.6230  141.2620 N   0  0  0  0  0  2  0  0  0  0  0  0
  189.3450  177.7410  143.7230 N   0  0  0  0  0  2  0  0  0  0  0  0
  189.7840  177.0650  142.5390 C   0  0  0  0  0  0  0  0  0  0  0  0
  190.4490  175.9970  142.6220 O   0  0  0  0  0  0  0  0  0  0  0  0
  189.5990  177.3090  145.0640 C   0  0  0  0  0  0  0  0  0  0  0  0
  189.0870  178.1340  146.1980 C   0  0  0  0  0  3  0  0  0  0  0  0
  187.5710  178.0750  146.2790 C   0  0  0  0  0  2  0  0  0  0  0  0
  188.5030  177.8760  148.5130 C   0  0  0  0  0  2  0  0  0  0  0  0
  189.6160  177.6280  147.5240 C   0  0  0  0  0  2  0  0  0  0  0  0
  187.2210  177.7450  147.7190 C   0  0  0  0  0  2  0  0  0  0  0  0
  194.1380  174.0290  136.2820 C   0  0  0  0  0  3  0  0  0  0  0  0
  191.7670  174.2160  136.7990 C   0  0  0  0  0  0  0  0  0  0  0  0
  192.0350  175.3360  137.6220 C   0  0  0  0  0  0  0  0  0  0  0  0
  194.4060  175.1250  137.0990 C   0  0  0  0  0  3  0  0  0  0  0  0
  193.3640  175.7720  137.7620 C   0  0  0  0  0  3  0  0  0  0  0  0
  192.8270  173.5770  136.1340 C   0  0  0  0  0  3  0  0  0  0  0  0
  190.4550  173.7390  136.6600 O   0  0  0  0  0  0  0  0  0  0  0  0
  190.0630  172.7920  135.6710 C   0  0  0  0  0  2  0  0  0  0  0  0
  187.6540  173.1450  135.9970 C   0  0  0  0  0  3  0  0  0  0  0  0
  188.6810  172.2950  135.9460 C   0  0  0  0  0  3  0  0  0  0  0  0
  186.2690  172.6580  136.2680 C   0  0  0  0  0  2  0  0  0  0  0  0
  185.7610  173.2070  137.5880 C   0  0  0  0  0  1  0  0  0  0  0  0
  188.7210  178.5870  138.3660 C   0  0  0  0  0  2  0  0  0  0  0  0
  188.2120  178.6430  136.9380 C   0  0  0  0  0  2  0  0  0  0  0  0
  187.3970  176.5000  135.2820 O   0  0  0  0  0  0  0  0  0  0  0  0
  186.5210  177.0140  136.0300 C   0  0  0  0  0  0  0  0  0  0  0  0
  186.8610  178.1080  136.8830 N   0  0  0  0  0  2  0  0  0  0  0  0
  185.1480  176.4890  136.0230 C   0  0  0  0  0  0  0  0  0  0  0  0
  184.7850  175.6950  135.1120 O   0  0  0  0  0  0  0  0  0  0  0  0
  184.1870  176.8970  137.0960 C   0  0  0  0  0  2  0  0  0  0  0  0
  183.3190  177.8960  136.6440 O   0  0  0  0  0  0  0  0  0  0  0  0
  182.5830  178.2330  137.7320 N   0  0  0  0  0  2  0  0  0  0  0  0
  184.3200  179.4410  138.7150 O   0  0  0  0  0  0  0  0  0  0  0  0
  183.1200  179.0580  138.7660 C   0  0  0  0  0  0  0  0  0  0  0  0
  182.2590  179.4590  139.9210 C   0  0  0  0  0  2  0  0  0  0  0  0
  182.8060  177.2320  140.6220 O   0  0  0  0  0  1  0  0  0  0  0  0
  182.2790  178.4450  141.0750 C   0  0  1  0  0  0  0  0  0  0  0  0
  185.2960  178.8390  143.4860 C   0  0  0  0  0  2  0  0  0  0  0  0
  184.5310  178.7720  144.6900 O   0  0  0  0  0  0  0  0  0  0  0  0
  183.1630  178.9890  142.2180 C   0  0  2  0  0  3  0  0  0  0  0  0
  183.1350  178.9050  144.6930 C   0  0  0  0  0  3  0  0  0  0  0  0
  184.5030  178.2510  142.3230 C   0  0  0  0  0  2  0  0  0  0  0  0
  182.4520  178.9860  143.5490 C   0  0  0  0  0  3  0  0  0  0  0  0
  180.1270  177.4200  140.6710 O   0  0  0  0  0  1  0  0  0  0  0  0
  180.8500  178.2020  141.5750 C   0  0  0  0  0  2  0  0  0  0  0  0
  1  7  1  0  0  0  0
  2  4  2  0  0  0  0
  2  3  1  0  0  0  0
  3 29  1  6  0  0  0
  3  1  1  0  0  0  0
  4  5  1  0  0  0  0
  5  1  2  0  0  0  0
  7  9  1  0  0  0  0
  8 11  1  0  0  0  0
  9 10  2  0  0  0  0
  9  8  1  0  0  0  0
 11  6  2  0  0  0  0
 11 12  1  0  0  0  0
 12 13  1  0  0  0  0
 12 15  1  0  0  0  0
 13 16  1  0  0  0  0
 15 14  1  0  0  0  0
 16 14  1  0  0  0  0
 17 20  1  0  0  0  0
 18 19  2  0  0  0  0
 19 21  1  0  0  0  0
 19  4  1  0  0  0  0
 20 21  2  0  0  0  0
 22 17  2  0  0  0  0
 22 18  1  0  0  0  0
 23 18  1  0  0  0  0
 24 26  1  0  0  0  0
 24 23  1  0  0  0  0
 25 27  1  0  0  0  0
 26 25  2  0  0  0  0
 27 28  1  0  0  0  0
 30 29  1  0  0  0  0
 31 32  2  0  0  0  0
 32 33  1  0  0  0  0
 33 30  1  0  0  0  0
 34 32  1  0  0  0  0
 34 36  1  0  0  0  0
 35 34  2  0  0  0  0
 37 36  1  0  0  0  0
 37 38  1  0  0  0  0
 38 40  1  0  0  0  0
 39 40  2  0  0  0  0
 40 41  1  0  0  0  0
 41 43  1  0  0  0  0
 43 42  1  6  0  0  0
 43 51  1  0  0  0  0
 44 45  1  0  0  0  0
 45 47  1  0  0  0  0
 46 43  1  6  0  0  0
 46 48  1  0  0  0  0
 46 49  1  0  0  0  0
 48 44  1  0  0  0  0
 49 47  2  0  0  0  0
 50 51  1  0  0  0  0
M  END
>  <MODEL>
8

>  <REMARK>
 VINA RESULT:      -7.2      2.105      7.445
  Name = 
  18 active torsions:
  status: ('A' for Active; 'I' for Inactive)
    1  A    between atoms: N_3  and  C_12
    2  A    between atoms: C_4  and  C_20
    3  A    between atoms: C_4  and  C_24
    4  A    between atoms: C_6  and  C_8
    5  A    between atoms: C_7  and  C_40
    6  A    between atoms: C_7  and  C_48
    7  A    between atoms: C_8  and  C_46
    8  A    between atoms: O_11  and  N_26
    9  A    between atoms: O_11  and  C_46
   10  A    between atoms: C_13  and  O_43
   11  A    between atoms: C_16  and  C_37
   12  A    between atoms: C_17  and  C_50
   13  A    between atoms: N_19  and  C_24
   14  A    between atoms: C_22  and  C_40
   15  A    between atoms: C_28  and  C_33
   16  A    between atoms: C_34  and  C_45
   17  A    between atoms: C_39  and  C_40
   18  A    between atoms: O_43  and  C_45
                            x       y       z     vdW  Elec       q    Type
                         _______ _______ _______ _____ _____    ______ ____

>  <TORSDO>
F 18

$$$$
=
 OpenBabel11032420483D

 51 54  0  0  1  0  0  0  0  0999 V2000
  183.7220  177.7410  137.8370 C   0  0  0  0  0  0  0  0  0  0  0  0
  183.6420  179.3340  139.4980 C   0  0  0  0  0  3  0  0  0  0  0  0
  184.5560  178.2880  138.9450 C   0  0  2  0  0  3  0  0  0  0  0  0
  182.5060  179.3550  138.8070 C   0  0  0  0  0  0  0  0  0  0  0  0
  182.5470  178.3450  137.7570 C   0  0  0  0  0  3  0  0  0  0  0  0
  183.6750  172.3740  137.3460 O   0  0  0  0  0  0  0  0  0  0  0  0
  184.1490  176.6640  136.9910 N   0  0  0  0  0  2  0  0  0  0  0  0
  184.3960  174.3220  136.2590 N   0  0  0  0  0  2  0  0  0  0  0  0
  183.9250  175.2690  137.2250 C   0  0  0  0  0  0  0  0  0  0  0  0
  183.3260  174.8780  138.2630 O   0  0  0  0  0  0  0  0  0  0  0  0
  184.2440  172.9010  136.3520 C   0  0  0  0  0  0  0  0  0  0  0  0
  184.7770  172.0440  135.2510 C   0  0  0  0  0  3  0  0  0  0  0  0
  186.2500  172.3230  135.0020 C   0  0  0  0  0  2  0  0  0  0  0  0
  185.8680  169.9240  134.9660 C   0  0  0  0  0  2  0  0  0  0  0  0
  184.6620  170.5750  135.5980 C   0  0  0  0  0  2  0  0  0  0  0  0
  186.9550  170.9780  134.9900 C   0  0  0  0  0  2  0  0  0  0  0  0
  179.2590  182.0570  139.6150 C   0  0  0  0  0  3  0  0  0  0  0  0
  180.4260  179.9840  140.1290 C   0  0  0  0  0  0  0  0  0  0  0  0
  181.3630  180.2580  139.1030 C   0  0  0  0  0  0  0  0  0  0  0  0
  180.1740  182.3250  138.5990 C   0  0  0  0  0  3  0  0  0  0  0  0
  181.2160  181.4330  138.3460 C   0  0  0  0  0  3  0  0  0  0  0  0
  179.3840  180.8940  140.3740 C   0  0  0  0  0  3  0  0  0  0  0  0
  180.5300  178.8070  140.8840 O   0  0  0  0  0  0  0  0  0  0  0  0
  180.8100  178.7900  142.2800 C   0  0  0  0  0  2  0  0  0  0  0  0
  182.7610  178.9810  143.7600 C   0  0  0  0  0  3  0  0  0  0  0  0
  182.2680  179.0100  142.5210 C   0  0  0  0  0  3  0  0  0  0  0  0
  184.2170  179.1960  144.0110 C   0  0  0  0  0  2  0  0  0  0  0  0
  185.0420  178.6470  142.8620 C   0  0  0  0  0  1  0  0  0  0  0  0
  185.8160  178.9300  138.3830 C   0  0  0  0  0  2  0  0  0  0  0  0
  186.5810  177.9300  137.5380 C   0  0  0  0  0  2  0  0  0  0  0  0
  188.5400  176.1930  136.4690 O   0  0  0  0  0  0  0  0  0  0  0  0
  188.8700  176.8850  137.4690 C   0  0  0  0  0  0  0  0  0  0  0  0
  187.9260  177.7740  138.0680 N   0  0  0  0  0  2  0  0  0  0  0  0
  190.2280  176.7760  138.0240 C   0  0  0  0  0  0  0  0  0  0  0  0
  191.2240  177.0460  137.2990 O   0  0  0  0  0  0  0  0  0  0  0  0
  190.4210  176.3480  139.4460 C   0  0  0  0  0  2  0  0  0  0  0  0
  191.1610  177.2930  140.1630 O   0  0  0  0  0  0  0  0  0  0  0  0
  190.3570  177.6550  141.1920 N   0  0  0  0  0  2  0  0  0  0  0  0
  192.1240  177.8170  142.7070 O   0  0  0  0  0  0  0  0  0  0  0  0
  190.8910  177.9490  142.4830 C   0  0  0  0  0  0  0  0  0  0  0  0
  189.9800  178.4040  143.5790 C   0  0  0  0  0  2  0  0  0  0  0  0
  190.4820  176.3850  144.7720 O   0  0  0  0  0  1  0  0  0  0  0  0
  189.4360  177.2500  144.4360 C   0  0  1  0  0  0  0  0  0  0  0  0
  188.5880  177.6830  148.1990 C   0  0  0  0  0  2  0  0  0  0  0  0
  187.1700  177.6790  148.0310 O   0  0  0  0  0  0  0  0  0  0  0  0
  188.8140  177.8230  145.7270 C   0  0  2  0  0  3  0  0  0  0  0  0
  186.5690  177.8380  146.7750 C   0  0  0  0  0  3  0  0  0  0  0  0
  189.2670  177.0640  146.9810 C   0  0  0  0  0  2  0  0  0  0  0  0
  187.3070  177.8860  145.6630 C   0  0  0  0  0  3  0  0  0  0  0  0
  188.9700  175.3900  142.9630 O   0  0  0  0  0  1  0  0  0  0  0  0
  188.3870  176.4650  143.6400 C   0  0  0  0  0  2  0  0  0  0  0  0
  1  3  1  0  0  0  0
  3 29  1  6  0  0  0
  3  2  1  0  0  0  0
  4 19  1  0  0  0  0
  4  2  2  0  0  0  0
  5  1  2  0  0  0  0
  5  4  1  0  0  0  0
  7  9  1  0  0  0  0
  7  1  1  0  0  0  0
  8 11  1  0  0  0  0
  8  9  1  0  0  0  0
  9 10  2  0  0  0  0
 11  6  2  0  0  0  0
 12 15  1  0  0  0  0
 12 11  1  0  0  0  0
 13 12  1  0  0  0  0
 14 16  1  0  0  0  0
 14 15  1  0  0  0  0
 16 13  1  0  0  0  0
 17 22  1  0  0  0  0
 18 22  2  0  0  0  0
 18 23  1  0  0  0  0
 19 18  1  0  0  0  0
 20 17  2  0  0  0  0
 21 20  1  0  0  0  0
 21 19  2  0  0  0  0
 23 24  1  0  0  0  0
 24 26  1  0  0  0  0
 25 27  1  0  0  0  0
 26 25  2  0  0  0  0
 28 27  1  0  0  0  0
 30 33  1  0  0  0  0
 30 29  1  0  0  0  0
 31 32  2  0  0  0  0
 32 34  1  0  0  0  0
 32 33  1  0  0  0  0
 34 36  1  0  0  0  0
 35 34  2  0  0  0  0
 36 37  1  0  0  0  0
 37 38  1  0  0  0  0
 38 40  1  0  0  0  0
 40 39  2  0  0  0  0
 40 41  1  0  0  0  0
 41 43  1  0  0  0  0
 43 42  1  1  0  0  0
 45 44  1  0  0  0  0
 46 43  1  6  0  0  0
 46 48  1  0  0  0  0
 47 45  1  0  0  0  0
 48 44  1  0  0  0  0
 49 46  1  0  0  0  0
 49 47  2  0  0  0  0
 50 51  1  0  0  0  0
 51 43  1  0  0  0  0
M  END
>  <MODEL>
9

>  <REMARK>
 VINA RESULT:      -7.2      2.473      8.684
  Name = 
  18 active torsions:
  status: ('A' for Active; 'I' for Inactive)
    1  A    between atoms: N_3  and  C_12
    2  A    between atoms: C_4  and  C_20
    3  A    between atoms: C_4  and  C_24
    4  A    between atoms: C_6  and  C_8
    5  A    between atoms: C_7  and  C_40
    6  A    between atoms: C_7  and  C_48
    7  A    between atoms: C_8  and  C_46
    8  A    between atoms: O_11  and  N_26
    9  A    between atoms: O_11  and  C_46
   10  A    between atoms: C_13  and  O_43
   11  A    between atoms: C_16  and  C_37
   12  A    between atoms: C_17  and  C_50
   13  A    between atoms: N_19  and  C_24
   14  A    between atoms: C_22  and  C_40
   15  A    between atoms: C_28  and  C_33
   16  A    between atoms: C_34  and  C_45
   17  A    between atoms: C_39  and  C_40
   18  A    between atoms: O_43  and  C_45
                            x       y       z     vdW  Elec       q    Type
                         _______ _______ _______ _____ _____    ______ ____

>  <TORSDO>
F 18

$$$$
