=
 OpenBabel11032419113D

 42 44  0  0  1  0  0  0  0  0999 V2000
  187.3550  178.2570  138.9860 C   0  0  0  0  0  2  0  0  0  0  0  0
  188.6730  175.3830  135.5420 C   0  0  0  0  0  0  0  0  0  0  0  0
  186.2770  176.1550  136.7570 C   0  0  0  0  0  0  0  0  0  0  0  0
  188.9570  178.7370  137.1540 N   0  0  0  0  0  0  0  0  0  0  0  0
  189.6100  177.6400  136.4190 C   0  0  0  0  0  3  0  0  0  0  0  0
  188.5770  176.5950  136.2380 C   0  0  0  0  0  0  0  0  0  0  0  0
  184.9850  176.5590  137.3800 C   0  0  0  0  0  1  0  0  0  0  0  0
  187.5340  174.5650  135.4950 C   0  0  0  0  0  3  0  0  0  0  0  0
  187.4100  176.9780  136.8230 C   0  0  0  0  0  0  0  0  0  0  0  0
  186.3730  174.9650  136.0990 N   0  0  0  0  0  0  0  0  0  0  0  0
  187.5820  178.3040  137.4680 C   0  0  1  0  0  3  0  0  0  0  0  0
  189.9300  174.9590  134.8580 C   0  0  0  0  0  2  0  0  0  0  0  0
  190.3760  173.5990  135.3780 C   0  0  0  0  0  2  0  0  0  0  0  0
  190.9840  174.5230  138.0080 O   0  0  0  0  0  0  0  0  0  0  0  0
  191.9550  174.2390  137.2560 C   0  0  0  0  0  0  0  0  0  0  0  0
  194.4990  174.2000  137.0100 C   0  0  0  0  0  0  0  0  0  0  0  0
  191.7110  173.6900  135.9490 N   0  0  0  0  0  2  0  0  0  0  0  0
  193.2890  174.4310  137.7440 N   0  0  0  0  0  2  0  0  0  0  0  0
  194.4720  173.9200  135.7850 O   0  0  0  0  0  0  0  0  0  0  0  0
  195.8220  174.3800  137.6820 C   0  0  0  0  0  2  0  0  0  0  0  0
  196.6140  175.2560  136.9290 O   0  0  0  0  0  1  0  0  0  0  0  0
  188.6450  178.3650  139.7990 C   0  0  0  0  0  2  0  0  0  0  0  0
  189.2230  176.9900  140.0860 C   0  0  0  0  0  2  0  0  0  0  0  0
  191.5140  177.5480  141.3510 O   0  0  0  0  0  0  0  0  0  0  0  0
  190.2270  175.6250  142.1530 O   0  0  0  0  0  0  0  0  0  0  0  0
  190.1320  177.0220  141.6100 S   0  0  0  0  0  0  0  0  0  0  0  0
  189.3090  178.0540  142.7410 N   0  0  0  0  0  2  0  0  0  0  0  0
  189.4240  177.4610  144.0660 C   0  0  2  0  0  3  0  0  0  0  0  0
  188.1870  177.7260  144.8800 C   0  0  0  0  0  0  0  0  0  0  0  0
  185.9480  178.1480  146.5280 C   0  0  0  0  0  0  0  0  0  0  0  0
  184.8630  178.3310  147.3300 F   0  0  0  0  0  0  0  0  0  0  0  0
  186.6760  177.7730  142.8490 C   0  0  0  0  0  1  0  0  0  0  0  0
  188.3380  177.8290  146.2700 C   0  0  0  0  0  3  0  0  0  0  0  0
  187.2270  178.0420  147.0930 C   0  0  0  0  0  3  0  0  0  0  0  0
  185.7880  178.0570  145.1460 C   0  0  0  0  0  3  0  0  0  0  0  0
  186.8980  177.8500  144.3150 C   0  0  0  0  0  0  0  0  0  0  0  0
  190.6900  177.9360  144.7730 C   0  0  0  0  0  2  0  0  0  0  0  0
  191.8560  175.8780  144.4780 O   0  0  0  0  0  0  0  0  0  0  0  0
  191.4590  176.7640  145.2840 C   0  0  0  0  0  0  0  0  0  0  0  0
  191.7160  176.6350  146.6850 N   0  0  0  0  0  2  0  0  0  0  0  0
  192.9340  175.8960  148.6650 C   0  0  0  0  0  1  0  0  0  0  0  0
  192.5230  175.5590  147.2440 C   0  0  0  0  0  2  0  0  0  0  0  0
  1 22  1  0  0  0  0
  2  6  1  0  0  0  0
  3  9  1  0  0  0  0
  3  7  1  0  0  0  0
  4 11  1  0  0  0  0
  5  4  2  0  0  0  0
  6  5  1  0  0  0  0
  6  9  2  0  0  0  0
  8  2  2  0  0  0  0
  8 10  1  0  0  0  0
  9 11  1  0  0  0  0
 10  3  2  0  0  0  0
 11  1  1  1  0  0  0
 12 13  1  0  0  0  0
 12  2  1  0  0  0  0
 13 17  1  0  0  0  0
 15 18  1  0  0  0  0
 15 14  2  0  0  0  0
 16 20  1  0  0  0  0
 16 18  1  0  0  0  0
 17 15  1  0  0  0  0
 19 16  2  0  0  0  0
 21 20  1  0  0  0  0
 22 23  1  0  0  0  0
 23 26  1  0  0  0  0
 24 26  2  0  0  0  0
 26 25  2  0  0  0  0
 26 27  1  0  0  0  0
 27 28  1  0  0  0  0
 28 37  1  1  0  0  0
 28 29  1  0  0  0  0
 29 33  1  0  0  0  0
 30 34  1  0  0  0  0
 30 31  1  0  0  0  0
 32 36  1  0  0  0  0
 33 34  2  0  0  0  0
 35 30  2  0  0  0  0
 36 29  2  0  0  0  0
 36 35  1  0  0  0  0
 37 39  1  0  0  0  0
 38 39  2  0  0  0  0
 39 40  1  0  0  0  0
 40 42  1  0  0  0  0
 42 41  1  0  0  0  0
M  END
>  <MODEL>
1

>  <REMARK>
 VINA RESULT:      -8.3      0.000      0.000
  Name = 
  14 active torsions:
  status: ('A' for Active; 'I' for Inactive)
    1  A    between atoms: C_1  and  C_39
    2  A    between atoms: C_2  and  C_15
    3  A    between atoms: C_2  and  C_40
    4  A    between atoms: C_5  and  C_29
    5  A    between atoms: C_8  and  C_37
    6  A    between atoms: C_12  and  N_26
    7  A    between atoms: C_14  and  C_15
    8  A    between atoms: C_14  and  S_36
    9  A    between atoms: C_23  and  C_24
   10  A    between atoms: C_23  and  C_37
   11  A    between atoms: N_32  and  C_38
   12  A    between atoms: S_36  and  N_41
   13  A    between atoms: C_37  and  N_41
   14  A    between atoms: C_38  and  C_39
                            x       y       z     vdW  Elec       q    Type
                         _______ _______ _______ _____ _____    ______ ____

>  <TORSDO>
F 14

$$$$
=
 OpenBabel11032419113D

 42 44  0  0  1  0  0  0  0  0999 V2000
  188.2530  178.2340  140.2350 C   0  0  0  0  0  2  0  0  0  0  0  0
  187.2120  176.6830  135.9490 C   0  0  0  0  0  0  0  0  0  0  0  0
  185.8520  177.8830  138.0760 C   0  0  0  0  0  0  0  0  0  0  0  0
  189.5170  178.6370  138.1380 N   0  0  0  0  0  0  0  0  0  0  0  0
  189.3450  177.7530  136.9740 C   0  0  0  0  0  3  0  0  0  0  0  0
  187.9010  177.4320  136.9120 C   0  0  0  0  0  0  0  0  0  0  0  0
  185.1070  178.5330  139.1910 C   0  0  0  0  0  1  0  0  0  0  0  0
  185.8250  176.5400  136.1020 C   0  0  0  0  0  3  0  0  0  0  0  0
  187.2400  178.0250  137.9440 C   0  0  0  0  0  0  0  0  0  0  0  0
  185.1820  177.1370  137.1530 N   0  0  0  0  0  0  0  0  0  0  0  0
  188.2030  178.7680  138.7960 C   0  0  1  0  0  3  0  0  0  0  0  0
  187.9070  176.0570  134.7860 C   0  0  0  0  0  2  0  0  0  0  0  0
  188.3330  174.6370  135.1330 C   0  0  0  0  0  2  0  0  0  0  0  0
  189.1760  173.1360  137.4090 O   0  0  0  0  0  0  0  0  0  0  0  0
  190.0180  173.9140  136.8850 C   0  0  0  0  0  0  0  0  0  0  0  0
  192.3750  174.8920  137.0370 C   0  0  0  0  0  0  0  0  0  0  0  0
  189.6790  174.6340  135.6870 N   0  0  0  0  0  2  0  0  0  0  0  0
  191.3180  174.0280  137.4760 N   0  0  0  0  0  2  0  0  0  0  0  0
  192.1820  175.7450  136.1330 O   0  0  0  0  0  0  0  0  0  0  0  0
  193.7050  174.8470  137.7170 C   0  0  0  0  0  2  0  0  0  0  0  0
  194.5280  175.8570  137.2030 O   0  0  0  0  0  1  0  0  0  0  0  0
  189.0750  176.9530  140.3810 C   0  0  0  0  0  2  0  0  0  0  0  0
  190.2410  177.1630  141.3310 C   0  0  0  0  0  2  0  0  0  0  0  0
  190.9930  176.0260  143.6340 O   0  0  0  0  0  0  0  0  0  0  0  0
  188.7100  175.5950  142.8620 O   0  0  0  0  0  0  0  0  0  0  0  0
  189.7930  176.6300  142.9640 S   0  0  0  0  0  0  0  0  0  0  0  0
  189.2340  178.0000  143.8750 N   0  0  0  0  0  2  0  0  0  0  0  0
  188.5880  177.5100  145.0850 C   0  0  2  0  0  3  0  0  0  0  0  0
  187.1380  177.9090  145.1160 C   0  0  0  0  0  0  0  0  0  0  0  0
  184.4430  178.7070  145.0200 C   0  0  0  0  0  0  0  0  0  0  0  0
  183.1450  179.1130  144.9680 F   0  0  0  0  0  0  0  0  0  0  0  0
  187.1180  178.2140  147.6290 C   0  0  0  0  0  1  0  0  0  0  0  0
  186.4530  177.9510  143.8930 C   0  0  0  0  0  3  0  0  0  0  0  0
  185.1120  178.3440  143.8420 C   0  0  0  0  0  3  0  0  0  0  0  0
  185.1120  178.6580  146.2430 C   0  0  0  0  0  3  0  0  0  0  0  0
  186.4550  178.2600  146.3020 C   0  0  0  0  0  0  0  0  0  0  0  0
  189.3380  177.9700  146.3320 C   0  0  0  0  0  2  0  0  0  0  0  0
  189.5880  175.9700  147.6070 O   0  0  0  0  0  0  0  0  0  0  0  0
  190.1460  176.8430  146.8850 C   0  0  0  0  0  0  0  0  0  0  0  0
  191.5490  176.7740  146.6220 N   0  0  0  0  0  2  0  0  0  0  0  0
  192.8420  175.8900  148.4920 C   0  0  0  0  0  1  0  0  0  0  0  0
  192.3830  175.6650  147.0640 C   0  0  0  0  0  2  0  0  0  0  0  0
  1 22  1  0  0  0  0
  2  8  2  0  0  0  0
  2  6  1  0  0  0  0
  3  7  1  0  0  0  0
  4 11  1  0  0  0  0
  5  4  2  0  0  0  0
  6  5  1  0  0  0  0
  6  9  2  0  0  0  0
  8 10  1  0  0  0  0
  9  3  1  0  0  0  0
  9 11  1  0  0  0  0
 10  3  2  0  0  0  0
 11  1  1  1  0  0  0
 12 13  1  0  0  0  0
 12  2  1  0  0  0  0
 13 17  1  0  0  0  0
 15 14  2  0  0  0  0
 15 18  1  0  0  0  0
 16 18  1  0  0  0  0
 16 20  1  0  0  0  0
 17 15  1  0  0  0  0
 19 16  2  0  0  0  0
 21 20  1  0  0  0  0
 22 23  1  0  0  0  0
 23 26  1  0  0  0  0
 25 26  2  0  0  0  0
 26 24  2  0  0  0  0
 26 27  1  0  0  0  0
 27 28  1  0  0  0  0
 28 29  1  0  0  0  0
 28 37  1  1  0  0  0
 29 36  1  0  0  0  0
 30 35  1  0  0  0  0
 31 30  1  0  0  0  0
 33 29  2  0  0  0  0
 34 33  1  0  0  0  0
 34 30  2  0  0  0  0
 35 36  2  0  0  0  0
 36 32  1  0  0  0  0
 37 39  1  0  0  0  0
 39 38  2  0  0  0  0
 40 39  1  0  0  0  0
 40 42  1  0  0  0  0
 42 41  1  0  0  0  0
M  END
>  <MODEL>
2

>  <REMARK>
 VINA RESULT:      -8.3      1.544      2.221
  Name = 
  14 active torsions:
  status: ('A' for Active; 'I' for Inactive)
    1  A    between atoms: C_1  and  C_39
    2  A    between atoms: C_2  and  C_15
    3  A    between atoms: C_2  and  C_40
    4  A    between atoms: C_5  and  C_29
    5  A    between atoms: C_8  and  C_37
    6  A    between atoms: C_12  and  N_26
    7  A    between atoms: C_14  and  C_15
    8  A    between atoms: C_14  and  S_36
    9  A    between atoms: C_23  and  C_24
   10  A    between atoms: C_23  and  C_37
   11  A    between atoms: N_32  and  C_38
   12  A    between atoms: S_36  and  N_41
   13  A    between atoms: C_37  and  N_41
   14  A    between atoms: C_38  and  C_39
                            x       y       z     vdW  Elec       q    Type
                         _______ _______ _______ _____ _____    ______ ____

>  <TORSDO>
F 14

$$$$
=
 OpenBabel11032419113D

 42 44  0  0  1  0  0  0  0  0999 V2000
  186.5300  177.0040  137.5490 C   0  0  0  0  0  2  0  0  0  0  0  0
  190.3610  177.2680  140.2170 C   0  0  0  0  0  0  0  0  0  0  0  0
  189.7780  177.0300  137.4940 C   0  0  0  0  0  0  0  0  0  0  0  0
  186.9650  178.5870  139.4090 N   0  0  0  0  0  0  0  0  0  0  0  0
  187.9820  178.2870  140.4300 C   0  0  0  0  0  3  0  0  0  0  0  0
  189.1180  177.6700  139.7090 C   0  0  0  0  0  0  0  0  0  0  0  0
  189.4930  176.9150  136.0360 C   0  0  0  0  0  1  0  0  0  0  0  0
  191.2890  176.7250  139.3160 C   0  0  0  0  0  3  0  0  0  0  0  0
  188.8350  177.5640  138.3830 C   0  0  0  0  0  0  0  0  0  0  0  0
  190.9800  176.6180  137.9880 N   0  0  0  0  0  0  0  0  0  0  0  0
  187.4670  178.0790  138.1180 C   0  0  1  0  0  3  0  0  0  0  0  0
  190.7120  177.4110  141.6610 C   0  0  0  0  0  2  0  0  0  0  0  0
  190.3540  176.1380  142.4150 C   0  0  0  0  0  2  0  0  0  0  0  0
  187.7570  176.6760  143.4650 O   0  0  0  0  0  0  0  0  0  0  0  0
  188.7330  176.7800  144.2550 C   0  0  0  0  0  0  0  0  0  0  0  0
  189.4840  177.4060  146.6180 C   0  0  0  0  0  0  0  0  0  0  0  0
  190.0570  176.4420  143.8070 N   0  0  0  0  0  2  0  0  0  0  0  0
  188.4900  177.1960  145.6060 N   0  0  0  0  0  2  0  0  0  0  0  0
  190.7100  177.3600  146.3430 O   0  0  0  0  0  0  0  0  0  0  0  0
  189.0680  177.7730  148.0060 C   0  0  0  0  0  2  0  0  0  0  0  0
  187.6800  177.6340  148.1310 O   0  0  0  0  0  1  0  0  0  0  0  0
  185.1240  177.5190  137.2460 C   0  0  0  0  0  2  0  0  0  0  0  0
  184.0780  176.7220  138.0060 C   0  0  0  0  0  2  0  0  0  0  0  0
  181.5610  177.6280  137.9390 O   0  0  0  0  0  0  0  0  0  0  0  0
  183.3180  179.2350  138.5090 O   0  0  0  0  0  0  0  0  0  0  0  0
  182.8540  177.8170  138.6790 S   0  0  0  0  0  0  0  0  0  0  0  0
  182.6300  177.4540  140.3630 N   0  0  0  0  0  2  0  0  0  0  0  0
  182.3140  178.6930  141.0590 C   0  0  2  0  0  3  0  0  0  0  0  0
  183.1140  178.8150  142.3270 C   0  0  0  0  0  0  0  0  0  0  0  0
  184.7390  178.9800  144.6160 C   0  0  0  0  0  0  0  0  0  0  0  0
  185.5290  179.0390  145.7230 F   0  0  0  0  0  0  0  0  0  0  0  0
  181.0730  178.6250  143.8130 C   0  0  0  0  0  1  0  0  0  0  0  0
  184.5030  178.9650  142.2030 C   0  0  0  0  0  3  0  0  0  0  0  0
  185.3140  179.0510  143.3390 C   0  0  0  0  0  3  0  0  0  0  0  0
  183.3580  178.8410  144.7510 C   0  0  0  0  0  3  0  0  0  0  0  0
  182.5380  178.7610  143.6160 C   0  0  0  0  0  0  0  0  0  0  0  0
  180.8140  178.8150  141.3120 C   0  0  0  0  0  2  0  0  0  0  0  0
  179.7690  180.9300  141.6550 O   0  0  0  0  0  0  0  0  0  0  0  0
  180.3230  180.1420  140.8390 C   0  0  0  0  0  0  0  0  0  0  0  0
  180.4540  180.5030  139.4620 N   0  0  0  0  0  2  0  0  0  0  0  0
  181.0420  182.2620  137.8760 C   0  0  0  0  0  1  0  0  0  0  0  0
  180.0670  181.8100  138.9470 C   0  0  0  0  0  2  0  0  0  0  0  0
  2 12  1  0  0  0  0
  3 10  2  0  0  0  0
  3  9  1  0  0  0  0
  4  5  2  0  0  0  0
  6  2  1  0  0  0  0
  6  5  1  0  0  0  0
  7  3  1  0  0  0  0
  8  2  2  0  0  0  0
  9  6  2  0  0  0  0
 10  8  1  0  0  0  0
 11  1  1  1  0  0  0
 11  9  1  0  0  0  0
 11  4  1  0  0  0  0
 12 13  1  0  0  0  0
 13 17  1  0  0  0  0
 14 15  2  0  0  0  0
 15 18  1  0  0  0  0
 16 20  1  0  0  0  0
 17 15  1  0  0  0  0
 18 16  1  0  0  0  0
 19 16  2  0  0  0  0
 20 21  1  0  0  0  0
 22  1  1  0  0  0  0
 22 23  1  0  0  0  0
 23 26  1  0  0  0  0
 24 26  2  0  0  0  0
 25 26  2  0  0  0  0
 26 27  1  0  0  0  0
 27 28  1  0  0  0  0
 28 37  1  1  0  0  0
 28 29  1  0  0  0  0
 29 36  1  0  0  0  0
 30 35  1  0  0  0  0
 30 31  1  0  0  0  0
 33 29  2  0  0  0  0
 33 34  1  0  0  0  0
 34 30  2  0  0  0  0
 36 32  1  0  0  0  0
 36 35  2  0  0  0  0
 39 37  1  0  0  0  0
 39 38  2  0  0  0  0
 40 39  1  0  0  0  0
 41 42  1  0  0  0  0
 42 40  1  0  0  0  0
M  END
>  <MODEL>
3

>  <REMARK>
 VINA RESULT:      -8.2      4.593      8.401
  Name = 
  14 active torsions:
  status: ('A' for Active; 'I' for Inactive)
    1  A    between atoms: C_1  and  C_39
    2  A    between atoms: C_2  and  C_15
    3  A    between atoms: C_2  and  C_40
    4  A    between atoms: C_5  and  C_29
    5  A    between atoms: C_8  and  C_37
    6  A    between atoms: C_12  and  N_26
    7  A    between atoms: C_14  and  C_15
    8  A    between atoms: C_14  and  S_36
    9  A    between atoms: C_23  and  C_24
   10  A    between atoms: C_23  and  C_37
   11  A    between atoms: N_32  and  C_38
   12  A    between atoms: S_36  and  N_41
   13  A    between atoms: C_37  and  N_41
   14  A    between atoms: C_38  and  C_39
                            x       y       z     vdW  Elec       q    Type
                         _______ _______ _______ _____ _____    ______ ____

>  <TORSDO>
F 14

$$$$
=
 OpenBabel11032419113D

 42 44  0  0  1  0  0  0  0  0999 V2000
  184.5970  179.4520  143.8630 C   0  0  0  0  0  2  0  0  0  0  0  0
  188.6120  177.3660  145.0400 C   0  0  0  0  0  0  0  0  0  0  0  0
  186.2020  178.0210  146.2970 C   0  0  0  0  0  0  0  0  0  0  0  0
  185.8220  177.7130  142.5870 N   0  0  0  0  0  0  0  0  0  0  0  0
  187.2540  177.4690  142.8300 C   0  0  0  0  0  3  0  0  0  0  0  0
  187.4460  177.5800  144.2930 C   0  0  0  0  0  0  0  0  0  0  0  0
  184.9230  178.3490  146.9860 C   0  0  0  0  0  1  0  0  0  0  0  0
  188.5310  177.5130  146.4330 C   0  0  0  0  0  3  0  0  0  0  0  0
  186.2700  177.8900  144.9030 C   0  0  0  0  0  0  0  0  0  0  0  0
  187.3400  177.8350  147.0250 N   0  0  0  0  0  0  0  0  0  0  0  0
  185.2000  178.0400  143.8840 C   0  0  1  0  0  3  0  0  0  0  0  0
  189.9050  176.9850  144.4000 C   0  0  0  0  0  2  0  0  0  0  0  0
  190.4570  178.1570  143.5990 C   0  0  0  0  0  2  0  0  0  0  0  0
  192.3170  177.0650  141.7300 O   0  0  0  0  0  0  0  0  0  0  0  0
  191.2150  177.4770  141.2770 C   0  0  0  0  0  0  0  0  0  0  0  0
  189.8060  177.8710  139.1800 C   0  0  0  0  0  0  0  0  0  0  0  0
  190.2050  177.9610  142.1790 N   0  0  0  0  0  2  0  0  0  0  0  0
  190.9790  177.4100  139.8640 N   0  0  0  0  0  2  0  0  0  0  0  0
  188.9110  178.5130  139.7870 O   0  0  0  0  0  0  0  0  0  0  0  0
  189.6760  177.6690  137.7050 C   0  0  0  0  0  2  0  0  0  0  0  0
  189.2340  178.8550  137.1060 O   0  0  0  0  0  1  0  0  0  0  0  0
  183.0740  179.4670  143.9930 C   0  0  0  0  0  2  0  0  0  0  0  0
  182.4160  178.9660  142.7190 C   0  0  0  0  0  2  0  0  0  0  0  0
  180.2540  180.5240  142.9660 O   0  0  0  0  0  0  0  0  0  0  0  0
  180.2150  178.3580  144.1090 O   0  0  0  0  0  0  0  0  0  0  0  0
  180.6510  179.0790  142.8660 S   0  0  0  0  0  0  0  0  0  0  0  0
  179.9170  178.3600  141.4640 N   0  0  0  0  0  2  0  0  0  0  0  0
  180.8760  178.4150  140.3690 C   0  0  2  0  0  3  0  0  0  0  0  0
  180.7590  179.7140  139.6200 C   0  0  0  0  0  0  0  0  0  0  0  0
  180.3850  182.1020  138.1820 C   0  0  0  0  0  0  0  0  0  0  0  0
  180.1990  183.2460  137.4690 F   0  0  0  0  0  0  0  0  0  0  0  0
  183.2420  179.8400  139.1460 C   0  0  0  0  0  1  0  0  0  0  0  0
  179.4790  180.2740  139.4930 C   0  0  0  0  0  3  0  0  0  0  0  0
  179.2900  181.4630  138.7820 C   0  0  0  0  0  3  0  0  0  0  0  0
  181.6630  181.5590  138.3110 C   0  0  0  0  0  3  0  0  0  0  0  0
  181.8610  180.3710  139.0280 C   0  0  0  0  0  0  0  0  0  0  0  0
  180.7290  177.2060  139.4500 C   0  0  0  0  0  2  0  0  0  0  0  0
  182.9100  176.6290  140.2210 O   0  0  0  0  0  0  0  0  0  0  0  0
  182.0410  176.5070  139.3140 C   0  0  0  0  0  0  0  0  0  0  0  0
  182.3190  175.7300  138.1470 N   0  0  0  0  0  2  0  0  0  0  0  0
  183.4030  173.9860  136.8290 C   0  0  0  0  0  1  0  0  0  0  0  0
  183.5450  174.9610  137.9820 C   0  0  0  0  0  2  0  0  0  0  0  0
  1 22  1  0  0  0  0
  2  8  1  0  0  0  0
  3  7  1  0  0  0  0
  3 10  1  0  0  0  0
  4  5  2  0  0  0  0
  4 11  1  0  0  0  0
  5  6  1  0  0  0  0
  6  9  1  0  0  0  0
  6  2  2  0  0  0  0
  8 10  2  0  0  0  0
  9  3  2  0  0  0  0
 11  1  1  6  0  0  0
 11  9  1  0  0  0  0
 12  2  1  0  0  0  0
 13 12  1  0  0  0  0
 15 14  2  0  0  0  0
 15 17  1  0  0  0  0
 16 19  2  0  0  0  0
 16 18  1  0  0  0  0
 17 13  1  0  0  0  0
 18 15  1  0  0  0  0
 20 16  1  0  0  0  0
 21 20  1  0  0  0  0
 23 26  1  0  0  0  0
 23 22  1  0  0  0  0
 26 24  2  0  0  0  0
 26 25  2  0  0  0  0
 27 26  1  0  0  0  0
 28 37  1  6  0  0  0
 28 27  1  0  0  0  0
 29 28  1  0  0  0  0
 30 35  2  0  0  0  0
 30 34  1  0  0  0  0
 31 30  1  0  0  0  0
 33 29  1  0  0  0  0
 34 33  2  0  0  0  0
 35 36  1  0  0  0  0
 36 32  1  0  0  0  0
 36 29  2  0  0  0  0
 39 37  1  0  0  0  0
 39 38  2  0  0  0  0
 40 39  1  0  0  0  0
 41 42  1  0  0  0  0
 42 40  1  0  0  0  0
M  END
>  <MODEL>
4

>  <REMARK>
 VINA RESULT:      -8.2      5.159      9.397
  Name = 
  14 active torsions:
  status: ('A' for Active; 'I' for Inactive)
    1  A    between atoms: C_1  and  C_39
    2  A    between atoms: C_2  and  C_15
    3  A    between atoms: C_2  and  C_40
    4  A    between atoms: C_5  and  C_29
    5  A    between atoms: C_8  and  C_37
    6  A    between atoms: C_12  and  N_26
    7  A    between atoms: C_14  and  C_15
    8  A    between atoms: C_14  and  S_36
    9  A    between atoms: C_23  and  C_24
   10  A    between atoms: C_23  and  C_37
   11  A    between atoms: N_32  and  C_38
   12  A    between atoms: S_36  and  N_41
   13  A    between atoms: C_37  and  N_41
   14  A    between atoms: C_38  and  C_39
                            x       y       z     vdW  Elec       q    Type
                         _______ _______ _______ _____ _____    ______ ____

>  <TORSDO>
F 14

$$$$
=
 OpenBabel11032419113D

 42 44  0  0  1  0  0  0  0  0999 V2000
  188.1880  178.1480  139.8970 C   0  0  0  0  0  2  0  0  0  0  0  0
  189.3560  174.8090  136.8400 C   0  0  0  0  0  0  0  0  0  0  0  0
  187.4820  176.8780  136.9920 C   0  0  0  0  0  0  0  0  0  0  0  0
  190.4690  177.5170  139.1540 N   0  0  0  0  0  0  0  0  0  0  0  0
  190.7270  176.1970  138.5540 C   0  0  0  0  0  3  0  0  0  0  0  0
  189.5640  175.9070  137.6850 C   0  0  0  0  0  0  0  0  0  0  0  0
  186.4820  177.9810  137.0440 C   0  0  0  0  0  1  0  0  0  0  0  0
  188.1690  174.7750  136.0930 C   0  0  0  0  0  3  0  0  0  0  0  0
  188.6580  176.9200  137.7540 C   0  0  0  0  0  0  0  0  0  0  0  0
  187.2660  175.8000  136.1860 N   0  0  0  0  0  0  0  0  0  0  0  0
  189.1360  177.9580  138.7040 C   0  0  1  0  0  3  0  0  0  0  0  0
  190.3520  173.7050  136.7150 C   0  0  0  0  0  2  0  0  0  0  0  0
  191.4370  174.0900  135.7180 C   0  0  0  0  0  2  0  0  0  0  0  0
  193.2990  171.9860  136.2160 O   0  0  0  0  0  0  0  0  0  0  0  0
  193.5730  173.1240  136.6850 C   0  0  0  0  0  0  0  0  0  0  0  0
  195.2040  174.4910  138.1020 C   0  0  0  0  0  0  0  0  0  0  0  0
  192.7150  174.2420  136.3970 N   0  0  0  0  0  2  0  0  0  0  0  0
  194.7670  173.2840  137.4630 N   0  0  0  0  0  2  0  0  0  0  0  0
  194.4710  175.5120  138.1310 O   0  0  0  0  0  0  0  0  0  0  0  0
  196.5120  174.5200  138.8240 C   0  0  0  0  0  2  0  0  0  0  0  0
  196.3100  174.9410  140.1440 O   0  0  0  0  0  1  0  0  0  0  0  0
  188.6420  177.4150  141.1590 C   0  0  0  0  0  2  0  0  0  0  0  0
  189.0500  178.4000  142.2410 C   0  0  0  0  0  2  0  0  0  0  0  0
  191.0380  177.5940  143.8420 O   0  0  0  0  0  0  0  0  0  0  0  0
  189.1290  176.0840  143.5750 O   0  0  0  0  0  0  0  0  0  0  0  0
  189.5450  177.5210  143.7020 S   0  0  0  0  0  0  0  0  0  0  0  0
  188.7860  178.2480  145.0860 N   0  0  0  0  0  2  0  0  0  0  0  0
  187.7060  177.3760  145.5250 C   0  0  2  0  0  3  0  0  0  0  0  0
  186.3750  177.8900  145.0470 C   0  0  0  0  0  0  0  0  0  0  0  0
  183.9550  178.8720  144.0050 C   0  0  0  0  0  0  0  0  0  0  0  0
  182.7930  179.3650  143.4940 F   0  0  0  0  0  0  0  0  0  0  0  0
  185.6740  178.6650  147.3520 C   0  0  0  0  0  1  0  0  0  0  0  0
  186.0830  177.7550  143.6810 C   0  0  0  0  0  3  0  0  0  0  0  0
  184.8790  178.2400  143.1600 C   0  0  0  0  0  3  0  0  0  0  0  0
  184.2310  179.0020  145.3660 C   0  0  0  0  0  3  0  0  0  0  0  0
  185.4330  178.5130  145.8960 C   0  0  0  0  0  0  0  0  0  0  0  0
  187.7370  177.1810  147.0380 C   0  0  0  0  0  2  0  0  0  0  0  0
  189.3260  178.2830  148.4320 O   0  0  0  0  0  0  0  0  0  0  0  0
  189.1200  177.4020  147.5520 C   0  0  0  0  0  0  0  0  0  0  0  0
  190.2080  176.6380  147.0260 N   0  0  0  0  0  2  0  0  0  0  0  0
  192.4090  175.5840  147.0400 C   0  0  0  0  0  1  0  0  0  0  0  0
  191.5690  176.7470  147.5340 C   0  0  0  0  0  2  0  0  0  0  0  0
  1 22  1  0  0  0  0
  2  6  1  0  0  0  0
  3  7  1  0  0  0  0
  3  9  1  0  0  0  0
  5  4  2  0  0  0  0
  6  9  2  0  0  0  0
  6  5  1  0  0  0  0
  8 10  1  0  0  0  0
  8  2  2  0  0  0  0
  9 11  1  0  0  0  0
 10  3  2  0  0  0  0
 11  4  1  0  0  0  0
 11  1  1  1  0  0  0
 12  2  1  0  0  0  0
 13 17  1  0  0  0  0
 13 12  1  0  0  0  0
 14 15  2  0  0  0  0
 15 18  1  0  0  0  0
 16 19  2  0  0  0  0
 16 20  1  0  0  0  0
 17 15  1  0  0  0  0
 18 16  1  0  0  0  0
 20 21  1  0  0  0  0
 22 23  1  0  0  0  0
 23 26  1  0  0  0  0
 25 26  2  0  0  0  0
 26 24  2  0  0  0  0
 26 27  1  0  0  0  0
 27 28  1  0  0  0  0
 28 37  1  1  0  0  0
 29 28  1  0  0  0  0
 29 36  1  0  0  0  0
 30 35  1  0  0  0  0
 31 30  1  0  0  0  0
 33 29  2  0  0  0  0
 34 33  1  0  0  0  0
 34 30  2  0  0  0  0
 35 36  2  0  0  0  0
 36 32  1  0  0  0  0
 37 39  1  0  0  0  0
 39 38  2  0  0  0  0
 40 42  1  0  0  0  0
 40 39  1  0  0  0  0
 41 42  1  0  0  0  0
M  END
>  <MODEL>
5

>  <REMARK>
 VINA RESULT:      -8.0      1.944      2.607
  Name = 
  14 active torsions:
  status: ('A' for Active; 'I' for Inactive)
    1  A    between atoms: C_1  and  C_39
    2  A    between atoms: C_2  and  C_15
    3  A    between atoms: C_2  and  C_40
    4  A    between atoms: C_5  and  C_29
    5  A    between atoms: C_8  and  C_37
    6  A    between atoms: C_12  and  N_26
    7  A    between atoms: C_14  and  C_15
    8  A    between atoms: C_14  and  S_36
    9  A    between atoms: C_23  and  C_24
   10  A    between atoms: C_23  and  C_37
   11  A    between atoms: N_32  and  C_38
   12  A    between atoms: S_36  and  N_41
   13  A    between atoms: C_37  and  N_41
   14  A    between atoms: C_38  and  C_39
                            x       y       z     vdW  Elec       q    Type
                         _______ _______ _______ _____ _____    ______ ____

>  <TORSDO>
F 14

$$$$
=
 OpenBabel11032419113D

 42 44  0  0  1  0  0  0  0  0999 V2000
  189.4300  178.2430  138.7790 C   0  0  0  0  0  2  0  0  0  0  0  0
  186.3580  176.6410  135.6400 C   0  0  0  0  0  0  0  0  0  0  0  0
  188.7350  175.7530  136.8140 C   0  0  0  0  0  0  0  0  0  0  0  0
  186.9560  178.2580  138.9500 N   0  0  0  0  0  0  0  0  0  0  0  0
  186.1170  178.1430  137.7450 C   0  0  0  0  0  3  0  0  0  0  0  0
  186.7890  177.1540  136.8710 C   0  0  0  0  0  0  0  0  0  0  0  0
  189.9930  175.2520  137.4330 C   0  0  0  0  0  1  0  0  0  0  0  0
  187.1700  175.6860  135.0110 C   0  0  0  0  0  3  0  0  0  0  0  0
  187.9400  176.7170  137.4490 C   0  0  0  0  0  0  0  0  0  0  0  0
  188.3300  175.2680  135.6050 N   0  0  0  0  0  0  0  0  0  0  0  0
  188.1430  177.4070  138.7490 C   0  0  1  0  0  3  0  0  0  0  0  0
  185.0790  177.0740  135.0040 C   0  0  0  0  0  2  0  0  0  0  0  0
  184.0070  176.0120  135.2090 C   0  0  0  0  0  2  0  0  0  0  0  0
  184.3410  174.6330  137.6850 O   0  0  0  0  0  0  0  0  0  0  0  0
  183.4210  175.4940  137.6210 C   0  0  0  0  0  0  0  0  0  0  0  0
  181.4710  176.6000  138.8500 C   0  0  0  0  0  0  0  0  0  0  0  0
  183.2570  176.2790  136.4280 N   0  0  0  0  0  2  0  0  0  0  0  0
  182.5840  175.6990  138.7660 N   0  0  0  0  0  2  0  0  0  0  0  0
  181.0550  177.2130  137.8340 O   0  0  0  0  0  0  0  0  0  0  0  0
  180.7340  176.7550  140.1400 C   0  0  0  0  0  2  0  0  0  0  0  0
  181.2490  177.8480  140.8470 O   0  0  0  0  0  1  0  0  0  0  0  0
  190.3220  177.9470  139.9850 C   0  0  0  0  0  2  0  0  0  0  0  0
  189.8930  176.6620  140.6730 C   0  0  0  0  0  2  0  0  0  0  0  0
  191.5710  177.1810  142.6920 O   0  0  0  0  0  0  0  0  0  0  0  0
  189.8540  175.4760  143.0690 O   0  0  0  0  0  0  0  0  0  0  0  0
  190.1430  176.8020  142.4250 S   0  0  0  0  0  0  0  0  0  0  0  0
  189.0800  178.0230  143.0550 N   0  0  0  0  0  2  0  0  0  0  0  0
  188.6750  177.6270  144.3960 C   0  0  2  0  0  3  0  0  0  0  0  0
  187.2430  178.0070  144.6570 C   0  0  0  0  0  0  0  0  0  0  0  0
  184.5750  178.6340  145.2870 C   0  0  0  0  0  0  0  0  0  0  0  0
  183.2800  178.9160  145.5940 F   0  0  0  0  0  0  0  0  0  0  0  0
  186.6930  178.2280  142.1960 C   0  0  0  0  0  1  0  0  0  0  0  0
  186.8270  178.0780  145.9950 C   0  0  0  0  0  3  0  0  0  0  0  0
  185.5020  178.3930  146.3120 C   0  0  0  0  0  3  0  0  0  0  0  0
  184.9810  178.5750  143.9550 C   0  0  0  0  0  3  0  0  0  0  0  0
  186.3090  178.2660  143.6290 C   0  0  0  0  0  0  0  0  0  0  0  0
  189.6220  178.2000  145.4470 C   0  0  0  0  0  2  0  0  0  0  0  0
  189.5450  176.5270  147.1440 O   0  0  0  0  0  0  0  0  0  0  0  0
  190.2270  177.0940  146.2460 C   0  0  0  0  0  0  0  0  0  0  0  0
  191.5810  176.7010  146.0110 N   0  0  0  0  0  2  0  0  0  0  0  0
  192.6760  176.0070  148.0780 C   0  0  0  0  0  1  0  0  0  0  0  0
  192.2100  175.5820  146.6990 C   0  0  0  0  0  2  0  0  0  0  0  0
  1 22  1  0  0  0  0
  2  6  1  0  0  0  0
  3  7  1  0  0  0  0
  3  9  1  0  0  0  0
  5  4  2  0  0  0  0
  6  9  2  0  0  0  0
  6  5  1  0  0  0  0
  8 10  1  0  0  0  0
  8  2  2  0  0  0  0
  9 11  1  0  0  0  0
 10  3  2  0  0  0  0
 11  1  1  6  0  0  0
 11  4  1  0  0  0  0
 12 13  1  0  0  0  0
 12  2  1  0  0  0  0
 13 17  1  0  0  0  0
 15 14  2  0  0  0  0
 15 18  1  0  0  0  0
 16 20  1  0  0  0  0
 17 15  1  0  0  0  0
 18 16  1  0  0  0  0
 19 16  2  0  0  0  0
 20 21  1  0  0  0  0
 22 23  1  0  0  0  0
 23 26  1  0  0  0  0
 26 24  2  0  0  0  0
 26 27  1  0  0  0  0
 26 25  2  0  0  0  0
 27 28  1  0  0  0  0
 28 29  1  0  0  0  0
 28 37  1  1  0  0  0
 29 33  1  0  0  0  0
 30 31  1  0  0  0  0
 30 34  1  0  0  0  0
 32 36  1  0  0  0  0
 33 34  2  0  0  0  0
 35 30  2  0  0  0  0
 36 35  1  0  0  0  0
 36 29  2  0  0  0  0
 37 39  1  0  0  0  0
 39 38  2  0  0  0  0
 40 39  1  0  0  0  0
 40 42  1  0  0  0  0
 42 41  1  0  0  0  0
M  END
>  <MODEL>
6

>  <REMARK>
 VINA RESULT:      -8.0      3.054      5.746
  Name = 
  14 active torsions:
  status: ('A' for Active; 'I' for Inactive)
    1  A    between atoms: C_1  and  C_39
    2  A    between atoms: C_2  and  C_15
    3  A    between atoms: C_2  and  C_40
    4  A    between atoms: C_5  and  C_29
    5  A    between atoms: C_8  and  C_37
    6  A    between atoms: C_12  and  N_26
    7  A    between atoms: C_14  and  C_15
    8  A    between atoms: C_14  and  S_36
    9  A    between atoms: C_23  and  C_24
   10  A    between atoms: C_23  and  C_37
   11  A    between atoms: N_32  and  C_38
   12  A    between atoms: S_36  and  N_41
   13  A    between atoms: C_37  and  N_41
   14  A    between atoms: C_38  and  C_39
                            x       y       z     vdW  Elec       q    Type
                         _______ _______ _______ _____ _____    ______ ____

>  <TORSDO>
F 14

$$$$
=
 OpenBabel11032419113D

 42 44  0  0  1  0  0  0  0  0999 V2000
  188.3030  178.2510  138.0580 C   0  0  0  0  0  2  0  0  0  0  0  0
  184.0410  177.1180  136.5030 C   0  0  0  0  0  0  0  0  0  0  0  0
  186.5400  175.8810  136.7060 C   0  0  0  0  0  0  0  0  0  0  0  0
  186.1310  178.6530  139.1870 N   0  0  0  0  0  0  0  0  0  0  0  0
  184.8740  178.6590  138.4200 C   0  0  0  0  0  3  0  0  0  0  0  0
  184.9950  177.5700  137.4250 C   0  0  0  0  0  0  0  0  0  0  0  0
  187.8580  175.1950  136.8140 C   0  0  0  0  0  1  0  0  0  0  0  0
  184.3930  176.0420  135.6740 C   0  0  0  0  0  3  0  0  0  0  0  0
  186.2080  176.9630  137.5320 C   0  0  0  0  0  0  0  0  0  0  0  0
  185.6220  175.4540  135.7920 N   0  0  0  0  0  0  0  0  0  0  0  0
  187.0080  177.6250  138.5960 C   0  0  1  0  0  3  0  0  0  0  0  0
  182.6890  177.7390  136.3930 C   0  0  0  0  0  2  0  0  0  0  0  0
  181.6630  176.8960  137.1380 C   0  0  0  0  0  2  0  0  0  0  0  0
  182.0960  175.9530  139.7960 O   0  0  0  0  0  0  0  0  0  0  0  0
  181.4170  177.0070  139.6590 C   0  0  0  0  0  0  0  0  0  0  0  0
  180.0510  178.8120  140.8480 C   0  0  0  0  0  0  0  0  0  0  0  0
  181.2350  177.5760  138.3510 N   0  0  0  0  0  2  0  0  0  0  0  0
  180.8770  177.6400  140.8270 N   0  0  0  0  0  2  0  0  0  0  0  0
  179.6180  179.3200  139.7820 O   0  0  0  0  0  0  0  0  0  0  0  0
  179.6190  179.3960  142.1540 C   0  0  0  0  0  2  0  0  0  0  0  0
  179.9880  180.7460  142.2080 O   0  0  0  0  0  1  0  0  0  0  0  0
  189.4280  178.3070  139.0910 C   0  0  0  0  0  2  0  0  0  0  0  0
  189.6880  176.9320  139.6840 C   0  0  0  0  0  2  0  0  0  0  0  0
  191.6860  177.4690  141.3810 O   0  0  0  0  0  0  0  0  0  0  0  0
  190.0540  175.7770  142.0660 O   0  0  0  0  0  0  0  0  0  0  0  0
  190.2330  177.0930  141.3660 S   0  0  0  0  0  0  0  0  0  0  0  0
  189.2950  178.3270  142.1510 N   0  0  0  0  0  2  0  0  0  0  0  0
  188.9380  177.8510  143.4800 C   0  0  2  0  0  3  0  0  0  0  0  0
  187.4550  177.9560  143.7060 C   0  0  0  0  0  0  0  0  0  0  0  0
  184.6730  178.2490  143.9960 C   0  0  0  0  0  0  0  0  0  0  0  0
  183.3290  178.4130  144.1380 F   0  0  0  0  0  0  0  0  0  0  0  0
  187.6470  177.5120  146.1910 C   0  0  0  0  0  1  0  0  0  0  0  0
  186.6490  178.2260  142.5900 C   0  0  0  0  0  3  0  0  0  0  0  0
  185.2640  178.3700  142.7310 C   0  0  0  0  0  3  0  0  0  0  0  0
  185.4640  177.9710  145.1110 C   0  0  0  0  0  3  0  0  0  0  0  0
  186.8510  177.8200  144.9770 C   0  0  0  0  0  0  0  0  0  0  0  0
  189.7360  178.5800  144.5570 C   0  0  0  0  0  2  0  0  0  0  0  0
  192.0730  178.1500  144.3530 O   0  0  0  0  0  0  0  0  0  0  0  0
  190.9760  177.8140  144.8800 C   0  0  0  0  0  0  0  0  0  0  0  0
  190.9110  176.6870  145.7570 N   0  0  0  0  0  2  0  0  0  0  0  0
  192.1190  175.8070  147.6860 C   0  0  0  0  0  1  0  0  0  0  0  0
  192.0910  175.9420  146.1750 C   0  0  0  0  0  2  0  0  0  0  0  0
  1 22  1  0  0  0  0
  2  6  1  0  0  0  0
  3  7  1  0  0  0  0
  3  9  1  0  0  0  0
  5  4  2  0  0  0  0
  6  9  2  0  0  0  0
  6  5  1  0  0  0  0
  8 10  1  0  0  0  0
  8  2  2  0  0  0  0
  9 11  1  0  0  0  0
 10  3  2  0  0  0  0
 11  1  1  6  0  0  0
 11  4  1  0  0  0  0
 12  2  1  0  0  0  0
 12 13  1  0  0  0  0
 13 17  1  0  0  0  0
 15 14  2  0  0  0  0
 15 18  1  0  0  0  0
 16 20  1  0  0  0  0
 17 15  1  0  0  0  0
 18 16  1  0  0  0  0
 19 16  2  0  0  0  0
 20 21  1  0  0  0  0
 22 23  1  0  0  0  0
 23 26  1  0  0  0  0
 26 24  2  0  0  0  0
 26 25  2  0  0  0  0
 26 27  1  0  0  0  0
 27 28  1  0  0  0  0
 28 29  1  0  0  0  0
 28 37  1  1  0  0  0
 29 36  1  0  0  0  0
 30 31  1  0  0  0  0
 30 35  1  0  0  0  0
 33 34  1  0  0  0  0
 33 29  2  0  0  0  0
 34 30  2  0  0  0  0
 36 35  2  0  0  0  0
 36 32  1  0  0  0  0
 37 39  1  0  0  0  0
 38 39  2  0  0  0  0
 39 40  1  0  0  0  0
 40 42  1  0  0  0  0
 42 41  1  0  0  0  0
M  END
>  <MODEL>
7

>  <REMARK>
 VINA RESULT:      -8.0      3.851      6.932
  Name = 
  14 active torsions:
  status: ('A' for Active; 'I' for Inactive)
    1  A    between atoms: C_1  and  C_39
    2  A    between atoms: C_2  and  C_15
    3  A    between atoms: C_2  and  C_40
    4  A    between atoms: C_5  and  C_29
    5  A    between atoms: C_8  and  C_37
    6  A    between atoms: C_12  and  N_26
    7  A    between atoms: C_14  and  C_15
    8  A    between atoms: C_14  and  S_36
    9  A    between atoms: C_23  and  C_24
   10  A    between atoms: C_23  and  C_37
   11  A    between atoms: N_32  and  C_38
   12  A    between atoms: S_36  and  N_41
   13  A    between atoms: C_37  and  N_41
   14  A    between atoms: C_38  and  C_39
                            x       y       z     vdW  Elec       q    Type
                         _______ _______ _______ _____ _____    ______ ____

>  <TORSDO>
F 14

$$$$
=
 OpenBabel11032419113D

 42 44  0  0  1  0  0  0  0  0999 V2000
  185.8940  178.9270  145.4690 C   0  0  0  0  0  2  0  0  0  0  0  0
  190.0380  176.8440  144.8860 C   0  0  0  0  0  0  0  0  0  0  0  0
  188.4590  177.6910  147.0310 C   0  0  0  0  0  0  0  0  0  0  0  0
  186.4290  177.0350  143.9570 N   0  0  0  0  0  0  0  0  0  0  0  0
  187.8180  176.7720  143.5420 C   0  0  0  0  0  3  0  0  0  0  0  0
  188.6560  177.0190  144.7370 C   0  0  0  0  0  0  0  0  0  0  0  0
  187.6310  178.1230  148.1920 C   0  0  0  0  0  1  0  0  0  0  0  0
  190.6010  177.1280  146.1390 C   0  0  0  0  0  3  0  0  0  0  0  0
  187.8840  177.4230  145.7820 C   0  0  0  0  0  0  0  0  0  0  0  0
  189.8070  177.5420  147.1740 N   0  0  0  0  0  0  0  0  0  0  0  0
  186.4640  177.5050  145.3540 C   0  0  1  0  0  3  0  0  0  0  0  0
  190.9020  176.3630  143.7680 C   0  0  0  0  0  2  0  0  0  0  0  0
  191.3150  177.5330  142.8850 C   0  0  0  0  0  2  0  0  0  0  0  0
  192.2130  177.2090  140.1960 O   0  0  0  0  0  0  0  0  0  0  0  0
  190.9990  177.5020  140.3690 C   0  0  0  0  0  0  0  0  0  0  0  0
  188.7780  178.0690  139.2370 C   0  0  0  0  0  0  0  0  0  0  0  0
  190.4690  177.5970  141.7030 N   0  0  0  0  0  2  0  0  0  0  0  0
  190.1620  177.6920  139.2210 N   0  0  0  0  0  2  0  0  0  0  0  0
  188.2070  178.3980  140.3080 O   0  0  0  0  0  0  0  0  0  0  0  0
  188.0170  178.1600  137.9540 C   0  0  0  0  0  2  0  0  0  0  0  0
  188.2260  176.9980  137.2020 O   0  0  0  0  0  1  0  0  0  0  0  0
  184.3780  178.9920  145.2790 C   0  0  0  0  0  2  0  0  0  0  0  0
  184.0230  179.7790  144.0280 C   0  0  0  0  0  2  0  0  0  0  0  0
  181.6030  180.1240  142.9400 O   0  0  0  0  0  0  0  0  0  0  0  0
  181.9960  178.0410  144.1650 O   0  0  0  0  0  0  0  0  0  0  0  0
  182.6090  179.0510  143.2380 S   0  0  0  0  0  0  0  0  0  0  0  0
  183.1140  178.2870  141.7620 N   0  0  0  0  0  2  0  0  0  0  0  0
  182.1310  178.5920  140.7320 C   0  0  2  0  0  3  0  0  0  0  0  0
  181.4520  177.3380  140.2520 C   0  0  0  0  0  0  0  0  0  0  0  0
  180.2840  174.9940  139.2270 C   0  0  0  0  0  0  0  0  0  0  0  0
  179.7150  173.8700  138.7120 F   0  0  0  0  0  0  0  0  0  0  0  0
  179.2720  177.8910  141.4150 C   0  0  0  0  0  1  0  0  0  0  0  0
  182.2000  176.4650  139.4480 C   0  0  0  0  0  3  0  0  0  0  0  0
  181.6230  175.2970  138.9390 C   0  0  0  0  0  3  0  0  0  0  0  0
  179.5350  175.8500  140.0340 C   0  0  0  0  0  3  0  0  0  0  0  0
  180.1080  177.0190  140.5520 C   0  0  0  0  0  0  0  0  0  0  0  0
  182.7620  179.3780  139.5860 C   0  0  0  0  0  2  0  0  0  0  0  0
  180.9290  180.8980  139.4540 O   0  0  0  0  0  0  0  0  0  0  0  0
  181.7060  180.1190  138.8350 C   0  0  0  0  0  0  0  0  0  0  0  0
  181.5610  179.9230  137.4260 N   0  0  0  0  0  2  0  0  0  0  0  0
  179.8620  179.7310  135.6860 C   0  0  0  0  0  1  0  0  0  0  0  0
  180.6050  180.6680  136.6190 C   0  0  0  0  0  2  0  0  0  0  0  0
  2  8  1  0  0  0  0
  3 10  1  0  0  0  0
  3  7  1  0  0  0  0
  4 11  1  0  0  0  0
  5  4  2  0  0  0  0
  5  6  1  0  0  0  0
  6  2  2  0  0  0  0
  6  9  1  0  0  0  0
  8 10  2  0  0  0  0
  9  3  2  0  0  0  0
 11  1  1  6  0  0  0
 11  9  1  0  0  0  0
 12  2  1  0  0  0  0
 13 12  1  0  0  0  0
 14 15  2  0  0  0  0
 15 17  1  0  0  0  0
 16 19  2  0  0  0  0
 17 13  1  0  0  0  0
 18 16  1  0  0  0  0
 18 15  1  0  0  0  0
 20 16  1  0  0  0  0
 21 20  1  0  0  0  0
 22  1  1  0  0  0  0
 23 22  1  0  0  0  0
 24 26  2  0  0  0  0
 26 23  1  0  0  0  0
 26 25  2  0  0  0  0
 27 26  1  0  0  0  0
 28 37  1  6  0  0  0
 28 27  1  0  0  0  0
 29 36  1  0  0  0  0
 29 28  1  0  0  0  0
 30 35  1  0  0  0  0
 31 30  1  0  0  0  0
 33 29  2  0  0  0  0
 34 30  2  0  0  0  0
 34 33  1  0  0  0  0
 35 36  2  0  0  0  0
 36 32  1  0  0  0  0
 39 38  2  0  0  0  0
 39 37  1  0  0  0  0
 40 39  1  0  0  0  0
 41 42  1  0  0  0  0
 42 40  1  0  0  0  0
M  END
>  <MODEL>
8

>  <REMARK>
 VINA RESULT:      -8.0      4.867      9.606
  Name = 
  14 active torsions:
  status: ('A' for Active; 'I' for Inactive)
    1  A    between atoms: C_1  and  C_39
    2  A    between atoms: C_2  and  C_15
    3  A    between atoms: C_2  and  C_40
    4  A    between atoms: C_5  and  C_29
    5  A    between atoms: C_8  and  C_37
    6  A    between atoms: C_12  and  N_26
    7  A    between atoms: C_14  and  C_15
    8  A    between atoms: C_14  and  S_36
    9  A    between atoms: C_23  and  C_24
   10  A    between atoms: C_23  and  C_37
   11  A    between atoms: N_32  and  C_38
   12  A    between atoms: S_36  and  N_41
   13  A    between atoms: C_37  and  N_41
   14  A    between atoms: C_38  and  C_39
                            x       y       z     vdW  Elec       q    Type
                         _______ _______ _______ _____ _____    ______ ____

>  <TORSDO>
F 14

$$$$
=
 OpenBabel11032419113D

 42 44  0  0  1  0  0  0  0  0999 V2000
  184.2400  178.2440  142.1380 C   0  0  0  0  0  2  0  0  0  0  0  0
  183.5770  177.2600  137.6160 C   0  0  0  0  0  0  0  0  0  0  0  0
  181.9870  177.6010  139.8890 C   0  0  0  0  0  0  0  0  0  0  0  0
  185.2690  179.3740  140.1830 N   0  0  0  0  0  0  0  0  0  0  0  0
  185.3300  178.7040  138.8730 C   0  0  0  0  0  3  0  0  0  0  0  0
  184.0430  177.9910  138.7170 C   0  0  0  0  0  0  0  0  0  0  0  0
  181.1160  177.7890  141.0830 C   0  0  0  0  0  1  0  0  0  0  0  0
  182.2980  176.6900  137.7040 C   0  0  0  0  0  3  0  0  0  0  0  0
  183.2680  178.1660  139.8210 C   0  0  0  0  0  0  0  0  0  0  0  0
  181.5390  176.8710  138.8280 N   0  0  0  0  0  0  0  0  0  0  0  0
  183.9940  178.9920  140.8190 C   0  0  1  0  0  3  0  0  0  0  0  0
  184.3910  177.0870  136.3770 C   0  0  0  0  0  2  0  0  0  0  0  0
  184.7590  175.6210  136.1920 C   0  0  0  0  0  2  0  0  0  0  0  0
  186.0890  173.5720  137.6670 O   0  0  0  0  0  0  0  0  0  0  0  0
  186.8090  174.4390  137.1020 C   0  0  0  0  0  0  0  0  0  0  0  0
  189.1900  175.2920  136.7290 C   0  0  0  0  0  0  0  0  0  0  0  0
  186.2010  175.4480  136.2760 N   0  0  0  0  0  2  0  0  0  0  0  0
  188.2320  174.3690  137.2630 N   0  0  0  0  0  2  0  0  0  0  0  0
  188.8220  176.3510  136.1580 O   0  0  0  0  0  0  0  0  0  0  0  0
  190.6510  175.0460  136.9240 C   0  0  0  0  0  2  0  0  0  0  0  0
  190.8430  173.7670  137.4600 O   0  0  0  0  0  1  0  0  0  0  0  0
  185.7200  178.1290  142.5060 C   0  0  0  0  0  2  0  0  0  0  0  0
  185.9230  178.3220  143.9990 C   0  0  0  0  0  2  0  0  0  0  0  0
  187.5100  176.2120  143.5600 O   0  0  0  0  0  0  0  0  0  0  0  0
  186.8910  176.6890  145.8810 O   0  0  0  0  0  0  0  0  0  0  0  0
  187.2630  177.3030  144.5620 S   0  0  0  0  0  0  0  0  0  0  0  0
  188.6890  178.2820  144.7330 N   0  0  0  0  0  2  0  0  0  0  0  0
  189.8310  177.5100  144.2640 C   0  0  2  0  0  3  0  0  0  0  0  0
  190.6150  176.9560  145.4220 C   0  0  0  0  0  0  0  0  0  0  0  0
  192.0630  176.0650  147.6620 C   0  0  0  0  0  0  0  0  0  0  0  0
  192.7770  175.6500  148.7430 F   0  0  0  0  0  0  0  0  0  0  0  0
  191.8540  175.2840  143.9800 C   0  0  0  0  0  1  0  0  0  0  0  0
  190.3810  177.5150  146.6870 C   0  0  0  0  0  3  0  0  0  0  0  0
  191.0970  177.0720  147.8040 C   0  0  0  0  0  3  0  0  0  0  0  0
  192.2960  175.4950  146.4100 C   0  0  0  0  0  3  0  0  0  0  0  0
  191.5780  175.9300  145.2870 C   0  0  0  0  0  0  0  0  0  0  0  0
  190.7020  178.3370  143.3220 C   0  0  0  0  0  2  0  0  0  0  0  0
  191.5270  177.4700  141.2590 O   0  0  0  0  0  0  0  0  0  0  0  0
  190.5240  177.8650  141.9170 C   0  0  0  0  0  0  0  0  0  0  0  0
  189.2290  177.8910  141.3140 N   0  0  0  0  0  2  0  0  0  0  0  0
  189.0650  178.4930  138.9550 C   0  0  0  0  0  1  0  0  0  0  0  0
  188.9690  177.3760  139.9770 C   0  0  0  0  0  2  0  0  0  0  0  0
  1 22  1  0  0  0  0
  2  8  2  0  0  0  0
  2  6  1  0  0  0  0
  3  7  1  0  0  0  0
  4 11  1  0  0  0  0
  5  4  2  0  0  0  0
  6  5  1  0  0  0  0
  6  9  2  0  0  0  0
  8 10  1  0  0  0  0
  9  3  1  0  0  0  0
  9 11  1  0  0  0  0
 10  3  2  0  0  0  0
 11  1  1  1  0  0  0
 12  2  1  0  0  0  0
 13 17  1  0  0  0  0
 13 12  1  0  0  0  0
 15 18  1  0  0  0  0
 15 14  2  0  0  0  0
 16 20  1  0  0  0  0
 16 18  1  0  0  0  0
 17 15  1  0  0  0  0
 19 16  2  0  0  0  0
 20 21  1  0  0  0  0
 22 23  1  0  0  0  0
 23 26  1  0  0  0  0
 24 26  2  0  0  0  0
 26 27  1  0  0  0  0
 26 25  2  0  0  0  0
 28 37  1  1  0  0  0
 28 27  1  0  0  0  0
 28 29  1  0  0  0  0
 29 33  1  0  0  0  0
 30 34  1  0  0  0  0
 30 31  1  0  0  0  0
 32 36  1  0  0  0  0
 33 34  2  0  0  0  0
 35 30  2  0  0  0  0
 36 29  2  0  0  0  0
 36 35  1  0  0  0  0
 38 39  2  0  0  0  0
 39 37  1  0  0  0  0
 40 39  1  0  0  0  0
 41 42  1  0  0  0  0
 42 40  1  0  0  0  0
M  END
>  <MODEL>
9

>  <REMARK>
 VINA RESULT:      -7.9      2.953      5.452
  Name = 
  14 active torsions:
  status: ('A' for Active; 'I' for Inactive)
    1  A    between atoms: C_1  and  C_39
    2  A    between atoms: C_2  and  C_15
    3  A    between atoms: C_2  and  C_40
    4  A    between atoms: C_5  and  C_29
    5  A    between atoms: C_8  and  C_37
    6  A    between atoms: C_12  and  N_26
    7  A    between atoms: C_14  and  C_15
    8  A    between atoms: C_14  and  S_36
    9  A    between atoms: C_23  and  C_24
   10  A    between atoms: C_23  and  C_37
   11  A    between atoms: N_32  and  C_38
   12  A    between atoms: S_36  and  N_41
   13  A    between atoms: C_37  and  N_41
   14  A    between atoms: C_38  and  C_39
                            x       y       z     vdW  Elec       q    Type
                         _______ _______ _______ _____ _____    ______ ____

>  <TORSDO>
F 14

$$$$
