=
 OpenBabel11042410123D

 32 33  0  0  1  0  0  0  0  0999 V2000
  188.9880  177.1840  140.2590 C   0  0  1  0  0  3  0  0  0  0  0  0
  188.0260  178.0610  139.5070 C   0  0  1  0  0  3  0  0  0  0  0  0
  190.3480  177.5990  139.7280 C   0  0  2  0  0  3  0  0  0  0  0  0
  188.9290  178.9900  138.7280 C   0  0  0  0  0  2  0  0  0  0  0  0
  190.1710  178.3610  138.5630 O   0  0  0  0  0  0  0  0  0  0  0  0
  188.9010  177.4760  141.6830 N   0  0  0  0  0  2  0  0  0  0  0  0
  189.4370  176.6070  142.6860 C   0  0  0  0  0  0  0  0  0  0  0  0
  189.9760  175.5160  142.3530 O   0  0  0  0  0  0  0  0  0  0  0  0
  188.0700  177.7660  146.0150 C   0  0  0  0  0  3  0  0  0  0  0  0
  188.1400  177.3980  144.6670 C   0  0  0  0  0  3  0  0  0  0  0  0
  190.4350  177.3150  146.2620 C   0  0  0  0  0  3  0  0  0  0  0  0
  189.3590  176.9860  144.1080 C   0  0  0  0  0  0  0  0  0  0  0  0
  189.2160  177.7240  146.8120 C   0  0  0  0  0  0  0  0  0  0  0  0
  190.5060  176.9470  144.9160 C   0  0  0  0  0  3  0  0  0  0  0  0
  189.1500  178.0880  148.1160 F   0  0  0  0  0  0  0  0  0  0  0  0
  187.2910  177.2770  138.6140 O   0  0  0  0  0  0  0  0  0  0  0  0
  186.4080  178.1690  138.0030 C   0  0  0  0  0  2  0  0  0  0  0  0
  185.0660  178.1210  138.7100 C   0  0  0  0  0  2  0  0  0  0  0  0
  184.0990  180.3600  138.9040 O   0  0  0  0  0  0  0  0  0  0  0  0
  184.8590  179.3540  139.4510 N   0  0  0  0  0  0  0  0  0  0  0  0
  185.2250  179.4320  140.6410 O   0  0  0  0  0  0  0  0  0  0  0  0
  191.2220  176.3840  139.4440 C   0  0  0  0  0  2  0  0  0  0  0  0
  190.5930  175.5190  138.5440 O   0  0  0  0  0  0  0  0  0  0  0  0
  191.6280  175.0180  137.7500 C   0  0  0  0  0  2  0  0  0  0  0  0
  192.7840  176.0030  137.7170 C   0  0  0  0  0  2  0  0  0  0  0  0
  193.9820  175.3930  137.0140 C   0  0  0  0  0  2  0  0  0  0  0  0
  195.2970  172.4050  138.7670 N   0  0  0  0  0  2  0  0  0  0  0  0
  195.2250  173.6470  138.4180 C   0  0  0  0  0  0  0  0  0  0  0  0
  194.1910  174.0410  137.5070 N   0  0  0  0  0  2  0  0  0  0  0  0
  195.9160  175.2350  140.1970 O   0  0  0  0  0  1  0  0  0  0  0  0
  197.2840  174.8610  138.4050 O   0  0  0  0  0  0  0  0  0  0  0  0
  196.1980  174.6050  138.9890 C   0  0  0  0  0  0  0  0  0  0  0  0
  1  6  1  1  0  0  0
  2 16  1  6  0  0  0
  2  1  1  0  0  0  0
  3 22  1  6  0  0  0
  3  1  1  0  0  0  0
  4  2  1  0  0  0  0
  5  4  1  0  0  0  0
  5  3  1  0  0  0  0
  6  7  1  0  0  0  0
  7 12  1  0  0  0  0
  8  7  2  0  0  0  0
  9 13  1  0  0  0  0
 10  9  2  0  0  0  0
 11 13  2  0  0  0  0
 12 10  1  0  0  0  0
 12 14  2  0  0  0  0
 13 15  1  0  0  0  0
 14 11  1  0  0  0  0
 17 16  1  0  0  0  0
 17 18  1  0  0  0  0
 18 20  1  0  0  0  0
 19 20  2  0  0  0  0
 20 21  2  0  0  0  0
 23 22  1  0  0  0  0
 24 23  1  0  0  0  0
 25 24  1  0  0  0  0
 26 29  1  0  0  0  0
 26 25  1  0  0  0  0
 28 27  2  0  0  0  0
 28 32  1  0  0  0  0
 29 28  1  0  0  0  0
 31 32  2  0  0  0  0
 32 30  1  0  0  0  0
M  END
>  <MODEL>
1

>  <REMARK>
 VINA RESULT:      -7.1      0.000      0.000
  Name = 
  13 active torsions:
  status: ('A' for Active; 'I' for Inactive)
    1  A    between atoms: N_2  and  C_11
    2  A    between atoms: C_4  and  C_15
    3  A    between atoms: C_4  and  O_16
    4  A    between atoms: O_7  and  C_14
    5  A    between atoms: O_7  and  C_18
    6  A    between atoms: C_9  and  C_29
    7  A    between atoms: C_10  and  C_21
    8  A    between atoms: C_15  and  C_20
    9  A    between atoms: O_16  and  C_23
   10  A    between atoms: C_17  and  C_23
   11  A    between atoms: C_18  and  C_24
   12  A    between atoms: C_20  and  N_30
   13  A    between atoms: C_24  and  N_25
                            x       y       z     vdW  Elec       q    Type
                         _______ _______ _______ _____ _____    ______ ____

>  <TORSDO>
F 13

$$$$
=
 OpenBabel11042410123D

 32 33  0  0  1  0  0  0  0  0999 V2000
  189.5750  177.8960  142.3470 C   0  0  1  0  0  3  0  0  0  0  0  0
  190.1810  177.0350  143.4200 C   0  0  1  0  0  3  0  0  0  0  0  0
  189.6300  177.0240  141.1070 C   0  0  2  0  0  3  0  0  0  0  0  0
  190.3910  175.7060  142.7300 C   0  0  0  0  0  2  0  0  0  0  0  0
  190.4830  175.9360  141.3510 O   0  0  0  0  0  0  0  0  0  0  0  0
  188.1900  178.1930  142.6850 N   0  0  0  0  0  2  0  0  0  0  0  0
  187.5550  177.6860  143.8640 C   0  0  0  0  0  0  0  0  0  0  0  0
  188.1860  176.9160  144.6390 O   0  0  0  0  0  0  0  0  0  0  0  0
  183.9010  178.5610  143.4380 C   0  0  0  0  0  3  0  0  0  0  0  0
  185.2190  178.1920  143.1450 C   0  0  0  0  0  3  0  0  0  0  0  0
  184.4590  178.6800  145.7910 C   0  0  0  0  0  3  0  0  0  0  0  0
  186.1650  178.0650  144.1730 C   0  0  0  0  0  0  0  0  0  0  0  0
  183.5220  178.8040  144.7610 C   0  0  0  0  0  0  0  0  0  0  0  0
  185.7750  178.3120  145.4990 C   0  0  0  0  0  3  0  0  0  0  0  0
  182.2470  179.1680  145.0450 F   0  0  0  0  0  0  0  0  0  0  0  0
  191.4200  177.5640  143.7890 O   0  0  0  0  0  0  0  0  0  0  0  0
  191.3220  177.7690  145.1660 C   0  0  0  0  0  2  0  0  0  0  0  0
  191.7190  176.5000  145.8990 C   0  0  0  0  0  2  0  0  0  0  0  0
  192.4690  176.5020  148.2270 O   0  0  0  0  0  0  0  0  0  0  0  0
  191.4490  176.6500  147.3190 N   0  0  0  0  0  0  0  0  0  0  0  0
  190.3390  177.0740  147.6980 O   0  0  0  0  0  0  0  0  0  0  0  0
  190.1070  177.8160  139.8970 C   0  0  0  0  0  2  0  0  0  0  0  0
  189.0540  178.5390  139.3300 O   0  0  0  0  0  0  0  0  0  0  0  0
  189.1530  178.2950  137.9570 C   0  0  0  0  0  2  0  0  0  0  0  0
  188.0010  177.4170  137.4980 C   0  0  0  0  0  2  0  0  0  0  0  0
  186.9040  178.2610  136.8770 C   0  0  0  0  0  2  0  0  0  0  0  0
  183.5900  177.3000  138.2240 N   0  0  0  0  0  2  0  0  0  0  0  0
  184.6960  177.9610  138.1420 C   0  0  0  0  0  0  0  0  0  0  0  0
  185.6190  177.6190  137.0990 N   0  0  0  0  0  2  0  0  0  0  0  0
  185.9410  178.8930  140.0770 O   0  0  0  0  0  1  0  0  0  0  0  0
  184.2910  180.1210  139.0820 O   0  0  0  0  0  0  0  0  0  0  0  0
  184.9510  179.0490  139.1120 C   0  0  0  0  0  0  0  0  0  0  0  0
  1  6  1  1  0  0  0
  1  2  1  0  0  0  0
  2 16  1  6  0  0  0
  3 22  1  6  0  0  0
  3  5  1  0  0  0  0
  3  1  1  0  0  0  0
  4  2  1  0  0  0  0
  5  4  1  0  0  0  0
  6  7  1  0  0  0  0
  7 12  1  0  0  0  0
  7  8  2  0  0  0  0
  9 13  1  0  0  0  0
 10  9  2  0  0  0  0
 10 12  1  0  0  0  0
 12 14  2  0  0  0  0
 13 15  1  0  0  0  0
 13 11  2  0  0  0  0
 14 11  1  0  0  0  0
 16 17  1  0  0  0  0
 17 18  1  0  0  0  0
 18 20  1  0  0  0  0
 20 21  2  0  0  0  0
 20 19  2  0  0  0  0
 23 22  1  0  0  0  0
 24 23  1  0  0  0  0
 25 24  1  0  0  0  0
 26 29  1  0  0  0  0
 26 25  1  0  0  0  0
 28 27  2  0  0  0  0
 28 32  1  0  0  0  0
 29 28  1  0  0  0  0
 31 32  2  0  0  0  0
 32 30  1  0  0  0  0
M  END
>  <MODEL>
2

>  <REMARK>
 VINA RESULT:      -7.0      4.094      7.561
  Name = 
  13 active torsions:
  status: ('A' for Active; 'I' for Inactive)
    1  A    between atoms: N_2  and  C_11
    2  A    between atoms: C_4  and  C_15
    3  A    between atoms: C_4  and  O_16
    4  A    between atoms: O_7  and  C_14
    5  A    between atoms: O_7  and  C_18
    6  A    between atoms: C_9  and  C_29
    7  A    between atoms: C_10  and  C_21
    8  A    between atoms: C_15  and  C_20
    9  A    between atoms: O_16  and  C_23
   10  A    between atoms: C_17  and  C_23
   11  A    between atoms: C_18  and  C_24
   12  A    between atoms: C_20  and  N_30
   13  A    between atoms: C_24  and  N_25
                            x       y       z     vdW  Elec       q    Type
                         _______ _______ _______ _____ _____    ______ ____

>  <TORSDO>
F 13

$$$$
=
 OpenBabel11042410123D

 32 33  0  0  1  0  0  0  0  0999 V2000
  188.6220  177.2050  140.3320 C   0  0  1  0  0  3  0  0  0  0  0  0
  188.0340  177.6900  139.0370 C   0  0  1  0  0  3  0  0  0  0  0  0
  189.9970  177.8470  140.3690 C   0  0  2  0  0  3  0  0  0  0  0  0
  189.0620  178.6740  138.5270 C   0  0  0  0  0  2  0  0  0  0  0  0
  190.3020  178.3470  139.0930 O   0  0  0  0  0  0  0  0  0  0  0  0
  187.8180  177.6910  141.4440 N   0  0  0  0  0  2  0  0  0  0  0  0
  187.7120  176.9900  142.6880 C   0  0  0  0  0  0  0  0  0  0  0  0
  188.2980  175.8830  142.8410 O   0  0  0  0  0  0  0  0  0  0  0  0
  186.6140  177.9930  146.1650 C   0  0  0  0  0  3  0  0  0  0  0  0
  187.3710  177.4570  145.1170 C   0  0  0  0  0  3  0  0  0  0  0  0
  184.9480  178.7450  144.5770 C   0  0  0  0  0  3  0  0  0  0  0  0
  186.9210  177.5630  143.7920 C   0  0  0  0  0  0  0  0  0  0  0  0
  185.4040  178.6360  145.8940 C   0  0  0  0  0  0  0  0  0  0  0  0
  185.7040  178.2110  143.5300 C   0  0  0  0  0  3  0  0  0  0  0  0
  184.6660  179.1490  146.9100 F   0  0  0  0  0  0  0  0  0  0  0  0
  187.9390  176.6180  138.1450 O   0  0  0  0  0  0  0  0  0  0  0  0
  186.9600  177.0050  137.2280 C   0  0  0  0  0  2  0  0  0  0  0  0
  187.2440  176.3660  135.8810 C   0  0  0  0  0  2  0  0  0  0  0  0
  189.3980  175.2470  135.5810 O   0  0  0  0  0  0  0  0  0  0  0  0
  188.6710  176.4120  135.6070 N   0  0  0  0  0  0  0  0  0  0  0  0
  189.1960  177.4800  135.2330 O   0  0  0  0  0  0  0  0  0  0  0  0
  191.0580  176.8510  140.8210 C   0  0  0  0  0  2  0  0  0  0  0  0
  191.1940  176.8670  142.2120 O   0  0  0  0  0  0  0  0  0  0  0  0
  191.3320  178.2180  142.5400 C   0  0  0  0  0  2  0  0  0  0  0  0
  191.5630  178.3710  144.0350 C   0  0  0  0  0  2  0  0  0  0  0  0
  190.9720  177.1940  144.7870 C   0  0  0  0  0  2  0  0  0  0  0  0
  192.2620  176.5140  148.1920 N   0  0  0  0  0  2  0  0  0  0  0  0
  191.3920  176.8100  147.2850 C   0  0  0  0  0  0  0  0  0  0  0  0
  191.8240  176.8690  145.9190 N   0  0  0  0  0  2  0  0  0  0  0  0
  189.5940  178.3340  148.0640 O   0  0  0  0  0  1  0  0  0  0  0  0
  189.1420  176.1230  147.7110 O   0  0  0  0  0  0  0  0  0  0  0  0
  189.9900  177.0530  147.6940 C   0  0  0  0  0  0  0  0  0  0  0  0
  1  3  1  0  0  0  0
  1  6  1  1  0  0  0
  2 16  1  6  0  0  0
  2  1  1  0  0  0  0
  3 22  1  6  0  0  0
  4  2  1  0  0  0  0
  4  5  1  0  0  0  0
  5  3  1  0  0  0  0
  6  7  1  0  0  0  0
  7  8  2  0  0  0  0
  7 12  1  0  0  0  0
 10  9  2  0  0  0  0
 11 13  2  0  0  0  0
 12 10  1  0  0  0  0
 13  9  1  0  0  0  0
 13 15  1  0  0  0  0
 14 12  2  0  0  0  0
 14 11  1  0  0  0  0
 17 16  1  0  0  0  0
 18 17  1  0  0  0  0
 19 20  2  0  0  0  0
 20 18  1  0  0  0  0
 21 20  2  0  0  0  0
 22 23  1  0  0  0  0
 23 24  1  0  0  0  0
 24 25  1  0  0  0  0
 25 26  1  0  0  0  0
 26 29  1  0  0  0  0
 28 32  1  0  0  0  0
 28 27  2  0  0  0  0
 29 28  1  0  0  0  0
 32 31  2  0  0  0  0
 32 30  1  0  0  0  0
M  END
>  <MODEL>
3

>  <REMARK>
 VINA RESULT:      -6.9      3.720      5.994
  Name = 
  13 active torsions:
  status: ('A' for Active; 'I' for Inactive)
    1  A    between atoms: N_2  and  C_11
    2  A    between atoms: C_4  and  C_15
    3  A    between atoms: C_4  and  O_16
    4  A    between atoms: O_7  and  C_14
    5  A    between atoms: O_7  and  C_18
    6  A    between atoms: C_9  and  C_29
    7  A    between atoms: C_10  and  C_21
    8  A    between atoms: C_15  and  C_20
    9  A    between atoms: O_16  and  C_23
   10  A    between atoms: C_17  and  C_23
   11  A    between atoms: C_18  and  C_24
   12  A    between atoms: C_20  and  N_30
   13  A    between atoms: C_24  and  N_25
                            x       y       z     vdW  Elec       q    Type
                         _______ _______ _______ _____ _____    ______ ____

>  <TORSDO>
F 13

$$$$
=
 OpenBabel11042410123D

 32 33  0  0  1  0  0  0  0  0999 V2000
  188.6090  177.1740  140.2450 C   0  0  1  0  0  3  0  0  0  0  0  0
  188.0230  177.6580  138.9480 C   0  0  1  0  0  3  0  0  0  0  0  0
  189.9790  177.8250  140.2900 C   0  0  2  0  0  3  0  0  0  0  0  0
  189.0480  178.6500  138.4450 C   0  0  0  0  0  2  0  0  0  0  0  0
  190.2870  178.3300  139.0170 O   0  0  0  0  0  0  0  0  0  0  0  0
  187.7950  177.6520  141.3540 N   0  0  0  0  0  2  0  0  0  0  0  0
  187.7570  176.9950  142.6250 C   0  0  0  0  0  0  0  0  0  0  0  0
  188.4130  175.9330  142.8070 O   0  0  0  0  0  0  0  0  0  0  0  0
  186.5490  177.8690  146.1000 C   0  0  0  0  0  3  0  0  0  0  0  0
  187.3200  177.3400  145.0590 C   0  0  0  0  0  3  0  0  0  0  0  0
  185.0320  178.8410  144.4830 C   0  0  0  0  0  3  0  0  0  0  0  0
  186.9510  177.5590  143.7230 C   0  0  0  0  0  0  0  0  0  0  0  0
  185.4060  178.6190  145.8120 C   0  0  0  0  0  0  0  0  0  0  0  0
  185.8010  178.3140  143.4430 C   0  0  0  0  0  3  0  0  0  0  0  0
  184.6550  179.1250  146.8210 F   0  0  0  0  0  0  0  0  0  0  0  0
  187.9400  176.5880  138.0530 O   0  0  0  0  0  0  0  0  0  0  0  0
  187.1610  177.0680  136.9980 C   0  0  0  0  0  2  0  0  0  0  0  0
  185.8080  177.5110  137.5250 C   0  0  0  0  0  2  0  0  0  0  0  0
  183.6270  176.9870  136.5510 O   0  0  0  0  0  0  0  0  0  0  0  0
  184.7910  176.5490  137.1340 N   0  0  0  0  0  0  0  0  0  0  0  0
  185.0440  175.3290  137.1730 O   0  0  0  0  0  0  0  0  0  0  0  0
  191.0440  176.8350  140.7440 C   0  0  0  0  0  2  0  0  0  0  0  0
  192.0450  177.4820  141.4740 O   0  0  0  0  0  0  0  0  0  0  0  0
  191.7080  177.2620  142.8120 C   0  0  0  0  0  2  0  0  0  0  0  0
  191.2460  178.5590  143.4550 C   0  0  0  0  0  2  0  0  0  0  0  0
  190.6740  178.2940  144.8340 C   0  0  0  0  0  2  0  0  0  0  0  0
  192.2220  176.1210  147.4050 N   0  0  0  0  0  2  0  0  0  0  0  0
  191.3060  176.8420  146.8480 C   0  0  0  0  0  0  0  0  0  0  0  0
  191.5920  177.4520  145.5830 N   0  0  0  0  0  2  0  0  0  0  0  0
  189.6580  178.2070  148.1080 O   0  0  0  0  0  1  0  0  0  0  0  0
  189.1880  176.0300  147.6010 O   0  0  0  0  0  0  0  0  0  0  0  0
  190.0010  176.9880  147.5310 C   0  0  0  0  0  0  0  0  0  0  0  0
  1  3  1  0  0  0  0
  1  6  1  1  0  0  0
  2 16  1  6  0  0  0
  2  1  1  0  0  0  0
  3 22  1  6  0  0  0
  4  2  1  0  0  0  0
  4  5  1  0  0  0  0
  5  3  1  0  0  0  0
  6  7  1  0  0  0  0
  7  8  2  0  0  0  0
  7 12  1  0  0  0  0
 10  9  2  0  0  0  0
 11 13  2  0  0  0  0
 12 10  1  0  0  0  0
 13  9  1  0  0  0  0
 13 15  1  0  0  0  0
 14 12  2  0  0  0  0
 14 11  1  0  0  0  0
 17 18  1  0  0  0  0
 17 16  1  0  0  0  0
 19 20  2  0  0  0  0
 20 21  2  0  0  0  0
 20 18  1  0  0  0  0
 22 23  1  0  0  0  0
 23 24  1  0  0  0  0
 24 25  1  0  0  0  0
 25 26  1  0  0  0  0
 26 29  1  0  0  0  0
 28 27  2  0  0  0  0
 28 32  1  0  0  0  0
 29 28  1  0  0  0  0
 32 31  2  0  0  0  0
 32 30  1  0  0  0  0
M  END
>  <MODEL>
4

>  <REMARK>
 VINA RESULT:      -6.9      3.741      5.620
  Name = 
  13 active torsions:
  status: ('A' for Active; 'I' for Inactive)
    1  A    between atoms: N_2  and  C_11
    2  A    between atoms: C_4  and  C_15
    3  A    between atoms: C_4  and  O_16
    4  A    between atoms: O_7  and  C_14
    5  A    between atoms: O_7  and  C_18
    6  A    between atoms: C_9  and  C_29
    7  A    between atoms: C_10  and  C_21
    8  A    between atoms: C_15  and  C_20
    9  A    between atoms: O_16  and  C_23
   10  A    between atoms: C_17  and  C_23
   11  A    between atoms: C_18  and  C_24
   12  A    between atoms: C_20  and  N_30
   13  A    between atoms: C_24  and  N_25
                            x       y       z     vdW  Elec       q    Type
                         _______ _______ _______ _____ _____    ______ ____

>  <TORSDO>
F 13

$$$$
=
 OpenBabel11042410123D

 32 33  0  0  1  0  0  0  0  0999 V2000
  188.8850  177.0910  139.9640 C   0  0  1  0  0  3  0  0  0  0  0  0
  187.8610  177.6490  139.0170 C   0  0  1  0  0  3  0  0  0  0  0  0
  190.1530  177.8500  139.6170 C   0  0  2  0  0  3  0  0  0  0  0  0
  188.5970  178.7700  138.3200 C   0  0  0  0  0  2  0  0  0  0  0  0
  189.9710  178.5030  138.3880 O   0  0  0  0  0  0  0  0  0  0  0  0
  188.4910  177.3840  141.3350 N   0  0  0  0  0  2  0  0  0  0  0  0
  189.0400  176.6950  142.4630 C   0  0  0  0  0  0  0  0  0  0  0  0
  189.8720  175.7630  142.2900 O   0  0  0  0  0  0  0  0  0  0  0  0
  189.2130  177.6050  146.1290 C   0  0  0  0  0  3  0  0  0  0  0  0
  189.6000  177.2530  144.8310 C   0  0  0  0  0  3  0  0  0  0  0  0
  186.8930  177.6070  145.4370 C   0  0  0  0  0  3  0  0  0  0  0  0
  188.6350  177.0760  143.8280 C   0  0  0  0  0  0  0  0  0  0  0  0
  187.8610  177.7820  146.4320 C   0  0  0  0  0  0  0  0  0  0  0  0
  187.2780  177.2550  144.1410 C   0  0  0  0  0  3  0  0  0  0  0  0
  187.4850  178.1160  147.6910 F   0  0  0  0  0  0  0  0  0  0  0  0
  187.5190  176.6700  138.0810 O   0  0  0  0  0  0  0  0  0  0  0  0
  186.6920  177.3260  137.1670 C   0  0  0  0  0  2  0  0  0  0  0  0
  186.8290  176.6790  135.8010 C   0  0  0  0  0  2  0  0  0  0  0  0
  188.8430  175.3470  135.4110 O   0  0  0  0  0  0  0  0  0  0  0  0
  188.2340  176.5780  135.4450 N   0  0  0  0  0  0  0  0  0  0  0  0
  188.8370  177.5800  135.0100 O   0  0  0  0  0  0  0  0  0  0  0  0
  191.3540  176.9150  139.5530 C   0  0  0  0  0  2  0  0  0  0  0  0
  190.9820  175.6620  139.0580 O   0  0  0  0  0  0  0  0  0  0  0  0
  191.6580  175.5460  137.8410 C   0  0  0  0  0  2  0  0  0  0  0  0
  193.0470  176.1530  137.9540 C   0  0  0  0  0  2  0  0  0  0  0  0
  194.0190  175.4270  137.0440 C   0  0  0  0  0  2  0  0  0  0  0  0
  195.3120  172.4410  138.8150 N   0  0  0  0  0  2  0  0  0  0  0  0
  195.2420  173.6830  138.4670 C   0  0  0  0  0  0  0  0  0  0  0  0
  194.2240  174.0750  137.5380 N   0  0  0  0  0  2  0  0  0  0  0  0
  197.3840  174.9360  138.3840 O   0  0  0  0  0  0  0  0  0  0  0  0
  195.9700  175.2070  140.1580 O   0  0  0  0  0  1  0  0  0  0  0  0
  196.2020  174.6430  139.0570 C   0  0  0  0  0  0  0  0  0  0  0  0
  1  6  1  1  0  0  0
  2 16  1  6  0  0  0
  2  1  1  0  0  0  0
  3 22  1  6  0  0  0
  3  1  1  0  0  0  0
  4  5  1  0  0  0  0
  4  2  1  0  0  0  0
  5  3  1  0  0  0  0
  6  7  1  0  0  0  0
  7 12  1  0  0  0  0
  8  7  2  0  0  0  0
  9 13  1  0  0  0  0
 10  9  2  0  0  0  0
 11 13  2  0  0  0  0
 12 14  2  0  0  0  0
 12 10  1  0  0  0  0
 13 15  1  0  0  0  0
 14 11  1  0  0  0  0
 17 16  1  0  0  0  0
 18 17  1  0  0  0  0
 19 20  2  0  0  0  0
 20 18  1  0  0  0  0
 21 20  2  0  0  0  0
 23 22  1  0  0  0  0
 24 25  1  0  0  0  0
 24 23  1  0  0  0  0
 26 29  1  0  0  0  0
 26 25  1  0  0  0  0
 28 27  2  0  0  0  0
 28 32  1  0  0  0  0
 29 28  1  0  0  0  0
 30 32  2  0  0  0  0
 32 31  1  0  0  0  0
M  END
>  <MODEL>
5

>  <REMARK>
 VINA RESULT:      -6.8      1.626      2.536
  Name = 
  13 active torsions:
  status: ('A' for Active; 'I' for Inactive)
    1  A    between atoms: N_2  and  C_11
    2  A    between atoms: C_4  and  C_15
    3  A    between atoms: C_4  and  O_16
    4  A    between atoms: O_7  and  C_14
    5  A    between atoms: O_7  and  C_18
    6  A    between atoms: C_9  and  C_29
    7  A    between atoms: C_10  and  C_21
    8  A    between atoms: C_15  and  C_20
    9  A    between atoms: O_16  and  C_23
   10  A    between atoms: C_17  and  C_23
   11  A    between atoms: C_18  and  C_24
   12  A    between atoms: C_20  and  N_30
   13  A    between atoms: C_24  and  N_25
                            x       y       z     vdW  Elec       q    Type
                         _______ _______ _______ _____ _____    ______ ____

>  <TORSDO>
F 13

$$$$
=
 OpenBabel11042410123D

 32 33  0  0  1  0  0  0  0  0999 V2000
  185.1600  177.8800  141.5540 C   0  0  1  0  0  3  0  0  0  0  0  0
  183.7010  178.1680  141.3360 C   0  0  1  0  0  3  0  0  0  0  0  0
  185.8670  178.9220  140.7080 C   0  0  2  0  0  3  0  0  0  0  0  0
  183.7100  179.4320  140.5060 C   0  0  0  0  0  2  0  0  0  0  0  0
  184.9380  179.5070  139.8330 O   0  0  0  0  0  0  0  0  0  0  0  0
  185.4890  178.0750  142.9590 N   0  0  0  0  0  2  0  0  0  0  0  0
  186.6660  177.5260  143.5620 C   0  0  0  0  0  0  0  0  0  0  0  0
  187.4470  176.8070  142.8810 O   0  0  0  0  0  0  0  0  0  0  0  0
  188.5180  177.7750  146.8490 C   0  0  0  0  0  3  0  0  0  0  0  0
  188.2370  177.5210  145.5020 C   0  0  0  0  0  3  0  0  0  0  0  0
  186.2630  178.5980  147.1640 C   0  0  0  0  0  3  0  0  0  0  0  0
  186.9660  177.8030  144.9780 C   0  0  0  0  0  0  0  0  0  0  0  0
  187.5320  178.3140  147.6790 C   0  0  0  0  0  0  0  0  0  0  0  0
  185.9820  178.3440  145.8200 C   0  0  0  0  0  3  0  0  0  0  0  0
  187.8020  178.5550  148.9860 F   0  0  0  0  0  0  0  0  0  0  0  0
  183.1340  177.1310  140.5910 O   0  0  0  0  0  0  0  0  0  0  0  0
  181.8430  177.5730  140.2930 C   0  0  0  0  0  2  0  0  0  0  0  0
  181.4600  177.1200  138.8960 C   0  0  0  0  0  2  0  0  0  0  0  0
  180.6810  174.8950  139.5470 O   0  0  0  0  0  0  0  0  0  0  0  0
  181.5420  175.6710  138.8110 N   0  0  0  0  0  0  0  0  0  0  0  0
  182.2730  175.1410  137.9510 O   0  0  0  0  0  0  0  0  0  0  0  0
  187.0210  178.3070  139.9280 C   0  0  0  0  0  2  0  0  0  0  0  0
  188.2130  178.9920  140.1820 O   0  0  0  0  0  0  0  0  0  0  0  0
  189.1730  178.3370  139.4060 C   0  0  0  0  0  2  0  0  0  0  0  0
  189.6060  177.0500  140.0890 C   0  0  0  0  0  2  0  0  0  0  0  0
  191.0710  177.1210  140.4760 C   0  0  0  0  0  2  0  0  0  0  0  0
  191.3730  178.2470  143.9920 N   0  0  0  0  0  2  0  0  0  0  0  0
  191.2490  177.4110  143.0150 C   0  0  0  0  0  0  0  0  0  0  0  0
  191.2120  177.9260  141.6780 N   0  0  0  0  0  2  0  0  0  0  0  0
  190.0940  175.2200  142.8470 O   0  0  0  0  0  0  0  0  0  0  0  0
  192.0600  175.3890  143.9980 O   0  0  0  0  0  1  0  0  0  0  0  0
  191.1700  175.9650  143.3200 C   0  0  0  0  0  0  0  0  0  0  0  0
  1  6  1  1  0  0  0
  2 16  1  6  0  0  0
  2  1  1  0  0  0  0
  3 22  1  6  0  0  0
  3  1  1  0  0  0  0
  4  2  1  0  0  0  0
  5  4  1  0  0  0  0
  5  3  1  0  0  0  0
  6  7  1  0  0  0  0
  7 12  1  0  0  0  0
  8  7  2  0  0  0  0
  9 13  1  0  0  0  0
 10  9  2  0  0  0  0
 11 13  2  0  0  0  0
 12 10  1  0  0  0  0
 12 14  2  0  0  0  0
 13 15  1  0  0  0  0
 14 11  1  0  0  0  0
 17 16  1  0  0  0  0
 18 17  1  0  0  0  0
 20 18  1  0  0  0  0
 20 19  2  0  0  0  0
 21 20  2  0  0  0  0
 22 23  1  0  0  0  0
 24 25  1  0  0  0  0
 24 23  1  0  0  0  0
 25 26  1  0  0  0  0
 26 29  1  0  0  0  0
 28 32  1  0  0  0  0
 28 27  2  0  0  0  0
 29 28  1  0  0  0  0
 30 32  2  0  0  0  0
 32 31  1  0  0  0  0
M  END
>  <MODEL>
6

>  <REMARK>
 VINA RESULT:      -6.7      3.494      4.976
  Name = 
  13 active torsions:
  status: ('A' for Active; 'I' for Inactive)
    1  A    between atoms: N_2  and  C_11
    2  A    between atoms: C_4  and  C_15
    3  A    between atoms: C_4  and  O_16
    4  A    between atoms: O_7  and  C_14
    5  A    between atoms: O_7  and  C_18
    6  A    between atoms: C_9  and  C_29
    7  A    between atoms: C_10  and  C_21
    8  A    between atoms: C_15  and  C_20
    9  A    between atoms: O_16  and  C_23
   10  A    between atoms: C_17  and  C_23
   11  A    between atoms: C_18  and  C_24
   12  A    between atoms: C_20  and  N_30
   13  A    between atoms: C_24  and  N_25
                            x       y       z     vdW  Elec       q    Type
                         _______ _______ _______ _____ _____    ______ ____

>  <TORSDO>
F 13

$$$$
=
 OpenBabel11042410123D

 32 33  0  0  1  0  0  0  0  0999 V2000
  189.0970  177.8050  142.5040 C   0  0  1  0  0  3  0  0  0  0  0  0
  189.9680  177.1420  143.5340 C   0  0  1  0  0  3  0  0  0  0  0  0
  189.1660  176.8660  141.3130 C   0  0  2  0  0  3  0  0  0  0  0  0
  190.3340  175.8220  142.8930 C   0  0  0  0  0  2  0  0  0  0  0  0
  190.2240  175.9640  141.5030 O   0  0  0  0  0  0  0  0  0  0  0  0
  187.7300  177.8800  142.9990 N   0  0  0  0  0  2  0  0  0  0  0  0
  186.7180  178.6650  142.3590 C   0  0  0  0  0  0  0  0  0  0  0  0
  187.0040  179.3620  141.3480 O   0  0  0  0  0  0  0  0  0  0  0  0
  183.7940  178.8020  144.7530 C   0  0  0  0  0  3  0  0  0  0  0  0
  185.1020  178.8170  144.2560 C   0  0  0  0  0  3  0  0  0  0  0  0
  182.9460  178.4690  142.5090 C   0  0  0  0  0  3  0  0  0  0  0  0
  185.3400  178.6590  142.8820 C   0  0  0  0  0  0  0  0  0  0  0  0
  182.7170  178.6280  143.8800 C   0  0  0  0  0  0  0  0  0  0  0  0
  184.2520  178.4840  142.0130 C   0  0  0  0  0  3  0  0  0  0  0  0
  181.4490  178.6060  144.3610 F   0  0  0  0  0  0  0  0  0  0  0  0
  191.1260  177.9030  143.7170 O   0  0  0  0  0  0  0  0  0  0  0  0
  191.3490  177.8840  145.0950 C   0  0  0  0  0  2  0  0  0  0  0  0
  190.1390  177.2970  145.7980 C   0  0  0  0  0  2  0  0  0  0  0  0
  191.6950  176.7170  147.5940 O   0  0  0  0  0  0  0  0  0  0  0  0
  190.4360  177.1080  147.2080 N   0  0  0  0  0  0  0  0  0  0  0  0
  189.6060  177.4600  148.0700 O   0  0  0  0  0  0  0  0  0  0  0  0
  189.3490  177.6390  140.0130 C   0  0  0  0  0  2  0  0  0  0  0  0
  188.4480  177.1970  139.0410 O   0  0  0  0  0  0  0  0  0  0  0  0
  188.3620  178.2530  138.1300 C   0  0  0  0  0  2  0  0  0  0  0  0
  187.6590  177.7940  136.8630 C   0  0  0  0  0  2  0  0  0  0  0  0
  186.1600  177.7180  137.0840 C   0  0  0  0  0  2  0  0  0  0  0  0
  184.1710  180.1130  139.0930 N   0  0  0  0  0  2  0  0  0  0  0  0
  184.4090  179.0530  138.3950 C   0  0  0  0  0  0  0  0  0  0  0  0
  185.7350  178.8520  137.8890 N   0  0  0  0  0  2  0  0  0  0  0  0
  183.1750  176.9860  139.0060 O   0  0  0  0  0  1  0  0  0  0  0  0
  182.4860  178.2440  137.2270 O   0  0  0  0  0  0  0  0  0  0  0  0
  183.3100  178.0880  138.1660 C   0  0  0  0  0  0  0  0  0  0  0  0
  1  6  1  1  0  0  0
  1  2  1  0  0  0  0
  2 16  1  6  0  0  0
  3 22  1  6  0  0  0
  3  5  1  0  0  0  0
  3  1  1  0  0  0  0
  4  2  1  0  0  0  0
  5  4  1  0  0  0  0
  7 12  1  0  0  0  0
  7  6  1  0  0  0  0
  8  7  2  0  0  0  0
 10  9  1  0  0  0  0
 11 13  1  0  0  0  0
 12 10  2  0  0  0  0
 13 15  1  0  0  0  0
 13  9  2  0  0  0  0
 14 11  2  0  0  0  0
 14 12  1  0  0  0  0
 16 17  1  0  0  0  0
 17 18  1  0  0  0  0
 18 20  1  0  0  0  0
 20 19  2  0  0  0  0
 20 21  2  0  0  0  0
 23 22  1  0  0  0  0
 24 23  1  0  0  0  0
 25 26  1  0  0  0  0
 25 24  1  0  0  0  0
 26 29  1  0  0  0  0
 28 27  2  0  0  0  0
 29 28  1  0  0  0  0
 31 32  2  0  0  0  0
 32 28  1  0  0  0  0
 32 30  1  0  0  0  0
M  END
>  <MODEL>
7

>  <REMARK>
 VINA RESULT:      -6.6      4.305      8.024
  Name = 
  13 active torsions:
  status: ('A' for Active; 'I' for Inactive)
    1  A    between atoms: N_2  and  C_11
    2  A    between atoms: C_4  and  C_15
    3  A    between atoms: C_4  and  O_16
    4  A    between atoms: O_7  and  C_14
    5  A    between atoms: O_7  and  C_18
    6  A    between atoms: C_9  and  C_29
    7  A    between atoms: C_10  and  C_21
    8  A    between atoms: C_15  and  C_20
    9  A    between atoms: O_16  and  C_23
   10  A    between atoms: C_17  and  C_23
   11  A    between atoms: C_18  and  C_24
   12  A    between atoms: C_20  and  N_30
   13  A    between atoms: C_24  and  N_25
                            x       y       z     vdW  Elec       q    Type
                         _______ _______ _______ _____ _____    ______ ____

>  <TORSDO>
F 13

$$$$
=
 OpenBabel11042410123D

 32 33  0  0  1  0  0  0  0  0999 V2000
  190.6480  176.7880  138.6670 C   0  0  1  0  0  3  0  0  0  0  0  0
  191.3510  175.5010  138.3390 C   0  0  1  0  0  3  0  0  0  0  0  0
  189.4820  176.8230  137.6950 C   0  0  2  0  0  3  0  0  0  0  0  0
  190.4440  174.8530  137.3170 C   0  0  0  0  0  2  0  0  0  0  0  0
  189.6910  175.8590  136.6960 O   0  0  0  0  0  0  0  0  0  0  0  0
  190.1520  176.7380  140.0350 N   0  0  0  0  0  2  0  0  0  0  0  0
  190.9320  177.1640  141.1570 C   0  0  0  0  0  0  0  0  0  0  0  0
  192.1150  177.5670  140.9870 O   0  0  0  0  0  0  0  0  0  0  0  0
  188.4110  177.0540  143.9730 C   0  0  0  0  0  3  0  0  0  0  0  0
  188.9610  177.0740  142.6870 C   0  0  0  0  0  3  0  0  0  0  0  0
  190.6350  177.1540  144.9250 C   0  0  0  0  0  3  0  0  0  0  0  0
  190.3520  177.1340  142.5120 C   0  0  0  0  0  0  0  0  0  0  0  0
  189.2480  177.0940  145.0920 C   0  0  0  0  0  0  0  0  0  0  0  0
  191.1850  177.1740  143.6410 C   0  0  0  0  0  3  0  0  0  0  0  0
  188.7160  177.0820  146.3390 F   0  0  0  0  0  0  0  0  0  0  0  0
  192.5830  175.7870  137.7470 O   0  0  0  0  0  0  0  0  0  0  0  0
  193.2050  174.5450  137.6030 C   0  0  0  0  0  2  0  0  0  0  0  0
  194.7050  174.7390  137.4750 C   0  0  0  0  0  2  0  0  0  0  0  0
  195.3650  175.5400  139.6890 O   0  0  0  0  0  0  0  0  0  0  0  0
  195.3400  174.5250  138.7640 N   0  0  0  0  0  0  0  0  0  0  0  0
  195.7070  173.3790  139.0920 O   0  0  0  0  0  0  0  0  0  0  0  0
  189.3210  178.2060  137.0780 C   0  0  0  0  0  2  0  0  0  0  0  0
  188.2490  178.8880  137.6600 O   0  0  0  0  0  0  0  0  0  0  0  0
  187.3350  177.8880  138.0020 C   0  0  0  0  0  2  0  0  0  0  0  0
  185.9500  178.2500  137.4910 C   0  0  0  0  0  2  0  0  0  0  0  0
  184.9580  178.3000  138.6370 C   0  0  0  0  0  2  0  0  0  0  0  0
  185.6800  179.6320  142.0180 N   0  0  0  0  0  2  0  0  0  0  0  0
  185.0300  178.9930  141.1030 C   0  0  0  0  0  0  0  0  0  0  0  0
  185.5700  178.9670  139.7750 N   0  0  0  0  0  2  0  0  0  0  0  0
  183.0400  178.7470  142.5670 O   0  0  0  0  0  1  0  0  0  0  0  0
  183.3490  177.3190  140.8100 O   0  0  0  0  0  0  0  0  0  0  0  0
  183.7740  178.3030  141.4710 C   0  0  0  0  0  0  0  0  0  0  0  0
  1  6  1  1  0  0  0
  2 16  1  6  0  0  0
  2  1  1  0  0  0  0
  3 22  1  6  0  0  0
  3  1  1  0  0  0  0
  4  2  1  0  0  0  0
  5  4  1  0  0  0  0
  5  3  1  0  0  0  0
  6  7  1  0  0  0  0
  7 12  1  0  0  0  0
  8  7  2  0  0  0  0
  9 13  1  0  0  0  0
 10  9  2  0  0  0  0
 11 13  2  0  0  0  0
 12 10  1  0  0  0  0
 12 14  2  0  0  0  0
 13 15  1  0  0  0  0
 14 11  1  0  0  0  0
 17 16  1  0  0  0  0
 18 17  1  0  0  0  0
 18 20  1  0  0  0  0
 20 21  2  0  0  0  0
 20 19  2  0  0  0  0
 22 23  1  0  0  0  0
 23 24  1  0  0  0  0
 25 24  1  0  0  0  0
 25 26  1  0  0  0  0
 26 29  1  0  0  0  0
 28 32  1  0  0  0  0
 28 27  2  0  0  0  0
 29 28  1  0  0  0  0
 31 32  2  0  0  0  0
 32 30  1  0  0  0  0
M  END
>  <MODEL>
8

>  <REMARK>
 VINA RESULT:      -6.6      1.828      7.705
  Name = 
  13 active torsions:
  status: ('A' for Active; 'I' for Inactive)
    1  A    between atoms: N_2  and  C_11
    2  A    between atoms: C_4  and  C_15
    3  A    between atoms: C_4  and  O_16
    4  A    between atoms: O_7  and  C_14
    5  A    between atoms: O_7  and  C_18
    6  A    between atoms: C_9  and  C_29
    7  A    between atoms: C_10  and  C_21
    8  A    between atoms: C_15  and  C_20
    9  A    between atoms: O_16  and  C_23
   10  A    between atoms: C_17  and  C_23
   11  A    between atoms: C_18  and  C_24
   12  A    between atoms: C_20  and  N_30
   13  A    between atoms: C_24  and  N_25
                            x       y       z     vdW  Elec       q    Type
                         _______ _______ _______ _____ _____    ______ ____

>  <TORSDO>
F 13

$$$$
=
 OpenBabel11042410123D

 32 33  0  0  1  0  0  0  0  0999 V2000
  188.0740  178.1160  142.5700 C   0  0  1  0  0  3  0  0  0  0  0  0
  188.8630  177.3710  143.6100 C   0  0  1  0  0  3  0  0  0  0  0  0
  188.3060  177.3190  141.2990 C   0  0  2  0  0  3  0  0  0  0  0  0
  189.3500  176.1430  142.8730 C   0  0  0  0  0  2  0  0  0  0  0  0
  189.3770  176.4360  141.5030 O   0  0  0  0  0  0  0  0  0  0  0  0
  186.6610  178.0920  142.9210 N   0  0  0  0  0  2  0  0  0  0  0  0
  185.6900  178.9250  142.2800 C   0  0  0  0  0  0  0  0  0  0  0  0
  186.0520  179.7530  141.3990 O   0  0  0  0  0  0  0  0  0  0  0  0
  181.9330  178.6010  142.0020 C   0  0  0  0  0  3  0  0  0  0  0  0
  183.2850  178.6950  141.6530 C   0  0  0  0  0  3  0  0  0  0  0  0
  182.5290  178.7450  144.3450 C   0  0  0  0  0  3  0  0  0  0  0  0
  184.2670  178.8160  142.6470 C   0  0  0  0  0  0  0  0  0  0  0  0
  181.5560  178.6250  143.3470 C   0  0  0  0  0  0  0  0  0  0  0  0
  183.8790  178.8400  143.9960 C   0  0  0  0  0  3  0  0  0  0  0  0
  180.2460  178.5410  143.6870 F   0  0  0  0  0  0  0  0  0  0  0  0
  189.9610  178.1430  143.9960 O   0  0  0  0  0  0  0  0  0  0  0  0
  190.1540  177.8370  145.3450 C   0  0  0  0  0  2  0  0  0  0  0  0
  191.4850  177.1290  145.5200 C   0  0  0  0  0  2  0  0  0  0  0  0
  192.5420  175.6000  147.1100 O   0  0  0  0  0  0  0  0  0  0  0  0
  191.5260  176.4770  146.8190 N   0  0  0  0  0  0  0  0  0  0  0  0
  190.7430  176.8390  147.7190 O   0  0  0  0  0  0  0  0  0  0  0  0
  188.5880  178.2380  140.1180 C   0  0  0  0  0  2  0  0  0  0  0  0
  187.5060  178.2560  139.2330 O   0  0  0  0  0  0  0  0  0  0  0  0
  187.9760  177.6180  138.0820 C   0  0  0  0  0  2  0  0  0  0  0  0
  189.4030  178.0530  137.7900 C   0  0  0  0  0  2  0  0  0  0  0  0
  189.9410  177.3260  136.5730 C   0  0  0  0  0  2  0  0  0  0  0  0
  191.4850  174.1180  137.5960 N   0  0  0  0  0  2  0  0  0  0  0  0
  191.4240  175.3820  137.3370 C   0  0  0  0  0  0  0  0  0  0  0  0
  190.1710  175.9300  136.9080 N   0  0  0  0  0  2  0  0  0  0  0  0
  193.5140  176.3810  136.4440 O   0  0  0  0  0  0  0  0  0  0  0  0
  192.9050  176.7560  138.6130 O   0  0  0  0  0  1  0  0  0  0  0  0
  192.6410  176.2050  137.5130 C   0  0  0  0  0  0  0  0  0  0  0  0
  1  6  1  1  0  0  0
  1  2  1  0  0  0  0
  2 16  1  6  0  0  0
  3 22  1  6  0  0  0
  3  5  1  0  0  0  0
  3  1  1  0  0  0  0
  4  2  1  0  0  0  0
  5  4  1  0  0  0  0
  7 12  1  0  0  0  0
  7  6  1  0  0  0  0
  8  7  2  0  0  0  0
  9 13  1  0  0  0  0
 10  9  2  0  0  0  0
 10 12  1  0  0  0  0
 12 14  2  0  0  0  0
 13 15  1  0  0  0  0
 13 11  2  0  0  0  0
 14 11  1  0  0  0  0
 16 17  1  0  0  0  0
 17 18  1  0  0  0  0
 18 20  1  0  0  0  0
 20 19  2  0  0  0  0
 20 21  2  0  0  0  0
 23 22  1  0  0  0  0
 24 23  1  0  0  0  0
 25 24  1  0  0  0  0
 26 29  1  0  0  0  0
 26 25  1  0  0  0  0
 28 32  1  0  0  0  0
 28 27  2  0  0  0  0
 29 28  1  0  0  0  0
 30 32  2  0  0  0  0
 32 31  1  0  0  0  0
M  END
>  <MODEL>
9

>  <REMARK>
 VINA RESULT:      -6.6      3.697      6.351
  Name = 
  13 active torsions:
  status: ('A' for Active; 'I' for Inactive)
    1  A    between atoms: N_2  and  C_11
    2  A    between atoms: C_4  and  C_15
    3  A    between atoms: C_4  and  O_16
    4  A    between atoms: O_7  and  C_14
    5  A    between atoms: O_7  and  C_18
    6  A    between atoms: C_9  and  C_29
    7  A    between atoms: C_10  and  C_21
    8  A    between atoms: C_15  and  C_20
    9  A    between atoms: O_16  and  C_23
   10  A    between atoms: C_17  and  C_23
   11  A    between atoms: C_18  and  C_24
   12  A    between atoms: C_20  and  N_30
   13  A    between atoms: C_24  and  N_25
                            x       y       z     vdW  Elec       q    Type
                         _______ _______ _______ _____ _____    ______ ____

>  <TORSDO>
F 13

$$$$
