=
 OpenBabel11032420053D

 46 50  0  0  1  0  0  0  0  0999 V2000
  189.1350  177.2850  142.3360 C   0  0  2  0  0  3  0  0  0  0  0  0
  187.7400  177.0750  147.7640 N   0  0  0  0  0  1  0  0  0  0  0  0
  192.0110  177.5680  144.2190 N   0  0  0  0  0  0  0  0  0  0  0  0
  188.6540  177.6570  145.5740 C   0  0  0  0  0  3  0  0  0  0  0  0
  189.8510  178.2190  143.3280 C   0  0  2  0  0  3  0  0  0  0  0  0
  191.1770  176.8700  146.4770 C   0  0  0  0  0  0  0  0  0  0  0  0
  190.0900  176.7810  147.2930 N   0  0  0  0  0  0  0  0  0  0  0  0
  188.8460  177.1640  146.8720 C   0  0  0  0  0  0  0  0  0  0  0  0
  191.0040  177.3560  145.1820 C   0  0  0  0  0  0  0  0  0  0  0  0
  191.3760  178.1710  143.0470 C   0  0  0  0  0  2  0  0  0  0  0  0
  189.7690  177.7240  144.7360 C   0  0  0  0  0  0  0  0  0  0  0  0
  192.3150  176.5280  146.8920 O   0  0  0  0  0  0  0  0  0  0  0  0
  189.2230  177.4910  139.4130 N   0  0  0  0  0  2  0  0  0  0  0  0
  190.1070  176.6010  140.1060 C   0  0  0  0  0  0  0  0  0  0  0  0
  190.8860  175.8450  139.4640 O   0  0  0  0  0  0  0  0  0  0  0  0
  190.1170  176.5670  141.5330 N   0  0  0  0  0  2  0  0  0  0  0  0
  190.2780  177.5470  137.3590 F   0  0  0  0  0  0  0  0  0  0  0  0
  188.3900  176.3440  137.5630 F   0  0  0  0  0  0  0  0  0  0  0  0
  189.0350  177.5020  137.9620 C   0  0  0  0  0  0  0  0  0  0  0  0
  188.8300  179.7980  137.2740 O   0  0  0  0  0  0  0  0  0  0  0  0
  188.2440  178.7100  137.5240 C   0  0  0  0  0  0  0  0  0  0  0  0
  186.8360  178.6350  137.3310 N   0  0  0  0  0  2  0  0  0  0  0  0
  186.0330  177.4950  137.7400 C   0  0  0  0  0  2  0  0  0  0  0  0
  184.8170  177.4490  136.9460 N   0  0  0  0  0  0  0  0  0  0  0  0
  183.3530  178.1880  138.8000 C   0  0  0  0  0  0  0  0  0  0  0  0
  181.0600  177.4790  139.6750 C   0  0  0  0  0  2  0  0  0  0  0  0
  183.7350  177.2220  139.7190 F   0  0  0  0  0  0  0  0  0  0  0  0
  182.5050  177.7020  136.6740 O   0  0  0  0  0  0  0  0  0  0  0  0
  183.6500  177.7500  137.4250 C   0  0  0  0  0  0  0  0  0  0  0  0
  181.8240  178.3910  138.7320 C   0  0  2  0  0  3  0  0  0  0  0  0
  181.3740  178.1070  137.3520 N   0  0  2  0  0  0  0  0  0  0  0  0
  183.9780  179.3900  139.0750 F   0  0  0  0  0  0  0  0  0  0  0  0
  180.4720  176.9590  137.4220 C   0  0  0  0  0  2  0  0  0  0  0  0
  180.5700  176.3560  138.8050 C   0  0  0  0  0  2  0  0  0  0  0  0
  188.2480  178.0260  141.4480 N   0  0  0  0  0  2  0  0  0  0  0  0
  187.3560  178.7400  142.2650 N   0  0  0  0  0  2  0  0  0  0  0  0
  186.0190  178.5750  141.7110 C   0  0  0  0  0  2  0  0  0  0  0  0
  184.9930  178.6620  142.7870 C   0  0  0  0  0  0  0  0  0  0  0  0
  185.3780  178.5180  144.1220 C   0  0  0  0  0  3  0  0  0  0  0  0
  183.0880  178.8740  144.8190 C   0  0  0  0  0  3  0  0  0  0  0  0
  184.9090  178.4580  146.8090 Cl  0  0  0  0  0  0  0  0  0  0  0  0
  184.4230  178.6260  145.1370 C   0  0  0  0  0  0  0  0  0  0  0  0
  182.6940  179.0110  143.4850 C   0  0  0  0  0  0  0  0  0  0  0  0
  183.6560  178.9080  142.4680 C   0  0  0  0  0  3  0  0  0  0  0  0
  181.3450  179.2410  143.1990 O   0  0  0  0  0  0  0  0  0  0  0  0
  180.2950  178.4850  143.7870 C   0  0  0  0  0  1  0  0  0  0  0  0
  1 35  1  6  0  0  0
  3  9  2  0  0  0  0
  4  8  1  0  0  0  0
  5  1  1  6  0  0  0
  5 11  1  0  0  0  0
  6 12  2  0  0  0  0
  6  7  1  0  0  0  0
  8  7  2  0  0  0  0
  8  2  1  0  0  0  0
  9  6  1  0  0  0  0
 10  5  1  0  0  0  0
 10  3  1  0  0  0  0
 11  9  1  0  0  0  0
 11  4  2  0  0  0  0
 13 14  1  0  0  0  0
 14 16  1  0  0  0  0
 15 14  2  0  0  0  0
 16  1  1  0  0  0  0
 17 19  1  0  0  0  0
 18 19  1  0  0  0  0
 19 13  1  0  0  0  0
 20 21  2  0  0  0  0
 21 19  1  0  0  0  0
 22 21  1  0  0  0  0
 22 23  1  0  0  0  0
 24 29  2  0  0  0  0
 24 23  1  0  0  0  0
 25 32  1  0  0  0  0
 25 27  1  0  0  0  0
 28 31  1  0  0  0  0
 28 29  1  0  0  0  0
 29 25  1  0  0  0  0
 30 25  1  0  0  0  0
 30 26  1  1  0  0  0
 31 33  1  1  0  0  0
 31 30  1  0  0  0  0
 33 34  1  0  0  0  0
 34 26  1  0  0  0  0
 35 36  1  0  0  0  0
 37 36  1  0  0  0  0
 37 38  1  0  0  0  0
 38 39  1  0  0  0  0
 39 42  2  0  0  0  0
 40 42  1  0  0  0  0
 42 41  1  0  0  0  0
 43 40  2  0  0  0  0
 44 38  2  0  0  0  0
 44 43  1  0  0  0  0
 45 43  1  0  0  0  0
 45 46  1  0  0  0  0
M  END
>  <MODEL>
1

>  <REMARK>
 VINA RESULT:      -9.9      0.000      0.000
  Name = 
  11 active torsions:
  status: ('A' for Active; 'I' for Inactive)
    1  A    between atoms: N_1  and  C_19
    2  A    between atoms: N_1  and  N_30
    3  A    between atoms: N_2  and  C_11
    4  A    between atoms: N_6  and  C_29
    5  A    between atoms: C_10  and  C_19
    6  A    between atoms: C_11  and  N_42
    7  A    between atoms: C_14  and  C_29
    8  A    between atoms: O_15  and  C_41
    9  A    between atoms: C_20  and  C_35
   10  A    between atoms: N_30  and  C_35
   11  A    between atoms: N_34  and  C_35
                            x       y       z     vdW  Elec       q    Type
                         _______ _______ _______ _____ _____    ______ ____

>  <TORSDO>
F 11

$$$$
=
 OpenBabel11032420053D

 46 50  0  0  1  0  0  0  0  0999 V2000
  183.4410  178.5700  138.4150 C   0  0  2  0  0  3  0  0  0  0  0  0
  179.2920  176.0310  141.2050 N   0  0  0  0  0  1  0  0  0  0  0  0
  181.0760  180.9360  139.2540 N   0  0  0  0  0  0  0  0  0  0  0  0
  180.6420  177.3650  139.6670 C   0  0  0  0  0  2  0  0  0  0  0  0
  181.9860  178.9880  138.1330 C   0  0  2  0  0  3  0  0  0  0  0  0
  179.7070  179.6730  140.9310 C   0  0  0  0  0  0  0  0  0  0  0  0
  179.3070  178.4400  141.3530 N   0  0  0  0  0  0  0  0  0  0  0  0
  179.7510  177.2970  140.7460 C   0  0  0  0  0  0  0  0  0  0  0  0
  180.5950  179.7570  139.8590 C   0  0  0  0  0  0  0  0  0  0  0  0
  181.9050  180.5360  138.1170 C   0  0  0  0  0  3  0  0  0  0  0  0
  181.0650  178.6300  139.2540 C   0  0  0  0  0  0  0  0  0  0  0  0
  179.2720  180.7110  141.4940 O   0  0  0  0  0  0  0  0  0  0  0  0
  186.1850  177.9690  137.5760 N   0  0  0  0  0  2  0  0  0  0  0  0
  185.0980  177.1330  137.1590 C   0  0  0  0  0  0  0  0  0  0  0  0
  185.2980  176.1700  136.3710 O   0  0  0  0  0  0  0  0  0  0  0  0
  183.7770  177.3830  137.6390 N   0  0  0  0  0  2  0  0  0  0  0  0
  187.9980  176.5910  137.1900 F   0  0  0  0  0  0  0  0  0  0  0  0
  187.5290  178.1950  135.6860 F   0  0  0  0  0  0  0  0  0  0  0  0
  187.5430  177.8870  137.0350 C   0  0  0  0  0  0  0  0  0  0  0  0
  189.0360  179.7680  137.1580 O   0  0  0  0  0  0  0  0  0  0  0  0
  188.4780  178.8170  137.7680 C   0  0  0  0  0  0  0  0  0  0  0  0
  188.7060  178.6780  139.1660 N   0  0  0  0  0  2  0  0  0  0  0  0
  188.2540  177.5340  139.9390 C   0  0  0  0  0  2  0  0  0  0  0  0
  189.3970  176.8840  140.5570 N   0  0  0  0  0  0  0  0  0  0  0  0
  188.6060  177.2700  142.8700 C   0  0  0  0  0  0  0  0  0  0  0  0
  189.7110  178.0130  145.0500 C   0  0  0  0  0  2  0  0  0  0  0  0
  188.4360  178.6420  142.7690 F   0  0  0  0  0  0  0  0  0  0  0  0
  190.6220  176.1690  142.4200 O   0  0  0  0  0  0  0  0  0  0  0  0
  189.5400  176.7800  141.8410 C   0  0  0  0  0  0  0  0  0  0  0  0
  189.3270  176.8410  144.1660 C   0  0  2  0  0  3  0  0  0  0  0  0
  190.5640  176.1180  143.7970 N   0  0  2  0  0  0  0  0  0  0  0  0
  187.3880  176.6240  142.7700 F   0  0  0  0  0  0  0  0  0  0  0  0
  191.6870  176.8980  144.3110 C   0  0  0  0  0  2  0  0  0  0  0  0
  191.1680  178.2450  144.7640 C   0  0  0  0  0  2  0  0  0  0  0  0
  183.6520  178.2860  139.8290 N   0  0  0  0  0  2  0  0  0  0  0  0
  184.3660  179.3720  140.3610 N   0  0  0  0  0  2  0  0  0  0  0  0
  185.2600  178.8540  141.3880 C   0  0  0  0  0  2  0  0  0  0  0  0
  184.6090  178.9120  142.7260 C   0  0  0  0  0  0  0  0  0  0  0  0
  183.2250  178.7570  142.8290 C   0  0  0  0  0  3  0  0  0  0  0  0
  183.3810  178.9690  145.2340 C   0  0  0  0  0  3  0  0  0  0  0  0
  180.8800  178.5750  144.2120 Cl  0  0  0  0  0  0  0  0  0  0  0  0
  182.6120  178.7840  144.0850 C   0  0  0  0  0  0  0  0  0  0  0  0
  184.7650  179.1330  145.1390 C   0  0  0  0  0  0  0  0  0  0  0  0
  185.3780  179.1000  143.8770 C   0  0  0  0  0  3  0  0  0  0  0  0
  185.5040  179.3340  146.3090 O   0  0  0  0  0  0  0  0  0  0  0  0
  186.2700  178.3050  146.9200 C   0  0  0  0  0  1  0  0  0  0  0  0
  1 16  1  6  0  0  0
  1 35  1  0  0  0  0
  3  9  1  0  0  0  0
  4  8  1  0  0  0  0
  5  1  1  1  0  0  0
  5 11  1  0  0  0  0
  6  7  1  0  0  0  0
  6 12  2  0  0  0  0
  8  2  1  0  0  0  0
  8  7  2  0  0  0  0
  9  6  1  0  0  0  0
 10  5  1  0  0  0  0
 10  3  2  0  0  0  0
 11  4  1  0  0  0  0
 11  9  2  0  0  0  0
 14 13  1  0  0  0  0
 14 16  1  0  0  0  0
 15 14  2  0  0  0  0
 18 19  1  0  0  0  0
 19 17  1  0  0  0  0
 19 13  1  0  0  0  0
 19 21  1  0  0  0  0
 20 21  2  0  0  0  0
 21 22  1  0  0  0  0
 22 23  1  0  0  0  0
 23 24  1  0  0  0  0
 24 29  2  0  0  0  0
 25 30  1  0  0  0  0
 27 25  1  0  0  0  0
 28 31  1  0  0  0  0
 29 28  1  0  0  0  0
 29 25  1  0  0  0  0
 30 26  1  1  0  0  0
 31 30  1  0  0  0  0
 31 33  1  1  0  0  0
 32 25  1  0  0  0  0
 33 34  1  0  0  0  0
 34 26  1  0  0  0  0
 35 36  1  0  0  0  0
 36 37  1  0  0  0  0
 37 38  1  0  0  0  0
 38 39  2  0  0  0  0
 38 44  1  0  0  0  0
 39 42  1  0  0  0  0
 42 41  1  0  0  0  0
 42 40  2  0  0  0  0
 43 40  1  0  0  0  0
 43 45  1  0  0  0  0
 44 43  2  0  0  0  0
 45 46  1  0  0  0  0
M  END
>  <MODEL>
2

>  <REMARK>
 VINA RESULT:      -9.8      2.449      7.833
  Name = 
  11 active torsions:
  status: ('A' for Active; 'I' for Inactive)
    1  A    between atoms: N_1  and  C_19
    2  A    between atoms: N_1  and  N_30
    3  A    between atoms: N_2  and  C_11
    4  A    between atoms: N_6  and  C_29
    5  A    between atoms: C_10  and  C_19
    6  A    between atoms: C_11  and  N_42
    7  A    between atoms: C_14  and  C_29
    8  A    between atoms: O_15  and  C_41
    9  A    between atoms: C_20  and  C_35
   10  A    between atoms: N_30  and  C_35
   11  A    between atoms: N_34  and  C_35
                            x       y       z     vdW  Elec       q    Type
                         _______ _______ _______ _____ _____    ______ ____

>  <TORSDO>
F 11

$$$$
=
 OpenBabel11032420053D

 46 50  0  0  1  0  0  0  0  0999 V2000
  184.7160  178.8530  138.7300 C   0  0  2  0  0  3  0  0  0  0  0  0
  180.9310  182.8690  137.7300 N   0  0  0  0  0  1  0  0  0  0  0  0
  181.6540  177.3620  138.1860 N   0  0  0  0  0  0  0  0  0  0  0  0
  182.1620  180.9280  138.5590 C   0  0  0  0  0  3  0  0  0  0  0  0
  183.3060  178.7180  139.3330 C   0  0  2  0  0  3  0  0  0  0  0  0
  180.3540  179.2740  137.2190 C   0  0  0  0  0  0  0  0  0  0  0  0
  180.2330  180.6300  137.1550 N   0  0  0  0  0  0  0  0  0  0  0  0
  181.1060  181.4590  137.8060 C   0  0  0  0  0  0  0  0  0  0  0  0
  181.4010  178.7310  137.9620 C   0  0  0  0  0  0  0  0  0  0  0  0
  182.7980  177.2720  139.0940 C   0  0  0  0  0  2  0  0  0  0  0  0
  182.2940  179.5390  138.6010 C   0  0  0  0  0  0  0  0  0  0  0  0
  179.5280  178.5330  136.6260 O   0  0  0  0  0  0  0  0  0  0  0  0
  187.3550  178.3160  137.5720 N   0  0  0  0  0  2  0  0  0  0  0  0
  186.2000  177.6050  137.1100 C   0  0  0  0  0  0  0  0  0  0  0  0
  186.2920  176.7900  136.1520 O   0  0  0  0  0  0  0  0  0  0  0  0
  184.9330  177.8120  137.7350 N   0  0  0  0  0  2  0  0  0  0  0  0
  188.4680  178.4190  135.5510 F   0  0  0  0  0  0  0  0  0  0  0  0
  189.4370  179.3410  137.3580 F   0  0  0  0  0  0  0  0  0  0  0  0
  188.6610  178.2840  136.9130 C   0  0  0  0  0  0  0  0  0  0  0  0
  189.3350  176.0540  136.3160 O   0  0  0  0  0  0  0  0  0  0  0  0
  189.3710  176.9780  137.1720 C   0  0  0  0  0  0  0  0  0  0  0  0
  190.1380  176.7810  138.3550 N   0  0  0  0  0  2  0  0  0  0  0  0
  190.1210  177.7000  139.4800 C   0  0  0  0  0  2  0  0  0  0  0  0
  191.0200  177.2160  140.5140 N   0  0  0  0  0  0  0  0  0  0  0  0
  189.3050  177.2770  142.2990 C   0  0  0  0  0  0  0  0  0  0  0  0
  189.2710  178.0340  144.7380 C   0  0  0  0  0  2  0  0  0  0  0  0
  188.9290  178.6010  142.1330 F   0  0  0  0  0  0  0  0  0  0  0  0
  191.5020  176.5880  142.7180 O   0  0  0  0  0  0  0  0  0  0  0  0
  190.6500  177.0410  141.7450 C   0  0  0  0  0  0  0  0  0  0  0  0
  189.5100  176.8830  143.7760 C   0  0  2  0  0  3  0  0  0  0  0  0
  190.9050  176.4210  143.9500 N   0  0  2  0  0  0  0  0  0  0  0  0
  188.3800  176.4350  141.7080 F   0  0  0  0  0  0  0  0  0  0  0  0
  191.5520  177.3450  144.8780 C   0  0  0  0  0  2  0  0  0  0  0  0
  190.6450  178.5400  145.0750 C   0  0  0  0  0  2  0  0  0  0  0  0
  185.7480  178.7520  139.7540 N   0  0  0  0  0  2  0  0  0  0  0  0
  185.2700  179.4340  140.8850 N   0  0  0  0  0  2  0  0  0  0  0  0
  185.9490  178.8880  142.0520 C   0  0  0  0  0  2  0  0  0  0  0  0
  185.0370  178.8770  143.2300 C   0  0  0  0  0  0  0  0  0  0  0  0
  183.6560  178.8200  143.0340 C   0  0  0  0  0  3  0  0  0  0  0  0
  183.3180  178.8040  145.4300 C   0  0  0  0  0  3  0  0  0  0  0  0
  181.0680  178.6960  143.8880 Cl  0  0  0  0  0  0  0  0  0  0  0  0
  182.7970  178.7820  144.1350 C   0  0  0  0  0  0  0  0  0  0  0  0
  184.6990  178.8700  145.6340 C   0  0  0  0  0  0  0  0  0  0  0  0
  185.5580  178.9020  144.5250 C   0  0  0  0  0  3  0  0  0  0  0  0
  185.1860  178.9090  146.9440 O   0  0  0  0  0  0  0  0  0  0  0  0
  186.4780  178.4340  147.2970 C   0  0  0  0  0  1  0  0  0  0  0  0
  1 16  1  6  0  0  0
  1 35  1  0  0  0  0
  2  8  1  0  0  0  0
  3 10  1  0  0  0  0
  4 11  2  0  0  0  0
  5  1  1  6  0  0  0
  6  9  1  0  0  0  0
  7  6  1  0  0  0  0
  7  8  2  0  0  0  0
  8  4  1  0  0  0  0
  9  3  2  0  0  0  0
  9 11  1  0  0  0  0
 10  5  1  0  0  0  0
 11  5  1  0  0  0  0
 12  6  2  0  0  0  0
 14 13  1  0  0  0  0
 14 16  1  0  0  0  0
 15 14  2  0  0  0  0
 17 19  1  0  0  0  0
 19 21  1  0  0  0  0
 19 18  1  0  0  0  0
 19 13  1  0  0  0  0
 20 21  2  0  0  0  0
 21 22  1  0  0  0  0
 22 23  1  0  0  0  0
 23 24  1  0  0  0  0
 24 29  2  0  0  0  0
 25 30  1  0  0  0  0
 26 34  1  0  0  0  0
 27 25  1  0  0  0  0
 28 31  1  0  0  0  0
 29 25  1  0  0  0  0
 29 28  1  0  0  0  0
 30 31  1  0  0  0  0
 30 26  1  1  0  0  0
 31 33  1  1  0  0  0
 32 25  1  0  0  0  0
 33 34  1  0  0  0  0
 35 36  1  0  0  0  0
 36 37  1  0  0  0  0
 37 38  1  0  0  0  0
 38 44  1  0  0  0  0
 39 38  2  0  0  0  0
 39 42  1  0  0  0  0
 40 43  1  0  0  0  0
 41 42  1  0  0  0  0
 42 40  2  0  0  0  0
 43 45  1  0  0  0  0
 44 43  2  0  0  0  0
 45 46  1  0  0  0  0
M  END
>  <MODEL>
3

>  <REMARK>
 VINA RESULT:      -9.5      2.502      8.123
  Name = 
  11 active torsions:
  status: ('A' for Active; 'I' for Inactive)
    1  A    between atoms: N_1  and  C_19
    2  A    between atoms: N_1  and  N_30
    3  A    between atoms: N_2  and  C_11
    4  A    between atoms: N_6  and  C_29
    5  A    between atoms: C_10  and  C_19
    6  A    between atoms: C_11  and  N_42
    7  A    between atoms: C_14  and  C_29
    8  A    between atoms: O_15  and  C_41
    9  A    between atoms: C_20  and  C_35
   10  A    between atoms: N_30  and  C_35
   11  A    between atoms: N_34  and  C_35
                            x       y       z     vdW  Elec       q    Type
                         _______ _______ _______ _____ _____    ______ ____

>  <TORSDO>
F 11

$$$$
=
 OpenBabel11032420053D

 46 50  0  0  1  0  0  0  0  0999 V2000
  188.6730  177.5390  142.5920 C   0  0  2  0  0  3  0  0  0  0  0  0
  187.8860  177.1550  148.1310 N   0  0  0  0  0  1  0  0  0  0  0  0
  191.7560  177.5260  144.1390 N   0  0  0  0  0  0  0  0  0  0  0  0
  188.5890  177.7810  145.8770 C   0  0  0  0  0  3  0  0  0  0  0  0
  189.5640  178.3700  143.5320 C   0  0  2  0  0  3  0  0  0  0  0  0
  191.1310  176.7750  146.4470 C   0  0  0  0  0  0  0  0  0  0  0  0
  190.1390  176.7220  147.3790 N   0  0  0  0  0  0  0  0  0  0  0  0
  188.8880  177.2110  147.1220 C   0  0  0  0  0  0  0  0  0  0  0  0
  190.8500  177.3370  145.2020 C   0  0  0  0  0  0  0  0  0  0  0  0
  191.0400  178.2300  143.0750 C   0  0  0  0  0  2  0  0  0  0  0  0
  189.6040  177.8120  144.9190 C   0  0  0  0  0  0  0  0  0  0  0  0
  192.2790  176.3340  146.7130 O   0  0  0  0  0  0  0  0  0  0  0  0
  190.0170  176.9370  140.0570 N   0  0  0  0  0  2  0  0  0  0  0  0
  189.1200  178.0500  140.1580 C   0  0  0  0  0  0  0  0  0  0  0  0
  188.9510  178.8250  139.1780 O   0  0  0  0  0  0  0  0  0  0  0  0
  188.4050  178.2880  141.3710 N   0  0  0  0  0  2  0  0  0  0  0  0
  190.8100  175.3530  138.5760 F   0  0  0  0  0  0  0  0  0  0  0  0
  190.4910  177.4500  137.8330 F   0  0  0  0  0  0  0  0  0  0  0  0
  190.8990  176.6890  138.9160 C   0  0  0  0  0  0  0  0  0  0  0  0
  192.6250  177.5200  140.3710 O   0  0  0  0  0  0  0  0  0  0  0  0
  192.3340  177.0060  139.2570 C   0  0  0  0  0  0  0  0  0  0  0  0
  193.3910  176.6820  138.3600 N   0  0  0  0  0  2  0  0  0  0  0  0
  193.1720  176.2430  136.9920 C   0  0  0  0  0  2  0  0  0  0  0  0
  194.4330  176.2510  136.2720 N   0  0  0  0  0  0  0  0  0  0  0  0
  194.9370  173.8740  136.7450 C   0  0  0  0  0  0  0  0  0  0  0  0
  197.0260  172.5810  137.4390 C   0  0  0  0  0  2  0  0  0  0  0  0
  194.8120  173.9410  138.1240 F   0  0  0  0  0  0  0  0  0  0  0  0
  196.3890  175.2220  135.4990 O   0  0  0  0  0  0  0  0  0  0  0  0
  195.1980  175.2080  136.1770 C   0  0  0  0  0  0  0  0  0  0  0  0
  196.1870  173.0960  136.2840 C   0  0  2  0  0  3  0  0  0  0  0  0
  197.0300  174.0010  135.4710 N   0  0  2  0  0  0  0  0  0  0  0  0
  193.8000  173.3200  136.1850 F   0  0  0  0  0  0  0  0  0  0  0  0
  198.2990  174.1560  136.1780 C   0  0  0  0  0  2  0  0  0  0  0  0
  198.1510  173.5690  137.5640 C   0  0  0  0  0  2  0  0  0  0  0  0
  187.4050  177.1940  143.2220 N   0  0  0  0  0  2  0  0  0  0  0  0
  186.4320  178.0470  142.6770 N   0  0  0  0  0  2  0  0  0  0  0  0
  185.4550  178.3290  143.7200 C   0  0  0  0  0  2  0  0  0  0  0  0
  184.0980  178.5030  143.1320 C   0  0  0  0  0  0  0  0  0  0  0  0
  183.9380  178.4810  141.7450 C   0  0  0  0  0  3  0  0  0  0  0  0
  181.5520  178.7780  142.0170 C   0  0  0  0  0  3  0  0  0  0  0  0
  182.4630  178.5740  139.4520 Cl  0  0  0  0  0  0  0  0  0  0  0  0
  182.6630  178.6170  141.1890 C   0  0  0  0  0  0  0  0  0  0  0  0
  181.7050  178.8100  143.4060 C   0  0  0  0  0  0  0  0  0  0  0  0
  182.9860  178.6670  143.9610 C   0  0  0  0  0  3  0  0  0  0  0  0
  180.5730  178.9910  144.2060 O   0  0  0  0  0  0  0  0  0  0  0  0
  179.3440  179.4900  143.6970 C   0  0  0  0  0  1  0  0  0  0  0  0
  1 16  1  6  0  0  0
  1 35  1  0  0  0  0
  3  9  2  0  0  0  0
  4  8  1  0  0  0  0
  5  1  1  6  0  0  0
  5 11  1  0  0  0  0
  6 12  2  0  0  0  0
  6  7  1  0  0  0  0
  8  7  2  0  0  0  0
  8  2  1  0  0  0  0
  9  6  1  0  0  0  0
 10  5  1  0  0  0  0
 10  3  1  0  0  0  0
 11  9  1  0  0  0  0
 11  4  2  0  0  0  0
 13 14  1  0  0  0  0
 14 16  1  0  0  0  0
 15 14  2  0  0  0  0
 17 19  1  0  0  0  0
 18 19  1  0  0  0  0
 19 21  1  0  0  0  0
 19 13  1  0  0  0  0
 21 20  2  0  0  0  0
 22 21  1  0  0  0  0
 23 22  1  0  0  0  0
 24 23  1  0  0  0  0
 25 27  1  0  0  0  0
 26 34  1  0  0  0  0
 28 29  1  0  0  0  0
 29 24  2  0  0  0  0
 29 25  1  0  0  0  0
 30 25  1  0  0  0  0
 30 26  1  1  0  0  0
 31 28  1  0  0  0  0
 31 33  1  1  0  0  0
 31 30  1  0  0  0  0
 32 25  1  0  0  0  0
 33 34  1  0  0  0  0
 36 35  1  0  0  0  0
 36 37  1  0  0  0  0
 38 37  1  0  0  0  0
 38 44  1  0  0  0  0
 39 38  2  0  0  0  0
 40 43  1  0  0  0  0
 41 42  1  0  0  0  0
 42 39  1  0  0  0  0
 42 40  2  0  0  0  0
 43 44  2  0  0  0  0
 43 45  1  0  0  0  0
 46 45  1  0  0  0  0
M  END
>  <MODEL>
4

>  <REMARK>
 VINA RESULT:      -9.5      4.109      7.541
  Name = 
  11 active torsions:
  status: ('A' for Active; 'I' for Inactive)
    1  A    between atoms: N_1  and  C_19
    2  A    between atoms: N_1  and  N_30
    3  A    between atoms: N_2  and  C_11
    4  A    between atoms: N_6  and  C_29
    5  A    between atoms: C_10  and  C_19
    6  A    between atoms: C_11  and  N_42
    7  A    between atoms: C_14  and  C_29
    8  A    between atoms: O_15  and  C_41
    9  A    between atoms: C_20  and  C_35
   10  A    between atoms: N_30  and  C_35
   11  A    between atoms: N_34  and  C_35
                            x       y       z     vdW  Elec       q    Type
                         _______ _______ _______ _____ _____    ______ ____

>  <TORSDO>
F 11

$$$$
=
 OpenBabel11032420053D

 46 50  0  0  1  0  0  0  0  0999 V2000
  184.3670  178.6140  138.5500 C   0  0  2  0  0  3  0  0  0  0  0  0
  180.9830  174.1630  138.1150 N   0  0  0  0  0  1  0  0  0  0  0  0
  181.3260  179.4050  139.9730 N   0  0  0  0  0  0  0  0  0  0  0  0
  181.9810  176.3930  138.0730 C   0  0  0  0  0  2  0  0  0  0  0  0
  182.8830  178.8350  138.2030 C   0  0  2  0  0  3  0  0  0  0  0  0
  180.2780  177.1370  140.1580 C   0  0  0  0  0  0  0  0  0  0  0  0
  180.2430  175.8720  139.6510 N   0  0  0  0  0  0  0  0  0  0  0  0
  181.0660  175.4880  138.6280 C   0  0  0  0  0  0  0  0  0  0  0  0
  181.1830  178.0490  139.6180 C   0  0  0  0  0  0  0  0  0  0  0  0
  182.3310  179.9870  139.0830 C   0  0  0  0  0  3  0  0  0  0  0  0
  182.0260  177.6800  138.6120 C   0  0  0  0  0  0  0  0  0  0  0  0
  179.4980  177.4720  141.0870 O   0  0  0  0  0  0  0  0  0  0  0  0
  187.2330  178.4570  137.9580 N   0  0  0  0  0  2  0  0  0  0  0  0
  186.3120  177.5540  137.3350 C   0  0  0  0  0  0  0  0  0  0  0  0
  186.7130  176.7260  136.4720 O   0  0  0  0  0  0  0  0  0  0  0  0
  184.9300  177.5810  137.6910 N   0  0  0  0  0  2  0  0  0  0  0  0
  188.6790  179.2180  136.3260 F   0  0  0  0  0  0  0  0  0  0  0  0
  189.2960  179.4090  138.4790 F   0  0  0  0  0  0  0  0  0  0  0  0
  188.6350  178.6070  137.5650 C   0  0  0  0  0  0  0  0  0  0  0  0
  189.5740  176.7640  136.3360 O   0  0  0  0  0  0  0  0  0  0  0  0
  189.3190  177.2660  137.4640 C   0  0  0  0  0  0  0  0  0  0  0  0
  189.7400  176.5660  138.6310 N   0  0  0  0  0  2  0  0  0  0  0  0
  189.3600  176.9590  139.9780 C   0  0  0  0  0  2  0  0  0  0  0  0
  190.2910  176.3810  140.9310 N   0  0  0  0  0  0  0  0  0  0  0  0
  189.0100  177.1180  142.9170 C   0  0  0  0  0  0  0  0  0  0  0  0
  189.6210  178.1470  145.1730 C   0  0  0  0  0  2  0  0  0  0  0  0
  188.9440  178.4640  142.5910 F   0  0  0  0  0  0  0  0  0  0  0  0
  191.0110  175.9190  143.1110 O   0  0  0  0  0  0  0  0  0  0  0  0
  190.1280  176.4630  142.2150 C   0  0  0  0  0  0  0  0  0  0  0  0
  189.3870  176.8670  144.3920 C   0  0  2  0  0  3  0  0  0  0  0  0
  190.6340  176.0710  144.4290 N   0  0  2  0  0  0  0  0  0  0  0  0
  187.8140  176.4910  142.6200 F   0  0  0  0  0  0  0  0  0  0  0  0
  191.6490  176.8930  145.0830 C   0  0  0  0  0  2  0  0  0  0  0  0
  191.1150  178.3020  145.2110 C   0  0  0  0  0  2  0  0  0  0  0  0
  184.5370  178.2170  139.9420 N   0  0  0  0  0  2  0  0  0  0  0  0
  185.1260  179.3040  140.6080 N   0  0  0  0  0  2  0  0  0  0  0  0
  185.8200  178.7840  141.7790 C   0  0  0  0  0  2  0  0  0  0  0  0
  184.9350  178.8320  142.9750 C   0  0  0  0  0  0  0  0  0  0  0  0
  183.5480  178.8460  142.8100 C   0  0  0  0  0  3  0  0  0  0  0  0
  183.2620  178.8720  145.2120 C   0  0  0  0  0  3  0  0  0  0  0  0
  180.9760  178.8670  143.7200 Cl  0  0  0  0  0  0  0  0  0  0  0  0
  182.7130  178.8640  143.9300 C   0  0  0  0  0  0  0  0  0  0  0  0
  184.6490  178.8680  145.3860 C   0  0  0  0  0  0  0  0  0  0  0  0
  185.4840  178.8430  144.2590 C   0  0  0  0  0  3  0  0  0  0  0  0
  185.1670  178.8940  146.6850 O   0  0  0  0  0  0  0  0  0  0  0  0
  186.4510  178.3820  147.0100 C   0  0  0  0  0  1  0  0  0  0  0  0
  1 16  1  6  0  0  0
  1 35  1  0  0  0  0
  2  8  1  0  0  0  0
  4 11  1  0  0  0  0
  4  8  1  0  0  0  0
  5  1  1  1  0  0  0
  5 11  1  0  0  0  0
  5 10  1  0  0  0  0
  6 12  2  0  0  0  0
  7  6  1  0  0  0  0
  8  7  2  0  0  0  0
  9  3  1  0  0  0  0
  9  6  1  0  0  0  0
 10  3  2  0  0  0  0
 11  9  2  0  0  0  0
 14 16  1  0  0  0  0
 14 13  1  0  0  0  0
 15 14  2  0  0  0  0
 17 19  1  0  0  0  0
 19 13  1  0  0  0  0
 19 18  1  0  0  0  0
 20 21  2  0  0  0  0
 21 19  1  0  0  0  0
 21 22  1  0  0  0  0
 22 23  1  0  0  0  0
 23 24  1  0  0  0  0
 24 29  2  0  0  0  0
 25 30  1  0  0  0  0
 26 34  1  0  0  0  0
 27 25  1  0  0  0  0
 28 31  1  0  0  0  0
 29 25  1  0  0  0  0
 29 28  1  0  0  0  0
 30 31  1  0  0  0  0
 30 26  1  1  0  0  0
 31 33  1  1  0  0  0
 32 25  1  0  0  0  0
 33 34  1  0  0  0  0
 35 36  1  0  0  0  0
 36 37  1  0  0  0  0
 37 38  1  0  0  0  0
 38 44  1  0  0  0  0
 39 38  2  0  0  0  0
 39 42  1  0  0  0  0
 40 43  1  0  0  0  0
 41 42  1  0  0  0  0
 42 40  2  0  0  0  0
 43 45  1  0  0  0  0
 44 43  2  0  0  0  0
 45 46  1  0  0  0  0
M  END
>  <MODEL>
5

>  <REMARK>
 VINA RESULT:      -9.3      2.367      7.817
  Name = 
  11 active torsions:
  status: ('A' for Active; 'I' for Inactive)
    1  A    between atoms: N_1  and  C_19
    2  A    between atoms: N_1  and  N_30
    3  A    between atoms: N_2  and  C_11
    4  A    between atoms: N_6  and  C_29
    5  A    between atoms: C_10  and  C_19
    6  A    between atoms: C_11  and  N_42
    7  A    between atoms: C_14  and  C_29
    8  A    between atoms: O_15  and  C_41
    9  A    between atoms: C_20  and  C_35
   10  A    between atoms: N_30  and  C_35
   11  A    between atoms: N_34  and  C_35
                            x       y       z     vdW  Elec       q    Type
                         _______ _______ _______ _____ _____    ______ ____

>  <TORSDO>
F 11

$$$$
=
 OpenBabel11032420053D

 46 50  0  0  1  0  0  0  0  0999 V2000
  184.5410  178.6310  138.5370 C   0  0  2  0  0  3  0  0  0  0  0  0
  180.9430  182.8950  137.9680 N   0  0  0  0  0  1  0  0  0  0  0  0
  181.7030  177.4680  136.9590 N   0  0  0  0  0  0  0  0  0  0  0  0
  182.0250  180.7560  138.4410 C   0  0  0  0  0  3  0  0  0  0  0  0
  183.0400  178.3780  138.7670 C   0  0  2  0  0  3  0  0  0  0  0  0
  180.5840  179.6210  136.3350 C   0  0  0  0  0  0  0  0  0  0  0  0
  180.4420  180.9420  136.6410 N   0  0  0  0  0  0  0  0  0  0  0  0
  181.1360  181.5170  137.6700 C   0  0  0  0  0  0  0  0  0  0  0  0
  181.4660  178.8510  137.0910 C   0  0  0  0  0  0  0  0  0  0  0  0
  182.6330  177.0810  138.0200 C   0  0  0  0  0  2  0  0  0  0  0  0
  182.1820  179.4100  138.1080 C   0  0  0  0  0  0  0  0  0  0  0  0
  179.9220  179.1110  135.3950 O   0  0  0  0  0  0  0  0  0  0  0  0
  187.3840  178.3900  137.8630 N   0  0  0  0  0  2  0  0  0  0  0  0
  186.3850  177.7980  137.0230 C   0  0  0  0  0  0  0  0  0  0  0  0
  186.7110  177.2260  135.9480 O   0  0  0  0  0  0  0  0  0  0  0  0
  185.0090  177.8480  137.4010 N   0  0  0  0  0  2  0  0  0  0  0  0
  188.8740  179.0510  136.2270 F   0  0  0  0  0  0  0  0  0  0  0  0
  189.4300  179.3770  138.3810 F   0  0  0  0  0  0  0  0  0  0  0  0
  188.7960  178.5180  137.5000 C   0  0  0  0  0  0  0  0  0  0  0  0
  189.6870  176.5620  136.4210 O   0  0  0  0  0  0  0  0  0  0  0  0
  189.4830  177.1750  137.5030 C   0  0  0  0  0  0  0  0  0  0  0  0
  189.9640  176.5990  138.7130 N   0  0  0  0  0  2  0  0  0  0  0  0
  189.6480  177.1260  140.0300 C   0  0  0  0  0  2  0  0  0  0  0  0
  190.5290  176.5250  141.0160 N   0  0  0  0  0  0  0  0  0  0  0  0
  189.0700  177.0830  142.9370 C   0  0  0  0  0  0  0  0  0  0  0  0
  189.4630  177.9890  145.2920 C   0  0  0  0  0  2  0  0  0  0  0  0
  188.9700  178.4440  142.6900 F   0  0  0  0  0  0  0  0  0  0  0  0
  191.1010  175.9540  143.2140 O   0  0  0  0  0  0  0  0  0  0  0  0
  190.2660  176.5190  142.2860 C   0  0  0  0  0  0  0  0  0  0  0  0
  189.3450  176.7530  144.4190 C   0  0  2  0  0  3  0  0  0  0  0  0
  190.6190  176.0060  144.5050 N   0  0  2  0  0  0  0  0  0  0  0  0
  187.9290  176.4300  142.5100 F   0  0  0  0  0  0  0  0  0  0  0  0
  191.5450  176.8230  145.2850 C   0  0  0  0  0  2  0  0  0  0  0  0
  190.9420  178.2000  145.4560 C   0  0  0  0  0  2  0  0  0  0  0  0
  185.3290  178.2800  139.7110 N   0  0  0  0  0  2  0  0  0  0  0  0
  185.2470  179.3660  140.5980 N   0  0  0  0  0  2  0  0  0  0  0  0
  186.0330  179.0330  141.7790 C   0  0  0  0  0  2  0  0  0  0  0  0
  185.1570  178.9440  142.9810 C   0  0  0  0  0  0  0  0  0  0  0  0
  185.7330  178.8230  144.2470 C   0  0  0  0  0  3  0  0  0  0  0  0
  183.5290  178.8270  145.2470 C   0  0  0  0  0  3  0  0  0  0  0  0
  185.6400  178.6280  146.9670 Cl  0  0  0  0  0  0  0  0  0  0  0  0
  184.9170  178.7660  145.3810 C   0  0  0  0  0  0  0  0  0  0  0  0
  182.9460  178.9400  143.9830 C   0  0  0  0  0  0  0  0  0  0  0  0
  183.7680  179.0030  142.8470 C   0  0  0  0  0  3  0  0  0  0  0  0
  181.5510  178.9810  143.8830 O   0  0  0  0  0  0  0  0  0  0  0  0
  180.8750  179.1570  142.6470 C   0  0  0  0  0  1  0  0  0  0  0  0
  1 16  1  6  0  0  0
  1 35  1  0  0  0  0
  3  9  2  0  0  0  0
  3 10  1  0  0  0  0
  5  1  1  6  0  0  0
  6  7  1  0  0  0  0
  6  9  1  0  0  0  0
  7  8  2  0  0  0  0
  8  2  1  0  0  0  0
  8  4  1  0  0  0  0
  9 11  1  0  0  0  0
 10  5  1  0  0  0  0
 11  4  2  0  0  0  0
 11  5  1  0  0  0  0
 12  6  2  0  0  0  0
 14 16  1  0  0  0  0
 14 13  1  0  0  0  0
 15 14  2  0  0  0  0
 17 19  1  0  0  0  0
 19 21  1  0  0  0  0
 19 13  1  0  0  0  0
 19 18  1  0  0  0  0
 20 21  2  0  0  0  0
 21 22  1  0  0  0  0
 22 23  1  0  0  0  0
 23 24  1  0  0  0  0
 24 29  2  0  0  0  0
 25 30  1  0  0  0  0
 26 34  1  0  0  0  0
 27 25  1  0  0  0  0
 28 31  1  0  0  0  0
 29 25  1  0  0  0  0
 29 28  1  0  0  0  0
 30 31  1  0  0  0  0
 30 26  1  1  0  0  0
 31 33  1  1  0  0  0
 32 25  1  0  0  0  0
 33 34  1  0  0  0  0
 35 36  1  0  0  0  0
 36 37  1  0  0  0  0
 37 38  1  0  0  0  0
 38 39  1  0  0  0  0
 39 42  2  0  0  0  0
 40 42  1  0  0  0  0
 42 41  1  0  0  0  0
 43 40  2  0  0  0  0
 44 38  2  0  0  0  0
 44 43  1  0  0  0  0
 45 43  1  0  0  0  0
 46 45  1  0  0  0  0
M  END
>  <MODEL>
6

>  <REMARK>
 VINA RESULT:      -9.2      2.176      8.143
  Name = 
  11 active torsions:
  status: ('A' for Active; 'I' for Inactive)
    1  A    between atoms: N_1  and  C_19
    2  A    between atoms: N_1  and  N_30
    3  A    between atoms: N_2  and  C_11
    4  A    between atoms: N_6  and  C_29
    5  A    between atoms: C_10  and  C_19
    6  A    between atoms: C_11  and  N_42
    7  A    between atoms: C_14  and  C_29
    8  A    between atoms: O_15  and  C_41
    9  A    between atoms: C_20  and  C_35
   10  A    between atoms: N_30  and  C_35
   11  A    between atoms: N_34  and  C_35
                            x       y       z     vdW  Elec       q    Type
                         _______ _______ _______ _____ _____    ______ ____

>  <TORSDO>
F 11

$$$$
=
 OpenBabel11032420053D

 46 50  0  0  1  0  0  0  0  0999 V2000
  188.6620  177.5280  142.4060 C   0  0  2  0  0  3  0  0  0  0  0  0
  187.8040  177.5220  147.9480 N   0  0  0  0  0  1  0  0  0  0  0  0
  191.7070  177.1730  143.9870 N   0  0  0  0  0  0  0  0  0  0  0  0
  188.5960  177.9380  145.6750 C   0  0  0  0  0  3  0  0  0  0  0  0
  189.6540  178.2760  143.3160 C   0  0  2  0  0  3  0  0  0  0  0  0
  190.9760  176.6270  146.3200 C   0  0  0  0  0  0  0  0  0  0  0  0
  189.9810  176.7530  147.2430 N   0  0  0  0  0  0  0  0  0  0  0  0
  188.8090  177.3940  146.9490 C   0  0  0  0  0  0  0  0  0  0  0  0
  190.7790  177.1600  145.0480 C   0  0  0  0  0  0  0  0  0  0  0  0
  191.0990  177.9160  142.8830 C   0  0  0  0  0  2  0  0  0  0  0  0
  189.6110  177.7850  144.7280 C   0  0  0  0  0  0  0  0  0  0  0  0
  192.0520  176.0480  146.6200 O   0  0  0  0  0  0  0  0  0  0  0  0
  189.8060  177.0400  139.7520 N   0  0  0  0  0  2  0  0  0  0  0  0
  188.9510  178.1670  139.9780 C   0  0  0  0  0  0  0  0  0  0  0  0
  188.7350  179.0010  139.0570 O   0  0  0  0  0  0  0  0  0  0  0  0
  188.3310  178.3520  141.2510 N   0  0  0  0  0  2  0  0  0  0  0  0
  190.5050  177.9740  137.7590 F   0  0  0  0  0  0  0  0  0  0  0  0
  191.9260  176.6340  138.8720 F   0  0  0  0  0  0  0  0  0  0  0  0
  190.5980  176.8360  138.5380 C   0  0  0  0  0  0  0  0  0  0  0  0
  190.5120  174.5010  137.9680 O   0  0  0  0  0  0  0  0  0  0  0  0
  190.0810  175.6640  137.7410 C   0  0  0  0  0  0  0  0  0  0  0  0
  189.0640  175.8330  136.7600 N   0  0  0  0  0  2  0  0  0  0  0  0
  188.6100  177.1330  136.2960 C   0  0  0  0  0  2  0  0  0  0  0  0
  187.5100  176.9580  135.3640 N   0  0  0  0  0  0  0  0  0  0  0  0
  185.7550  177.2880  137.0770 C   0  0  0  0  0  0  0  0  0  0  0  0
  183.5380  176.1450  137.6270 C   0  0  0  0  0  2  0  0  0  0  0  0
  186.1980  176.3230  137.9680 F   0  0  0  0  0  0  0  0  0  0  0  0
  185.2300  176.8540  134.8380 O   0  0  0  0  0  0  0  0  0  0  0  0
  186.2650  177.0240  135.7210 C   0  0  0  0  0  0  0  0  0  0  0  0
  184.2300  177.2460  136.8440 C   0  0  2  0  0  3  0  0  0  0  0  0
  183.9820  177.0110  135.4040 N   0  0  2  0  0  0  0  0  0  0  0  0
  186.1340  178.5480  137.5030 F   0  0  0  0  0  0  0  0  0  0  0  0
  183.2870  175.7310  135.2910 C   0  0  0  0  0  2  0  0  0  0  0  0
  183.3410  175.0360  136.6330 C   0  0  0  0  0  2  0  0  0  0  0  0
  187.4350  177.1920  143.1150 N   0  0  0  0  0  2  0  0  0  0  0  0
  186.3950  177.8990  142.4900 N   0  0  0  0  0  2  0  0  0  0  0  0
  185.4530  178.3080  143.5230 C   0  0  0  0  0  2  0  0  0  0  0  0
  184.0890  178.4760  142.9510 C   0  0  0  0  0  0  0  0  0  0  0  0
  182.9940  178.6270  143.8050 C   0  0  0  0  0  3  0  0  0  0  0  0
  181.5310  178.8430  141.8890 C   0  0  0  0  0  3  0  0  0  0  0  0
  180.3480  179.0160  144.3440 Cl  0  0  0  0  0  0  0  0  0  0  0  0
  181.7150  178.8120  143.2720 C   0  0  0  0  0  0  0  0  0  0  0  0
  182.6200  178.6830  141.0280 C   0  0  0  0  0  0  0  0  0  0  0  0
  183.9030  178.5040  141.5670 C   0  0  0  0  0  3  0  0  0  0  0  0
  182.3970  178.7000  139.6480 O   0  0  0  0  0  0  0  0  0  0  0  0
  182.1660  179.8990  138.9220 C   0  0  0  0  0  1  0  0  0  0  0  0
  1 16  1  6  0  0  0
  1 35  1  0  0  0  0
  3  9  2  0  0  0  0
  4  8  1  0  0  0  0
  5  1  1  6  0  0  0
  5 11  1  0  0  0  0
  6 12  2  0  0  0  0
  6  7  1  0  0  0  0
  8  7  2  0  0  0  0
  8  2  1  0  0  0  0
  9  6  1  0  0  0  0
 10  5  1  0  0  0  0
 10  3  1  0  0  0  0
 11  9  1  0  0  0  0
 11  4  2  0  0  0  0
 13 14  1  0  0  0  0
 14 16  1  0  0  0  0
 15 14  2  0  0  0  0
 17 19  1  0  0  0  0
 19 18  1  0  0  0  0
 19 13  1  0  0  0  0
 21 20  2  0  0  0  0
 21 19  1  0  0  0  0
 22 21  1  0  0  0  0
 23 22  1  0  0  0  0
 24 29  2  0  0  0  0
 24 23  1  0  0  0  0
 25 32  1  0  0  0  0
 25 27  1  0  0  0  0
 28 31  1  0  0  0  0
 28 29  1  0  0  0  0
 29 25  1  0  0  0  0
 30 25  1  0  0  0  0
 30 26  1  1  0  0  0
 31 33  1  1  0  0  0
 31 30  1  0  0  0  0
 33 34  1  0  0  0  0
 34 26  1  0  0  0  0
 36 35  1  0  0  0  0
 36 37  1  0  0  0  0
 38 37  1  0  0  0  0
 38 39  1  0  0  0  0
 40 42  1  0  0  0  0
 42 39  2  0  0  0  0
 42 41  1  0  0  0  0
 43 44  1  0  0  0  0
 43 40  2  0  0  0  0
 44 38  2  0  0  0  0
 45 43  1  0  0  0  0
 46 45  1  0  0  0  0
M  END
>  <MODEL>
7

>  <REMARK>
 VINA RESULT:      -9.1      1.921      2.754
  Name = 
  11 active torsions:
  status: ('A' for Active; 'I' for Inactive)
    1  A    between atoms: N_1  and  C_19
    2  A    between atoms: N_1  and  N_30
    3  A    between atoms: N_2  and  C_11
    4  A    between atoms: N_6  and  C_29
    5  A    between atoms: C_10  and  C_19
    6  A    between atoms: C_11  and  N_42
    7  A    between atoms: C_14  and  C_29
    8  A    between atoms: O_15  and  C_41
    9  A    between atoms: C_20  and  C_35
   10  A    between atoms: N_30  and  C_35
   11  A    between atoms: N_34  and  C_35
                            x       y       z     vdW  Elec       q    Type
                         _______ _______ _______ _____ _____    ______ ____

>  <TORSDO>
F 11

$$$$
=
 OpenBabel11032420053D

 46 50  0  0  1  0  0  0  0  0999 V2000
  189.1690  177.5800  140.3220 C   0  0  2  0  0  3  0  0  0  0  0  0
  190.4020  174.2290  135.9970 N   0  0  0  0  0  1  0  0  0  0  0  0
  192.5940  177.5240  139.9200 N   0  0  0  0  0  0  0  0  0  0  0  0
  190.2860  175.3580  138.1600 C   0  0  0  0  0  2  0  0  0  0  0  0
  190.3900  176.6470  140.4240 C   0  0  2  0  0  3  0  0  0  0  0  0
  192.7950  176.4760  137.6530 C   0  0  0  0  0  0  0  0  0  0  0  0
  192.2020  175.6560  136.7390 N   0  0  0  0  0  0  0  0  0  0  0  0
  190.9760  175.0960  136.9690 C   0  0  0  0  0  0  0  0  0  0  0  0
  192.1210  176.7480  138.8420 C   0  0  0  0  0  0  0  0  0  0  0  0
  191.5900  177.4550  140.9820 C   0  0  0  0  0  3  0  0  0  0  0  0
  190.8890  176.2160  139.0820 C   0  0  0  0  0  0  0  0  0  0  0  0
  193.9310  176.9660  137.4260 O   0  0  0  0  0  0  0  0  0  0  0  0
  187.8230  177.5570  137.7180 N   0  0  0  0  0  2  0  0  0  0  0  0
  188.8170  178.5450  138.0130 C   0  0  0  0  0  0  0  0  0  0  0  0
  189.1750  179.3740  137.1330 O   0  0  0  0  0  0  0  0  0  0  0  0
  189.4080  178.6020  139.3110 N   0  0  0  0  0  2  0  0  0  0  0  0
  186.5670  178.4540  136.0000 F   0  0  0  0  0  0  0  0  0  0  0  0
  188.2830  177.0980  135.4800 F   0  0  0  0  0  0  0  0  0  0  0  0
  187.2610  177.3230  136.3870 C   0  0  0  0  0  0  0  0  0  0  0  0
  186.6870  175.0230  135.9830 O   0  0  0  0  0  0  0  0  0  0  0  0
  186.3100  176.1530  136.3940 C   0  0  0  0  0  0  0  0  0  0  0  0
  184.9900  176.2820  136.9140 N   0  0  0  0  0  2  0  0  0  0  0  0
  184.3900  177.5580  137.2610 C   0  0  0  0  0  2  0  0  0  0  0  0
  184.1760  177.6190  138.6970 N   0  0  0  0  0  0  0  0  0  0  0  0
  181.7070  177.6190  138.5200 C   0  0  0  0  0  0  0  0  0  0  0  0
  179.8210  178.9050  139.6660 C   0  0  0  0  0  2  0  0  0  0  0  0
  181.5950  178.6990  137.6570 F   0  0  0  0  0  0  0  0  0  0  0  0
  182.7990  177.7110  140.5880 O   0  0  0  0  0  0  0  0  0  0  0  0
  182.9960  177.6500  139.2330 C   0  0  0  0  0  0  0  0  0  0  0  0
  180.7070  177.6730  139.6940 C   0  0  2  0  0  3  0  0  0  0  0  0
  181.4710  177.6850  140.9620 N   0  0  2  0  0  0  0  0  0  0  0  0
  181.5620  176.4310  137.8280 F   0  0  0  0  0  0  0  0  0  0  0  0
  181.1800  178.9530  141.6270 C   0  0  0  0  0  2  0  0  0  0  0  0
  180.4490  179.8490  140.6520 C   0  0  0  0  0  2  0  0  0  0  0  0
  188.8850  178.2300  141.5940 N   0  0  0  0  0  2  0  0  0  0  0  0
  187.7640  177.5840  142.1410 N   0  0  0  0  0  2  0  0  0  0  0  0
  188.1760  176.9650  143.3940 C   0  0  0  0  0  2  0  0  0  0  0  0
  187.3730  177.4960  144.5290 C   0  0  0  0  0  0  0  0  0  0  0  0
  186.0750  177.9600  144.3010 C   0  0  0  0  0  3  0  0  0  0  0  0
  185.8350  178.4480  146.6590 C   0  0  0  0  0  3  0  0  0  0  0  0
  183.6770  179.0010  145.0810 Cl  0  0  0  0  0  0  0  0  0  0  0  0
  185.3070  178.4340  145.3670 C   0  0  0  0  0  0  0  0  0  0  0  0
  187.1360  177.9950  146.8940 C   0  0  0  0  0  0  0  0  0  0  0  0
  187.9020  177.5130  145.8220 C   0  0  0  0  0  3  0  0  0  0  0  0
  187.6410  178.0390  148.1970 O   0  0  0  0  0  0  0  0  0  0  0  0
  189.0170  178.2530  148.4800 C   0  0  0  0  0  1  0  0  0  0  0  0
  1 16  1  6  0  0  0
  1 35  1  0  0  0  0
  2  8  1  0  0  0  0
  3 10  2  0  0  0  0
  4 11  1  0  0  0  0
  5  1  1  6  0  0  0
  5 10  1  0  0  0  0
  6  9  1  0  0  0  0
  7  8  2  0  0  0  0
  7  6  1  0  0  0  0
  8  4  1  0  0  0  0
  9 11  2  0  0  0  0
  9  3  1  0  0  0  0
 11  5  1  0  0  0  0
 12  6  2  0  0  0  0
 13 14  1  0  0  0  0
 14 16  1  0  0  0  0
 15 14  2  0  0  0  0
 17 19  1  0  0  0  0
 18 19  1  0  0  0  0
 19 21  1  0  0  0  0
 19 13  1  0  0  0  0
 20 21  2  0  0  0  0
 21 22  1  0  0  0  0
 22 23  1  0  0  0  0
 23 24  1  0  0  0  0
 24 29  2  0  0  0  0
 25 29  1  0  0  0  0
 25 30  1  0  0  0  0
 26 34  1  0  0  0  0
 27 25  1  0  0  0  0
 28 31  1  0  0  0  0
 29 28  1  0  0  0  0
 30 26  1  6  0  0  0
 30 31  1  0  0  0  0
 31 33  1  1  0  0  0
 32 25  1  0  0  0  0
 34 33  1  0  0  0  0
 35 36  1  0  0  0  0
 36 37  1  0  0  0  0
 37 38  1  0  0  0  0
 38 44  1  0  0  0  0
 39 38  2  0  0  0  0
 39 42  1  0  0  0  0
 40 43  1  0  0  0  0
 41 42  1  0  0  0  0
 42 40  2  0  0  0  0
 43 45  1  0  0  0  0
 44 43  2  0  0  0  0
 45 46  1  0  0  0  0
M  END
>  <MODEL>
8

>  <REMARK>
 VINA RESULT:      -9.0      2.525      5.176
  Name = 
  11 active torsions:
  status: ('A' for Active; 'I' for Inactive)
    1  A    between atoms: N_1  and  C_19
    2  A    between atoms: N_1  and  N_30
    3  A    between atoms: N_2  and  C_11
    4  A    between atoms: N_6  and  C_29
    5  A    between atoms: C_10  and  C_19
    6  A    between atoms: C_11  and  N_42
    7  A    between atoms: C_14  and  C_29
    8  A    between atoms: O_15  and  C_41
    9  A    between atoms: C_20  and  C_35
   10  A    between atoms: N_30  and  C_35
   11  A    between atoms: N_34  and  C_35
                            x       y       z     vdW  Elec       q    Type
                         _______ _______ _______ _____ _____    ______ ____

>  <TORSDO>
F 11

$$$$
=
 OpenBabel11032420053D

 46 50  0  0  1  0  0  0  0  0999 V2000
  186.0130  178.2950  141.9370 C   0  0  2  0  0  3  0  0  0  0  0  0
  189.2220  176.8330  146.2980 N   0  0  0  0  0  1  0  0  0  0  0  0
  184.3400  179.0940  144.8460 N   0  0  0  0  0  0  0  0  0  0  0  0
  187.4010  177.1650  144.7030 C   0  0  0  0  0  2  0  0  0  0  0  0
  185.3500  177.6580  143.1720 C   0  0  2  0  0  3  0  0  0  0  0  0
  186.1830  178.8890  146.5320 C   0  0  0  0  0  0  0  0  0  0  0  0
  187.3760  178.2970  146.8240 N   0  0  0  0  0  0  0  0  0  0  0  0
  187.9880  177.4470  145.9440 C   0  0  0  0  0  0  0  0  0  0  0  0
  185.5880  178.6200  145.3000 C   0  0  0  0  0  0  0  0  0  0  0  0
  184.0880  178.4810  143.5420 C   0  0  0  0  0  3  0  0  0  0  0  0
  186.1910  177.7920  144.4010 C   0  0  0  0  0  0  0  0  0  0  0  0
  185.6310  179.6540  147.3640 O   0  0  0  0  0  0  0  0  0  0  0  0
  187.9540  178.0370  139.7560 N   0  0  0  0  0  2  0  0  0  0  0  0
  188.3980  178.2110  141.1080 C   0  0  0  0  0  0  0  0  0  0  0  0
  189.6280  178.1860  141.3840 O   0  0  0  0  0  0  0  0  0  0  0  0
  187.4480  178.4190  142.1530 N   0  0  0  0  0  2  0  0  0  0  0  0
  190.1410  177.8560  139.0380 F   0  0  0  0  0  0  0  0  0  0  0  0
  188.6450  176.3460  138.3080 F   0  0  0  0  0  0  0  0  0  0  0  0
  188.8300  177.6770  138.6400 C   0  0  0  0  0  0  0  0  0  0  0  0
  188.9880  179.7380  137.4110 O   0  0  0  0  0  0  0  0  0  0  0  0
  188.5680  178.5500  137.4380 C   0  0  0  0  0  0  0  0  0  0  0  0
  187.8930  178.0400  136.2930 N   0  0  0  0  0  2  0  0  0  0  0  0
  187.2240  176.7510  136.2680 C   0  0  0  0  0  2  0  0  0  0  0  0
  185.8980  176.8820  136.8470 N   0  0  0  0  0  0  0  0  0  0  0  0
  185.4940  174.4420  136.9480 C   0  0  0  0  0  0  0  0  0  0  0  0
  183.5100  172.9230  136.4200 C   0  0  0  0  0  2  0  0  0  0  0  0
  185.7510  174.1680  135.6130 F   0  0  0  0  0  0  0  0  0  0  0  0
  183.8990  175.9900  137.6780 O   0  0  0  0  0  0  0  0  0  0  0  0
  185.1510  175.8620  137.1350 C   0  0  0  0  0  0  0  0  0  0  0  0
  184.2220  173.7480  137.4770 C   0  0  2  0  0  3  0  0  0  0  0  0
  183.2840  174.7880  137.9570 N   0  0  2  0  0  0  0  0  0  0  0  0
  186.5820  174.0970  137.7290 F   0  0  0  0  0  0  0  0  0  0  0  0
  182.0870  174.7050  137.1240 C   0  0  0  0  0  2  0  0  0  0  0  0
  182.3820  173.7970  135.9500 C   0  0  0  0  0  2  0  0  0  0  0  0
  185.4610  179.6140  141.6540 N   0  0  0  0  0  2  0  0  0  0  0  0
  185.1970  179.6590  140.2760 N   0  0  0  0  0  2  0  0  0  0  0  0
  184.2630  178.5840  139.9680 C   0  0  0  0  0  2  0  0  0  0  0  0
  182.8830  179.1190  139.8090 C   0  0  0  0  0  0  0  0  0  0  0  0
  182.6020  180.0080  138.7700 C   0  0  0  0  0  3  0  0  0  0  0  0
  180.2870  180.0920  139.4690 C   0  0  0  0  0  3  0  0  0  0  0  0
  180.9490  181.5960  137.2890 Cl  0  0  0  0  0  0  0  0  0  0  0  0
  181.3020  180.4930  138.6000 C   0  0  0  0  0  0  0  0  0  0  0  0
  180.5620  179.2090  140.5160 C   0  0  0  0  0  0  0  0  0  0  0  0
  181.8670  178.7200  140.6800 C   0  0  0  0  0  3  0  0  0  0  0  0
  179.5250  178.8420  141.3800 O   0  0  0  0  0  0  0  0  0  0  0  0
  179.7490  178.4580  142.7290 C   0  0  0  0  0  1  0  0  0  0  0  0
  1 35  1  1  0  0  0
  1 16  1  0  0  0  0
  3  9  1  0  0  0  0
  4  8  1  0  0  0  0
  5  1  1  6  0  0  0
  5 10  1  0  0  0  0
  5 11  1  0  0  0  0
  6  7  1  0  0  0  0
  6 12  2  0  0  0  0
  8  2  1  0  0  0  0
  8  7  2  0  0  0  0
  9  6  1  0  0  0  0
 10  3  2  0  0  0  0
 11  4  1  0  0  0  0
 11  9  2  0  0  0  0
 13 14  1  0  0  0  0
 14 15  2  0  0  0  0
 14 16  1  0  0  0  0
 18 19  1  0  0  0  0
 19 17  1  0  0  0  0
 19 13  1  0  0  0  0
 20 21  2  0  0  0  0
 21 19  1  0  0  0  0
 22 21  1  0  0  0  0
 23 22  1  0  0  0  0
 23 24  1  0  0  0  0
 24 29  2  0  0  0  0
 25 29  1  0  0  0  0
 25 30  1  0  0  0  0
 25 32  1  0  0  0  0
 27 25  1  0  0  0  0
 28 31  1  0  0  0  0
 29 28  1  0  0  0  0
 30 26  1  6  0  0  0
 30 31  1  0  0  0  0
 31 33  1  6  0  0  0
 34 26  1  0  0  0  0
 34 33  1  0  0  0  0
 36 35  1  0  0  0  0
 37 36  1  0  0  0  0
 38 37  1  0  0  0  0
 38 44  1  0  0  0  0
 39 38  2  0  0  0  0
 40 43  1  0  0  0  0
 41 42  1  0  0  0  0
 42 39  1  0  0  0  0
 42 40  2  0  0  0  0
 43 44  2  0  0  0  0
 43 45  1  0  0  0  0
 45 46  1  0  0  0  0
M  END
>  <MODEL>
9

>  <REMARK>
 VINA RESULT:      -8.8      2.902      4.322
  Name = 
  11 active torsions:
  status: ('A' for Active; 'I' for Inactive)
    1  A    between atoms: N_1  and  C_19
    2  A    between atoms: N_1  and  N_30
    3  A    between atoms: N_2  and  C_11
    4  A    between atoms: N_6  and  C_29
    5  A    between atoms: C_10  and  C_19
    6  A    between atoms: C_11  and  N_42
    7  A    between atoms: C_14  and  C_29
    8  A    between atoms: O_15  and  C_41
    9  A    between atoms: C_20  and  C_35
   10  A    between atoms: N_30  and  C_35
   11  A    between atoms: N_34  and  C_35
                            x       y       z     vdW  Elec       q    Type
                         _______ _______ _______ _____ _____    ______ ____

>  <TORSDO>
F 11

$$$$
