=
 OpenBabel11032420403D

 45 50  0  0  1  0  0  0  0  0999 V2000
  180.3660  177.3350  140.5170 C   0  0  0  0  0  2  0  0  0  0  0  0
  180.4570  176.9340  139.0200 C   0  0  0  0  0  2  0  0  0  0  0  0
  186.0060  177.0000  135.8760 C   0  0  0  0  0  2  0  0  0  0  0  0
  184.8940  177.4240  138.1670 C   0  0  1  0  0  3  0  0  0  0  0  0
  181.7330  177.3870  138.2330 C   0  0  1  0  0  3  0  0  0  0  0  0
  181.8920  179.8320  139.0180 C   0  0  1  0  0  3  0  0  0  0  0  0
  183.7230  176.5430  136.2770 C   0  0  0  0  0  0  0  0  0  0  0  0
  181.2070  180.1610  137.8460 O   0  0  0  0  0  1  0  0  0  0  0  0
  182.2770  176.6620  135.9370 C   0  0  2  0  0  3  0  0  0  0  0  0
  180.9400  179.7340  140.2080 C   0  0  0  0  0  2  0  0  0  0  0  0
  182.7490  178.1130  140.4420 C   0  0  1  0  0  0  0  0  0  0  0  0
  183.0650  176.7540  140.6240 O   0  0  0  0  0  1  0  0  0  0  0  0
  184.0090  178.6840  138.2720 C   0  0  0  0  0  2  0  0  0  0  0  0
  181.5400  177.6310  136.7650 N   0  0  1  0  0  0  0  0  0  0  0  0
  181.4750  175.3850  135.8990 C   0  0  1  0  0  3  0  0  0  0  0  0
  184.1190  176.3730  137.6010 O   0  0  0  0  0  0  0  0  0  0  0  0
  182.6250  178.4770  138.9460 C   0  0  1  0  0  0  0  0  0  0  0  0
  184.6240  176.8840  135.4150 N   0  0  0  0  0  0  0  0  0  0  0  0
  186.0750  177.7590  137.2260 C   0  0  1  0  0  3  0  0  0  0  0  0
  180.0480  175.8950  135.9550 C   0  0  0  0  0  2  0  0  0  0  0  0
  180.1540  177.3820  136.3450 C   0  0  0  0  0  2  0  0  0  0  0  0
  181.3330  178.4440  140.9390 C   0  0  2  0  0  3  0  0  0  0  0  0
  187.9320  176.4200  137.9530 O   0  0  0  0  0  0  0  0  0  0  0  0
  188.1060  178.7010  138.3750 N   0  0  0  0  0  1  0  0  0  0  0  0
  187.4030  177.5650  137.8840 C   0  0  0  0  0  0  0  0  0  0  0  0
  181.7120  174.6490  134.5940 C   0  0  0  0  0  2  0  0  0  0  0  0
  182.2010  173.2270  134.8490 C   0  0  1  0  0  3  0  0  0  0  0  0
  183.3210  173.2290  135.6860 O   0  0  0  0  0  1  0  0  0  0  0  0
  179.8450  172.3180  134.8010 N   0  0  0  0  0  2  0  0  0  0  0  0
  181.1920  172.0270  136.7030 N   0  0  0  0  0  1  0  0  0  0  0  0
  181.1010  172.4060  135.4660 C   0  0  0  0  0  0  0  0  0  0  0  0
  183.7920  178.9680  141.1880 C   0  0  0  0  0  2  0  0  0  0  0  0
  183.6980  178.7800  142.7040 C   0  0  0  0  0  2  0  0  0  0  0  0
  184.8130  177.9790  143.1940 N   0  0  0  0  0  2  0  0  0  0  0  0
  185.6890  178.7880  144.0520 C   0  0  1  0  0  3  0  0  0  0  0  0
  185.0670  180.0040  144.3730 O   0  0  0  0  0  1  0  0  0  0  0  0
  186.1250  178.0190  145.3230 C   0  0  1  0  0  3  0  0  0  0  0  0
  190.3150  177.0310  145.2930 C   0  0  0  0  0  3  0  0  0  0  0  0
  188.2360  177.4500  144.1140 C   0  0  0  0  0  3  0  0  0  0  0  0
  189.6710  177.2750  146.5100 C   0  0  0  0  0  3  0  0  0  0  0  0
  189.5970  177.1190  144.0940 C   0  0  0  0  0  3  0  0  0  0  0  0
  188.3120  177.6070  146.5310 C   0  0  0  0  0  3  0  0  0  0  0  0
  187.5900  177.7040  145.3290 C   0  0  0  0  0  0  0  0  0  0  0  0
  184.4220  178.3480  147.0000 O   0  0  0  0  0  1  0  0  0  0  0  0
  185.7090  178.7320  146.6130 C   0  0  0  0  0  2  0  0  0  0  0  0
  1 22  1  0  0  0  0
  2  1  1  0  0  0  0
  3 19  1  0  0  0  0
  4 13  1  6  0  0  0
  5 17  1  0  0  0  0
  5  2  1  1  0  0  0
  6  8  1  6  0  0  0
  6 10  1  0  0  0  0
  7 16  1  0  0  0  0
  9  7  1  1  0  0  0
  9 14  1  0  0  0  0
 11 12  1  1  0  0  0
 11 22  1  0  0  0  0
 11 32  1  0  0  0  0
 14 21  1  1  0  0  0
 14  5  1  0  0  0  0
 15 26  1  6  0  0  0
 15  9  1  0  0  0  0
 15 20  1  0  0  0  0
 16  4  1  0  0  0  0
 17 13  1  6  0  0  0
 17  6  1  0  0  0  0
 17 11  1  0  0  0  0
 18  3  1  0  0  0  0
 18  7  2  0  0  0  0
 19 25  1  1  0  0  0
 19  4  1  0  0  0  0
 20 21  1  0  0  0  0
 22 10  1  6  0  0  0
 25 23  2  0  0  0  0
 25 24  1  0  0  0  0
 26 27  1  0  0  0  0
 27 31  1  0  0  0  0
 27 28  1  1  0  0  0
 29 31  2  0  0  0  0
 31 30  1  0  0  0  0
 32 33  1  0  0  0  0
 33 34  1  0  0  0  0
 34 35  1  0  0  0  0
 35 36  1  1  0  0  0
 35 37  1  0  0  0  0
 37 43  1  0  0  0  0
 37 45  1  1  0  0  0
 38 40  1  0  0  0  0
 39 43  2  0  0  0  0
 40 42  2  0  0  0  0
 41 39  1  0  0  0  0
 41 38  2  0  0  0  0
 43 42  1  0  0  0  0
 45 44  1  0  0  0  0
M  END
>  <MODEL>
1

>  <REMARK>
 VINA RESULT:      -7.2      0.000      0.000
  Name = 
  11 active torsions:
  status: ('A' for Active; 'I' for Inactive)
    1  A    between atoms: C_4  and  C_5
    2  A    between atoms: C_4  and  N_40
    3  A    between atoms: C_5  and  C_31
    4  A    between atoms: C_5  and  C_45
    5  A    between atoms: C_7  and  C_15
    6  A    between atoms: C_7  and  C_29
    7  A    between atoms: C_15  and  C_44
    8  A    between atoms: C_19  and  C_24
    9  A    between atoms: C_19  and  C_34
   10  A    between atoms: C_34  and  N_40
   11  A    between atoms: C_37  and  C_38
                            x       y       z     vdW  Elec       q    Type
                         _______ _______ _______ _____ _____    ______ ____

>  <TORSDO>
F 11

$$$$
=
 OpenBabel11032420403D

 45 50  0  0  1  0  0  0  0  0999 V2000
  187.2830  174.7800  134.9660 C   0  0  0  0  0  2  0  0  0  0  0  0
  188.8240  174.6930  135.1330 C   0  0  0  0  0  2  0  0  0  0  0  0
  191.7790  177.2120  140.1930 C   0  0  0  0  0  2  0  0  0  0  0  0
  189.4760  176.8310  139.0910 C   0  0  1  0  0  3  0  0  0  0  0  0
  189.4910  175.6870  136.1430 C   0  0  1  0  0  3  0  0  0  0  0  0
  188.2960  177.8660  135.4750 C   0  0  1  0  0  3  0  0  0  0  0  0
  191.5150  175.9290  138.2270 C   0  0  0  0  0  0  0  0  0  0  0  0
  189.4110  178.1280  134.6750 O   0  0  0  0  0  1  0  0  0  0  0  0
  191.8640  175.5940  136.8170 C   0  0  2  0  0  3  0  0  0  0  0  0
  187.1640  177.2440  134.6620 C   0  0  0  0  0  2  0  0  0  0  0  0
  187.1670  176.3380  136.9270 C   0  0  1  0  0  0  0  0  0  0  0  0
  187.2130  175.1640  137.7010 O   0  0  0  0  0  1  0  0  0  0  0  0
  189.1780  177.6680  137.8280 C   0  0  0  0  0  2  0  0  0  0  0  0
  190.9010  176.0920  135.8220 N   0  0  1  0  0  0  0  0  0  0  0  0
  192.1380  174.1440  136.5060 C   0  0  1  0  0  3  0  0  0  0  0  0
  190.2310  175.6880  138.7060 O   0  0  0  0  0  0  0  0  0  0  0  0
  188.5820  176.8830  136.6290 C   0  0  1  0  0  0  0  0  0  0  0  0
  192.2850  176.7020  138.9200 N   0  0  0  0  0  0  0  0  0  0  0  0
  190.3180  177.7090  140.0460 C   0  0  1  0  0  3  0  0  0  0  0  0
  192.0300  174.1090  134.9940 C   0  0  0  0  0  2  0  0  0  0  0  0
  191.3890  175.4520  134.5940 C   0  0  0  0  0  2  0  0  0  0  0  0
  186.6550  176.0680  135.5050 C   0  0  2  0  0  3  0  0  0  0  0  0
  190.3370  177.7430  142.4490 O   0  0  0  0  0  0  0  0  0  0  0  0
  188.3050  178.2730  141.4470 N   0  0  0  0  0  1  0  0  0  0  0  0
  189.6720  177.8810  141.3830 C   0  0  0  0  0  0  0  0  0  0  0  0
  193.5450  173.7670  136.9340 C   0  0  0  0  0  2  0  0  0  0  0  0
  194.4750  174.9740  136.8790 C   0  0  1  0  0  3  0  0  0  0  0  0
  195.0980  175.1790  138.1140 O   0  0  0  0  0  1  0  0  0  0  0  0
  195.4050  175.5150  134.5940 N   0  0  0  0  0  2  0  0  0  0  0  0
  196.3160  173.7600  135.8630 N   0  0  0  0  0  1  0  0  0  0  0  0
  195.5130  174.7770  135.8070 C   0  0  0  0  0  0  0  0  0  0  0  0
  186.2620  177.3640  137.6370 C   0  0  0  0  0  2  0  0  0  0  0  0
  184.8200  177.2920  137.1300 C   0  0  0  0  0  2  0  0  0  0  0  0
  183.9060  176.9690  138.2180 N   0  0  0  0  0  2  0  0  0  0  0  0
  183.8260  178.0840  139.1710 C   0  0  1  0  0  3  0  0  0  0  0  0
  183.5260  179.2780  138.4970 O   0  0  0  0  0  1  0  0  0  0  0  0
  182.8140  177.8020  140.3080 C   0  0  1  0  0  3  0  0  0  0  0  0
  184.2070  179.2060  144.1320 C   0  0  0  0  0  3  0  0  0  0  0  0
  184.6550  178.3570  141.9040 C   0  0  0  0  0  3  0  0  0  0  0  0
  182.8340  179.1620  143.8700 C   0  0  0  0  0  3  0  0  0  0  0  0
  185.1170  178.8030  143.1490 C   0  0  0  0  0  3  0  0  0  0  0  0
  182.3700  178.7170  142.6270 C   0  0  0  0  0  3  0  0  0  0  0  0
  183.2830  178.3200  141.6340 C   0  0  0  0  0  0  0  0  0  0  0  0
  180.5520  177.2490  139.6780 O   0  0  0  0  0  1  0  0  0  0  0  0
  181.4070  178.3120  139.9820 C   0  0  0  0  0  2  0  0  0  0  0  0
  1  2  1  0  0  0  0
  1 22  1  0  0  0  0
  4 13  1  6  0  0  0
  4 19  1  0  0  0  0
  5  2  1  6  0  0  0
  5 17  1  0  0  0  0
  6  8  1  6  0  0  0
  6 17  1  0  0  0  0
  7 16  1  0  0  0  0
  7 18  2  0  0  0  0
  9  7  1  1  0  0  0
 10  6  1  0  0  0  0
 11 32  1  0  0  0  0
 11 12  1  1  0  0  0
 14 21  1  6  0  0  0
 14  5  1  0  0  0  0
 14  9  1  0  0  0  0
 15  9  1  0  0  0  0
 15 26  1  6  0  0  0
 16  4  1  0  0  0  0
 17 11  1  0  0  0  0
 17 13  1  1  0  0  0
 18  3  1  0  0  0  0
 19  3  1  0  0  0  0
 19 25  1  1  0  0  0
 20 15  1  0  0  0  0
 21 20  1  0  0  0  0
 22 10  1  6  0  0  0
 22 11  1  0  0  0  0
 25 24  1  0  0  0  0
 25 23  2  0  0  0  0
 27 26  1  0  0  0  0
 27 28  1  1  0  0  0
 29 31  2  0  0  0  0
 31 30  1  0  0  0  0
 31 27  1  0  0  0  0
 33 32  1  0  0  0  0
 33 34  1  0  0  0  0
 34 35  1  0  0  0  0
 35 36  1  6  0  0  0
 35 37  1  0  0  0  0
 37 45  1  6  0  0  0
 37 43  1  0  0  0  0
 39 41  1  0  0  0  0
 40 38  1  0  0  0  0
 41 38  2  0  0  0  0
 42 40  2  0  0  0  0
 43 39  2  0  0  0  0
 43 42  1  0  0  0  0
 44 45  1  0  0  0  0
M  END
>  <MODEL>
2

>  <REMARK>
 VINA RESULT:      -6.7      4.244      8.513
  Name = 
  11 active torsions:
  status: ('A' for Active; 'I' for Inactive)
    1  A    between atoms: C_4  and  C_5
    2  A    between atoms: C_4  and  N_40
    3  A    between atoms: C_5  and  C_31
    4  A    between atoms: C_5  and  C_45
    5  A    between atoms: C_7  and  C_15
    6  A    between atoms: C_7  and  C_29
    7  A    between atoms: C_15  and  C_44
    8  A    between atoms: C_19  and  C_24
    9  A    between atoms: C_19  and  C_34
   10  A    between atoms: C_34  and  N_40
   11  A    between atoms: C_37  and  C_38
                            x       y       z     vdW  Elec       q    Type
                         _______ _______ _______ _____ _____    ______ ____

>  <TORSDO>
F 11

$$$$
=
 OpenBabel11032420403D

 45 50  0  0  1  0  0  0  0  0999 V2000
  186.5580  177.6140  135.0130 C   0  0  0  0  0  2  0  0  0  0  0  0
  185.0160  177.7730  135.0820 C   0  0  0  0  0  2  0  0  0  0  0  0
  181.9990  178.7000  140.6250 C   0  0  0  0  0  2  0  0  0  0  0  0
  184.3160  178.3720  139.5320 C   0  0  1  0  0  3  0  0  0  0  0  0
  184.3350  177.5600  136.4770 C   0  0  1  0  0  3  0  0  0  0  0  0
  185.5360  175.4140  137.2320 C   0  0  1  0  0  3  0  0  0  0  0  0
  182.2870  178.5800  138.2830 C   0  0  0  0  0  0  0  0  0  0  0  0
  184.4300  174.7240  136.7290 O   0  0  0  0  0  1  0  0  0  0  0  0
  181.9550  178.0180  136.9430 C   0  0  2  0  0  3  0  0  0  0  0  0
  186.6780  175.4440  136.2200 C   0  0  0  0  0  2  0  0  0  0  0  0
  186.6500  177.5100  137.5170 C   0  0  1  0  0  0  0  0  0  0  0  0
  186.5960  178.9150  137.4500 O   0  0  0  0  0  1  0  0  0  0  0  0
  184.6270  176.9540  139.0080 C   0  0  0  0  0  2  0  0  0  0  0  0
  182.9300  177.0350  136.4420 N   0  0  1  0  0  0  0  0  0  0  0  0
  181.6860  179.0050  135.8350 C   0  0  1  0  0  3  0  0  0  0  0  0
  183.5660  179.0650  138.5410 O   0  0  0  0  0  0  0  0  0  0  0  0
  185.2380  176.8860  137.5830 C   0  0  1  0  0  0  0  0  0  0  0  0
  181.5090  178.3590  139.2910 N   0  0  0  0  0  0  0  0  0  0  0  0
  183.4620  178.2200  140.8130 C   0  0  1  0  0  3  0  0  0  0  0  0
  181.8120  178.1440  134.5930 C   0  0  0  0  0  2  0  0  0  0  0  0
  182.4560  176.8270  135.0670 C   0  0  0  0  0  2  0  0  0  0  0  0
  187.1790  176.8940  136.2130 C   0  0  2  0  0  3  0  0  0  0  0  0
  183.5380  178.8310  143.1360 O   0  0  0  0  0  0  0  0  0  0  0  0
  185.3670  179.4890  141.8580 N   0  0  0  0  0  1  0  0  0  0  0  0
  184.0920  178.8730  142.0010 C   0  0  0  0  0  0  0  0  0  0  0  0
  180.2750  179.5540  135.9440 C   0  0  0  0  0  2  0  0  0  0  0  0
  180.2800  181.0790  135.9410 C   0  0  1  0  0  3  0  0  0  0  0  0
  179.2020  181.5780  135.2020 O   0  0  0  0  0  1  0  0  0  0  0  0
  178.9480  181.8320  137.9500 N   0  0  0  0  0  1  0  0  0  0  0  0
  181.2830  182.0930  137.9050 N   0  0  0  0  0  2  0  0  0  0  0  0
  180.2190  181.5990  137.3510 C   0  0  0  0  0  0  0  0  0  0  0  0
  187.5460  177.1050  138.7030 C   0  0  0  0  0  2  0  0  0  0  0  0
  188.8010  177.9770  138.7880 C   0  0  0  0  0  2  0  0  0  0  0  0
  189.0290  178.4200  140.1570 N   0  0  0  0  0  2  0  0  0  0  0  0
  189.3930  177.2820  141.0120 C   0  0  1  0  0  3  0  0  0  0  0  0
  190.2640  176.4200  140.3280 O   0  0  0  0  0  1  0  0  0  0  0  0
  189.9910  177.7410  142.3650 C   0  0  1  0  0  3  0  0  0  0  0  0
  187.1230  177.4680  145.5630 C   0  0  0  0  0  3  0  0  0  0  0  0
  187.7010  177.2250  143.2190 C   0  0  0  0  0  3  0  0  0  0  0  0
  188.4310  177.8760  145.8410 C   0  0  0  0  0  3  0  0  0  0  0  0
  186.7580  177.1420  144.2520 C   0  0  0  0  0  3  0  0  0  0  0  0
  189.3750  177.9580  144.8100 C   0  0  0  0  0  3  0  0  0  0  0  0
  189.0140  177.6240  143.4930 C   0  0  0  0  0  0  0  0  0  0  0  0
  191.0620  175.8030  143.3230 O   0  0  0  0  0  1  0  0  0  0  0  0
  191.3060  177.0290  142.6970 C   0  0  0  0  0  2  0  0  0  0  0  0
  1  2  1  0  0  0  0
  3 19  1  0  0  0  0
  4 13  1  6  0  0  0
  4 19  1  0  0  0  0
  5  2  1  6  0  0  0
  5 17  1  0  0  0  0
  6  8  1  6  0  0  0
  6 17  1  0  0  0  0
  7 16  1  0  0  0  0
  7 18  2  0  0  0  0
  9  7  1  1  0  0  0
 10  6  1  0  0  0  0
 11 12  1  6  0  0  0
 11 17  1  0  0  0  0
 11 32  1  0  0  0  0
 14 21  1  6  0  0  0
 14  5  1  0  0  0  0
 14  9  1  0  0  0  0
 15 26  1  1  0  0  0
 15  9  1  0  0  0  0
 16  4  1  0  0  0  0
 17 13  1  1  0  0  0
 18  3  1  0  0  0  0
 19 25  1  1  0  0  0
 20 21  1  0  0  0  0
 20 15  1  0  0  0  0
 22  1  1  6  0  0  0
 22 10  1  0  0  0  0
 22 11  1  0  0  0  0
 24 25  1  0  0  0  0
 25 23  2  0  0  0  0
 27 28  1  6  0  0  0
 27 26  1  0  0  0  0
 27 31  1  0  0  0  0
 31 30  2  0  0  0  0
 31 29  1  0  0  0  0
 32 33  1  0  0  0  0
 33 34  1  0  0  0  0
 34 35  1  0  0  0  0
 35 36  1  6  0  0  0
 35 37  1  0  0  0  0
 37 45  1  1  0  0  0
 37 43  1  0  0  0  0
 38 40  1  0  0  0  0
 39 43  2  0  0  0  0
 39 41  1  0  0  0  0
 41 38  2  0  0  0  0
 42 40  2  0  0  0  0
 43 42  1  0  0  0  0
 45 44  1  0  0  0  0
M  END
>  <MODEL>
3

>  <REMARK>
 VINA RESULT:      -6.6      2.313      5.678
  Name = 
  11 active torsions:
  status: ('A' for Active; 'I' for Inactive)
    1  A    between atoms: C_4  and  C_5
    2  A    between atoms: C_4  and  N_40
    3  A    between atoms: C_5  and  C_31
    4  A    between atoms: C_5  and  C_45
    5  A    between atoms: C_7  and  C_15
    6  A    between atoms: C_7  and  C_29
    7  A    between atoms: C_15  and  C_44
    8  A    between atoms: C_19  and  C_24
    9  A    between atoms: C_19  and  C_34
   10  A    between atoms: C_34  and  N_40
   11  A    between atoms: C_37  and  C_38
                            x       y       z     vdW  Elec       q    Type
                         _______ _______ _______ _____ _____    ______ ____

>  <TORSDO>
F 11

$$$$
=
 OpenBabel11032420403D

 45 50  0  0  1  0  0  0  0  0999 V2000
  187.5530  178.0490  139.4150 C   0  0  0  0  0  2  0  0  0  0  0  0
  186.8970  177.1720  138.3150 C   0  0  0  0  0  2  0  0  0  0  0  0
  190.2500  172.8260  135.0680 C   0  0  0  0  0  2  0  0  0  0  0  0
  190.3840  174.6050  136.9350 C   0  0  1  0  0  3  0  0  0  0  0  0
  187.8540  176.4670  137.2960 C   0  0  1  0  0  3  0  0  0  0  0  0
  189.4310  178.4250  136.7430 C   0  0  1  0  0  3  0  0  0  0  0  0
  188.3450  173.9850  135.8480 C   0  0  0  0  0  0  0  0  0  0  0  0
  188.6170  178.6490  135.6290 O   0  0  0  0  0  1  0  0  0  0  0  0
  187.1200  174.8040  135.6260 C   0  0  2  0  0  3  0  0  0  0  0  0
  189.0470  179.3380  137.9040 C   0  0  0  0  0  2  0  0  0  0  0  0
  189.8090  177.1800  138.7490 C   0  0  1  0  0  0  0  0  0  0  0  0
  189.4790  176.0730  139.5530 O   0  0  0  0  0  1  0  0  0  0  0  0
  190.3120  176.0770  136.4780 C   0  0  0  0  0  2  0  0  0  0  0  0
  187.2880  176.2360  135.9240 N   0  0  1  0  0  0  0  0  0  0  0  0
  185.8540  174.3390  136.3010 C   0  0  1  0  0  3  0  0  0  0  0  0
  189.0570  174.1000  137.0390 O   0  0  0  0  0  0  0  0  0  0  0  0
  189.3460  176.9840  137.2880 C   0  0  1  0  0  0  0  0  0  0  0  0
  188.9210  173.3940  134.8530 N   0  0  0  0  0  0  0  0  0  0  0  0
  191.1530  173.8150  135.8490 C   0  0  1  0  0  3  0  0  0  0  0  0
  184.9730  175.5700  136.2240 C   0  0  0  0  0  2  0  0  0  0  0  0
  185.9080  176.7230  135.8110 C   0  0  0  0  0  2  0  0  0  0  0  0
  189.0100  178.4320  139.1400 C   0  0  2  0  0  3  0  0  0  0  0  0
  192.6860  171.9710  135.9940 O   0  0  0  0  0  0  0  0  0  0  0  0
  193.1920  173.8110  137.3240 N   0  0  0  0  0  1  0  0  0  0  0  0
  192.3610  173.1250  136.3930 C   0  0  0  0  0  0  0  0  0  0  0  0
  185.2240  173.2010  135.5190 C   0  0  0  0  0  2  0  0  0  0  0  0
  184.6080  172.1680  136.4580 C   0  0  1  0  0  3  0  0  0  0  0  0
  184.8090  172.5290  137.7940 O   0  0  0  0  0  1  0  0  0  0  0  0
  182.5890  172.6470  135.0170 N   0  0  0  0  0  2  0  0  0  0  0  0
  182.3380  171.6110  137.1110 N   0  0  0  0  0  1  0  0  0  0  0  0
  183.1360  172.0300  136.1790 C   0  0  0  0  0  0  0  0  0  0  0  0
  191.3210  177.4490  138.8730 C   0  0  0  0  0  2  0  0  0  0  0  0
  191.9350  176.6910  140.0530 C   0  0  0  0  0  2  0  0  0  0  0  0
  191.9880  177.5380  141.2370 N   0  0  0  0  0  2  0  0  0  0  0  0
  191.0110  177.0870  142.2370 C   0  0  1  0  0  3  0  0  0  0  0  0
  191.5780  176.0990  143.0580 O   0  0  0  0  0  1  0  0  0  0  0  0
  190.4470  178.2640  143.0690 C   0  0  1  0  0  3  0  0  0  0  0  0
  186.7330  177.2340  144.9850 C   0  0  0  0  0  3  0  0  0  0  0  0
  189.0680  177.8760  145.1170 C   0  0  0  0  0  3  0  0  0  0  0  0
  186.8010  177.2790  143.5890 C   0  0  0  0  0  3  0  0  0  0  0  0
  187.8670  177.5320  145.7490 C   0  0  0  0  0  3  0  0  0  0  0  0
  188.0010  177.6240  142.9560 C   0  0  0  0  0  3  0  0  0  0  0  0
  189.1400  177.9310  143.7200 C   0  0  0  0  0  0  0  0  0  0  0  0
  191.3210  180.1770  144.2520 O   0  0  0  0  0  1  0  0  0  0  0  0
  191.4550  178.7940  144.0940 C   0  0  0  0  0  2  0  0  0  0  0  0
  2  1  1  0  0  0  0
  3 19  1  0  0  0  0
  4 13  1  6  0  0  0
  4 16  1  0  0  0  0
  5  2  1  6  0  0  0
  6  8  1  6  0  0  0
  6 17  1  0  0  0  0
  6 10  1  0  0  0  0
  7 16  1  0  0  0  0
  9  7  1  1  0  0  0
  9 14  1  0  0  0  0
  9 15  1  0  0  0  0
 11 32  1  0  0  0  0
 11 22  1  0  0  0  0
 11 12  1  1  0  0  0
 14 21  1  1  0  0  0
 14  5  1  0  0  0  0
 15 26  1  6  0  0  0
 17 13  1  6  0  0  0
 17  5  1  0  0  0  0
 17 11  1  0  0  0  0
 18  3  1  0  0  0  0
 18  7  2  0  0  0  0
 19 25  1  1  0  0  0
 19  4  1  0  0  0  0
 20 15  1  0  0  0  0
 21 20  1  0  0  0  0
 22 10  1  6  0  0  0
 22  1  1  0  0  0  0
 23 25  2  0  0  0  0
 25 24  1  0  0  0  0
 26 27  1  0  0  0  0
 27 28  1  1  0  0  0
 29 31  2  0  0  0  0
 31 27  1  0  0  0  0
 31 30  1  0  0  0  0
 32 33  1  0  0  0  0
 33 34  1  0  0  0  0
 34 35  1  0  0  0  0
 35 36  1  1  0  0  0
 35 37  1  0  0  0  0
 37 43  1  0  0  0  0
 37 45  1  1  0  0  0
 38 41  1  0  0  0  0
 39 41  2  0  0  0  0
 40 38  2  0  0  0  0
 42 40  1  0  0  0  0
 42 43  2  0  0  0  0
 43 39  1  0  0  0  0
 45 44  1  0  0  0  0
M  END
>  <MODEL>
4

>  <REMARK>
 VINA RESULT:      -6.6      4.062      5.962
  Name = 
  11 active torsions:
  status: ('A' for Active; 'I' for Inactive)
    1  A    between atoms: C_4  and  C_5
    2  A    between atoms: C_4  and  N_40
    3  A    between atoms: C_5  and  C_31
    4  A    between atoms: C_5  and  C_45
    5  A    between atoms: C_7  and  C_15
    6  A    between atoms: C_7  and  C_29
    7  A    between atoms: C_15  and  C_44
    8  A    between atoms: C_19  and  C_24
    9  A    between atoms: C_19  and  C_34
   10  A    between atoms: C_34  and  N_40
   11  A    between atoms: C_37  and  C_38
                            x       y       z     vdW  Elec       q    Type
                         _______ _______ _______ _____ _____    ______ ____

>  <TORSDO>
F 11

$$$$
=
 OpenBabel11032420403D

 45 50  0  0  1  0  0  0  0  0999 V2000
  187.4520  177.5030  139.9220 C   0  0  0  0  0  2  0  0  0  0  0  0
  187.3470  176.7480  138.5700 C   0  0  0  0  0  2  0  0  0  0  0  0
  192.4110  173.9020  135.9340 C   0  0  0  0  0  2  0  0  0  0  0  0
  191.6010  175.2640  137.9730 C   0  0  1  0  0  3  0  0  0  0  0  0
  188.6830  176.4670  137.8010 C   0  0  1  0  0  3  0  0  0  0  0  0
  189.8060  178.7730  138.0110 C   0  0  1  0  0  3  0  0  0  0  0  0
  190.1400  174.4740  136.2520 C   0  0  0  0  0  0  0  0  0  0  0  0
  189.2820  179.0450  136.7450 O   0  0  0  0  0  1  0  0  0  0  0  0
  188.8510  175.0560  135.7830 C   0  0  2  0  0  3  0  0  0  0  0  0
  188.9160  179.3410  139.1140 C   0  0  0  0  0  2  0  0  0  0  0  0
  189.9460  177.2570  139.8550 C   0  0  1  0  0  0  0  0  0  0  0  0
  189.7060  175.9690  140.3690 O   0  0  0  0  0  1  0  0  0  0  0  0
  191.2850  176.7530  137.7150 C   0  0  0  0  0  2  0  0  0  0  0  0
  188.5710  176.4040  136.3050 N   0  0  1  0  0  0  0  0  0  0  0  0
  187.6110  174.2200  135.9790 C   0  0  1  0  0  3  0  0  0  0  0  0
  190.4640  174.4910  137.6060 O   0  0  0  0  0  0  0  0  0  0  0  0
  189.9460  177.2660  138.3100 C   0  0  1  0  0  0  0  0  0  0  0  0
  191.0850  174.2210  135.4070 N   0  0  0  0  0  0  0  0  0  0  0  0
  192.8000  174.8790  137.0740 C   0  0  1  0  0  3  0  0  0  0  0  0
  186.5010  175.2380  135.8050 C   0  0  0  0  0  2  0  0  0  0  0  0
  187.1910  176.6150  135.8480 C   0  0  0  0  0  2  0  0  0  0  0  0
  188.7850  178.2190  140.1510 C   0  0  2  0  0  3  0  0  0  0  0  0
  194.2960  173.1370  137.7840 O   0  0  0  0  0  0  0  0  0  0  0  0
  194.7270  175.2540  138.6480 N   0  0  0  0  0  1  0  0  0  0  0  0
  193.9570  174.3520  137.8590 C   0  0  0  0  0  0  0  0  0  0  0  0
  187.5130  173.1560  134.9000 C   0  0  0  0  0  2  0  0  0  0  0  0
  187.6190  171.7580  135.5000 C   0  0  1  0  0  3  0  0  0  0  0  0
  187.9150  171.8240  136.8650 O   0  0  0  0  0  1  0  0  0  0  0  0
  186.3840  169.6310  134.9290 N   0  0  0  0  0  2  0  0  0  0  0  0
  185.2180  171.6570  135.1580 N   0  0  0  0  0  1  0  0  0  0  0  0
  186.3320  171.0080  135.2900 C   0  0  0  0  0  0  0  0  0  0  0  0
  191.2560  177.7960  140.4620 C   0  0  0  0  0  2  0  0  0  0  0  0
  191.1110  178.0830  141.9580 C   0  0  0  0  0  2  0  0  0  0  0  0
  191.9260  177.1630  142.7410 N   0  0  0  0  0  2  0  0  0  0  0  0
  191.0750  176.3110  143.5830 C   0  0  1  0  0  3  0  0  0  0  0  0
  191.7600  175.1370  143.9330 O   0  0  0  0  0  1  0  0  0  0  0  0
  190.5580  177.0640  144.8330 C   0  0  1  0  0  3  0  0  0  0  0  0
  186.3000  177.6850  144.6910 C   0  0  0  0  0  3  0  0  0  0  0  0
  188.3590  176.9270  143.6540 C   0  0  0  0  0  3  0  0  0  0  0  0
  187.0110  178.0280  145.8450 C   0  0  0  0  0  3  0  0  0  0  0  0
  186.9750  177.1340  143.5950 C   0  0  0  0  0  3  0  0  0  0  0  0
  188.3940  177.8200  145.9060 C   0  0  0  0  0  3  0  0  0  0  0  0
  189.0730  177.2600  144.8110 C   0  0  0  0  0  0  0  0  0  0  0  0
  192.0560  177.1270  146.7240 O   0  0  0  0  0  1  0  0  0  0  0  0
  191.0080  176.4070  146.1410 C   0  0  0  0  0  2  0  0  0  0  0  0
  1 22  1  0  0  0  0
  2  1  1  0  0  0  0
  3 19  1  0  0  0  0
  4 13  1  6  0  0  0
  5 17  1  0  0  0  0
  5  2  1  1  0  0  0
  6  8  1  6  0  0  0
  6 17  1  0  0  0  0
  6 10  1  0  0  0  0
  7 16  1  0  0  0  0
  9 15  1  0  0  0  0
  9  7  1  1  0  0  0
  9 14  1  0  0  0  0
 11 22  1  0  0  0  0
 11 12  1  1  0  0  0
 11 32  1  0  0  0  0
 14 21  1  1  0  0  0
 14  5  1  0  0  0  0
 15 26  1  6  0  0  0
 16  4  1  0  0  0  0
 17 13  1  6  0  0  0
 17 11  1  0  0  0  0
 18  3  1  0  0  0  0
 18  7  2  0  0  0  0
 19 25  1  1  0  0  0
 19  4  1  0  0  0  0
 20 21  1  0  0  0  0
 20 15  1  0  0  0  0
 22 10  1  6  0  0  0
 23 25  2  0  0  0  0
 25 24  1  0  0  0  0
 26 27  1  0  0  0  0
 27 28  1  1  0  0  0
 29 31  2  0  0  0  0
 30 31  1  0  0  0  0
 31 27  1  0  0  0  0
 32 33  1  0  0  0  0
 33 34  1  0  0  0  0
 34 35  1  0  0  0  0
 35 36  1  1  0  0  0
 35 37  1  0  0  0  0
 37 45  1  1  0  0  0
 38 40  1  0  0  0  0
 39 43  2  0  0  0  0
 40 42  2  0  0  0  0
 41 39  1  0  0  0  0
 41 38  2  0  0  0  0
 43 37  1  0  0  0  0
 43 42  1  0  0  0  0
 45 44  1  0  0  0  0
M  END
>  <MODEL>
5

>  <REMARK>
 VINA RESULT:      -6.5      4.854      6.501
  Name = 
  11 active torsions:
  status: ('A' for Active; 'I' for Inactive)
    1  A    between atoms: C_4  and  C_5
    2  A    between atoms: C_4  and  N_40
    3  A    between atoms: C_5  and  C_31
    4  A    between atoms: C_5  and  C_45
    5  A    between atoms: C_7  and  C_15
    6  A    between atoms: C_7  and  C_29
    7  A    between atoms: C_15  and  C_44
    8  A    between atoms: C_19  and  C_24
    9  A    between atoms: C_19  and  C_34
   10  A    between atoms: C_34  and  N_40
   11  A    between atoms: C_37  and  C_38
                            x       y       z     vdW  Elec       q    Type
                         _______ _______ _______ _____ _____    ______ ____

>  <TORSDO>
F 11

$$$$
=
 OpenBabel11032420403D

 45 50  0  0  1  0  0  0  0  0999 V2000
  180.4520  176.7980  139.7530 C   0  0  0  0  0  2  0  0  0  0  0  0
  180.4540  175.9730  138.4380 C   0  0  0  0  0  2  0  0  0  0  0  0
  185.7730  175.1630  135.0120 C   0  0  0  0  0  2  0  0  0  0  0  0
  184.8050  176.2340  137.1530 C   0  0  1  0  0  3  0  0  0  0  0  0
  181.6590  176.1860  137.4610 C   0  0  1  0  0  3  0  0  0  0  0  0
  181.7930  178.7550  137.4780 C   0  0  1  0  0  3  0  0  0  0  0  0
  183.5370  174.8210  135.6990 C   0  0  0  0  0  0  0  0  0  0  0  0
  181.0200  178.7150  136.3140 O   0  0  0  0  0  1  0  0  0  0  0  0
  182.0680  174.8200  135.4460 C   0  0  2  0  0  3  0  0  0  0  0  0
  180.9270  179.0030  138.7100 C   0  0  0  0  0  2  0  0  0  0  0  0
  182.7980  177.5440  139.2770 C   0  0  1  0  0  0  0  0  0  0  0  0
  183.1690  176.3020  139.8270 O   0  0  0  0  0  1  0  0  0  0  0  0
  183.8900  177.4600  136.9480 C   0  0  0  0  0  2  0  0  0  0  0  0
  181.3590  175.9830  136.0040 N   0  0  1  0  0  0  0  0  0  0  0  0
  181.3070  173.5810  135.8450 C   0  0  1  0  0  3  0  0  0  0  0  0
  184.0270  175.0550  136.9800 O   0  0  0  0  0  0  0  0  0  0  0  0
  182.5620  177.4470  137.7530 C   0  0  1  0  0  0  0  0  0  0  0  0
  184.3670  174.9020  134.7100 N   0  0  0  0  0  0  0  0  0  0  0  0
  185.9090  176.2880  136.0710 C   0  0  1  0  0  3  0  0  0  0  0  0
  179.8720  174.0700  135.8540 C   0  0  0  0  0  2  0  0  0  0  0  0
  179.9570  175.6060  135.7800 C   0  0  0  0  0  2  0  0  0  0  0  0
  181.4100  177.9920  139.7570 C   0  0  2  0  0  3  0  0  0  0  0  0
  187.4770  176.6890  137.8460 O   0  0  0  0  0  0  0  0  0  0  0  0
  188.3760  175.8320  135.8790 N   0  0  0  0  0  1  0  0  0  0  0  0
  187.2840  176.3110  136.6560 C   0  0  0  0  0  0  0  0  0  0  0  0
  181.4780  172.4940  134.8000 C   0  0  0  0  0  2  0  0  0  0  0  0
  181.6230  171.1240  135.4560 C   0  0  1  0  0  3  0  0  0  0  0  0
  180.8740  170.1630  134.7700 O   0  0  0  0  0  1  0  0  0  0  0  0
  183.5050  169.6280  134.6800 N   0  0  0  0  0  2  0  0  0  0  0  0
  183.8450  171.1530  136.4340 N   0  0  0  0  0  1  0  0  0  0  0  0
  183.0720  170.7180  135.4880 C   0  0  0  0  0  0  0  0  0  0  0  0
  183.8620  178.5910  139.6590 C   0  0  0  0  0  2  0  0  0  0  0  0
  183.7170  179.0390  141.1160 C   0  0  0  0  0  2  0  0  0  0  0  0
  184.2180  178.0140  142.0220 N   0  0  0  0  0  2  0  0  0  0  0  0
  185.3080  178.5470  142.8500 C   0  0  1  0  0  3  0  0  0  0  0  0
  185.3100  179.9500  142.8060 O   0  0  0  0  0  1  0  0  0  0  0  0
  185.2400  178.0230  144.3050 C   0  0  1  0  0  3  0  0  0  0  0  0
  189.1370  177.3150  145.9900 C   0  0  0  0  0  3  0  0  0  0  0  0
  187.6330  177.3380  144.0870 C   0  0  0  0  0  3  0  0  0  0  0  0
  188.1030  177.7770  146.8100 C   0  0  0  0  0  3  0  0  0  0  0  0
  188.9020  177.0960  144.6280 C   0  0  0  0  0  3  0  0  0  0  0  0
  186.8350  178.0210  146.2710 C   0  0  0  0  0  3  0  0  0  0  0  0
  186.5970  177.8090  144.9020 C   0  0  0  0  0  0  0  0  0  0  0  0
  183.3140  179.4650  144.4860 O   0  0  0  0  0  1  0  0  0  0  0  0
  184.3730  178.9060  145.2070 C   0  0  0  0  0  2  0  0  0  0  0  0
  1 22  1  0  0  0  0
  2  1  1  0  0  0  0
  3 19  1  0  0  0  0
  4 13  1  6  0  0  0
  5 17  1  0  0  0  0
  5  2  1  1  0  0  0
  6  8  1  6  0  0  0
  6 17  1  0  0  0  0
  6 10  1  0  0  0  0
  7 16  1  0  0  0  0
  9  7  1  1  0  0  0
  9 15  1  0  0  0  0
  9 14  1  0  0  0  0
 11 32  1  0  0  0  0
 11 22  1  0  0  0  0
 11 12  1  1  0  0  0
 14 21  1  1  0  0  0
 14  5  1  0  0  0  0
 15 26  1  6  0  0  0
 15 20  1  0  0  0  0
 16  4  1  0  0  0  0
 17 13  1  6  0  0  0
 17 11  1  0  0  0  0
 18  3  1  0  0  0  0
 18  7  2  0  0  0  0
 19 25  1  1  0  0  0
 19  4  1  0  0  0  0
 21 20  1  0  0  0  0
 22 10  1  6  0  0  0
 24 25  1  0  0  0  0
 25 23  2  0  0  0  0
 26 27  1  0  0  0  0
 27 28  1  6  0  0  0
 27 31  1  0  0  0  0
 29 31  2  0  0  0  0
 31 30  1  0  0  0  0
 32 33  1  0  0  0  0
 33 34  1  0  0  0  0
 34 35  1  0  0  0  0
 35 36  1  1  0  0  0
 35 37  1  0  0  0  0
 37 43  1  0  0  0  0
 37 45  1  1  0  0  0
 38 40  1  0  0  0  0
 39 41  1  0  0  0  0
 39 43  2  0  0  0  0
 41 38  2  0  0  0  0
 42 40  2  0  0  0  0
 43 42  1  0  0  0  0
 44 45  1  0  0  0  0
M  END
>  <MODEL>
6

>  <REMARK>
 VINA RESULT:      -6.1      1.694      1.979
  Name = 
  11 active torsions:
  status: ('A' for Active; 'I' for Inactive)
    1  A    between atoms: C_4  and  C_5
    2  A    between atoms: C_4  and  N_40
    3  A    between atoms: C_5  and  C_31
    4  A    between atoms: C_5  and  C_45
    5  A    between atoms: C_7  and  C_15
    6  A    between atoms: C_7  and  C_29
    7  A    between atoms: C_15  and  C_44
    8  A    between atoms: C_19  and  C_24
    9  A    between atoms: C_19  and  C_34
   10  A    between atoms: C_34  and  N_40
   11  A    between atoms: C_37  and  C_38
                            x       y       z     vdW  Elec       q    Type
                         _______ _______ _______ _____ _____    ______ ____

>  <TORSDO>
F 11

$$$$
=
 OpenBabel11032420403D

 45 50  0  0  1  0  0  0  0  0999 V2000
  188.2500  175.6510  136.6080 C   0  0  0  0  0  2  0  0  0  0  0  0
  188.5450  176.4230  137.9230 C   0  0  0  0  0  2  0  0  0  0  0  0
  183.9140  179.3590  141.1810 C   0  0  0  0  0  2  0  0  0  0  0  0
  184.4180  177.9220  139.0960 C   0  0  1  0  0  3  0  0  0  0  0  0
  187.4680  177.4510  138.4060 C   0  0  1  0  0  3  0  0  0  0  0  0
  186.9730  178.6510  136.1840 C   0  0  1  0  0  3  0  0  0  0  0  0
  186.0590  178.4690  140.7470 C   0  0  0  0  0  0  0  0  0  0  0  0
  187.8960  179.6140  136.6010 O   0  0  0  0  0  1  0  0  0  0  0  0
  187.5340  178.6080  140.5860 C   0  0  2  0  0  3  0  0  0  0  0  0
  187.6170  177.6330  135.2480 C   0  0  0  0  0  2  0  0  0  0  0  0
  185.9100  176.5530  136.6150 C   0  0  1  0  0  0  0  0  0  0  0  0
  185.6460  175.5060  137.5180 O   0  0  0  0  0  1  0  0  0  0  0  0
  185.1720  178.6270  137.9480 C   0  0  0  0  0  2  0  0  0  0  0  0
  187.9900  178.6230  139.1860 N   0  0  1  0  0  0  0  0  0  0  0  0
  188.4000  177.6310  141.3420 C   0  0  1  0  0  3  0  0  0  0  0  0
  185.3700  177.4770  140.0550 O   0  0  0  0  0  0  0  0  0  0  0  0
  186.3640  177.8370  137.3450 C   0  0  1  0  0  0  0  0  0  0  0  0
  185.3710  179.4240  141.2810 N   0  0  0  0  0  0  0  0  0  0  0  0
  183.4770  178.9630  139.7460 C   0  0  1  0  0  3  0  0  0  0  0  0
  189.7380  177.7730  140.6420 C   0  0  0  0  0  2  0  0  0  0  0  0
  189.4490  178.5650  139.3520 C   0  0  0  0  0  2  0  0  0  0  0  0
  187.1430  176.2620  135.7460 C   0  0  2  0  0  3  0  0  0  0  0  0
  181.4350  178.2430  140.7880 O   0  0  0  0  0  0  0  0  0  0  0  0
  181.3470  178.5240  138.4800 N   0  0  0  0  0  1  0  0  0  0  0  0
  182.0450  178.5350  139.7210 C   0  0  0  0  0  0  0  0  0  0  0  0
  188.5290  178.0510  142.7950 C   0  0  0  0  0  2  0  0  0  0  0  0
  188.3180  176.8630  143.7270 C   0  0  1  0  0  3  0  0  0  0  0  0
  189.4140  175.9960  143.6830 O   0  0  0  0  0  1  0  0  0  0  0  0
  186.7700  177.5000  145.6180 N   0  0  0  0  0  2  0  0  0  0  0  0
  189.0820  177.8770  145.7970 N   0  0  0  0  0  1  0  0  0  0  0  0
  188.1010  177.3440  145.1360 C   0  0  0  0  0  0  0  0  0  0  0  0
  184.6680  176.7680  135.7290 C   0  0  0  0  0  2  0  0  0  0  0  0
  183.7680  175.5300  135.7060 C   0  0  0  0  0  2  0  0  0  0  0  0
  182.5500  175.7640  136.4710 N   0  0  0  0  0  2  0  0  0  0  0  0
  182.3330  174.6790  137.4380 C   0  0  1  0  0  3  0  0  0  0  0  0
  182.0240  175.2080  138.7000 O   0  0  0  0  0  1  0  0  0  0  0  0
  181.2480  173.6840  136.9560 C   0  0  1  0  0  3  0  0  0  0  0  0
  182.9780  169.9440  135.7080 C   0  0  0  0  0  3  0  0  0  0  0  0
  183.1500  172.0650  136.8740 C   0  0  0  0  0  3  0  0  0  0  0  0
  181.6560  170.2450  135.3630 C   0  0  0  0  0  3  0  0  0  0  0  0
  183.7250  170.8550  136.4650 C   0  0  0  0  0  3  0  0  0  0  0  0
  181.0810  171.4530  135.7720 C   0  0  0  0  0  3  0  0  0  0  0  0
  181.8260  172.3660  136.5380 C   0  0  0  0  0  0  0  0  0  0  0  0
  179.0520  174.3440  137.7060 O   0  0  0  0  0  1  0  0  0  0  0  0
  180.1280  173.4950  137.9830 C   0  0  0  0  0  2  0  0  0  0  0  0
  1  2  1  0  0  0  0
  3 18  1  0  0  0  0
  4 13  1  6  0  0  0
  4 19  1  0  0  0  0
  4 16  1  0  0  0  0
  5  2  1  6  0  0  0
  5 14  1  0  0  0  0
  6  8  1  1  0  0  0
  6 17  1  0  0  0  0
  7 18  2  0  0  0  0
  9  7  1  6  0  0  0
  9 15  1  0  0  0  0
 10  6  1  0  0  0  0
 11 17  1  0  0  0  0
 11 12  1  1  0  0  0
 14 21  1  1  0  0  0
 14  9  1  0  0  0  0
 15 26  1  1  0  0  0
 16  7  1  0  0  0  0
 17 13  1  1  0  0  0
 17  5  1  0  0  0  0
 19 25  1  1  0  0  0
 19  3  1  0  0  0  0
 20 15  1  0  0  0  0
 21 20  1  0  0  0  0
 22 10  1  1  0  0  0
 22  1  1  0  0  0  0
 22 11  1  0  0  0  0
 24 25  1  0  0  0  0
 25 23  2  0  0  0  0
 26 27  1  0  0  0  0
 27 28  1  1  0  0  0
 27 31  1  0  0  0  0
 31 29  2  0  0  0  0
 31 30  1  0  0  0  0
 32 11  1  0  0  0  0
 33 32  1  0  0  0  0
 33 34  1  0  0  0  0
 34 35  1  0  0  0  0
 35 36  1  1  0  0  0
 37 35  1  0  0  0  0
 37 45  1  1  0  0  0
 38 41  1  0  0  0  0
 40 38  2  0  0  0  0
 40 42  1  0  0  0  0
 41 39  2  0  0  0  0
 42 43  2  0  0  0  0
 43 39  1  0  0  0  0
 43 37  1  0  0  0  0
 44 45  1  0  0  0  0
M  END
>  <MODEL>
7

>  <REMARK>
 VINA RESULT:      -5.7      2.448      9.084
  Name = 
  11 active torsions:
  status: ('A' for Active; 'I' for Inactive)
    1  A    between atoms: C_4  and  C_5
    2  A    between atoms: C_4  and  N_40
    3  A    between atoms: C_5  and  C_31
    4  A    between atoms: C_5  and  C_45
    5  A    between atoms: C_7  and  C_15
    6  A    between atoms: C_7  and  C_29
    7  A    between atoms: C_15  and  C_44
    8  A    between atoms: C_19  and  C_24
    9  A    between atoms: C_19  and  C_34
   10  A    between atoms: C_34  and  N_40
   11  A    between atoms: C_37  and  C_38
                            x       y       z     vdW  Elec       q    Type
                         _______ _______ _______ _____ _____    ______ ____

>  <TORSDO>
F 11

$$$$
=
 OpenBabel11032420403D

 45 50  0  0  1  0  0  0  0  0999 V2000
  184.5560  177.1610  134.5940 C   0  0  0  0  0  2  0  0  0  0  0  0
  183.2570  177.8060  135.1480 C   0  0  0  0  0  2  0  0  0  0  0  0
  182.5530  179.0900  141.3560 C   0  0  0  0  0  2  0  0  0  0  0  0
  184.1750  178.1400  139.5860 C   0  0  1  0  0  3  0  0  0  0  0  0
  182.9980  177.6850  136.6870 C   0  0  1  0  0  3  0  0  0  0  0  0
  183.5590  175.1980  137.0360 C   0  0  1  0  0  3  0  0  0  0  0  0
  182.0650  179.1250  139.0440 C   0  0  0  0  0  0  0  0  0  0  0  0
  182.1870  174.9630  136.9140 O   0  0  0  0  0  1  0  0  0  0  0  0
  181.1750  178.8430  137.8820 C   0  0  2  0  0  3  0  0  0  0  0  0
  184.2830  174.9590  135.7140 C   0  0  0  0  0  2  0  0  0  0  0  0
  185.3530  176.7760  136.9400 C   0  0  1  0  0  0  0  0  0  0  0  0
  185.7660  178.1200  136.8850 O   0  0  0  0  0  1  0  0  0  0  0  0
  183.8100  176.7600  139.0000 C   0  0  0  0  0  2  0  0  0  0  0  0
  181.5560  177.6540  137.1040 N   0  0  1  0  0  0  0  0  0  0  0  0
  180.9400  179.9730  136.9110 C   0  0  1  0  0  3  0  0  0  0  0  0
  183.4470  179.1380  138.8800 O   0  0  0  0  0  0  0  0  0  0  0  0
  183.9030  176.6430  137.4540 C   0  0  1  0  0  0  0  0  0  0  0  0
  181.5990  179.0680  140.2480 N   0  0  0  0  0  0  0  0  0  0  0  0
  183.7480  178.1430  141.0730 C   0  0  1  0  0  3  0  0  0  0  0  0
  180.3850  179.2500  135.6990 C   0  0  0  0  0  2  0  0  0  0  0  0
  180.6500  177.7540  135.9520 C   0  0  0  0  0  2  0  0  0  0  0  0
  185.2220  176.1580  135.5390 C   0  0  2  0  0  3  0  0  0  0  0  0
  185.1700  177.6430  142.9440 O   0  0  0  0  0  0  0  0  0  0  0  0
  185.7070  179.5680  141.7530 N   0  0  0  0  0  1  0  0  0  0  0  0
  184.8880  178.4290  141.9950 C   0  0  0  0  0  0  0  0  0  0  0  0
  179.9040  180.9370  137.4590 C   0  0  0  0  0  2  0  0  0  0  0  0
  180.5610  182.2200  137.9580 C   0  0  1  0  0  3  0  0  0  0  0  0
  181.9500  182.0700  138.0330 O   0  0  0  0  0  1  0  0  0  0  0  0
  179.0720  183.2620  136.2040 N   0  0  0  0  0  2  0  0  0  0  0  0
  181.0930  184.2940  136.8130 N   0  0  0  0  0  1  0  0  0  0  0  0
  180.2180  183.3650  137.0440 C   0  0  0  0  0  0  0  0  0  0  0  0
  186.3690  175.9810  137.7830 C   0  0  0  0  0  2  0  0  0  0  0  0
  187.4620  175.3560  136.9120 C   0  0  0  0  0  2  0  0  0  0  0  0
  188.7100  176.0960  137.0440 N   0  0  0  0  0  2  0  0  0  0  0  0
  189.2000  176.0370  138.4280 C   0  0  1  0  0  3  0  0  0  0  0  0
  190.4960  175.5000  138.4620 O   0  0  0  0  0  1  0  0  0  0  0  0
  189.1370  177.4190  139.1240 C   0  0  1  0  0  3  0  0  0  0  0  0
  190.2970  177.3160  143.2680 C   0  0  0  0  0  3  0  0  0  0  0  0
  188.5890  177.1840  141.5510 C   0  0  0  0  0  3  0  0  0  0  0  0
  191.2710  177.4980  142.2820 C   0  0  0  0  0  3  0  0  0  0  0  0
  188.9550  177.1590  142.9020 C   0  0  0  0  0  3  0  0  0  0  0  0
  190.9070  177.5230  140.9310 C   0  0  0  0  0  3  0  0  0  0  0  0
  189.5610  177.3570  140.5590 C   0  0  0  0  0  0  0  0  0  0  0  0
  189.0740  179.5420  137.9810 O   0  0  0  0  0  1  0  0  0  0  0  0
  189.9170  178.4950  138.3640 C   0  0  0  0  0  2  0  0  0  0  0  0
  1  2  1  0  0  0  0
  4 13  1  6  0  0  0
  4 19  1  0  0  0  0
  5  2  1  6  0  0  0
  5 14  1  0  0  0  0
  5 17  1  0  0  0  0
  6  8  1  6  0  0  0
  6 17  1  0  0  0  0
  7 18  2  0  0  0  0
  9  7  1  1  0  0  0
 10  6  1  0  0  0  0
 11 12  1  6  0  0  0
 11 17  1  0  0  0  0
 11 32  1  0  0  0  0
 14 21  1  6  0  0  0
 14  9  1  0  0  0  0
 15 26  1  1  0  0  0
 15  9  1  0  0  0  0
 16  7  1  0  0  0  0
 16  4  1  0  0  0  0
 17 13  1  1  0  0  0
 18  3  1  0  0  0  0
 19  3  1  0  0  0  0
 19 25  1  1  0  0  0
 20 21  1  0  0  0  0
 20 15  1  0  0  0  0
 22  1  1  6  0  0  0
 22 10  1  0  0  0  0
 22 11  1  0  0  0  0
 24 25  1  0  0  0  0
 25 23  2  0  0  0  0
 26 27  1  0  0  0  0
 27 28  1  6  0  0  0
 29 31  2  0  0  0  0
 30 31  1  0  0  0  0
 31 27  1  0  0  0  0
 33 34  1  0  0  0  0
 33 32  1  0  0  0  0
 34 35  1  0  0  0  0
 35 36  1  6  0  0  0
 35 37  1  0  0  0  0
 37 45  1  6  0  0  0
 37 43  1  0  0  0  0
 39 41  2  0  0  0  0
 40 38  2  0  0  0  0
 41 38  1  0  0  0  0
 42 40  1  0  0  0  0
 43 42  2  0  0  0  0
 43 39  1  0  0  0  0
 44 45  1  0  0  0  0
M  END
>  <MODEL>
8

>  <REMARK>
 VINA RESULT:      -5.5      2.656      6.311
  Name = 
  11 active torsions:
  status: ('A' for Active; 'I' for Inactive)
    1  A    between atoms: C_4  and  C_5
    2  A    between atoms: C_4  and  N_40
    3  A    between atoms: C_5  and  C_31
    4  A    between atoms: C_5  and  C_45
    5  A    between atoms: C_7  and  C_15
    6  A    between atoms: C_7  and  C_29
    7  A    between atoms: C_15  and  C_44
    8  A    between atoms: C_19  and  C_24
    9  A    between atoms: C_19  and  C_34
   10  A    between atoms: C_34  and  N_40
   11  A    between atoms: C_37  and  C_38
                            x       y       z     vdW  Elec       q    Type
                         _______ _______ _______ _____ _____    ______ ____

>  <TORSDO>
F 11

$$$$
=
 OpenBabel11032420403D

 45 50  0  0  1  0  0  0  0  0999 V2000
  187.1930  174.7810  134.9290 C   0  0  0  0  0  2  0  0  0  0  0  0
  188.7100  174.7820  135.2580 C   0  0  0  0  0  2  0  0  0  0  0  0
  190.9740  177.4720  140.5790 C   0  0  0  0  0  2  0  0  0  0  0  0
  188.8240  176.9600  139.2450 C   0  0  1  0  0  3  0  0  0  0  0  0
  189.2120  175.8130  136.3240 C   0  0  1  0  0  3  0  0  0  0  0  0
  187.9740  177.9200  135.5180 C   0  0  1  0  0  3  0  0  0  0  0  0
  190.9900  176.1730  138.6060 C   0  0  0  0  0  0  0  0  0  0  0  0
  189.1510  178.2430  134.8370 O   0  0  0  0  0  1  0  0  0  0  0  0
  191.5030  175.8550  137.2430 C   0  0  2  0  0  3  0  0  0  0  0  0
  186.9700  177.2340  134.5950 C   0  0  0  0  0  2  0  0  0  0  0  0
  186.7860  176.3340  136.8560 C   0  0  1  0  0  0  0  0  0  0  0  0
  186.8160  175.1650  137.6390 O   0  0  0  0  0  1  0  0  0  0  0  0
  188.6140  177.7770  137.9520 C   0  0  0  0  0  2  0  0  0  0  0  0
  190.6220  176.2960  136.1490 N   0  0  1  0  0  0  0  0  0  0  0  0
  191.8880  174.4220  136.9740 C   0  0  1  0  0  3  0  0  0  0  0  0
  189.6780  175.8600  138.9500 O   0  0  0  0  0  0  0  0  0  0  0  0
  188.1910  176.9570  136.7030 C   0  0  1  0  0  0  0  0  0  0  0  0
  191.6380  176.9890  139.3700 N   0  0  0  0  0  0  0  0  0  0  0  0
  189.5110  177.8860  140.2760 C   0  0  1  0  0  3  0  0  0  0  0  0
  191.9410  174.3780  135.4590 C   0  0  0  0  0  2  0  0  0  0  0  0
  191.2720  175.6820  134.9840 C   0  0  0  0  0  2  0  0  0  0  0  0
  186.4410  176.0330  135.3890 C   0  0  2  0  0  3  0  0  0  0  0  0
  187.5450  178.4880  141.5200 O   0  0  0  0  0  0  0  0  0  0  0  0
  189.2790  177.5580  142.7610 N   0  0  0  0  0  1  0  0  0  0  0  0
  188.7200  178.0230  141.5370 C   0  0  0  0  0  0  0  0  0  0  0  0
  193.2610  174.1250  137.5500 C   0  0  0  0  0  2  0  0  0  0  0  0
  194.2690  175.1930  137.1370 C   0  0  1  0  0  3  0  0  0  0  0  0
  194.6190  175.9940  138.2280 O   0  0  0  0  0  1  0  0  0  0  0  0
  196.7380  175.2470  136.6090 N   0  0  0  0  0  1  0  0  0  0  0  0
  195.3840  173.5130  135.7850 N   0  0  0  0  0  2  0  0  0  0  0  0
  195.4990  174.5460  136.5600 C   0  0  0  0  0  0  0  0  0  0  0  0
  185.7560  177.3080  137.4590 C   0  0  0  0  0  2  0  0  0  0  0  0
  184.3210  176.8970  137.1190 C   0  0  0  0  0  2  0  0  0  0  0  0
  183.7030  176.2060  138.2440 N   0  0  0  0  0  2  0  0  0  0  0  0
  182.2880  175.9300  137.9640 C   0  0  1  0  0  3  0  0  0  0  0  0
  182.1720  174.9150  137.0020 O   0  0  0  0  0  1  0  0  0  0  0  0
  181.4990  175.5880  139.2510 C   0  0  1  0  0  3  0  0  0  0  0  0
  181.0770  178.9830  141.8640 C   0  0  0  0  0  3  0  0  0  0  0  0
  180.1760  176.9660  140.8620 C   0  0  0  0  0  3  0  0  0  0  0  0
  182.2780  178.7860  141.1750 C   0  0  0  0  0  3  0  0  0  0  0  0
  180.0260  178.0730  141.7070 C   0  0  0  0  0  3  0  0  0  0  0  0
  182.4300  177.6790  140.3320 C   0  0  0  0  0  3  0  0  0  0  0  0
  181.3790  176.7590  140.1780 C   0  0  0  0  0  0  0  0  0  0  0  0
  179.8650  173.9040  139.8110 O   0  0  0  0  0  1  0  0  0  0  0  0
  180.1260  174.9770  138.9540 C   0  0  0  0  0  2  0  0  0  0  0  0
  1  2  1  0  0  0  0
  1 22  1  0  0  0  0
  4 13  1  6  0  0  0
  4 19  1  0  0  0  0
  5  2  1  6  0  0  0
  5 17  1  0  0  0  0
  6  8  1  6  0  0  0
  6 17  1  0  0  0  0
  7 16  1  0  0  0  0
  7 18  2  0  0  0  0
  9  7  1  1  0  0  0
 10  6  1  0  0  0  0
 11 32  1  0  0  0  0
 11 12  1  1  0  0  0
 14 21  1  6  0  0  0
 14  5  1  0  0  0  0
 14  9  1  0  0  0  0
 15  9  1  0  0  0  0
 15 26  1  1  0  0  0
 16  4  1  0  0  0  0
 17 11  1  0  0  0  0
 17 13  1  1  0  0  0
 18  3  1  0  0  0  0
 19  3  1  0  0  0  0
 19 25  1  1  0  0  0
 20 15  1  0  0  0  0
 21 20  1  0  0  0  0
 22 10  1  6  0  0  0
 22 11  1  0  0  0  0
 23 25  2  0  0  0  0
 25 24  1  0  0  0  0
 27 26  1  0  0  0  0
 27 28  1  1  0  0  0
 30 31  2  0  0  0  0
 31 29  1  0  0  0  0
 31 27  1  0  0  0  0
 33 32  1  0  0  0  0
 33 34  1  0  0  0  0
 35 36  1  6  0  0  0
 35 34  1  0  0  0  0
 35 37  1  0  0  0  0
 37 45  1  6  0  0  0
 37 43  1  0  0  0  0
 39 41  2  0  0  0  0
 40 38  2  0  0  0  0
 41 38  1  0  0  0  0
 42 40  1  0  0  0  0
 43 42  2  0  0  0  0
 43 39  1  0  0  0  0
 45 44  1  0  0  0  0
M  END
>  <MODEL>
9

>  <REMARK>
 VINA RESULT:      -5.4      4.082      8.958
  Name = 
  11 active torsions:
  status: ('A' for Active; 'I' for Inactive)
    1  A    between atoms: C_4  and  C_5
    2  A    between atoms: C_4  and  N_40
    3  A    between atoms: C_5  and  C_31
    4  A    between atoms: C_5  and  C_45
    5  A    between atoms: C_7  and  C_15
    6  A    between atoms: C_7  and  C_29
    7  A    between atoms: C_15  and  C_44
    8  A    between atoms: C_19  and  C_24
    9  A    between atoms: C_19  and  C_34
   10  A    between atoms: C_34  and  N_40
   11  A    between atoms: C_37  and  C_38
                            x       y       z     vdW  Elec       q    Type
                         _______ _______ _______ _____ _____    ______ ____

>  <TORSDO>
F 11

$$$$
