=
 OpenBabel11032419393D

 49 54  0  0  1  0  0  0  0  0999 V2000
  182.4060  176.4290  136.7870 C   0  0  2  0  0  3  0  0  0  0  0  0
  184.8330  176.4420  137.0580 C   0  0  0  0  0  2  0  0  0  0  0  0
  184.3580  175.9420  135.7420 C   0  0  0  0  0  0  0  0  0  0  0  0
  185.2290  175.4830  134.7030 N   0  0  0  0  0  2  0  0  0  0  0  0
  183.0790  175.9440  135.5900 N   0  0  0  0  0  0  0  0  0  0  0  0
  183.5270  176.8040  137.7680 C   0  0  1  0  0  3  0  0  0  0  0  0
  181.6310  174.0790  137.0140 C   0  0  0  0  0  3  0  0  0  0  0  0
  181.5180  175.3620  137.3710 C   0  0  0  0  0  3  0  0  0  0  0  0
  180.7560  173.0290  137.6190 C   0  0  0  0  0  2  0  0  0  0  0  0
  180.3100  172.0990  136.5910 N   0  0  0  0  0  2  0  0  0  0  0  0
  181.2510  172.2130  135.4900 C   0  0  0  0  0  1  0  0  0  0  0  0
  186.6750  175.4170  134.8910 C   0  0  2  0  0  3  0  0  0  0  0  0
  186.5340  172.9950  135.4380 C   0  0  0  0  0  1  0  0  0  0  0  0
  187.0160  174.3560  135.9220 C   0  0  0  0  0  2  0  0  0  0  0  0
  187.1990  176.7180  135.3210 N   0  0  0  0  0  2  0  0  0  0  0  0
  188.5340  176.5380  135.7270 N   0  0  0  0  0  2  0  0  0  0  0  0
  189.1700  177.8490  135.7620 C   0  0  0  0  0  2  0  0  0  0  0  0
  188.0850  179.5550  137.0050 O   0  0  0  0  0  0  0  0  0  0  0  0
  188.8190  178.5310  137.0450 C   0  0  0  0  0  0  0  0  0  0  0  0
  190.5560  177.4540  138.4800 C   0  0  0  0  0  3  0  0  0  0  0  0
  190.1350  176.9570  140.8230 C   0  0  0  0  0  0  0  0  0  0  0  0
  190.9860  176.9420  139.7090 C   0  0  0  0  0  3  0  0  0  0  0  0
  189.2660  177.9920  138.3470 C   0  0  0  0  0  0  0  0  0  0  0  0
  188.8420  177.4900  140.6900 C   0  0  0  0  0  3  0  0  0  0  0  0
  188.4110  178.0050  139.4620 C   0  0  0  0  0  3  0  0  0  0  0  0
  190.5900  176.4350  142.0810 N   0  0  0  0  0  0  0  0  0  0  0  0
  189.8640  175.4900  142.7170 O   0  0  0  0  0  1  0  0  0  0  0  0
  191.7790  176.9710  142.7330 C   0  0  0  0  0  2  0  0  0  0  0  0
  191.6280  178.4430  144.7170 C   0  0  0  0  0  2  0  0  0  0  0  0
  190.2680  178.3850  144.0620 C   0  0  0  0  0  2  0  0  0  0  0  0
  191.5170  178.3900  143.2090 C   0  0  0  0  0  3  0  0  0  0  0  0
  183.4630  178.2860  138.1560 C   0  0  0  0  0  2  0  0  0  0  0  0
  184.8050  178.8420  138.6200 C   0  0  0  0  0  2  0  0  0  0  0  0
  184.5940  179.8560  139.5550 O   0  0  0  0  0  0  0  0  0  0  0  0
  184.2280  179.2090  140.7340 C   0  0  0  0  0  2  0  0  0  0  0  0
  185.3480  178.2770  141.1630 C   0  0  0  0  0  2  0  0  0  0  0  0
  185.9840  178.7710  142.4530 C   0  0  0  0  0  2  0  0  0  0  0  0
  183.6720  179.8380  144.3000 C   0  0  0  0  0  2  0  0  0  0  0  0
  185.4400  177.9780  143.6260 C   0  0  2  0  0  3  0  0  0  0  0  0
  184.8040  178.8920  144.6400 C   0  0  0  0  0  0  0  0  0  0  0  0
  186.8860  178.2520  145.6050 C   0  0  1  0  0  3  0  0  0  0  0  0
  186.5810  177.3430  144.4060 C   0  0  0  0  0  2  0  0  0  0  0  0
  185.6120  179.0330  145.9000 C   0  0  0  0  0  2  0  0  0  0  0  0
  183.3720  178.4940  144.9410 C   0  0  0  0  0  2  0  0  0  0  0  0
  187.4150  178.3270  148.0510 C   0  0  0  0  0  2  0  0  0  0  0  0
  189.4130  177.4220  147.7840 C   0  0  0  0  0  2  0  0  0  0  0  0
  188.6720  176.9330  146.6250 N   0  0  0  0  0  2  0  0  0  0  0  0
  188.7740  178.5630  148.2910 O   0  0  0  0  0  0  0  0  0  0  0  0
  187.3280  177.4420  146.8230 C   0  0  2  0  0  3  0  0  0  0  0  0
  1  8  1  1  0  0  0
  1  6  1  0  0  0  0
  2  6  1  0  0  0  0
  3  2  1  0  0  0  0
  4 12  1  0  0  0  0
  4  3  1  0  0  0  0
  5  3  2  0  0  0  0
  5  1  1  0  0  0  0
  6 32  1  6  0  0  0
  7  8  2  0  0  0  0
  7  9  1  0  0  0  0
 10  9  1  0  0  0  0
 11 10  1  0  0  0  0
 12 15  1  0  0  0  0
 12 14  1  1  0  0  0
 13 14  1  0  0  0  0
 15 16  1  0  0  0  0
 16 17  1  0  0  0  0
 17 19  1  0  0  0  0
 18 19  2  0  0  0  0
 19 23  1  0  0  0  0
 20 22  1  0  0  0  0
 21 26  1  0  0  0  0
 22 21  2  0  0  0  0
 23 20  2  0  0  0  0
 23 25  1  0  0  0  0
 24 21  1  0  0  0  0
 25 24  2  0  0  0  0
 26 27  1  0  0  0  0
 26 28  1  0  0  0  0
 28 31  1  0  0  0  0
 30 29  1  0  0  0  0
 31 30  1  0  0  0  0
 31 29  1  0  0  0  0
 32 33  1  0  0  0  0
 33 34  1  0  0  0  0
 34 35  1  0  0  0  0
 35 36  1  0  0  0  0
 36 37  1  0  0  0  0
 38 40  1  0  0  0  0
 38 44  1  0  0  0  0
 39 37  1  6  0  0  0
 39 42  1  0  0  0  0
 39 40  1  0  0  0  0
 40 44  1  0  0  0  0
 40 43  1  0  0  0  0
 41 42  1  6  0  0  0
 41 43  1  0  0  0  0
 41 49  1  0  0  0  0
 45 48  1  0  0  0  0
 46 48  1  0  0  0  0
 47 49  1  0  0  0  0
 47 46  1  0  0  0  0
 49 45  1  1  0  0  0
M  END
>  <MODEL>
1

>  <REMARK>
 VINA RESULT:      -7.2      0.000      0.000
  Name = 
  21 active torsions:
  status: ('A' for Active; 'I' for Inactive)
    1  A    between atoms: C_1  and  N_9
    2  A    between atoms: C_1  and  C_35
    3  A    between atoms: C_4  and  O_23
    4  A    between atoms: C_4  and  C_31
    5  A    between atoms: C_7  and  C_38
    6  A    between atoms: C_8  and  C_12
    7  A    between atoms: N_9  and  N_24
    8  A    between atoms: C_11  and  N_13
    9  A    between atoms: N_13  and  C_33
   10  A    between atoms: C_16  and  C_21
   11  A    between atoms: C_17  and  C_35
   12  A    between atoms: C_20  and  C_21
   13  A    between atoms: C_20  and  C_22
   14  A    between atoms: C_22  and  O_23
   15  A    between atoms: N_24  and  C_48
   16  A    between atoms: C_25  and  C_47
   17  A    between atoms: N_29  and  C_48
   18  A    between atoms: C_31  and  C_45
   19  A    between atoms: C_33  and  C_41
   20  A    between atoms: N_36  and  C_38
   21  A    between atoms: C_46  and  C_48
                            x       y       z     vdW  Elec       q    Type
                         _______ _______ _______ _____ _____    ______ ____

>  <TORSDO>
F 21

$$$$
=
 OpenBabel11032419393D

 49 54  0  0  1  0  0  0  0  0999 V2000
  188.6560  177.8220  136.1870 C   0  0  2  0  0  3  0  0  0  0  0  0
  187.3160  177.4190  138.1880 C   0  0  0  0  0  2  0  0  0  0  0  0
  188.4490  178.3610  138.3800 C   0  0  0  0  0  0  0  0  0  0  0  0
  188.7640  178.9860  139.6280 N   0  0  0  0  0  2  0  0  0  0  0  0
  189.1520  178.5860  137.3240 N   0  0  0  0  0  0  0  0  0  0  0  0
  187.4230  177.0660  136.7040 C   0  0  1  0  0  3  0  0  0  0  0  0
  190.7650  176.5290  136.4340 C   0  0  0  0  0  3  0  0  0  0  0  0
  189.7040  176.8600  135.6910 C   0  0  0  0  0  3  0  0  0  0  0  0
  191.7850  175.5570  135.9350 C   0  0  0  0  0  2  0  0  0  0  0  0
  192.9090  175.4960  136.8590 N   0  0  0  0  0  2  0  0  0  0  0  0
  192.6150  176.4290  137.9330 C   0  0  0  0  0  1  0  0  0  0  0  0
  188.0130  178.6870  140.8430 C   0  0  2  0  0  3  0  0  0  0  0  0
  189.8330  177.5400  142.0890 C   0  0  0  0  0  1  0  0  0  0  0  0
  188.4730  177.3640  141.4270 C   0  0  0  0  0  2  0  0  0  0  0  0
  186.5740  178.6330  140.5590 N   0  0  0  0  0  2  0  0  0  0  0  0
  185.9020  179.3270  141.5810 N   0  0  0  0  0  2  0  0  0  0  0  0
  184.8040  178.4870  142.0430 C   0  0  0  0  0  2  0  0  0  0  0  0
  183.3770  179.3680  143.7230 O   0  0  0  0  0  0  0  0  0  0  0  0
  184.4870  178.8300  143.4640 C   0  0  0  0  0  0  0  0  0  0  0  0
  186.4930  177.6180  144.3270 C   0  0  0  0  0  3  0  0  0  0  0  0
  187.2110  177.8410  146.6400 C   0  0  0  0  0  0  0  0  0  0  0  0
  187.3810  177.2950  145.3590 C   0  0  0  0  0  3  0  0  0  0  0  0
  185.4210  178.4940  144.5600 C   0  0  0  0  0  0  0  0  0  0  0  0
  186.1350  178.7130  146.8760 C   0  0  0  0  0  3  0  0  0  0  0  0
  185.2470  179.0380  145.8430 C   0  0  0  0  0  3  0  0  0  0  0  0
  188.1320  177.5080  147.6890 N   0  0  0  0  0  0  0  0  0  0  0  0
  188.0540  178.1440  148.8780 O   0  0  0  0  0  1  0  0  0  0  0  0
  189.2150  176.5570  147.4670 C   0  0  0  0  0  2  0  0  0  0  0  0
  191.1180  176.7850  145.9010 C   0  0  0  0  0  2  0  0  0  0  0  0
  191.6500  176.3050  147.2310 C   0  0  0  0  0  2  0  0  0  0  0  0
  190.5110  177.2990  147.1880 C   0  0  0  0  0  3  0  0  0  0  0  0
  186.1610  177.4460  135.9200 C   0  0  0  0  0  2  0  0  0  0  0  0
  184.8870  177.3460  136.7510 C   0  0  0  0  0  2  0  0  0  0  0  0
  183.8050  177.0560  135.9190 O   0  0  0  0  0  0  0  0  0  0  0  0
  182.6750  177.1400  136.7310 C   0  0  0  0  0  2  0  0  0  0  0  0
  181.4750  177.5210  135.8810 C   0  0  0  0  0  2  0  0  0  0  0  0
  180.5740  178.4850  136.6380 C   0  0  0  0  0  2  0  0  0  0  0  0
  181.8110  179.5010  139.3460 C   0  0  0  0  0  2  0  0  0  0  0  0
  181.2650  179.8290  136.7710 C   0  0  2  0  0  3  0  0  0  0  0  0
  181.2380  180.3050  138.2000 C   0  0  0  0  0  0  0  0  0  0  0  0
  179.6090  181.6300  137.0760 C   0  0  1  0  0  3  0  0  0  0  0  0
  180.4730  180.9020  136.0380 C   0  0  0  0  0  2  0  0  0  0  0  0
  180.2970  181.4560  138.4240 C   0  0  0  0  0  2  0  0  0  0  0  0
  182.6280  180.6160  138.7180 C   0  0  0  0  0  2  0  0  0  0  0  0
  180.1050  183.4240  135.4000 C   0  0  0  0  0  2  0  0  0  0  0  0
  181.0430  184.7510  136.8980 C   0  0  0  0  0  2  0  0  0  0  0  0
  180.1420  183.9320  137.7020 N   0  0  0  0  0  2  0  0  0  0  0  0
  181.3000  184.0970  135.6840 O   0  0  0  0  0  0  0  0  0  0  0  0
  179.4460  183.1100  136.7300 C   0  0  2  0  0  3  0  0  0  0  0  0
  1  8  1  1  0  0  0
  1  6  1  0  0  0  0
  1  5  1  0  0  0  0
  2  3  1  0  0  0  0
  3  4  1  0  0  0  0
  4 12  1  0  0  0  0
  5  3  2  0  0  0  0
  6 32  1  6  0  0  0
  6  2  1  0  0  0  0
  8  7  2  0  0  0  0
  9  7  1  0  0  0  0
  9 10  1  0  0  0  0
 10 11  1  0  0  0  0
 12 14  1  6  0  0  0
 14 13  1  0  0  0  0
 15 12  1  0  0  0  0
 15 16  1  0  0  0  0
 16 17  1  0  0  0  0
 17 19  1  0  0  0  0
 19 18  2  0  0  0  0
 19 23  1  0  0  0  0
 20 23  2  0  0  0  0
 20 22  1  0  0  0  0
 21 24  1  0  0  0  0
 21 26  1  0  0  0  0
 22 21  2  0  0  0  0
 23 25  1  0  0  0  0
 25 24  2  0  0  0  0
 26 27  1  0  0  0  0
 28 26  1  0  0  0  0
 29 31  1  0  0  0  0
 29 30  1  0  0  0  0
 31 30  1  0  0  0  0
 31 28  1  0  0  0  0
 32 33  1  0  0  0  0
 34 35  1  0  0  0  0
 34 33  1  0  0  0  0
 36 37  1  0  0  0  0
 36 35  1  0  0  0  0
 39 37  1  1  0  0  0
 39 40  1  0  0  0  0
 40 43  1  0  0  0  0
 40 44  1  0  0  0  0
 40 38  1  0  0  0  0
 41 42  1  6  0  0  0
 41 43  1  0  0  0  0
 42 39  1  0  0  0  0
 44 38  1  0  0  0  0
 45 48  1  0  0  0  0
 46 47  1  0  0  0  0
 48 46  1  0  0  0  0
 49 45  1  6  0  0  0
 49 41  1  0  0  0  0
 49 47  1  0  0  0  0
M  END
>  <MODEL>
2

>  <REMARK>
 VINA RESULT:      -7.1      3.407      8.480
  Name = 
  21 active torsions:
  status: ('A' for Active; 'I' for Inactive)
    1  A    between atoms: C_1  and  N_9
    2  A    between atoms: C_1  and  C_35
    3  A    between atoms: C_4  and  O_23
    4  A    between atoms: C_4  and  C_31
    5  A    between atoms: C_7  and  C_38
    6  A    between atoms: C_8  and  C_12
    7  A    between atoms: N_9  and  N_24
    8  A    between atoms: C_11  and  N_13
    9  A    between atoms: N_13  and  C_33
   10  A    between atoms: C_16  and  C_21
   11  A    between atoms: C_17  and  C_35
   12  A    between atoms: C_20  and  C_21
   13  A    between atoms: C_20  and  C_22
   14  A    between atoms: C_22  and  O_23
   15  A    between atoms: N_24  and  C_48
   16  A    between atoms: C_25  and  C_47
   17  A    between atoms: N_29  and  C_48
   18  A    between atoms: C_31  and  C_45
   19  A    between atoms: C_33  and  C_41
   20  A    between atoms: N_36  and  C_38
   21  A    between atoms: C_46  and  C_48
                            x       y       z     vdW  Elec       q    Type
                         _______ _______ _______ _____ _____    ______ ____

>  <TORSDO>
F 21

$$$$
=
 OpenBabel11032419393D

 49 54  0  0  1  0  0  0  0  0999 V2000
  188.1900  177.8570  136.0120 C   0  0  2  0  0  3  0  0  0  0  0  0
  187.1200  177.4500  138.1690 C   0  0  0  0  0  2  0  0  0  0  0  0
  188.2720  178.3870  138.2150 C   0  0  0  0  0  0  0  0  0  0  0  0
  188.7490  179.0050  139.4150 N   0  0  0  0  0  2  0  0  0  0  0  0
  188.8330  178.6140  137.0770 N   0  0  0  0  0  0  0  0  0  0  0  0
  187.0310  177.1030  136.6820 C   0  0  1  0  0  3  0  0  0  0  0  0
  189.3210  175.6490  135.8430 C   0  0  0  0  0  3  0  0  0  0  0  0
  189.1600  176.8930  135.3800 C   0  0  0  0  0  3  0  0  0  0  0  0
  190.2720  174.6990  135.1910 C   0  0  0  0  0  2  0  0  0  0  0  0
  190.5520  173.5830  136.0830 N   0  0  0  0  0  2  0  0  0  0  0  0
  191.8330  173.8620  136.7100 C   0  0  0  0  0  1  0  0  0  0  0  0
  188.1610  178.7030  140.7160 C   0  0  2  0  0  3  0  0  0  0  0  0
  189.9170  177.7190  142.1750 C   0  0  0  0  0  1  0  0  0  0  0  0
  188.7390  177.4110  141.2600 C   0  0  0  0  0  2  0  0  0  0  0  0
  186.7020  178.5920  140.6080 N   0  0  0  0  0  2  0  0  0  0  0  0
  186.1320  179.2230  141.7280 N   0  0  0  0  0  2  0  0  0  0  0  0
  184.9100  178.5060  142.0700 C   0  0  0  0  0  2  0  0  0  0  0  0
  183.4510  179.1870  143.8140 O   0  0  0  0  0  0  0  0  0  0  0  0
  184.5900  178.7400  143.5120 C   0  0  0  0  0  0  0  0  0  0  0  0
  186.6570  177.5760  144.2910 C   0  0  0  0  0  3  0  0  0  0  0  0
  187.4120  177.7420  146.5970 C   0  0  0  0  0  0  0  0  0  0  0  0
  187.5770  177.2510  145.2940 C   0  0  0  0  0  3  0  0  0  0  0  0
  185.5570  178.4010  144.5770 C   0  0  0  0  0  0  0  0  0  0  0  0
  186.3090  178.5620  146.8850 C   0  0  0  0  0  3  0  0  0  0  0  0
  185.3890  178.8910  145.8830 C   0  0  0  0  0  3  0  0  0  0  0  0
  188.3670  177.4060  147.6150 N   0  0  0  0  0  0  0  0  0  0  0  0
  188.3310  178.0450  148.8050 O   0  0  0  0  0  1  0  0  0  0  0  0
  189.4380  176.4500  147.3590 C   0  0  0  0  0  2  0  0  0  0  0  0
  191.2340  176.9440  145.7290 C   0  0  0  0  0  2  0  0  0  0  0  0
  191.8320  176.1610  146.8740 C   0  0  0  0  0  2  0  0  0  0  0  0
  190.7510  177.1840  147.1420 C   0  0  0  0  0  3  0  0  0  0  0  0
  185.6800  177.4920  136.0700 C   0  0  0  0  0  2  0  0  0  0  0  0
  184.4890  177.0150  136.8950 C   0  0  0  0  0  2  0  0  0  0  0  0
  183.3020  177.4090  136.2770 O   0  0  0  0  0  0  0  0  0  0  0  0
  182.2800  176.9850  137.1250 C   0  0  0  0  0  2  0  0  0  0  0  0
  180.9740  177.6330  136.6990 C   0  0  0  0  0  2  0  0  0  0  0  0
  181.1370  179.1420  136.6040 C   0  0  0  0  0  2  0  0  0  0  0  0
  181.0350  182.2480  137.0920 C   0  0  0  0  0  2  0  0  0  0  0  0
  179.9770  179.8240  137.3040 C   0  0  2  0  0  3  0  0  0  0  0  0
  180.4110  181.1350  137.9070 C   0  0  0  0  0  0  0  0  0  0  0  0
  180.2100  179.6420  139.7520 C   0  0  1  0  0  3  0  0  0  0  0  0
  179.5460  179.0160  138.5190 C   0  0  0  0  0  2  0  0  0  0  0  0
  180.4960  181.0980  139.4070 C   0  0  0  0  0  2  0  0  0  0  0  0
  179.5540  182.2900  137.4270 C   0  0  0  0  0  2  0  0  0  0  0  0
  179.2170  180.8730  141.6930 C   0  0  0  0  0  2  0  0  0  0  0  0
  179.9890  179.4290  143.1770 C   0  0  0  0  0  2  0  0  0  0  0  0
  179.9030  178.6340  141.9560 N   0  0  0  0  0  2  0  0  0  0  0  0
  180.0190  180.7900  142.8390 O   0  0  0  0  0  0  0  0  0  0  0  0
  179.3140  179.5360  140.9850 C   0  0  2  0  0  3  0  0  0  0  0  0
  1  8  1  1  0  0  0
  1  6  1  0  0  0  0
  1  5  1  0  0  0  0
  2  3  1  0  0  0  0
  3  4  1  0  0  0  0
  4 12  1  0  0  0  0
  5  3  2  0  0  0  0
  6 32  1  6  0  0  0
  6  2  1  0  0  0  0
  8  7  2  0  0  0  0
  9  7  1  0  0  0  0
  9 10  1  0  0  0  0
 10 11  1  0  0  0  0
 12 14  1  6  0  0  0
 14 13  1  0  0  0  0
 15 12  1  0  0  0  0
 15 16  1  0  0  0  0
 16 17  1  0  0  0  0
 17 19  1  0  0  0  0
 19 18  2  0  0  0  0
 19 23  1  0  0  0  0
 20 23  2  0  0  0  0
 20 22  1  0  0  0  0
 21 24  1  0  0  0  0
 21 26  1  0  0  0  0
 22 21  2  0  0  0  0
 23 25  1  0  0  0  0
 25 24  2  0  0  0  0
 26 27  1  0  0  0  0
 28 26  1  0  0  0  0
 29 30  1  0  0  0  0
 29 31  1  0  0  0  0
 30 31  1  0  0  0  0
 31 28  1  0  0  0  0
 32 33  1  0  0  0  0
 34 33  1  0  0  0  0
 34 35  1  0  0  0  0
 36 35  1  0  0  0  0
 37 36  1  0  0  0  0
 38 44  1  0  0  0  0
 38 40  1  0  0  0  0
 39 37  1  1  0  0  0
 39 40  1  0  0  0  0
 39 42  1  0  0  0  0
 40 43  1  0  0  0  0
 41 42  1  6  0  0  0
 41 49  1  0  0  0  0
 43 41  1  0  0  0  0
 44 40  1  0  0  0  0
 45 48  1  0  0  0  0
 47 46  1  0  0  0  0
 48 46  1  0  0  0  0
 49 45  1  1  0  0  0
 49 47  1  0  0  0  0
M  END
>  <MODEL>
3

>  <REMARK>
 VINA RESULT:      -6.8      3.222      7.448
  Name = 
  21 active torsions:
  status: ('A' for Active; 'I' for Inactive)
    1  A    between atoms: C_1  and  N_9
    2  A    between atoms: C_1  and  C_35
    3  A    between atoms: C_4  and  O_23
    4  A    between atoms: C_4  and  C_31
    5  A    between atoms: C_7  and  C_38
    6  A    between atoms: C_8  and  C_12
    7  A    between atoms: N_9  and  N_24
    8  A    between atoms: C_11  and  N_13
    9  A    between atoms: N_13  and  C_33
   10  A    between atoms: C_16  and  C_21
   11  A    between atoms: C_17  and  C_35
   12  A    between atoms: C_20  and  C_21
   13  A    between atoms: C_20  and  C_22
   14  A    between atoms: C_22  and  O_23
   15  A    between atoms: N_24  and  C_48
   16  A    between atoms: C_25  and  C_47
   17  A    between atoms: N_29  and  C_48
   18  A    between atoms: C_31  and  C_45
   19  A    between atoms: C_33  and  C_41
   20  A    between atoms: N_36  and  C_38
   21  A    between atoms: C_46  and  C_48
                            x       y       z     vdW  Elec       q    Type
                         _______ _______ _______ _____ _____    ______ ____

>  <TORSDO>
F 21

$$$$
=
 OpenBabel11032419393D

 49 54  0  0  1  0  0  0  0  0999 V2000
  190.2830  177.5850  140.5690 C   0  0  2  0  0  3  0  0  0  0  0  0
  188.6940  177.5040  142.4210 C   0  0  0  0  0  2  0  0  0  0  0  0
  190.1140  177.6600  142.8290 C   0  0  0  0  0  0  0  0  0  0  0  0
  190.5480  177.7440  144.1900 N   0  0  0  0  0  2  0  0  0  0  0  0
  190.9560  177.7160  141.8540 N   0  0  0  0  0  0  0  0  0  0  0  0
  188.7850  177.4800  140.8940 C   0  0  1  0  0  3  0  0  0  0  0  0
  191.1850  176.4100  138.5720 C   0  0  0  0  0  3  0  0  0  0  0  0
  190.7590  176.3570  139.8380 C   0  0  0  0  0  3  0  0  0  0  0  0
  191.6750  175.1860  137.8690 C   0  0  0  0  0  2  0  0  0  0  0  0
  192.4430  175.5610  136.6910 N   0  0  0  0  0  2  0  0  0  0  0  0
  193.4970  174.5710  136.5490 C   0  0  0  0  0  1  0  0  0  0  0  0
  189.6100  177.6180  145.3000 C   0  0  2  0  0  3  0  0  0  0  0  0
  191.6890  176.5210  146.1090 C   0  0  0  0  0  1  0  0  0  0  0  0
  190.3130  177.0350  146.5120 C   0  0  0  0  0  2  0  0  0  0  0  0
  188.4770  176.7650  144.9230 N   0  0  0  0  0  2  0  0  0  0  0  0
  187.4060  177.0540  145.7880 N   0  0  0  0  0  2  0  0  0  0  0  0
  187.0950  178.4710  145.6560 C   0  0  0  0  0  2  0  0  0  0  0  0
  185.1410  178.8910  146.9360 O   0  0  0  0  0  0  0  0  0  0  0  0
  185.6190  178.6650  145.7920 C   0  0  0  0  0  0  0  0  0  0  0  0
  185.2600  178.3850  143.3360 C   0  0  0  0  0  3  0  0  0  0  0  0
  183.0550  178.6370  142.3410 C   0  0  0  0  0  0  0  0  0  0  0  0
  184.4270  178.3750  142.2120 C   0  0  0  0  0  3  0  0  0  0  0  0
  184.7320  178.6560  144.6090 C   0  0  0  0  0  0  0  0  0  0  0  0
  182.5270  178.9140  143.6130 C   0  0  0  0  0  3  0  0  0  0  0  0
  183.3590  178.9220  144.7390 C   0  0  0  0  0  3  0  0  0  0  0  0
  182.2100  178.6160  141.1800 N   0  0  0  0  0  0  0  0  0  0  0  0
  181.1440  179.4420  141.1130 O   0  0  0  0  0  1  0  0  0  0  0  0
  182.4260  177.6520  140.1080 C   0  0  0  0  0  2  0  0  0  0  0  0
  182.3200  177.2900  137.6620 C   0  0  0  0  0  2  0  0  0  0  0  0
  183.5460  178.1180  137.9690 C   0  0  0  0  0  2  0  0  0  0  0  0
  182.2740  178.3320  138.7580 C   0  0  0  0  0  3  0  0  0  0  0  0
  187.9870  178.6150  140.2420 C   0  0  0  0  0  2  0  0  0  0  0  0
  187.0790  178.1370  139.1150 C   0  0  0  0  0  2  0  0  0  0  0  0
  187.4610  178.7420  137.9170 O   0  0  0  0  0  0  0  0  0  0  0  0
  188.2560  177.8040  137.2600 C   0  0  0  0  0  2  0  0  0  0  0  0
  188.2100  178.0660  135.7650 C   0  0  0  0  0  2  0  0  0  0  0  0
  187.3520  177.0200  135.0690 C   0  0  0  0  0  2  0  0  0  0  0  0
  188.9970  174.3470  135.2780 C   0  0  0  0  0  2  0  0  0  0  0  0
  187.0010  175.9160  136.0480 C   0  0  2  0  0  3  0  0  0  0  0  0
  187.5320  174.5900  135.5720 C   0  0  0  0  0  0  0  0  0  0  0  0
  185.1890  174.5040  135.1530 C   0  0  1  0  0  3  0  0  0  0  0  0
  185.4960  175.6930  136.0730 C   0  0  0  0  0  2  0  0  0  0  0  0
  186.4550  173.6600  135.0850 C   0  0  0  0  0  2  0  0  0  0  0  0
  188.4100  173.9250  136.6140 C   0  0  0  0  0  2  0  0  0  0  0  0
  183.8950  173.8080  137.1810 C   0  0  0  0  0  2  0  0  0  0  0  0
  184.1070  171.6530  136.7430 C   0  0  0  0  0  2  0  0  0  0  0  0
  184.2340  172.2710  135.4270 N   0  0  0  0  0  2  0  0  0  0  0  0
  184.3750  172.6130  137.7300 O   0  0  0  0  0  0  0  0  0  0  0  0
  184.0100  173.6830  135.6740 C   0  0  2  0  0  3  0  0  0  0  0  0
  1  8  1  1  0  0  0
  1  6  1  0  0  0  0
  1  5  1  0  0  0  0
  2  3  1  0  0  0  0
  3  4  1  0  0  0  0
  4 12  1  0  0  0  0
  5  3  2  0  0  0  0
  6 32  1  6  0  0  0
  6  2  1  0  0  0  0
  7  8  2  0  0  0  0
  9  7  1  0  0  0  0
 10  9  1  0  0  0  0
 11 10  1  0  0  0  0
 12 14  1  1  0  0  0
 13 14  1  0  0  0  0
 15 12  1  0  0  0  0
 15 16  1  0  0  0  0
 17 16  1  0  0  0  0
 17 19  1  0  0  0  0
 19 18  2  0  0  0  0
 20 23  1  0  0  0  0
 21 24  2  0  0  0  0
 22 21  1  0  0  0  0
 22 20  2  0  0  0  0
 23 25  2  0  0  0  0
 23 19  1  0  0  0  0
 24 25  1  0  0  0  0
 26 21  1  0  0  0  0
 27 26  1  0  0  0  0
 28 26  1  0  0  0  0
 29 30  1  0  0  0  0
 29 31  1  0  0  0  0
 30 31  1  0  0  0  0
 31 28  1  0  0  0  0
 33 32  1  0  0  0  0
 34 33  1  0  0  0  0
 35 34  1  0  0  0  0
 36 35  1  0  0  0  0
 37 36  1  0  0  0  0
 38 40  1  0  0  0  0
 38 44  1  0  0  0  0
 39 37  1  6  0  0  0
 39 42  1  0  0  0  0
 40 39  1  0  0  0  0
 40 44  1  0  0  0  0
 41 43  1  1  0  0  0
 41 49  1  0  0  0  0
 41 42  1  0  0  0  0
 43 40  1  0  0  0  0
 45 48  1  0  0  0  0
 46 48  1  0  0  0  0
 47 49  1  0  0  0  0
 47 46  1  0  0  0  0
 49 45  1  1  0  0  0
M  END
>  <MODEL>
4

>  <REMARK>
 VINA RESULT:      -6.7      2.369      9.772
  Name = 
  21 active torsions:
  status: ('A' for Active; 'I' for Inactive)
    1  A    between atoms: C_1  and  N_9
    2  A    between atoms: C_1  and  C_35
    3  A    between atoms: C_4  and  O_23
    4  A    between atoms: C_4  and  C_31
    5  A    between atoms: C_7  and  C_38
    6  A    between atoms: C_8  and  C_12
    7  A    between atoms: N_9  and  N_24
    8  A    between atoms: C_11  and  N_13
    9  A    between atoms: N_13  and  C_33
   10  A    between atoms: C_16  and  C_21
   11  A    between atoms: C_17  and  C_35
   12  A    between atoms: C_20  and  C_21
   13  A    between atoms: C_20  and  C_22
   14  A    between atoms: C_22  and  O_23
   15  A    between atoms: N_24  and  C_48
   16  A    between atoms: C_25  and  C_47
   17  A    between atoms: N_29  and  C_48
   18  A    between atoms: C_31  and  C_45
   19  A    between atoms: C_33  and  C_41
   20  A    between atoms: N_36  and  C_38
   21  A    between atoms: C_46  and  C_48
                            x       y       z     vdW  Elec       q    Type
                         _______ _______ _______ _____ _____    ______ ____

>  <TORSDO>
F 21

$$$$
=
 OpenBabel11032419393D

 49 54  0  0  1  0  0  0  0  0999 V2000
  190.2990  177.4830  140.4320 C   0  0  2  0  0  3  0  0  0  0  0  0
  188.6660  177.5310  142.2470 C   0  0  0  0  0  2  0  0  0  0  0  0
  190.0840  177.5940  142.6860 C   0  0  0  0  0  0  0  0  0  0  0  0
  190.4920  177.6630  144.0570 N   0  0  0  0  0  2  0  0  0  0  0  0
  190.9490  177.5810  141.7320 N   0  0  0  0  0  0  0  0  0  0  0  0
  188.7910  177.4840  140.7230 C   0  0  1  0  0  3  0  0  0  0  0  0
  191.0800  176.2150  138.4410 C   0  0  0  0  0  3  0  0  0  0  0  0
  190.7060  176.2170  139.7250 C   0  0  0  0  0  3  0  0  0  0  0  0
  191.5010  174.9530  137.7610 C   0  0  0  0  0  2  0  0  0  0  0  0
  192.9250  175.0010  137.4590 N   0  0  0  0  0  2  0  0  0  0  0  0
  193.2510  176.3960  137.2130 C   0  0  0  0  0  1  0  0  0  0  0  0
  189.5210  177.6140  145.1460 C   0  0  2  0  0  3  0  0  0  0  0  0
  191.6410  176.7750  146.1380 C   0  0  0  0  0  1  0  0  0  0  0  0
  190.2050  177.1900  146.4320 C   0  0  0  0  0  2  0  0  0  0  0  0
  188.4350  176.6800  144.8260 N   0  0  0  0  0  2  0  0  0  0  0  0
  187.3230  177.0170  145.6190 N   0  0  0  0  0  2  0  0  0  0  0  0
  187.1440  178.4620  145.5450 C   0  0  0  0  0  2  0  0  0  0  0  0
  185.3080  179.1000  146.9080 O   0  0  0  0  0  0  0  0  0  0  0  0
  185.7000  178.7890  145.7500 C   0  0  0  0  0  0  0  0  0  0  0  0
  185.2290  178.7900  143.2980 C   0  0  0  0  0  3  0  0  0  0  0  0
  182.9520  178.8570  142.4440 C   0  0  0  0  0  0  0  0  0  0  0  0
  184.3360  178.8120  142.2210 C   0  0  0  0  0  3  0  0  0  0  0  0
  184.7500  178.8120  144.6180 C   0  0  0  0  0  0  0  0  0  0  0  0
  182.4730  178.8850  143.7640 C   0  0  0  0  0  3  0  0  0  0  0  0
  183.3640  178.8610  144.8430 C   0  0  0  0  0  3  0  0  0  0  0  0
  182.0470  178.8720  141.3310 N   0  0  0  0  0  0  0  0  0  0  0  0
  180.7350  178.6190  141.5300 O   0  0  0  0  0  1  0  0  0  0  0  0
  182.5300  179.0630  139.9680 C   0  0  0  0  0  2  0  0  0  0  0  0
  181.7990  179.1940  137.6080 C   0  0  0  0  0  2  0  0  0  0  0  0
  181.7540  180.5830  138.1980 C   0  0  0  0  0  2  0  0  0  0  0  0
  181.3700  179.3900  139.0440 C   0  0  0  0  0  3  0  0  0  0  0  0
  188.0880  178.6640  140.0420 C   0  0  0  0  0  2  0  0  0  0  0  0
  186.8360  178.2530  139.2740 C   0  0  0  0  0  2  0  0  0  0  0  0
  186.9660  178.6210  137.9340 O   0  0  0  0  0  0  0  0  0  0  0  0
  187.1580  177.4290  137.2360 C   0  0  0  0  0  2  0  0  0  0  0  0
  186.5620  177.5620  135.8450 C   0  0  0  0  0  2  0  0  0  0  0  0
  185.1770  176.9350  135.8000 C   0  0  0  0  0  2  0  0  0  0  0  0
  186.0380  173.9120  135.6790 C   0  0  0  0  0  2  0  0  0  0  0  0
  185.0080  175.9870  136.9720 C   0  0  2  0  0  3  0  0  0  0  0  0
  184.9430  174.5580  136.4990 C   0  0  0  0  0  0  0  0  0  0  0  0
  182.7000  175.1250  137.0670 C   0  0  1  0  0  3  0  0  0  0  0  0
  183.6490  176.1940  137.6240 C   0  0  0  0  0  2  0  0  0  0  0  0
  183.5670  173.9610  136.6080 C   0  0  0  0  0  2  0  0  0  0  0  0
  185.9810  173.6890  137.1800 C   0  0  0  0  0  2  0  0  0  0  0  0
  180.3020  174.5530  137.5090 C   0  0  0  0  0  2  0  0  0  0  0  0
  180.1300  175.9820  139.1860 C   0  0  0  0  0  2  0  0  0  0  0  0
  181.5580  175.6800  139.1550 N   0  0  0  0  0  2  0  0  0  0  0  0
  179.5650  175.6620  137.9420 O   0  0  0  0  0  0  0  0  0  0  0  0
  181.6860  174.6740  138.1170 C   0  0  2  0  0  3  0  0  0  0  0  0
  1  8  1  1  0  0  0
  1  6  1  0  0  0  0
  1  5  1  0  0  0  0
  2  3  1  0  0  0  0
  3  4  1  0  0  0  0
  4 12  1  0  0  0  0
  5  3  2  0  0  0  0
  6 32  1  6  0  0  0
  6  2  1  0  0  0  0
  7  8  2  0  0  0  0
  9  7  1  0  0  0  0
 10  9  1  0  0  0  0
 11 10  1  0  0  0  0
 12 14  1  1  0  0  0
 13 14  1  0  0  0  0
 15 12  1  0  0  0  0
 15 16  1  0  0  0  0
 17 16  1  0  0  0  0
 17 19  1  0  0  0  0
 19 18  2  0  0  0  0
 20 23  1  0  0  0  0
 21 24  2  0  0  0  0
 22 21  1  0  0  0  0
 22 20  2  0  0  0  0
 23 25  2  0  0  0  0
 23 19  1  0  0  0  0
 24 25  1  0  0  0  0
 26 27  1  0  0  0  0
 26 21  1  0  0  0  0
 28 26  1  0  0  0  0
 29 30  1  0  0  0  0
 29 31  1  0  0  0  0
 30 31  1  0  0  0  0
 31 28  1  0  0  0  0
 33 32  1  0  0  0  0
 34 33  1  0  0  0  0
 35 34  1  0  0  0  0
 36 35  1  0  0  0  0
 37 36  1  0  0  0  0
 38 40  1  0  0  0  0
 38 44  1  0  0  0  0
 39 37  1  6  0  0  0
 39 42  1  0  0  0  0
 40 43  1  0  0  0  0
 40 39  1  0  0  0  0
 40 44  1  0  0  0  0
 41 43  1  1  0  0  0
 41 42  1  0  0  0  0
 41 49  1  0  0  0  0
 45 48  1  0  0  0  0
 47 46  1  0  0  0  0
 48 46  1  0  0  0  0
 49 45  1  6  0  0  0
 49 47  1  0  0  0  0
M  END
>  <MODEL>
5

>  <REMARK>
 VINA RESULT:      -6.6      2.456      9.568
  Name = 
  21 active torsions:
  status: ('A' for Active; 'I' for Inactive)
    1  A    between atoms: C_1  and  N_9
    2  A    between atoms: C_1  and  C_35
    3  A    between atoms: C_4  and  O_23
    4  A    between atoms: C_4  and  C_31
    5  A    between atoms: C_7  and  C_38
    6  A    between atoms: C_8  and  C_12
    7  A    between atoms: N_9  and  N_24
    8  A    between atoms: C_11  and  N_13
    9  A    between atoms: N_13  and  C_33
   10  A    between atoms: C_16  and  C_21
   11  A    between atoms: C_17  and  C_35
   12  A    between atoms: C_20  and  C_21
   13  A    between atoms: C_20  and  C_22
   14  A    between atoms: C_22  and  O_23
   15  A    between atoms: N_24  and  C_48
   16  A    between atoms: C_25  and  C_47
   17  A    between atoms: N_29  and  C_48
   18  A    between atoms: C_31  and  C_45
   19  A    between atoms: C_33  and  C_41
   20  A    between atoms: N_36  and  C_38
   21  A    between atoms: C_46  and  C_48
                            x       y       z     vdW  Elec       q    Type
                         _______ _______ _______ _____ _____    ______ ____

>  <TORSDO>
F 21

$$$$
=
 OpenBabel11032419393D

 49 54  0  0  1  0  0  0  0  0999 V2000
  189.3010  176.8330  136.1670 C   0  0  2  0  0  3  0  0  0  0  0  0
  188.1910  176.5610  138.3240 C   0  0  0  0  0  2  0  0  0  0  0  0
  188.8650  177.8700  138.1350 C   0  0  0  0  0  0  0  0  0  0  0  0
  188.8920  178.9040  139.1260 N   0  0  0  0  0  2  0  0  0  0  0  0
  189.4430  178.0240  136.9940 N   0  0  0  0  0  0  0  0  0  0  0  0
  188.4500  175.8560  136.9920 C   0  0  1  0  0  3  0  0  0  0  0  0
  191.2240  175.3360  136.6560 C   0  0  0  0  0  3  0  0  0  0  0  0
  190.6490  176.2360  135.8540 C   0  0  0  0  0  3  0  0  0  0  0  0
  192.5520  174.7380  136.3200 C   0  0  0  0  0  2  0  0  0  0  0  0
  193.3240  174.5220  137.5360 N   0  0  0  0  0  2  0  0  0  0  0  0
  194.7030  174.8500  137.2160 C   0  0  0  0  0  1  0  0  0  0  0  0
  188.2960  178.7140  140.4440 C   0  0  2  0  0  3  0  0  0  0  0  0
  190.0260  177.5020  141.7560 C   0  0  0  0  0  1  0  0  0  0  0  0
  188.7050  177.3670  141.0100 C   0  0  0  0  0  2  0  0  0  0  0  0
  186.8330  178.7980  140.3650 N   0  0  0  0  0  2  0  0  0  0  0  0
  186.2980  178.1890  141.5150 N   0  0  0  0  0  2  0  0  0  0  0  0
  185.4370  179.1610  142.1750 C   0  0  0  0  0  2  0  0  0  0  0  0
  183.7820  178.3740  143.6840 O   0  0  0  0  0  0  0  0  0  0  0  0
  185.0050  178.6160  143.4990 C   0  0  0  0  0  0  0  0  0  0  0  0
  185.6720  178.5430  145.9040 C   0  0  0  0  0  3  0  0  0  0  0  0
  187.8550  177.7190  146.5900 C   0  0  0  0  0  0  0  0  0  0  0  0
  186.5980  178.2510  146.9120 C   0  0  0  0  0  3  0  0  0  0  0  0
  185.9890  178.3050  144.5580 C   0  0  0  0  0  0  0  0  0  0  0  0
  188.1750  177.4850  145.2430 C   0  0  0  0  0  3  0  0  0  0  0  0
  187.2500  177.7750  144.2330 C   0  0  0  0  0  3  0  0  0  0  0  0
  188.7940  177.4170  147.6340 N   0  0  0  0  0  0  0  0  0  0  0  0
  188.8550  178.2040  148.7290 O   0  0  0  0  0  1  0  0  0  0  0  0
  189.7510  176.3250  147.4940 C   0  0  0  0  0  2  0  0  0  0  0  0
  191.7200  176.4750  146.0040 C   0  0  0  0  0  2  0  0  0  0  0  0
  192.1220  175.7200  147.2490 C   0  0  0  0  0  2  0  0  0  0  0  0
  191.1570  176.8800  147.3480 C   0  0  0  0  0  3  0  0  0  0  0  0
  187.1530  175.4870  136.2620 C   0  0  0  0  0  2  0  0  0  0  0  0
  186.4450  174.2820  136.8720 C   0  0  0  0  0  2  0  0  0  0  0  0
  185.5370  173.7560  135.9530 O   0  0  0  0  0  0  0  0  0  0  0  0
  185.2490  172.4690  136.4050 C   0  0  0  0  0  2  0  0  0  0  0  0
  183.7530  172.3420  136.6350 C   0  0  0  0  0  2  0  0  0  0  0  0
  183.0510  173.6450  136.2860 C   0  0  0  0  0  2  0  0  0  0  0  0
  179.9480  173.7120  136.7990 C   0  0  0  0  0  2  0  0  0  0  0  0
  182.4390  174.2460  137.5370 C   0  0  2  0  0  3  0  0  0  0  0  0
  181.0150  174.6670  137.2880 C   0  0  0  0  0  0  0  0  0  0  0  0
  182.2620  176.6970  137.3280 C   0  0  1  0  0  3  0  0  0  0  0  0
  183.1280  175.5580  137.8820 C   0  0  0  0  0  2  0  0  0  0  0  0
  180.8400  176.1600  137.2270 C   0  0  0  0  0  2  0  0  0  0  0  0
  180.0570  174.0370  138.2790 C   0  0  0  0  0  2  0  0  0  0  0  0
  183.5120  177.8600  139.1590 C   0  0  0  0  0  2  0  0  0  0  0  0
  181.7210  178.0600  140.4380 C   0  0  0  0  0  2  0  0  0  0  0  0
  181.1590  177.9750  139.0940 N   0  0  0  0  0  2  0  0  0  0  0  0
  183.0200  177.5300  140.4280 O   0  0  0  0  0  0  0  0  0  0  0  0
  182.3190  177.9320  138.2250 C   0  0  2  0  0  3  0  0  0  0  0  0
  1  8  1  1  0  0  0
  1  6  1  0  0  0  0
  1  5  1  0  0  0  0
  3  2  1  0  0  0  0
  3  4  1  0  0  0  0
  4 12  1  0  0  0  0
  5  3  2  0  0  0  0
  6 32  1  6  0  0  0
  6  2  1  0  0  0  0
  8  7  2  0  0  0  0
  9  7  1  0  0  0  0
  9 10  1  0  0  0  0
 11 10  1  0  0  0  0
 12 14  1  6  0  0  0
 14 13  1  0  0  0  0
 15 12  1  0  0  0  0
 15 16  1  0  0  0  0
 16 17  1  0  0  0  0
 17 19  1  0  0  0  0
 19 18  2  0  0  0  0
 19 23  1  0  0  0  0
 20 22  1  0  0  0  0
 21 22  2  0  0  0  0
 21 26  1  0  0  0  0
 23 20  2  0  0  0  0
 24 21  1  0  0  0  0
 25 23  1  0  0  0  0
 25 24  2  0  0  0  0
 26 27  1  0  0  0  0
 28 26  1  0  0  0  0
 29 30  1  0  0  0  0
 29 31  1  0  0  0  0
 30 31  1  0  0  0  0
 31 28  1  0  0  0  0
 32 33  1  0  0  0  0
 34 35  1  0  0  0  0
 34 33  1  0  0  0  0
 35 36  1  0  0  0  0
 37 36  1  0  0  0  0
 38 40  1  0  0  0  0
 38 44  1  0  0  0  0
 39 37  1  6  0  0  0
 39 42  1  0  0  0  0
 40 39  1  0  0  0  0
 40 44  1  0  0  0  0
 41 43  1  1  0  0  0
 41 42  1  0  0  0  0
 41 49  1  0  0  0  0
 43 40  1  0  0  0  0
 45 48  1  0  0  0  0
 47 46  1  0  0  0  0
 48 46  1  0  0  0  0
 49 47  1  0  0  0  0
 49 45  1  1  0  0  0
M  END
>  <MODEL>
6

>  <REMARK>
 VINA RESULT:      -6.5      2.546      8.009
  Name = 
  21 active torsions:
  status: ('A' for Active; 'I' for Inactive)
    1  A    between atoms: C_1  and  N_9
    2  A    between atoms: C_1  and  C_35
    3  A    between atoms: C_4  and  O_23
    4  A    between atoms: C_4  and  C_31
    5  A    between atoms: C_7  and  C_38
    6  A    between atoms: C_8  and  C_12
    7  A    between atoms: N_9  and  N_24
    8  A    between atoms: C_11  and  N_13
    9  A    between atoms: N_13  and  C_33
   10  A    between atoms: C_16  and  C_21
   11  A    between atoms: C_17  and  C_35
   12  A    between atoms: C_20  and  C_21
   13  A    between atoms: C_20  and  C_22
   14  A    between atoms: C_22  and  O_23
   15  A    between atoms: N_24  and  C_48
   16  A    between atoms: C_25  and  C_47
   17  A    between atoms: N_29  and  C_48
   18  A    between atoms: C_31  and  C_45
   19  A    between atoms: C_33  and  C_41
   20  A    between atoms: N_36  and  C_38
   21  A    between atoms: C_46  and  C_48
                            x       y       z     vdW  Elec       q    Type
                         _______ _______ _______ _____ _____    ______ ____

>  <TORSDO>
F 21

$$$$
=
 OpenBabel11032419393D

 49 54  0  0  1  0  0  0  0  0999 V2000
  181.4360  178.2160  141.1530 C   0  0  2  0  0  3  0  0  0  0  0  0
  182.6610  179.3670  139.3820 C   0  0  0  0  0  2  0  0  0  0  0  0
  181.2830  179.8730  139.6130 C   0  0  0  0  0  0  0  0  0  0  0  0
  180.6890  180.9390  138.8640 N   0  0  0  0  0  2  0  0  0  0  0  0
  180.6370  179.2770  140.5550 N   0  0  0  0  0  0  0  0  0  0  0  0
  182.7920  178.2650  140.4340 C   0  0  1  0  0  3  0  0  0  0  0  0
  179.6860  176.7300  140.1990 C   0  0  0  0  0  3  0  0  0  0  0  0
  180.7760  176.8760  140.9600 C   0  0  0  0  0  3  0  0  0  0  0  0
  179.0560  175.3900  140.0000 C   0  0  0  0  0  2  0  0  0  0  0  0
  179.1770  174.9830  138.6070 N   0  0  0  0  0  2  0  0  0  0  0  0
  179.6150  173.5980  138.6150 C   0  0  0  0  0  1  0  0  0  0  0  0
  181.3910  181.5760  137.7540 C   0  0  2  0  0  3  0  0  0  0  0  0
  180.7690  183.4480  136.2400 C   0  0  0  0  0  1  0  0  0  0  0  0
  181.0280  183.0480  137.6870 C   0  0  0  0  0  2  0  0  0  0  0  0
  181.0520  180.9200  136.4860 N   0  0  0  0  0  2  0  0  0  0  0  0
  180.1330  179.8910  136.7590 N   0  0  0  0  0  2  0  0  0  0  0  0
  180.0310  179.0570  135.5680 C   0  0  0  0  0  2  0  0  0  0  0  0
  179.2200  176.8660  135.9850 O   0  0  0  0  0  0  0  0  0  0  0  0
  180.2260  177.6260  135.9520 C   0  0  0  0  0  0  0  0  0  0  0  0
  182.6720  177.5040  135.4680 C   0  0  0  0  0  3  0  0  0  0  0  0
  184.1480  176.0560  136.7500 C   0  0  0  0  0  0  0  0  0  0  0  0
  183.9500  176.9940  135.7270 C   0  0  0  0  0  3  0  0  0  0  0  0
  181.5720  177.0830  136.2320 C   0  0  0  0  0  0  0  0  0  0  0  0
  183.0460  175.6300  137.5110 C   0  0  0  0  0  3  0  0  0  0  0  0
  181.7680  176.1400  137.2550 C   0  0  0  0  0  3  0  0  0  0  0  0
  185.4650  175.5460  137.0100 N   0  0  0  0  0  0  0  0  0  0  0  0
  186.5260  176.3810  136.9700 O   0  0  0  0  0  1  0  0  0  0  0  0
  185.6930  174.1220  137.2260 C   0  0  0  0  0  2  0  0  0  0  0  0
  185.0210  172.0030  136.1390 C   0  0  0  0  0  2  0  0  0  0  0  0
  186.5150  172.1640  135.9860 C   0  0  0  0  0  2  0  0  0  0  0  0
  185.6130  173.3750  135.9060 C   0  0  0  0  0  3  0  0  0  0  0  0
  183.9400  178.5260  141.4160 C   0  0  0  0  0  2  0  0  0  0  0  0
  183.4680  179.0890  142.7520 C   0  0  0  0  0  2  0  0  0  0  0  0
  184.0420  178.3630  143.7960 O   0  0  0  0  0  0  0  0  0  0  0  0
  184.3150  179.2960  144.7960 C   0  0  0  0  0  2  0  0  0  0  0  0
  184.6600  178.5670  146.0820 C   0  0  0  0  0  2  0  0  0  0  0  0
  186.0960  178.8600  146.4880 C   0  0  0  0  0  2  0  0  0  0  0  0
  188.4590  178.2410  148.4710 C   0  0  0  0  0  2  0  0  0  0  0  0
  186.9160  177.5850  146.4140 C   0  0  2  0  0  3  0  0  0  0  0  0
  188.2720  177.7850  147.0400 C   0  0  0  0  0  0  0  0  0  0  0  0
  188.6690  177.7780  144.6910 C   0  0  1  0  0  3  0  0  0  0  0  0
  187.2520  177.2580  144.9670 C   0  0  0  0  0  2  0  0  0  0  0  0
  189.3880  177.8330  146.0330 C   0  0  0  0  0  2  0  0  0  0  0  0
  188.5490  176.7650  148.1260 C   0  0  0  0  0  2  0  0  0  0  0  0
  190.6260  177.5900  143.1400 C   0  0  0  0  0  2  0  0  0  0  0  0
  189.3750  177.0080  141.4150 C   0  0  0  0  0  2  0  0  0  0  0  0
  188.5740  176.5870  142.5600 N   0  0  0  0  0  2  0  0  0  0  0  0
  190.3040  177.9730  141.8320 O   0  0  0  0  0  0  0  0  0  0  0  0
  189.4140  176.8770  143.7060 C   0  0  2  0  0  3  0  0  0  0  0  0
  1  8  1  6  0  0  0
  2  3  1  0  0  0  0
  2  6  1  0  0  0  0
  3  5  2  0  0  0  0
  4  3  1  0  0  0  0
  5  1  1  0  0  0  0
  6  1  1  0  0  0  0
  6 32  1  1  0  0  0
  7  8  2  0  0  0  0
  9  7  1  0  0  0  0
 10 11  1  0  0  0  0
 10  9  1  0  0  0  0
 12 14  1  6  0  0  0
 12  4  1  0  0  0  0
 13 14  1  0  0  0  0
 15 16  1  0  0  0  0
 15 12  1  0  0  0  0
 17 19  1  0  0  0  0
 17 16  1  0  0  0  0
 19 18  2  0  0  0  0
 19 23  1  0  0  0  0
 20 22  2  0  0  0  0
 20 23  1  0  0  0  0
 21 26  1  0  0  0  0
 21 24  2  0  0  0  0
 22 21  1  0  0  0  0
 23 25  2  0  0  0  0
 25 24  1  0  0  0  0
 26 28  1  0  0  0  0
 27 26  1  0  0  0  0
 30 29  1  0  0  0  0
 31 30  1  0  0  0  0
 31 29  1  0  0  0  0
 31 28  1  0  0  0  0
 32 33  1  0  0  0  0
 33 34  1  0  0  0  0
 34 35  1  0  0  0  0
 35 36  1  0  0  0  0
 36 37  1  0  0  0  0
 39 37  1  6  0  0  0
 39 40  1  0  0  0  0
 40 44  1  0  0  0  0
 40 38  1  0  0  0  0
 41 42  1  1  0  0  0
 41 43  1  0  0  0  0
 42 39  1  0  0  0  0
 43 40  1  0  0  0  0
 44 38  1  0  0  0  0
 46 48  1  0  0  0  0
 46 47  1  0  0  0  0
 47 49  1  0  0  0  0
 48 45  1  0  0  0  0
 49 45  1  6  0  0  0
 49 41  1  0  0  0  0
M  END
>  <MODEL>
7

>  <REMARK>
 VINA RESULT:      -6.4      3.082      6.863
  Name = 
  21 active torsions:
  status: ('A' for Active; 'I' for Inactive)
    1  A    between atoms: C_1  and  N_9
    2  A    between atoms: C_1  and  C_35
    3  A    between atoms: C_4  and  O_23
    4  A    between atoms: C_4  and  C_31
    5  A    between atoms: C_7  and  C_38
    6  A    between atoms: C_8  and  C_12
    7  A    between atoms: N_9  and  N_24
    8  A    between atoms: C_11  and  N_13
    9  A    between atoms: N_13  and  C_33
   10  A    between atoms: C_16  and  C_21
   11  A    between atoms: C_17  and  C_35
   12  A    between atoms: C_20  and  C_21
   13  A    between atoms: C_20  and  C_22
   14  A    between atoms: C_22  and  O_23
   15  A    between atoms: N_24  and  C_48
   16  A    between atoms: C_25  and  C_47
   17  A    between atoms: N_29  and  C_48
   18  A    between atoms: C_31  and  C_45
   19  A    between atoms: C_33  and  C_41
   20  A    between atoms: N_36  and  C_38
   21  A    between atoms: C_46  and  C_48
                            x       y       z     vdW  Elec       q    Type
                         _______ _______ _______ _____ _____    ______ ____

>  <TORSDO>
F 21

$$$$
=
 OpenBabel11032419393D

 49 54  0  0  1  0  0  0  0  0999 V2000
  185.2510  177.8560  144.6900 C   0  0  2  0  0  3  0  0  0  0  0  0
  184.9800  179.4780  142.8860 C   0  0  0  0  0  2  0  0  0  0  0  0
  185.6040  178.1940  142.4760 C   0  0  0  0  0  0  0  0  0  0  0  0
  186.0350  177.9070  141.1420 N   0  0  0  0  0  2  0  0  0  0  0  0
  185.7380  177.3290  143.4220 N   0  0  0  0  0  0  0  0  0  0  0  0
  184.7080  179.2580  144.3740 C   0  0  1  0  0  3  0  0  0  0  0  0
  187.6500  177.9230  145.3360 C   0  0  0  0  0  3  0  0  0  0  0  0
  186.3640  177.9280  145.7020 C   0  0  0  0  0  3  0  0  0  0  0  0
  188.7430  178.0170  146.3520 C   0  0  0  0  0  2  0  0  0  0  0  0
  188.3280  177.3760  147.5910 N   0  0  0  0  0  2  0  0  0  0  0  0
  188.7440  178.2520  148.6730 C   0  0  0  0  0  1  0  0  0  0  0  0
  185.9460  178.9030  140.0790 C   0  0  2  0  0  3  0  0  0  0  0  0
  184.0110  180.1160  139.0950 C   0  0  0  0  0  1  0  0  0  0  0  0
  184.6360  178.7470  139.3290 C   0  0  0  0  0  2  0  0  0  0  0  0
  187.0720  178.7670  139.1490 N   0  0  0  0  0  2  0  0  0  0  0  0
  187.8570  177.6790  139.5700 N   0  0  0  0  0  2  0  0  0  0  0  0
  188.8270  177.3950  138.5200 C   0  0  0  0  0  2  0  0  0  0  0  0
  190.5460  175.7680  138.3390 O   0  0  0  0  0  0  0  0  0  0  0  0
  189.9450  176.5830  139.0900 C   0  0  0  0  0  0  0  0  0  0  0  0
  189.5570  176.3740  141.5490 C   0  0  0  0  0  3  0  0  0  0  0  0
  191.2230  177.1090  143.1620 C   0  0  0  0  0  0  0  0  0  0  0  0
  189.9710  176.5440  142.8740 C   0  0  0  0  0  3  0  0  0  0  0  0
  190.3900  176.7660  140.4880 C   0  0  0  0  0  0  0  0  0  0  0  0
  192.0540  177.5060  142.1020 C   0  0  0  0  0  3  0  0  0  0  0  0
  191.6430  177.3350  140.7750 C   0  0  0  0  0  3  0  0  0  0  0  0
  191.6390  177.2710  144.5260 N   0  0  0  0  0  0  0  0  0  0  0  0
  191.9600  178.4990  144.9880 O   0  0  0  0  0  1  0  0  0  0  0  0
  191.8120  176.1190  145.4030 C   0  0  0  0  0  2  0  0  0  0  0  0
  192.7640  175.6280  147.6340 C   0  0  0  0  0  2  0  0  0  0  0  0
  191.2610  175.4970  147.7180 C   0  0  0  0  0  2  0  0  0  0  0  0
  191.8790  176.5720  146.8520 C   0  0  0  0  0  3  0  0  0  0  0  0
  183.2190  179.3750  144.7210 C   0  0  0  0  0  2  0  0  0  0  0  0
  182.3040  178.8830  143.6050 C   0  0  0  0  0  2  0  0  0  0  0  0
  181.3170  179.8360  143.3530 O   0  0  0  0  0  0  0  0  0  0  0  0
  180.3580  179.1860  142.5770 C   0  0  0  0  0  2  0  0  0  0  0  0
  180.0150  180.0510  141.3770 C   0  0  0  0  0  2  0  0  0  0  0  0
  180.6970  179.5180  140.1260 C   0  0  0  0  0  2  0  0  0  0  0  0
  181.2710  178.2850  137.2900 C   0  0  0  0  0  2  0  0  0  0  0  0
  179.8460  179.8290  138.9090 C   0  0  2  0  0  3  0  0  0  0  0  0
  180.6270  179.6090  137.6400 C   0  0  0  0  0  0  0  0  0  0  0  0
  180.5240  181.9740  137.9000 C   0  0  1  0  0  3  0  0  0  0  0  0
  179.5240  181.3150  138.8590 C   0  0  0  0  0  2  0  0  0  0  0  0
  181.0000  180.8880  136.9440 C   0  0  0  0  0  2  0  0  0  0  0  0
  179.9200  178.6520  136.7010 C   0  0  0  0  0  2  0  0  0  0  0  0
  180.1940  183.0360  135.6560 C   0  0  0  0  0  2  0  0  0  0  0  0
  180.9500  185.0020  136.3260 C   0  0  0  0  0  2  0  0  0  0  0  0
  180.4710  184.3940  137.5630 N   0  0  0  0  0  2  0  0  0  0  0  0
  181.1750  183.9950  135.3750 O   0  0  0  0  0  0  0  0  0  0  0  0
  179.8880  183.1360  137.1380 C   0  0  2  0  0  3  0  0  0  0  0  0
  1  8  1  1  0  0  0
  2  6  1  0  0  0  0
  3  2  1  0  0  0  0
  3  5  2  0  0  0  0
  4  3  1  0  0  0  0
  5  1  1  0  0  0  0
  6  1  1  0  0  0  0
  6 32  1  6  0  0  0
  7  8  2  0  0  0  0
  7  9  1  0  0  0  0
  9 10  1  0  0  0  0
 10 11  1  0  0  0  0
 12 14  1  6  0  0  0
 12  4  1  0  0  0  0
 13 14  1  0  0  0  0
 15 16  1  0  0  0  0
 15 12  1  0  0  0  0
 17 19  1  0  0  0  0
 17 16  1  0  0  0  0
 18 19  2  0  0  0  0
 19 23  1  0  0  0  0
 20 22  1  0  0  0  0
 21 26  1  0  0  0  0
 22 21  2  0  0  0  0
 23 25  1  0  0  0  0
 23 20  2  0  0  0  0
 24 21  1  0  0  0  0
 25 24  2  0  0  0  0
 26 27  1  0  0  0  0
 26 28  1  0  0  0  0
 28 31  1  0  0  0  0
 29 30  1  0  0  0  0
 31 29  1  0  0  0  0
 31 30  1  0  0  0  0
 33 32  1  0  0  0  0
 34 33  1  0  0  0  0
 35 34  1  0  0  0  0
 36 35  1  0  0  0  0
 37 36  1  0  0  0  0
 38 40  1  0  0  0  0
 39 37  1  1  0  0  0
 40 39  1  0  0  0  0
 41 43  1  6  0  0  0
 41 42  1  0  0  0  0
 42 39  1  0  0  0  0
 43 40  1  0  0  0  0
 44 38  1  0  0  0  0
 44 40  1  0  0  0  0
 46 47  1  0  0  0  0
 48 45  1  0  0  0  0
 48 46  1  0  0  0  0
 49 45  1  6  0  0  0
 49 47  1  0  0  0  0
 49 41  1  0  0  0  0
M  END
>  <MODEL>
8

>  <REMARK>
 VINA RESULT:      -6.4      3.565      8.410
  Name = 
  21 active torsions:
  status: ('A' for Active; 'I' for Inactive)
    1  A    between atoms: C_1  and  N_9
    2  A    between atoms: C_1  and  C_35
    3  A    between atoms: C_4  and  O_23
    4  A    between atoms: C_4  and  C_31
    5  A    between atoms: C_7  and  C_38
    6  A    between atoms: C_8  and  C_12
    7  A    between atoms: N_9  and  N_24
    8  A    between atoms: C_11  and  N_13
    9  A    between atoms: N_13  and  C_33
   10  A    between atoms: C_16  and  C_21
   11  A    between atoms: C_17  and  C_35
   12  A    between atoms: C_20  and  C_21
   13  A    between atoms: C_20  and  C_22
   14  A    between atoms: C_22  and  O_23
   15  A    between atoms: N_24  and  C_48
   16  A    between atoms: C_25  and  C_47
   17  A    between atoms: N_29  and  C_48
   18  A    between atoms: C_31  and  C_45
   19  A    between atoms: C_33  and  C_41
   20  A    between atoms: N_36  and  C_38
   21  A    between atoms: C_46  and  C_48
                            x       y       z     vdW  Elec       q    Type
                         _______ _______ _______ _____ _____    ______ ____

>  <TORSDO>
F 21

$$$$
=
 OpenBabel11032419393D

 49 54  0  0  1  0  0  0  0  0999 V2000
  191.0660  177.5790  139.5590 C   0  0  2  0  0  3  0  0  0  0  0  0
  189.7240  177.2730  141.5750 C   0  0  0  0  0  2  0  0  0  0  0  0
  191.1860  177.3900  141.8150 C   0  0  0  0  0  0  0  0  0  0  0  0
  191.7890  177.3170  143.1110 N   0  0  0  0  0  2  0  0  0  0  0  0
  191.8970  177.5640  140.7550 N   0  0  0  0  0  0  0  0  0  0  0  0
  189.6210  177.4280  140.0570 C   0  0  1  0  0  3  0  0  0  0  0  0
  191.0120  176.4040  137.3690 C   0  0  0  0  0  3  0  0  0  0  0  0
  191.4360  176.4480  138.6360 C   0  0  0  0  0  3  0  0  0  0  0  0
  191.4050  175.2850  136.4610 C   0  0  0  0  0  2  0  0  0  0  0  0
  190.2270  174.7390  135.8020 N   0  0  0  0  0  2  0  0  0  0  0  0
  190.2100  173.3160  136.0920 C   0  0  0  0  0  1  0  0  0  0  0  0
  190.9980  177.0570  144.3090 C   0  0  2  0  0  3  0  0  0  0  0  0
  191.5900  176.4370  146.6430 C   0  0  0  0  0  1  0  0  0  0  0  0
  191.6960  176.0290  145.1800 C   0  0  0  0  0  2  0  0  0  0  0  0
  189.6590  176.5780  143.9480 N   0  0  0  0  0  2  0  0  0  0  0  0
  188.8170  176.7560  145.0600 N   0  0  0  0  0  2  0  0  0  0  0  0
  188.1780  178.0600  144.9320 C   0  0  0  0  0  2  0  0  0  0  0  0
  186.6210  177.7320  146.6930 O   0  0  0  0  0  0  0  0  0  0  0  0
  186.7850  177.9790  145.4670 C   0  0  0  0  0  0  0  0  0  0  0  0
  184.4230  178.7300  145.1620 C   0  0  0  0  0  3  0  0  0  0  0  0
  183.3720  178.7490  142.9690 C   0  0  0  0  0  0  0  0  0  0  0  0
  183.3110  178.9820  144.3500 C   0  0  0  0  0  3  0  0  0  0  0  0
  185.6150  178.2420  144.6030 C   0  0  0  0  0  0  0  0  0  0  0  0
  184.5620  178.2560  142.4090 C   0  0  0  0  0  3  0  0  0  0  0  0
  185.6760  178.0060  143.2190 C   0  0  0  0  0  3  0  0  0  0  0  0
  182.2270  179.0180  142.1460 N   0  0  0  0  0  0  0  0  0  0  0  0
  181.1220  179.5690  142.6930 O   0  0  0  0  0  1  0  0  0  0  0  0
  182.1970  178.6220  140.7420 C   0  0  0  0  0  2  0  0  0  0  0  0
  182.3820  176.3500  139.7790 C   0  0  0  0  0  2  0  0  0  0  0  0
  181.2110  177.0500  139.1290 C   0  0  0  0  0  2  0  0  0  0  0  0
  181.5080  177.2770  140.5950 C   0  0  0  0  0  3  0  0  0  0  0  0
  188.7570  178.6270  139.6480 C   0  0  0  0  0  2  0  0  0  0  0  0
  187.4560  178.2200  138.9640 C   0  0  0  0  0  2  0  0  0  0  0  0
  187.2610  179.0030  137.8250 O   0  0  0  0  0  0  0  0  0  0  0  0
  188.1360  178.4920  136.8660 C   0  0  0  0  0  2  0  0  0  0  0  0
  187.3370  177.7750  135.7910 C   0  0  0  0  0  2  0  0  0  0  0  0
  186.8670  176.4200  136.2970 C   0  0  0  0  0  2  0  0  0  0  0  0
  183.9180  177.4690  136.6100 C   0  0  0  0  0  2  0  0  0  0  0  0
  185.7230  175.9230  135.4320 C   0  0  2  0  0  3  0  0  0  0  0  0
  184.4020  176.1190  136.1280 C   0  0  0  0  0  0  0  0  0  0  0  0
  184.8480  173.7850  136.2940 C   0  0  1  0  0  3  0  0  0  0  0  0
  185.8040  174.4120  135.2700 C   0  0  0  0  0  2  0  0  0  0  0  0
  183.7880  174.8320  136.6070 C   0  0  0  0  0  2  0  0  0  0  0  0
  183.4300  176.9160  135.2820 C   0  0  0  0  0  2  0  0  0  0  0  0
  182.8870  172.8080  135.0800 C   0  0  0  0  0  2  0  0  0  0  0  0
  182.4620  171.3380  136.6740 C   0  0  0  0  0  2  0  0  0  0  0  0
  183.8860  171.6070  136.8460 N   0  0  0  0  0  2  0  0  0  0  0  0
  181.8770  172.3920  135.9560 O   0  0  0  0  0  0  0  0  0  0  0  0
  184.2120  172.5050  135.7530 C   0  0  2  0  0  3  0  0  0  0  0  0
  1  8  1  6  0  0  0
  1  6  1  0  0  0  0
  1  5  1  0  0  0  0
  2  3  1  0  0  0  0
  3  4  1  0  0  0  0
  4 12  1  0  0  0  0
  5  3  2  0  0  0  0
  6 32  1  1  0  0  0
  6  2  1  0  0  0  0
  7  8  2  0  0  0  0
  9  7  1  0  0  0  0
 10 11  1  0  0  0  0
 10  9  1  0  0  0  0
 12 14  1  1  0  0  0
 14 13  1  0  0  0  0
 15 12  1  0  0  0  0
 15 16  1  0  0  0  0
 17 16  1  0  0  0  0
 17 19  1  0  0  0  0
 19 18  2  0  0  0  0
 21 22  1  0  0  0  0
 22 20  2  0  0  0  0
 23 20  1  0  0  0  0
 23 19  1  0  0  0  0
 24 21  2  0  0  0  0
 24 25  1  0  0  0  0
 25 23  2  0  0  0  0
 26 27  1  0  0  0  0
 26 21  1  0  0  0  0
 28 26  1  0  0  0  0
 29 31  1  0  0  0  0
 30 29  1  0  0  0  0
 30 31  1  0  0  0  0
 31 28  1  0  0  0  0
 33 32  1  0  0  0  0
 34 33  1  0  0  0  0
 35 34  1  0  0  0  0
 36 37  1  0  0  0  0
 36 35  1  0  0  0  0
 39 40  1  0  0  0  0
 39 37  1  1  0  0  0
 40 43  1  0  0  0  0
 40 38  1  0  0  0  0
 41 42  1  6  0  0  0
 41 43  1  0  0  0  0
 42 39  1  0  0  0  0
 44 40  1  0  0  0  0
 44 38  1  0  0  0  0
 45 48  1  0  0  0  0
 46 47  1  0  0  0  0
 48 46  1  0  0  0  0
 49 45  1  1  0  0  0
 49 41  1  0  0  0  0
 49 47  1  0  0  0  0
M  END
>  <MODEL>
9

>  <REMARK>
 VINA RESULT:      -6.3      2.518      9.541
  Name = 
  21 active torsions:
  status: ('A' for Active; 'I' for Inactive)
    1  A    between atoms: C_1  and  N_9
    2  A    between atoms: C_1  and  C_35
    3  A    between atoms: C_4  and  O_23
    4  A    between atoms: C_4  and  C_31
    5  A    between atoms: C_7  and  C_38
    6  A    between atoms: C_8  and  C_12
    7  A    between atoms: N_9  and  N_24
    8  A    between atoms: C_11  and  N_13
    9  A    between atoms: N_13  and  C_33
   10  A    between atoms: C_16  and  C_21
   11  A    between atoms: C_17  and  C_35
   12  A    between atoms: C_20  and  C_21
   13  A    between atoms: C_20  and  C_22
   14  A    between atoms: C_22  and  O_23
   15  A    between atoms: N_24  and  C_48
   16  A    between atoms: C_25  and  C_47
   17  A    between atoms: N_29  and  C_48
   18  A    between atoms: C_31  and  C_45
   19  A    between atoms: C_33  and  C_41
   20  A    between atoms: N_36  and  C_38
   21  A    between atoms: C_46  and  C_48
                            x       y       z     vdW  Elec       q    Type
                         _______ _______ _______ _____ _____    ______ ____

>  <TORSDO>
F 21

$$$$
