=
 OpenBabel11042410173D

 55 60  0  0  1  0  0  0  0  0999 V2000
  186.4650  177.1960  145.1580 C   0  0  0  0  0  1  0  0  0  0  0  0
  186.7100  177.9600  142.8760 C   0  0  0  0  0  0  0  0  0  0  0  0
  186.0480  178.0380  143.9950 C   0  0  0  0  0  0  0  0  0  0  0  0
  187.3910  177.8700  141.7680 C   0  0  0  0  0  3  0  0  0  0  0  0
  188.6480  177.0570  141.7320 C   0  0  2  0  0  3  0  0  0  0  0  0
  190.4010  177.4120  144.7940 C   0  0  0  0  0  0  0  0  0  0  0  0
  189.5160  177.4200  142.8510 N   0  0  0  0  0  0  0  0  0  0  0  0
  191.7940  179.5740  144.5670 C   0  0  0  0  0  1  0  0  0  0  0  0
  190.2710  178.5100  142.8850 N   0  0  0  0  0  0  0  0  0  0  0  0
  189.5570  176.7400  143.9880 N   0  0  0  0  0  0  0  0  0  0  0  0
  190.8470  178.5220  144.0990 C   0  0  0  0  0  0  0  0  0  0  0  0
  189.8910  177.0610  147.0920 O   0  0  0  0  0  0  0  0  0  0  0  0
  192.0550  176.4950  146.4410 N   0  0  0  0  0  2  0  0  0  0  0  0
  192.4140  176.0780  147.7290 N   0  0  0  0  0  1  0  0  0  0  0  0
  190.7450  176.9900  146.1640 C   0  0  0  0  0  0  0  0  0  0  0  0
  189.3880  177.2380  140.4060 C   0  0  0  0  0  2  0  0  0  0  0  0
  188.9330  178.4890  139.6730 C   0  0  0  0  0  2  0  0  0  0  0  0
  189.3300  178.4050  138.2750 N   0  0  0  0  0  2  0  0  0  0  0  0
  188.4790  177.4140  137.6230 C   0  0  1  0  0  3  0  0  0  0  0  0
  185.3860  176.7340  136.2450 C   0  0  0  0  0  0  0  0  0  0  0  0
  186.5730  178.9720  137.3780 O   0  0  0  0  0  0  0  0  0  0  0  0
  186.7420  177.1420  135.7440 C   0  0  0  0  0  2  0  0  0  0  0  0
  185.7640  178.1880  138.2250 C   0  0  0  0  0  2  0  0  0  0  0  0
  187.4670  178.1120  136.6930 C   0  0  2  0  0  3  0  0  0  0  0  0
  184.7360  177.4150  137.4120 C   0  0  0  0  0  2  0  0  0  0  0  0
  184.7780  175.8560  135.6570 O   0  0  0  0  0  0  0  0  0  0  0  0
  190.0700  176.8500  135.9780 O   0  0  0  0  0  0  0  0  0  0  0  0
  189.2940  174.9710  137.1510 C   0  0  0  0  0  1  0  0  0  0  0  0
  189.3240  176.4330  136.8480 C   0  0  0  0  0  0  0  0  0  0  0  0
  184.9930  179.0810  144.1580 C   0  0  0  0  0  2  0  0  0  0  0  0
  184.2830  179.3210  142.8420 C   0  0  0  0  0  2  0  0  0  0  0  0
  181.0390  178.4220  143.8580 C   0  0  0  0  0  2  0  0  0  0  0  0
  181.8490  178.7340  142.6130 C   0  0  0  0  0  0  0  0  0  0  0  0
  181.4920  179.8490  143.5770 C   0  0  0  0  0  2  0  0  0  0  0  0
  183.2770  178.2230  142.5600 C   0  0  1  0  0  3  0  0  0  0  0  0
  182.3360  178.4880  140.3040 C   0  0  0  0  0  2  0  0  0  0  0  0
  183.4240  177.7840  141.1100 C   0  0  0  0  0  2  0  0  0  0  0  0
  181.1810  178.7820  141.2540 C   0  0  1  0  0  3  0  0  0  0  0  0
  180.1200  177.6940  141.1130 C   0  0  0  0  0  2  0  0  0  0  0  0
  179.6920  176.4360  139.0480 C   0  0  0  0  0  3  0  0  0  0  0  0
  179.6430  177.5970  139.6980 C   0  0  0  0  0  3  0  0  0  0  0  0
  180.4690  176.5450  135.5980 C   0  0  2  0  0  3  0  0  0  0  0  0
  181.6940  177.2000  135.7580 O   0  0  0  0  0  1  0  0  0  0  0  0
  179.3090  177.5110  135.7440 C   0  0  2  0  0  3  0  0  0  0  0  0
  179.5820  178.8780  135.1420 C   0  0  0  0  0  1  0  0  0  0  0  0
  179.2140  176.3350  137.6370 C   0  0  1  0  0  3  0  0  0  0  0  0
  178.9960  177.6220  137.1070 O   0  0  0  0  0  0  0  0  0  0  0  0
  180.2670  175.6340  136.7900 C   0  0  1  0  0  3  0  0  0  0  0  0
  180.1030  172.3410  134.9440 C   0  0  0  0  0  2  0  0  0  0  0  0
  180.1210  173.3910  137.5790 C   0  0  0  0  0  2  0  0  0  0  0  0
  179.8460  174.2690  136.4390 N   0  0  0  0  0  0  0  0  0  0  0  0
  180.5540  173.7690  135.2490 C   0  0  0  0  0  2  0  0  0  0  0  0
  179.8740  170.1650  135.7680 C   0  0  0  0  0  1  0  0  0  0  0  0
  180.4090  171.4780  136.0820 N   0  0  0  0  0  0  0  0  0  0  0  0
  179.6790  171.9640  137.2510 C   0  0  0  0  0  2  0  0  0  0  0  0
  2  3  2  0  0  0  0
  3 30  1  0  0  0  0
  3  1  1  0  0  0  0
  4  2  2  0  0  0  0
  5 16  1  6  0  0  0
  5  4  1  0  0  0  0
  5  7  1  0  0  0  0
  6 15  1  0  0  0  0
  7  9  1  0  0  0  0
  7 10  1  0  0  0  0
  9 11  2  0  0  0  0
 10  6  2  0  0  0  0
 11  8  1  0  0  0  0
 11  6  1  0  0  0  0
 13 14  1  0  0  0  0
 15 13  1  0  0  0  0
 15 12  2  0  0  0  0
 17 16  1  0  0  0  0
 18 17  1  0  0  0  0
 19 29  1  6  0  0  0
 19 18  1  0  0  0  0
 20 25  1  0  0  0  0
 21 23  1  0  0  0  0
 22 20  1  0  0  0  0
 22 24  1  0  0  0  0
 24 21  1  0  0  0  0
 24 19  1  1  0  0  0
 25 23  1  0  0  0  0
 26 20  2  0  0  0  0
 27 29  2  0  0  0  0
 29 28  1  0  0  0  0
 31 30  1  0  0  0  0
 33 34  1  0  0  0  0
 33 32  1  0  0  0  0
 34 32  1  0  0  0  0
 35 33  1  0  0  0  0
 35 31  1  6  0  0  0
 36 37  1  0  0  0  0
 36 38  1  0  0  0  0
 37 35  1  0  0  0  0
 38 39  1  1  0  0  0
 38 33  1  0  0  0  0
 40 41  2  0  0  0  0
 41 39  1  0  0  0  0
 42 44  1  0  0  0  0
 42 43  1  1  0  0  0
 42 48  1  0  0  0  0
 44 45  1  1  0  0  0
 44 47  1  0  0  0  0
 46 40  1  1  0  0  0
 47 46  1  0  0  0  0
 48 51  1  6  0  0  0
 48 46  1  0  0  0  0
 49 52  1  0  0  0  0
 49 54  1  0  0  0  0
 51 50  1  0  0  0  0
 52 51  1  0  0  0  0
 53 54  1  0  0  0  0
 54 55  1  0  0  0  0
 55 50  1  0  0  0  0
M  END
>  <MODEL>
1

>  <REMARK>
 VINA RESULT:      -7.4      0.000      0.000
  Name = 
  16 active torsions:
  status: ('A' for Active; 'I' for Inactive)
    1  A    between atoms: C_1  and  C_35
    2  A    between atoms: C_1  and  C_55
    3  A    between atoms: C_7  and  C_49
    4  A    between atoms: C_8  and  C_21
    5  A    between atoms: N_12  and  C_41
    6  A    between atoms: C_15  and  C_33
    7  A    between atoms: C_15  and  N_52
    8  A    between atoms: C_17  and  C_46
    9  A    between atoms: C_17  and  C_47
   10  A    between atoms: C_17  and  N_52
   11  A    between atoms: C_19  and  C_27
   12  A    between atoms: C_19  and  C_31
   13  A    between atoms: N_23  and  C_42
   14  A    between atoms: C_27  and  C_50
   15  A    between atoms: C_33  and  C_41
   16  A    between atoms: C_41  and  C_43
                            x       y       z     vdW  Elec       q    Type
                         _______ _______ _______ _____ _____    ______ ____

>  <TORSDO>
F 16

$$$$
=
 OpenBabel11042410173D

 55 60  0  0  1  0  0  0  0  0999 V2000
  184.9460  180.1590  144.4710 C   0  0  0  0  0  1  0  0  0  0  0  0
  185.3810  178.3130  142.9700 C   0  0  0  0  0  0  0  0  0  0  0  0
  184.5470  178.8920  143.7860 C   0  0  0  0  0  0  0  0  0  0  0  0
  186.2310  177.7560  142.1520 C   0  0  0  0  0  3  0  0  0  0  0  0
  187.5020  178.4660  141.8020 C   0  0  2  0  0  3  0  0  0  0  0  0
  189.1280  177.2820  138.8810 C   0  0  0  0  0  0  0  0  0  0  0  0
  187.9350  178.0910  140.4580 N   0  0  0  0  0  0  0  0  0  0  0  0
  187.8010  178.2520  136.8900 C   0  0  0  0  0  1  0  0  0  0  0  0
  187.3650  178.5260  139.3420 N   0  0  0  0  0  0  0  0  0  0  0  0
  189.0090  177.3490  140.2210 N   0  0  0  0  0  0  0  0  0  0  0  0
  188.0950  178.0220  138.3330 C   0  0  0  0  0  0  0  0  0  0  0  0
  191.0350  177.1490  137.4640 O   0  0  0  0  0  0  0  0  0  0  0  0
  190.2750  175.1230  138.3260 N   0  0  0  0  0  2  0  0  0  0  0  0
  191.2790  174.3870  137.6850 N   0  0  0  0  0  1  0  0  0  0  0  0
  190.1940  176.5410  138.1830 C   0  0  0  0  0  0  0  0  0  0  0  0
  188.6040  178.1640  142.8190 C   0  0  0  0  0  2  0  0  0  0  0  0
  188.1030  177.2730  143.9440 C   0  0  0  0  0  2  0  0  0  0  0  0
  188.2310  177.9740  145.2130 N   0  0  0  0  0  2  0  0  0  0  0  0
  188.9960  177.1250  146.1220 C   0  0  1  0  0  3  0  0  0  0  0  0
  192.0220  175.9750  147.3250 C   0  0  0  0  0  0  0  0  0  0  0  0
  191.2200  177.3710  145.0650 O   0  0  0  0  0  0  0  0  0  0  0  0
  191.1580  177.1890  147.5170 C   0  0  0  0  0  2  0  0  0  0  0  0
  191.3600  175.9750  144.9290 C   0  0  0  0  0  2  0  0  0  0  0  0
  190.4490  177.6320  146.2250 C   0  0  2  0  0  3  0  0  0  0  0  0
  192.3390  175.4370  145.9630 C   0  0  0  0  0  2  0  0  0  0  0  0
  192.5170  175.4420  148.3030 O   0  0  0  0  0  0  0  0  0  0  0  0
  188.2090  176.0350  148.0590 O   0  0  0  0  0  0  0  0  0  0  0  0
  187.8980  178.3590  148.1530 C   0  0  0  0  0  1  0  0  0  0  0  0
  188.3440  177.1020  147.4830 C   0  0  0  0  0  0  0  0  0  0  0  0
  183.1500  178.3780  143.9000 C   0  0  0  0  0  2  0  0  0  0  0  0
  182.1990  179.2600  143.1190 C   0  0  0  0  0  2  0  0  0  0  0  0
  178.9700  179.0140  141.7500 C   0  0  0  0  0  2  0  0  0  0  0  0
  180.4090  179.2850  141.3540 C   0  0  0  0  0  0  0  0  0  0  0  0
  179.6410  180.3210  142.1520 C   0  0  0  0  0  2  0  0  0  0  0  0
  181.4910  178.4700  142.0370 C   0  0  1  0  0  3  0  0  0  0  0  0
  182.2140  179.2310  139.8140 C   0  0  0  0  0  2  0  0  0  0  0  0
  182.4730  178.1970  140.9060 C   0  0  0  0  0  2  0  0  0  0  0  0
  180.7550  179.6600  139.9270 C   0  0  1  0  0  3  0  0  0  0  0  0
  179.9170  178.8750  138.9230 C   0  0  0  0  0  2  0  0  0  0  0  0
  180.2340  177.1330  137.2210 C   0  0  0  0  0  3  0  0  0  0  0  0
  180.7800  177.9680  138.1040 C   0  0  0  0  0  3  0  0  0  0  0  0
  182.8600  174.7630  137.1130 C   0  0  2  0  0  3  0  0  0  0  0  0
  183.3770  175.0780  138.3730 O   0  0  0  0  0  1  0  0  0  0  0  0
  183.2590  175.8020  136.0820 C   0  0  2  0  0  3  0  0  0  0  0  0
  184.6710  176.3280  136.2710 C   0  0  0  0  0  1  0  0  0  0  0  0
  181.0940  176.2280  136.4000 C   0  0  1  0  0  3  0  0  0  0  0  0
  182.3270  176.8500  136.1280 O   0  0  0  0  0  0  0  0  0  0  0  0
  181.3570  174.9400  137.1660 C   0  0  1  0  0  3  0  0  0  0  0  0
  180.6280  171.7780  135.2290 C   0  0  0  0  0  2  0  0  0  0  0  0
  180.0190  173.0420  137.6940 C   0  0  0  0  0  2  0  0  0  0  0  0
  180.5990  173.8160  136.5940 N   0  0  0  0  0  0  0  0  0  0  0  0
  181.4540  172.9430  135.7740 C   0  0  0  0  0  2  0  0  0  0  0  0
  179.2350  169.9780  135.7590 C   0  0  0  0  0  1  0  0  0  0  0  0
  180.0790  171.0050  136.3400 N   0  0  0  0  0  0  0  0  0  0  0  0
  179.2090  171.8720  137.1320 C   0  0  0  0  0  2  0  0  0  0  0  0
  2  3  2  0  0  0  0
  3 30  1  0  0  0  0
  3  1  1  0  0  0  0
  4  2  2  0  0  0  0
  5  4  1  1  0  0  0
  5 16  1  0  0  0  0
  6 10  2  0  0  0  0
  7  5  1  0  0  0  0
  8 11  1  0  0  0  0
  9  7  1  0  0  0  0
 10  7  1  0  0  0  0
 11  6  1  0  0  0  0
 11  9  2  0  0  0  0
 12 15  2  0  0  0  0
 14 13  1  0  0  0  0
 15 13  1  0  0  0  0
 15  6  1  0  0  0  0
 16 17  1  0  0  0  0
 17 18  1  0  0  0  0
 19 18  1  6  0  0  0
 19 29  1  0  0  0  0
 20 22  1  0  0  0  0
 20 26  2  0  0  0  0
 21 24  1  0  0  0  0
 23 21  1  0  0  0  0
 23 25  1  0  0  0  0
 24 19  1  6  0  0  0
 24 22  1  0  0  0  0
 25 20  1  0  0  0  0
 29 27  2  0  0  0  0
 29 28  1  0  0  0  0
 31 30  1  0  0  0  0
 32 34  1  0  0  0  0
 33 32  1  0  0  0  0
 33 35  1  0  0  0  0
 33 34  1  0  0  0  0
 35 31  1  1  0  0  0
 36 38  1  0  0  0  0
 36 37  1  0  0  0  0
 37 35  1  0  0  0  0
 38 39  1  6  0  0  0
 38 33  1  0  0  0  0
 40 41  2  0  0  0  0
 41 39  1  0  0  0  0
 42 48  1  0  0  0  0
 42 43  1  1  0  0  0
 44 47  1  0  0  0  0
 44 45  1  1  0  0  0
 44 42  1  0  0  0  0
 46 48  1  0  0  0  0
 46 40  1  1  0  0  0
 47 46  1  0  0  0  0
 48 51  1  6  0  0  0
 49 52  1  0  0  0  0
 49 54  1  0  0  0  0
 51 50  1  0  0  0  0
 52 51  1  0  0  0  0
 53 54  1  0  0  0  0
 54 55  1  0  0  0  0
 55 50  1  0  0  0  0
M  END
>  <MODEL>
2

>  <REMARK>
 VINA RESULT:      -7.2      1.971      6.323
  Name = 
  16 active torsions:
  status: ('A' for Active; 'I' for Inactive)
    1  A    between atoms: C_1  and  C_35
    2  A    between atoms: C_1  and  C_55
    3  A    between atoms: C_7  and  C_49
    4  A    between atoms: C_8  and  C_21
    5  A    between atoms: N_12  and  C_41
    6  A    between atoms: C_15  and  C_33
    7  A    between atoms: C_15  and  N_52
    8  A    between atoms: C_17  and  C_46
    9  A    between atoms: C_17  and  C_47
   10  A    between atoms: C_17  and  N_52
   11  A    between atoms: C_19  and  C_27
   12  A    between atoms: C_19  and  C_31
   13  A    between atoms: N_23  and  C_42
   14  A    between atoms: C_27  and  C_50
   15  A    between atoms: C_33  and  C_41
   16  A    between atoms: C_41  and  C_43
                            x       y       z     vdW  Elec       q    Type
                         _______ _______ _______ _____ _____    ______ ____

>  <TORSDO>
F 16

$$$$
=
 OpenBabel11042410173D

 55 60  0  0  1  0  0  0  0  0999 V2000
  186.8610  176.8960  145.0080 C   0  0  0  0  0  1  0  0  0  0  0  0
  186.8990  177.9790  142.8460 C   0  0  0  0  0  0  0  0  0  0  0  0
  186.3410  177.8900  144.0200 C   0  0  0  0  0  0  0  0  0  0  0  0
  187.4770  178.0550  141.6800 C   0  0  0  0  0  3  0  0  0  0  0  0
  188.7250  177.2700  141.4160 C   0  0  2  0  0  3  0  0  0  0  0  0
  190.9110  177.1450  144.2060 C   0  0  0  0  0  0  0  0  0  0  0  0
  189.6980  177.4960  142.4840 N   0  0  0  0  0  0  0  0  0  0  0  0
  191.7970  179.5500  144.5200 C   0  0  0  0  0  1  0  0  0  0  0  0
  190.2230  178.6780  142.7750 N   0  0  0  0  0  0  0  0  0  0  0  0
  190.0770  176.5500  143.3310 N   0  0  0  0  0  0  0  0  0  0  0  0
  191.0000  178.4810  143.8540 C   0  0  0  0  0  0  0  0  0  0  0  0
  192.1310  175.3260  145.1370 O   0  0  0  0  0  0  0  0  0  0  0  0
  191.5910  177.0420  146.6170 N   0  0  0  0  0  2  0  0  0  0  0  0
  192.2200  176.4100  147.6960 N   0  0  0  0  0  1  0  0  0  0  0  0
  191.5750  176.4460  145.3200 C   0  0  0  0  0  0  0  0  0  0  0  0
  189.3320  177.6320  140.0590 C   0  0  0  0  0  2  0  0  0  0  0  0
  190.5550  176.7870  139.7450 C   0  0  0  0  0  2  0  0  0  0  0  0
  190.8220  176.8300  138.3150 N   0  0  0  0  0  2  0  0  0  0  0  0
  191.3510  175.5290  137.9160 C   0  0  1  0  0  3  0  0  0  0  0  0
  188.7520  173.5350  136.8200 C   0  0  0  0  0  0  0  0  0  0  0  0
  189.7690  176.0070  136.0740 O   0  0  0  0  0  0  0  0  0  0  0  0
  190.2290  173.6430  136.5710 C   0  0  0  0  0  2  0  0  0  0  0  0
  188.6710  176.0160  136.9580 C   0  0  0  0  0  2  0  0  0  0  0  0
  190.7350  175.0960  136.5700 C   0  0  2  0  0  3  0  0  0  0  0  0
  187.8580  174.7390  136.8070 C   0  0  0  0  0  2  0  0  0  0  0  0
  188.2610  172.4330  136.9920 O   0  0  0  0  0  0  0  0  0  0  0  0
  193.4170  176.6640  137.9290 O   0  0  0  0  0  0  0  0  0  0  0  0
  193.6710  174.3510  137.6260 C   0  0  0  0  0  1  0  0  0  0  0  0
  192.8550  175.5870  137.8170 C   0  0  0  0  0  0  0  0  0  0  0  0
  185.3060  178.8870  144.4230 C   0  0  0  0  0  2  0  0  0  0  0  0
  184.5420  179.3720  143.2100 C   0  0  0  0  0  2  0  0  0  0  0  0
  181.2560  178.2760  143.8150 C   0  0  0  0  0  2  0  0  0  0  0  0
  182.1550  178.7700  142.6970 C   0  0  0  0  0  0  0  0  0  0  0  0
  181.6840  179.7360  143.7660 C   0  0  0  0  0  2  0  0  0  0  0  0
  183.5980  178.3020  142.6990 C   0  0  1  0  0  3  0  0  0  0  0  0
  182.8370  178.8500  140.4250 C   0  0  0  0  0  2  0  0  0  0  0  0
  183.8770  178.0660  141.2210 C   0  0  0  0  0  2  0  0  0  0  0  0
  181.5990  178.9880  141.3040 C   0  0  1  0  0  3  0  0  0  0  0  0
  180.5890  177.9070  140.9290 C   0  0  0  0  0  2  0  0  0  0  0  0
  180.5920  176.1510  139.2120 C   0  0  0  0  0  3  0  0  0  0  0  0
  180.8220  177.4240  139.5330 C   0  0  0  0  0  3  0  0  0  0  0  0
  182.5690  176.2600  136.2790 C   0  0  2  0  0  3  0  0  0  0  0  0
  183.2110  177.4610  136.5960 O   0  0  0  0  0  1  0  0  0  0  0  0
  181.1580  176.5090  135.7810 C   0  0  2  0  0  3  0  0  0  0  0  0
  181.0350  177.7480  134.9120 C   0  0  0  0  0  1  0  0  0  0  0  0
  180.8210  175.6670  137.8180 C   0  0  1  0  0  3  0  0  0  0  0  0
  180.3060  176.5950  136.8930 O   0  0  0  0  0  0  0  0  0  0  0  0
  182.3150  175.5110  137.5700 C   0  0  1  0  0  3  0  0  0  0  0  0
  182.0720  171.7860  136.9830 C   0  0  0  0  0  2  0  0  0  0  0  0
  183.8670  173.9570  136.6510 C   0  0  0  0  0  2  0  0  0  0  0  0
  182.7030  174.0930  137.5290 N   0  0  0  0  0  0  0  0  0  0  0  0
  181.6100  173.2420  137.0340 C   0  0  0  0  0  2  0  0  0  0  0  0
  183.6630  170.2890  136.1520 C   0  0  0  0  0  1  0  0  0  0  0  0
  183.2170  171.6680  136.0830 N   0  0  0  0  0  0  0  0  0  0  0  0
  184.3080  172.4930  136.5980 C   0  0  0  0  0  2  0  0  0  0  0  0
  2  3  2  0  0  0  0
  3 30  1  0  0  0  0
  3  1  1  0  0  0  0
  4  2  2  0  0  0  0
  5 16  1  6  0  0  0
  5  4  1  0  0  0  0
  5  7  1  0  0  0  0
  6 15  1  0  0  0  0
  7  9  1  0  0  0  0
  7 10  1  0  0  0  0
  9 11  2  0  0  0  0
 10  6  2  0  0  0  0
 11  6  1  0  0  0  0
 11  8  1  0  0  0  0
 12 15  2  0  0  0  0
 13 14  1  0  0  0  0
 15 13  1  0  0  0  0
 17 16  1  0  0  0  0
 18 17  1  0  0  0  0
 19 29  1  6  0  0  0
 19 18  1  0  0  0  0
 20 26  2  0  0  0  0
 21 24  1  0  0  0  0
 21 23  1  0  0  0  0
 22 20  1  0  0  0  0
 24 22  1  0  0  0  0
 24 19  1  1  0  0  0
 25 20  1  0  0  0  0
 25 23  1  0  0  0  0
 28 29  1  0  0  0  0
 29 27  2  0  0  0  0
 31 30  1  0  0  0  0
 33 35  1  0  0  0  0
 33 34  1  0  0  0  0
 33 32  1  0  0  0  0
 34 32  1  0  0  0  0
 35 31  1  6  0  0  0
 36 37  1  0  0  0  0
 36 38  1  0  0  0  0
 37 35  1  0  0  0  0
 38 39  1  6  0  0  0
 38 33  1  0  0  0  0
 40 41  2  0  0  0  0
 41 39  1  0  0  0  0
 42 43  1  1  0  0  0
 42 48  1  0  0  0  0
 44 45  1  1  0  0  0
 44 42  1  0  0  0  0
 44 47  1  0  0  0  0
 46 40  1  1  0  0  0
 47 46  1  0  0  0  0
 48 51  1  6  0  0  0
 48 46  1  0  0  0  0
 49 52  1  0  0  0  0
 50 51  1  0  0  0  0
 52 51  1  0  0  0  0
 54 53  1  0  0  0  0
 54 55  1  0  0  0  0
 54 49  1  0  0  0  0
 55 50  1  0  0  0  0
M  END
>  <MODEL>
3

>  <REMARK>
 VINA RESULT:      -7.1      1.928      2.509
  Name = 
  16 active torsions:
  status: ('A' for Active; 'I' for Inactive)
    1  A    between atoms: C_1  and  C_35
    2  A    between atoms: C_1  and  C_55
    3  A    between atoms: C_7  and  C_49
    4  A    between atoms: C_8  and  C_21
    5  A    between atoms: N_12  and  C_41
    6  A    between atoms: C_15  and  C_33
    7  A    between atoms: C_15  and  N_52
    8  A    between atoms: C_17  and  C_46
    9  A    between atoms: C_17  and  C_47
   10  A    between atoms: C_17  and  N_52
   11  A    between atoms: C_19  and  C_27
   12  A    between atoms: C_19  and  C_31
   13  A    between atoms: N_23  and  C_42
   14  A    between atoms: C_27  and  C_50
   15  A    between atoms: C_33  and  C_41
   16  A    between atoms: C_41  and  C_43
                            x       y       z     vdW  Elec       q    Type
                         _______ _______ _______ _____ _____    ______ ____

>  <TORSDO>
F 16

$$$$
=
 OpenBabel11042410173D

 55 60  0  0  1  0  0  0  0  0999 V2000
  192.1310  177.4030  140.3570 C   0  0  0  0  0  1  0  0  0  0  0  0
  189.8250  176.9660  139.7730 C   0  0  0  0  0  0  0  0  0  0  0  0
  191.0830  176.7880  139.4870 C   0  0  0  0  0  0  0  0  0  0  0  0
  188.5720  177.1520  140.0840 C   0  0  0  0  0  3  0  0  0  0  0  0
  188.2180  177.8340  141.3690 C   0  0  2  0  0  3  0  0  0  0  0  0
  184.8800  178.9030  141.9080 C   0  0  0  0  0  0  0  0  0  0  0  0
  186.8530  178.3530  141.3040 N   0  0  0  0  0  0  0  0  0  0  0  0
  183.9340  179.4750  139.5750 C   0  0  0  0  0  1  0  0  0  0  0  0
  186.2290  178.6700  140.1780 N   0  0  0  0  0  0  0  0  0  0  0  0
  186.0680  178.4680  142.3680 N   0  0  0  0  0  0  0  0  0  0  0  0
  184.9840  179.0290  140.5340 C   0  0  0  0  0  0  0  0  0  0  0  0
  183.8520  179.7720  143.8710 O   0  0  0  0  0  0  0  0  0  0  0  0
  182.4150  178.7600  142.3430 N   0  0  0  0  0  2  0  0  0  0  0  0
  181.2830  179.0090  143.1280 N   0  0  0  0  0  1  0  0  0  0  0  0
  183.7130  179.1740  142.7670 C   0  0  0  0  0  0  0  0  0  0  0  0
  189.2010  178.9600  141.6890 C   0  0  0  0  0  2  0  0  0  0  0  0
  189.7600  178.8370  143.0960 C   0  0  0  0  0  2  0  0  0  0  0  0
  189.3970  177.5420  143.6530 N   0  0  0  0  0  2  0  0  0  0  0  0
  189.7970  177.5270  145.0570 C   0  0  1  0  0  3  0  0  0  0  0  0
  188.0750  177.8930  148.0290 C   0  0  0  0  0  0  0  0  0  0  0  0
  187.4330  176.9450  145.5010 O   0  0  0  0  0  0  0  0  0  0  0  0
  188.9830  176.8690  147.4090 C   0  0  0  0  0  2  0  0  0  0  0  0
  187.1060  178.2890  145.7740 C   0  0  0  0  0  2  0  0  0  0  0  0
  188.7770  176.7240  145.8900 C   0  0  2  0  0  3  0  0  0  0  0  0
  186.9320  178.4990  147.2720 C   0  0  0  0  0  2  0  0  0  0  0  0
  188.2450  178.2030  149.1950 O   0  0  0  0  0  0  0  0  0  0  0  0
  191.8540  177.2330  146.1700 O   0  0  0  0  0  0  0  0  0  0  0  0
  191.7180  175.9720  144.1950 C   0  0  0  0  0  1  0  0  0  0  0  0
  191.1790  176.9380  145.1980 C   0  0  0  0  0  0  0  0  0  0  0  0
  191.4650  175.8410  138.3970 C   0  0  0  0  0  2  0  0  0  0  0  0
  191.9840  176.6030  137.1960 C   0  0  0  0  0  2  0  0  0  0  0  0
  191.3640  173.8310  135.1240 C   0  0  0  0  0  2  0  0  0  0  0  0
  190.6450  174.8580  135.9770 C   0  0  0  0  0  0  0  0  0  0  0  0
  191.4640  173.7690  136.6410 C   0  0  0  0  0  2  0  0  0  0  0  0
  191.1730  176.2810  135.9570 C   0  0  1  0  0  3  0  0  0  0  0  0
  188.7750  176.2240  136.4990 C   0  0  0  0  0  2  0  0  0  0  0  0
  189.8980  177.1140  135.9740 C   0  0  0  0  0  2  0  0  0  0  0  0
  189.1440  174.7810  136.1710 C   0  0  1  0  0  3  0  0  0  0  0  0
  188.4350  174.3560  134.8880 C   0  0  0  0  0  2  0  0  0  0  0  0
  186.0000  174.6760  134.8510 C   0  0  0  0  0  3  0  0  0  0  0  0
  187.0380  173.9060  135.1760 C   0  0  0  0  0  3  0  0  0  0  0  0
  183.7360  173.1360  137.0930 C   0  0  2  0  0  3  0  0  0  0  0  0
  184.7190  172.5260  137.8780 O   0  0  0  0  0  1  0  0  0  0  0  0
  183.5320  172.3860  135.7910 C   0  0  2  0  0  3  0  0  0  0  0  0
  183.6290  170.8780  135.9410 C   0  0  0  0  0  1  0  0  0  0  0  0
  184.6040  174.2280  135.1360 C   0  0  1  0  0  3  0  0  0  0  0  0
  184.4710  172.8540  134.8590 O   0  0  0  0  0  0  0  0  0  0  0  0
  184.2830  174.4620  136.6050 C   0  0  1  0  0  3  0  0  0  0  0  0
  181.6050  177.0020  135.7950 C   0  0  0  0  0  2  0  0  0  0  0  0
  182.4570  175.2900  137.8900 C   0  0  0  0  0  2  0  0  0  0  0  0
  183.3570  175.5920  136.7750 N   0  0  0  0  0  0  0  0  0  0  0  0
  182.5690  175.8400  135.5580 C   0  0  0  0  0  2  0  0  0  0  0  0
  179.8800  177.8450  137.1280 C   0  0  0  0  0  1  0  0  0  0  0  0
  180.7000  176.6710  136.8930 N   0  0  0  0  0  0  0  0  0  0  0  0
  181.4900  176.4560  138.1040 C   0  0  0  0  0  2  0  0  0  0  0  0
  2  4  2  0  0  0  0
  3  2  2  0  0  0  0
  3  1  1  0  0  0  0
  5  4  1  6  0  0  0
  5 16  1  0  0  0  0
  6 10  2  0  0  0  0
  6 15  1  0  0  0  0
  7  5  1  0  0  0  0
  7 10  1  0  0  0  0
  8 11  1  0  0  0  0
  9 11  2  0  0  0  0
  9  7  1  0  0  0  0
 11  6  1  0  0  0  0
 13 15  1  0  0  0  0
 13 14  1  0  0  0  0
 15 12  2  0  0  0  0
 16 17  1  0  0  0  0
 17 18  1  0  0  0  0
 19 18  1  6  0  0  0
 19 29  1  0  0  0  0
 20 26  2  0  0  0  0
 21 23  1  0  0  0  0
 21 24  1  0  0  0  0
 22 20  1  0  0  0  0
 23 25  1  0  0  0  0
 24 19  1  6  0  0  0
 24 22  1  0  0  0  0
 25 20  1  0  0  0  0
 28 29  1  0  0  0  0
 29 27  2  0  0  0  0
 30  3  1  0  0  0  0
 31 30  1  0  0  0  0
 32 33  1  0  0  0  0
 32 34  1  0  0  0  0
 33 38  1  0  0  0  0
 33 34  1  0  0  0  0
 35 37  1  0  0  0  0
 35 33  1  0  0  0  0
 35 31  1  1  0  0  0
 37 36  1  0  0  0  0
 38 39  1  6  0  0  0
 38 36  1  0  0  0  0
 39 41  1  0  0  0  0
 40 41  2  0  0  0  0
 42 43  1  1  0  0  0
 44 45  1  1  0  0  0
 44 42  1  0  0  0  0
 46 40  1  1  0  0  0
 46 48  1  0  0  0  0
 47 46  1  0  0  0  0
 47 44  1  0  0  0  0
 48 51  1  6  0  0  0
 48 42  1  0  0  0  0
 49 54  1  0  0  0  0
 50 55  1  0  0  0  0
 51 50  1  0  0  0  0
 52 49  1  0  0  0  0
 52 51  1  0  0  0  0
 54 53  1  0  0  0  0
 54 55  1  0  0  0  0
M  END
>  <MODEL>
4

>  <REMARK>
 VINA RESULT:      -6.6      2.993      8.187
  Name = 
  16 active torsions:
  status: ('A' for Active; 'I' for Inactive)
    1  A    between atoms: C_1  and  C_35
    2  A    between atoms: C_1  and  C_55
    3  A    between atoms: C_7  and  C_49
    4  A    between atoms: C_8  and  C_21
    5  A    between atoms: N_12  and  C_41
    6  A    between atoms: C_15  and  C_33
    7  A    between atoms: C_15  and  N_52
    8  A    between atoms: C_17  and  C_46
    9  A    between atoms: C_17  and  C_47
   10  A    between atoms: C_17  and  N_52
   11  A    between atoms: C_19  and  C_27
   12  A    between atoms: C_19  and  C_31
   13  A    between atoms: N_23  and  C_42
   14  A    between atoms: C_27  and  C_50
   15  A    between atoms: C_33  and  C_41
   16  A    between atoms: C_41  and  C_43
                            x       y       z     vdW  Elec       q    Type
                         _______ _______ _______ _____ _____    ______ ____

>  <TORSDO>
F 16

$$$$
=
 OpenBabel11042410173D

 55 60  0  0  1  0  0  0  0  0999 V2000
  189.0510  178.7570  138.8660 C   0  0  0  0  0  1  0  0  0  0  0  0
  190.2760  176.6710  138.8930 C   0  0  0  0  0  0  0  0  0  0  0  0
  189.8550  177.7060  139.5620 C   0  0  0  0  0  0  0  0  0  0  0  0
  190.6810  175.6410  138.2030 C   0  0  0  0  0  3  0  0  0  0  0  0
  190.2090  175.4570  136.7940 C   0  0  2  0  0  3  0  0  0  0  0  0
  186.8680  174.2730  136.8960 C   0  0  0  0  0  0  0  0  0  0  0  0
  188.7620  175.2510  136.7690 N   0  0  0  0  0  0  0  0  0  0  0  0
  185.4080  176.1940  135.9770 C   0  0  0  0  0  1  0  0  0  0  0  0
  187.8910  176.1380  136.3070 N   0  0  0  0  0  0  0  0  0  0  0  0
  188.1860  174.1100  137.1210 N   0  0  0  0  0  0  0  0  0  0  0  0
  186.6860  175.5460  136.3850 C   0  0  0  0  0  0  0  0  0  0  0  0
  185.4680  173.0040  138.3430 O   0  0  0  0  0  0  0  0  0  0  0  0
  185.2940  172.5030  136.0750 N   0  0  0  0  0  2  0  0  0  0  0  0
  184.3200  171.5200  136.2890 N   0  0  0  0  0  1  0  0  0  0  0  0
  185.8510  173.2400  137.1620 C   0  0  0  0  0  0  0  0  0  0  0  0
  190.9240  174.2870  136.1170 C   0  0  0  0  0  2  0  0  0  0  0  0
  191.7550  174.7450  134.9300 C   0  0  0  0  0  2  0  0  0  0  0  0
  193.0200  174.0240  134.9150 N   0  0  0  0  0  2  0  0  0  0  0  0
  193.7970  174.4530  136.0740 C   0  0  1  0  0  3  0  0  0  0  0  0
  196.9560  174.7520  137.4410 C   0  0  0  0  0  0  0  0  0  0  0  0
  195.0510  172.7360  137.3400 O   0  0  0  0  0  0  0  0  0  0  0  0
  196.3710  174.4010  136.1020 C   0  0  0  0  0  2  0  0  0  0  0  0
  195.0640  173.5360  138.5010 C   0  0  0  0  0  2  0  0  0  0  0  0
  195.0680  173.5890  136.2090 C   0  0  2  0  0  3  0  0  0  0  0  0
  196.4440  174.1430  138.7110 C   0  0  0  0  0  2  0  0  0  0  0  0
  197.9030  175.5170  137.4890 O   0  0  0  0  0  0  0  0  0  0  0  0
  194.1760  176.6100  136.9460 O   0  0  0  0  0  0  0  0  0  0  0  0
  194.5320  176.5090  134.6290 C   0  0  0  0  0  1  0  0  0  0  0  0
  194.1590  175.9120  135.9460 C   0  0  0  0  0  0  0  0  0  0  0  0
  190.0350  177.7490  141.0440 C   0  0  0  0  0  2  0  0  0  0  0  0
  188.8620  177.0880  141.7370 C   0  0  0  0  0  2  0  0  0  0  0  0
  186.2250  179.3880  141.3890 C   0  0  0  0  0  2  0  0  0  0  0  0
  186.6490  178.1840  142.2090 C   0  0  0  0  0  0  0  0  0  0  0  0
  186.2520  178.0030  140.7570 C   0  0  0  0  0  2  0  0  0  0  0  0
  188.1120  178.0820  142.6010 C   0  0  1  0  0  3  0  0  0  0  0  0
  186.6710  176.8990  144.2050 C   0  0  0  0  0  2  0  0  0  0  0  0
  188.0430  177.5420  144.0230 C   0  0  0  0  0  2  0  0  0  0  0  0
  185.7120  177.5880  143.2410 C   0  0  1  0  0  3  0  0  0  0  0  0
  184.9370  178.6720  143.9850 C   0  0  0  0  0  2  0  0  0  0  0  0
  182.9890  178.6720  142.4900 C   0  0  0  0  0  3  0  0  0  0  0  0
  183.4690  178.5490  143.7270 C   0  0  0  0  0  3  0  0  0  0  0  0
  180.2430  179.3770  140.3720 C   0  0  2  0  0  3  0  0  0  0  0  0
  180.8800  180.4010  139.6650 O   0  0  0  0  0  1  0  0  0  0  0  0
  179.7880  179.8570  141.7370 C   0  0  2  0  0  3  0  0  0  0  0  0
  179.2690  181.2840  141.7340 C   0  0  0  0  0  1  0  0  0  0  0  0
  181.5240  178.5460  142.2290 C   0  0  1  0  0  3  0  0  0  0  0  0
  180.8590  179.7200  142.6340 O   0  0  0  0  0  0  0  0  0  0  0  0
  181.2870  178.3430  140.7390 C   0  0  1  0  0  3  0  0  0  0  0  0
  179.1780  175.4350  139.5660 C   0  0  0  0  0  2  0  0  0  0  0  0
  181.8490  176.3870  139.5010 C   0  0  0  0  0  2  0  0  0  0  0  0
  180.8870  176.9570  140.4480 N   0  0  0  0  0  0  0  0  0  0  0  0
  179.5330  176.8880  139.8770 C   0  0  0  0  0  2  0  0  0  0  0  0
  179.7990  173.4930  138.4220 C   0  0  0  0  0  1  0  0  0  0  0  0
  180.1330  174.8940  138.6020 N   0  0  0  0  0  0  0  0  0  0  0  0
  181.4710  174.9390  139.1880 C   0  0  0  0  0  2  0  0  0  0  0  0
  1  3  1  0  0  0  0
  2  3  2  0  0  0  0
  3 30  1  0  0  0  0
  4  2  2  0  0  0  0
  5 16  1  1  0  0  0
  5  4  1  0  0  0  0
  6 10  2  0  0  0  0
  6 15  1  0  0  0  0
  7  5  1  0  0  0  0
  7 10  1  0  0  0  0
  8 11  1  0  0  0  0
  9 11  2  0  0  0  0
  9  7  1  0  0  0  0
 11  6  1  0  0  0  0
 13 14  1  0  0  0  0
 13 15  1  0  0  0  0
 15 12  2  0  0  0  0
 17 16  1  0  0  0  0
 18 17  1  0  0  0  0
 19 18  1  6  0  0  0
 20 26  2  0  0  0  0
 20 25  1  0  0  0  0
 21 23  1  0  0  0  0
 22 24  1  0  0  0  0
 22 20  1  0  0  0  0
 23 25  1  0  0  0  0
 24 19  1  1  0  0  0
 24 21  1  0  0  0  0
 28 29  1  0  0  0  0
 29 19  1  0  0  0  0
 29 27  2  0  0  0  0
 30 31  1  0  0  0  0
 32 33  1  0  0  0  0
 33 35  1  0  0  0  0
 33 38  1  0  0  0  0
 34 32  1  0  0  0  0
 34 33  1  0  0  0  0
 35 31  1  6  0  0  0
 35 37  1  0  0  0  0
 37 36  1  0  0  0  0
 38 39  1  1  0  0  0
 38 36  1  0  0  0  0
 40 41  2  0  0  0  0
 41 39  1  0  0  0  0
 42 43  1  6  0  0  0
 42 48  1  0  0  0  0
 42 44  1  0  0  0  0
 44 45  1  6  0  0  0
 44 47  1  0  0  0  0
 46 40  1  6  0  0  0
 46 47  1  0  0  0  0
 48 51  1  1  0  0  0
 48 46  1  0  0  0  0
 49 52  1  0  0  0  0
 50 51  1  0  0  0  0
 52 51  1  0  0  0  0
 53 54  1  0  0  0  0
 54 55  1  0  0  0  0
 54 49  1  0  0  0  0
 55 50  1  0  0  0  0
M  END
>  <MODEL>
5

>  <REMARK>
 VINA RESULT:      -6.5      3.950      7.504
  Name = 
  16 active torsions:
  status: ('A' for Active; 'I' for Inactive)
    1  A    between atoms: C_1  and  C_35
    2  A    between atoms: C_1  and  C_55
    3  A    between atoms: C_7  and  C_49
    4  A    between atoms: C_8  and  C_21
    5  A    between atoms: N_12  and  C_41
    6  A    between atoms: C_15  and  C_33
    7  A    between atoms: C_15  and  N_52
    8  A    between atoms: C_17  and  C_46
    9  A    between atoms: C_17  and  C_47
   10  A    between atoms: C_17  and  N_52
   11  A    between atoms: C_19  and  C_27
   12  A    between atoms: C_19  and  C_31
   13  A    between atoms: N_23  and  C_42
   14  A    between atoms: C_27  and  C_50
   15  A    between atoms: C_33  and  C_41
   16  A    between atoms: C_41  and  C_43
                            x       y       z     vdW  Elec       q    Type
                         _______ _______ _______ _____ _____    ______ ____

>  <TORSDO>
F 16

$$$$
=
 OpenBabel11042410173D

 55 60  0  0  1  0  0  0  0  0999 V2000
  184.2930  179.5110  144.2800 C   0  0  0  0  0  1  0  0  0  0  0  0
  184.8780  178.3650  142.2330 C   0  0  0  0  0  0  0  0  0  0  0  0
  185.0570  178.4780  143.5180 C   0  0  0  0  0  0  0  0  0  0  0  0
  184.6780  178.2670  140.9480 C   0  0  0  0  0  3  0  0  0  0  0  0
  183.5910  179.0700  140.3010 C   0  0  2  0  0  3  0  0  0  0  0  0
  180.6360  177.1590  140.7380 C   0  0  0  0  0  0  0  0  0  0  0  0
  182.2830  178.5160  140.6430 N   0  0  0  0  0  0  0  0  0  0  0  0
  178.9310  178.7400  141.8600 C   0  0  0  0  0  1  0  0  0  0  0  0
  181.3020  179.2110  141.2030 N   0  0  0  0  0  0  0  0  0  0  0  0
  181.9160  177.2790  140.3360 N   0  0  0  0  0  0  0  0  0  0  0  0
  180.2540  178.3730  141.2810 C   0  0  0  0  0  0  0  0  0  0  0  0
  178.9720  175.6180  141.4600 O   0  0  0  0  0  0  0  0  0  0  0  0
  180.0430  175.0840  139.4620 N   0  0  0  0  0  2  0  0  0  0  0  0
  179.2970  173.9130  139.2870 N   0  0  0  0  0  1  0  0  0  0  0  0
  179.8370  175.9290  140.5940 C   0  0  0  0  0  0  0  0  0  0  0  0
  183.7670  179.1200  138.7830 C   0  0  0  0  0  2  0  0  0  0  0  0
  184.2040  177.7770  138.2220 C   0  0  0  0  0  2  0  0  0  0  0  0
  183.5690  177.5580  136.9310 N   0  0  0  0  0  2  0  0  0  0  0  0
  182.7820  176.3310  137.0180 C   0  0  1  0  0  3  0  0  0  0  0  0
  180.6620  178.9710  136.3360 C   0  0  0  0  0  0  0  0  0  0  0  0
  181.4410  176.6850  134.9690 O   0  0  0  0  0  0  0  0  0  0  0  0
  180.5760  177.6560  137.0560 C   0  0  0  0  0  2  0  0  0  0  0  0
  182.1370  177.8730  134.6630 C   0  0  0  0  0  2  0  0  0  0  0  0
  181.3950  176.5440  136.3780 C   0  0  2  0  0  3  0  0  0  0  0  0
  181.2740  179.0880  134.9730 C   0  0  0  0  0  2  0  0  0  0  0  0
  180.1780  179.9620  136.8560 O   0  0  0  0  0  0  0  0  0  0  0  0
  184.4340  175.4520  135.5840 O   0  0  0  0  0  0  0  0  0  0  0  0
  183.1530  173.7730  136.6090 C   0  0  0  0  0  1  0  0  0  0  0  0
  183.5120  175.1970  136.3410 C   0  0  0  0  0  0  0  0  0  0  0  0
  185.8930  177.4710  144.2370 C   0  0  0  0  0  2  0  0  0  0  0  0
  187.2430  178.0600  144.5860 C   0  0  0  0  0  2  0  0  0  0  0  0
  188.7160  177.2610  141.4950 C   0  0  0  0  0  2  0  0  0  0  0  0
  189.0610  177.8080  142.8670 C   0  0  0  0  0  0  0  0  0  0  0  0
  188.2590  178.6560  141.8980 C   0  0  0  0  0  2  0  0  0  0  0  0
  188.3670  177.1870  144.0640 C   0  0  1  0  0  3  0  0  0  0  0  0
  190.5460  178.1410  144.6880 C   0  0  0  0  0  2  0  0  0  0  0  0
  189.4750  177.1380  145.1080 C   0  0  0  0  0  2  0  0  0  0  0  0
  190.4660  178.2870  143.1720 C   0  0  1  0  0  3  0  0  0  0  0  0
  191.5160  177.3910  142.5200 C   0  0  0  0  0  2  0  0  0  0  0  0
  191.6590  176.5820  140.2060 C   0  0  0  0  0  3  0  0  0  0  0  0
  191.5620  177.6150  141.0420 C   0  0  0  0  0  3  0  0  0  0  0  0
  191.7810  175.1780  136.9600 C   0  0  2  0  0  3  0  0  0  0  0  0
  192.2090  173.9140  137.3780 O   0  0  0  0  0  1  0  0  0  0  0  0
  192.9250  176.1740  136.9730 C   0  0  2  0  0  3  0  0  0  0  0  0
  194.2490  175.5790  136.5290 C   0  0  0  0  0  1  0  0  0  0  0  0
  191.7020  176.8020  138.7290 C   0  0  1  0  0  3  0  0  0  0  0  0
  193.0290  176.7100  138.2660 O   0  0  0  0  0  0  0  0  0  0  0  0
  190.8680  175.7390  138.0300 C   0  0  1  0  0  3  0  0  0  0  0  0
  188.4090  178.2770  136.6910 C   0  0  0  0  0  2  0  0  0  0  0  0
  189.2700  175.6080  136.2690 C   0  0  0  0  0  2  0  0  0  0  0  0
  189.6120  176.3030  137.5120 N   0  0  0  0  0  0  0  0  0  0  0  0
  189.7270  177.7470  137.2530 C   0  0  0  0  0  2  0  0  0  0  0  0
  186.7980  178.0680  135.0100 C   0  0  0  0  0  1  0  0  0  0  0  0
  188.0990  177.5890  135.4400 N   0  0  0  0  0  0  0  0  0  0  0  0
  187.9570  176.1600  135.7110 C   0  0  0  0  0  2  0  0  0  0  0  0
  2  3  2  0  0  0  0
  3 30  1  0  0  0  0
  3  1  1  0  0  0  0
  4  2  2  0  0  0  0
  5 16  1  6  0  0  0
  5  7  1  0  0  0  0
  5  4  1  0  0  0  0
  6 11  1  0  0  0  0
  7  9  1  0  0  0  0
  9 11  2  0  0  0  0
 10  7  1  0  0  0  0
 10  6  2  0  0  0  0
 11  8  1  0  0  0  0
 13 15  1  0  0  0  0
 14 13  1  0  0  0  0
 15  6  1  0  0  0  0
 15 12  2  0  0  0  0
 17 16  1  0  0  0  0
 18 19  1  0  0  0  0
 18 17  1  0  0  0  0
 19 29  1  6  0  0  0
 20 26  2  0  0  0  0
 20 22  1  0  0  0  0
 21 24  1  0  0  0  0
 23 21  1  0  0  0  0
 23 25  1  0  0  0  0
 24 19  1  1  0  0  0
 24 22  1  0  0  0  0
 25 20  1  0  0  0  0
 27 29  2  0  0  0  0
 29 28  1  0  0  0  0
 30 31  1  0  0  0  0
 32 34  1  0  0  0  0
 32 33  1  0  0  0  0
 33 38  1  0  0  0  0
 33 35  1  0  0  0  0
 34 33  1  0  0  0  0
 35 31  1  1  0  0  0
 35 37  1  0  0  0  0
 36 37  1  0  0  0  0
 38 39  1  6  0  0  0
 38 36  1  0  0  0  0
 40 41  2  0  0  0  0
 41 39  1  0  0  0  0
 42 44  1  0  0  0  0
 42 43  1  1  0  0  0
 42 48  1  0  0  0  0
 44 45  1  1  0  0  0
 44 47  1  0  0  0  0
 46 40  1  1  0  0  0
 47 46  1  0  0  0  0
 48 51  1  6  0  0  0
 48 46  1  0  0  0  0
 49 52  1  0  0  0  0
 50 51  1  0  0  0  0
 52 51  1  0  0  0  0
 53 54  1  0  0  0  0
 54 55  1  0  0  0  0
 54 49  1  0  0  0  0
 55 50  1  0  0  0  0
M  END
>  <MODEL>
6

>  <REMARK>
 VINA RESULT:      -6.5      3.365      9.146
  Name = 
  16 active torsions:
  status: ('A' for Active; 'I' for Inactive)
    1  A    between atoms: C_1  and  C_35
    2  A    between atoms: C_1  and  C_55
    3  A    between atoms: C_7  and  C_49
    4  A    between atoms: C_8  and  C_21
    5  A    between atoms: N_12  and  C_41
    6  A    between atoms: C_15  and  C_33
    7  A    between atoms: C_15  and  N_52
    8  A    between atoms: C_17  and  C_46
    9  A    between atoms: C_17  and  C_47
   10  A    between atoms: C_17  and  N_52
   11  A    between atoms: C_19  and  C_27
   12  A    between atoms: C_19  and  C_31
   13  A    between atoms: N_23  and  C_42
   14  A    between atoms: C_27  and  C_50
   15  A    between atoms: C_33  and  C_41
   16  A    between atoms: C_41  and  C_43
                            x       y       z     vdW  Elec       q    Type
                         _______ _______ _______ _____ _____    ______ ____

>  <TORSDO>
F 16

$$$$
=
 OpenBabel11042410173D

 55 60  0  0  1  0  0  0  0  0999 V2000
  185.2960  179.8700  143.2300 C   0  0  0  0  0  1  0  0  0  0  0  0
  185.8870  177.5250  143.2000 C   0  0  0  0  0  0  0  0  0  0  0  0
  184.9480  178.4220  143.1030 C   0  0  0  0  0  0  0  0  0  0  0  0
  186.8450  176.6450  143.2950 C   0  0  0  0  0  3  0  0  0  0  0  0
  188.2690  177.1020  143.3710 C   0  0  2  0  0  3  0  0  0  0  0  0
  189.9270  176.9970  146.5040 C   0  0  0  0  0  0  0  0  0  0  0  0
  188.7000  177.1780  144.7660 N   0  0  0  0  0  0  0  0  0  0  0  0
  188.1390  177.5830  148.2720 C   0  0  0  0  0  1  0  0  0  0  0  0
  187.8910  177.4480  145.7820 N   0  0  0  0  0  0  0  0  0  0  0  0
  189.9320  176.8880  145.1620 N   0  0  0  0  0  0  0  0  0  0  0  0
  188.6450  177.3480  146.8900 C   0  0  0  0  0  0  0  0  0  0  0  0
  191.3190  177.4860  148.3720 O   0  0  0  0  0  0  0  0  0  0  0  0
  192.0190  175.7170  147.0270 N   0  0  0  0  0  2  0  0  0  0  0  0
  193.1460  175.4640  147.8170 N   0  0  0  0  0  1  0  0  0  0  0  0
  191.1080  176.7660  147.3550 C   0  0  0  0  0  0  0  0  0  0  0  0
  188.4560  178.4540  142.6820 C   0  0  0  0  0  2  0  0  0  0  0  0
  189.2790  178.3300  141.4110 C   0  0  0  0  0  2  0  0  0  0  0  0
  188.4590  177.7570  140.3540 N   0  0  0  0  0  2  0  0  0  0  0  0
  189.2250  177.8080  139.1120 C   0  0  1  0  0  3  0  0  0  0  0  0
  190.6950  176.3030  136.3720 C   0  0  0  0  0  0  0  0  0  0  0  0
  190.8430  175.9350  139.1190 O   0  0  0  0  0  0  0  0  0  0  0  0
  189.4080  176.1700  137.1360 C   0  0  0  0  0  2  0  0  0  0  0  0
  191.8430  176.7370  138.5340 C   0  0  0  0  0  2  0  0  0  0  0  0
  189.5820  176.3810  138.6500 C   0  0  2  0  0  3  0  0  0  0  0  0
  192.0210  176.3770  137.0660 C   0  0  0  0  0  2  0  0  0  0  0  0
  190.6610  176.3040  135.1540 O   0  0  0  0  0  0  0  0  0  0  0  0
  189.0060  179.3480  137.3400 O   0  0  0  0  0  0  0  0  0  0  0  0
  186.9930  178.2360  137.8120 C   0  0  0  0  0  1  0  0  0  0  0  0
  188.4390  178.5300  138.0460 C   0  0  0  0  0  0  0  0  0  0  0  0
  183.5700  178.0090  142.7020 C   0  0  0  0  0  2  0  0  0  0  0  0
  182.8170  179.1850  142.1180 C   0  0  0  0  0  2  0  0  0  0  0  0
  183.1740  179.9650  138.7090 C   0  0  0  0  0  2  0  0  0  0  0  0
  183.1630  178.7840  139.6600 C   0  0  0  0  0  0  0  0  0  0  0  0
  184.3340  179.7470  139.6700 C   0  0  0  0  0  2  0  0  0  0  0  0
  182.1640  178.8130  140.8020 C   0  0  1  0  0  3  0  0  0  0  0  0
  182.7490  176.5060  140.1830 C   0  0  0  0  0  2  0  0  0  0  0  0
  181.6970  177.3660  140.8780 C   0  0  0  0  0  2  0  0  0  0  0  0
  183.4490  177.3850  139.1520 C   0  0  1  0  0  3  0  0  0  0  0  0
  182.8260  177.1500  137.7790 C   0  0  0  0  0  2  0  0  0  0  0  0
  183.3710  175.7320  135.8490 C   0  0  0  0  0  3  0  0  0  0  0  0
  183.3390  175.8830  137.1720 C   0  0  0  0  0  3  0  0  0  0  0  0
  184.8300  172.5440  136.3250 C   0  0  2  0  0  3  0  0  0  0  0  0
  185.2860  172.7980  137.6220 O   0  0  0  0  0  1  0  0  0  0  0  0
  185.7220  173.2060  135.2920 C   0  0  2  0  0  3  0  0  0  0  0  0
  187.1960  173.1700  135.6550 C   0  0  0  0  0  1  0  0  0  0  0  0
  183.8850  174.4690  135.2410 C   0  0  1  0  0  3  0  0  0  0  0  0
  185.2860  174.5280  135.1150 O   0  0  0  0  0  0  0  0  0  0  0  0
  183.5260  173.2890  136.1330 C   0  0  1  0  0  3  0  0  0  0  0  0
  181.2200  170.3570  135.5310 C   0  0  0  0  0  2  0  0  0  0  0  0
  181.1830  173.1870  135.7170 C   0  0  0  0  0  2  0  0  0  0  0  0
  182.4530  172.4780  135.5390 N   0  0  0  0  0  0  0  0  0  0  0  0
  182.3660  171.1470  136.1620 C   0  0  0  0  0  2  0  0  0  0  0  0
  178.9340  170.3180  135.0420 C   0  0  0  0  0  1  0  0  0  0  0  0
  179.9610  171.0680  135.7420 N   0  0  0  0  0  0  0  0  0  0  0  0
  180.0460  172.3760  135.0950 C   0  0  0  0  0  2  0  0  0  0  0  0
  2  4  2  0  0  0  0
  3  2  2  0  0  0  0
  3  1  1  0  0  0  0
  4  5  1  0  0  0  0
  5 16  1  1  0  0  0
  5  7  1  0  0  0  0
  6 11  1  0  0  0  0
  6 15  1  0  0  0  0
  7 10  1  0  0  0  0
  7  9  1  0  0  0  0
  9 11  2  0  0  0  0
 10  6  2  0  0  0  0
 11  8  1  0  0  0  0
 13 15  1  0  0  0  0
 13 14  1  0  0  0  0
 15 12  2  0  0  0  0
 17 16  1  0  0  0  0
 18 17  1  0  0  0  0
 19 29  1  6  0  0  0
 19 18  1  0  0  0  0
 20 25  1  0  0  0  0
 20 22  1  0  0  0  0
 22 24  1  0  0  0  0
 23 21  1  0  0  0  0
 24 19  1  6  0  0  0
 24 21  1  0  0  0  0
 25 23  1  0  0  0  0
 26 20  2  0  0  0  0
 27 29  2  0  0  0  0
 28 29  1  0  0  0  0
 30  3  1  0  0  0  0
 31 30  1  0  0  0  0
 32 33  1  0  0  0  0
 32 34  1  0  0  0  0
 33 34  1  0  0  0  0
 33 35  1  0  0  0  0
 35 37  1  0  0  0  0
 35 31  1  1  0  0  0
 36 37  1  0  0  0  0
 38 39  1  6  0  0  0
 38 33  1  0  0  0  0
 38 36  1  0  0  0  0
 40 41  2  0  0  0  0
 41 39  1  0  0  0  0
 42 43  1  1  0  0  0
 44 45  1  1  0  0  0
 44 42  1  0  0  0  0
 46 40  1  1  0  0  0
 46 48  1  0  0  0  0
 47 46  1  0  0  0  0
 47 44  1  0  0  0  0
 48 51  1  6  0  0  0
 48 42  1  0  0  0  0
 49 54  1  0  0  0  0
 49 52  1  0  0  0  0
 51 50  1  0  0  0  0
 51 52  1  0  0  0  0
 53 54  1  0  0  0  0
 55 50  1  0  0  0  0
 55 54  1  0  0  0  0
M  END
>  <MODEL>
7

>  <REMARK>
 VINA RESULT:      -6.4      2.316      4.012
  Name = 
  16 active torsions:
  status: ('A' for Active; 'I' for Inactive)
    1  A    between atoms: C_1  and  C_35
    2  A    between atoms: C_1  and  C_55
    3  A    between atoms: C_7  and  C_49
    4  A    between atoms: C_8  and  C_21
    5  A    between atoms: N_12  and  C_41
    6  A    between atoms: C_15  and  C_33
    7  A    between atoms: C_15  and  N_52
    8  A    between atoms: C_17  and  C_46
    9  A    between atoms: C_17  and  C_47
   10  A    between atoms: C_17  and  N_52
   11  A    between atoms: C_19  and  C_27
   12  A    between atoms: C_19  and  C_31
   13  A    between atoms: N_23  and  C_42
   14  A    between atoms: C_27  and  C_50
   15  A    between atoms: C_33  and  C_41
   16  A    between atoms: C_41  and  C_43
                            x       y       z     vdW  Elec       q    Type
                         _______ _______ _______ _____ _____    ______ ____

>  <TORSDO>
F 16

$$$$
=
 OpenBabel11042410173D

 55 60  0  0  1  0  0  0  0  0999 V2000
  185.4750  180.0840  144.6570 C   0  0  0  0  0  1  0  0  0  0  0  0
  185.2710  178.6010  142.7570 C   0  0  0  0  0  0  0  0  0  0  0  0
  184.7600  179.0280  143.8760 C   0  0  0  0  0  0  0  0  0  0  0  0
  185.7980  178.1930  141.6360 C   0  0  0  0  0  3  0  0  0  0  0  0
  187.0050  178.8890  141.0850 C   0  0  2  0  0  3  0  0  0  0  0  0
  188.6250  177.2940  138.3640 C   0  0  0  0  0  0  0  0  0  0  0  0
  187.4120  178.2700  139.8250 N   0  0  0  0  0  0  0  0  0  0  0  0
  187.0350  177.5470  136.3460 C   0  0  0  0  0  1  0  0  0  0  0  0
  186.7090  178.3350  138.7020 N   0  0  0  0  0  0  0  0  0  0  0  0
  188.5790  177.6620  139.6580 N   0  0  0  0  0  0  0  0  0  0  0  0
  187.4510  177.7170  137.7670 C   0  0  0  0  0  0  0  0  0  0  0  0
  190.1080  176.8190  136.5640 O   0  0  0  0  0  0  0  0  0  0  0  0
  190.4590  175.5900  138.5110 N   0  0  0  0  0  2  0  0  0  0  0  0
  191.5430  174.8930  137.9650 N   0  0  0  0  0  1  0  0  0  0  0  0
  189.7560  176.5730  137.7520 C   0  0  0  0  0  0  0  0  0  0  0  0
  188.1610  178.8690  142.0850 C   0  0  0  0  0  2  0  0  0  0  0  0
  187.9940  177.7680  143.1180 C   0  0  0  0  0  2  0  0  0  0  0  0
  188.7000  178.1330  144.3380 N   0  0  0  0  0  2  0  0  0  0  0  0
  189.0440  176.9020  145.0450 C   0  0  1  0  0  3  0  0  0  0  0  0
  191.4590  177.2980  142.6070 C   0  0  0  0  0  0  0  0  0  0  0  0
  191.3970  177.6010  145.3650 O   0  0  0  0  0  0  0  0  0  0  0  0
  190.9070  176.1680  143.4280 C   0  0  0  0  0  2  0  0  0  0  0  0
  191.2030  178.7670  144.5960 C   0  0  0  0  0  2  0  0  0  0  0  0
  190.5430  176.5880  144.8630 C   0  0  2  0  0  3  0  0  0  0  0  0
  191.8410  178.6100  143.2240 C   0  0  0  0  0  2  0  0  0  0  0  0
  191.6450  177.1260  141.4150 O   0  0  0  0  0  0  0  0  0  0  0  0
  189.5470  176.7510  147.3430 O   0  0  0  0  0  0  0  0  0  0  0  0
  187.3670  177.5300  146.9550 C   0  0  0  0  0  1  0  0  0  0  0  0
  188.7020  177.0310  146.5090 C   0  0  0  0  0  0  0  0  0  0  0  0
  183.3940  178.5830  144.2820 C   0  0  0  0  0  2  0  0  0  0  0  0
  182.3400  179.3820  143.5450 C   0  0  0  0  0  2  0  0  0  0  0  0
  178.9370  178.7060  142.9790 C   0  0  0  0  0  2  0  0  0  0  0  0
  180.1950  179.1450  142.2550 C   0  0  0  0  0  0  0  0  0  0  0  0
  179.5130  180.0950  143.2200 C   0  0  0  0  0  2  0  0  0  0  0  0
  181.5010  178.4860  142.6560 C   0  0  1  0  0  3  0  0  0  0  0  0
  181.5770  179.2790  140.3300 C   0  0  0  0  0  2  0  0  0  0  0  0
  182.2140  178.3110  141.3230 C   0  0  0  0  0  2  0  0  0  0  0  0
  180.1440  179.5270  140.7890 C   0  0  1  0  0  3  0  0  0  0  0  0
  179.1980  178.6200  140.0070 C   0  0  0  0  0  2  0  0  0  0  0  0
  179.9750  176.8140  138.5350 C   0  0  0  0  0  3  0  0  0  0  0  0
  179.8520  178.1220  138.7570 C   0  0  0  0  0  3  0  0  0  0  0  0
  182.8280  176.7710  136.4420 C   0  0  2  0  0  3  0  0  0  0  0  0
  183.4120  177.9180  136.9880 O   0  0  0  0  0  1  0  0  0  0  0  0
  181.6900  177.1290  135.5050 C   0  0  2  0  0  3  0  0  0  0  0  0
  181.9570  178.3750  134.6790 C   0  0  0  0  0  1  0  0  0  0  0  0
  180.6250  176.3140  137.2870 C   0  0  1  0  0  3  0  0  0  0  0  0
  180.5210  177.2800  136.2680 O   0  0  0  0  0  0  0  0  0  0  0  0
  182.0990  176.0430  137.5520 C   0  0  1  0  0  3  0  0  0  0  0  0
  181.6510  172.3280  137.0230 C   0  0  0  0  0  2  0  0  0  0  0  0
  183.6450  174.3440  136.9220 C   0  0  0  0  0  2  0  0  0  0  0  0
  182.3740  174.5990  137.6050 N   0  0  0  0  0  0  0  0  0  0  0  0
  181.3050  173.8160  136.9660 C   0  0  0  0  0  2  0  0  0  0  0  0
  183.2260  170.6860  136.4860 C   0  0  0  0  0  1  0  0  0  0  0  0
  182.9080  172.0920  136.3150 N   0  0  0  0  0  0  0  0  0  0  0  0
  183.9690  172.8500  136.9740 C   0  0  0  0  0  2  0  0  0  0  0  0
  2  3  2  0  0  0  0
  3 30  1  0  0  0  0
  3  1  1  0  0  0  0
  4  2  2  0  0  0  0
  5  4  1  1  0  0  0
  5 16  1  0  0  0  0
  6 10  2  0  0  0  0
  7  5  1  0  0  0  0
  8 11  1  0  0  0  0
  9  7  1  0  0  0  0
 10  7  1  0  0  0  0
 11  6  1  0  0  0  0
 11  9  2  0  0  0  0
 12 15  2  0  0  0  0
 14 13  1  0  0  0  0
 15  6  1  0  0  0  0
 15 13  1  0  0  0  0
 16 17  1  0  0  0  0
 17 18  1  0  0  0  0
 19 18  1  6  0  0  0
 19 29  1  0  0  0  0
 20 25  1  0  0  0  0
 20 22  1  0  0  0  0
 22 24  1  0  0  0  0
 23 21  1  0  0  0  0
 24 19  1  6  0  0  0
 24 21  1  0  0  0  0
 25 23  1  0  0  0  0
 26 20  2  0  0  0  0
 29 28  1  0  0  0  0
 29 27  2  0  0  0  0
 31 30  1  0  0  0  0
 32 34  1  0  0  0  0
 33 35  1  0  0  0  0
 33 32  1  0  0  0  0
 33 34  1  0  0  0  0
 35 31  1  1  0  0  0
 36 38  1  0  0  0  0
 36 37  1  0  0  0  0
 37 35  1  0  0  0  0
 38 39  1  6  0  0  0
 38 33  1  0  0  0  0
 40 41  2  0  0  0  0
 41 39  1  0  0  0  0
 42 43  1  1  0  0  0
 42 48  1  0  0  0  0
 44 45  1  1  0  0  0
 44 47  1  0  0  0  0
 44 42  1  0  0  0  0
 46 48  1  0  0  0  0
 46 40  1  1  0  0  0
 47 46  1  0  0  0  0
 48 51  1  6  0  0  0
 50 55  1  0  0  0  0
 50 51  1  0  0  0  0
 52 49  1  0  0  0  0
 52 51  1  0  0  0  0
 54 53  1  0  0  0  0
 54 55  1  0  0  0  0
 54 49  1  0  0  0  0
M  END
>  <MODEL>
8

>  <REMARK>
 VINA RESULT:      -6.4      2.015      5.665
  Name = 
  16 active torsions:
  status: ('A' for Active; 'I' for Inactive)
    1  A    between atoms: C_1  and  C_35
    2  A    between atoms: C_1  and  C_55
    3  A    between atoms: C_7  and  C_49
    4  A    between atoms: C_8  and  C_21
    5  A    between atoms: N_12  and  C_41
    6  A    between atoms: C_15  and  C_33
    7  A    between atoms: C_15  and  N_52
    8  A    between atoms: C_17  and  C_46
    9  A    between atoms: C_17  and  C_47
   10  A    between atoms: C_17  and  N_52
   11  A    between atoms: C_19  and  C_27
   12  A    between atoms: C_19  and  C_31
   13  A    between atoms: N_23  and  C_42
   14  A    between atoms: C_27  and  C_50
   15  A    between atoms: C_33  and  C_41
   16  A    between atoms: C_41  and  C_43
                            x       y       z     vdW  Elec       q    Type
                         _______ _______ _______ _____ _____    ______ ____

>  <TORSDO>
F 16

$$$$
=
 OpenBabel11042410173D

 55 60  0  0  1  0  0  0  0  0999 V2000
  184.5060  179.4090  144.2680 C   0  0  0  0  0  1  0  0  0  0  0  0
  184.9180  178.2850  142.1670 C   0  0  0  0  0  0  0  0  0  0  0  0
  185.2140  178.3940  143.4310 C   0  0  0  0  0  0  0  0  0  0  0  0
  184.6010  178.1910  140.9050 C   0  0  0  0  0  3  0  0  0  0  0  0
  183.4450  178.9780  140.3680 C   0  0  2  0  0  3  0  0  0  0  0  0
  180.5330  176.9840  140.7160 C   0  0  0  0  0  0  0  0  0  0  0  0
  182.1840  178.3380  140.7390 N   0  0  0  0  0  0  0  0  0  0  0  0
  179.0430  178.2020  142.4370 C   0  0  0  0  0  1  0  0  0  0  0  0
  181.3100  178.8550  141.5920 N   0  0  0  0  0  0  0  0  0  0  0  0
  181.7460  177.2180  140.1800 N   0  0  0  0  0  0  0  0  0  0  0  0
  180.2620  178.0130  141.6010 C   0  0  0  0  0  0  0  0  0  0  0  0
  178.9380  175.2980  141.2430 O   0  0  0  0  0  0  0  0  0  0  0  0
  179.7250  175.2930  139.0510 N   0  0  0  0  0  2  0  0  0  0  0  0
  178.9320  174.1970  138.6890 N   0  0  0  0  0  1  0  0  0  0  0  0
  179.6910  175.8240  140.3750 C   0  0  0  0  0  0  0  0  0  0  0  0
  183.5370  179.1310  138.8500 C   0  0  0  0  0  2  0  0  0  0  0  0
  184.2360  177.9470  138.2050 C   0  0  0  0  0  2  0  0  0  0  0  0
  183.9150  177.9050  136.7850 N   0  0  0  0  0  2  0  0  0  0  0  0
  184.0330  176.5210  136.3370 C   0  0  1  0  0  3  0  0  0  0  0  0
  183.8010  173.1710  137.1470 C   0  0  0  0  0  0  0  0  0  0  0  0
  185.7310  175.1360  137.4880 O   0  0  0  0  0  0  0  0  0  0  0  0
  183.3770  174.4770  137.7570 C   0  0  0  0  0  2  0  0  0  0  0  0
  185.8750  174.2970  136.3640 C   0  0  0  0  0  2  0  0  0  0  0  0
  184.3950  175.6070  137.5260 C   0  0  2  0  0  3  0  0  0  0  0  0
  185.1830  172.9630  136.6060 C   0  0  0  0  0  2  0  0  0  0  0  0
  183.0130  172.2420  137.1350 O   0  0  0  0  0  0  0  0  0  0  0  0
  182.7690  175.1530  134.8920 O   0  0  0  0  0  0  0  0  0  0  0  0
  181.4370  176.6990  136.0510 C   0  0  0  0  0  1  0  0  0  0  0  0
  182.7440  176.0710  135.6950 C   0  0  0  0  0  0  0  0  0  0  0  0
  186.1300  177.3980  144.0620 C   0  0  0  0  0  2  0  0  0  0  0  0
  187.4280  178.0610  144.4690 C   0  0  0  0  0  2  0  0  0  0  0  0
  188.8360  176.7820  141.5120 C   0  0  0  0  0  2  0  0  0  0  0  0
  189.1800  177.6410  142.7150 C   0  0  0  0  0  0  0  0  0  0  0  0
  188.2400  178.1760  141.6520 C   0  0  0  0  0  2  0  0  0  0  0  0
  188.6200  177.2190  144.0600 C   0  0  1  0  0  3  0  0  0  0  0  0
  190.7010  178.5030  144.3190 C   0  0  0  0  0  2  0  0  0  0  0  0
  189.7740  177.5070  145.0100 C   0  0  0  0  0  2  0  0  0  0  0  0
  190.5330  178.3160  142.8150 C   0  0  1  0  0  3  0  0  0  0  0  0
  191.6470  177.4160  142.2890 C   0  0  0  0  0  2  0  0  0  0  0  0
  191.5570  176.5730  139.9840 C   0  0  0  0  0  3  0  0  0  0  0  0
  191.8140  177.5850  140.8120 C   0  0  0  0  0  3  0  0  0  0  0  0
  192.0980  175.0610  136.8310 C   0  0  2  0  0  3  0  0  0  0  0  0
  192.5870  173.8550  137.3430 O   0  0  0  0  0  1  0  0  0  0  0  0
  193.1490  176.1520  136.9000 C   0  0  2  0  0  3  0  0  0  0  0  0
  194.5540  175.6560  136.6050 C   0  0  0  0  0  1  0  0  0  0  0  0
  191.7200  176.7390  138.5090 C   0  0  1  0  0  3  0  0  0  0  0  0
  193.0870  176.7440  138.1710 O   0  0  0  0  0  0  0  0  0  0  0  0
  191.0450  175.5820  137.7870 C   0  0  1  0  0  3  0  0  0  0  0  0
  187.9350  177.6070  137.0750 C   0  0  0  0  0  2  0  0  0  0  0  0
  190.1040  176.3580  135.7410 C   0  0  0  0  0  2  0  0  0  0  0  0
  189.8010  176.0160  137.1320 N   0  0  0  0  0  0  0  0  0  0  0  0
  189.2060  177.1800  137.8080 C   0  0  0  0  0  2  0  0  0  0  0  0
  187.0090  178.2720  135.0340 C   0  0  0  0  0  1  0  0  0  0  0  0
  188.2630  177.9680  135.6980 N   0  0  0  0  0  0  0  0  0  0  0  0
  188.8260  176.7980  135.0260 C   0  0  0  0  0  2  0  0  0  0  0  0
  2  3  2  0  0  0  0
  3 30  1  0  0  0  0
  3  1  1  0  0  0  0
  4  2  2  0  0  0  0
  5 16  1  6  0  0  0
  5  7  1  0  0  0  0
  5  4  1  0  0  0  0
  6 11  1  0  0  0  0
  7  9  1  0  0  0  0
  9 11  2  0  0  0  0
 10  6  2  0  0  0  0
 10  7  1  0  0  0  0
 11  8  1  0  0  0  0
 13 15  1  0  0  0  0
 14 13  1  0  0  0  0
 15  6  1  0  0  0  0
 15 12  2  0  0  0  0
 17 16  1  0  0  0  0
 18 17  1  0  0  0  0
 19 29  1  1  0  0  0
 19 18  1  0  0  0  0
 20 22  1  0  0  0  0
 21 24  1  0  0  0  0
 23 25  1  0  0  0  0
 23 21  1  0  0  0  0
 24 19  1  6  0  0  0
 24 22  1  0  0  0  0
 25 20  1  0  0  0  0
 26 20  2  0  0  0  0
 27 29  2  0  0  0  0
 29 28  1  0  0  0  0
 30 31  1  0  0  0  0
 32 34  1  0  0  0  0
 32 33  1  0  0  0  0
 33 38  1  0  0  0  0
 33 35  1  0  0  0  0
 34 33  1  0  0  0  0
 35 31  1  1  0  0  0
 35 37  1  0  0  0  0
 36 37  1  0  0  0  0
 38 39  1  1  0  0  0
 38 36  1  0  0  0  0
 40 41  2  0  0  0  0
 41 39  1  0  0  0  0
 42 44  1  0  0  0  0
 42 43  1  1  0  0  0
 42 48  1  0  0  0  0
 44 45  1  1  0  0  0
 44 47  1  0  0  0  0
 46 40  1  1  0  0  0
 47 46  1  0  0  0  0
 48 51  1  6  0  0  0
 48 46  1  0  0  0  0
 49 52  1  0  0  0  0
 50 51  1  0  0  0  0
 51 52  1  0  0  0  0
 53 54  1  0  0  0  0
 54 49  1  0  0  0  0
 55 54  1  0  0  0  0
 55 50  1  0  0  0  0
M  END
>  <MODEL>
9

>  <REMARK>
 VINA RESULT:      -6.3      3.544      9.218
  Name = 
  16 active torsions:
  status: ('A' for Active; 'I' for Inactive)
    1  A    between atoms: C_1  and  C_35
    2  A    between atoms: C_1  and  C_55
    3  A    between atoms: C_7  and  C_49
    4  A    between atoms: C_8  and  C_21
    5  A    between atoms: N_12  and  C_41
    6  A    between atoms: C_15  and  C_33
    7  A    between atoms: C_15  and  N_52
    8  A    between atoms: C_17  and  C_46
    9  A    between atoms: C_17  and  C_47
   10  A    between atoms: C_17  and  N_52
   11  A    between atoms: C_19  and  C_27
   12  A    between atoms: C_19  and  C_31
   13  A    between atoms: N_23  and  C_42
   14  A    between atoms: C_27  and  C_50
   15  A    between atoms: C_33  and  C_41
   16  A    between atoms: C_41  and  C_43
                            x       y       z     vdW  Elec       q    Type
                         _______ _______ _______ _____ _____    ______ ____

>  <TORSDO>
F 16

$$$$
