=
 OpenBabel11032421163D

 52 53  0  0  1  0  0  0  0  0999 V2000
  183.6580  178.9370  141.7690 N   0  0  0  0  0  0  0  0  0  0  0  0
  182.8240  177.2470  140.1750 C   0  0  0  0  0  2  0  0  0  0  0  0
  182.5060  178.0740  141.4430 C   0  0  2  0  0  3  0  0  0  0  0  0
  181.0180  179.4070  139.8840 C   0  0  0  0  0  2  0  0  0  0  0  0
  179.5460  178.0130  138.6190 O   0  0  0  0  0  1  0  0  0  0  0  0
  180.8960  178.2630  138.8700 C   0  0  2  0  0  3  0  0  0  0  0  0
  181.5840  176.9630  139.3200 C   0  0  1  0  0  3  0  0  0  0  0  0
  181.1890  178.8710  141.3010 C   0  0  0  0  0  2  0  0  0  0  0  0
  181.9720  176.1490  138.0970 C   0  0  0  0  0  2  0  0  0  0  0  0
  182.9530  175.0610  138.4880 C   0  0  0  0  0  2  0  0  0  0  0  0
  183.8770  174.7300  137.3300 C   0  0  0  0  0  2  0  0  0  0  0  0
  184.8170  173.5940  137.7100 C   0  0  0  0  0  1  0  0  0  0  0  0
  184.2840  178.5630  143.0390 C   0  0  0  0  0  2  0  0  0  0  0  0
  184.0620  179.6580  144.0610 C   0  0  0  0  0  2  0  0  0  0  0  0
  183.8760  179.0380  145.4310 C   0  0  0  0  0  2  0  0  0  0  0  0
  185.0160  178.0700  145.7050 C   0  0  0  0  0  2  0  0  0  0  0  0
  185.7550  179.7940  147.1760 O   0  0  0  0  0  0  0  0  0  0  0  0
  185.9220  178.6170  146.7590 C   0  0  0  0  0  0  0  0  0  0  0  0
  186.9790  177.8050  147.2820 N   0  0  0  0  0  2  0  0  0  0  0  0
  187.8980  178.2830  148.3010 C   0  0  0  0  0  2  0  0  0  0  0  0
  189.3180  177.8730  147.9470 C   0  0  0  0  0  2  0  0  0  0  0  0
  190.5870  176.6150  144.5630 N   0  0  0  0  0  2  0  0  0  0  0  0
  189.3770  177.3730  146.5790 N   0  0  0  0  0  2  0  0  0  0  0  0
  191.6750  176.9440  146.6050 O   0  0  0  0  0  0  0  0  0  0  0  0
  190.5980  176.9820  145.9450 C   0  0  0  0  0  0  0  0  0  0  0  0
  191.8020  176.3130  143.8240 C   0  0  0  0  0  2  0  0  0  0  0  0
  191.8840  177.1870  142.5820 C   0  0  0  0  0  1  0  0  0  0  0  0
  184.6640  178.8840  140.6960 C   0  0  0  0  0  2  0  0  0  0  0  0
  186.0590  178.4550  141.1710 C   0  0  0  0  0  2  0  0  0  0  0  0
  187.0440  178.7460  140.1880 O   0  0  0  0  0  0  0  0  0  0  0  0
  188.3120  178.1600  140.2000 C   0  0  0  0  0  0  0  0  0  0  0  0
  188.9290  177.9930  141.2880 O   0  0  0  0  0  0  0  0  0  0  0  0
  188.9430  177.7620  138.9050 C   0  0  2  0  0  3  0  0  0  0  0  0
  188.4760  176.4870  138.4690 O   0  0  0  0  0  0  0  0  0  0  0  0
  186.0410  177.0320  135.7470 C   0  0  0  0  0  3  0  0  0  0  0  0
  186.3420  175.9720  134.8880 C   0  0  0  0  0  3  0  0  0  0  0  0
  187.7730  176.2950  137.2760 C   0  0  0  0  0  0  0  0  0  0  0  0
  187.3520  175.0690  135.2220 C   0  0  0  0  0  3  0  0  0  0  0  0
  186.7550  177.1920  136.9370 C   0  0  0  0  0  3  0  0  0  0  0  0
  188.0650  175.2280  136.4130 C   0  0  0  0  0  3  0  0  0  0  0  0
  190.4530  177.7380  139.0660 C   0  0  0  0  0  2  0  0  0  0  0  0
  191.0500  176.4040  138.6290 C   0  0  0  0  0  2  0  0  0  0  0  0
  193.0780  175.5280  137.3700 C   0  0  0  0  0  0  0  0  0  0  0  0
  194.3250  175.8240  136.7450 N   0  0  0  0  0  2  0  0  0  0  0  0
  192.2980  176.6010  137.9040 N   0  0  0  0  0  2  0  0  0  0  0  0
  192.6690  174.3340  137.4480 O   0  0  0  0  0  0  0  0  0  0  0  0
  195.2700  174.7910  136.3530 C   0  0  0  0  0  2  0  0  0  0  0  0
  196.4360  175.4230  135.6670 C   0  0  0  0  0  3  0  0  0  0  0  0
  197.6950  175.3970  136.1140 C   0  0  0  0  0  3  0  0  0  0  0  0
  198.1780  174.7190  137.3290 C   0  0  0  0  0  0  0  0  0  0  0  0
  198.7730  173.3660  137.2060 C   0  0  0  0  0  1  0  0  0  0  0  0
  198.0640  175.2420  138.4700 O   0  0  0  0  0  0  0  0  0  0  0  0
  1 13  1  0  0  0  0
  2  3  1  0  0  0  0
  3  1  1  6  0  0  0
  4  8  1  0  0  0  0
  6  5  1  1  0  0  0
  6  7  1  0  0  0  0
  6  4  1  0  0  0  0
  7  9  1  6  0  0  0
  7  2  1  0  0  0  0
  8  3  1  0  0  0  0
  9 10  1  0  0  0  0
 11 12  1  0  0  0  0
 11 10  1  0  0  0  0
 13 14  1  0  0  0  0
 14 15  1  0  0  0  0
 15 16  1  0  0  0  0
 16 18  1  0  0  0  0
 18 17  2  0  0  0  0
 18 19  1  0  0  0  0
 19 20  1  0  0  0  0
 21 20  1  0  0  0  0
 22 25  1  0  0  0  0
 23 21  1  0  0  0  0
 25 23  1  0  0  0  0
 25 24  2  0  0  0  0
 26 22  1  0  0  0  0
 27 26  1  0  0  0  0
 28 29  1  0  0  0  0
 28  1  1  0  0  0  0
 30 31  1  0  0  0  0
 30 29  1  0  0  0  0
 31 32  2  0  0  0  0
 33 41  1  1  0  0  0
 33 31  1  0  0  0  0
 34 33  1  0  0  0  0
 35 39  1  0  0  0  0
 36 38  1  0  0  0  0
 36 35  2  0  0  0  0
 37 34  1  0  0  0  0
 38 40  2  0  0  0  0
 39 37  2  0  0  0  0
 40 37  1  0  0  0  0
 42 41  1  0  0  0  0
 43 46  2  0  0  0  0
 43 45  1  0  0  0  0
 44 43  1  0  0  0  0
 45 42  1  0  0  0  0
 47 44  1  0  0  0  0
 48 49  2  0  0  0  0
 48 47  1  0  0  0  0
 49 50  1  0  0  0  0
 50 52  2  0  0  0  0
 51 50  1  0  0  0  0
M  END
>  <MODEL>
1

>  <REMARK>
 VINA RESULT:      -6.5      0.000      0.000
  Name = 
  26 active torsions:
  status: ('A' for Active; 'I' for Inactive)
    1  A    between atoms: C_1  and  N_24
    2  A    between atoms: C_1  and  C_28
    3  A    between atoms: O_2  and  C_12
    4  A    between atoms: O_2  and  C_21
    5  A    between atoms: N_3  and  C_20
    6  A    between atoms: C_5  and  C_8
    7  A    between atoms: C_5  and  N_43
    8  A    between atoms: C_7  and  C_11
    9  A    between atoms: C_8  and  N_22
   10  A    between atoms: C_10  and  N_13
   11  A    between atoms: C_11  and  C_49
   12  A    between atoms: C_12  and  C_48
   13  A    between atoms: N_13  and  C_36
   14  A    between atoms: N_13  and  C_48
   15  A    between atoms: C_16  and  O_40
   16  A    between atoms: C_19  and  C_38
   17  A    between atoms: C_21  and  C_42
   18  A    between atoms: N_27  and  C_31
   19  A    between atoms: C_31  and  C_47
   20  A    between atoms: C_35  and  C_36
   21  A    between atoms: C_35  and  C_37
   22  A    between atoms: C_37  and  C_45
   23  A    between atoms: C_39  and  C_45
   24  A    between atoms: O_40  and  C_42
   25  A    between atoms: C_42  and  C_47
   26  A    between atoms: C_49  and  C_50
                            x       y       z     vdW  Elec       q    Type
                         _______ _______ _______ _____ _____    ______ ____

>  <TORSDO>
F 26

$$$$
=
 OpenBabel11032421163D

 52 53  0  0  1  0  0  0  0  0999 V2000
  185.4330  178.2670  144.3440 N   0  0  0  0  0  0  0  0  0  0  0  0
  187.7110  177.9700  145.2500 C   0  0  0  0  0  2  0  0  0  0  0  0
  186.4440  178.8570  145.2440 C   0  0  2  0  0  3  0  0  0  0  0  0
  186.0470  177.8560  147.5370 C   0  0  0  0  0  2  0  0  0  0  0  0
  187.9670  178.0280  148.9490 O   0  0  0  0  0  1  0  0  0  0  0  0
  187.5230  177.4950  147.7380 C   0  0  2  0  0  3  0  0  0  0  0  0
  188.4380  177.9760  146.5990 C   0  0  1  0  0  3  0  0  0  0  0  0
  185.8980  179.1000  146.6690 C   0  0  0  0  0  2  0  0  0  0  0  0
  189.6680  177.0860  146.5300 C   0  0  0  0  0  2  0  0  0  0  0  0
  190.3230  177.2130  145.1670 C   0  0  0  0  0  2  0  0  0  0  0  0
  191.6170  176.4210  145.1190 C   0  0  0  0  0  2  0  0  0  0  0  0
  191.7110  175.6390  143.8160 C   0  0  0  0  0  1  0  0  0  0  0  0
  184.4320  179.2480  143.9200 C   0  0  0  0  0  2  0  0  0  0  0  0
  183.1030  178.9370  144.5740 C   0  0  0  0  0  2  0  0  0  0  0  0
  182.0060  178.9760  143.5280 C   0  0  0  0  0  2  0  0  0  0  0  0
  182.5880  178.6040  142.1740 C   0  0  0  0  0  2  0  0  0  0  0  0
  180.5160  179.3320  141.2480 O   0  0  0  0  0  0  0  0  0  0  0  0
  181.5140  178.5700  141.1370 C   0  0  0  0  0  0  0  0  0  0  0  0
  181.6200  177.6700  140.0290 N   0  0  0  0  0  2  0  0  0  0  0  0
  180.6040  177.5850  138.9940 C   0  0  0  0  0  2  0  0  0  0  0  0
  180.8100  176.3230  138.1720 C   0  0  0  0  0  2  0  0  0  0  0  0
  184.0850  174.3680  137.8640 N   0  0  0  0  0  2  0  0  0  0  0  0
  182.2240  175.9700  138.1280 N   0  0  0  0  0  2  0  0  0  0  0  0
  181.8790  173.7910  137.3540 O   0  0  0  0  0  0  0  0  0  0  0  0
  182.6900  174.6670  137.7680 C   0  0  0  0  0  0  0  0  0  0  0  0
  184.6190  173.0370  137.6220 C   0  0  0  0  0  2  0  0  0  0  0  0
  186.1170  173.1170  137.3750 C   0  0  0  0  0  1  0  0  0  0  0  0
  186.0780  177.6840  143.1550 C   0  0  0  0  0  2  0  0  0  0  0  0
  186.1460  178.6360  141.9540 C   0  0  0  0  0  2  0  0  0  0  0  0
  187.4930  178.9510  141.6280 O   0  0  0  0  0  0  0  0  0  0  0  0
  188.3290  178.0590  140.9520 C   0  0  0  0  0  0  0  0  0  0  0  0
  188.9830  177.1880  141.5880 O   0  0  0  0  0  0  0  0  0  0  0  0
  188.4620  178.1690  139.4670 C   0  0  2  0  0  3  0  0  0  0  0  0
  187.2180  178.5070  138.8560 O   0  0  0  0  0  0  0  0  0  0  0  0
  185.3560  177.0530  136.0180 C   0  0  0  0  0  3  0  0  0  0  0  0
  186.1600  177.4270  134.9380 C   0  0  0  0  0  3  0  0  0  0  0  0
  186.8860  178.1510  137.5460 C   0  0  0  0  0  0  0  0  0  0  0  0
  187.3290  178.1560  135.1580 C   0  0  0  0  0  3  0  0  0  0  0  0
  185.7200  177.4150  137.3180 C   0  0  0  0  0  3  0  0  0  0  0  0
  187.6930  178.5160  136.4570 C   0  0  0  0  0  3  0  0  0  0  0  0
  188.9780  176.8550  138.9080 C   0  0  0  0  0  2  0  0  0  0  0  0
  190.4970  176.8560  138.7660 C   0  0  0  0  0  2  0  0  0  0  0  0
  192.1970  175.3260  137.6550 C   0  0  0  0  0  0  0  0  0  0  0  0
  192.5480  173.9980  137.2680 N   0  0  0  0  0  2  0  0  0  0  0  0
  190.9890  175.5370  138.3900 N   0  0  0  0  0  2  0  0  0  0  0  0
  192.9460  176.2990  137.3540 O   0  0  0  0  0  0  0  0  0  0  0  0
  193.6450  173.7120  136.3570 C   0  0  0  0  0  2  0  0  0  0  0  0
  194.3510  172.4770  136.8100 C   0  0  0  0  0  3  0  0  0  0  0  0
  195.6740  172.2930  136.7710 C   0  0  0  0  0  3  0  0  0  0  0  0
  196.6800  173.2680  136.3180 C   0  0  0  0  0  0  0  0  0  0  0  0
  196.9390  174.4690  137.1490 C   0  0  0  0  0  1  0  0  0  0  0  0
  197.2960  173.1290  135.2270 O   0  0  0  0  0  0  0  0  0  0  0  0
  2  7  1  0  0  0  0
  3  1  1  6  0  0  0
  3  2  1  0  0  0  0
  3  8  1  0  0  0  0
  4  6  1  0  0  0  0
  6  5  1  1  0  0  0
  7  9  1  6  0  0  0
  7  6  1  0  0  0  0
  8  4  1  0  0  0  0
 10  9  1  0  0  0  0
 11 10  1  0  0  0  0
 12 11  1  0  0  0  0
 13  1  1  0  0  0  0
 13 14  1  0  0  0  0
 15 14  1  0  0  0  0
 16 15  1  0  0  0  0
 18 17  2  0  0  0  0
 18 16  1  0  0  0  0
 19 18  1  0  0  0  0
 20 19  1  0  0  0  0
 21 20  1  0  0  0  0
 23 21  1  0  0  0  0
 24 25  2  0  0  0  0
 25 22  1  0  0  0  0
 25 23  1  0  0  0  0
 26 22  1  0  0  0  0
 27 26  1  0  0  0  0
 28  1  1  0  0  0  0
 29 28  1  0  0  0  0
 30 29  1  0  0  0  0
 31 32  2  0  0  0  0
 31 30  1  0  0  0  0
 33 41  1  6  0  0  0
 33 31  1  0  0  0  0
 34 33  1  0  0  0  0
 35 39  1  0  0  0  0
 36 38  1  0  0  0  0
 36 35  2  0  0  0  0
 37 34  1  0  0  0  0
 38 40  2  0  0  0  0
 39 37  2  0  0  0  0
 40 37  1  0  0  0  0
 42 41  1  0  0  0  0
 43 45  1  0  0  0  0
 44 43  1  0  0  0  0
 45 42  1  0  0  0  0
 46 43  2  0  0  0  0
 47 48  1  0  0  0  0
 47 44  1  0  0  0  0
 49 48  2  0  0  0  0
 50 49  1  0  0  0  0
 50 51  1  0  0  0  0
 52 50  2  0  0  0  0
M  END
>  <MODEL>
2

>  <REMARK>
 VINA RESULT:      -6.2      2.106      6.875
  Name = 
  26 active torsions:
  status: ('A' for Active; 'I' for Inactive)
    1  A    between atoms: C_1  and  N_24
    2  A    between atoms: C_1  and  C_28
    3  A    between atoms: O_2  and  C_12
    4  A    between atoms: O_2  and  C_21
    5  A    between atoms: N_3  and  C_20
    6  A    between atoms: C_5  and  C_8
    7  A    between atoms: C_5  and  N_43
    8  A    between atoms: C_7  and  C_11
    9  A    between atoms: C_8  and  N_22
   10  A    between atoms: C_10  and  N_13
   11  A    between atoms: C_11  and  C_49
   12  A    between atoms: C_12  and  C_48
   13  A    between atoms: N_13  and  C_36
   14  A    between atoms: N_13  and  C_48
   15  A    between atoms: C_16  and  O_40
   16  A    between atoms: C_19  and  C_38
   17  A    between atoms: C_21  and  C_42
   18  A    between atoms: N_27  and  C_31
   19  A    between atoms: C_31  and  C_47
   20  A    between atoms: C_35  and  C_36
   21  A    between atoms: C_35  and  C_37
   22  A    between atoms: C_37  and  C_45
   23  A    between atoms: C_39  and  C_45
   24  A    between atoms: O_40  and  C_42
   25  A    between atoms: C_42  and  C_47
   26  A    between atoms: C_49  and  C_50
                            x       y       z     vdW  Elec       q    Type
                         _______ _______ _______ _____ _____    ______ ____

>  <TORSDO>
F 26

$$$$
=
 OpenBabel11032421163D

 52 53  0  0  1  0  0  0  0  0999 V2000
  188.6250  177.3220  141.2470 N   0  0  0  0  0  0  0  0  0  0  0  0
  188.4340  176.9910  143.6860 C   0  0  0  0  0  2  0  0  0  0  0  0
  189.1350  176.5320  142.3860 C   0  0  2  0  0  3  0  0  0  0  0  0
  191.1220  177.7990  143.3150 C   0  0  0  0  0  2  0  0  0  0  0  0
  191.6250  177.1740  145.5670 O   0  0  0  0  0  1  0  0  0  0  0  0
  190.6200  177.7120  144.7620 C   0  0  2  0  0  3  0  0  0  0  0  0
  189.3360  176.8810  144.9210 C   0  0  1  0  0  3  0  0  0  0  0  0
  190.6740  176.5890  142.5040 C   0  0  0  0  0  2  0  0  0  0  0  0
  188.5830  177.3470  146.1560 C   0  0  0  0  0  2  0  0  0  0  0  0
  189.5600  177.8650  147.1940 C   0  0  0  0  0  2  0  0  0  0  0  0
  188.8410  178.1990  148.4880 C   0  0  0  0  0  2  0  0  0  0  0  0
  187.3370  178.2500  148.2600 C   0  0  0  0  0  1  0  0  0  0  0  0
  187.9270  178.5320  141.6840 C   0  0  0  0  0  2  0  0  0  0  0  0
  186.6060  178.6520  140.9550 C   0  0  0  0  0  2  0  0  0  0  0  0
  185.5690  179.2490  141.8860 C   0  0  0  0  0  2  0  0  0  0  0  0
  184.9220  178.1390  142.6980 C   0  0  0  0  0  2  0  0  0  0  0  0
  183.7890  178.8620  144.6670 O   0  0  0  0  0  0  0  0  0  0  0  0
  183.7240  178.6550  143.4260 C   0  0  0  0  0  0  0  0  0  0  0  0
  182.5090  178.9020  142.7110 N   0  0  0  0  0  2  0  0  0  0  0  0
  181.3070  179.3950  143.3650 C   0  0  0  0  0  2  0  0  0  0  0  0
  180.1290  179.3090  142.4080 C   0  0  0  0  0  2  0  0  0  0  0  0
  179.0230  175.8580  141.1800 N   0  0  0  0  0  2  0  0  0  0  0  0
  179.6130  177.9470  142.3590 N   0  0  0  0  0  2  0  0  0  0  0  0
  180.2650  177.5490  140.1500 O   0  0  0  0  0  0  0  0  0  0  0  0
  179.6570  177.1400  141.1790 C   0  0  0  0  0  0  0  0  0  0  0  0
  178.9310  175.0300  139.9880 C   0  0  0  0  0  2  0  0  0  0  0  0
  179.8600  173.8330  140.1150 C   0  0  0  0  0  1  0  0  0  0  0  0
  189.7250  177.6930  140.3420 C   0  0  0  0  0  2  0  0  0  0  0  0
  189.8090  176.8290  139.0760 C   0  0  0  0  0  2  0  0  0  0  0  0
  188.7390  177.1230  138.1870 O   0  0  0  0  0  0  0  0  0  0  0  0
  188.9310  177.8020  136.9820 C   0  0  0  0  0  0  0  0  0  0  0  0
  189.0720  179.0560  136.9690 O   0  0  0  0  0  0  0  0  0  0  0  0
  188.9370  177.0290  135.7020 C   0  0  2  0  0  3  0  0  0  0  0  0
  190.2670  176.7870  135.2460 O   0  0  0  0  0  0  0  0  0  0  0  0
  191.1140  173.4120  136.4810 C   0  0  0  0  0  3  0  0  0  0  0  0
  192.5100  173.4550  136.4750 C   0  0  0  0  0  3  0  0  0  0  0  0
  191.0300  175.6910  135.6580 C   0  0  0  0  0  0  0  0  0  0  0  0
  193.1700  174.6160  136.0680 C   0  0  0  0  0  3  0  0  0  0  0  0
  190.3770  174.5260  136.0740 C   0  0  0  0  0  3  0  0  0  0  0  0
  192.4330  175.7310  135.6620 C   0  0  0  0  0  3  0  0  0  0  0  0
  188.1540  177.7910  134.6480 C   0  0  0  0  0  2  0  0  0  0  0  0
  186.6630  177.8310  134.9660 C   0  0  0  0  0  2  0  0  0  0  0  0
  185.4590  176.0170  136.2800 C   0  0  0  0  0  0  0  0  0  0  0  0
  185.0340  174.6560  136.3410 N   0  0  0  0  0  2  0  0  0  0  0  0
  186.1210  176.4850  135.1020 N   0  0  0  0  0  2  0  0  0  0  0  0
  185.2490  176.7960  137.2540 O   0  0  0  0  0  0  0  0  0  0  0  0
  184.5360  174.0440  137.5610 C   0  0  0  0  0  2  0  0  0  0  0  0
  184.6490  172.5600  137.4510 C   0  0  0  0  0  3  0  0  0  0  0  0
  183.6830  171.7480  137.0110 C   0  0  0  0  0  3  0  0  0  0  0  0
  182.3550  172.1540  136.5210 C   0  0  0  0  0  0  0  0  0  0  0  0
  181.8540  171.5790  135.2480 C   0  0  0  0  0  1  0  0  0  0  0  0
  181.6520  173.0020  137.1330 O   0  0  0  0  0  0  0  0  0  0  0  0
  1 13  1  0  0  0  0
  2  7  1  0  0  0  0
  3  1  1  6  0  0  0
  3  8  1  0  0  0  0
  3  2  1  0  0  0  0
  4  6  1  0  0  0  0
  6  7  1  0  0  0  0
  6  5  1  1  0  0  0
  7  9  1  1  0  0  0
  8  4  1  0  0  0  0
  9 10  1  0  0  0  0
 10 11  1  0  0  0  0
 12 11  1  0  0  0  0
 14 13  1  0  0  0  0
 14 15  1  0  0  0  0
 15 16  1  0  0  0  0
 16 18  1  0  0  0  0
 18 17  2  0  0  0  0
 19 20  1  0  0  0  0
 19 18  1  0  0  0  0
 21 20  1  0  0  0  0
 23 21  1  0  0  0  0
 24 25  2  0  0  0  0
 25 22  1  0  0  0  0
 25 23  1  0  0  0  0
 26 27  1  0  0  0  0
 26 22  1  0  0  0  0
 28  1  1  0  0  0  0
 29 28  1  0  0  0  0
 30 29  1  0  0  0  0
 31 30  1  0  0  0  0
 32 31  2  0  0  0  0
 33 41  1  6  0  0  0
 33 31  1  0  0  0  0
 34 37  1  0  0  0  0
 34 33  1  0  0  0  0
 36 35  1  0  0  0  0
 37 40  2  0  0  0  0
 37 39  1  0  0  0  0
 38 36  2  0  0  0  0
 39 35  2  0  0  0  0
 40 38  1  0  0  0  0
 41 42  1  0  0  0  0
 42 45  1  0  0  0  0
 43 44  1  0  0  0  0
 43 46  2  0  0  0  0
 44 47  1  0  0  0  0
 45 43  1  0  0  0  0
 48 47  1  0  0  0  0
 49 48  2  0  0  0  0
 50 49  1  0  0  0  0
 50 52  2  0  0  0  0
 51 50  1  0  0  0  0
M  END
>  <MODEL>
3

>  <REMARK>
 VINA RESULT:      -6.0      3.125      9.222
  Name = 
  26 active torsions:
  status: ('A' for Active; 'I' for Inactive)
    1  A    between atoms: C_1  and  N_24
    2  A    between atoms: C_1  and  C_28
    3  A    between atoms: O_2  and  C_12
    4  A    between atoms: O_2  and  C_21
    5  A    between atoms: N_3  and  C_20
    6  A    between atoms: C_5  and  C_8
    7  A    between atoms: C_5  and  N_43
    8  A    between atoms: C_7  and  C_11
    9  A    between atoms: C_8  and  N_22
   10  A    between atoms: C_10  and  N_13
   11  A    between atoms: C_11  and  C_49
   12  A    between atoms: C_12  and  C_48
   13  A    between atoms: N_13  and  C_36
   14  A    between atoms: N_13  and  C_48
   15  A    between atoms: C_16  and  O_40
   16  A    between atoms: C_19  and  C_38
   17  A    between atoms: C_21  and  C_42
   18  A    between atoms: N_27  and  C_31
   19  A    between atoms: C_31  and  C_47
   20  A    between atoms: C_35  and  C_36
   21  A    between atoms: C_35  and  C_37
   22  A    between atoms: C_37  and  C_45
   23  A    between atoms: C_39  and  C_45
   24  A    between atoms: O_40  and  C_42
   25  A    between atoms: C_42  and  C_47
   26  A    between atoms: C_49  and  C_50
                            x       y       z     vdW  Elec       q    Type
                         _______ _______ _______ _____ _____    ______ ____

>  <TORSDO>
F 26

$$$$
=
 OpenBabel11032421163D

 52 53  0  0  1  0  0  0  0  0999 V2000
  188.8930  177.1930  141.2800 N   0  0  0  0  0  0  0  0  0  0  0  0
  187.8810  177.1210  143.5310 C   0  0  0  0  0  2  0  0  0  0  0  0
  188.9400  176.5050  142.5860 C   0  0  2  0  0  3  0  0  0  0  0  0
  190.5880  177.7850  144.0220 C   0  0  0  0  0  2  0  0  0  0  0  0
  190.2700  177.3760  146.3550 O   0  0  0  0  0  1  0  0  0  0  0  0
  189.6300  177.8650  145.2160 C   0  0  2  0  0  3  0  0  0  0  0  0
  188.3110  177.1030  145.0020 C   0  0  1  0  0  3  0  0  0  0  0  0
  190.3530  176.5160  143.2120 C   0  0  0  0  0  2  0  0  0  0  0  0
  187.2250  177.7220  145.8670 C   0  0  0  0  0  2  0  0  0  0  0  0
  186.1080  178.2570  144.9920 C   0  0  0  0  0  2  0  0  0  0  0  0
  185.1070  179.0420  145.8220 C   0  0  0  0  0  2  0  0  0  0  0  0
  184.7000  178.2460  147.0540 C   0  0  0  0  0  1  0  0  0  0  0  0
  188.1660  178.4610  141.3510 C   0  0  0  0  0  2  0  0  0  0  0  0
  186.9760  178.4210  140.4160 C   0  0  0  0  0  2  0  0  0  0  0  0
  185.8130  179.1600  141.0490 C   0  0  0  0  0  2  0  0  0  0  0  0
  184.8340  178.1530  141.6320 C   0  0  0  0  0  2  0  0  0  0  0  0
  182.4900  178.5270  141.8440 O   0  0  0  0  0  0  0  0  0  0  0  0
  183.4690  178.3670  141.0660 C   0  0  0  0  0  0  0  0  0  0  0  0
  183.2780  178.3780  139.6480 N   0  0  0  0  0  2  0  0  0  0  0  0
  181.9730  178.5720  139.0380 C   0  0  0  0  0  2  0  0  0  0  0  0
  181.2640  179.7430  139.7010 C   0  0  0  0  0  2  0  0  0  0  0  0
  181.1310  182.6870  137.2610 N   0  0  0  0  0  2  0  0  0  0  0  0
  181.5630  180.9830  138.9960 N   0  0  0  0  0  2  0  0  0  0  0  0
  179.5830  181.0080  137.7540 O   0  0  0  0  0  0  0  0  0  0  0  0
  180.7090  181.5310  137.9880 C   0  0  0  0  0  0  0  0  0  0  0  0
  180.3700  183.2350  136.1510 C   0  0  0  0  0  2  0  0  0  0  0  0
  180.8920  184.6190  135.7960 C   0  0  0  0  0  1  0  0  0  0  0  0
  190.2550  177.4390  140.7770 C   0  0  0  0  0  2  0  0  0  0  0  0
  190.6040  176.6440  139.5110 C   0  0  0  0  0  2  0  0  0  0  0  0
  189.4990  176.5940  138.6200 O   0  0  0  0  0  0  0  0  0  0  0  0
  189.4520  177.3420  137.4410 C   0  0  0  0  0  0  0  0  0  0  0  0
  189.4950  178.6020  137.4800 O   0  0  0  0  0  0  0  0  0  0  0  0
  189.3190  176.6310  136.1320 C   0  0  2  0  0  3  0  0  0  0  0  0
  190.5680  176.5630  135.4470 O   0  0  0  0  0  0  0  0  0  0  0  0
  193.9460  175.1910  136.0270 C   0  0  0  0  0  3  0  0  0  0  0  0
  193.6500  173.9000  136.4710 C   0  0  0  0  0  3  0  0  0  0  0  0
  191.5800  175.6610  135.7860 C   0  0  0  0  0  0  0  0  0  0  0  0
  192.3210  173.4840  136.5680 C   0  0  0  0  0  3  0  0  0  0  0  0
  192.9140  176.0680  135.6850 C   0  0  0  0  0  3  0  0  0  0  0  0
  191.2890  174.3600  136.2250 C   0  0  0  0  0  3  0  0  0  0  0  0
  188.2900  177.3440  135.2730 C   0  0  0  0  0  2  0  0  0  0  0  0
  186.8650  177.0600  135.7400 C   0  0  0  0  0  2  0  0  0  0  0  0
  185.6260  175.0450  136.6700 C   0  0  0  0  0  0  0  0  0  0  0  0
  185.5150  173.6230  136.7300 N   0  0  0  0  0  2  0  0  0  0  0  0
  186.6150  175.6270  135.8180 N   0  0  0  0  0  2  0  0  0  0  0  0
  184.8580  175.7750  137.3590 O   0  0  0  0  0  0  0  0  0  0  0  0
  184.6810  172.9430  137.7070 C   0  0  0  0  0  2  0  0  0  0  0  0
  183.8930  171.8750  137.0240 C   0  0  0  0  0  3  0  0  0  0  0  0
  182.6060  171.9750  136.6750 C   0  0  0  0  0  3  0  0  0  0  0  0
  181.7400  173.1510  136.8590 C   0  0  0  0  0  0  0  0  0  0  0  0
  181.8990  174.3090  135.9450 C   0  0  0  0  0  1  0  0  0  0  0  0
  180.8950  173.2150  137.7930 O   0  0  0  0  0  0  0  0  0  0  0  0
  1 13  1  0  0  0  0
  2  7  1  0  0  0  0
  3  1  1  6  0  0  0
  3  8  1  0  0  0  0
  3  2  1  0  0  0  0
  4  6  1  0  0  0  0
  6  5  1  1  0  0  0
  7  6  1  0  0  0  0
  7  9  1  1  0  0  0
  8  4  1  0  0  0  0
 10 11  1  0  0  0  0
 10  9  1  0  0  0  0
 11 12  1  0  0  0  0
 14 15  1  0  0  0  0
 14 13  1  0  0  0  0
 15 16  1  0  0  0  0
 18 16  1  0  0  0  0
 18 17  2  0  0  0  0
 19 18  1  0  0  0  0
 20 19  1  0  0  0  0
 20 21  1  0  0  0  0
 22 25  1  0  0  0  0
 23 21  1  0  0  0  0
 24 25  2  0  0  0  0
 25 23  1  0  0  0  0
 26 22  1  0  0  0  0
 27 26  1  0  0  0  0
 28  1  1  0  0  0  0
 29 28  1  0  0  0  0
 30 29  1  0  0  0  0
 31 32  2  0  0  0  0
 31 30  1  0  0  0  0
 33 41  1  6  0  0  0
 33 31  1  0  0  0  0
 34 37  1  0  0  0  0
 34 33  1  0  0  0  0
 35 36  1  0  0  0  0
 36 38  2  0  0  0  0
 37 40  2  0  0  0  0
 39 37  1  0  0  0  0
 39 35  2  0  0  0  0
 40 38  1  0  0  0  0
 41 42  1  0  0  0  0
 42 45  1  0  0  0  0
 43 44  1  0  0  0  0
 43 46  2  0  0  0  0
 44 47  1  0  0  0  0
 45 43  1  0  0  0  0
 48 47  1  0  0  0  0
 49 50  1  0  0  0  0
 49 48  2  0  0  0  0
 50 52  2  0  0  0  0
 51 50  1  0  0  0  0
M  END
>  <MODEL>
4

>  <REMARK>
 VINA RESULT:      -5.9      2.993      9.550
  Name = 
  26 active torsions:
  status: ('A' for Active; 'I' for Inactive)
    1  A    between atoms: C_1  and  N_24
    2  A    between atoms: C_1  and  C_28
    3  A    between atoms: O_2  and  C_12
    4  A    between atoms: O_2  and  C_21
    5  A    between atoms: N_3  and  C_20
    6  A    between atoms: C_5  and  C_8
    7  A    between atoms: C_5  and  N_43
    8  A    between atoms: C_7  and  C_11
    9  A    between atoms: C_8  and  N_22
   10  A    between atoms: C_10  and  N_13
   11  A    between atoms: C_11  and  C_49
   12  A    between atoms: C_12  and  C_48
   13  A    between atoms: N_13  and  C_36
   14  A    between atoms: N_13  and  C_48
   15  A    between atoms: C_16  and  O_40
   16  A    between atoms: C_19  and  C_38
   17  A    between atoms: C_21  and  C_42
   18  A    between atoms: N_27  and  C_31
   19  A    between atoms: C_31  and  C_47
   20  A    between atoms: C_35  and  C_36
   21  A    between atoms: C_35  and  C_37
   22  A    between atoms: C_37  and  C_45
   23  A    between atoms: C_39  and  C_45
   24  A    between atoms: O_40  and  C_42
   25  A    between atoms: C_42  and  C_47
   26  A    between atoms: C_49  and  C_50
                            x       y       z     vdW  Elec       q    Type
                         _______ _______ _______ _____ _____    ______ ____

>  <TORSDO>
F 26

$$$$
=
 OpenBabel11032421163D

 52 53  0  0  1  0  0  0  0  0999 V2000
  183.4300  175.8710  138.1550 N   0  0  0  0  0  0  0  0  0  0  0  0
  184.4990  173.7400  137.5150 C   0  0  0  0  0  2  0  0  0  0  0  0
  183.1720  174.4420  137.8870 C   0  0  2  0  0  3  0  0  0  0  0  0
  182.6750  174.2460  135.4110 C   0  0  0  0  0  2  0  0  0  0  0  0
  182.9930  172.0230  134.5940 O   0  0  0  0  0  1  0  0  0  0  0  0
  183.6560  173.0850  135.2100 C   0  0  2  0  0  3  0  0  0  0  0  0
  184.3080  172.5950  136.5140 C   0  0  1  0  0  3  0  0  0  0  0  0
  182.0800  174.2280  136.8140 C   0  0  0  0  0  2  0  0  0  0  0  0
  185.6490  171.9540  136.1970 C   0  0  0  0  0  2  0  0  0  0  0  0
  186.7760  172.8320  136.7070 C   0  0  0  0  0  2  0  0  0  0  0  0
  188.1010  172.0930  136.6440 C   0  0  0  0  0  2  0  0  0  0  0  0
  189.0870  172.8500  135.7640 C   0  0  0  0  0  1  0  0  0  0  0  0
  182.9480  176.7310  137.0720 C   0  0  0  0  0  2  0  0  0  0  0  0
  184.1260  177.3510  136.3500 C   0  0  0  0  0  2  0  0  0  0  0  0
  185.3800  177.1680  137.1820 C   0  0  0  0  0  2  0  0  0  0  0  0
  186.4270  178.1790  136.7440 C   0  0  0  0  0  2  0  0  0  0  0  0
  188.5330  178.7230  137.7180 O   0  0  0  0  0  0  0  0  0  0  0  0
  187.7660  177.8160  137.2970 C   0  0  0  0  0  0  0  0  0  0  0  0
  188.1720  176.4440  137.3380 N   0  0  0  0  0  2  0  0  0  0  0  0
  189.4660  176.0300  137.8550 C   0  0  0  0  0  2  0  0  0  0  0  0
  190.5370  176.2480  136.7980 C   0  0  0  0  0  2  0  0  0  0  0  0
  193.7740  174.3840  137.6260 N   0  0  0  0  0  2  0  0  0  0  0  0
  191.5670  175.2220  136.9000 N   0  0  0  0  0  2  0  0  0  0  0  0
  192.9050  176.4080  138.4060 O   0  0  0  0  0  0  0  0  0  0  0  0
  192.7590  175.3890  137.6730 C   0  0  0  0  0  0  0  0  0  0  0  0
  195.0560  174.5340  138.2960 C   0  0  0  0  0  2  0  0  0  0  0  0
  196.1840  174.1530  137.3500 C   0  0  0  0  0  1  0  0  0  0  0  0
  182.7980  176.2820  139.4200 C   0  0  0  0  0  2  0  0  0  0  0  0
  182.1390  177.6670  139.3650 C   0  0  0  0  0  2  0  0  0  0  0  0
  182.9340  178.6370  140.0330 O   0  0  0  0  0  0  0  0  0  0  0  0
  183.1790  178.5880  141.4080 C   0  0  0  0  0  0  0  0  0  0  0  0
  182.2210  178.5820  142.2290 O   0  0  0  0  0  0  0  0  0  0  0  0
  184.5920  178.5740  141.8960 C   0  0  2  0  0  3  0  0  0  0  0  0
  184.7320  179.3130  143.1080 O   0  0  0  0  0  0  0  0  0  0  0  0
  184.9890  178.4210  146.6820 C   0  0  0  0  0  3  0  0  0  0  0  0
  186.1540  177.6500  146.6930 C   0  0  0  0  0  3  0  0  0  0  0  0
  185.2240  178.7570  144.2920 C   0  0  0  0  0  0  0  0  0  0  0  0
  186.8600  177.4360  145.5080 C   0  0  0  0  0  3  0  0  0  0  0  0
  184.5260  178.9720  145.4840 C   0  0  0  0  0  3  0  0  0  0  0  0
  186.3980  177.9880  144.3110 C   0  0  0  0  0  3  0  0  0  0  0  0
  185.5020  179.1500  140.8250 C   0  0  0  0  0  2  0  0  0  0  0  0
  186.7790  178.3310  140.6640 C   0  0  0  0  0  2  0  0  0  0  0  0
  189.0850  178.2530  141.7330 C   0  0  0  0  0  0  0  0  0  0  0  0
  189.8720  178.4320  142.9100 N   0  0  0  0  0  2  0  0  0  0  0  0
  187.6870  178.5520  141.7820 N   0  0  0  0  0  2  0  0  0  0  0  0
  189.6180  177.8400  140.6640 O   0  0  0  0  0  0  0  0  0  0  0  0
  191.2470  177.9720  143.0100 C   0  0  0  0  0  2  0  0  0  0  0  0
  191.2570  176.4960  143.2350 C   0  0  0  0  0  3  0  0  0  0  0  0
  191.2610  175.9030  144.4320 C   0  0  0  0  0  3  0  0  0  0  0  0
  191.2190  176.5750  145.7420 C   0  0  0  0  0  0  0  0  0  0  0  0
  192.1120  176.0950  146.8240 C   0  0  0  0  0  1  0  0  0  0  0  0
  190.4180  177.5200  145.9770 O   0  0  0  0  0  0  0  0  0  0  0  0
  1 28  1  0  0  0  0
  2  3  1  0  0  0  0
  3  1  1  6  0  0  0
  4  8  1  0  0  0  0
  6  5  1  1  0  0  0
  6  4  1  0  0  0  0
  6  7  1  0  0  0  0
  7  9  1  6  0  0  0
  7  2  1  0  0  0  0
  8  3  1  0  0  0  0
  9 10  1  0  0  0  0
 11 10  1  0  0  0  0
 12 11  1  0  0  0  0
 13  1  1  0  0  0  0
 14 13  1  0  0  0  0
 14 15  1  0  0  0  0
 16 15  1  0  0  0  0
 16 18  1  0  0  0  0
 18 19  1  0  0  0  0
 18 17  2  0  0  0  0
 19 20  1  0  0  0  0
 21 23  1  0  0  0  0
 21 20  1  0  0  0  0
 22 25  1  0  0  0  0
 22 26  1  0  0  0  0
 23 25  1  0  0  0  0
 25 24  2  0  0  0  0
 27 26  1  0  0  0  0
 29 28  1  0  0  0  0
 29 30  1  0  0  0  0
 30 31  1  0  0  0  0
 31 33  1  0  0  0  0
 31 32  2  0  0  0  0
 33 41  1  6  0  0  0
 33 34  1  0  0  0  0
 34 37  1  0  0  0  0
 35 36  1  0  0  0  0
 37 40  2  0  0  0  0
 37 39  1  0  0  0  0
 38 36  2  0  0  0  0
 39 35  2  0  0  0  0
 40 38  1  0  0  0  0
 42 41  1  0  0  0  0
 42 45  1  0  0  0  0
 43 45  1  0  0  0  0
 43 44  1  0  0  0  0
 44 47  1  0  0  0  0
 46 43  2  0  0  0  0
 47 48  1  0  0  0  0
 48 49  2  0  0  0  0
 49 50  1  0  0  0  0
 50 52  2  0  0  0  0
 50 51  1  0  0  0  0
M  END
>  <MODEL>
5

>  <REMARK>
 VINA RESULT:      -5.8      2.389      7.967
  Name = 
  26 active torsions:
  status: ('A' for Active; 'I' for Inactive)
    1  A    between atoms: C_1  and  N_24
    2  A    between atoms: C_1  and  C_28
    3  A    between atoms: O_2  and  C_12
    4  A    between atoms: O_2  and  C_21
    5  A    between atoms: N_3  and  C_20
    6  A    between atoms: C_5  and  C_8
    7  A    between atoms: C_5  and  N_43
    8  A    between atoms: C_7  and  C_11
    9  A    between atoms: C_8  and  N_22
   10  A    between atoms: C_10  and  N_13
   11  A    between atoms: C_11  and  C_49
   12  A    between atoms: C_12  and  C_48
   13  A    between atoms: N_13  and  C_36
   14  A    between atoms: N_13  and  C_48
   15  A    between atoms: C_16  and  O_40
   16  A    between atoms: C_19  and  C_38
   17  A    between atoms: C_21  and  C_42
   18  A    between atoms: N_27  and  C_31
   19  A    between atoms: C_31  and  C_47
   20  A    between atoms: C_35  and  C_36
   21  A    between atoms: C_35  and  C_37
   22  A    between atoms: C_37  and  C_45
   23  A    between atoms: C_39  and  C_45
   24  A    between atoms: O_40  and  C_42
   25  A    between atoms: C_42  and  C_47
   26  A    between atoms: C_49  and  C_50
                            x       y       z     vdW  Elec       q    Type
                         _______ _______ _______ _____ _____    ______ ____

>  <TORSDO>
F 26

$$$$
=
 OpenBabel11032421163D

 52 53  0  0  1  0  0  0  0  0999 V2000
  183.9220  176.6510  137.7700 N   0  0  0  0  0  0  0  0  0  0  0  0
  181.5160  176.1000  137.7140 C   0  0  0  0  0  2  0  0  0  0  0  0
  182.8200  176.2150  136.8890 C   0  0  2  0  0  3  0  0  0  0  0  0
  182.7870  173.6830  136.9680 C   0  0  0  0  0  2  0  0  0  0  0  0
  180.6810  172.7800  136.2870 O   0  0  0  0  0  1  0  0  0  0  0  0
  181.2780  173.6170  137.2310 C   0  0  2  0  0  3  0  0  0  0  0  0
  180.5860  174.9910  137.2090 C   0  0  1  0  0  3  0  0  0  0  0  0
  183.1470  174.9070  136.1340 C   0  0  0  0  0  2  0  0  0  0  0  0
  179.3310  174.9370  138.0630 C   0  0  0  0  0  2  0  0  0  0  0  0
  179.3320  176.0810  139.0590 C   0  0  0  0  0  2  0  0  0  0  0  0
  179.4000  175.5550  140.4810 C   0  0  0  0  0  2  0  0  0  0  0  0
  179.1600  174.0510  140.5010 C   0  0  0  0  0  1  0  0  0  0  0  0
  184.7680  177.6630  137.1340 C   0  0  0  0  0  2  0  0  0  0  0  0
  185.8980  176.9860  136.3870 C   0  0  0  0  0  2  0  0  0  0  0  0
  187.0450  176.7200  137.3420 C   0  0  0  0  0  2  0  0  0  0  0  0
  188.0360  177.8700  137.2710 C   0  0  0  0  0  2  0  0  0  0  0  0
  189.4190  177.6050  135.3480 O   0  0  0  0  0  0  0  0  0  0  0  0
  189.2920  177.4340  136.5900 C   0  0  0  0  0  0  0  0  0  0  0  0
  190.3380  176.8180  137.3480 N   0  0  0  0  0  2  0  0  0  0  0  0
  191.5780  176.3660  136.7400 C   0  0  0  0  0  2  0  0  0  0  0  0
  192.2850  175.3960  137.6740 C   0  0  0  0  0  2  0  0  0  0  0  0
  195.7570  174.1310  136.6840 N   0  0  0  0  0  2  0  0  0  0  0  0
  193.3790  174.7280  136.9810 N   0  0  0  0  0  2  0  0  0  0  0  0
  194.9800  175.1730  138.6260 O   0  0  0  0  0  0  0  0  0  0  0  0
  194.7190  174.7050  137.4820 C   0  0  0  0  0  0  0  0  0  0  0  0
  197.1570  174.1690  137.0760 C   0  0  0  0  0  2  0  0  0  0  0  0
  197.6190  172.7790  137.4830 C   0  0  0  0  0  1  0  0  0  0  0  0
  183.3920  177.1860  139.0350 C   0  0  0  0  0  2  0  0  0  0  0  0
  183.3250  178.7190  139.0840 C   0  0  0  0  0  2  0  0  0  0  0  0
  184.0130  179.2220  140.2210 O   0  0  0  0  0  0  0  0  0  0  0  0
  183.9670  178.5910  141.4660 C   0  0  0  0  0  0  0  0  0  0  0  0
  182.8890  178.0920  141.8920 O   0  0  0  0  0  0  0  0  0  0  0  0
  185.2050  178.5380  142.3020 C   0  0  2  0  0  3  0  0  0  0  0  0
  184.9880  179.1100  143.5910 O   0  0  0  0  0  0  0  0  0  0  0  0
  187.1370  177.0790  145.8030 C   0  0  0  0  0  3  0  0  0  0  0  0
  186.9700  177.7300  147.0280 C   0  0  0  0  0  3  0  0  0  0  0  0
  185.6340  178.6620  144.7470 C   0  0  0  0  0  0  0  0  0  0  0  0
  186.1320  178.8420  147.1170 C   0  0  0  0  0  3  0  0  0  0  0  0
  186.4700  177.5440  144.6660 C   0  0  0  0  0  3  0  0  0  0  0  0
  185.4640  179.3060  145.9810 C   0  0  0  0  0  3  0  0  0  0  0  0
  186.3270  179.2710  141.5880 C   0  0  0  0  0  2  0  0  0  0  0  0
  187.4770  178.3350  141.2270 C   0  0  0  0  0  2  0  0  0  0  0  0
  189.4340  177.7340  142.7340 C   0  0  0  0  0  0  0  0  0  0  0  0
  190.5580  178.1900  143.4860 N   0  0  0  0  0  2  0  0  0  0  0  0
  188.6840  178.6790  141.9660 N   0  0  0  0  0  2  0  0  0  0  0  0
  189.1100  176.5120  142.7460 O   0  0  0  0  0  0  0  0  0  0  0  0
  191.2550  177.3470  144.4430 C   0  0  0  0  0  2  0  0  0  0  0  0
  190.5110  177.3520  145.7380 C   0  0  0  0  0  3  0  0  0  0  0  0
  190.8480  176.6410  146.8180 C   0  0  0  0  0  3  0  0  0  0  0  0
  192.0190  175.7590  146.9550 C   0  0  0  0  0  0  0  0  0  0  0  0
  192.8340  175.8370  148.1920 C   0  0  0  0  0  1  0  0  0  0  0  0
  192.3670  174.9700  146.0350 O   0  0  0  0  0  0  0  0  0  0  0  0
  1 28  1  0  0  0  0
  3  2  1  0  0  0  0
  3  1  1  1  0  0  0
  4  6  1  0  0  0  0
  6  5  1  6  0  0  0
  7  6  1  0  0  0  0
  7  2  1  0  0  0  0
  7  9  1  1  0  0  0
  8  3  1  0  0  0  0
  8  4  1  0  0  0  0
  9 10  1  0  0  0  0
 10 11  1  0  0  0  0
 11 12  1  0  0  0  0
 13  1  1  0  0  0  0
 14 13  1  0  0  0  0
 14 15  1  0  0  0  0
 16 15  1  0  0  0  0
 17 18  2  0  0  0  0
 18 16  1  0  0  0  0
 18 19  1  0  0  0  0
 20 19  1  0  0  0  0
 20 21  1  0  0  0  0
 22 26  1  0  0  0  0
 22 25  1  0  0  0  0
 23 25  1  0  0  0  0
 23 21  1  0  0  0  0
 25 24  2  0  0  0  0
 26 27  1  0  0  0  0
 28 29  1  0  0  0  0
 29 30  1  0  0  0  0
 30 31  1  0  0  0  0
 31 32  2  0  0  0  0
 31 33  1  0  0  0  0
 33 41  1  6  0  0  0
 33 34  1  0  0  0  0
 34 37  1  0  0  0  0
 35 36  1  0  0  0  0
 36 38  2  0  0  0  0
 37 40  2  0  0  0  0
 39 37  1  0  0  0  0
 39 35  2  0  0  0  0
 40 38  1  0  0  0  0
 42 41  1  0  0  0  0
 42 45  1  0  0  0  0
 43 46  2  0  0  0  0
 43 44  1  0  0  0  0
 44 47  1  0  0  0  0
 45 43  1  0  0  0  0
 47 48  1  0  0  0  0
 48 49  2  0  0  0  0
 49 50  1  0  0  0  0
 50 51  1  0  0  0  0
 52 50  2  0  0  0  0
M  END
>  <MODEL>
6

>  <REMARK>
 VINA RESULT:      -5.7      2.328      8.312
  Name = 
  26 active torsions:
  status: ('A' for Active; 'I' for Inactive)
    1  A    between atoms: C_1  and  N_24
    2  A    between atoms: C_1  and  C_28
    3  A    between atoms: O_2  and  C_12
    4  A    between atoms: O_2  and  C_21
    5  A    between atoms: N_3  and  C_20
    6  A    between atoms: C_5  and  C_8
    7  A    between atoms: C_5  and  N_43
    8  A    between atoms: C_7  and  C_11
    9  A    between atoms: C_8  and  N_22
   10  A    between atoms: C_10  and  N_13
   11  A    between atoms: C_11  and  C_49
   12  A    between atoms: C_12  and  C_48
   13  A    between atoms: N_13  and  C_36
   14  A    between atoms: N_13  and  C_48
   15  A    between atoms: C_16  and  O_40
   16  A    between atoms: C_19  and  C_38
   17  A    between atoms: C_21  and  C_42
   18  A    between atoms: N_27  and  C_31
   19  A    between atoms: C_31  and  C_47
   20  A    between atoms: C_35  and  C_36
   21  A    between atoms: C_35  and  C_37
   22  A    between atoms: C_37  and  C_45
   23  A    between atoms: C_39  and  C_45
   24  A    between atoms: O_40  and  C_42
   25  A    between atoms: C_42  and  C_47
   26  A    between atoms: C_49  and  C_50
                            x       y       z     vdW  Elec       q    Type
                         _______ _______ _______ _____ _____    ______ ____

>  <TORSDO>
F 26

$$$$
=
 OpenBabel11032421163D

 52 53  0  0  1  0  0  0  0  0999 V2000
  186.3220  178.0950  142.3590 N   0  0  0  0  0  0  0  0  0  0  0  0
  187.3040  177.8880  144.6150 C   0  0  0  0  0  2  0  0  0  0  0  0
  186.5740  178.8210  143.6200 C   0  0  2  0  0  3  0  0  0  0  0  0
  184.5650  178.4090  145.1080 C   0  0  0  0  0  2  0  0  0  0  0  0
  185.0500  178.7970  147.4160 O   0  0  0  0  0  1  0  0  0  0  0  0
  185.4230  178.0210  146.3180 C   0  0  2  0  0  3  0  0  0  0  0  0
  186.9350  178.1690  146.0760 C   0  0  1  0  0  3  0  0  0  0  0  0
  185.2850  179.4220  144.2250 C   0  0  0  0  0  2  0  0  0  0  0  0
  187.6880  177.2180  146.9920 C   0  0  0  0  0  2  0  0  0  0  0  0
  188.8380  177.9460  147.6620 C   0  0  0  0  0  2  0  0  0  0  0  0
  190.1290  177.1600  147.5140 C   0  0  0  0  0  2  0  0  0  0  0  0
  190.5100  177.0400  146.0450 C   0  0  0  0  0  1  0  0  0  0  0  0
  185.5690  178.9040  141.3980 C   0  0  0  0  0  2  0  0  0  0  0  0
  184.1090  178.5050  141.4270 C   0  0  0  0  0  2  0  0  0  0  0  0
  183.7870  177.6840  140.1950 C   0  0  0  0  0  2  0  0  0  0  0  0
  184.3740  178.3640  138.9690 C   0  0  0  0  0  2  0  0  0  0  0  0
  183.9730  177.4260  136.8150 O   0  0  0  0  0  0  0  0  0  0  0  0
  183.5190  178.1100  137.7710 C   0  0  0  0  0  0  0  0  0  0  0  0
  182.1950  178.6500  137.7130 N   0  0  0  0  0  2  0  0  0  0  0  0
  181.3190  178.4450  136.5710 C   0  0  0  0  0  2  0  0  0  0  0  0
  179.9530  179.0490  136.8550 C   0  0  0  0  0  2  0  0  0  0  0  0
  179.7030  182.7740  136.0180 N   0  0  0  0  0  2  0  0  0  0  0  0
  179.7960  180.3090  136.1390 N   0  0  0  0  0  2  0  0  0  0  0  0
  180.4330  181.6600  137.9380 O   0  0  0  0  0  0  0  0  0  0  0  0
  179.9920  181.5840  136.7570 C   0  0  0  0  0  0  0  0  0  0  0  0
  179.7720  184.1000  136.6120 C   0  0  0  0  0  2  0  0  0  0  0  0
  181.0760  184.7760  136.2190 C   0  0  0  0  0  1  0  0  0  0  0  0
  187.5900  177.6660  141.7470 C   0  0  0  0  0  2  0  0  0  0  0  0
  187.7920  178.1740  140.3130 C   0  0  0  0  0  2  0  0  0  0  0  0
  189.1720  178.2160  139.9760 O   0  0  0  0  0  0  0  0  0  0  0  0
  189.8850  177.0780  139.5920 C   0  0  0  0  0  0  0  0  0  0  0  0
  190.2430  176.2260  140.4520 O   0  0  0  0  0  0  0  0  0  0  0  0
  190.2460  176.8950  138.1520 C   0  0  2  0  0  3  0  0  0  0  0  0
  191.6560  176.9810  137.9540 O   0  0  0  0  0  0  0  0  0  0  0  0
  194.3390  175.3060  136.0490 C   0  0  0  0  0  3  0  0  0  0  0  0
  193.9700  173.9630  136.1710 C   0  0  0  0  0  3  0  0  0  0  0  0
  192.4090  175.9630  137.3620 C   0  0  0  0  0  0  0  0  0  0  0  0
  192.8190  173.6180  136.8810 C   0  0  0  0  0  3  0  0  0  0  0  0
  193.5600  176.3020  136.6440 C   0  0  0  0  0  3  0  0  0  0  0  0
  192.0400  174.6140  137.4740 C   0  0  0  0  0  3  0  0  0  0  0  0
  189.5360  177.9460  137.3180 C   0  0  0  0  0  2  0  0  0  0  0  0
  189.1430  177.4110  135.9440 C   0  0  0  0  0  2  0  0  0  0  0  0
  187.9050  175.1920  135.8370 C   0  0  0  0  0  0  0  0  0  0  0  0
  187.9770  173.7700  135.9220 N   0  0  0  0  0  2  0  0  0  0  0  0
  189.1110  175.9540  135.9400 N   0  0  0  0  0  2  0  0  0  0  0  0
  186.7920  175.7680  135.6710 O   0  0  0  0  0  0  0  0  0  0  0  0
  186.7940  172.9310  136.0260 C   0  0  0  0  0  2  0  0  0  0  0  0
  186.3330  172.9010  137.4460 C   0  0  0  0  0  3  0  0  0  0  0  0
  185.0570  172.9290  137.8380 C   0  0  0  0  0  3  0  0  0  0  0  0
  183.8730  172.9570  136.9630 C   0  0  0  0  0  0  0  0  0  0  0  0
  183.1440  171.6910  136.7030 C   0  0  0  0  0  1  0  0  0  0  0  0
  183.4870  174.0170  136.4010 O   0  0  0  0  0  0  0  0  0  0  0  0
  2  7  1  0  0  0  0
  3  1  1  6  0  0  0
  3  8  1  0  0  0  0
  3  2  1  0  0  0  0
  4  6  1  0  0  0  0
  6  5  1  1  0  0  0
  7  6  1  0  0  0  0
  7  9  1  1  0  0  0
  8  4  1  0  0  0  0
  9 10  1  0  0  0  0
 11 10  1  0  0  0  0
 12 11  1  0  0  0  0
 13 14  1  0  0  0  0
 13  1  1  0  0  0  0
 15 14  1  0  0  0  0
 16 15  1  0  0  0  0
 17 18  2  0  0  0  0
 18 16  1  0  0  0  0
 19 18  1  0  0  0  0
 20 21  1  0  0  0  0
 20 19  1  0  0  0  0
 22 26  1  0  0  0  0
 22 25  1  0  0  0  0
 23 25  1  0  0  0  0
 23 21  1  0  0  0  0
 25 24  2  0  0  0  0
 27 26  1  0  0  0  0
 28  1  1  0  0  0  0
 29 28  1  0  0  0  0
 30 29  1  0  0  0  0
 31 30  1  0  0  0  0
 31 32  2  0  0  0  0
 33 41  1  6  0  0  0
 33 31  1  0  0  0  0
 34 33  1  0  0  0  0
 35 36  2  0  0  0  0
 35 39  1  0  0  0  0
 36 38  1  0  0  0  0
 37 40  1  0  0  0  0
 37 34  1  0  0  0  0
 38 40  2  0  0  0  0
 39 37  2  0  0  0  0
 42 41  1  0  0  0  0
 43 44  1  0  0  0  0
 43 45  1  0  0  0  0
 44 47  1  0  0  0  0
 45 42  1  0  0  0  0
 46 43  2  0  0  0  0
 47 48  1  0  0  0  0
 48 49  2  0  0  0  0
 50 49  1  0  0  0  0
 51 50  1  0  0  0  0
 52 50  2  0  0  0  0
M  END
>  <MODEL>
7

>  <REMARK>
 VINA RESULT:      -5.7      2.989      9.328
  Name = 
  26 active torsions:
  status: ('A' for Active; 'I' for Inactive)
    1  A    between atoms: C_1  and  N_24
    2  A    between atoms: C_1  and  C_28
    3  A    between atoms: O_2  and  C_12
    4  A    between atoms: O_2  and  C_21
    5  A    between atoms: N_3  and  C_20
    6  A    between atoms: C_5  and  C_8
    7  A    between atoms: C_5  and  N_43
    8  A    between atoms: C_7  and  C_11
    9  A    between atoms: C_8  and  N_22
   10  A    between atoms: C_10  and  N_13
   11  A    between atoms: C_11  and  C_49
   12  A    between atoms: C_12  and  C_48
   13  A    between atoms: N_13  and  C_36
   14  A    between atoms: N_13  and  C_48
   15  A    between atoms: C_16  and  O_40
   16  A    between atoms: C_19  and  C_38
   17  A    between atoms: C_21  and  C_42
   18  A    between atoms: N_27  and  C_31
   19  A    between atoms: C_31  and  C_47
   20  A    between atoms: C_35  and  C_36
   21  A    between atoms: C_35  and  C_37
   22  A    between atoms: C_37  and  C_45
   23  A    between atoms: C_39  and  C_45
   24  A    between atoms: O_40  and  C_42
   25  A    between atoms: C_42  and  C_47
   26  A    between atoms: C_49  and  C_50
                            x       y       z     vdW  Elec       q    Type
                         _______ _______ _______ _____ _____    ______ ____

>  <TORSDO>
F 26

$$$$
=
 OpenBabel11032421163D

 52 53  0  0  1  0  0  0  0  0999 V2000
  188.5850  178.3990  141.0120 N   0  0  0  0  0  0  0  0  0  0  0  0
  188.7130  177.9120  143.4290 C   0  0  0  0  0  2  0  0  0  0  0  0
  188.9140  177.3530  142.0000 C   0  0  2  0  0  3  0  0  0  0  0  0
  191.3790  177.6030  142.5290 C   0  0  0  0  0  2  0  0  0  0  0  0
  191.9690  176.5890  144.6110 O   0  0  0  0  0  1  0  0  0  0  0  0
  191.1530  177.5700  144.0450 C   0  0  2  0  0  3  0  0  0  0  0  0
  189.6910  177.3140  144.4470 C   0  0  1  0  0  3  0  0  0  0  0  0
  190.3310  176.7710  141.7980 C   0  0  0  0  0  2  0  0  0  0  0  0
  189.4340  177.9080  145.8220 C   0  0  0  0  0  2  0  0  0  0  0  0
  189.5050  176.8210  146.8770 C   0  0  0  0  0  2  0  0  0  0  0  0
  188.3010  176.8880  147.7990 C   0  0  0  0  0  2  0  0  0  0  0  0
  188.4260  178.0720  148.7480 C   0  0  0  0  0  1  0  0  0  0  0  0
  189.3370  178.2360  139.7660 C   0  0  0  0  0  2  0  0  0  0  0  0
  188.5200  177.4290  138.7780 C   0  0  0  0  0  2  0  0  0  0  0  0
  189.3040  176.2010  138.3610 C   0  0  0  0  0  2  0  0  0  0  0  0
  189.4840  176.2060  136.8520 C   0  0  0  0  0  2  0  0  0  0  0  0
  191.2780  176.3560  135.2900 O   0  0  0  0  0  0  0  0  0  0  0  0
  190.9340  176.2840  136.5000 C   0  0  0  0  0  0  0  0  0  0  0  0
  191.9210  176.2660  137.5360 N   0  0  0  0  0  2  0  0  0  0  0  0
  193.3460  176.3300  137.2550 C   0  0  0  0  0  2  0  0  0  0  0  0
  193.8140  175.0060  136.6710 C   0  0  0  0  0  2  0  0  0  0  0  0
  197.6330  174.7660  136.6760 N   0  0  0  0  0  2  0  0  0  0  0  0
  195.2160  175.0900  136.2820 N   0  0  0  0  0  2  0  0  0  0  0  0
  196.0170  173.8420  138.0890 O   0  0  0  0  0  0  0  0  0  0  0  0
  196.2770  174.5380  137.0670 C   0  0  0  0  0  0  0  0  0  0  0  0
  198.7630  174.3320  137.4810 C   0  0  0  0  0  2  0  0  0  0  0  0
  198.9800  172.8380  137.3080 C   0  0  0  0  0  1  0  0  0  0  0  0
  187.1430  178.3940  140.7140 C   0  0  0  0  0  2  0  0  0  0  0  0
  186.2700  178.9340  141.8560 C   0  0  0  0  0  2  0  0  0  0  0  0
  185.0430  179.4500  141.3580 O   0  0  0  0  0  0  0  0  0  0  0  0
  184.5300  179.0920  140.1090 C   0  0  0  0  0  0  0  0  0  0  0  0
  184.6310  179.8780  139.1270 O   0  0  0  0  0  0  0  0  0  0  0  0
  183.8340  177.7780  139.9560 C   0  0  2  0  0  3  0  0  0  0  0  0
  183.8410  177.3400  138.5990 O   0  0  0  0  0  0  0  0  0  0  0  0
  181.4450  174.6730  137.7110 C   0  0  0  0  0  3  0  0  0  0  0  0
  180.5900  175.3480  136.8360 C   0  0  0  0  0  3  0  0  0  0  0  0
  182.7580  176.6920  137.9970 C   0  0  0  0  0  0  0  0  0  0  0  0
  180.8190  176.6910  136.5340 C   0  0  0  0  0  3  0  0  0  0  0  0
  182.5260  175.3450  138.2890 C   0  0  0  0  0  3  0  0  0  0  0  0
  181.9000  177.3620  137.1110 C   0  0  0  0  0  3  0  0  0  0  0  0
  182.4060  177.9020  140.4580 C   0  0  0  0  0  2  0  0  0  0  0  0
  181.9390  179.3540  140.4880 C   0  0  0  0  0  2  0  0  0  0  0  0
  180.8260  180.6120  138.5790 C   0  0  0  0  0  0  0  0  0  0  0  0
  179.6640  180.7860  137.7690 N   0  0  0  0  0  2  0  0  0  0  0  0
  180.8390  179.5700  139.5580 N   0  0  0  0  0  2  0  0  0  0  0  0
  181.8290  181.3670  138.4290 O   0  0  0  0  0  0  0  0  0  0  0  0
  179.4850  181.9320  136.8920 C   0  0  0  0  0  2  0  0  0  0  0  0
  179.1100  183.1240  137.7090 C   0  0  0  0  0  3  0  0  0  0  0  0
  179.7480  184.2980  137.6910 C   0  0  0  0  0  3  0  0  0  0  0  0
  180.9030  184.6520  136.8490 C   0  0  0  0  0  0  0  0  0  0  0  0
  180.7570  184.6030  135.3740 C   0  0  0  0  0  1  0  0  0  0  0  0
  182.0200  184.9580  137.3480 O   0  0  0  0  0  0  0  0  0  0  0  0
  2  7  1  0  0  0  0
  3  1  1  6  0  0  0
  3  2  1  0  0  0  0
  4  6  1  0  0  0  0
  6  7  1  0  0  0  0
  6  5  1  1  0  0  0
  7  9  1  1  0  0  0
  8  3  1  0  0  0  0
  8  4  1  0  0  0  0
  9 10  1  0  0  0  0
 10 11  1  0  0  0  0
 11 12  1  0  0  0  0
 13  1  1  0  0  0  0
 14 13  1  0  0  0  0
 15 14  1  0  0  0  0
 16 15  1  0  0  0  0
 17 18  2  0  0  0  0
 18 16  1  0  0  0  0
 18 19  1  0  0  0  0
 20 19  1  0  0  0  0
 21 20  1  0  0  0  0
 22 25  1  0  0  0  0
 22 26  1  0  0  0  0
 23 21  1  0  0  0  0
 23 25  1  0  0  0  0
 25 24  2  0  0  0  0
 27 26  1  0  0  0  0
 28  1  1  0  0  0  0
 28 29  1  0  0  0  0
 30 29  1  0  0  0  0
 31 30  1  0  0  0  0
 32 31  2  0  0  0  0
 33 31  1  0  0  0  0
 33 41  1  6  0  0  0
 34 33  1  0  0  0  0
 35 39  1  0  0  0  0
 36 35  2  0  0  0  0
 37 39  2  0  0  0  0
 37 34  1  0  0  0  0
 38 36  1  0  0  0  0
 38 40  2  0  0  0  0
 40 37  1  0  0  0  0
 41 42  1  0  0  0  0
 43 45  1  0  0  0  0
 44 43  1  0  0  0  0
 45 42  1  0  0  0  0
 46 43  2  0  0  0  0
 47 48  1  0  0  0  0
 47 44  1  0  0  0  0
 49 48  2  0  0  0  0
 50 52  2  0  0  0  0
 50 49  1  0  0  0  0
 51 50  1  0  0  0  0
M  END
>  <MODEL>
8

>  <REMARK>
 VINA RESULT:      -5.4      2.875     11.122
  Name = 
  26 active torsions:
  status: ('A' for Active; 'I' for Inactive)
    1  A    between atoms: C_1  and  N_24
    2  A    between atoms: C_1  and  C_28
    3  A    between atoms: O_2  and  C_12
    4  A    between atoms: O_2  and  C_21
    5  A    between atoms: N_3  and  C_20
    6  A    between atoms: C_5  and  C_8
    7  A    between atoms: C_5  and  N_43
    8  A    between atoms: C_7  and  C_11
    9  A    between atoms: C_8  and  N_22
   10  A    between atoms: C_10  and  N_13
   11  A    between atoms: C_11  and  C_49
   12  A    between atoms: C_12  and  C_48
   13  A    between atoms: N_13  and  C_36
   14  A    between atoms: N_13  and  C_48
   15  A    between atoms: C_16  and  O_40
   16  A    between atoms: C_19  and  C_38
   17  A    between atoms: C_21  and  C_42
   18  A    between atoms: N_27  and  C_31
   19  A    between atoms: C_31  and  C_47
   20  A    between atoms: C_35  and  C_36
   21  A    between atoms: C_35  and  C_37
   22  A    between atoms: C_37  and  C_45
   23  A    between atoms: C_39  and  C_45
   24  A    between atoms: O_40  and  C_42
   25  A    between atoms: C_42  and  C_47
   26  A    between atoms: C_49  and  C_50
                            x       y       z     vdW  Elec       q    Type
                         _______ _______ _______ _____ _____    ______ ____

>  <TORSDO>
F 26

$$$$
=
 OpenBabel11032421163D

 52 53  0  0  1  0  0  0  0  0999 V2000
  186.6150  178.4840  139.2630 N   0  0  0  0  0  0  0  0  0  0  0  0
  184.3840  178.3330  140.3090 C   0  0  0  0  0  2  0  0  0  0  0  0
  185.8550  177.8560  140.3610 C   0  0  2  0  0  3  0  0  0  0  0  0
  186.0200  179.4220  142.3460 C   0  0  0  0  0  2  0  0  0  0  0  0
  184.2860  179.0460  143.9470 O   0  0  0  0  0  1  0  0  0  0  0  0
  184.5110  179.3930  142.6140 C   0  0  2  0  0  3  0  0  0  0  0  0
  183.7380  178.4310  141.6960 C   0  0  1  0  0  3  0  0  0  0  0  0
  186.4970  178.1050  141.7450 C   0  0  0  0  0  2  0  0  0  0  0  0
  182.3000  178.9030  141.5660 C   0  0  0  0  0  2  0  0  0  0  0  0
  181.5920  178.7820  142.9020 C   0  0  0  0  0  2  0  0  0  0  0  0
  180.0990  178.5940  142.7030 C   0  0  0  0  0  2  0  0  0  0  0  0
  179.3580  178.8100  144.0150 C   0  0  0  0  0  1  0  0  0  0  0  0
  187.8140  177.7190  138.9150 C   0  0  0  0  0  2  0  0  0  0  0  0
  189.0290  178.6220  138.9660 C   0  0  0  0  0  2  0  0  0  0  0  0
  190.1820  177.8780  139.6100 C   0  0  0  0  0  2  0  0  0  0  0  0
  189.6810  177.1410  140.8420 C   0  0  0  0  0  2  0  0  0  0  0  0
  191.9140  177.4670  141.6070 O   0  0  0  0  0  0  0  0  0  0  0  0
  190.7990  176.9150  141.8050 C   0  0  0  0  0  0  0  0  0  0  0  0
  190.6010  176.0670  142.9410 N   0  0  0  0  0  2  0  0  0  0  0  0
  191.6530  175.8020  143.9090 C   0  0  0  0  0  2  0  0  0  0  0  0
  191.5050  176.7360  145.0990 C   0  0  0  0  0  2  0  0  0  0  0  0
  188.0210  177.8850  146.1880 N   0  0  0  0  0  2  0  0  0  0  0  0
  190.1770  177.3360  145.1130 N   0  0  0  0  0  2  0  0  0  0  0  0
  189.8180  177.0110  147.4000 O   0  0  0  0  0  0  0  0  0  0  0  0
  189.3580  177.3870  146.2850 C   0  0  0  0  0  0  0  0  0  0  0  0
  187.0950  177.8660  147.3090 C   0  0  0  0  0  2  0  0  0  0  0  0
  185.8530  178.6730  146.9680 C   0  0  0  0  0  1  0  0  0  0  0  0
  185.7690  178.6330  138.0680 C   0  0  0  0  0  2  0  0  0  0  0  0
  185.8930  177.4750  137.0680 C   0  0  0  0  0  2  0  0  0  0  0  0
  184.6240  176.8960  136.7980 O   0  0  0  0  0  0  0  0  0  0  0  0
  184.4830  175.6100  136.2710 C   0  0  0  0  0  0  0  0  0  0  0  0
  184.5880  175.4120  135.0290 O   0  0  0  0  0  0  0  0  0  0  0  0
  184.1750  174.4740  137.1930 C   0  0  2  0  0  3  0  0  0  0  0  0
  183.4360  174.9130  138.3310 O   0  0  0  0  0  0  0  0  0  0  0  0
  179.8780  174.7730  137.3520 C   0  0  0  0  0  3  0  0  0  0  0  0
  179.3230  175.7540  138.1780 C   0  0  0  0  0  3  0  0  0  0  0  0
  182.0710  175.2120  138.2900 C   0  0  0  0  0  0  0  0  0  0  0  0
  180.1390  176.4690  139.0560 C   0  0  0  0  0  3  0  0  0  0  0  0
  181.2480  174.5040  137.4080 C   0  0  0  0  0  3  0  0  0  0  0  0
  181.5090  176.2010  139.1110 C   0  0  0  0  0  3  0  0  0  0  0  0
  185.4710  173.8170  137.6340 C   0  0  0  0  0  2  0  0  0  0  0  0
  186.2510  173.2500  136.4520 C   0  0  0  0  0  2  0  0  0  0  0  0
  188.7100  173.8630  136.6510 C   0  0  0  0  0  0  0  0  0  0  0  0
  190.0330  173.4400  136.9790 N   0  0  0  0  0  2  0  0  0  0  0  0
  187.6260  172.9480  136.8280 N   0  0  0  0  0  2  0  0  0  0  0  0
  188.5030  175.0310  136.2140 O   0  0  0  0  0  0  0  0  0  0  0  0
  191.2110  174.2240  136.6500 C   0  0  0  0  0  2  0  0  0  0  0  0
  191.5100  175.1610  137.7740 C   0  0  0  0  0  3  0  0  0  0  0  0
  192.6800  175.7770  137.9680 C   0  0  0  0  0  3  0  0  0  0  0  0
  193.8710  175.6850  137.1060 C   0  0  0  0  0  0  0  0  0  0  0  0
  193.7530  176.0700  135.6790 C   0  0  0  0  0  1  0  0  0  0  0  0
  194.9730  175.2530  137.5400 O   0  0  0  0  0  0  0  0  0  0  0  0
  2  3  1  0  0  0  0
  2  7  1  0  0  0  0
  3  1  1  6  0  0  0
  3  8  1  0  0  0  0
  4  6  1  0  0  0  0
  6  5  1  1  0  0  0
  7  9  1  6  0  0  0
  7  6  1  0  0  0  0
  8  4  1  0  0  0  0
  9 10  1  0  0  0  0
 11 10  1  0  0  0  0
 11 12  1  0  0  0  0
 13 14  1  0  0  0  0
 13  1  1  0  0  0  0
 14 15  1  0  0  0  0
 15 16  1  0  0  0  0
 16 18  1  0  0  0  0
 17 18  2  0  0  0  0
 18 19  1  0  0  0  0
 19 20  1  0  0  0  0
 20 21  1  0  0  0  0
 21 23  1  0  0  0  0
 22 25  1  0  0  0  0
 22 26  1  0  0  0  0
 23 25  1  0  0  0  0
 25 24  2  0  0  0  0
 27 26  1  0  0  0  0
 28  1  1  0  0  0  0
 29 28  1  0  0  0  0
 30 29  1  0  0  0  0
 31 30  1  0  0  0  0
 31 33  1  0  0  0  0
 32 31  2  0  0  0  0
 33 41  1  1  0  0  0
 33 34  1  0  0  0  0
 35 39  2  0  0  0  0
 35 36  1  0  0  0  0
 36 38  2  0  0  0  0
 37 34  1  0  0  0  0
 37 40  2  0  0  0  0
 38 40  1  0  0  0  0
 39 37  1  0  0  0  0
 42 45  1  0  0  0  0
 42 41  1  0  0  0  0
 43 45  1  0  0  0  0
 43 44  1  0  0  0  0
 46 43  2  0  0  0  0
 47 44  1  0  0  0  0
 47 48  1  0  0  0  0
 48 49  2  0  0  0  0
 50 52  2  0  0  0  0
 50 49  1  0  0  0  0
 51 50  1  0  0  0  0
M  END
>  <MODEL>
9

>  <REMARK>
 VINA RESULT:      -5.3      2.397      5.813
  Name = 
  26 active torsions:
  status: ('A' for Active; 'I' for Inactive)
    1  A    between atoms: C_1  and  N_24
    2  A    between atoms: C_1  and  C_28
    3  A    between atoms: O_2  and  C_12
    4  A    between atoms: O_2  and  C_21
    5  A    between atoms: N_3  and  C_20
    6  A    between atoms: C_5  and  C_8
    7  A    between atoms: C_5  and  N_43
    8  A    between atoms: C_7  and  C_11
    9  A    between atoms: C_8  and  N_22
   10  A    between atoms: C_10  and  N_13
   11  A    between atoms: C_11  and  C_49
   12  A    between atoms: C_12  and  C_48
   13  A    between atoms: N_13  and  C_36
   14  A    between atoms: N_13  and  C_48
   15  A    between atoms: C_16  and  O_40
   16  A    between atoms: C_19  and  C_38
   17  A    between atoms: C_21  and  C_42
   18  A    between atoms: N_27  and  C_31
   19  A    between atoms: C_31  and  C_47
   20  A    between atoms: C_35  and  C_36
   21  A    between atoms: C_35  and  C_37
   22  A    between atoms: C_37  and  C_45
   23  A    between atoms: C_39  and  C_45
   24  A    between atoms: O_40  and  C_42
   25  A    between atoms: C_42  and  C_47
   26  A    between atoms: C_49  and  C_50
                            x       y       z     vdW  Elec       q    Type
                         _______ _______ _______ _____ _____    ______ ____

>  <TORSDO>
F 26

$$$$
