=
 OpenBabel11042411203D

 25 26  0  0  1  0  0  0  0  0999 V2000
  190.1090  176.5510  143.5090 C   0  0  1  0  0  3  0  0  0  0  0  0
  190.7230  177.0950  142.2570 C   0  0  0  0  0  0  0  0  0  0  0  0
  191.6230  177.9720  142.3420 O   0  0  0  0  0  0  0  0  0  0  0  0
  190.7890  177.1760  139.8400 O   0  0  0  0  0  1  0  0  0  0  0  0
  190.2660  176.6610  140.9760 N   0  0  0  0  0  2  0  0  0  0  0  0
  190.2000  177.5060  144.6190 N   0  0  0  0  0  2  0  0  0  0  0  0
  190.8300  177.1570  146.9980 C   0  0  1  0  0  3  0  0  0  0  0  0
  191.7400  176.1320  147.6150 C   0  0  0  0  0  2  0  0  0  0  0  0
  191.7440  175.8470  145.2520 O   0  0  0  0  0  0  0  0  0  0  0  0
  192.3690  175.4190  146.4340 C   0  0  0  0  0  2  0  0  0  0  0  0
  191.2720  177.1330  145.5430 C   0  0  1  0  0  3  0  0  0  0  0  0
  189.3800  176.7080  147.1750 C   0  0  0  0  0  2  0  0  0  0  0  0
  189.3330  178.4560  148.8020 O   0  0  0  0  0  1  0  0  0  0  0  0
  188.5540  177.7850  147.8590 C   0  0  0  0  0  2  0  0  0  0  0  0
  188.7310  176.1180  143.2860 N   0  0  0  0  0  2  0  0  0  0  0  0
  186.0550  178.5640  142.6000 N   0  0  0  0  0  0  0  0  0  0  0  0
  187.1270  177.7460  142.4250 C   0  0  0  0  0  3  0  0  0  0  0  0
  185.4100  178.6480  143.7960 C   0  0  0  0  0  0  0  0  0  0  0  0
  187.5990  176.9690  143.4850 C   0  0  0  0  0  0  0  0  0  0  0  0
  185.8520  177.8910  144.8840 C   0  0  0  0  0  3  0  0  0  0  0  0
  186.9500  177.0460  144.7240 C   0  0  0  0  0  3  0  0  0  0  0  0
  184.2570  179.5770  143.9550 C   0  0  0  0  0  2  0  0  0  0  0  0
  183.0100  178.7960  144.3190 C   0  0  0  0  0  2  0  0  0  0  0  0
  181.8720  179.2100  143.4120 C   0  0  0  0  0  2  0  0  0  0  0  0
  182.1310  178.6980  142.0120 C   0  0  0  0  0  1  0  0  0  0  0  0
  1  2  1  6  0  0  0
  1  6  1  0  0  0  0
  2  3  2  0  0  0  0
  4  5  1  0  0  0  0
  5  2  1  0  0  0  0
  7 12  1  6  0  0  0
  7  8  1  0  0  0  0
  9 11  1  0  0  0  0
  9 10  1  0  0  0  0
 10  8  1  0  0  0  0
 11  6  1  6  0  0  0
 11  7  1  0  0  0  0
 12 14  1  0  0  0  0
 14 13  1  0  0  0  0
 15 19  1  0  0  0  0
 15  1  1  0  0  0  0
 16 18  1  0  0  0  0
 17 16  2  0  0  0  0
 17 19  1  0  0  0  0
 18 22  1  0  0  0  0
 18 20  2  0  0  0  0
 19 21  2  0  0  0  0
 21 20  1  0  0  0  0
 22 23  1  0  0  0  0
 24 23  1  0  0  0  0
 25 24  1  0  0  0  0
M  END
>  <MODEL>
1

>  <REMARK>
 VINA RESULT:      -7.1      0.000      0.000
  Name = 
  10 active torsions:
  status: ('A' for Active; 'I' for Inactive)
    1  A    between atoms: C_1  and  C_10
    2  A    between atoms: C_1  and  C_21
    3  A    between atoms: C_2  and  C_24
    4  A    between atoms: C_6  and  C_11
    5  A    between atoms: C_6  and  C_20
    6  A    between atoms: C_7  and  C_21
    7  A    between atoms: N_13  and  C_24
    8  A    between atoms: N_13  and  C_25
    9  A    between atoms: C_17  and  N_22
   10  A    between atoms: N_22  and  C_24
                            x       y       z     vdW  Elec       q    Type
                         _______ _______ _______ _____ _____    ______ ____

>  <TORSDO>
F 10

$$$$
=
 OpenBabel11042411203D

 25 26  0  0  1  0  0  0  0  0999 V2000
  187.1460  178.6230  141.7920 C   0  0  1  0  0  3  0  0  0  0  0  0
  186.4430  178.8590  140.4910 C   0  0  0  0  0  0  0  0  0  0  0  0
  185.3180  179.4240  140.4920 O   0  0  0  0  0  0  0  0  0  0  0  0
  186.3700  178.5840  138.0890 O   0  0  0  0  0  1  0  0  0  0  0  0
  187.0170  178.4090  139.2640 N   0  0  0  0  0  2  0  0  0  0  0  0
  186.3730  177.7430  142.6750 N   0  0  0  0  0  2  0  0  0  0  0  0
  185.0760  179.0810  144.3200 C   0  0  1  0  0  3  0  0  0  0  0  0
  184.9130  178.8950  145.8020 C   0  0  0  0  0  2  0  0  0  0  0  0
  186.4010  177.2320  144.9720 O   0  0  0  0  0  0  0  0  0  0  0  0
  185.8750  177.7760  146.1550 C   0  0  0  0  0  2  0  0  0  0  0  0
  186.3340  178.2740  144.0390 C   0  0  1  0  0  3  0  0  0  0  0  0
  183.8470  178.5160  143.6070 C   0  0  0  0  0  2  0  0  0  0  0  0
  181.4830  178.8210  143.4660 O   0  0  0  0  0  1  0  0  0  0  0  0
  182.5690  178.8940  144.3380 C   0  0  0  0  0  2  0  0  0  0  0  0
  188.5020  178.1190  141.5840 N   0  0  0  0  0  2  0  0  0  0  0  0
  190.3190  175.9230  143.9280 N   0  0  0  0  0  0  0  0  0  0  0  0
  189.5150  176.3370  142.9120 C   0  0  0  0  0  3  0  0  0  0  0  0
  190.9920  176.8090  144.7120 C   0  0  0  0  0  0  0  0  0  0  0  0
  189.3560  177.7000  142.6530 C   0  0  0  0  0  0  0  0  0  0  0  0
  190.8570  178.1820  144.4890 C   0  0  0  0  0  3  0  0  0  0  0  0
  190.0360  178.6260  143.4520 C   0  0  0  0  0  3  0  0  0  0  0  0
  191.8400  176.3160  145.8310 C   0  0  0  0  0  2  0  0  0  0  0  0
  191.3000  176.8280  147.1530 C   0  0  0  0  0  2  0  0  0  0  0  0
  189.8020  176.6200  147.2000 C   0  0  0  0  0  2  0  0  0  0  0  0
  189.1540  177.7880  147.9120 C   0  0  0  0  0  1  0  0  0  0  0  0
  1  2  1  6  0  0  0
  1  6  1  0  0  0  0
  2  3  2  0  0  0  0
  4  5  1  0  0  0  0
  5  2  1  0  0  0  0
  7 12  1  6  0  0  0
  7  8  1  0  0  0  0
  8 10  1  0  0  0  0
  9 10  1  0  0  0  0
 11  6  1  6  0  0  0
 11  7  1  0  0  0  0
 11  9  1  0  0  0  0
 12 14  1  0  0  0  0
 13 14  1  0  0  0  0
 15  1  1  0  0  0  0
 15 19  1  0  0  0  0
 16 18  1  0  0  0  0
 17 16  2  0  0  0  0
 18 22  1  0  0  0  0
 19 17  1  0  0  0  0
 19 21  2  0  0  0  0
 20 18  2  0  0  0  0
 21 20  1  0  0  0  0
 22 23  1  0  0  0  0
 23 24  1  0  0  0  0
 24 25  1  0  0  0  0
M  END
>  <MODEL>
2

>  <REMARK>
 VINA RESULT:      -7.0      2.988      6.265
  Name = 
  10 active torsions:
  status: ('A' for Active; 'I' for Inactive)
    1  A    between atoms: C_1  and  C_10
    2  A    between atoms: C_1  and  C_21
    3  A    between atoms: C_2  and  C_24
    4  A    between atoms: C_6  and  C_11
    5  A    between atoms: C_6  and  C_20
    6  A    between atoms: C_7  and  C_21
    7  A    between atoms: N_13  and  C_24
    8  A    between atoms: N_13  and  C_25
    9  A    between atoms: C_17  and  N_22
   10  A    between atoms: N_22  and  C_24
                            x       y       z     vdW  Elec       q    Type
                         _______ _______ _______ _____ _____    ______ ____

>  <TORSDO>
F 10

$$$$
=
 OpenBabel11042411203D

 25 26  0  0  1  0  0  0  0  0999 V2000
  188.3690  178.5070  140.6850 C   0  0  1  0  0  3  0  0  0  0  0  0
  188.4180  178.2390  139.2130 C   0  0  0  0  0  0  0  0  0  0  0  0
  188.1410  177.0860  138.7860 O   0  0  0  0  0  0  0  0  0  0  0  0
  188.9000  179.0160  136.9730 O   0  0  0  0  0  1  0  0  0  0  0  0
  188.8160  179.2620  138.3010 N   0  0  0  0  0  2  0  0  0  0  0  0
  187.2030  179.3180  141.0510 N   0  0  0  0  0  2  0  0  0  0  0  0
  185.0820  178.3380  141.8990 C   0  0  1  0  0  3  0  0  0  0  0  0
  183.7070  178.3380  141.2920 C   0  0  0  0  0  2  0  0  0  0  0  0
  185.2150  179.4130  139.7950 O   0  0  0  0  0  0  0  0  0  0  0  0
  183.9000  178.9330  139.9090 C   0  0  0  0  0  2  0  0  0  0  0  0
  185.9580  178.6360  140.6930 C   0  0  1  0  0  3  0  0  0  0  0  0
  185.1580  179.4340  142.9620 C   0  0  0  0  0  2  0  0  0  0  0  0
  184.8260  178.5270  145.1460 O   0  0  0  0  0  1  0  0  0  0  0  0
  184.1770  179.1690  144.0920 C   0  0  0  0  0  2  0  0  0  0  0  0
  188.4250  177.2680  141.4570 N   0  0  0  0  0  2  0  0  0  0  0  0
  190.5020  177.3340  144.5070 N   0  0  0  0  0  0  0  0  0  0  0  0
  190.1340  177.3840  143.1990 C   0  0  0  0  0  3  0  0  0  0  0  0
  189.5890  177.1330  145.4970 C   0  0  0  0  0  0  0  0  0  0  0  0
  188.7940  177.2200  142.8380 C   0  0  0  0  0  0  0  0  0  0  0  0
  188.2400  176.9600  145.1800 C   0  0  0  0  0  3  0  0  0  0  0  0
  187.8430  177.0070  143.8430 C   0  0  0  0  0  3  0  0  0  0  0  0
  190.0370  177.0580  146.9150 C   0  0  0  0  0  2  0  0  0  0  0  0
  188.8400  176.8600  147.8240 C   0  0  0  0  0  2  0  0  0  0  0  0
  188.5250  178.1580  148.5360 C   0  0  0  0  0  2  0  0  0  0  0  0
  187.1640  178.6550  148.1000 C   0  0  0  0  0  1  0  0  0  0  0  0
  1  2  1  6  0  0  0
  1  6  1  0  0  0  0
  1 15  1  0  0  0  0
  3  2  2  0  0  0  0
  4  5  1  0  0  0  0
  5  2  1  0  0  0  0
  7 12  1  1  0  0  0
  8  7  1  0  0  0  0
  9 10  1  0  0  0  0
  9 11  1  0  0  0  0
 10  8  1  0  0  0  0
 11  6  1  1  0  0  0
 11  7  1  0  0  0  0
 12 14  1  0  0  0  0
 14 13  1  0  0  0  0
 15 19  1  0  0  0  0
 16 18  1  0  0  0  0
 17 16  2  0  0  0  0
 18 22  1  0  0  0  0
 19 17  1  0  0  0  0
 19 21  2  0  0  0  0
 20 18  2  0  0  0  0
 21 20  1  0  0  0  0
 22 23  1  0  0  0  0
 23 24  1  0  0  0  0
 25 24  1  0  0  0  0
M  END
>  <MODEL>
3

>  <REMARK>
 VINA RESULT:      -7.0      2.660      6.212
  Name = 
  10 active torsions:
  status: ('A' for Active; 'I' for Inactive)
    1  A    between atoms: C_1  and  C_10
    2  A    between atoms: C_1  and  C_21
    3  A    between atoms: C_2  and  C_24
    4  A    between atoms: C_6  and  C_11
    5  A    between atoms: C_6  and  C_20
    6  A    between atoms: C_7  and  C_21
    7  A    between atoms: N_13  and  C_24
    8  A    between atoms: N_13  and  C_25
    9  A    between atoms: C_17  and  N_22
   10  A    between atoms: N_22  and  C_24
                            x       y       z     vdW  Elec       q    Type
                         _______ _______ _______ _____ _____    ______ ____

>  <TORSDO>
F 10

$$$$
=
 OpenBabel11042411203D

 25 26  0  0  1  0  0  0  0  0999 V2000
  188.3090  178.5460  140.6180 C   0  0  1  0  0  3  0  0  0  0  0  0
  188.3550  178.1670  139.1710 C   0  0  0  0  0  0  0  0  0  0  0  0
  188.1470  176.9690  138.8400 O   0  0  0  0  0  0  0  0  0  0  0  0
  188.7550  178.7950  136.8690 O   0  0  0  0  0  1  0  0  0  0  0  0
  188.6740  179.1380  138.1750 N   0  0  0  0  0  2  0  0  0  0  0  0
  187.1180  179.3420  140.9340 N   0  0  0  0  0  2  0  0  0  0  0  0
  185.0180  178.2200  141.6470 C   0  0  1  0  0  3  0  0  0  0  0  0
  183.6530  178.2370  141.0200 C   0  0  0  0  0  2  0  0  0  0  0  0
  185.1470  179.4980  139.6600 O   0  0  0  0  0  0  0  0  0  0  0  0
  183.8460  178.9690  139.7050 C   0  0  0  0  0  2  0  0  0  0  0  0
  185.9010  178.6600  140.4910 C   0  0  1  0  0  3  0  0  0  0  0  0
  185.0450  179.2100  142.8120 C   0  0  0  0  0  2  0  0  0  0  0  0
  183.4480  179.5880  144.5480 O   0  0  0  0  0  1  0  0  0  0  0  0
  184.3320  178.6410  144.0290 C   0  0  0  0  0  2  0  0  0  0  0  0
  188.4160  177.3730  141.4820 N   0  0  0  0  0  2  0  0  0  0  0  0
  189.9200  178.1660  144.7580 N   0  0  0  0  0  0  0  0  0  0  0  0
  189.7320  178.0850  143.4140 C   0  0  0  0  0  3  0  0  0  0  0  0
  189.0180  177.6500  145.6370 C   0  0  0  0  0  0  0  0  0  0  0  0
  188.5960  177.4550  142.8990 C   0  0  0  0  0  0  0  0  0  0  0  0
  187.8700  177.0090  145.1640 C   0  0  0  0  0  3  0  0  0  0  0  0
  187.6600  176.9150  143.7890 C   0  0  0  0  0  3  0  0  0  0  0  0
  189.2740  177.7350  147.1010 C   0  0  0  0  0  2  0  0  0  0  0  0
  189.9860  176.4830  147.5740 C   0  0  0  0  0  2  0  0  0  0  0  0
  191.4790  176.7280  147.5970 C   0  0  0  0  0  2  0  0  0  0  0  0
  192.1770  175.6610  146.7830 C   0  0  0  0  0  1  0  0  0  0  0  0
  1  2  1  6  0  0  0
  1  6  1  0  0  0  0
  1 15  1  0  0  0  0
  3  2  2  0  0  0  0
  4  5  1  0  0  0  0
  5  2  1  0  0  0  0
  7 12  1  1  0  0  0
  8  7  1  0  0  0  0
  9 10  1  0  0  0  0
  9 11  1  0  0  0  0
 10  8  1  0  0  0  0
 11  6  1  1  0  0  0
 11  7  1  0  0  0  0
 12 14  1  0  0  0  0
 14 13  1  0  0  0  0
 15 19  1  0  0  0  0
 16 18  1  0  0  0  0
 17 16  2  0  0  0  0
 18 22  1  0  0  0  0
 19 17  1  0  0  0  0
 19 21  2  0  0  0  0
 20 18  2  0  0  0  0
 21 20  1  0  0  0  0
 22 23  1  0  0  0  0
 23 24  1  0  0  0  0
 25 24  1  0  0  0  0
M  END
>  <MODEL>
4

>  <REMARK>
 VINA RESULT:      -6.9      2.788      6.661
  Name = 
  10 active torsions:
  status: ('A' for Active; 'I' for Inactive)
    1  A    between atoms: C_1  and  C_10
    2  A    between atoms: C_1  and  C_21
    3  A    between atoms: C_2  and  C_24
    4  A    between atoms: C_6  and  C_11
    5  A    between atoms: C_6  and  C_20
    6  A    between atoms: C_7  and  C_21
    7  A    between atoms: N_13  and  C_24
    8  A    between atoms: N_13  and  C_25
    9  A    between atoms: C_17  and  N_22
   10  A    between atoms: N_22  and  C_24
                            x       y       z     vdW  Elec       q    Type
                         _______ _______ _______ _____ _____    ______ ____

>  <TORSDO>
F 10

$$$$
=
 OpenBabel11042411203D

 25 26  0  0  1  0  0  0  0  0999 V2000
  188.5520  177.1030  143.3450 C   0  0  1  0  0  3  0  0  0  0  0  0
  189.4700  176.3910  142.4010 C   0  0  0  0  0  0  0  0  0  0  0  0
  190.1220  175.3930  142.8090 O   0  0  0  0  0  0  0  0  0  0  0  0
  190.5010  176.2460  140.2170 O   0  0  0  0  0  1  0  0  0  0  0  0
  189.6440  176.8610  141.0640 N   0  0  0  0  0  2  0  0  0  0  0  0
  189.2390  177.4900  144.5820 N   0  0  0  0  0  2  0  0  0  0  0  0
  189.2140  176.6740  146.9300 C   0  0  1  0  0  3  0  0  0  0  0  0
  188.3840  177.1230  148.1000 C   0  0  0  0  0  2  0  0  0  0  0  0
  187.7320  178.3550  146.1690 O   0  0  0  0  0  0  0  0  0  0  0  0
  187.3910  178.1060  147.5080 C   0  0  0  0  0  2  0  0  0  0  0  0
  188.4090  177.2010  145.7530 C   0  0  1  0  0  3  0  0  0  0  0  0
  190.5990  177.3140  147.0240 C   0  0  0  0  0  2  0  0  0  0  0  0
  192.4930  176.3530  148.1170 O   0  0  0  0  0  1  0  0  0  0  0  0
  191.6930  176.2600  146.9780 C   0  0  0  0  0  2  0  0  0  0  0  0
  187.9120  178.2500  142.7050 N   0  0  0  0  0  2  0  0  0  0  0  0
  184.6010  178.9220  141.2190 N   0  0  0  0  0  0  0  0  0  0  0  0
  185.9470  178.7820  141.3550 C   0  0  0  0  0  3  0  0  0  0  0  0
  183.7510  178.6800  142.2550 C   0  0  0  0  0  0  0  0  0  0  0  0
  186.4930  178.3880  142.5780 C   0  0  0  0  0  0  0  0  0  0  0  0
  184.2570  178.2880  143.4970 C   0  0  0  0  0  3  0  0  0  0  0  0
  185.6340  178.1390  143.6560 C   0  0  0  0  0  3  0  0  0  0  0  0
  182.2860  178.8730  142.0740 C   0  0  0  0  0  2  0  0  0  0  0  0
  181.6080  178.9800  143.4260 C   0  0  0  0  0  2  0  0  0  0  0  0
  180.2580  178.2990  143.3700 C   0  0  0  0  0  2  0  0  0  0  0  0
  179.2940  179.0150  144.2900 C   0  0  0  0  0  1  0  0  0  0  0  0
  1  2  1  6  0  0  0
  1  6  1  0  0  0  0
  2  3  2  0  0  0  0
  4  5  1  0  0  0  0
  5  2  1  0  0  0  0
  7 12  1  1  0  0  0
  7  8  1  0  0  0  0
  9 10  1  0  0  0  0
 10  8  1  0  0  0  0
 11  6  1  6  0  0  0
 11  9  1  0  0  0  0
 11  7  1  0  0  0  0
 14 12  1  0  0  0  0
 14 13  1  0  0  0  0
 15  1  1  0  0  0  0
 16 17  2  0  0  0  0
 16 18  1  0  0  0  0
 17 19  1  0  0  0  0
 18 20  2  0  0  0  0
 19 15  1  0  0  0  0
 19 21  2  0  0  0  0
 20 21  1  0  0  0  0
 22 18  1  0  0  0  0
 22 23  1  0  0  0  0
 24 23  1  0  0  0  0
 24 25  1  0  0  0  0
M  END
>  <MODEL>
5

>  <REMARK>
 VINA RESULT:      -6.8      1.626      2.719
  Name = 
  10 active torsions:
  status: ('A' for Active; 'I' for Inactive)
    1  A    between atoms: C_1  and  C_10
    2  A    between atoms: C_1  and  C_21
    3  A    between atoms: C_2  and  C_24
    4  A    between atoms: C_6  and  C_11
    5  A    between atoms: C_6  and  C_20
    6  A    between atoms: C_7  and  C_21
    7  A    between atoms: N_13  and  C_24
    8  A    between atoms: N_13  and  C_25
    9  A    between atoms: C_17  and  N_22
   10  A    between atoms: N_22  and  C_24
                            x       y       z     vdW  Elec       q    Type
                         _______ _______ _______ _____ _____    ______ ____

>  <TORSDO>
F 10

$$$$
=
 OpenBabel11042411203D

 25 26  0  0  1  0  0  0  0  0999 V2000
  189.3050  178.0520  140.5750 C   0  0  1  0  0  3  0  0  0  0  0  0
  189.2280  178.1240  139.0820 C   0  0  0  0  0  0  0  0  0  0  0  0
  189.4980  177.1000  138.4000 O   0  0  0  0  0  0  0  0  0  0  0  0
  188.8610  179.4330  137.0800 O   0  0  0  0  0  1  0  0  0  0  0  0
  188.8950  179.3500  138.4300 N   0  0  0  0  0  2  0  0  0  0  0  0
  188.1660  177.3230  141.1430 N   0  0  0  0  0  2  0  0  0  0  0  0
  186.4770  179.1080  141.5130 C   0  0  1  0  0  3  0  0  0  0  0  0
  185.4610  179.2650  142.6100 C   0  0  0  0  0  2  0  0  0  0  0  0
  186.7690  177.3210  143.0360 O   0  0  0  0  0  0  0  0  0  0  0  0
  185.7890  178.1580  143.5950 C   0  0  0  0  0  2  0  0  0  0  0  0
  187.4670  178.1370  142.1380 C   0  0  1  0  0  3  0  0  0  0  0  0
  185.7920  178.5280  140.2760 C   0  0  0  0  0  2  0  0  0  0  0  0
  184.4350  180.1470  139.1610 O   0  0  0  0  0  1  0  0  0  0  0  0
  184.4000  179.1140  140.0970 C   0  0  0  0  0  2  0  0  0  0  0  0
  190.5780  177.4890  141.0180 N   0  0  0  0  0  2  0  0  0  0  0  0
  191.2510  175.6610  144.1530 N   0  0  0  0  0  0  0  0  0  0  0  0
  190.9620  175.9180  142.8490 C   0  0  0  0  0  3  0  0  0  0  0  0
  191.4820  176.6650  145.0430 C   0  0  0  0  0  0  0  0  0  0  0  0
  190.8890  177.2360  142.3920 C   0  0  0  0  0  0  0  0  0  0  0  0
  191.4150  177.9970  144.6280 C   0  0  0  0  0  3  0  0  0  0  0  0
  191.1200  178.2810  143.2950 C   0  0  0  0  0  3  0  0  0  0  0  0
  191.7680  176.3420  146.4680 C   0  0  0  0  0  2  0  0  0  0  0  0
  190.8670  177.1600  147.3730 C   0  0  0  0  0  2  0  0  0  0  0  0
  189.4490  176.6390  147.2780 C   0  0  0  0  0  2  0  0  0  0  0  0
  188.5180  177.5720  148.0220 C   0  0  0  0  0  1  0  0  0  0  0  0
  1  2  1  6  0  0  0
  1 15  1  0  0  0  0
  1  6  1  0  0  0  0
  3  2  2  0  0  0  0
  4  5  1  0  0  0  0
  5  2  1  0  0  0  0
  7 12  1  6  0  0  0
  7 11  1  0  0  0  0
  7  8  1  0  0  0  0
  8 10  1  0  0  0  0
  9 10  1  0  0  0  0
 11  6  1  6  0  0  0
 11  9  1  0  0  0  0
 13 14  1  0  0  0  0
 14 12  1  0  0  0  0
 15 19  1  0  0  0  0
 16 18  1  0  0  0  0
 17 16  2  0  0  0  0
 18 22  1  0  0  0  0
 19 17  1  0  0  0  0
 19 21  2  0  0  0  0
 20 18  2  0  0  0  0
 21 20  1  0  0  0  0
 22 23  1  0  0  0  0
 24 23  1  0  0  0  0
 24 25  1  0  0  0  0
M  END
>  <MODEL>
6

>  <REMARK>
 VINA RESULT:      -6.7      2.599      6.569
  Name = 
  10 active torsions:
  status: ('A' for Active; 'I' for Inactive)
    1  A    between atoms: C_1  and  C_10
    2  A    between atoms: C_1  and  C_21
    3  A    between atoms: C_2  and  C_24
    4  A    between atoms: C_6  and  C_11
    5  A    between atoms: C_6  and  C_20
    6  A    between atoms: C_7  and  C_21
    7  A    between atoms: N_13  and  C_24
    8  A    between atoms: N_13  and  C_25
    9  A    between atoms: C_17  and  N_22
   10  A    between atoms: N_22  and  C_24
                            x       y       z     vdW  Elec       q    Type
                         _______ _______ _______ _____ _____    ______ ____

>  <TORSDO>
F 10

$$$$
=
 OpenBabel11042411203D

 25 26  0  0  1  0  0  0  0  0999 V2000
  190.1870  177.1470  146.6510 C   0  0  1  0  0  3  0  0  0  0  0  0
  191.2940  176.7900  147.5940 C   0  0  0  0  0  0  0  0  0  0  0  0
  191.6330  177.6120  148.4860 O   0  0  0  0  0  0  0  0  0  0  0  0
  193.0180  175.2390  148.2840 O   0  0  0  0  0  1  0  0  0  0  0  0
  191.9910  175.5520  147.4600 N   0  0  0  0  0  2  0  0  0  0  0  0
  190.2730  176.3860  145.4000 N   0  0  0  0  0  2  0  0  0  0  0  0
  191.2540  176.3400  143.1160 C   0  0  1  0  0  3  0  0  0  0  0  0
  191.7490  177.4680  142.2550 C   0  0  0  0  0  2  0  0  0  0  0  0
  191.0460  178.3470  144.3530 O   0  0  0  0  0  0  0  0  0  0  0  0
  191.6930  178.6880  143.1550 C   0  0  0  0  0  2  0  0  0  0  0  0
  191.2680  176.9720  144.4990 C   0  0  1  0  0  3  0  0  0  0  0  0
  189.8460  175.9500  142.6660 C   0  0  0  0  0  2  0  0  0  0  0  0
  188.5120  177.7960  141.9470 O   0  0  0  0  0  1  0  0  0  0  0  0
  189.3880  176.8080  141.4980 C   0  0  0  0  0  2  0  0  0  0  0  0
  188.8780  176.9970  147.2820 N   0  0  0  0  0  2  0  0  0  0  0  0
  185.5920  178.6550  147.0140 N   0  0  0  0  0  0  0  0  0  0  0  0
  186.7470  178.1640  147.5370 C   0  0  0  0  0  3  0  0  0  0  0  0
  185.3010  178.5360  145.6900 C   0  0  0  0  0  0  0  0  0  0  0  0
  187.6700  177.5120  146.7150 C   0  0  0  0  0  0  0  0  0  0  0  0
  186.1940  177.8870  144.8340 C   0  0  0  0  0  3  0  0  0  0  0  0
  187.3840  177.3760  145.3510 C   0  0  0  0  0  3  0  0  0  0  0  0
  184.0120  179.0620  145.1620 C   0  0  0  0  0  2  0  0  0  0  0  0
  184.1640  179.4280  143.6990 C   0  0  0  0  0  2  0  0  0  0  0  0
  182.9500  178.9530  142.9300 C   0  0  0  0  0  2  0  0  0  0  0  0
  181.7600  178.8800  143.8620 C   0  0  0  0  0  1  0  0  0  0  0  0
  1  6  1  6  0  0  0
  1 15  1  0  0  0  0
  1  2  1  0  0  0  0
  2  3  2  0  0  0  0
  5  2  1  0  0  0  0
  5  4  1  0  0  0  0
  7 12  1  6  0  0  0
  7 11  1  0  0  0  0
  8  7  1  0  0  0  0
  8 10  1  0  0  0  0
  9 11  1  0  0  0  0
 10  9  1  0  0  0  0
 11  6  1  1  0  0  0
 14 13  1  0  0  0  0
 14 12  1  0  0  0  0
 16 17  1  0  0  0  0
 18 16  2  0  0  0  0
 19 15  1  0  0  0  0
 19 17  2  0  0  0  0
 20 21  2  0  0  0  0
 20 18  1  0  0  0  0
 21 19  1  0  0  0  0
 22 18  1  0  0  0  0
 23 22  1  0  0  0  0
 24 23  1  0  0  0  0
 24 25  1  0  0  0  0
M  END
>  <MODEL>
7

>  <REMARK>
 VINA RESULT:      -6.6      2.057      4.384
  Name = 
  10 active torsions:
  status: ('A' for Active; 'I' for Inactive)
    1  A    between atoms: C_1  and  C_10
    2  A    between atoms: C_1  and  C_21
    3  A    between atoms: C_2  and  C_24
    4  A    between atoms: C_6  and  C_11
    5  A    between atoms: C_6  and  C_20
    6  A    between atoms: C_7  and  C_21
    7  A    between atoms: N_13  and  C_24
    8  A    between atoms: N_13  and  C_25
    9  A    between atoms: C_17  and  N_22
   10  A    between atoms: N_22  and  C_24
                            x       y       z     vdW  Elec       q    Type
                         _______ _______ _______ _____ _____    ______ ____

>  <TORSDO>
F 10

$$$$
=
 OpenBabel11042411203D

 25 26  0  0  1  0  0  0  0  0999 V2000
  188.0880  177.5830  140.8870 C   0  0  1  0  0  3  0  0  0  0  0  0
  189.0340  177.8770  139.7650 C   0  0  0  0  0  0  0  0  0  0  0  0
  188.9610  178.9850  139.1700 O   0  0  0  0  0  0  0  0  0  0  0  0
  190.8150  177.1420  138.3020 O   0  0  0  0  0  1  0  0  0  0  0  0
  189.9830  176.8980  139.3400 N   0  0  0  0  0  2  0  0  0  0  0  0
  188.7670  176.9380  142.0160 N   0  0  0  0  0  2  0  0  0  0  0  0
  189.3350  178.2470  144.0510 C   0  0  1  0  0  3  0  0  0  0  0  0
  190.6720  178.5220  144.6800 C   0  0  0  0  0  2  0  0  0  0  0  0
  190.9980  177.2600  142.6880 O   0  0  0  0  0  0  0  0  0  0  0  0
  191.6810  177.9630  143.6930 C   0  0  0  0  0  2  0  0  0  0  0  0
  189.7290  177.8490  142.6370 C   0  0  1  0  0  3  0  0  0  0  0  0
  188.6510  177.1090  144.8090 C   0  0  0  0  0  2  0  0  0  0  0  0
  186.8790  178.0160  146.1290 O   0  0  0  0  0  1  0  0  0  0  0  0
  188.1980  177.5650  146.1870 C   0  0  0  0  0  2  0  0  0  0  0  0
  187.3680  178.7840  141.3080 N   0  0  0  0  0  2  0  0  0  0  0  0
  183.7040  179.0030  140.9250 N   0  0  0  0  0  0  0  0  0  0  0  0
  185.0310  178.9890  140.6280 C   0  0  0  0  0  3  0  0  0  0  0  0
  183.2570  178.8190  142.1980 C   0  0  0  0  0  0  0  0  0  0  0  0
  185.9760  178.7900  141.6370 C   0  0  0  0  0  0  0  0  0  0  0  0
  184.1690  178.6210  143.2380 C   0  0  0  0  0  3  0  0  0  0  0  0
  185.5340  178.6040  142.9530 C   0  0  0  0  0  3  0  0  0  0  0  0
  181.7970  178.8690  142.4870 C   0  0  0  0  0  2  0  0  0  0  0  0
  181.5560  178.6480  143.9670 C   0  0  0  0  0  2  0  0  0  0  0  0
  180.1110  178.2530  144.1890 C   0  0  0  0  0  2  0  0  0  0  0  0
  179.2040  179.3480  143.6710 C   0  0  0  0  0  1  0  0  0  0  0  0
  1  2  1  6  0  0  0
  1 15  1  0  0  0  0
  1  6  1  0  0  0  0
  3  2  2  0  0  0  0
  4  5  1  0  0  0  0
  5  2  1  0  0  0  0
  7  8  1  0  0  0  0
  7 12  1  1  0  0  0
  9 10  1  0  0  0  0
 10  8  1  0  0  0  0
 11  6  1  1  0  0  0
 11  9  1  0  0  0  0
 11  7  1  0  0  0  0
 12 14  1  0  0  0  0
 13 14  1  0  0  0  0
 15 19  1  0  0  0  0
 16 18  1  0  0  0  0
 17 16  2  0  0  0  0
 17 19  1  0  0  0  0
 18 22  1  0  0  0  0
 18 20  2  0  0  0  0
 19 21  2  0  0  0  0
 21 20  1  0  0  0  0
 22 23  1  0  0  0  0
 23 24  1  0  0  0  0
 25 24  1  0  0  0  0
M  END
>  <MODEL>
8

>  <REMARK>
 VINA RESULT:      -6.5      2.124      3.016
  Name = 
  10 active torsions:
  status: ('A' for Active; 'I' for Inactive)
    1  A    between atoms: C_1  and  C_10
    2  A    between atoms: C_1  and  C_21
    3  A    between atoms: C_2  and  C_24
    4  A    between atoms: C_6  and  C_11
    5  A    between atoms: C_6  and  C_20
    6  A    between atoms: C_7  and  C_21
    7  A    between atoms: N_13  and  C_24
    8  A    between atoms: N_13  and  C_25
    9  A    between atoms: C_17  and  N_22
   10  A    between atoms: N_22  and  C_24
                            x       y       z     vdW  Elec       q    Type
                         _______ _______ _______ _____ _____    ______ ____

>  <TORSDO>
F 10

$$$$
=
 OpenBabel11042411203D

 25 26  0  0  1  0  0  0  0  0999 V2000
  189.0460  177.9340  145.6460 C   0  0  1  0  0  3  0  0  0  0  0  0
  189.9150  177.1330  146.5650 C   0  0  0  0  0  0  0  0  0  0  0  0
  189.3840  176.2980  147.3440 O   0  0  0  0  0  0  0  0  0  0  0  0
  192.1150  176.6480  147.4480 O   0  0  0  0  0  1  0  0  0  0  0  0
  191.3270  177.3400  146.5930 N   0  0  0  0  0  2  0  0  0  0  0  0
  189.8080  178.4880  144.5220 N   0  0  0  0  0  2  0  0  0  0  0  0
  189.3800  177.2990  142.3820 C   0  0  1  0  0  3  0  0  0  0  0  0
  190.3470  176.7480  141.3730 C   0  0  0  0  0  2  0  0  0  0  0  0
  191.5700  177.6600  143.2010 O   0  0  0  0  0  0  0  0  0  0  0  0
  191.7090  176.9110  142.0210 C   0  0  0  0  0  2  0  0  0  0  0  0
  190.2540  177.4260  143.6190 C   0  0  1  0  0  3  0  0  0  0  0  0
  188.8620  178.6510  141.8910 C   0  0  0  0  0  2  0  0  0  0  0  0
  186.9330  178.6200  140.4840 O   0  0  0  0  0  1  0  0  0  0  0  0
  188.3260  178.5490  140.4730 C   0  0  0  0  0  2  0  0  0  0  0  0
  187.8970  177.1590  145.1860 N   0  0  0  0  0  2  0  0  0  0  0  0
  184.6340  178.6750  146.0090 N   0  0  0  0  0  0  0  0  0  0  0  0
  185.8810  178.1500  146.1460 C   0  0  0  0  0  3  0  0  0  0  0  0
  184.0440  178.8000  144.7890 C   0  0  0  0  0  0  0  0  0  0  0  0
  186.5880  177.7150  145.0230 C   0  0  0  0  0  0  0  0  0  0  0  0
  184.7150  178.3740  143.6400 C   0  0  0  0  0  3  0  0  0  0  0  0
  185.9940  177.8310  143.7610 C   0  0  0  0  0  3  0  0  0  0  0  0
  182.6660  179.3550  144.6840 C   0  0  0  0  0  2  0  0  0  0  0  0
  182.0660  178.9960  143.3390 C   0  0  0  0  0  2  0  0  0  0  0  0
  180.6450  178.5130  143.5330 C   0  0  0  0  0  2  0  0  0  0  0  0
  179.6820  179.6310  143.1980 C   0  0  0  0  0  1  0  0  0  0  0  0
  1  6  1  6  0  0  0
  1  2  1  0  0  0  0
  2  5  1  0  0  0  0
  2  3  2  0  0  0  0
  5  4  1  0  0  0  0
  7 12  1  6  0  0  0
  7 11  1  0  0  0  0
  8 10  1  0  0  0  0
  8  7  1  0  0  0  0
  9 11  1  0  0  0  0
 10  9  1  0  0  0  0
 11  6  1  1  0  0  0
 14 13  1  0  0  0  0
 14 12  1  0  0  0  0
 15  1  1  0  0  0  0
 16 17  1  0  0  0  0
 18 16  2  0  0  0  0
 19 15  1  0  0  0  0
 19 17  2  0  0  0  0
 20 21  2  0  0  0  0
 20 18  1  0  0  0  0
 21 19  1  0  0  0  0
 22 18  1  0  0  0  0
 23 24  1  0  0  0  0
 23 22  1  0  0  0  0
 25 24  1  0  0  0  0
M  END
>  <MODEL>
9

>  <REMARK>
 VINA RESULT:      -6.5      1.972      4.370
  Name = 
  10 active torsions:
  status: ('A' for Active; 'I' for Inactive)
    1  A    between atoms: C_1  and  C_10
    2  A    between atoms: C_1  and  C_21
    3  A    between atoms: C_2  and  C_24
    4  A    between atoms: C_6  and  C_11
    5  A    between atoms: C_6  and  C_20
    6  A    between atoms: C_7  and  C_21
    7  A    between atoms: N_13  and  C_24
    8  A    between atoms: N_13  and  C_25
    9  A    between atoms: C_17  and  N_22
   10  A    between atoms: N_22  and  C_24
                            x       y       z     vdW  Elec       q    Type
                         _______ _______ _______ _____ _____    ______ ____

>  <TORSDO>
F 10

$$$$
