=
 OpenBabel11032420413D

 45 48  0  0  1  0  0  0  0  0999 V2000
  188.0530  177.2790  146.0720 F   0  0  0  0  0  0  0  0  0  0  0  0
  189.5830  177.4240  139.6130 C   0  0  2  0  0  3  0  0  0  0  0  0
  184.4500  177.5380  137.6100 C   0  0  0  0  0  2  0  0  0  0  0  0
  181.5660  179.1240  143.2830 C   0  0  0  0  0  3  0  0  0  0  0  0
  187.9210  177.4200  143.6970 C   0  0  0  0  0  3  0  0  0  0  0  0
  185.2360  178.1980  143.9220 C   0  0  0  0  0  0  0  0  0  0  0  0
  187.7640  177.5910  141.2390 N   0  0  0  0  0  2  0  0  0  0  0  0
  189.9280  177.2960  136.7670 O   0  0  0  0  0  0  0  0  0  0  0  0
  183.7480  176.8000  138.7430 C   0  0  0  0  0  2  0  0  0  0  0  0
  186.4020  175.1250  137.2620 C   0  0  1  0  0  3  0  0  0  0  0  0
  188.8220  175.2250  136.5200 C   0  0  0  0  0  0  0  0  0  0  0  0
  183.2050  178.9580  141.3910 S   0  0  0  0  0  0  0  0  0  0  0  0
  182.9120  178.8790  143.0470 C   0  0  0  0  0  0  0  0  0  0  0  0
  189.1430  177.1730  141.0450 C   0  0  0  0  0  2  0  0  0  0  0  0
  185.3000  173.2950  136.4080 C   0  0  0  0  0  2  0  0  0  0  0  0
  185.9650  176.1230  136.1750 C   0  0  0  0  0  2  0  0  0  0  0  0
  183.8610  178.5800  144.0790 N   0  0  0  0  0  2  0  0  0  0  0  0
  189.4870  174.8850  135.5060 O   0  0  0  0  0  0  0  0  0  0  0  0
  186.6000  172.5200  136.1440 C   0  0  0  0  0  2  0  0  0  0  0  0
  185.4070  174.1520  137.5260 O   0  0  0  0  0  0  0  0  0  0  0  0
  182.2960  176.5620  138.4340 C   0  0  0  0  0  0  0  0  0  0  0  0
  181.8710  178.9090  138.6870 O   0  0  0  0  0  0  0  0  0  0  0  0
  180.8390  179.3490  142.1550 N   0  0  0  0  0  0  0  0  0  0  0  0
  181.2890  177.6760  138.3730 C   0  0  0  0  0  2  0  0  0  0  0  0
  184.5520  176.6560  136.3750 C   0  0  0  0  0  2  0  0  0  0  0  0
  181.8890  175.3200  138.1900 C   0  0  0  0  0  2  0  0  0  0  0  0
  185.8380  178.0740  142.6590 C   0  0  0  0  0  3  0  0  0  0  0  0
  181.0350  179.4750  139.6560 C   0  0  1  0  0  3  0  0  0  0  0  0
  181.5930  179.2820  141.0340 C   0  0  0  0  0  0  0  0  0  0  0  0
  189.2620  176.3770  137.3170 C   0  0  0  0  0  0  0  0  0  0  0  0
  185.9920  177.9270  145.0670 C   0  0  0  0  0  3  0  0  0  0  0  0
  187.3300  177.5390  144.9570 C   0  0  0  0  0  0  0  0  0  0  0  0
  189.0050  176.4150  138.7270 N   0  0  0  0  0  2  0  0  0  0  0  0
  187.7310  173.0650  136.8970 N   0  0  0  0  0  2  0  0  0  0  0  0
  187.1750  177.6880  142.5390 C   0  0  0  0  0  0  0  0  0  0  0  0
  187.6600  174.4700  136.8850 N   0  0  0  0  0  0  0  0  0  0  0  0
  191.8150  177.8290  140.6500 O   0  0  0  0  0  1  0  0  0  0  0  0
  191.6730  176.9280  138.5470 O   0  0  0  0  0  0  0  0  0  0  0  0
  191.0790  177.3840  139.5600 C   0  0  0  0  0  0  0  0  0  0  0  0
  180.7700  180.9480  139.3460 C   0  0  0  0  0  2  0  0  0  0  0  0
  181.5800  181.4560  138.1570 C   0  0  2  0  0  3  0  0  0  0  0  0
  182.7420  182.0670  138.5930 F   0  0  0  0  0  0  0  0  0  0  0  0
  181.2340  183.8350  137.2220 C   0  0  0  0  0  1  0  0  0  0  0  0
  180.7720  182.4250  137.3570 C   0  0  0  0  0  0  0  0  0  0  0  0
  179.7310  182.0750  136.8220 O   0  0  0  0  0  0  0  0  0  0  0  0
  2 39  1  1  0  0  0
  2 14  1  0  0  0  0
  3  9  1  0  0  0  0
  5 32  1  0  0  0  0
  6 17  1  0  0  0  0
  6 31  1  0  0  0  0
  7 35  1  0  0  0  0
  8 30  2  0  0  0  0
 10 16  1  6  0  0  0
 10 20  1  0  0  0  0
 11 36  1  0  0  0  0
 11 30  1  0  0  0  0
 12 13  1  0  0  0  0
 13  4  2  0  0  0  0
 13 17  1  0  0  0  0
 14  7  1  0  0  0  0
 15 20  1  0  0  0  0
 16 25  1  0  0  0  0
 18 11  2  0  0  0  0
 19 15  1  0  0  0  0
 19 34  1  0  0  0  0
 21  9  1  0  0  0  0
 22 28  1  0  0  0  0
 23  4  1  0  0  0  0
 24 21  1  0  0  0  0
 24 22  1  0  0  0  0
 25  3  1  0  0  0  0
 26 21  2  0  0  0  0
 27  6  2  0  0  0  0
 28 40  1  6  0  0  0
 28 29  1  0  0  0  0
 29 12  1  0  0  0  0
 29 23  2  0  0  0  0
 30 33  1  0  0  0  0
 32 31  2  0  0  0  0
 32  1  1  0  0  0  0
 33  2  1  0  0  0  0
 35 27  1  0  0  0  0
 35  5  2  0  0  0  0
 36 34  1  0  0  0  0
 36 10  1  0  0  0  0
 38 39  2  0  0  0  0
 39 37  1  0  0  0  0
 41 42  1  1  0  0  0
 41 40  1  0  0  0  0
 43 44  1  0  0  0  0
 44 41  1  0  0  0  0
 45 44  2  0  0  0  0
M  END
>  <MODEL>
1

>  <REMARK>
 VINA RESULT:      -9.3      0.000      0.000
  Name = 
  4 active torsions:
  status: ('A' for Active; 'I' for Inactive)
    1  A    between atoms: C_2  and  C_26
    2  A    between atoms: C_2  and  C_35
    3  A    between atoms: CA_3  and  C_22
    4  A    between atoms: C_25  and  C_26
                            x       y       z     vdW  Elec       q    Type
                         _______ _______ _______ _____ _____    ______ ____

>  <TORSDO>
F 4

$$$$
=
 OpenBabel11032420413D

 45 48  0  0  1  0  0  0  0  0999 V2000
  186.6360  178.3310  145.5720 F   0  0  0  0  0  0  0  0  0  0  0  0
  188.0470  178.0370  139.0910 C   0  0  2  0  0  3  0  0  0  0  0  0
  182.8960  177.4840  137.2080 C   0  0  0  0  0  2  0  0  0  0  0  0
  179.9600  179.2950  142.7860 C   0  0  0  0  0  3  0  0  0  0  0  0
  186.4550  178.2440  143.1980 C   0  0  0  0  0  3  0  0  0  0  0  0
  183.7110  178.7810  143.4170 C   0  0  0  0  0  0  0  0  0  0  0  0
  186.2450  178.1760  140.7390 N   0  0  0  0  0  2  0  0  0  0  0  0
  188.3590  177.6860  136.2600 O   0  0  0  0  0  0  0  0  0  0  0  0
  182.2860  176.7880  138.4180 C   0  0  0  0  0  2  0  0  0  0  0  0
  185.0670  175.2440  137.0280 C   0  0  1  0  0  3  0  0  0  0  0  0
  187.4540  175.5060  136.2240 C   0  0  0  0  0  0  0  0  0  0  0  0
  181.5780  179.1140  140.8770 S   0  0  0  0  0  0  0  0  0  0  0  0
  181.3200  179.1580  142.5410 C   0  0  0  0  0  0  0  0  0  0  0  0
  187.6550  177.8760  140.5500 C   0  0  0  0  0  2  0  0  0  0  0  0
  184.1330  173.2490  136.3660 C   0  0  0  0  0  2  0  0  0  0  0  0
  184.5190  176.0950  135.8690 C   0  0  0  0  0  2  0  0  0  0  0  0
  182.3090  179.0440  143.5720 N   0  0  0  0  0  2  0  0  0  0  0  0
  188.1330  175.1400  135.2270 O   0  0  0  0  0  0  0  0  0  0  0  0
  185.4970  172.5800  136.1400 C   0  0  0  0  0  2  0  0  0  0  0  0
  184.1750  174.2090  137.4010 O   0  0  0  0  0  0  0  0  0  0  0  0
  180.8590  176.3870  138.1670 C   0  0  0  0  0  0  0  0  0  0  0  0
  180.2140  178.6950  138.2210 O   0  0  0  0  0  0  0  0  0  0  0  0
  179.1970  179.3470  141.6600 N   0  0  0  0  0  0  0  0  0  0  0  0
  179.7490  177.3890  138.0310 C   0  0  0  0  0  2  0  0  0  0  0  0
  183.0640  176.5070  136.0540 C   0  0  0  0  0  2  0  0  0  0  0  0
  180.5700  175.0950  138.0430 C   0  0  0  0  0  2  0  0  0  0  0  0
  184.3030  178.6020  142.1560 C   0  0  0  0  0  3  0  0  0  0  0  0
  179.3430  179.2650  139.1560 C   0  0  1  0  0  3  0  0  0  0  0  0
  179.9370  179.2510  140.5320 C   0  0  0  0  0  0  0  0  0  0  0  0
  187.7930  176.7610  136.9050 C   0  0  0  0  0  0  0  0  0  0  0  0
  184.5070  178.6880  144.5630 C   0  0  0  0  0  3  0  0  0  0  0  0
  185.8750  178.4200  144.4560 C   0  0  0  0  0  0  0  0  0  0  0  0
  187.5550  176.9020  138.3110 N   0  0  0  0  0  2  0  0  0  0  0  0
  186.5820  173.2950  136.8160 N   0  0  0  0  0  2  0  0  0  0  0  0
  185.6700  178.3340  142.0390 C   0  0  0  0  0  0  0  0  0  0  0  0
  186.3760  174.6800  136.6810 N   0  0  0  0  0  0  0  0  0  0  0  0
  190.3150  177.7150  140.0790 O   0  0  0  0  0  1  0  0  0  0  0  0
  190.0950  178.5680  137.9630 O   0  0  0  0  0  0  0  0  0  0  0  0
  189.5380  178.1340  139.0060 C   0  0  0  0  0  0  0  0  0  0  0  0
  178.9320  180.6730  138.7240 C   0  0  0  0  0  2  0  0  0  0  0  0
  179.9090  181.7440  139.1980 C   0  0  2  0  0  3  0  0  0  0  0  0
  179.2430  182.9360  139.4210 F   0  0  0  0  0  0  0  0  0  0  0  0
  180.6170  182.2620  136.7730 C   0  0  0  0  0  1  0  0  0  0  0  0
  180.9850  181.9510  138.1820 C   0  0  0  0  0  0  0  0  0  0  0  0
  182.1620  181.8560  138.4940 O   0  0  0  0  0  0  0  0  0  0  0  0
  2 39  1  1  0  0  0
  2 14  1  0  0  0  0
  3  9  1  0  0  0  0
  5 32  1  0  0  0  0
  6 17  1  0  0  0  0
  6 31  1  0  0  0  0
  7 35  1  0  0  0  0
  8 30  2  0  0  0  0
 10 16  1  6  0  0  0
 10 20  1  0  0  0  0
 11 36  1  0  0  0  0
 11 30  1  0  0  0  0
 12 13  1  0  0  0  0
 13  4  2  0  0  0  0
 13 17  1  0  0  0  0
 14  7  1  0  0  0  0
 15 20  1  0  0  0  0
 16 25  1  0  0  0  0
 18 11  2  0  0  0  0
 19 15  1  0  0  0  0
 19 34  1  0  0  0  0
 21  9  1  0  0  0  0
 22 28  1  0  0  0  0
 23  4  1  0  0  0  0
 24 21  1  0  0  0  0
 24 22  1  0  0  0  0
 25  3  1  0  0  0  0
 26 21  2  0  0  0  0
 27  6  2  0  0  0  0
 28 40  1  6  0  0  0
 28 29  1  0  0  0  0
 29 12  1  0  0  0  0
 29 23  2  0  0  0  0
 30 33  1  0  0  0  0
 32 31  2  0  0  0  0
 32  1  1  0  0  0  0
 33  2  1  0  0  0  0
 35 27  1  0  0  0  0
 35  5  2  0  0  0  0
 36 34  1  0  0  0  0
 36 10  1  0  0  0  0
 38 39  2  0  0  0  0
 39 37  1  0  0  0  0
 40 41  1  0  0  0  0
 41 42  1  6  0  0  0
 43 44  1  0  0  0  0
 44 45  2  0  0  0  0
 44 41  1  0  0  0  0
M  END
>  <MODEL>
2

>  <REMARK>
 VINA RESULT:      -8.3      1.542      1.740
  Name = 
  4 active torsions:
  status: ('A' for Active; 'I' for Inactive)
    1  A    between atoms: C_2  and  C_26
    2  A    between atoms: C_2  and  C_35
    3  A    between atoms: CA_3  and  C_22
    4  A    between atoms: C_25  and  C_26
                            x       y       z     vdW  Elec       q    Type
                         _______ _______ _______ _____ _____    ______ ____

>  <TORSDO>
F 4

$$$$
=
 OpenBabel11032420413D

 45 48  0  0  1  0  0  0  0  0999 V2000
  190.0090  176.5640  145.2330 F   0  0  0  0  0  0  0  0  0  0  0  0
  191.2560  176.6360  138.7130 C   0  0  2  0  0  3  0  0  0  0  0  0
  186.0760  177.2940  136.9470 C   0  0  0  0  0  2  0  0  0  0  0  0
  183.6240  179.0900  142.7590 C   0  0  0  0  0  3  0  0  0  0  0  0
  189.7850  176.7470  142.8690 C   0  0  0  0  0  3  0  0  0  0  0  0
  187.2060  177.7900  143.2220 C   0  0  0  0  0  0  0  0  0  0  0  0
  189.5370  176.9640  140.4220 N   0  0  0  0  0  2  0  0  0  0  0  0
  191.4580  176.5100  135.8530 O   0  0  0  0  0  0  0  0  0  0  0  0
  185.3540  176.6160  138.1050 C   0  0  0  0  0  2  0  0  0  0  0  0
  187.7560  174.7000  136.4910 C   0  0  1  0  0  3  0  0  0  0  0  0
  190.1370  174.5650  135.6400 C   0  0  0  0  0  0  0  0  0  0  0  0
  185.1520  178.7830  140.7930 S   0  0  0  0  0  0  0  0  0  0  0  0
  184.9270  178.7140  142.4600 C   0  0  0  0  0  0  0  0  0  0  0  0
  190.8570  176.4120  140.1620 C   0  0  0  0  0  2  0  0  0  0  0  0
  186.4370  173.0020  135.6740 C   0  0  0  0  0  2  0  0  0  0  0  0
  187.3740  175.7510  135.4340 C   0  0  0  0  0  2  0  0  0  0  0  0
  185.8860  178.3070  143.4450 N   0  0  0  0  0  2  0  0  0  0  0  0
  190.7180  174.1720  134.5940 O   0  0  0  0  0  0  0  0  0  0  0  0
  187.6380  172.1030  135.3440 C   0  0  0  0  0  2  0  0  0  0  0  0
  186.6800  173.8290  136.7920 O   0  0  0  0  0  0  0  0  0  0  0  0
  183.8730  176.5300  137.8610 C   0  0  0  0  0  0  0  0  0  0  0  0
  183.7000  178.9040  138.1520 O   0  0  0  0  0  0  0  0  0  0  0  0
  182.8740  179.4020  141.6670 N   0  0  0  0  0  0  0  0  0  0  0  0
  182.9830  177.7400  137.8550 C   0  0  0  0  0  2  0  0  0  0  0  0
  186.0330  176.4210  135.7020 C   0  0  0  0  0  2  0  0  0  0  0  0
  183.3320  175.3390  137.6260 C   0  0  0  0  0  2  0  0  0  0  0  0
  187.7350  177.6220  141.9330 C   0  0  0  0  0  3  0  0  0  0  0  0
  182.9700  179.5390  139.1630 C   0  0  1  0  0  3  0  0  0  0  0  0
  183.5670  179.2730  140.5130 C   0  0  0  0  0  0  0  0  0  0  0  0
  190.7270  175.6560  136.4260 C   0  0  0  0  0  0  0  0  0  0  0  0
  187.9810  177.4300  144.3290 C   0  0  0  0  0  3  0  0  0  0  0  0
  189.2660  176.9100  144.1550 C   0  0  0  0  0  0  0  0  0  0  0  0
  190.5390  175.7020  137.8460 N   0  0  0  0  0  2  0  0  0  0  0  0
  188.8510  172.5210  136.0490 N   0  0  0  0  0  2  0  0  0  0  0  0
  189.0200  177.1040  141.7480 C   0  0  0  0  0  0  0  0  0  0  0  0
  188.9230  173.9260  136.0520 N   0  0  0  0  0  0  0  0  0  0  0  0
  193.5870  177.5100  138.8560 O   0  0  0  0  0  1  0  0  0  0  0  0
  193.2150  175.3240  138.2760 O   0  0  0  0  0  0  0  0  0  0  0  0
  192.7350  176.4450  138.5920 C   0  0  0  0  0  0  0  0  0  0  0  0
  182.8430  181.0350  138.8780 C   0  0  0  0  0  2  0  0  0  0  0  0
  181.3920  181.4910  138.7550 C   0  0  2  0  0  3  0  0  0  0  0  0
  180.7280  181.3080  139.9550 F   0  0  0  0  0  0  0  0  0  0  0  0
  181.0920  180.9370  136.2540 C   0  0  0  0  0  1  0  0  0  0  0  0
  180.6990  180.7260  137.6750 C   0  0  0  0  0  0  0  0  0  0  0  0
  179.8050  179.9390  137.9460 O   0  0  0  0  0  0  0  0  0  0  0  0
  2 39  1  1  0  0  0
  2 14  1  0  0  0  0
  3  9  1  0  0  0  0
  5 32  1  0  0  0  0
  6 17  1  0  0  0  0
  6 31  1  0  0  0  0
  7 35  1  0  0  0  0
  8 30  2  0  0  0  0
 10 16  1  6  0  0  0
 10 20  1  0  0  0  0
 11 36  1  0  0  0  0
 11 30  1  0  0  0  0
 12 13  1  0  0  0  0
 13  4  2  0  0  0  0
 13 17  1  0  0  0  0
 14  7  1  0  0  0  0
 15 20  1  0  0  0  0
 16 25  1  0  0  0  0
 18 11  2  0  0  0  0
 19 15  1  0  0  0  0
 19 34  1  0  0  0  0
 21  9  1  0  0  0  0
 22 28  1  0  0  0  0
 23  4  1  0  0  0  0
 24 21  1  0  0  0  0
 24 22  1  0  0  0  0
 25  3  1  0  0  0  0
 26 21  2  0  0  0  0
 27  6  2  0  0  0  0
 28 40  1  6  0  0  0
 28 29  1  0  0  0  0
 29 12  1  0  0  0  0
 29 23  2  0  0  0  0
 30 33  1  0  0  0  0
 32 31  2  0  0  0  0
 32  1  1  0  0  0  0
 33  2  1  0  0  0  0
 34 36  1  0  0  0  0
 35 27  1  0  0  0  0
 35  5  2  0  0  0  0
 36 10  1  0  0  0  0
 38 39  2  0  0  0  0
 39 37  1  0  0  0  0
 41 40  1  0  0  0  0
 41 42  1  1  0  0  0
 43 44  1  0  0  0  0
 44 45  2  0  0  0  0
 44 41  1  0  0  0  0
M  END
>  <MODEL>
3

>  <REMARK>
 VINA RESULT:      -7.8      1.697      1.971
  Name = 
  4 active torsions:
  status: ('A' for Active; 'I' for Inactive)
    1  A    between atoms: C_2  and  C_26
    2  A    between atoms: C_2  and  C_35
    3  A    between atoms: CA_3  and  C_22
    4  A    between atoms: C_25  and  C_26
                            x       y       z     vdW  Elec       q    Type
                         _______ _______ _______ _____ _____    ______ ____

>  <TORSDO>
F 4

$$$$
