=
 OpenBabel11042410373D

 44 50  0  0  1  0  0  0  0  0999 V2000
  185.4600  178.2430  142.0050 C   0  0  0  0  0  0  0  0  0  0  0  0
  189.1270  178.5340  138.9080 C   0  0  0  0  0  2  0  0  0  0  0  0
  187.3630  177.6150  137.4690 C   0  0  0  0  0  3  0  0  0  0  0  0
  188.6940  178.2090  143.2560 C   0  0  2  0  0  3  0  0  0  0  0  0
  186.9090  177.5540  138.9140 C   0  0  0  0  0  3  0  0  0  0  0  0
  186.8210  178.0200  142.0020 C   0  0  0  0  0  0  0  0  0  0  0  0
  187.9570  178.1840  139.6900 N   0  0  0  0  0  0  0  0  0  0  0  0
  187.2660  177.9190  143.2330 N   0  0  0  0  0  0  0  0  0  0  0  0
  189.0440  178.3150  141.8310 N   0  0  0  0  0  0  0  0  0  0  0  0
  188.7540  178.2540  137.4620 C   0  0  2  0  0  3  0  0  0  0  0  0
  185.0850  178.2620  143.3550 C   0  0  0  0  0  3  0  0  0  0  0  0
  186.2570  178.1010  144.1010 C   0  0  0  0  0  3  0  0  0  0  0  0
  187.9540  178.2330  141.1210 C   0  0  0  0  0  0  0  0  0  0  0  0
  189.8000  177.4000  136.7930 C   0  0  0  0  0  0  0  0  0  0  0  0
  191.7820  175.7820  135.6110 C   0  0  0  0  0  0  0  0  0  0  0  0
  191.8390  176.0800  136.9810 C   0  0  0  0  0  0  0  0  0  0  0  0
  190.8550  176.8880  137.5640 C   0  0  0  0  0  3  0  0  0  0  0  0
  189.7240  177.0770  135.4230 C   0  0  0  0  0  3  0  0  0  0  0  0
  190.7130  176.2820  134.8350 C   0  0  0  0  0  3  0  0  0  0  0  0
  192.8700  175.5780  137.7650 O   0  0  0  0  0  1  0  0  0  0  0  0
  192.7850  174.9840  135.0430 O   0  0  0  0  0  0  0  0  0  0  0  0
  192.6480  173.5740  134.8840 C   0  0  0  0  0  1  0  0  0  0  0  0
  184.6030  178.6820  140.8970 C   0  0  0  0  0  0  0  0  0  0  0  0
  182.5840  178.4810  139.5930 C   0  0  0  0  0  0  0  0  0  0  0  0
  184.1800  180.1860  139.1380 N   0  0  0  0  0  0  0  0  0  0  0  0
  183.3930  178.0330  140.6420 C   0  0  0  0  0  3  0  0  0  0  0  0
  183.0050  179.5730  138.8370 C   0  0  0  0  0  3  0  0  0  0  0  0
  184.9520  179.7560  140.1380 N   0  0  0  0  0  0  0  0  0  0  0  0
  181.3590  177.8220  139.2550 N   0  0  0  0  0  2  0  0  0  0  0  0
  180.0630  178.4860  139.3430 C   0  0  0  0  0  2  0  0  0  0  0  0
  179.6220  179.9790  143.3140 C   0  0  0  0  0  3  0  0  0  0  0  0
  179.7230  180.8270  142.2550 N   0  0  0  0  0  0  0  0  0  0  0  0
  179.6460  178.5970  143.1130 C   0  0  0  0  0  3  0  0  0  0  0  0
  179.8280  178.9880  140.7290 C   0  0  0  0  0  0  0  0  0  0  0  0
  179.7590  178.1020  141.8120 C   0  0  0  0  0  3  0  0  0  0  0  0
  179.8330  180.3640  140.9800 C   0  0  0  0  0  3  0  0  0  0  0  0
  189.5120  177.1400  143.9360 C   0  0  0  0  0  0  0  0  0  0  0  0
  189.8910  176.0640  143.2940 C   0  0  0  0  0  0  0  0  0  0  0  0
  190.2540  175.0420  142.6920 O   0  0  0  0  0  0  0  0  0  0  0  0
  191.1830  176.8190  146.1760 S   0  0  0  0  0  0  0  0  0  0  0  0
  188.8220  177.6730  146.2840 N   0  0  0  0  0  0  0  0  0  0  0  0
  190.6060  177.2060  147.7200 C   0  0  0  0  0  3  0  0  0  0  0  0
  189.7440  177.2230  145.3930 C   0  0  0  0  0  0  0  0  0  0  0  0
  189.2910  177.6680  147.5640 C   0  0  0  0  0  3  0  0  0  0  0  0
  1 11  1  0  0  0  0
  2  7  1  0  0  0  0
  3  5  2  0  0  0  0
  4 37  1  6  0  0  0
  5  7  1  0  0  0  0
  6  1  2  0  0  0  0
  6  8  1  0  0  0  0
  7 13  1  0  0  0  0
  8  4  1  0  0  0  0
  8 12  1  0  0  0  0
  9  4  1  0  0  0  0
 10 14  1  1  0  0  0
 10  3  1  0  0  0  0
 10  2  1  0  0  0  0
 11 12  2  0  0  0  0
 13  9  2  0  0  0  0
 13  6  1  0  0  0  0
 14 17  1  0  0  0  0
 15 16  1  0  0  0  0
 16 17  2  0  0  0  0
 16 20  1  0  0  0  0
 18 14  2  0  0  0  0
 19 18  1  0  0  0  0
 19 15  2  0  0  0  0
 21 15  1  0  0  0  0
 22 21  1  0  0  0  0
 23  1  1  0  0  0  0
 24 26  2  0  0  0  0
 25 28  1  0  0  0  0
 26 23  1  0  0  0  0
 27 25  2  0  0  0  0
 27 24  1  0  0  0  0
 28 23  2  0  0  0  0
 29 30  1  0  0  0  0
 29 24  1  0  0  0  0
 30 34  1  0  0  0  0
 32 31  2  0  0  0  0
 33 31  1  0  0  0  0
 34 36  2  0  0  0  0
 34 35  1  0  0  0  0
 35 33  2  0  0  0  0
 36 32  1  0  0  0  0
 37 43  1  0  0  0  0
 38 37  2  0  0  0  0
 39 38  2  0  0  0  0
 40 42  1  0  0  0  0
 41 44  1  0  0  0  0
 43 40  1  0  0  0  0
 43 41  2  0  0  0  0
 44 42  2  0  0  0  0
M  END
>  <MODEL>
1

>  <REMARK>
 VINA RESULT:      -9.4      0.000      0.000
  Name = 
  8 active torsions:
  status: ('A' for Active; 'I' for Inactive)
    1  A    between atoms: C_1  and  C_35
    2  A    between atoms: O_2  and  C_13
    3  A    between atoms: N_3  and  C_9
    4  A    between atoms: N_3  and  C_40
    5  A    between atoms: C_4  and  C_7
    6  A    between atoms: C_15  and  C_17
    7  A    between atoms: C_17  and  C_36
    8  A    between atoms: C_30  and  C_40
                            x       y       z     vdW  Elec       q    Type
                         _______ _______ _______ _____ _____    ______ ____

>  <TORSDO>
F 8

$$$$
=
 OpenBabel11042410373D

 44 50  0  0  1  0  0  0  0  0999 V2000
  190.2630  177.0900  140.8790 C   0  0  0  0  0  0  0  0  0  0  0  0
  186.0550  179.3320  141.5150 C   0  0  0  0  0  2  0  0  0  0  0  0
  186.4040  178.3380  143.7330 C   0  0  0  0  0  3  0  0  0  0  0  0
  188.2830  177.7200  138.1030 C   0  0  2  0  0  3  0  0  0  0  0  0
  187.4070  177.7500  142.7610 C   0  0  0  0  0  3  0  0  0  0  0  0
  189.0990  177.3080  140.1720 C   0  0  0  0  0  0  0  0  0  0  0  0
  187.1980  178.4380  141.5030 N   0  0  0  0  0  0  0  0  0  0  0  0
  189.2790  177.0200  138.9050 N   0  0  0  0  0  0  0  0  0  0  0  0
  187.3890  178.3120  139.1100 N   0  0  0  0  0  0  0  0  0  0  0  0
  185.5640  179.3540  142.9520 C   0  0  2  0  0  3  0  0  0  0  0  0
  191.1920  176.6250  139.9400 C   0  0  0  0  0  3  0  0  0  0  0  0
  190.5510  176.6380  138.6970 C   0  0  0  0  0  3  0  0  0  0  0  0
  187.8840  178.0920  140.2960 C   0  0  0  0  0  0  0  0  0  0  0  0
  184.0840  179.0800  143.0180 C   0  0  0  0  0  0  0  0  0  0  0  0
  181.3170  178.5460  143.0700 C   0  0  0  0  0  0  0  0  0  0  0  0
  182.0130  178.5450  141.8510 C   0  0  0  0  0  0  0  0  0  0  0  0
  183.3870  178.8160  141.8290 C   0  0  0  0  0  3  0  0  0  0  0  0
  183.3930  179.0510  144.2460 C   0  0  0  0  0  3  0  0  0  0  0  0
  182.0180  178.7950  144.2700 C   0  0  0  0  0  3  0  0  0  0  0  0
  181.3460  178.2800  140.6620 O   0  0  0  0  0  1  0  0  0  0  0  0
  179.9390  178.2880  143.0690 O   0  0  0  0  0  0  0  0  0  0  0  0
  179.0280  178.9750  143.9240 C   0  0  0  0  0  1  0  0  0  0  0  0
  190.6010  177.5260  142.2400 C   0  0  0  0  0  0  0  0  0  0  0  0
  191.1070  177.0240  144.5440 C   0  0  0  0  0  0  0  0  0  0  0  0
  191.1350  179.2610  143.7360 N   0  0  0  0  0  0  0  0  0  0  0  0
  190.7660  176.5870  143.2600 C   0  0  0  0  0  3  0  0  0  0  0  0
  191.2840  178.3880  144.7660 C   0  0  0  0  0  3  0  0  0  0  0  0
  190.8070  178.8430  142.5110 N   0  0  0  0  0  0  0  0  0  0  0  0
  191.2380  176.1100  145.6380 N   0  0  0  0  0  2  0  0  0  0  0  0
  191.1280  176.5340  147.0300 C   0  0  0  0  0  2  0  0  0  0  0  0
  187.3050  178.2000  147.9260 C   0  0  0  0  0  3  0  0  0  0  0  0
  188.4030  178.5340  148.6580 N   0  0  0  0  0  0  0  0  0  0  0  0
  187.4180  177.3120  146.8540 C   0  0  0  0  0  3  0  0  0  0  0  0
  189.7990  177.1670  147.2780 C   0  0  0  0  0  0  0  0  0  0  0  0
  188.6730  176.7870  146.5360 C   0  0  0  0  0  3  0  0  0  0  0  0
  189.6340  178.0340  148.3630 C   0  0  0  0  0  3  0  0  0  0  0  0
  187.5210  176.8140  137.1680 C   0  0  0  0  0  0  0  0  0  0  0  0
  186.2140  176.7570  137.1930 C   0  0  0  0  0  0  0  0  0  0  0  0
  184.9750  176.7000  137.2110 O   0  0  0  0  0  0  0  0  0  0  0  0
  189.2390  176.2480  135.0130 S   0  0  0  0  0  0  0  0  0  0  0  0
  188.2720  174.5080  136.5460 N   0  0  0  0  0  0  0  0  0  0  0  0
  189.6740  174.6470  134.6810 C   0  0  0  0  0  3  0  0  0  0  0  0
  188.2630  175.8490  136.3310 C   0  0  0  0  0  0  0  0  0  0  0  0
  189.0480  173.8410  135.6440 C   0  0  0  0  0  3  0  0  0  0  0  0
  1 23  1  0  0  0  0
  2 10  1  0  0  0  0
  4 37  1  6  0  0  0
  4  8  1  0  0  0  0
  4  9  1  0  0  0  0
  5  3  2  0  0  0  0
  6 13  1  0  0  0  0
  6  1  2  0  0  0  0
  7  2  1  0  0  0  0
  7  5  1  0  0  0  0
  8  6  1  0  0  0  0
  9 13  2  0  0  0  0
 10 14  1  6  0  0  0
 10  3  1  0  0  0  0
 11  1  1  0  0  0  0
 12  8  1  0  0  0  0
 12 11  2  0  0  0  0
 13  7  1  0  0  0  0
 14 18  1  0  0  0  0
 15 19  1  0  0  0  0
 16 15  2  0  0  0  0
 17 16  1  0  0  0  0
 17 14  2  0  0  0  0
 18 19  2  0  0  0  0
 20 16  1  0  0  0  0
 21 15  1  0  0  0  0
 21 22  1  0  0  0  0
 23 28  2  0  0  0  0
 23 26  1  0  0  0  0
 24 27  1  0  0  0  0
 24 29  1  0  0  0  0
 25 27  2  0  0  0  0
 26 24  2  0  0  0  0
 28 25  1  0  0  0  0
 29 30  1  0  0  0  0
 30 34  1  0  0  0  0
 31 32  1  0  0  0  0
 33 31  2  0  0  0  0
 34 36  1  0  0  0  0
 35 33  1  0  0  0  0
 35 34  2  0  0  0  0
 36 32  2  0  0  0  0
 37 38  2  0  0  0  0
 38 39  2  0  0  0  0
 40 43  1  0  0  0  0
 42 40  1  0  0  0  0
 42 44  2  0  0  0  0
 43 41  2  0  0  0  0
 43 37  1  0  0  0  0
 44 41  1  0  0  0  0
M  END
>  <MODEL>
2

>  <REMARK>
 VINA RESULT:      -9.1      3.585      9.524
  Name = 
  8 active torsions:
  status: ('A' for Active; 'I' for Inactive)
    1  A    between atoms: C_1  and  C_35
    2  A    between atoms: O_2  and  C_13
    3  A    between atoms: N_3  and  C_9
    4  A    between atoms: N_3  and  C_40
    5  A    between atoms: C_4  and  C_7
    6  A    between atoms: C_15  and  C_17
    7  A    between atoms: C_17  and  C_36
    8  A    between atoms: C_30  and  C_40
                            x       y       z     vdW  Elec       q    Type
                         _______ _______ _______ _____ _____    ______ ____

>  <TORSDO>
F 8

$$$$
=
 OpenBabel11042410373D

 44 50  0  0  1  0  0  0  0  0999 V2000
  185.4850  178.2120  142.0180 C   0  0  0  0  0  0  0  0  0  0  0  0
  189.1710  178.4990  138.9410 C   0  0  0  0  0  2  0  0  0  0  0  0
  187.4210  177.5580  137.4990 C   0  0  0  0  0  3  0  0  0  0  0  0
  188.7100  178.2070  143.2890 C   0  0  2  0  0  3  0  0  0  0  0  0
  186.9580  177.5050  138.9420 C   0  0  0  0  0  3  0  0  0  0  0  0
  186.8470  177.9960  142.0250 C   0  0  0  0  0  0  0  0  0  0  0  0
  187.9970  178.1490  139.7190 N   0  0  0  0  0  0  0  0  0  0  0  0
  187.2840  177.9080  143.2590 N   0  0  0  0  0  0  0  0  0  0  0  0
  189.0690  178.3030  141.8660 N   0  0  0  0  0  0  0  0  0  0  0  0
  188.8090  178.2050  137.4960 C   0  0  2  0  0  3  0  0  0  0  0  0
  185.1010  178.2400  143.3640 C   0  0  0  0  0  3  0  0  0  0  0  0
  186.2690  178.0920  144.1200 C   0  0  0  0  0  3  0  0  0  0  0  0
  187.9850  178.2090  141.1490 C   0  0  0  0  0  0  0  0  0  0  0  0
  189.8630  177.3510  136.8410 C   0  0  0  0  0  0  0  0  0  0  0  0
  191.8620  175.7350  135.6850 C   0  0  0  0  0  0  0  0  0  0  0  0
  191.9070  176.0410  137.0540 C   0  0  0  0  0  0  0  0  0  0  0  0
  190.9140  176.8480  137.6240 C   0  0  0  0  0  3  0  0  0  0  0  0
  189.8010  177.0200  135.4730 C   0  0  0  0  0  3  0  0  0  0  0  0
  190.7980  176.2260  134.8970 C   0  0  0  0  0  3  0  0  0  0  0  0
  192.9330  175.5490  137.8490 O   0  0  0  0  0  1  0  0  0  0  0  0
  192.8740  174.9380  135.1300 O   0  0  0  0  0  0  0  0  0  0  0  0
  194.0760  175.4860  134.5940 C   0  0  0  0  0  1  0  0  0  0  0  0
  184.6320  178.6370  140.9000 C   0  0  0  0  0  0  0  0  0  0  0  0
  182.6770  178.3470  139.5190 C   0  0  0  0  0  0  0  0  0  0  0  0
  184.1530  180.1840  139.1940 N   0  0  0  0  0  0  0  0  0  0  0  0
  183.4830  177.9130  140.5750 C   0  0  0  0  0  3  0  0  0  0  0  0
  183.0370  179.5010  138.8260 C   0  0  0  0  0  3  0  0  0  0  0  0
  184.9240  179.7670  140.2010 N   0  0  0  0  0  0  0  0  0  0  0  0
  181.5160  177.6160  139.1110 N   0  0  0  0  0  2  0  0  0  0  0  0
  181.3450  177.1130  137.7520 C   0  0  0  0  0  2  0  0  0  0  0  0
  184.7940  174.7820  136.8220 C   0  0  0  0  0  3  0  0  0  0  0  0
  183.9520  174.4150  137.8250 N   0  0  0  0  0  0  0  0  0  0  0  0
  184.5320  175.9260  136.0660 C   0  0  0  0  0  3  0  0  0  0  0  0
  182.5120  176.2670  137.3600 C   0  0  0  0  0  0  0  0  0  0  0  0
  183.3870  176.6770  136.3460 C   0  0  0  0  0  3  0  0  0  0  0  0
  182.8310  175.1320  138.1120 C   0  0  0  0  0  3  0  0  0  0  0  0
  189.5300  177.1480  143.9840 C   0  0  0  0  0  0  0  0  0  0  0  0
  189.9220  176.0710  143.3520 C   0  0  0  0  0  0  0  0  0  0  0  0
  190.2990  175.0480  142.7600 O   0  0  0  0  0  0  0  0  0  0  0  0
  191.1730  176.8220  146.2440 S   0  0  0  0  0  0  0  0  0  0  0  0
  188.8260  177.7160  146.3180 N   0  0  0  0  0  0  0  0  0  0  0  0
  190.5870  177.2340  147.7770 C   0  0  0  0  0  3  0  0  0  0  0  0
  189.7490  177.2430  145.4420 C   0  0  0  0  0  0  0  0  0  0  0  0
  189.2810  177.7170  147.6040 C   0  0  0  0  0  3  0  0  0  0  0  0
  1  6  2  0  0  0  0
  1 11  1  0  0  0  0
  2  7  1  0  0  0  0
  3  5  2  0  0  0  0
  4 37  1  6  0  0  0
  5  7  1  0  0  0  0
  6  8  1  0  0  0  0
  7 13  1  0  0  0  0
  8  4  1  0  0  0  0
  8 12  1  0  0  0  0
  9  4  1  0  0  0  0
 10 14  1  1  0  0  0
 10  3  1  0  0  0  0
 10  2  1  0  0  0  0
 11 12  2  0  0  0  0
 13  9  2  0  0  0  0
 13  6  1  0  0  0  0
 14 17  1  0  0  0  0
 15 16  1  0  0  0  0
 16 17  2  0  0  0  0
 16 20  1  0  0  0  0
 18 14  2  0  0  0  0
 19 18  1  0  0  0  0
 19 15  2  0  0  0  0
 21 15  1  0  0  0  0
 22 21  1  0  0  0  0
 23  1  1  0  0  0  0
 24 26  2  0  0  0  0
 25 28  1  0  0  0  0
 26 23  1  0  0  0  0
 27 25  2  0  0  0  0
 27 24  1  0  0  0  0
 28 23  2  0  0  0  0
 29 24  1  0  0  0  0
 30 29  1  0  0  0  0
 31 32  1  0  0  0  0
 32 36  2  0  0  0  0
 33 35  1  0  0  0  0
 33 31  2  0  0  0  0
 34 30  1  0  0  0  0
 34 36  1  0  0  0  0
 35 34  2  0  0  0  0
 37 43  1  0  0  0  0
 38 37  2  0  0  0  0
 39 38  2  0  0  0  0
 40 42  1  0  0  0  0
 41 44  1  0  0  0  0
 43 40  1  0  0  0  0
 43 41  2  0  0  0  0
 44 42  2  0  0  0  0
M  END
>  <MODEL>
3

>  <REMARK>
 VINA RESULT:      -9.0      1.663      2.950
  Name = 
  8 active torsions:
  status: ('A' for Active; 'I' for Inactive)
    1  A    between atoms: C_1  and  C_35
    2  A    between atoms: O_2  and  C_13
    3  A    between atoms: N_3  and  C_9
    4  A    between atoms: N_3  and  C_40
    5  A    between atoms: C_4  and  C_7
    6  A    between atoms: C_15  and  C_17
    7  A    between atoms: C_17  and  C_36
    8  A    between atoms: C_30  and  C_40
                            x       y       z     vdW  Elec       q    Type
                         _______ _______ _______ _____ _____    ______ ____

>  <TORSDO>
F 8

$$$$
=
 OpenBabel11042410373D

 44 50  0  0  1  0  0  0  0  0999 V2000
  188.4270  177.9910  140.5640 C   0  0  0  0  0  0  0  0  0  0  0  0
  192.8890  176.7050  139.3150 C   0  0  0  0  0  2  0  0  0  0  0  0
  191.5820  175.7260  137.4820 C   0  0  0  0  0  3  0  0  0  0  0  0
  190.8420  177.7620  143.0420 C   0  0  2  0  0  3  0  0  0  0  0  0
  190.6400  176.1750  138.5800 C   0  0  0  0  0  3  0  0  0  0  0  0
  189.5760  177.5420  141.1800 C   0  0  0  0  0  0  0  0  0  0  0  0
  191.4680  176.8130  139.5830 N   0  0  0  0  0  0  0  0  0  0  0  0
  189.4990  177.7320  142.4770 N   0  0  0  0  0  0  0  0  0  0  0  0
  191.6980  177.3780  141.9090 N   0  0  0  0  0  0  0  0  0  0  0  0
  193.0020  176.0800  137.9350 C   0  0  2  0  0  3  0  0  0  0  0  0
  187.6110  178.4740  141.5960 C   0  0  0  0  0  3  0  0  0  0  0  0
  188.3390  178.3380  142.7830 C   0  0  0  0  0  3  0  0  0  0  0  0
  190.9620  177.2820  140.8370 C   0  0  0  0  0  0  0  0  0  0  0  0
  193.9340  174.8970  137.9550 C   0  0  0  0  0  0  0  0  0  0  0  0
  195.6450  172.6570  137.9300 C   0  0  0  0  0  0  0  0  0  0  0  0
  194.5220  172.6970  137.0890 C   0  0  0  0  0  0  0  0  0  0  0  0
  193.6710  173.8100  137.1070 C   0  0  0  0  0  3  0  0  0  0  0  0
  195.0770  174.8720  138.7790 C   0  0  0  0  0  3  0  0  0  0  0  0
  195.9210  173.7560  138.7720 C   0  0  0  0  0  3  0  0  0  0  0  0
  194.2470  171.6350  136.2360 O   0  0  0  0  0  1  0  0  0  0  0  0
  196.4750  171.5280  137.9080 O   0  0  0  0  0  0  0  0  0  0  0  0
  197.6240  171.4340  137.0680 C   0  0  0  0  0  1  0  0  0  0  0  0
  188.1880  178.2260  139.1340 C   0  0  0  0  0  0  0  0  0  0  0  0
  186.9510  177.7920  137.1100 C   0  0  0  0  0  0  0  0  0  0  0  0
  188.7050  179.3980  137.1620 N   0  0  0  0  0  0  0  0  0  0  0  0
  187.1720  177.5380  138.4670 C   0  0  0  0  0  3  0  0  0  0  0  0
  187.7450  178.7370  136.4640 C   0  0  0  0  0  3  0  0  0  0  0  0
  188.9180  179.1520  138.4560 N   0  0  0  0  0  0  0  0  0  0  0  0
  185.9580  177.0780  136.3650 N   0  0  0  0  0  2  0  0  0  0  0  0
  186.3000  176.0300  135.4100 C   0  0  0  0  0  2  0  0  0  0  0  0
  187.7720  172.4690  137.2400 C   0  0  0  0  0  3  0  0  0  0  0  0
  188.6260  173.4050  136.7440 N   0  0  0  0  0  0  0  0  0  0  0  0
  186.3920  172.6680  137.1700 C   0  0  0  0  0  3  0  0  0  0  0  0
  186.7970  174.8160  136.1250 C   0  0  0  0  0  0  0  0  0  0  0  0
  185.9040  173.8470  136.6000 C   0  0  0  0  0  3  0  0  0  0  0  0
  188.1700  174.5600  136.1860 C   0  0  0  0  0  3  0  0  0  0  0  0
  191.0240  176.8150  144.2020 C   0  0  0  0  0  0  0  0  0  0  0  0
  191.6410  175.6700  144.0540 C   0  0  0  0  0  0  0  0  0  0  0  0
  192.2250  174.5840  143.9200 O   0  0  0  0  0  0  0  0  0  0  0  0
  190.9650  176.7440  147.0140 S   0  0  0  0  0  0  0  0  0  0  0  0
  189.1480  177.7290  145.5860 N   0  0  0  0  0  0  0  0  0  0  0  0
  189.6390  177.3880  147.8450 C   0  0  0  0  0  3  0  0  0  0  0  0
  190.3490  177.1030  145.4840 C   0  0  0  0  0  0  0  0  0  0  0  0
  188.7530  177.8910  146.8800 C   0  0  0  0  0  3  0  0  0  0  0  0
  1  6  2  0  0  0  0
  1 11  1  0  0  0  0
  2  7  1  0  0  0  0
  3 10  1  0  0  0  0
  3  5  2  0  0  0  0
  4 37  1  1  0  0  0
  5  7  1  0  0  0  0
  6  8  1  0  0  0  0
  7 13  1  0  0  0  0
  8 12  1  0  0  0  0
  8  4  1  0  0  0  0
  9  4  1  0  0  0  0
 10 14  1  1  0  0  0
 10  2  1  0  0  0  0
 11 12  2  0  0  0  0
 13  6  1  0  0  0  0
 13  9  2  0  0  0  0
 14 18  1  0  0  0  0
 15 19  1  0  0  0  0
 16 17  1  0  0  0  0
 16 15  2  0  0  0  0
 17 14  2  0  0  0  0
 19 18  2  0  0  0  0
 20 16  1  0  0  0  0
 21 15  1  0  0  0  0
 22 21  1  0  0  0  0
 23  1  1  0  0  0  0
 24 26  2  0  0  0  0
 25 28  1  0  0  0  0
 26 23  1  0  0  0  0
 27 24  1  0  0  0  0
 27 25  2  0  0  0  0
 28 23  2  0  0  0  0
 29 24  1  0  0  0  0
 30 34  1  0  0  0  0
 30 29  1  0  0  0  0
 32 31  2  0  0  0  0
 33 31  1  0  0  0  0
 34 36  2  0  0  0  0
 34 35  1  0  0  0  0
 35 33  2  0  0  0  0
 36 32  1  0  0  0  0
 37 43  1  0  0  0  0
 38 37  2  0  0  0  0
 39 38  2  0  0  0  0
 40 42  1  0  0  0  0
 41 44  1  0  0  0  0
 43 41  2  0  0  0  0
 43 40  1  0  0  0  0
 44 42  2  0  0  0  0
M  END
>  <MODEL>
4

>  <REMARK>
 VINA RESULT:      -8.8      4.051      5.650
  Name = 
  8 active torsions:
  status: ('A' for Active; 'I' for Inactive)
    1  A    between atoms: C_1  and  C_35
    2  A    between atoms: O_2  and  C_13
    3  A    between atoms: N_3  and  C_9
    4  A    between atoms: N_3  and  C_40
    5  A    between atoms: C_4  and  C_7
    6  A    between atoms: C_15  and  C_17
    7  A    between atoms: C_17  and  C_36
    8  A    between atoms: C_30  and  C_40
                            x       y       z     vdW  Elec       q    Type
                         _______ _______ _______ _____ _____    ______ ____

>  <TORSDO>
F 8

$$$$
=
 OpenBabel11042410373D

 44 50  0  0  1  0  0  0  0  0999 V2000
  190.3500  177.1370  140.8150 C   0  0  0  0  0  0  0  0  0  0  0  0
  186.0950  179.3090  141.3730 C   0  0  0  0  0  2  0  0  0  0  0  0
  186.3830  178.2560  143.5720 C   0  0  0  0  0  3  0  0  0  0  0  0
  188.4560  177.8230  137.9930 C   0  0  2  0  0  3  0  0  0  0  0  0
  187.4250  177.7080  142.6180 C   0  0  0  0  0  3  0  0  0  0  0  0
  189.2080  177.3620  140.0760 C   0  0  0  0  0  0  0  0  0  0  0  0
  187.2490  178.4300  141.3750 N   0  0  0  0  0  0  0  0  0  0  0  0
  189.4330  177.1120  138.8070 N   0  0  0  0  0  0  0  0  0  0  0  0
  187.5210  178.3750  138.9860 N   0  0  0  0  0  0  0  0  0  0  0  0
  185.5570  179.2840  142.7930 C   0  0  2  0  0  3  0  0  0  0  0  0
  191.3160  176.7110  139.8950 C   0  0  0  0  0  3  0  0  0  0  0  0
  190.7160  176.7520  138.6320 C   0  0  0  0  0  3  0  0  0  0  0  0
  187.9800  178.1270  140.1810 C   0  0  0  0  0  0  0  0  0  0  0  0
  184.0790  178.9910  142.8020 C   0  0  0  0  0  0  0  0  0  0  0  0
  181.3200  178.4160  142.7470 C   0  0  0  0  0  0  0  0  0  0  0  0
  182.0730  178.3740  141.5640 C   0  0  0  0  0  0  0  0  0  0  0  0
  183.4430  178.6650  141.5940 C   0  0  0  0  0  3  0  0  0  0  0  0
  183.3310  179.0040  143.9960 C   0  0  0  0  0  3  0  0  0  0  0  0
  181.9600  178.7270  143.9670 C   0  0  0  0  0  3  0  0  0  0  0  0
  181.4660  178.0480  140.3580 O   0  0  0  0  0  1  0  0  0  0  0  0
  179.9470  178.1370  142.6940 O   0  0  0  0  0  0  0  0  0  0  0  0
  178.9630  179.1540  142.5140 C   0  0  0  0  0  1  0  0  0  0  0  0
  190.6380  177.5380  142.1990 C   0  0  0  0  0  0  0  0  0  0  0  0
  191.0170  176.9790  144.5140 C   0  0  0  0  0  0  0  0  0  0  0  0
  191.1570  179.2280  143.7500 N   0  0  0  0  0  0  0  0  0  0  0  0
  190.7230  176.5760  143.2070 C   0  0  0  0  0  3  0  0  0  0  0  0
  191.2280  178.3320  144.7700 C   0  0  0  0  0  3  0  0  0  0  0  0
  190.8730  178.8430  142.5040 N   0  0  0  0  0  0  0  0  0  0  0  0
  191.0660  176.0420  145.5950 N   0  0  0  0  0  2  0  0  0  0  0  0
  191.0050  176.4560  146.9930 C   0  0  0  0  0  2  0  0  0  0  0  0
  187.1740  178.1820  147.7300 C   0  0  0  0  0  3  0  0  0  0  0  0
  187.3700  177.3360  146.6830 N   0  0  0  0  0  0  0  0  0  0  0  0
  188.2280  178.4880  148.5940 C   0  0  0  0  0  3  0  0  0  0  0  0
  189.6540  177.0060  147.3130 C   0  0  0  0  0  0  0  0  0  0  0  0
  189.4770  177.9010  148.3760 C   0  0  0  0  0  3  0  0  0  0  0  0
  188.5790  176.7540  146.4540 C   0  0  0  0  0  3  0  0  0  0  0  0
  187.7370  176.9350  137.0080 C   0  0  0  0  0  0  0  0  0  0  0  0
  188.2970  176.5810  135.8790 C   0  0  0  0  0  0  0  0  0  0  0  0
  188.8220  176.2400  134.8080 O   0  0  0  0  0  0  0  0  0  0  0  0
  185.0850  177.7170  137.5270 S   0  0  0  0  0  0  0  0  0  0  0  0
  185.8220  175.3350  137.2130 N   0  0  0  0  0  0  0  0  0  0  0  0
  183.8710  176.5440  137.6520 C   0  0  0  0  0  3  0  0  0  0  0  0
  186.3170  176.6000  137.2390 C   0  0  0  0  0  0  0  0  0  0  0  0
  184.4780  175.2980  137.4370 C   0  0  0  0  0  3  0  0  0  0  0  0
  1 23  1  0  0  0  0
  2  7  1  0  0  0  0
  2 10  1  0  0  0  0
  4 37  1  6  0  0  0
  4  8  1  0  0  0  0
  4  9  1  0  0  0  0
  5  3  2  0  0  0  0
  6 13  1  0  0  0  0
  6  1  2  0  0  0  0
  7  5  1  0  0  0  0
  8  6  1  0  0  0  0
  9 13  2  0  0  0  0
 10 14  1  6  0  0  0
 10  3  1  0  0  0  0
 11  1  1  0  0  0  0
 12  8  1  0  0  0  0
 12 11  2  0  0  0  0
 13  7  1  0  0  0  0
 14 18  1  0  0  0  0
 15 19  1  0  0  0  0
 16 17  1  0  0  0  0
 16 15  2  0  0  0  0
 17 14  2  0  0  0  0
 19 18  2  0  0  0  0
 20 16  1  0  0  0  0
 21 15  1  0  0  0  0
 22 21  1  0  0  0  0
 23 28  2  0  0  0  0
 23 26  1  0  0  0  0
 24 27  1  0  0  0  0
 24 29  1  0  0  0  0
 25 27  2  0  0  0  0
 26 24  2  0  0  0  0
 28 25  1  0  0  0  0
 29 30  1  0  0  0  0
 30 34  1  0  0  0  0
 31 33  1  0  0  0  0
 32 31  2  0  0  0  0
 34 35  1  0  0  0  0
 35 33  2  0  0  0  0
 36 32  1  0  0  0  0
 36 34  2  0  0  0  0
 37 43  1  0  0  0  0
 38 37  2  0  0  0  0
 39 38  2  0  0  0  0
 40 42  1  0  0  0  0
 41 43  2  0  0  0  0
 41 44  1  0  0  0  0
 43 40  1  0  0  0  0
 44 42  2  0  0  0  0
M  END
>  <MODEL>
5

>  <REMARK>
 VINA RESULT:      -8.8      3.313      9.343
  Name = 
  8 active torsions:
  status: ('A' for Active; 'I' for Inactive)
    1  A    between atoms: C_1  and  C_35
    2  A    between atoms: O_2  and  C_13
    3  A    between atoms: N_3  and  C_9
    4  A    between atoms: N_3  and  C_40
    5  A    between atoms: C_4  and  C_7
    6  A    between atoms: C_15  and  C_17
    7  A    between atoms: C_17  and  C_36
    8  A    between atoms: C_30  and  C_40
                            x       y       z     vdW  Elec       q    Type
                         _______ _______ _______ _____ _____    ______ ____

>  <TORSDO>
F 8

$$$$
=
 OpenBabel11042410373D

 44 50  0  0  1  0  0  0  0  0999 V2000
  188.1660  178.2220  138.2260 C   0  0  0  0  0  0  0  0  0  0  0  0
  189.2380  176.0620  142.3870 C   0  0  0  0  0  2  0  0  0  0  0  0
  187.9520  177.9990  143.1750 C   0  0  0  0  0  3  0  0  0  0  0  0
  190.9510  176.1610  138.3550 C   0  0  2  0  0  3  0  0  0  0  0  0
  188.2790  178.1840  141.7070 C   0  0  0  0  0  3  0  0  0  0  0  0
  189.2380  177.5710  138.7980 C   0  0  0  0  0  0  0  0  0  0  0  0
  188.9610  176.9740  141.2940 N   0  0  0  0  0  0  0  0  0  0  0  0
  190.1220  177.2600  137.8780 N   0  0  0  0  0  0  0  0  0  0  0  0
  190.5350  176.0020  139.7570 N   0  0  0  0  0  0  0  0  0  0  0  0
  188.5380  176.6500  143.6000 C   0  0  2  0  0  3  0  0  0  0  0  0
  188.4600  178.3040  136.8590 C   0  0  0  0  0  3  0  0  0  0  0  0
  189.6800  177.6460  136.6690 C   0  0  0  0  0  3  0  0  0  0  0  0
  189.5300  176.7990  139.9920 C   0  0  0  0  0  0  0  0  0  0  0  0
  189.4840  176.7520  144.7690 C   0  0  0  0  0  0  0  0  0  0  0  0
  191.1930  176.9530  147.0020 C   0  0  0  0  0  0  0  0  0  0  0  0
  189.8390  177.3040  147.1160 C   0  0  0  0  0  0  0  0  0  0  0  0
  188.9940  177.2080  146.0030 C   0  0  0  0  0  3  0  0  0  0  0  0
  190.8360  176.3700  144.6610 C   0  0  0  0  0  3  0  0  0  0  0  0
  191.6860  176.4780  145.7660 C   0  0  0  0  0  3  0  0  0  0  0  0
  189.3300  177.7510  148.3290 O   0  0  0  0  0  1  0  0  0  0  0  0
  192.0250  177.0720  148.1230 O   0  0  0  0  0  0  0  0  0  0  0  0
  192.8560  176.0060  148.5800 C   0  0  0  0  0  1  0  0  0  0  0  0
  186.8500  178.5050  138.8130 C   0  0  0  0  0  0  0  0  0  0  0  0
  184.4420  178.4770  138.6860 C   0  0  0  0  0  0  0  0  0  0  0  0
  185.5640  179.2480  140.6370 N   0  0  0  0  0  0  0  0  0  0  0  0
  185.6840  178.2170  138.1000 C   0  0  0  0  0  3  0  0  0  0  0  0
  184.4020  179.0070  139.9740 C   0  0  0  0  0  3  0  0  0  0  0  0
  186.7500  179.0030  140.0750 N   0  0  0  0  0  0  0  0  0  0  0  0
  183.2160  178.2490  137.9820 N   0  0  0  0  0  2  0  0  0  0  0  0
  181.9240  178.6930  138.4940 C   0  0  0  0  0  2  0  0  0  0  0  0
  180.5580  182.3390  136.7520 C   0  0  0  0  0  3  0  0  0  0  0  0
  181.1360  182.3250  137.9840 N   0  0  0  0  0  0  0  0  0  0  0  0
  180.4170  181.1530  136.0290 C   0  0  0  0  0  3  0  0  0  0  0  0
  181.5130  179.9680  137.8350 C   0  0  0  0  0  0  0  0  0  0  0  0
  180.8910  179.9600  136.5810 C   0  0  0  0  0  3  0  0  0  0  0  0
  181.6040  181.1740  138.5380 C   0  0  0  0  0  3  0  0  0  0  0  0
  192.4300  176.4400  138.2580 C   0  0  0  0  0  0  0  0  0  0  0  0
  193.0860  176.9810  139.2540 C   0  0  0  0  0  0  0  0  0  0  0  0
  193.7130  177.4930  140.1940 O   0  0  0  0  0  0  0  0  0  0  0  0
  192.5460  175.3310  135.6750 S   0  0  0  0  0  0  0  0  0  0  0  0
  194.2940  176.8570  136.6390 N   0  0  0  0  0  0  0  0  0  0  0  0
  193.8610  175.6780  134.6680 C   0  0  0  0  0  3  0  0  0  0  0  0
  193.1180  176.2600  136.9630 C   0  0  0  0  0  0  0  0  0  0  0  0
  194.7070  176.5430  135.3780 C   0  0  0  0  0  3  0  0  0  0  0  0
  1  6  2  0  0  0  0
  1 23  1  0  0  0  0
  2 10  1  0  0  0  0
  3 10  1  0  0  0  0
  4 37  1  1  0  0  0
  4  9  1  0  0  0  0
  5  3  2  0  0  0  0
  6 13  1  0  0  0  0
  7  5  1  0  0  0  0
  7  2  1  0  0  0  0
  8  4  1  0  0  0  0
  8  6  1  0  0  0  0
  9 13  2  0  0  0  0
 10 14  1  1  0  0  0
 11  1  1  0  0  0  0
 12 11  2  0  0  0  0
 12  8  1  0  0  0  0
 13  7  1  0  0  0  0
 14 17  1  0  0  0  0
 15 16  1  0  0  0  0
 15 21  1  0  0  0  0
 16 20  1  0  0  0  0
 17 16  2  0  0  0  0
 18 14  2  0  0  0  0
 18 19  1  0  0  0  0
 19 15  2  0  0  0  0
 21 22  1  0  0  0  0
 23 28  1  0  0  0  0
 24 27  2  0  0  0  0
 26 24  1  0  0  0  0
 26 23  2  0  0  0  0
 27 25  1  0  0  0  0
 28 25  2  0  0  0  0
 29 30  1  0  0  0  0
 29 24  1  0  0  0  0
 31 32  1  0  0  0  0
 32 36  2  0  0  0  0
 33 35  1  0  0  0  0
 33 31  2  0  0  0  0
 34 30  1  0  0  0  0
 34 36  1  0  0  0  0
 35 34  2  0  0  0  0
 37 38  2  0  0  0  0
 38 39  2  0  0  0  0
 40 43  1  0  0  0  0
 41 43  2  0  0  0  0
 42 44  2  0  0  0  0
 42 40  1  0  0  0  0
 43 37  1  0  0  0  0
 44 41  1  0  0  0  0
M  END
>  <MODEL>
6

>  <REMARK>
 VINA RESULT:      -8.6      3.072      7.455
  Name = 
  8 active torsions:
  status: ('A' for Active; 'I' for Inactive)
    1  A    between atoms: C_1  and  C_35
    2  A    between atoms: O_2  and  C_13
    3  A    between atoms: N_3  and  C_9
    4  A    between atoms: N_3  and  C_40
    5  A    between atoms: C_4  and  C_7
    6  A    between atoms: C_15  and  C_17
    7  A    between atoms: C_17  and  C_36
    8  A    between atoms: C_30  and  C_40
                            x       y       z     vdW  Elec       q    Type
                         _______ _______ _______ _____ _____    ______ ____

>  <TORSDO>
F 8

$$$$
=
 OpenBabel11042410373D

 44 50  0  0  1  0  0  0  0  0999 V2000
  181.6210  178.5360  142.3320 C   0  0  0  0  0  0  0  0  0  0  0  0
  185.5670  178.8860  139.6050 C   0  0  0  0  0  2  0  0  0  0  0  0
  184.1740  177.3960  138.2370 C   0  0  0  0  0  3  0  0  0  0  0  0
  184.6280  179.3400  143.8610 C   0  0  2  0  0  3  0  0  0  0  0  0
  183.5520  177.5350  139.6120 C   0  0  0  0  0  3  0  0  0  0  0  0
  182.9890  178.5690  142.5050 C   0  0  0  0  0  0  0  0  0  0  0  0
  184.3760  178.4860  140.3300 N   0  0  0  0  0  0  0  0  0  0  0  0
  183.2800  178.7930  143.7650 N   0  0  0  0  0  0  0  0  0  0  0  0
  185.1400  179.2280  142.4860 N   0  0  0  0  0  0  0  0  0  0  0  0
  185.4350  178.2660  138.2240 C   0  0  2  0  0  3  0  0  0  0  0  0
  181.0750  178.7490  143.6040 C   0  0  0  0  0  3  0  0  0  0  0  0
  182.1510  178.9540  144.4760 C   0  0  0  0  0  3  0  0  0  0  0  0
  184.1790  178.8110  141.7100 C   0  0  0  0  0  0  0  0  0  0  0  0
  186.6810  177.5040  137.8560 C   0  0  0  0  0  0  0  0  0  0  0  0
  189.0490  176.1090  137.2280 C   0  0  0  0  0  0  0  0  0  0  0  0
  189.0620  177.1170  138.2040 C   0  0  0  0  0  0  0  0  0  0  0  0
  187.8850  177.8120  138.5100 C   0  0  0  0  0  3  0  0  0  0  0  0
  186.6600  176.4710  136.8970 C   0  0  0  0  0  3  0  0  0  0  0  0
  187.8360  175.7850  136.5800 C   0  0  0  0  0  3  0  0  0  0  0  0
  190.2400  177.4340  138.8690 O   0  0  0  0  0  1  0  0  0  0  0  0
  190.2410  175.4360  136.9250 O   0  0  0  0  0  0  0  0  0  0  0  0
  190.8690  175.5230  135.6470 C   0  0  0  0  0  1  0  0  0  0  0  0
  180.8570  178.5860  141.0790 C   0  0  0  0  0  0  0  0  0  0  0  0
  180.0930  179.7820  139.1290 C   0  0  0  0  0  0  0  0  0  0  0  0
  179.5430  177.4920  139.4640 N   0  0  0  0  0  0  0  0  0  0  0  0
  180.8120  179.7630  140.3280 C   0  0  0  0  0  3  0  0  0  0  0  0
  179.4510  178.6180  138.7100 C   0  0  0  0  0  3  0  0  0  0  0  0
  180.2270  177.4750  140.6110 N   0  0  0  0  0  0  0  0  0  0  0  0
  179.9720  180.9740  138.3450 N   0  0  0  0  0  2  0  0  0  0  0  0
  180.9990  182.0100  138.3320 C   0  0  0  0  0  2  0  0  0  0  0  0
  180.5120  184.5990  134.9770 C   0  0  0  0  0  3  0  0  0  0  0  0
  180.0150  183.3320  134.9610 N   0  0  0  0  0  0  0  0  0  0  0  0
  181.1790  185.0780  136.1060 C   0  0  0  0  0  3  0  0  0  0  0  0
  180.7680  182.9560  137.2000 C   0  0  0  0  0  0  0  0  0  0  0  0
  181.3150  184.2460  137.2190 C   0  0  0  0  0  3  0  0  0  0  0  0
  180.1360  182.5060  136.0360 C   0  0  0  0  0  3  0  0  0  0  0  0
  185.5110  178.5920  144.8280 C   0  0  0  0  0  0  0  0  0  0  0  0
  185.2890  178.6290  146.1180 C   0  0  0  0  0  0  0  0  0  0  0  0
  185.0830  178.6590  147.3410 O   0  0  0  0  0  0  0  0  0  0  0  0
  188.2060  177.8630  145.1730 S   0  0  0  0  0  0  0  0  0  0  0  0
  186.8400  177.3090  143.1380 N   0  0  0  0  0  0  0  0  0  0  0  0
  189.0070  177.0010  143.9570 C   0  0  0  0  0  3  0  0  0  0  0  0
  186.7450  177.9470  144.3330 C   0  0  0  0  0  0  0  0  0  0  0  0
  188.0810  176.7840  142.9260 C   0  0  0  0  0  3  0  0  0  0  0  0
  1  6  2  0  0  0  0
  1 11  1  0  0  0  0
  2  7  1  0  0  0  0
  3  5  2  0  0  0  0
  4 37  1  1  0  0  0
  5  7  1  0  0  0  0
  6  8  1  0  0  0  0
  7 13  1  0  0  0  0
  8  4  1  0  0  0  0
  8 12  1  0  0  0  0
  9  4  1  0  0  0  0
 10 14  1  1  0  0  0
 10  3  1  0  0  0  0
 10  2  1  0  0  0  0
 11 12  2  0  0  0  0
 13  9  2  0  0  0  0
 13  6  1  0  0  0  0
 14 17  1  0  0  0  0
 15 16  1  0  0  0  0
 16 17  2  0  0  0  0
 16 20  1  0  0  0  0
 18 14  2  0  0  0  0
 19 18  1  0  0  0  0
 19 15  2  0  0  0  0
 21 15  1  0  0  0  0
 22 21  1  0  0  0  0
 23  1  1  0  0  0  0
 24 26  1  0  0  0  0
 25 28  2  0  0  0  0
 26 23  2  0  0  0  0
 27 24  2  0  0  0  0
 27 25  1  0  0  0  0
 28 23  1  0  0  0  0
 29 24  1  0  0  0  0
 30 29  1  0  0  0  0
 31 33  1  0  0  0  0
 32 31  2  0  0  0  0
 32 36  1  0  0  0  0
 33 35  2  0  0  0  0
 34 35  1  0  0  0  0
 34 30  1  0  0  0  0
 36 34  2  0  0  0  0
 37 38  2  0  0  0  0
 38 39  2  0  0  0  0
 41 43  2  0  0  0  0
 42 40  1  0  0  0  0
 43 37  1  0  0  0  0
 43 40  1  0  0  0  0
 44 41  1  0  0  0  0
 44 42  2  0  0  0  0
M  END
>  <MODEL>
7

>  <REMARK>
 VINA RESULT:      -8.4      3.061      4.699
  Name = 
  8 active torsions:
  status: ('A' for Active; 'I' for Inactive)
    1  A    between atoms: C_1  and  C_35
    2  A    between atoms: O_2  and  C_13
    3  A    between atoms: N_3  and  C_9
    4  A    between atoms: N_3  and  C_40
    5  A    between atoms: C_4  and  C_7
    6  A    between atoms: C_15  and  C_17
    7  A    between atoms: C_17  and  C_36
    8  A    between atoms: C_30  and  C_40
                            x       y       z     vdW  Elec       q    Type
                         _______ _______ _______ _____ _____    ______ ____

>  <TORSDO>
F 8

$$$$
=
 OpenBabel11042410373D

 44 50  0  0  1  0  0  0  0  0999 V2000
  188.0350  178.1650  138.2150 C   0  0  0  0  0  0  0  0  0  0  0  0
  189.2100  176.0240  142.3580 C   0  0  0  0  0  2  0  0  0  0  0  0
  187.8860  177.9280  143.1650 C   0  0  0  0  0  3  0  0  0  0  0  0
  190.8710  176.1730  138.3060 C   0  0  2  0  0  3  0  0  0  0  0  0
  188.1910  178.1230  141.6940 C   0  0  0  0  0  3  0  0  0  0  0  0
  189.1300  177.5390  138.7720 C   0  0  0  0  0  0  0  0  0  0  0  0
  188.8970  176.9310  141.2700 N   0  0  0  0  0  0  0  0  0  0  0  0
  190.0100  177.2530  137.8410 N   0  0  0  0  0  0  0  0  0  0  0  0
  190.4760  176.0010  139.7120 N   0  0  0  0  0  0  0  0  0  0  0  0
  188.5100  176.5920  143.5810 C   0  0  2  0  0  3  0  0  0  0  0  0
  188.3110  178.2570  136.8450 C   0  0  0  0  0  3  0  0  0  0  0  0
  189.5440  177.6290  136.6380 C   0  0  0  0  0  3  0  0  0  0  0  0
  189.4540  176.7730  139.9610 C   0  0  0  0  0  0  0  0  0  0  0  0
  189.4660  176.7150  144.7380 C   0  0  0  0  0  0  0  0  0  0  0  0
  191.1960  176.9530  146.9510 C   0  0  0  0  0  0  0  0  0  0  0  0
  189.8330  177.2600  147.0850 C   0  0  0  0  0  0  0  0  0  0  0  0
  188.9780  177.1450  145.9820 C   0  0  0  0  0  3  0  0  0  0  0  0
  190.8290  176.3780  144.6100 C   0  0  0  0  0  3  0  0  0  0  0  0
  191.6890  176.5040  145.7060 C   0  0  0  0  0  3  0  0  0  0  0  0
  189.3260  177.6810  148.3080 O   0  0  0  0  0  1  0  0  0  0  0  0
  192.0390  177.0900  148.0630 O   0  0  0  0  0  0  0  0  0  0  0  0
  192.8050  176.0060  148.5850 C   0  0  0  0  0  1  0  0  0  0  0  0
  186.7190  178.4140  138.8180 C   0  0  0  0  0  0  0  0  0  0  0  0
  184.3270  178.1130  138.8420 C   0  0  0  0  0  0  0  0  0  0  0  0
  185.4300  179.3480  140.5500 N   0  0  0  0  0  0  0  0  0  0  0  0
  185.5660  177.8780  138.2390 C   0  0  0  0  0  3  0  0  0  0  0  0
  184.2780  178.8670  140.0120 C   0  0  0  0  0  3  0  0  0  0  0  0
  186.6130  179.1260  139.9720 N   0  0  0  0  0  0  0  0  0  0  0  0
  183.1080  177.6310  138.2650 N   0  0  0  0  0  2  0  0  0  0  0  0
  182.9900  176.2970  137.6870 C   0  0  0  0  0  2  0  0  0  0  0  0
  179.6420  174.2750  139.3910 C   0  0  0  0  0  3  0  0  0  0  0  0
  180.1080  173.9400  138.1570 N   0  0  0  0  0  0  0  0  0  0  0  0
  180.2680  175.2820  140.1290 C   0  0  0  0  0  3  0  0  0  0  0  0
  181.8710  175.5470  138.3320 C   0  0  0  0  0  0  0  0  0  0  0  0
  181.3840  175.9270  139.5890 C   0  0  0  0  0  3  0  0  0  0  0  0
  181.1940  174.5560  137.6150 C   0  0  0  0  0  3  0  0  0  0  0  0
  192.3420  176.4880  138.1920 C   0  0  0  0  0  0  0  0  0  0  0  0
  192.9860  177.0810  139.1650 C   0  0  0  0  0  0  0  0  0  0  0  0
  193.6040  177.6410  140.0840 O   0  0  0  0  0  0  0  0  0  0  0  0
  192.3790  175.4790  135.5670 S   0  0  0  0  0  0  0  0  0  0  0  0
  194.2720  176.7530  136.6190 N   0  0  0  0  0  0  0  0  0  0  0  0
  193.7440  175.7130  134.5940 C   0  0  0  0  0  3  0  0  0  0  0  0
  193.0290  176.2830  136.9000 C   0  0  0  0  0  0  0  0  0  0  0  0
  194.6700  176.4450  135.3520 C   0  0  0  0  0  3  0  0  0  0  0  0
  1  6  2  0  0  0  0
  1 23  1  0  0  0  0
  2 10  1  0  0  0  0
  3 10  1  0  0  0  0
  4 37  1  1  0  0  0
  4  9  1  0  0  0  0
  5  3  2  0  0  0  0
  6 13  1  0  0  0  0
  7  5  1  0  0  0  0
  7  2  1  0  0  0  0
  8  4  1  0  0  0  0
  8  6  1  0  0  0  0
  9 13  2  0  0  0  0
 10 14  1  1  0  0  0
 11  1  1  0  0  0  0
 12 11  2  0  0  0  0
 12  8  1  0  0  0  0
 13  7  1  0  0  0  0
 14 17  1  0  0  0  0
 15 16  1  0  0  0  0
 15 21  1  0  0  0  0
 16 20  1  0  0  0  0
 17 16  2  0  0  0  0
 18 14  2  0  0  0  0
 18 19  1  0  0  0  0
 19 15  2  0  0  0  0
 21 22  1  0  0  0  0
 23 28  1  0  0  0  0
 24 27  2  0  0  0  0
 26 23  2  0  0  0  0
 26 24  1  0  0  0  0
 27 25  1  0  0  0  0
 28 25  2  0  0  0  0
 29 24  1  0  0  0  0
 30 29  1  0  0  0  0
 30 34  1  0  0  0  0
 31 33  1  0  0  0  0
 32 31  2  0  0  0  0
 34 35  1  0  0  0  0
 35 33  2  0  0  0  0
 36 32  1  0  0  0  0
 36 34  2  0  0  0  0
 37 38  2  0  0  0  0
 38 39  2  0  0  0  0
 40 43  1  0  0  0  0
 41 43  2  0  0  0  0
 42 44  2  0  0  0  0
 42 40  1  0  0  0  0
 43 37  1  0  0  0  0
 44 41  1  0  0  0  0
M  END
>  <MODEL>
8

>  <REMARK>
 VINA RESULT:      -8.4      3.152      7.503
  Name = 
  8 active torsions:
  status: ('A' for Active; 'I' for Inactive)
    1  A    between atoms: C_1  and  C_35
    2  A    between atoms: O_2  and  C_13
    3  A    between atoms: N_3  and  C_9
    4  A    between atoms: N_3  and  C_40
    5  A    between atoms: C_4  and  C_7
    6  A    between atoms: C_15  and  C_17
    7  A    between atoms: C_17  and  C_36
    8  A    between atoms: C_30  and  C_40
                            x       y       z     vdW  Elec       q    Type
                         _______ _______ _______ _____ _____    ______ ____

>  <TORSDO>
F 8

$$$$
=
 OpenBabel11042410373D

 44 50  0  0  1  0  0  0  0  0999 V2000
  186.0830  177.7550  137.9710 C   0  0  0  0  0  0  0  0  0  0  0  0
  188.6640  178.9050  141.8630 C   0  0  0  0  0  2  0  0  0  0  0  0
  190.0110  177.0800  140.9220 C   0  0  0  0  0  3  0  0  0  0  0  0
  184.4780  179.2950  140.6300 C   0  0  2  0  0  3  0  0  0  0  0  0
  188.6710  177.1240  140.2160 C   0  0  0  0  0  3  0  0  0  0  0  0
  185.8580  178.1120  139.2830 C   0  0  0  0  0  0  0  0  0  0  0  0
  187.9690  178.2680  140.7610 N   0  0  0  0  0  0  0  0  0  0  0  0
  184.6000  178.4470  139.4510 N   0  0  0  0  0  0  0  0  0  0  0  0
  185.8240  179.2520  141.2230 N   0  0  0  0  0  0  0  0  0  0  0  0
  190.0160  178.2170  141.9470 C   0  0  2  0  0  3  0  0  0  0  0  0
  184.8460  177.8850  137.3270 C   0  0  0  0  0  3  0  0  0  0  0  0
  183.9440  178.3690  138.2810 C   0  0  0  0  0  3  0  0  0  0  0  0
  186.6150  178.5920  140.4240 C   0  0  0  0  0  0  0  0  0  0  0  0
  190.2960  177.7520  143.3530 C   0  0  0  0  0  0  0  0  0  0  0  0
  190.7440  176.8880  145.9980 C   0  0  0  0  0  0  0  0  0  0  0  0
  189.5080  177.4470  145.6380 C   0  0  0  0  0  0  0  0  0  0  0  0
  189.2900  177.8790  144.3240 C   0  0  0  0  0  3  0  0  0  0  0  0
  191.5270  177.1640  143.7050 C   0  0  0  0  0  3  0  0  0  0  0  0
  191.7520  176.7440  145.0200 C   0  0  0  0  0  3  0  0  0  0  0  0
  188.4950  177.5760  146.5810 O   0  0  0  0  0  1  0  0  0  0  0  0
  190.9470  176.4770  147.3230 O   0  0  0  0  0  0  0  0  0  0  0  0
  192.0670  175.6870  147.7190 C   0  0  0  0  0  1  0  0  0  0  0  0
  187.3670  177.5770  137.2800 C   0  0  0  0  0  0  0  0  0  0  0  0
  189.0180  176.1560  136.2460 C   0  0  0  0  0  0  0  0  0  0  0  0
  189.2820  178.5200  136.2920 N   0  0  0  0  0  0  0  0  0  0  0  0
  187.8020  176.3000  136.9200 C   0  0  0  0  0  3  0  0  0  0  0  0
  189.7580  177.2960  135.9410 C   0  0  0  0  0  3  0  0  0  0  0  0
  188.1220  178.6560  136.9380 N   0  0  0  0  0  0  0  0  0  0  0  0
  189.5360  174.8670  135.8980 N   0  0  0  0  0  2  0  0  0  0  0  0
  190.2720  174.0380  136.8460 C   0  0  0  0  0  2  0  0  0  0  0  0
  194.4360  174.9490  137.0180 C   0  0  0  0  0  3  0  0  0  0  0  0
  193.9370  174.1340  136.0480 N   0  0  0  0  0  0  0  0  0  0  0  0
  193.5830  175.5150  137.9680 C   0  0  0  0  0  3  0  0  0  0  0  0
  191.7120  174.4320  136.8750 C   0  0  0  0  0  0  0  0  0  0  0  0
  192.2140  175.2450  137.8990 C   0  0  0  0  0  3  0  0  0  0  0  0
  192.6070  173.8610  135.9630 C   0  0  0  0  0  3  0  0  0  0  0  0
  183.4390  178.8120  141.6110 C   0  0  0  0  0  0  0  0  0  0  0  0
  182.1950  178.6250  141.2470 C   0  0  0  0  0  0  0  0  0  0  0  0
  181.0160  178.4460  140.9080 O   0  0  0  0  0  0  0  0  0  0  0  0
  182.7570  179.0820  144.3270 S   0  0  0  0  0  0  0  0  0  0  0  0
  184.9870  178.2690  143.5030 N   0  0  0  0  0  0  0  0  0  0  0  0
  183.8890  178.6910  145.5230 C   0  0  0  0  0  3  0  0  0  0  0  0
  183.7870  178.7110  143.0430 C   0  0  0  0  0  0  0  0  0  0  0  0
  185.0490  178.2540  144.8650 C   0  0  0  0  0  3  0  0  0  0  0  0
  1  6  2  0  0  0  0
  2 10  1  0  0  0  0
  3 10  1  0  0  0  0
  4  9  1  0  0  0  0
  4 37  1  1  0  0  0
  5  7  1  0  0  0  0
  5  3  2  0  0  0  0
  6  8  1  0  0  0  0
  6 13  1  0  0  0  0
  7  2  1  0  0  0  0
  8  4  1  0  0  0  0
 10 14  1  1  0  0  0
 11  1  1  0  0  0  0
 11 12  2  0  0  0  0
 12  8  1  0  0  0  0
 13  7  1  0  0  0  0
 13  9  2  0  0  0  0
 14 18  2  0  0  0  0
 14 17  1  0  0  0  0
 15 21  1  0  0  0  0
 16 15  1  0  0  0  0
 16 20  1  0  0  0  0
 17 16  2  0  0  0  0
 18 19  1  0  0  0  0
 19 15  2  0  0  0  0
 21 22  1  0  0  0  0
 23  1  1  0  0  0  0
 24 26  1  0  0  0  0
 25 28  2  0  0  0  0
 26 23  2  0  0  0  0
 27 24  2  0  0  0  0
 27 25  1  0  0  0  0
 28 23  1  0  0  0  0
 29 24  1  0  0  0  0
 29 30  1  0  0  0  0
 30 34  1  0  0  0  0
 31 33  1  0  0  0  0
 32 31  2  0  0  0  0
 34 35  1  0  0  0  0
 35 33  2  0  0  0  0
 36 32  1  0  0  0  0
 36 34  2  0  0  0  0
 37 43  1  0  0  0  0
 38 37  2  0  0  0  0
 39 38  2  0  0  0  0
 40 42  1  0  0  0  0
 41 44  1  0  0  0  0
 43 41  2  0  0  0  0
 43 40  1  0  0  0  0
 44 42  2  0  0  0  0
M  END
>  <MODEL>
9

>  <REMARK>
 VINA RESULT:      -8.2      3.525      8.768
  Name = 
  8 active torsions:
  status: ('A' for Active; 'I' for Inactive)
    1  A    between atoms: C_1  and  C_35
    2  A    between atoms: O_2  and  C_13
    3  A    between atoms: N_3  and  C_9
    4  A    between atoms: N_3  and  C_40
    5  A    between atoms: C_4  and  C_7
    6  A    between atoms: C_15  and  C_17
    7  A    between atoms: C_17  and  C_36
    8  A    between atoms: C_30  and  C_40
                            x       y       z     vdW  Elec       q    Type
                         _______ _______ _______ _____ _____    ______ ____

>  <TORSDO>
F 8

$$$$
