=
 OpenBabel11042410143D

 65 74  0  0  1  0  0  0  0  0999 V2000
  193.3670  176.6460  139.1140 C   0  0  0  0  0  0  0  0  0  0  0  0
  186.9300  175.7630  137.3780 C   0  0  0  0  0  2  0  0  0  0  0  0
  190.7230  173.2220  135.0310 N   0  0  0  0  0  2  0  0  0  0  0  0
  191.6070  177.1090  140.7790 C   0  0  0  0  0  0  0  0  0  0  0  0
  192.0750  173.7300  135.3520 C   0  0  1  0  0  3  0  0  0  0  0  0
  195.2270  175.5440  138.1200 N   0  0  0  0  0  0  0  0  0  0  0  0
  191.2080  176.0170  138.1110 N   0  0  0  0  0  0  0  0  0  0  0  0
  195.1210  171.7740  135.0430 C   0  0  0  0  0  3  0  0  0  0  0  0
  188.4150  177.7520  136.8730 C   0  0  0  0  0  2  0  0  0  0  0  0
  197.2010  172.9070  135.5080 C   0  0  0  0  0  0  0  0  0  0  0  0
  189.0250  177.4800  138.1110 O   0  0  0  0  0  0  0  0  0  0  0  0
  195.0980  173.8730  136.2940 C   0  0  0  0  0  0  0  0  0  0  0  0
  196.5110  171.8310  134.9520 C   0  0  0  0  0  3  0  0  0  0  0  0
  188.3270  177.0250  142.2040 C   0  0  0  0  0  3  0  0  0  0  0  0
  194.3980  172.7860  135.6850 C   0  0  0  0  0  0  0  0  0  0  0  0
  190.5730  176.6680  141.2140 C   0  0  0  0  0  0  0  0  0  0  0  0
  187.9530  178.3310  140.0760 C   0  0  0  0  0  2  0  0  0  0  0  0
  192.5530  176.0570  138.1540 C   0  0  0  0  0  0  0  0  0  0  0  0
  196.5000  173.9030  136.1900 C   0  0  0  0  0  3  0  0  0  0  0  0
  192.0670  174.7560  136.4260 C   0  0  0  0  0  0  0  0  0  0  0  0
  187.7600  176.4860  136.2990 C   0  0  1  0  0  0  0  0  0  0  0  0
  190.9260  175.2260  137.0470 C   0  0  0  0  0  0  0  0  0  0  0  0
  192.8500  177.5960  140.1620 C   0  0  0  0  0  2  0  0  0  0  0  0
  193.1260  175.2270  137.1440 C   0  0  0  0  0  0  0  0  0  0  0  0
  189.5760  174.6670  136.7350 C   0  0  1  0  0  3  0  0  0  0  0  0
  186.7180  176.6360  138.6180 C   0  0  0  0  0  2  0  0  0  0  0  0
  194.7050  176.3830  139.0320 N   0  0  0  0  0  2  0  0  0  0  0  0
  188.8420  175.5560  135.7170 C   0  0  0  0  0  2  0  0  0  0  0  0
  187.6470  177.9570  141.5040 C   0  0  0  0  0  0  0  0  0  0  0  0
  189.8080  173.2350  136.1910 C   0  0  1  0  0  3  0  0  0  0  0  0
  189.3260  176.0430  141.6620 C   0  0  0  0  0  2  0  0  0  0  0  0
  192.9710  172.6440  135.7040 N   0  0  0  0  0  2  0  0  0  0  0  0
  188.0740  177.1600  139.1150 C   0  0  1  0  0  3  0  0  0  0  0  0
  194.4730  174.9070  137.1680 C   0  0  0  0  0  0  0  0  0  0  0  0
  185.2860  178.6150  141.8550 C   0  0  1  0  0  3  0  0  0  0  0  0
  186.0280  179.6890  141.3310 O   0  0  0  0  0  0  0  0  0  0  0  0
  186.6980  178.8500  142.2430 C   0  0  2  0  0  3  0  0  0  0  0  0
  184.3580  179.1310  142.9550 C   0  0  2  0  0  3  0  0  0  0  0  0
  184.5700  178.4210  144.1530 O   0  0  0  0  0  0  0  0  0  0  0  0
  182.5340  179.2840  145.0710 N   0  0  0  0  0  2  0  0  0  0  0  0
  182.8470  179.1780  142.6000 C   0  0  2  0  0  3  0  0  0  0  0  0
  184.0060  179.2170  145.1660 C   0  0  0  0  0  2  0  0  0  0  0  0
  182.0200  178.7290  143.8090 C   0  0  0  0  0  2  0  0  0  0  0  0
  182.4420  178.3260  141.3970 C   0  0  0  0  0  2  0  0  0  0  0  0
  180.9840  178.4640  141.1170 C   0  0  0  0  0  0  0  0  0  0  0  0
  180.4830  179.6060  140.9720 O   0  0  0  0  0  0  0  0  0  0  0  0
  180.1820  177.3360  140.9990 O   0  0  0  0  0  1  0  0  0  0  0  0
  199.1530  174.2590  135.9050 N   0  0  0  0  0  1  0  0  0  0  0  0
  198.6870  172.9660  135.4320 C   0  0  0  0  0  2  0  0  0  0  0  0
  187.6860  172.1310  136.8650 C   0  0  0  0  0  3  0  0  0  0  0  0
  188.5470  172.4710  135.9040 C   0  0  0  0  0  3  0  0  0  0  0  0
  186.4340  171.3790  136.5440 C   0  0  2  0  0  3  0  0  0  0  0  0
  186.5200  170.8130  135.1370 C   0  0  0  0  0  1  0  0  0  0  0  0
  185.3000  172.2780  136.6260 N   0  0  0  0  0  1  0  0  0  0  0  0
  186.8550  176.8570  135.1190 C   0  0  0  0  0  2  0  0  0  0  0  0
  185.4920  174.9590  134.5940 O   0  0  0  0  0  0  0  0  0  0  0  0
  185.5330  176.1370  135.0450 C   0  0  0  0  0  0  0  0  0  0  0  0
  184.2780  176.8480  135.4000 C   0  0  0  0  0  0  0  0  0  0  0  0
  182.2850  177.1270  136.7820 C   0  0  0  0  0  0  0  0  0  0  0  0
  182.6380  178.5750  134.8750 C   0  0  0  0  0  3  0  0  0  0  0  0
  181.8610  178.1810  135.9680 C   0  0  0  0  0  3  0  0  0  0  0  0
  183.4870  176.4600  136.5070 C   0  0  0  0  0  0  0  0  0  0  0  0
  181.5150  176.7440  137.8330 F   0  0  0  0  0  0  0  0  0  0  0  0
  183.8620  175.4300  137.3090 F   0  0  0  0  0  0  0  0  0  0  0  0
  183.8370  177.9120  134.5950 C   0  0  0  0  0  3  0  0  0  0  0  0
  1 23  1  0  0  0  0
  2 26  1  0  0  0  0
  3 30  1  0  0  0  0
  4 16  3  0  0  0  0
  5  3  1  1  0  0  0
  5 32  1  0  0  0  0
  5 20  1  0  0  0  0
  6 27  1  0  0  0  0
  7 18  1  0  0  0  0
  8 15  1  0  0  0  0
  9 11  1  0  0  0  0
 10 19  2  0  0  0  0
 11 33  1  0  0  0  0
 12 34  1  0  0  0  0
 13  8  2  0  0  0  0
 13 10  1  0  0  0  0
 15 32  1  0  0  0  0
 15 12  2  0  0  0  0
 16 31  1  0  0  0  0
 17 29  1  0  0  0  0
 18  1  2  0  0  0  0
 19 12  1  0  0  0  0
 20 22  1  0  0  0  0
 20 24  2  0  0  0  0
 21 55  1  6  0  0  0
 21  9  1  0  0  0  0
 21  2  1  0  0  0  0
 22  7  2  0  0  0  0
 23  4  1  0  0  0  0
 24 34  1  0  0  0  0
 24 18  1  0  0  0  0
 25 28  1  6  0  0  0
 25 22  1  0  0  0  0
 27  1  1  0  0  0  0
 28 21  1  0  0  0  0
 29 14  2  0  0  0  0
 30 51  1  6  0  0  0
 30 25  1  0  0  0  0
 31 14  1  0  0  0  0
 33 26  1  6  0  0  0
 33 17  1  0  0  0  0
 34  6  2  0  0  0  0
 35 36  1  6  0  0  0
 35 37  1  0  0  0  0
 35 38  1  0  0  0  0
 36 37  1  0  0  0  0
 37 29  1  6  0  0  0
 38 39  1  1  0  0  0
 39 42  1  0  0  0  0
 40 42  1  0  0  0  0
 41 44  1  6  0  0  0
 41 38  1  0  0  0  0
 41 43  1  0  0  0  0
 43 40  1  0  0  0  0
 45 44  1  0  0  0  0
 46 45  2  0  0  0  0
 47 45  1  0  0  0  0
 49 10  1  0  0  0  0
 49 48  1  0  0  0  0
 51 50  2  0  0  0  0
 52 53  1  6  0  0  0
 52 54  1  0  0  0  0
 52 50  1  0  0  0  0
 56 57  2  0  0  0  0
 57 55  1  0  0  0  0
 57 58  1  0  0  0  0
 58 62  1  0  0  0  0
 59 63  1  0  0  0  0
 60 61  2  0  0  0  0
 61 59  1  0  0  0  0
 62 59  2  0  0  0  0
 62 64  1  0  0  0  0
 65 60  1  0  0  0  0
 65 58  2  0  0  0  0
M  END
>  <MODEL>
1

>  <REMARK>
 VINA RESULT:      -5.1      0.000      0.000
  Name = 
  10 active torsions:
  status: ('A' for Active; 'I' for Inactive)
    1  A    between atoms: C_2  and  C_18
    2  A    between atoms: C_2  and  C_35
    3  A    between atoms: C_4  and  C_25
    4  A    between atoms: C_7  and  C_12
    5  A    between atoms: C_15  and  C_25
    6  A    between atoms: C_15  and  C_41
    7  A    between atoms: C_19  and  C_52
    8  A    between atoms: C_39  and  C_45
    9  A    between atoms: C_50  and  C_60
   10  A    between atoms: C_56  and  C_61
                            x       y       z     vdW  Elec       q    Type
                         _______ _______ _______ _____ _____    ______ ____

>  <TORSDO>
F 10

$$$$
=
 OpenBabel11042410143D

 65 74  0  0  1  0  0  0  0  0999 V2000
  184.8980  177.0860  135.8180 C   0  0  0  0  0  0  0  0  0  0  0  0
  189.9900  176.3030  140.1410 C   0  0  0  0  0  2  0  0  0  0  0  0
  185.7480  178.8950  141.4200 N   0  0  0  0  0  2  0  0  0  0  0  0
  186.4080  175.1550  135.5470 C   0  0  0  0  0  0  0  0  0  0  0  0
  184.8580  179.1940  140.2770 C   0  0  1  0  0  3  0  0  0  0  0  0
  182.8770  178.2580  136.2670 N   0  0  0  0  0  0  0  0  0  0  0  0
  186.4770  177.1040  137.7070 N   0  0  0  0  0  0  0  0  0  0  0  0
  181.3040  179.8840  140.5770 C   0  0  0  0  0  3  0  0  0  0  0  0
  189.8920  177.8230  138.1170 C   0  0  0  0  0  2  0  0  0  0  0  0
  180.1290  180.4710  138.5530 C   0  0  0  0  0  0  0  0  0  0  0  0
  189.0860  176.8270  137.5370 O   0  0  0  0  0  0  0  0  0  0  0  0
  182.3040  179.3680  138.4070 C   0  0  0  0  0  0  0  0  0  0  0  0
  180.1900  180.4320  139.9450 C   0  0  0  0  0  3  0  0  0  0  0  0
  188.9170  172.7870  136.4920 C   0  0  0  0  0  3  0  0  0  0  0  0
  182.3740  179.3700  139.8360 C   0  0  0  0  0  0  0  0  0  0  0  0
  186.9760  174.2990  136.1780 C   0  0  0  0  0  0  0  0  0  0  0  0
  190.1960  174.9630  136.5250 C   0  0  0  0  0  2  0  0  0  0  0  0
  185.3750  177.5130  137.0520 C   0  0  0  0  0  0  0  0  0  0  0  0
  181.1670  179.9230  137.7970 C   0  0  0  0  0  3  0  0  0  0  0  0
  185.2880  178.5280  139.0210 C   0  0  0  0  0  0  0  0  0  0  0  0
  189.8230  177.7550  139.6500 C   0  0  1  0  0  0  0  0  0  0  0  0
  186.4150  177.7380  138.9040 C   0  0  1  0  0  3  0  0  0  0  0  0
  185.7130  176.2550  134.8630 C   0  0  0  0  0  2  0  0  0  0  0  0
  184.5730  178.3630  137.8720 C   0  0  0  0  0  0  0  0  0  0  0  0
  187.2750  177.4170  140.0830 C   0  0  1  0  0  3  0  0  0  0  0  0
  190.4860  175.3760  139.0270 C   0  0  0  0  0  2  0  0  0  0  0  0
  183.6520  177.5160  135.4570 N   0  0  0  0  0  0  0  0  0  0  0  0
  188.4910  178.3560  140.1400 C   0  0  0  0  0  2  0  0  0  0  0  0
  190.0730  173.4700  136.3580 C   0  0  0  0  0  0  0  0  0  0  0  0
  186.3740  177.5600  141.3350 C   0  0  1  0  0  3  0  0  0  0  0  0
  187.6220  173.3090  137.0430 C   0  0  0  0  0  2  0  0  0  0  0  0
  183.4820  178.8480  140.5820 N   0  0  0  0  0  2  0  0  0  0  0  0
  189.5800  175.5220  137.7950 C   0  0  1  0  0  3  0  0  0  0  0  0
  183.2760  178.6830  137.5080 C   0  0  0  0  0  0  0  0  0  0  0  0
  192.5420  173.3150  136.2550 C   0  0  1  0  0  3  0  0  0  0  0  0
  192.0140  173.6610  134.9980 O   0  0  0  0  0  0  0  0  0  0  0  0
  191.2550  172.7600  135.7700 C   0  0  2  0  0  3  0  0  0  0  0  0
  193.6510  172.2790  136.0700 C   0  0  2  0  0  3  0  0  0  0  0  0
  193.1420  170.9760  136.2360 O   0  0  0  0  0  0  0  0  0  0  0  0
  195.3600  170.0900  136.4110 N   0  0  0  0  0  2  0  0  0  0  0  0
  194.9260  172.4890  136.9300 C   0  0  2  0  0  3  0  0  0  0  0  0
  194.0940  170.1230  135.6490 C   0  0  0  0  0  2  0  0  0  0  0  0
  195.4290  171.1360  137.4420 C   0  0  0  0  0  2  0  0  0  0  0  0
  194.7460  173.4210  138.1290 C   0  0  0  0  0  2  0  0  0  0  0  0
  195.7250  174.5440  138.0780 C   0  0  0  0  0  0  0  0  0  0  0  0
  195.8050  175.2540  137.0450 O   0  0  0  0  0  0  0  0  0  0  0  0
  196.5360  174.8190  139.1720 O   0  0  0  0  0  1  0  0  0  0  0  0
  179.1520  182.4460  137.5810 N   0  0  0  0  0  1  0  0  0  0  0  0
  178.9330  181.0380  137.8690 C   0  0  0  0  0  2  0  0  0  0  0  0
  186.6380  177.6590  143.8050 C   0  0  0  0  0  3  0  0  0  0  0  0
  187.0460  177.1850  142.6260 C   0  0  0  0  0  3  0  0  0  0  0  0
  187.3220  177.2560  145.0720 C   0  0  2  0  0  3  0  0  0  0  0  0
  186.3250  177.2510  146.2170 C   0  0  0  0  0  1  0  0  0  0  0  0
  188.3810  178.2010  145.3680 N   0  0  0  0  0  1  0  0  0  0  0  0
  190.9220  178.6330  140.2600 C   0  0  0  0  0  2  0  0  0  0  0  0
  193.0910  177.6220  140.3730 O   0  0  0  0  0  0  0  0  0  0  0  0
  192.0250  177.9060  140.9860 C   0  0  0  0  0  0  0  0  0  0  0  0
  191.8130  177.4350  142.3790 C   0  0  0  0  0  0  0  0  0  0  0  0
  191.4490  177.8540  144.7570 C   0  0  0  0  0  0  0  0  0  0  0  0
  191.7140  175.5840  143.9630 C   0  0  0  0  0  3  0  0  0  0  0  0
  191.5080  176.4820  145.0140 C   0  0  0  0  0  3  0  0  0  0  0  0
  191.5990  178.3360  143.4480 C   0  0  0  0  0  0  0  0  0  0  0  0
  191.2630  178.7190  145.7870 F   0  0  0  0  0  0  0  0  0  0  0  0
  191.5530  179.6770  143.2360 F   0  0  0  0  0  0  0  0  0  0  0  0
  191.8660  176.0580  142.6570 C   0  0  0  0  0  3  0  0  0  0  0  0
  1 18  1  0  0  0  0
  4 16  3  0  0  0  0
  5 20  1  6  0  0  0
  5 32  1  0  0  0  0
  5  3  1  0  0  0  0
  6 34  2  0  0  0  0
  9 21  1  0  0  0  0
 10 13  2  0  0  0  0
 11 33  1  0  0  0  0
 11  9  1  0  0  0  0
 12 15  1  0  0  0  0
 13  8  1  0  0  0  0
 14 31  1  0  0  0  0
 15  8  2  0  0  0  0
 15 32  1  0  0  0  0
 16 31  1  0  0  0  0
 18  7  2  0  0  0  0
 18 24  1  0  0  0  0
 19 12  2  0  0  0  0
 19 10  1  0  0  0  0
 21 28  1  0  0  0  0
 21  2  1  0  0  0  0
 21 55  1  1  0  0  0
 22  7  1  1  0  0  0
 22 20  1  0  0  0  0
 22 25  1  0  0  0  0
 23  4  1  0  0  0  0
 23  1  1  0  0  0  0
 24 20  2  0  0  0  0
 25 28  1  1  0  0  0
 25 30  1  0  0  0  0
 26  2  1  0  0  0  0
 27  1  2  0  0  0  0
 27  6  1  0  0  0  0
 29 14  2  0  0  0  0
 29 17  1  0  0  0  0
 30  3  1  0  0  0  0
 30 51  1  1  0  0  0
 33 17  1  6  0  0  0
 33 26  1  0  0  0  0
 34 24  1  0  0  0  0
 34 12  1  0  0  0  0
 35 36  1  6  0  0  0
 36 37  1  0  0  0  0
 37 35  1  0  0  0  0
 37 29  1  1  0  0  0
 38 39  1  1  0  0  0
 38 35  1  0  0  0  0
 38 41  1  0  0  0  0
 40 43  1  0  0  0  0
 41 43  1  0  0  0  0
 41 44  1  1  0  0  0
 42 39  1  0  0  0  0
 42 40  1  0  0  0  0
 45 44  1  0  0  0  0
 45 47  1  0  0  0  0
 46 45  2  0  0  0  0
 48 49  1  0  0  0  0
 49 10  1  0  0  0  0
 50 52  1  0  0  0  0
 51 50  2  0  0  0  0
 52 54  1  0  0  0  0
 52 53  1  1  0  0  0
 55 57  1  0  0  0  0
 56 57  2  0  0  0  0
 57 58  1  0  0  0  0
 58 65  2  0  0  0  0
 58 62  1  0  0  0  0
 59 61  1  0  0  0  0
 59 63  1  0  0  0  0
 60 61  2  0  0  0  0
 62 59  2  0  0  0  0
 64 62  1  0  0  0  0
 65 60  1  0  0  0  0
M  END
>  <MODEL>
2

>  <REMARK>
 VINA RESULT:      -2.4      3.873     11.729
  Name = 
  10 active torsions:
  status: ('A' for Active; 'I' for Inactive)
    1  A    between atoms: C_2  and  C_18
    2  A    between atoms: C_2  and  C_35
    3  A    between atoms: C_4  and  C_25
    4  A    between atoms: C_7  and  C_12
    5  A    between atoms: C_15  and  C_25
    6  A    between atoms: C_15  and  C_41
    7  A    between atoms: C_19  and  C_52
    8  A    between atoms: C_39  and  C_45
    9  A    between atoms: C_50  and  C_60
   10  A    between atoms: C_56  and  C_61
                            x       y       z     vdW  Elec       q    Type
                         _______ _______ _______ _____ _____    ______ ____

>  <TORSDO>
F 10

$$$$
=
 OpenBabel11042410143D

 65 74  0  0  1  0  0  0  0  0999 V2000
  193.7010  176.5690  140.0050 C   0  0  0  0  0  0  0  0  0  0  0  0
  187.1930  176.6740  138.3150 C   0  0  0  0  0  2  0  0  0  0  0  0
  190.7390  174.5910  135.2420 N   0  0  0  0  0  2  0  0  0  0  0  0
  192.0060  176.6920  141.7920 C   0  0  0  0  0  0  0  0  0  0  0  0
  192.1310  174.8900  135.6420 C   0  0  1  0  0  3  0  0  0  0  0  0
  195.4530  175.6430  138.6880 N   0  0  0  0  0  0  0  0  0  0  0  0
  191.4860  176.3990  138.9430 N   0  0  0  0  0  0  0  0  0  0  0  0
  195.0040  172.8700  134.7130 C   0  0  0  0  0  3  0  0  0  0  0  0
  188.8280  178.6090  138.3150 C   0  0  0  0  0  2  0  0  0  0  0  0
  197.1740  173.6750  135.3960 C   0  0  0  0  0  0  0  0  0  0  0  0
  189.4290  177.9660  139.4120 O   0  0  0  0  0  0  0  0  0  0  0  0
  195.1670  174.5460  136.4840 C   0  0  0  0  0  0  0  0  0  0  0  0
  196.3920  172.8460  134.5940 C   0  0  0  0  0  3  0  0  0  0  0  0
  188.7470  176.4690  143.2520 C   0  0  0  0  0  3  0  0  0  0  0  0
  194.3730  173.7210  135.6280 C   0  0  0  0  0  0  0  0  0  0  0  0
  190.9450  176.2280  142.1270 C   0  0  0  0  0  0  0  0  0  0  0  0
  188.4540  178.3290  141.5690 C   0  0  0  0  0  2  0  0  0  0  0  0
  192.8300  176.3260  138.9500 C   0  0  0  0  0  0  0  0  0  0  0  0
  196.5650  174.4970  136.3450 C   0  0  0  0  0  3  0  0  0  0  0  0
  192.2190  175.5840  136.9520 C   0  0  0  0  0  0  0  0  0  0  0  0
  188.0660  177.6000  137.4440 C   0  0  1  0  0  0  0  0  0  0  0  0
  191.1280  175.9510  137.7150 C   0  0  0  0  0  0  0  0  0  0  0  0
  193.2760  177.2340  141.2880 C   0  0  0  0  0  2  0  0  0  0  0  0
  193.3220  175.7610  137.7350 C   0  0  0  0  0  0  0  0  0  0  0  0
  189.7330  175.6000  137.3100 C   0  0  1  0  0  3  0  0  0  0  0  0
  187.0680  177.1910  139.7510 C   0  0  0  0  0  2  0  0  0  0  0  0
  195.0130  176.2390  139.8100 N   0  0  0  0  0  2  0  0  0  0  0  0
  189.0610  176.7850  136.5950 C   0  0  0  0  0  2  0  0  0  0  0  0
  188.1370  177.6040  142.8530 C   0  0  0  0  0  0  0  0  0  0  0  0
  189.8420  174.3570  136.3920 C   0  0  1  0  0  3  0  0  0  0  0  0
  189.6560  175.6000  142.4320 C   0  0  0  0  0  2  0  0  0  0  0  0
  192.9400  173.6850  135.6570 N   0  0  0  0  0  2  0  0  0  0  0  0
  188.4690  177.4570  140.3250 C   0  0  1  0  0  3  0  0  0  0  0  0
  194.6390  175.3470  137.6250 C   0  0  0  0  0  0  0  0  0  0  0  0
  186.4960  177.4040  144.6960 C   0  0  1  0  0  3  0  0  0  0  0  0
  185.9180  178.0420  143.5840 O   0  0  0  0  0  0  0  0  0  0  0  0
  187.2730  178.3320  143.8380 C   0  0  2  0  0  3  0  0  0  0  0  0
  186.0650  178.1270  145.9740 C   0  0  2  0  0  3  0  0  0  0  0  0
  186.1950  179.5200  145.8210 O   0  0  0  0  0  0  0  0  0  0  0  0
  185.9700  179.8400  148.1830 N   0  0  0  0  0  2  0  0  0  0  0  0
  186.7450  177.6480  147.2850 C   0  0  2  0  0  3  0  0  0  0  0  0
  185.4070  180.0860  146.8400 C   0  0  0  0  0  2  0  0  0  0  0  0
  187.0640  178.8570  148.1700 C   0  0  0  0  0  2  0  0  0  0  0  0
  188.0300  176.8440  147.0860 C   0  0  0  0  0  2  0  0  0  0  0  0
  189.2270  177.7300  147.1740 C   0  0  0  0  0  0  0  0  0  0  0  0
  189.7480  177.9630  148.2920 O   0  0  0  0  0  1  0  0  0  0  0  0
  189.7770  178.2820  146.0240 O   0  0  0  0  0  0  0  0  0  0  0  0
  199.1800  172.5000  136.0230 N   0  0  0  0  0  1  0  0  0  0  0  0
  198.6590  173.6410  135.2880 C   0  0  0  0  0  2  0  0  0  0  0  0
  187.9570  172.7450  136.5530 C   0  0  0  0  0  3  0  0  0  0  0  0
  188.5200  173.7960  135.9530 C   0  0  0  0  0  3  0  0  0  0  0  0
  186.6340  172.2190  136.0970 C   0  0  2  0  0  3  0  0  0  0  0  0
  186.6560  171.9990  134.5940 C   0  0  0  0  0  1  0  0  0  0  0  0
  185.5970  173.1780  136.4220 N   0  0  0  0  0  1  0  0  0  0  0  0
  187.1790  178.3440  136.4390 C   0  0  0  0  0  2  0  0  0  0  0  0
  186.1090  177.1790  134.6400 O   0  0  0  0  0  0  0  0  0  0  0  0
  186.0420  177.5530  135.8440 C   0  0  0  0  0  0  0  0  0  0  0  0
  184.8110  177.3100  136.6380 C   0  0  0  0  0  0  0  0  0  0  0  0
  183.2810  177.8720  138.4560 C   0  0  0  0  0  0  0  0  0  0  0  0
  182.8800  175.8990  137.1140 C   0  0  0  0  0  3  0  0  0  0  0  0
  182.5110  176.7430  138.1640 C   0  0  0  0  0  3  0  0  0  0  0  0
  184.4260  178.1620  137.7000 C   0  0  0  0  0  0  0  0  0  0  0  0
  182.9200  178.6780  139.4880 F   0  0  0  0  0  0  0  0  0  0  0  0
  185.1610  179.2580  138.0210 F   0  0  0  0  0  0  0  0  0  0  0  0
  184.0220  176.1820  136.3580 C   0  0  0  0  0  3  0  0  0  0  0  0
  1 23  1  0  0  0  0
  2 26  1  0  0  0  0
  3 30  1  0  0  0  0
  4 16  3  0  0  0  0
  5  3  1  1  0  0  0
  5 32  1  0  0  0  0
  5 20  1  0  0  0  0
  6 27  1  0  0  0  0
  7 18  1  0  0  0  0
  8 15  1  0  0  0  0
  9 11  1  0  0  0  0
 10 19  2  0  0  0  0
 11 33  1  0  0  0  0
 12 34  1  0  0  0  0
 13  8  2  0  0  0  0
 13 10  1  0  0  0  0
 15 32  1  0  0  0  0
 15 12  2  0  0  0  0
 16 31  1  0  0  0  0
 17 29  1  0  0  0  0
 18  1  2  0  0  0  0
 19 12  1  0  0  0  0
 20 22  1  0  0  0  0
 20 24  2  0  0  0  0
 21 55  1  6  0  0  0
 21  2  1  0  0  0  0
 21  9  1  0  0  0  0
 22  7  2  0  0  0  0
 23  4  1  0  0  0  0
 24 18  1  0  0  0  0
 25 28  1  6  0  0  0
 25 22  1  0  0  0  0
 27  1  1  0  0  0  0
 28 21  1  0  0  0  0
 29 14  2  0  0  0  0
 30 51  1  6  0  0  0
 30 25  1  0  0  0  0
 31 14  1  0  0  0  0
 33 26  1  6  0  0  0
 33 17  1  0  0  0  0
 34 24  1  0  0  0  0
 34  6  2  0  0  0  0
 35 36  1  6  0  0  0
 35 38  1  0  0  0  0
 36 37  1  0  0  0  0
 37 29  1  6  0  0  0
 37 35  1  0  0  0  0
 38 39  1  6  0  0  0
 38 41  1  0  0  0  0
 39 42  1  0  0  0  0
 41 44  1  6  0  0  0
 41 43  1  0  0  0  0
 42 40  1  0  0  0  0
 43 40  1  0  0  0  0
 44 45  1  0  0  0  0
 45 46  1  0  0  0  0
 47 45  2  0  0  0  0
 49 10  1  0  0  0  0
 49 48  1  0  0  0  0
 51 50  2  0  0  0  0
 52 53  1  6  0  0  0
 52 54  1  0  0  0  0
 52 50  1  0  0  0  0
 56 57  2  0  0  0  0
 57 55  1  0  0  0  0
 57 58  1  0  0  0  0
 58 62  1  0  0  0  0
 59 63  1  0  0  0  0
 60 61  2  0  0  0  0
 61 59  1  0  0  0  0
 62 64  1  0  0  0  0
 62 59  2  0  0  0  0
 65 58  2  0  0  0  0
 65 60  1  0  0  0  0
M  END
>  <MODEL>
3

>  <REMARK>
 VINA RESULT:      -2.2      2.165      3.313
  Name = 
  10 active torsions:
  status: ('A' for Active; 'I' for Inactive)
    1  A    between atoms: C_2  and  C_18
    2  A    between atoms: C_2  and  C_35
    3  A    between atoms: C_4  and  C_25
    4  A    between atoms: C_7  and  C_12
    5  A    between atoms: C_15  and  C_25
    6  A    between atoms: C_15  and  C_41
    7  A    between atoms: C_19  and  C_52
    8  A    between atoms: C_39  and  C_45
    9  A    between atoms: C_50  and  C_60
   10  A    between atoms: C_56  and  C_61
                            x       y       z     vdW  Elec       q    Type
                         _______ _______ _______ _____ _____    ______ ____

>  <TORSDO>
F 10

$$$$
