=
 OpenBabel11032419483D

 27 31  0  0  1  0  0  0  0  0999 V2000
  180.1120  178.1550  142.4230 C   0  0  0  0  0  3  0  0  0  0  0  0
  183.5510  178.6920  141.3910 C   0  0  0  0  0  3  0  0  0  0  0  0
  179.3180  178.8400  143.3440 C   0  0  0  0  0  3  0  0  0  0  0  0
  180.5310  178.7970  141.2540 C   0  0  0  0  0  0  0  0  0  0  0  0
  184.8810  178.6250  138.9570 C   0  0  0  0  0  3  0  0  0  0  0  0
  179.9610  180.3010  138.6240 N   0  0  1  0  0  0  0  0  0  0  0  0
  180.6950  177.7320  139.0660 O   0  0  0  0  0  0  0  0  0  0  0  0
  183.5160  178.3300  139.0030 C   0  0  0  0  0  0  0  0  0  0  0  0
  181.3730  178.0070  140.2910 C   0  0  1  0  0  3  0  0  0  0  0  0
  182.7740  177.9640  137.7610 C   0  0  1  0  0  3  0  0  0  0  0  0
  179.6130  181.1310  136.4060 C   0  0  2  0  0  3  0  0  0  0  0  0
  184.9140  178.9820  141.3040 C   0  0  0  0  0  3  0  0  0  0  0  0
  182.9210  176.4790  137.4750 C   0  0  0  0  0  1  0  0  0  0  0  0
  179.3440  181.3830  137.8740 C   0  0  0  0  0  2  0  0  0  0  0  0
  179.3430  180.7780  141.9770 C   0  0  0  0  0  3  0  0  0  0  0  0
  180.8190  180.2250  136.3680 C   0  0  0  0  0  2  0  0  0  0  0  0
  182.8400  178.3760  140.2280 C   0  0  0  0  0  0  0  0  0  0  0  0
  181.0800  179.8420  137.8120 C   0  0  2  0  0  3  0  0  0  0  0  0
  180.5470  180.8960  139.8120 C   0  0  0  0  0  2  0  0  0  0  0  0
  185.5460  178.9460  140.0990 N   0  0  0  0  0  0  0  0  0  0  0  0
  180.1400  180.1330  141.0270 C   0  0  0  0  0  0  0  0  0  0  0  0
  178.9530  180.1260  143.1040 N   0  0  0  0  0  0  0  0  0  0  0  0
  181.2960  178.3270  137.9220 C   0  0  2  0  0  3  0  0  0  0  0  0
  181.0630  184.5170  135.6090 O   0  0  0  0  0  1  0  0  0  0  0  0
  179.8780  182.4120  135.6830 C   0  0  0  0  0  0  0  0  0  0  0  0
  179.2950  182.6650  134.5940 O   0  0  0  0  0  0  0  0  0  0  0  0
  180.7990  183.3480  136.2380 N   0  0  0  0  0  2  0  0  0  0  0  0
  1  3  1  0  0  0  0
  4  1  2  0  0  0  0
  5  8  2  0  0  0  0
  5 20  1  0  0  0  0
  6 14  1  6  0  0  0
  6 19  1  0  0  0  0
  8 17  1  0  0  0  0
  9  7  1  6  0  0  0
  9  4  1  0  0  0  0
 10 13  1  1  0  0  0
 10 23  1  0  0  0  0
 10  8  1  0  0  0  0
 11 25  1  6  0  0  0
 11 14  1  0  0  0  0
 12  2  1  0  0  0  0
 15 22  1  0  0  0  0
 16 11  1  0  0  0  0
 17  9  1  0  0  0  0
 17  2  2  0  0  0  0
 18 16  1  6  0  0  0
 18 23  1  0  0  0  0
 18  6  1  0  0  0  0
 19 21  1  0  0  0  0
 20 12  2  0  0  0  0
 21  4  1  0  0  0  0
 21 15  2  0  0  0  0
 22  3  2  0  0  0  0
 23  7  1  1  0  0  0
 24 27  1  0  0  0  0
 25 27  1  0  0  0  0
 26 25  2  0  0  0  0
M  END
>  <MODEL>
1

>  <REMARK>
 VINA RESULT:      -6.1      0.000      0.000
  Name = 
  1 active torsions:
  status: ('A' for Active; 'I' for Inactive)
    1  A    between atoms: C_9  and  C_13
                            x       y       z     vdW  Elec       q    Type
                         _______ _______ _______ _____ _____    ______ ____

>  <TORSDO>
F 1

$$$$
=
 OpenBabel11032419483D

 27 31  0  0  1  0  0  0  0  0999 V2000
  179.8780  180.4750  140.1860 C   0  0  0  0  0  3  0  0  0  0  0  0
  180.6290  177.0510  139.2430 C   0  0  0  0  0  3  0  0  0  0  0  0
  178.9310  180.9910  141.0700 C   0  0  0  0  0  3  0  0  0  0  0  0
  180.9330  179.6990  140.6720 C   0  0  0  0  0  0  0  0  0  0  0  0
  182.9690  175.6280  138.8000 C   0  0  0  0  0  3  0  0  0  0  0  0
  183.3920  179.2830  142.4860 N   0  0  1  0  0  0  0  0  0  0  0  0
  183.2200  179.7760  139.8280 O   0  0  0  0  0  0  0  0  0  0  0  0
  183.0410  176.9830  139.1310 C   0  0  0  0  0  0  0  0  0  0  0  0
  181.9330  179.1810  139.6760 C   0  0  1  0  0  3  0  0  0  0  0  0
  184.3600  177.6740  139.2320 C   0  0  1  0  0  3  0  0  0  0  0  0
  185.5100  179.0020  143.5650 C   0  0  2  0  0  3  0  0  0  0  0  0
  180.5980  175.6940  138.9110 C   0  0  0  0  0  3  0  0  0  0  0  0
  184.8150  178.1490  137.8620 C   0  0  0  0  0  1  0  0  0  0  0  0
  184.0420  179.2920  143.7870 C   0  0  0  0  0  2  0  0  0  0  0  0
  180.0490  179.9900  142.9060 C   0  0  0  0  0  3  0  0  0  0  0  0
  185.5850  178.3060  142.2280 C   0  0  0  0  0  2  0  0  0  0  0  0
  181.8630  177.7000  139.3680 C   0  0  0  0  0  0  0  0  0  0  0  0
  184.1850  178.3900  141.6510 C   0  0  2  0  0  3  0  0  0  0  0  0
  182.1070  178.6280  142.6630 C   0  0  0  0  0  2  0  0  0  0  0  0
  181.7590  175.0150  138.7010 N   0  0  0  0  0  0  0  0  0  0  0  0
  181.0200  179.4510  142.0590 C   0  0  0  0  0  0  0  0  0  0  0  0
  179.0350  180.7400  142.4020 N   0  0  0  0  0  0  0  0  0  0  0  0
  184.2460  178.8600  140.1920 C   0  0  2  0  0  3  0  0  0  0  0  0
  186.4010  177.7940  147.0210 O   0  0  0  0  0  1  0  0  0  0  0  0
  186.0550  178.1370  144.6540 C   0  0  0  0  0  0  0  0  0  0  0  0
  186.6310  177.0480  144.3800 O   0  0  0  0  0  0  0  0  0  0  0  0
  185.9190  178.5540  146.0100 N   0  0  0  0  0  2  0  0  0  0  0  0
  1  4  2  0  0  0  0
  1  3  1  0  0  0  0
  2 17  1  0  0  0  0
  3 22  2  0  0  0  0
  4 21  1  0  0  0  0
  5  8  1  0  0  0  0
  6 19  1  1  0  0  0
  6 14  1  0  0  0  0
  8 10  1  0  0  0  0
  8 17  2  0  0  0  0
  9 17  1  1  0  0  0
  9  7  1  0  0  0  0
  9  4  1  0  0  0  0
 10 13  1  6  0  0  0
 10 23  1  0  0  0  0
 11 14  1  0  0  0  0
 11 25  1  1  0  0  0
 12  2  2  0  0  0  0
 16 11  1  0  0  0  0
 18 16  1  1  0  0  0
 18  6  1  0  0  0  0
 20  5  2  0  0  0  0
 20 12  1  0  0  0  0
 21 19  1  0  0  0  0
 21 15  2  0  0  0  0
 22 15  1  0  0  0  0
 23  7  1  6  0  0  0
 23 18  1  0  0  0  0
 25 27  1  0  0  0  0
 26 25  2  0  0  0  0
 27 24  1  0  0  0  0
M  END
>  <MODEL>
2

>  <REMARK>
 VINA RESULT:      -6.1      3.377      6.425
  Name = 
  1 active torsions:
  status: ('A' for Active; 'I' for Inactive)
    1  A    between atoms: C_9  and  C_13
                            x       y       z     vdW  Elec       q    Type
                         _______ _______ _______ _____ _____    ______ ____

>  <TORSDO>
F 1

$$$$
=
 OpenBabel11032419483D

 27 31  0  0  1  0  0  0  0  0999 V2000
  180.8470  180.3730  138.8150 C   0  0  0  0  0  3  0  0  0  0  0  0
  182.0790  177.1740  137.6210 C   0  0  0  0  0  3  0  0  0  0  0  0
  179.7140  180.6930  139.5630 C   0  0  0  0  0  3  0  0  0  0  0  0
  181.8710  179.6160  139.3930 C   0  0  0  0  0  0  0  0  0  0  0  0
  184.5870  175.9990  137.4540 C   0  0  0  0  0  3  0  0  0  0  0  0
  184.0010  179.1370  141.5690 N   0  0  1  0  0  0  0  0  0  0  0  0
  184.2520  179.9750  139.0050 O   0  0  0  0  0  0  0  0  0  0  0  0
  184.4690  177.2980  137.9550 C   0  0  0  0  0  0  0  0  0  0  0  0
  183.0750  179.3140  138.5450 C   0  0  1  0  0  3  0  0  0  0  0  0
  185.6770  178.0620  138.3820 C   0  0  1  0  0  3  0  0  0  0  0  0
  185.9140  178.8660  142.9820 C   0  0  2  0  0  3  0  0  0  0  0  0
  182.2380  175.8760  137.1280 C   0  0  0  0  0  3  0  0  0  0  0  0
  186.3160  178.7510  137.1890 C   0  0  0  0  0  1  0  0  0  0  0  0
  184.4090  179.0150  142.9600 C   0  0  0  0  0  2  0  0  0  0  0  0
  180.5840  179.5340  141.4410 C   0  0  0  0  0  3  0  0  0  0  0  0
  186.2890  178.3670  141.6080 C   0  0  0  0  0  2  0  0  0  0  0  0
  183.2030  177.8880  138.0520 C   0  0  0  0  0  0  0  0  0  0  0  0
  185.0110  178.4270  140.7950 C   0  0  2  0  0  3  0  0  0  0  0  0
  182.7750  178.3720  141.4230 C   0  0  0  0  0  2  0  0  0  0  0  0
  183.4770  175.3190  137.0580 N   0  0  0  0  0  0  0  0  0  0  0  0
  181.7370  179.1890  140.7300 C   0  0  0  0  0  0  0  0  0  0  0  0
  179.6070  180.2710  140.8500 N   0  0  0  0  0  0  0  0  0  0  0  0
  185.2810  179.0940  139.4400 C   0  0  2  0  0  3  0  0  0  0  0  0
  186.4210  177.3400  146.3900 O   0  0  0  0  0  1  0  0  0  0  0  0
  186.3410  177.9020  144.0410 C   0  0  0  0  0  0  0  0  0  0  0  0
  186.9530  176.8420  143.7340 O   0  0  0  0  0  0  0  0  0  0  0  0
  186.0490  178.1920  145.4060 N   0  0  0  0  0  2  0  0  0  0  0  0
  1  4  2  0  0  0  0
  1  3  1  0  0  0  0
  2 17  1  0  0  0  0
  3 22  2  0  0  0  0
  4 21  1  0  0  0  0
  5  8  1  0  0  0  0
  6 19  1  1  0  0  0
  6 14  1  0  0  0  0
  8 17  2  0  0  0  0
  8 10  1  0  0  0  0
  9 17  1  1  0  0  0
  9  7  1  0  0  0  0
  9  4  1  0  0  0  0
 10 13  1  6  0  0  0
 10 23  1  0  0  0  0
 11 25  1  1  0  0  0
 12  2  2  0  0  0  0
 14 11  1  0  0  0  0
 16 11  1  0  0  0  0
 18  6  1  0  0  0  0
 18 16  1  1  0  0  0
 20 12  1  0  0  0  0
 20  5  2  0  0  0  0
 21 19  1  0  0  0  0
 21 15  2  0  0  0  0
 22 15  1  0  0  0  0
 23  7  1  6  0  0  0
 23 18  1  0  0  0  0
 25 27  1  0  0  0  0
 26 25  2  0  0  0  0
 27 24  1  0  0  0  0
M  END
>  <MODEL>
3

>  <REMARK>
 VINA RESULT:      -5.7      3.202      6.489
  Name = 
  1 active torsions:
  status: ('A' for Active; 'I' for Inactive)
    1  A    between atoms: C_9  and  C_13
                            x       y       z     vdW  Elec       q    Type
                         _______ _______ _______ _____ _____    ______ ____

>  <TORSDO>
F 1

$$$$
=
 OpenBabel11032419483D

 27 31  0  0  1  0  0  0  0  0999 V2000
  193.2290  176.0080  136.6270 C   0  0  0  0  0  3  0  0  0  0  0  0
  191.3190  176.8750  139.5890 C   0  0  0  0  0  3  0  0  0  0  0  0
  194.1910  175.0190  136.4190 C   0  0  0  0  0  3  0  0  0  0  0  0
  191.9050  175.6450  136.8890 C   0  0  0  0  0  0  0  0  0  0  0  0
  188.6790  177.5890  140.0570 C   0  0  0  0  0  3  0  0  0  0  0  0
  189.2840  174.2020  136.1480 N   0  0  1  0  0  0  0  0  0  0  0  0
  189.9470  176.8250  136.0400 O   0  0  0  0  0  0  0  0  0  0  0  0
  189.1030  177.3430  138.7480 C   0  0  0  0  0  0  0  0  0  0  0  0
  190.9080  176.7520  137.0910 C   0  0  1  0  0  3  0  0  0  0  0  0
  188.1560  177.4760  137.6030 C   0  0  1  0  0  3  0  0  0  0  0  0
  187.1130  173.4380  135.4890 C   0  0  2  0  0  3  0  0  0  0  0  0
  190.8560  177.1280  140.8830 C   0  0  0  0  0  3  0  0  0  0  0  0
  188.0880  178.9210  137.1380 C   0  0  0  0  0  1  0  0  0  0  0  0
  188.5400  173.0140  135.7570 C   0  0  0  0  0  2  0  0  0  0  0  0
  192.5620  173.3220  136.7210 C   0  0  0  0  0  3  0  0  0  0  0  0
  186.9310  174.7340  136.2410 C   0  0  0  0  0  2  0  0  0  0  0  0
  190.4310  176.9700  138.5110 C   0  0  0  0  0  0  0  0  0  0  0  0
  188.3100  175.0980  136.7560 C   0  0  2  0  0  3  0  0  0  0  0  0
  190.1810  173.8000  137.2180 C   0  0  0  0  0  2  0  0  0  0  0  0
  189.5570  177.4740  141.0890 N   0  0  0  0  0  0  0  0  0  0  0  0
  191.5650  174.2770  136.9380 C   0  0  0  0  0  0  0  0  0  0  0  0
  193.8410  173.7070  136.4700 N   0  0  0  0  0  0  0  0  0  0  0  0
  188.6100  176.5730  136.4550 C   0  0  2  0  0  3  0  0  0  0  0  0
  184.1510  171.8780  137.2180 O   0  0  0  0  0  1  0  0  0  0  0  0
  186.1480  172.4000  135.9630 C   0  0  0  0  0  0  0  0  0  0  0  0
  186.3080  171.1880  135.6510 O   0  0  0  0  0  0  0  0  0  0  0  0
  185.0440  172.7920  136.7730 N   0  0  0  0  0  2  0  0  0  0  0  0
  1  4  1  0  0  0  0
  2 12  1  0  0  0  0
  3 22  1  0  0  0  0
  3  1  2  0  0  0  0
  4 21  2  0  0  0  0
  4  9  1  0  0  0  0
  5 20  1  0  0  0  0
  6 14  1  1  0  0  0
  6 18  1  0  0  0  0
  6 19  1  0  0  0  0
  8  5  2  0  0  0  0
  9  7  1  6  0  0  0
  9 17  1  0  0  0  0
 10 13  1  6  0  0  0
 10  8  1  0  0  0  0
 11 14  1  0  0  0  0
 11 25  1  1  0  0  0
 11 16  1  0  0  0  0
 12 20  2  0  0  0  0
 15 21  1  0  0  0  0
 17  8  1  0  0  0  0
 17  2  2  0  0  0  0
 18 16  1  6  0  0  0
 21 19  1  0  0  0  0
 22 15  2  0  0  0  0
 23  7  1  1  0  0  0
 23 18  1  0  0  0  0
 23 10  1  0  0  0  0
 25 27  1  0  0  0  0
 26 25  2  0  0  0  0
 27 24  1  0  0  0  0
M  END
>  <MODEL>
4

>  <REMARK>
 VINA RESULT:      -5.7      8.182     11.016
  Name = 
  1 active torsions:
  status: ('A' for Active; 'I' for Inactive)
    1  A    between atoms: C_9  and  C_13
                            x       y       z     vdW  Elec       q    Type
                         _______ _______ _______ _____ _____    ______ ____

>  <TORSDO>
F 1

$$$$
=
 OpenBabel11032419483D

 27 31  0  0  1  0  0  0  0  0999 V2000
  179.7760  179.2540  141.5870 C   0  0  0  0  0  3  0  0  0  0  0  0
  179.7300  175.8540  140.3150 C   0  0  0  0  0  3  0  0  0  0  0  0
  180.0120  179.7440  142.8720 C   0  0  0  0  0  3  0  0  0  0  0  0
  180.8060  178.6230  140.8840 C   0  0  0  0  0  0  0  0  0  0  0  0
  180.6660  174.6320  138.0070 C   0  0  0  0  0  3  0  0  0  0  0  0
  183.6290  178.5890  139.6460 N   0  0  1  0  0  0  0  0  0  0  0  0
  181.1950  178.8530  138.4870 O   0  0  0  0  0  0  0  0  0  0  0  0
  180.8300  176.0100  138.1700 C   0  0  0  0  0  0  0  0  0  0  0  0
  180.4990  178.1270  139.4980 C   0  0  1  0  0  3  0  0  0  0  0  0
  181.4870  176.8290  137.1100 C   0  0  1  0  0  3  0  0  0  0  0  0
  185.6360  178.5990  138.3420 C   0  0  2  0  0  3  0  0  0  0  0  0
  179.5860  174.4790  140.1160 C   0  0  0  0  0  3  0  0  0  0  0  0
  180.4740  177.2370  136.0530 C   0  0  0  0  0  1  0  0  0  0  0  0
  185.0700  178.7620  139.7350 C   0  0  0  0  0  2  0  0  0  0  0  0
  182.2630  179.0030  142.7780 C   0  0  0  0  0  3  0  0  0  0  0  0
  184.6000  177.8100  137.5770 C   0  0  0  0  0  2  0  0  0  0  0  0
  180.3700  176.6270  139.3390 C   0  0  0  0  0  0  0  0  0  0  0  0
  183.4040  177.7140  138.5030 C   0  0  2  0  0  3  0  0  0  0  0  0
  183.2250  177.8300  140.8170 C   0  0  0  0  0  2  0  0  0  0  0  0
  180.0560  173.9000  138.9770 N   0  0  0  0  0  0  0  0  0  0  0  0
  182.0730  178.4950  141.4910 C   0  0  0  0  0  0  0  0  0  0  0  0
  181.2400  179.6100  143.4360 N   0  0  0  0  0  0  0  0  0  0  0  0
  182.1200  178.0710  137.7410 C   0  0  2  0  0  3  0  0  0  0  0  0
  189.1350  177.6520  139.3720 O   0  0  0  0  0  1  0  0  0  0  0  0
  186.9450  177.8780  138.3760 C   0  0  0  0  0  0  0  0  0  0  0  0
  187.1700  176.9210  137.5860 O   0  0  0  0  0  0  0  0  0  0  0  0
  187.9390  178.2830  139.3130 N   0  0  0  0  0  2  0  0  0  0  0  0
  1  3  1  0  0  0  0
  3 22  2  0  0  0  0
  4 21  1  0  0  0  0
  4  1  2  0  0  0  0
  5  8  2  0  0  0  0
  5 20  1  0  0  0  0
  6 14  1  1  0  0  0
  6 19  1  0  0  0  0
  8 17  1  0  0  0  0
  9  7  1  6  0  0  0
  9  4  1  0  0  0  0
 10 13  1  6  0  0  0
 10 23  1  0  0  0  0
 10  8  1  0  0  0  0
 11 25  1  1  0  0  0
 11 14  1  0  0  0  0
 12  2  1  0  0  0  0
 15 22  1  0  0  0  0
 16 11  1  0  0  0  0
 17  9  1  0  0  0  0
 17  2  2  0  0  0  0
 18 16  1  6  0  0  0
 18  6  1  0  0  0  0
 19 21  1  0  0  0  0
 20 12  2  0  0  0  0
 21 15  2  0  0  0  0
 23  7  1  1  0  0  0
 23 18  1  0  0  0  0
 25 27  1  0  0  0  0
 26 25  2  0  0  0  0
 27 24  1  0  0  0  0
M  END
>  <MODEL>
5

>  <REMARK>
 VINA RESULT:      -5.5      3.012      5.388
  Name = 
  1 active torsions:
  status: ('A' for Active; 'I' for Inactive)
    1  A    between atoms: C_9  and  C_13
                            x       y       z     vdW  Elec       q    Type
                         _______ _______ _______ _____ _____    ______ ____

>  <TORSDO>
F 1

$$$$
=
 OpenBabel11032419483D

 27 31  0  0  1  0  0  0  0  0999 V2000
  187.6410  177.4100  134.5940 C   0  0  0  0  0  3  0  0  0  0  0  0
  189.3660  174.2360  134.9520 C   0  0  0  0  0  3  0  0  0  0  0  0
  186.2790  177.7140  134.5940 C   0  0  0  0  0  3  0  0  0  0  0  0
  188.2460  176.9280  135.7570 C   0  0  0  0  0  0  0  0  0  0  0  0
  191.6350  173.4030  136.3140 C   0  0  0  0  0  3  0  0  0  0  0  0
  188.9930  177.1790  138.7380 N   0  0  1  0  0  0  0  0  0  0  0  0
  190.4890  177.5230  136.5070 O   0  0  0  0  0  0  0  0  0  0  0  0
  191.2560  174.7460  136.3670 C   0  0  0  0  0  0  0  0  0  0  0  0
  189.7190  176.6310  135.7040 C   0  0  1  0  0  3  0  0  0  0  0  0
  192.0680  175.7360  137.1330 C   0  0  1  0  0  3  0  0  0  0  0  0
  189.9330  177.4530  140.9220 C   0  0  2  0  0  3  0  0  0  0  0  0
  189.7760  172.9010  134.9240 C   0  0  0  0  0  3  0  0  0  0  0  0
  193.2110  176.2590  136.2780 C   0  0  0  0  0  1  0  0  0  0  0  0
  188.6430  177.3890  140.1340 C   0  0  0  0  0  2  0  0  0  0  0  0
  186.1020  177.0760  136.8710 C   0  0  0  0  0  3  0  0  0  0  0  0
  190.9600  176.7490  140.0690 C   0  0  0  0  0  2  0  0  0  0  0  0
  190.1050  175.1670  135.6920 C   0  0  0  0  0  0  0  0  0  0  0  0
  190.2680  176.4740  138.7490 C   0  0  2  0  0  3  0  0  0  0  0  0
  188.0220  176.2410  138.2000 C   0  0  0  0  0  2  0  0  0  0  0  0
  190.8910  172.5140  135.6020 N   0  0  0  0  0  0  0  0  0  0  0  0
  187.4620  176.7570  136.9180 C   0  0  0  0  0  0  0  0  0  0  0  0
  185.5440  177.5420  135.7230 N   0  0  0  0  0  0  0  0  0  0  0  0
  191.1740  176.8930  137.5840 C   0  0  2  0  0  3  0  0  0  0  0  0
  188.9460  176.8840  144.5140 O   0  0  0  0  0  1  0  0  0  0  0  0
  189.7840  176.7830  142.2490 C   0  0  0  0  0  0  0  0  0  0  0  0
  190.2560  175.6290  142.4410 O   0  0  0  0  0  0  0  0  0  0  0  0
  189.1000  177.4620  143.2990 N   0  0  0  0  0  2  0  0  0  0  0  0
  1  3  2  0  0  0  0
  1  4  1  0  0  0  0
  2 17  1  0  0  0  0
  3 22  1  0  0  0  0
  4 21  2  0  0  0  0
  5  8  1  0  0  0  0
  6 19  1  1  0  0  0
  6 18  1  0  0  0  0
  6 14  1  0  0  0  0
  8 10  1  0  0  0  0
  9 17  1  1  0  0  0
  9  4  1  0  0  0  0
  9  7  1  0  0  0  0
 10 13  1  6  0  0  0
 10 23  1  0  0  0  0
 11 25  1  1  0  0  0
 12  2  2  0  0  0  0
 12 20  1  0  0  0  0
 14 11  1  0  0  0  0
 15 21  1  0  0  0  0
 16 11  1  0  0  0  0
 17  8  2  0  0  0  0
 18 16  1  1  0  0  0
 20  5  2  0  0  0  0
 21 19  1  0  0  0  0
 22 15  2  0  0  0  0
 23  7  1  6  0  0  0
 23 18  1  0  0  0  0
 25 26  2  0  0  0  0
 25 27  1  0  0  0  0
 27 24  1  0  0  0  0
M  END
>  <MODEL>
6

>  <REMARK>
 VINA RESULT:      -5.4      7.372     10.604
  Name = 
  1 active torsions:
  status: ('A' for Active; 'I' for Inactive)
    1  A    between atoms: C_9  and  C_13
                            x       y       z     vdW  Elec       q    Type
                         _______ _______ _______ _____ _____    ______ ____

>  <TORSDO>
F 1

$$$$
=
 OpenBabel11032419483D

 27 31  0  0  1  0  0  0  0  0999 V2000
  180.0030  179.8740  140.8430 C   0  0  0  0  0  3  0  0  0  0  0  0
  180.5520  176.5230  139.5610 C   0  0  0  0  0  3  0  0  0  0  0  0
  179.5010  180.3110  142.0690 C   0  0  0  0  0  3  0  0  0  0  0  0
  181.2270  179.2010  140.7930 C   0  0  0  0  0  0  0  0  0  0  0  0
  182.5700  175.3130  138.0910 C   0  0  0  0  0  3  0  0  0  0  0  0
  184.2580  179.0280  141.3270 N   0  0  1  0  0  0  0  0  0  0  0  0
  182.8920  179.4770  139.0320 O   0  0  0  0  0  0  0  0  0  0  0  0
  182.6650  176.6730  138.3990 C   0  0  0  0  0  0  0  0  0  0  0  0
  181.7260  178.7660  139.4430 C   0  0  1  0  0  3  0  0  0  0  0  0
  183.8290  177.4800  137.9310 C   0  0  1  0  0  3  0  0  0  0  0  0
  186.6500  178.9510  141.3570 C   0  0  2  0  0  3  0  0  0  0  0  0
  180.4950  175.1660  139.2350 C   0  0  0  0  0  3  0  0  0  0  0  0
  183.5910  177.9810  136.5160 C   0  0  0  0  0  1  0  0  0  0  0  0
  185.4110  179.1080  142.2100 C   0  0  0  0  0  2  0  0  0  0  0  0
  181.3960  179.4340  143.1960 C   0  0  0  0  0  3  0  0  0  0  0  0
  186.1880  178.2510  140.1020 C   0  0  0  0  0  2  0  0  0  0  0  0
  181.6540  177.2820  139.1510 C   0  0  0  0  0  0  0  0  0  0  0  0
  184.6760  178.2030  140.2020 C   0  0  2  0  0  3  0  0  0  0  0  0
  183.2440  178.2620  142.0310 C   0  0  0  0  0  2  0  0  0  0  0  0
  181.4980  174.5930  138.5150 N   0  0  0  0  0  0  0  0  0  0  0  0
  181.9360  178.9770  141.9910 C   0  0  0  0  0  0  0  0  0  0  0  0
  180.2020  180.0840  143.2110 N   0  0  0  0  0  0  0  0  0  0  0  0
  184.0470  178.6610  138.8790 C   0  0  2  0  0  3  0  0  0  0  0  0
  188.2150  176.5280  143.7820 O   0  0  0  0  0  1  0  0  0  0  0  0
  187.6920  178.1490  142.0680 C   0  0  0  0  0  0  0  0  0  0  0  0
  188.9070  178.2490  141.7460 O   0  0  0  0  0  0  0  0  0  0  0  0
  187.2980  177.2690  143.1170 N   0  0  0  0  0  2  0  0  0  0  0  0
  1  3  1  0  0  0  0
  3 22  2  0  0  0  0
  4  1  2  0  0  0  0
  4 21  1  0  0  0  0
  5  8  2  0  0  0  0
  5 20  1  0  0  0  0
  6 19  1  1  0  0  0
  6 14  1  0  0  0  0
  8 17  1  0  0  0  0
  9  7  1  1  0  0  0
  9  4  1  0  0  0  0
 10 13  1  6  0  0  0
 10  8  1  0  0  0  0
 10 23  1  0  0  0  0
 11 25  1  1  0  0  0
 11 14  1  0  0  0  0
 12  2  1  0  0  0  0
 15 22  1  0  0  0  0
 16 11  1  0  0  0  0
 17  9  1  0  0  0  0
 17  2  2  0  0  0  0
 18 16  1  6  0  0  0
 18  6  1  0  0  0  0
 20 12  2  0  0  0  0
 21 19  1  0  0  0  0
 21 15  2  0  0  0  0
 23  7  1  1  0  0  0
 23 18  1  0  0  0  0
 25 27  1  0  0  0  0
 26 25  2  0  0  0  0
 27 24  1  0  0  0  0
M  END
>  <MODEL>
7

>  <REMARK>
 VINA RESULT:      -5.4      3.189      6.119
  Name = 
  1 active torsions:
  status: ('A' for Active; 'I' for Inactive)
    1  A    between atoms: C_9  and  C_13
                            x       y       z     vdW  Elec       q    Type
                         _______ _______ _______ _____ _____    ______ ____

>  <TORSDO>
F 1

$$$$
=
 OpenBabel11032419483D

 27 31  0  0  1  0  0  0  0  0999 V2000
  186.8460  178.5000  137.1420 C   0  0  0  0  0  3  0  0  0  0  0  0
  187.9090  175.0370  136.9040 C   0  0  0  0  0  3  0  0  0  0  0  0
  185.6760  179.0620  137.6530 C   0  0  0  0  0  3  0  0  0  0  0  0
  187.7370  177.8500  138.0000 C   0  0  0  0  0  0  0  0  0  0  0  0
  190.3090  173.7100  137.3200 C   0  0  0  0  0  3  0  0  0  0  0  0
  189.5910  177.8000  140.4630 N   0  0  1  0  0  0  0  0  0  0  0  0
  190.1670  177.9590  137.8210 O   0  0  0  0  0  0  0  0  0  0  0  0
  190.2550  175.0970  137.4770 C   0  0  0  0  0  0  0  0  0  0  0  0
  188.9890  177.2760  137.3980 C   0  0  1  0  0  3  0  0  0  0  0  0
  191.4760  175.8700  137.8480 C   0  0  1  0  0  3  0  0  0  0  0  0
  191.3230  177.7750  142.1150 C   0  0  2  0  0  3  0  0  0  0  0  0
  188.0030  173.6510  136.7590 C   0  0  0  0  0  3  0  0  0  0  0  0
  192.2890  176.2030  136.6080 C   0  0  0  0  0  1  0  0  0  0  0  0
  189.8460  178.0020  141.8810 C   0  0  0  0  0  2  0  0  0  0  0  0
  186.2510  178.3560  139.8430 C   0  0  0  0  0  3  0  0  0  0  0  0
  191.7890  176.9290  140.9550 C   0  0  0  0  0  2  0  0  0  0  0  0
  189.0420  175.7670  137.2800 C   0  0  0  0  0  0  0  0  0  0  0  0
  190.6080  176.8610  140.0070 C   0  0  2  0  0  3  0  0  0  0  0  0
  188.3240  177.0970  140.3610 C   0  0  0  0  0  2  0  0  0  0  0  0
  189.1900  173.0200  136.9710 N   0  0  0  0  0  0  0  0  0  0  0  0
  187.4340  177.7770  139.3760 C   0  0  0  0  0  0  0  0  0  0  0  0
  185.4050  178.9790  138.9820 N   0  0  0  0  0  0  0  0  0  0  0  0
  191.0680  177.1540  138.5730 C   0  0  2  0  0  3  0  0  0  0  0  0
  191.8320  177.2510  145.8120 O   0  0  0  0  0  1  0  0  0  0  0  0
  191.5570  177.0800  143.4170 C   0  0  0  0  0  0  0  0  0  0  0  0
  191.6970  175.8260  143.4590 O   0  0  0  0  0  0  0  0  0  0  0  0
  191.6220  177.8480  144.6160 N   0  0  0  0  0  2  0  0  0  0  0  0
  1  3  2  0  0  0  0
  1  4  1  0  0  0  0
  2 17  1  0  0  0  0
  3 22  1  0  0  0  0
  4 21  2  0  0  0  0
  5  8  1  0  0  0  0
  6 19  1  1  0  0  0
  6 14  1  0  0  0  0
  8 10  1  0  0  0  0
  9 17  1  1  0  0  0
  9  7  1  0  0  0  0
  9  4  1  0  0  0  0
 10 13  1  6  0  0  0
 10 23  1  0  0  0  0
 11 25  1  1  0  0  0
 12  2  2  0  0  0  0
 12 20  1  0  0  0  0
 14 11  1  0  0  0  0
 16 11  1  0  0  0  0
 17  8  2  0  0  0  0
 18  6  1  0  0  0  0
 18 16  1  1  0  0  0
 20  5  2  0  0  0  0
 21 15  1  0  0  0  0
 21 19  1  0  0  0  0
 22 15  2  0  0  0  0
 23  7  1  6  0  0  0
 23 18  1  0  0  0  0
 25 26  2  0  0  0  0
 25 27  1  0  0  0  0
 27 24  1  0  0  0  0
M  END
>  <MODEL>
8

>  <REMARK>
 VINA RESULT:      -5.2      6.569     10.361
  Name = 
  1 active torsions:
  status: ('A' for Active; 'I' for Inactive)
    1  A    between atoms: C_9  and  C_13
                            x       y       z     vdW  Elec       q    Type
                         _______ _______ _______ _____ _____    ______ ____

>  <TORSDO>
F 1

$$$$
=
 OpenBabel11032419483D

 27 31  0  0  1  0  0  0  0  0999 V2000
  181.6350  179.5080  139.5030 C   0  0  0  0  0  3  0  0  0  0  0  0
  182.7020  176.3330  138.1040 C   0  0  0  0  0  3  0  0  0  0  0  0
  180.7940  179.7950  140.5780 C   0  0  0  0  0  3  0  0  0  0  0  0
  182.8620  178.8790  139.7290 C   0  0  0  0  0  0  0  0  0  0  0  0
  185.1100  175.3470  137.1410 C   0  0  0  0  0  3  0  0  0  0  0  0
  185.6370  178.7320  141.0640 N   0  0  1  0  0  0  0  0  0  0  0  0
  184.9270  179.3900  138.5340 O   0  0  0  0  0  0  0  0  0  0  0  0
  185.0390  176.6670  137.5940 C   0  0  0  0  0  0  0  0  0  0  0  0
  183.7350  178.6070  138.5340 C   0  0  1  0  0  3  0  0  0  0  0  0
  186.2390  177.5520  137.5480 C   0  0  1  0  0  3  0  0  0  0  0  0
  187.9300  178.7170  141.7480 C   0  0  2  0  0  3  0  0  0  0  0  0
  182.8120  175.0180  137.6440 C   0  0  0  0  0  3  0  0  0  0  0  0
  186.3690  178.1970  136.1780 C   0  0  0  0  0  1  0  0  0  0  0  0
  186.4990  178.7470  142.2350 C   0  0  0  0  0  2  0  0  0  0  0  0
  182.3550  178.8520  142.0950 C   0  0  0  0  0  3  0  0  0  0  0  0
  187.8690  178.1460  140.3520 C   0  0  0  0  0  2  0  0  0  0  0  0
  183.8290  177.1630  138.0920 C   0  0  0  0  0  0  0  0  0  0  0  0
  186.3920  178.0450  140.0240 C   0  0  2  0  0  3  0  0  0  0  0  0
  184.5150  177.8650  141.3800 C   0  0  0  0  0  2  0  0  0  0  0  0
  184.0040  174.5550  137.1790 N   0  0  0  0  0  0  0  0  0  0  0  0
  183.2290  178.5440  141.0490 C   0  0  0  0  0  0  0  0  0  0  0  0
  181.1680  179.4640  141.8420 N   0  0  0  0  0  0  0  0  0  0  0  0
  186.1240  178.6280  138.6300 C   0  0  2  0  0  3  0  0  0  0  0  0
  190.8540  177.6170  143.8560 O   0  0  0  0  0  1  0  0  0  0  0  0
  188.7820  177.8720  142.6390 C   0  0  0  0  0  0  0  0  0  0  0  0
  188.3780  176.7410  143.0270 O   0  0  0  0  0  0  0  0  0  0  0  0
  190.0580  178.3560  143.0490 N   0  0  0  0  0  2  0  0  0  0  0  0
  1  4  2  0  0  0  0
  1  3  1  0  0  0  0
  3 22  2  0  0  0  0
  4 21  1  0  0  0  0
  5 20  2  0  0  0  0
  5  8  1  0  0  0  0
  6 19  1  1  0  0  0
  6 14  1  0  0  0  0
  8 17  2  0  0  0  0
  9 17  1  1  0  0  0
  9  7  1  0  0  0  0
  9  4  1  0  0  0  0
 10 13  1  6  0  0  0
 10  8  1  0  0  0  0
 10 23  1  0  0  0  0
 11 14  1  0  0  0  0
 11 25  1  1  0  0  0
 12  2  2  0  0  0  0
 16 11  1  0  0  0  0
 17  2  1  0  0  0  0
 18 16  1  1  0  0  0
 18  6  1  0  0  0  0
 20 12  1  0  0  0  0
 21 19  1  0  0  0  0
 21 15  2  0  0  0  0
 22 15  1  0  0  0  0
 23  7  1  1  0  0  0
 23 18  1  0  0  0  0
 25 26  2  0  0  0  0
 25 27  1  0  0  0  0
 27 24  1  0  0  0  0
M  END
>  <MODEL>
9

>  <REMARK>
 VINA RESULT:      -5.2      3.727      6.979
  Name = 
  1 active torsions:
  status: ('A' for Active; 'I' for Inactive)
    1  A    between atoms: C_9  and  C_13
                            x       y       z     vdW  Elec       q    Type
                         _______ _______ _______ _____ _____    ______ ____

>  <TORSDO>
F 1

$$$$
