=
 OpenBabel11042411213D

 25 28  0  0  1  0  0  0  0  0999 V2000
  187.5190  178.2340  143.0290 C   0  0  1  0  0  3  0  0  0  0  0  0
  187.8050  178.1290  141.5980 N   0  0  0  0  0  2  0  0  0  0  0  0
  188.6180  176.1810  137.8980 C   0  0  0  0  0  3  0  0  0  0  0  0
  190.9540  176.1800  138.6540 C   0  0  0  0  0  3  0  0  0  0  0  0
  191.2780  177.3660  140.8520 C   0  0  0  0  0  2  0  0  0  0  0  0
  190.7060  177.4440  139.4330 C   0  0  2  0  0  3  0  0  0  0  0  0
  189.0880  177.8410  141.0260 C   0  0  0  0  0  0  0  0  0  0  0  0
  190.1590  177.7000  141.7270 N   0  0  0  0  0  0  0  0  0  0  0  0
  189.2810  177.6680  139.6380 N   0  0  0  0  0  0  0  0  0  0  0  0
  188.2820  177.1460  138.7550 C   0  0  0  0  0  3  0  0  0  0  0  0
  189.9880  175.6290  137.9090 C   0  0  0  0  0  3  0  0  0  0  0  0
  185.5510  178.6260  144.5770 C   0  0  0  0  0  3  0  0  0  0  0  0
  186.0520  178.4130  143.2840 C   0  0  0  0  0  0  0  0  0  0  0  0
  183.2950  178.6900  143.7020 C   0  0  0  0  0  0  0  0  0  0  0  0
  185.1650  178.3310  142.2060 C   0  0  0  0  0  3  0  0  0  0  0  0
  183.7890  178.4700  142.4130 C   0  0  0  0  0  3  0  0  0  0  0  0
  181.8330  178.8380  143.9210 C   0  0  0  0  0  1  0  0  0  0  0  0
  184.1750  178.7670  144.7840 C   0  0  0  0  0  3  0  0  0  0  0  0
  188.1190  177.0770  143.8270 C   0  0  0  0  0  2  0  0  0  0  0  0
  188.8680  177.5830  145.0490 C   0  0  2  0  0  3  0  0  0  0  0  0
  190.2820  177.1190  144.9800 C   0  0  0  0  0  0  0  0  0  0  0  0
  191.1830  176.1960  144.6000 N   0  0  0  0  0  0  0  0  0  0  0  0
  191.6250  177.3370  145.2310 N   0  0  0  0  0  2  0  0  0  0  0  0
  188.8220  177.7160  147.5410 C   0  0  0  0  0  1  0  0  0  0  0  0
  188.2050  177.0650  146.3160 C   0  0  0  0  0  2  0  0  0  0  0  0
  1 13  1  0  0  0  0
  1 19  1  1  0  0  0
  2  1  1  0  0  0  0
  3 11  1  0  0  0  0
  3 10  2  0  0  0  0
  5  8  1  0  0  0  0
  6  4  1  1  0  0  0
  6  9  1  0  0  0  0
  6  5  1  0  0  0  0
  7  2  1  0  0  0  0
  7  8  2  0  0  0  0
  9  7  1  0  0  0  0
 10  9  1  0  0  0  0
 11  4  2  0  0  0  0
 12 18  1  0  0  0  0
 13 12  2  0  0  0  0
 14 17  1  0  0  0  0
 14 18  2  0  0  0  0
 15 16  2  0  0  0  0
 15 13  1  0  0  0  0
 16 14  1  0  0  0  0
 20 19  1  6  0  0  0
 20 25  1  0  0  0  0
 21 20  1  0  0  0  0
 21 23  1  0  0  0  0
 22 21  2  0  0  0  0
 22 23  1  0  0  0  0
 25 24  1  0  0  0  0
M  END
>  <MODEL>
1

>  <REMARK>
 VINA RESULT:      -7.9      0.000      0.000
  Name = 
  6 active torsions:
  status: ('A' for Active; 'I' for Inactive)
    1  A    between atoms: C_1  and  C_22
    2  A    between atoms: N_2  and  C_25
    3  A    between atoms: C_9  and  C_25
    4  A    between atoms: C_22  and  C_23
    5  A    between atoms: C_22  and  C_24
    6  A    between atoms: C_23  and  C_25
                            x       y       z     vdW  Elec       q    Type
                         _______ _______ _______ _____ _____    ______ ____

>  <TORSDO>
F 6

$$$$
=
 OpenBabel11042411213D

 25 28  0  0  1  0  0  0  0  0999 V2000
  186.1510  177.9660  143.2120 C   0  0  1  0  0  3  0  0  0  0  0  0
  187.1960  178.3690  142.2710 N   0  0  0  0  0  2  0  0  0  0  0  0
  189.4250  178.3340  138.6420 C   0  0  0  0  0  3  0  0  0  0  0  0
  190.6720  176.4860  139.6720 C   0  0  0  0  0  3  0  0  0  0  0  0
  189.9450  176.0060  142.0360 C   0  0  0  0  0  2  0  0  0  0  0  0
  190.4130  177.0680  141.0360 C   0  0  2  0  0  3  0  0  0  0  0  0
  188.3900  177.6280  141.9870 C   0  0  0  0  0  0  0  0  0  0  0  0
  188.7010  176.5320  142.5880 N   0  0  0  0  0  0  0  0  0  0  0  0
  189.3190  178.0300  141.0030 N   0  0  0  0  0  0  0  0  0  0  0  0
  188.9620  178.7530  139.8200 C   0  0  0  0  0  3  0  0  0  0  0  0
  190.2460  177.1080  138.5660 C   0  0  0  0  0  3  0  0  0  0  0  0
  187.8760  177.4250  144.9880 C   0  0  0  0  0  3  0  0  0  0  0  0
  186.6450  177.9940  144.6280 C   0  0  0  0  0  0  0  0  0  0  0  0
  187.4910  178.0340  147.2990 C   0  0  0  0  0  0  0  0  0  0  0  0
  185.8390  178.5730  145.6130 C   0  0  0  0  0  3  0  0  0  0  0  0
  186.2600  178.5950  146.9460 C   0  0  0  0  0  3  0  0  0  0  0  0
  187.9380  178.0570  148.7160 C   0  0  0  0  0  1  0  0  0  0  0  0
  188.2980  177.4470  146.3210 C   0  0  0  0  0  3  0  0  0  0  0  0
  184.8600  178.7630  143.0220 C   0  0  0  0  0  2  0  0  0  0  0  0
  184.0420  178.2130  141.8650 C   0  0  2  0  0  3  0  0  0  0  0  0
  184.5410  178.8040  140.5920 C   0  0  0  0  0  0  0  0  0  0  0  0
  184.5500  179.8180  139.7090 N   0  0  0  0  0  0  0  0  0  0  0  0
  185.3520  178.7240  139.4750 N   0  0  0  0  0  2  0  0  0  0  0  0
  182.3130  178.9760  143.4960 C   0  0  0  0  0  1  0  0  0  0  0  0
  182.5720  178.5510  142.0620 C   0  0  0  0  0  2  0  0  0  0  0  0
  1 19  1  1  0  0  0
  1 13  1  0  0  0  0
  2  1  1  0  0  0  0
  3 10  2  0  0  0  0
  5  8  1  0  0  0  0
  6  4  1  6  0  0  0
  6  5  1  0  0  0  0
  7  2  1  0  0  0  0
  7  8  2  0  0  0  0
  9  6  1  0  0  0  0
  9  7  1  0  0  0  0
 10  9  1  0  0  0  0
 11  3  1  0  0  0  0
 11  4  2  0  0  0  0
 12 18  1  0  0  0  0
 13 12  2  0  0  0  0
 13 15  1  0  0  0  0
 14 17  1  0  0  0  0
 15 16  2  0  0  0  0
 16 14  1  0  0  0  0
 18 14  2  0  0  0  0
 20 25  1  1  0  0  0
 20 19  1  0  0  0  0
 21 20  1  0  0  0  0
 22 21  2  0  0  0  0
 23 22  1  0  0  0  0
 23 21  1  0  0  0  0
 25 24  1  0  0  0  0
M  END
>  <MODEL>
2

>  <REMARK>
 VINA RESULT:      -7.8      1.672      4.750
  Name = 
  6 active torsions:
  status: ('A' for Active; 'I' for Inactive)
    1  A    between atoms: C_1  and  C_22
    2  A    between atoms: N_2  and  C_25
    3  A    between atoms: C_9  and  C_25
    4  A    between atoms: C_22  and  C_23
    5  A    between atoms: C_22  and  C_24
    6  A    between atoms: C_23  and  C_25
                            x       y       z     vdW  Elec       q    Type
                         _______ _______ _______ _____ _____    ______ ____

>  <TORSDO>
F 6

$$$$
=
 OpenBabel11042411213D

 25 28  0  0  1  0  0  0  0  0999 V2000
  187.9650  177.9160  143.0700 C   0  0  1  0  0  3  0  0  0  0  0  0
  186.6430  178.2520  142.5430 N   0  0  0  0  0  2  0  0  0  0  0  0
  182.9020  177.5690  140.6220 C   0  0  0  0  0  3  0  0  0  0  0  0
  184.1420  177.9520  138.5370 C   0  0  0  0  0  3  0  0  0  0  0  0
  186.5490  178.5840  138.9260 C   0  0  0  0  0  2  0  0  0  0  0  0
  185.0840  178.8750  139.2640 C   0  0  2  0  0  3  0  0  0  0  0  0
  186.3240  178.4440  141.1580 C   0  0  0  0  0  0  0  0  0  0  0  0
  187.2030  178.3980  140.2180 N   0  0  0  0  0  0  0  0  0  0  0  0
  185.0070  178.6820  140.7060 N   0  0  0  0  0  0  0  0  0  0  0  0
  183.8380  178.1710  141.3560 C   0  0  0  0  0  3  0  0  0  0  0  0
  183.1070  177.3880  139.1700 C   0  0  0  0  0  3  0  0  0  0  0  0
  189.1690  177.9060  145.3000 C   0  0  0  0  0  3  0  0  0  0  0  0
  187.9710  177.9030  144.5690 C   0  0  0  0  0  0  0  0  0  0  0  0
  187.9180  177.8250  147.3710 C   0  0  0  0  0  0  0  0  0  0  0  0
  186.7500  177.8520  145.2490 C   0  0  0  0  0  3  0  0  0  0  0  0
  186.7220  177.8150  146.6470 C   0  0  0  0  0  3  0  0  0  0  0  0
  187.8870  177.7860  148.8550 C   0  0  0  0  0  1  0  0  0  0  0  0
  189.1420  177.8700  146.6980 C   0  0  0  0  0  3  0  0  0  0  0  0
  188.5200  176.6260  142.4660 C   0  0  0  0  0  2  0  0  0  0  0  0
  190.0310  176.6990  142.3110 C   0  0  2  0  0  3  0  0  0  0  0  0
  190.3680  176.7720  140.8620 C   0  0  0  0  0  0  0  0  0  0  0  0
  190.4800  176.1700  139.6650 N   0  0  0  0  0  0  0  0  0  0  0  0
  190.7630  177.5140  139.7630 N   0  0  0  0  0  2  0  0  0  0  0  0
  191.7140  175.8900  143.9670 C   0  0  0  0  0  1  0  0  0  0  0  0
  190.6770  175.4740  142.9400 C   0  0  0  0  0  2  0  0  0  0  0  0
  1 19  1  6  0  0  0
  1 13  1  0  0  0  0
  2  1  1  0  0  0  0
  3 10  2  0  0  0  0
  4 11  2  0  0  0  0
  5  6  1  0  0  0  0
  5  8  1  0  0  0  0
  6  4  1  6  0  0  0
  6  9  1  0  0  0  0
  7  2  1  0  0  0  0
  8  7  2  0  0  0  0
  9  7  1  0  0  0  0
  9 10  1  0  0  0  0
 11  3  1  0  0  0  0
 12 18  1  0  0  0  0
 13 15  1  0  0  0  0
 13 12  2  0  0  0  0
 14 17  1  0  0  0  0
 15 16  2  0  0  0  0
 16 14  1  0  0  0  0
 18 14  2  0  0  0  0
 20 19  1  6  0  0  0
 20 25  1  0  0  0  0
 21 20  1  0  0  0  0
 22 23  1  0  0  0  0
 22 21  2  0  0  0  0
 23 21  1  0  0  0  0
 25 24  1  0  0  0  0
M  END
>  <MODEL>
3

>  <REMARK>
 VINA RESULT:      -7.7      2.400      4.856
  Name = 
  6 active torsions:
  status: ('A' for Active; 'I' for Inactive)
    1  A    between atoms: C_1  and  C_22
    2  A    between atoms: N_2  and  C_25
    3  A    between atoms: C_9  and  C_25
    4  A    between atoms: C_22  and  C_23
    5  A    between atoms: C_22  and  C_24
    6  A    between atoms: C_23  and  C_25
                            x       y       z     vdW  Elec       q    Type
                         _______ _______ _______ _____ _____    ______ ____

>  <TORSDO>
F 6

$$$$
=
 OpenBabel11042411213D

 25 28  0  0  1  0  0  0  0  0999 V2000
  188.0990  177.8910  142.6730 C   0  0  1  0  0  3  0  0  0  0  0  0
  188.2050  177.7260  141.2230 N   0  0  0  0  0  2  0  0  0  0  0  0
  188.6780  175.6350  137.5430 C   0  0  0  0  0  3  0  0  0  0  0  0
  191.0860  175.8360  137.9810 C   0  0  0  0  0  3  0  0  0  0  0  0
  191.6000  177.1620  140.0590 C   0  0  0  0  0  2  0  0  0  0  0  0
  190.8460  177.1210  138.7270 C   0  0  2  0  0  3  0  0  0  0  0  0
  189.4220  177.4950  140.5000 C   0  0  0  0  0  0  0  0  0  0  0  0
  190.5820  177.4670  141.0590 N   0  0  0  0  0  0  0  0  0  0  0  0
  189.4460  177.2590  139.1080 N   0  0  0  0  0  0  0  0  0  0  0  0
  188.3840  176.6210  138.3910 C   0  0  0  0  0  3  0  0  0  0  0  0
  190.0760  175.1800  137.3970 C   0  0  0  0  0  3  0  0  0  0  0  0
  186.3090  178.1780  144.4440 C   0  0  0  0  0  3  0  0  0  0  0  0
  186.6850  178.1620  143.0930 C   0  0  0  0  0  0  0  0  0  0  0  0
  184.0160  178.6240  143.8110 C   0  0  0  0  0  0  0  0  0  0  0  0
  185.7160  178.3700  142.1050 C   0  0  0  0  0  3  0  0  0  0  0  0
  184.3840  178.6030  142.4630 C   0  0  0  0  0  3  0  0  0  0  0  0
  182.6010  178.8720  144.1900 C   0  0  0  0  0  1  0  0  0  0  0  0
  184.9770  178.4110  144.8020 C   0  0  0  0  0  3  0  0  0  0  0  0
  188.7280  176.7260  143.4370 C   0  0  0  0  0  2  0  0  0  0  0  0
  189.8570  177.2050  144.3350 C   0  0  2  0  0  3  0  0  0  0  0  0
  189.4660  177.0000  145.7590 C   0  0  0  0  0  0  0  0  0  0  0  0
  188.5250  177.0240  146.7180 N   0  0  0  0  0  0  0  0  0  0  0  0
  189.7980  176.6170  147.0450 N   0  0  0  0  0  2  0  0  0  0  0  0
  191.6360  178.9320  144.0510 C   0  0  0  0  0  1  0  0  0  0  0  0
  190.1400  178.6760  144.0740 C   0  0  0  0  0  2  0  0  0  0  0  0
  1 13  1  0  0  0  0
  1 19  1  1  0  0  0
  2  1  1  0  0  0  0
  3 10  2  0  0  0  0
  5  8  1  0  0  0  0
  6  4  1  1  0  0  0
  6  9  1  0  0  0  0
  6  5  1  0  0  0  0
  7  8  2  0  0  0  0
  7  2  1  0  0  0  0
  9  7  1  0  0  0  0
 10  9  1  0  0  0  0
 11  3  1  0  0  0  0
 11  4  2  0  0  0  0
 12 18  1  0  0  0  0
 13 12  2  0  0  0  0
 14 17  1  0  0  0  0
 14 18  2  0  0  0  0
 15 16  2  0  0  0  0
 15 13  1  0  0  0  0
 16 14  1  0  0  0  0
 20 19  1  6  0  0  0
 20 21  1  0  0  0  0
 21 22  2  0  0  0  0
 21 23  1  0  0  0  0
 22 23  1  0  0  0  0
 24 25  1  0  0  0  0
 25 20  1  0  0  0  0
M  END
>  <MODEL>
4

>  <REMARK>
 VINA RESULT:      -7.7      1.271      1.623
  Name = 
  6 active torsions:
  status: ('A' for Active; 'I' for Inactive)
    1  A    between atoms: C_1  and  C_22
    2  A    between atoms: N_2  and  C_25
    3  A    between atoms: C_9  and  C_25
    4  A    between atoms: C_22  and  C_23
    5  A    between atoms: C_22  and  C_24
    6  A    between atoms: C_23  and  C_25
                            x       y       z     vdW  Elec       q    Type
                         _______ _______ _______ _____ _____    ______ ____

>  <TORSDO>
F 6

$$$$
=
 OpenBabel11042411213D

 25 28  0  0  1  0  0  0  0  0999 V2000
  188.4400  177.8010  141.4890 C   0  0  1  0  0  3  0  0  0  0  0  0
  187.9340  177.3300  140.2000 N   0  0  0  0  0  2  0  0  0  0  0  0
  188.0750  175.4080  136.4010 C   0  0  0  0  0  3  0  0  0  0  0  0
  188.9730  177.5450  135.5890 C   0  0  0  0  0  3  0  0  0  0  0  0
  189.0530  179.3200  137.3740 C   0  0  0  0  0  2  0  0  0  0  0  0
  188.1950  178.2780  136.6500 C   0  0  2  0  0  3  0  0  0  0  0  0
  188.2150  177.9290  138.9280 C   0  0  0  0  0  0  0  0  0  0  0  0
  188.9110  179.0040  138.7910 N   0  0  0  0  0  0  0  0  0  0  0  0
  187.7650  177.3750  137.7090 N   0  0  0  0  0  0  0  0  0  0  0  0
  187.5680  175.9730  137.4980 C   0  0  0  0  0  3  0  0  0  0  0  0
  188.8720  176.2170  135.4560 C   0  0  0  0  0  3  0  0  0  0  0  0
  186.1270  178.6380  142.1000 C   0  0  0  0  0  3  0  0  0  0  0  0
  187.3280  178.0130  142.4720 C   0  0  0  0  0  0  0  0  0  0  0  0
  185.3050  178.4280  144.3670 C   0  0  0  0  0  0  0  0  0  0  0  0
  187.5110  177.6070  143.7970 C   0  0  0  0  0  3  0  0  0  0  0  0
  186.5020  177.8120  144.7440 C   0  0  0  0  0  3  0  0  0  0  0  0
  184.2330  178.6450  145.3730 C   0  0  0  0  0  1  0  0  0  0  0  0
  185.1180  178.8420  143.0460 C   0  0  0  0  0  3  0  0  0  0  0  0
  189.5490  176.9040  142.0390 C   0  0  0  0  0  2  0  0  0  0  0  0
  190.8650  177.6580  142.1410 C   0  0  2  0  0  3  0  0  0  0  0  0
  191.6520  177.4360  140.8950 C   0  0  0  0  0  0  0  0  0  0  0  0
  191.7040  177.0370  139.6130 N   0  0  0  0  0  0  0  0  0  0  0  0
  192.8490  177.5170  140.2080 N   0  0  0  0  0  2  0  0  0  0  0  0
  191.1430  177.8490  144.6140 C   0  0  0  0  0  1  0  0  0  0  0  0
  191.6480  177.1740  143.3520 C   0  0  0  0  0  2  0  0  0  0  0  0
  1 19  1  1  0  0  0
  1 13  1  0  0  0  0
  2  1  1  0  0  0  0
  3 10  2  0  0  0  0
  5  8  1  0  0  0  0
  6  4  1  6  0  0  0
  6  5  1  0  0  0  0
  6  9  1  0  0  0  0
  7  2  1  0  0  0  0
  8  7  2  0  0  0  0
  9  7  1  0  0  0  0
 10  9  1  0  0  0  0
 11  4  2  0  0  0  0
 11  3  1  0  0  0  0
 12 13  2  0  0  0  0
 12 18  1  0  0  0  0
 13 15  1  0  0  0  0
 14 16  1  0  0  0  0
 14 17  1  0  0  0  0
 15 16  2  0  0  0  0
 18 14  2  0  0  0  0
 20 19  1  6  0  0  0
 20 25  1  0  0  0  0
 21 20  1  0  0  0  0
 22 23  1  0  0  0  0
 22 21  2  0  0  0  0
 23 21  1  0  0  0  0
 25 24  1  0  0  0  0
M  END
>  <MODEL>
5

>  <REMARK>
 VINA RESULT:      -7.7      2.218      3.255
  Name = 
  6 active torsions:
  status: ('A' for Active; 'I' for Inactive)
    1  A    between atoms: C_1  and  C_22
    2  A    between atoms: N_2  and  C_25
    3  A    between atoms: C_9  and  C_25
    4  A    between atoms: C_22  and  C_23
    5  A    between atoms: C_22  and  C_24
    6  A    between atoms: C_23  and  C_25
                            x       y       z     vdW  Elec       q    Type
                         _______ _______ _______ _____ _____    ______ ____

>  <TORSDO>
F 6

$$$$
=
 OpenBabel11042411213D

 25 28  0  0  1  0  0  0  0  0999 V2000
  186.4750  178.6130  142.7920 C   0  0  1  0  0  3  0  0  0  0  0  0
  186.7920  178.5920  141.3640 N   0  0  0  0  0  2  0  0  0  0  0  0
  187.5240  176.8680  137.5380 C   0  0  0  0  0  3  0  0  0  0  0  0
  189.8280  176.5840  138.3420 C   0  0  0  0  0  3  0  0  0  0  0  0
  190.1980  177.5610  140.6340 C   0  0  0  0  0  2  0  0  0  0  0  0
  189.6770  177.8020  139.2140 C   0  0  2  0  0  3  0  0  0  0  0  0
  188.0580  178.2280  140.7980 C   0  0  0  0  0  0  0  0  0  0  0  0
  189.0900  177.9310  141.5090 N   0  0  0  0  0  0  0  0  0  0  0  0
  188.2730  178.1450  139.4050 N   0  0  0  0  0  0  0  0  0  0  0  0
  187.2560  177.7910  138.4620 C   0  0  0  0  0  3  0  0  0  0  0  0
  188.8370  176.1880  137.5350 C   0  0  0  0  0  3  0  0  0  0  0  0
  184.4640  178.8630  144.3130 C   0  0  0  0  0  3  0  0  0  0  0  0
  184.9970  178.7010  143.0250 C   0  0  0  0  0  0  0  0  0  0  0  0
  182.2210  178.8080  143.4030 C   0  0  0  0  0  0  0  0  0  0  0  0
  184.1330  178.5840  141.9320 C   0  0  0  0  0  3  0  0  0  0  0  0
  182.7470  178.6390  142.1180 C   0  0  0  0  0  3  0  0  0  0  0  0
  180.7500  178.8660  143.6010 C   0  0  0  0  0  1  0  0  0  0  0  0
  183.0790  178.9190  144.5000 C   0  0  0  0  0  3  0  0  0  0  0  0
  187.1240  177.4530  143.5470 C   0  0  0  0  0  2  0  0  0  0  0  0
  187.7420  177.9250  144.8520 C   0  0  2  0  0  3  0  0  0  0  0  0
  189.2070  177.6490  144.8250 C   0  0  0  0  0  0  0  0  0  0  0  0
  190.2200  176.7660  144.8060 N   0  0  0  0  0  0  0  0  0  0  0  0
  190.5080  178.1110  144.7680 N   0  0  0  0  0  2  0  0  0  0  0  0
  187.3590  177.9550  147.3180 C   0  0  0  0  0  1  0  0  0  0  0  0
  187.0930  177.2070  146.0250 C   0  0  0  0  0  2  0  0  0  0  0  0
  1 13  1  0  0  0  0
  1 19  1  1  0  0  0
  2  1  1  0  0  0  0
  3 10  2  0  0  0  0
  5  8  1  0  0  0  0
  6  4  1  6  0  0  0
  6  9  1  0  0  0  0
  6  5  1  0  0  0  0
  7  2  1  0  0  0  0
  7  8  2  0  0  0  0
  9  7  1  0  0  0  0
 10  9  1  0  0  0  0
 11  3  1  0  0  0  0
 11  4  2  0  0  0  0
 12 18  1  0  0  0  0
 13 12  2  0  0  0  0
 14 17  1  0  0  0  0
 14 18  2  0  0  0  0
 15 16  2  0  0  0  0
 15 13  1  0  0  0  0
 16 14  1  0  0  0  0
 20 19  1  6  0  0  0
 20 25  1  0  0  0  0
 21 20  1  0  0  0  0
 22 21  2  0  0  0  0
 23 22  1  0  0  0  0
 23 21  1  0  0  0  0
 25 24  1  0  0  0  0
M  END
>  <MODEL>
6

>  <REMARK>
 VINA RESULT:      -7.7      1.047      1.190
  Name = 
  6 active torsions:
  status: ('A' for Active; 'I' for Inactive)
    1  A    between atoms: C_1  and  C_22
    2  A    between atoms: N_2  and  C_25
    3  A    between atoms: C_9  and  C_25
    4  A    between atoms: C_22  and  C_23
    5  A    between atoms: C_22  and  C_24
    6  A    between atoms: C_23  and  C_25
                            x       y       z     vdW  Elec       q    Type
                         _______ _______ _______ _____ _____    ______ ____

>  <TORSDO>
F 6

$$$$
=
 OpenBabel11042411213D

 25 28  0  0  1  0  0  0  0  0999 V2000
  189.7000  177.3540  141.8020 C   0  0  1  0  0  3  0  0  0  0  0  0
  189.7430  176.9030  140.4110 N   0  0  0  0  0  2  0  0  0  0  0  0
  190.5040  174.2320  137.1810 C   0  0  0  0  0  3  0  0  0  0  0  0
  192.7910  175.1240  137.2590 C   0  0  0  0  0  3  0  0  0  0  0  0
  193.0710  176.9660  138.9540 C   0  0  0  0  0  2  0  0  0  0  0  0
  192.2630  176.4410  137.7640 C   0  0  2  0  0  3  0  0  0  0  0  0
  190.9220  176.8300  139.5970 C   0  0  0  0  0  0  0  0  0  0  0  0
  192.0820  177.2190  139.9970 N   0  0  0  0  0  0  0  0  0  0  0  0
  190.9100  176.3030  138.2870 N   0  0  0  0  0  0  0  0  0  0  0  0
  190.0140  175.2750  137.8500 C   0  0  0  0  0  3  0  0  0  0  0  0
  191.9600  174.1220  136.9500 C   0  0  0  0  0  3  0  0  0  0  0  0
  187.4430  178.4420  141.4210 C   0  0  0  0  0  3  0  0  0  0  0  0
  188.3010  177.6810  142.2300 C   0  0  0  0  0  0  0  0  0  0  0  0
  185.7130  178.3030  143.1080 C   0  0  0  0  0  0  0  0  0  0  0  0
  187.8580  177.2430  143.4820 C   0  0  0  0  0  3  0  0  0  0  0  0
  186.5660  177.5510  143.9210 C   0  0  0  0  0  3  0  0  0  0  0  0
  184.3400  178.6300  143.5740 C   0  0  0  0  0  1  0  0  0  0  0  0
  186.1510  178.7490  141.8580 C   0  0  0  0  0  3  0  0  0  0  0  0
  190.3940  176.3770  142.7510 C   0  0  0  0  0  2  0  0  0  0  0  0
  191.5340  177.0520  143.4950 C   0  0  2  0  0  3  0  0  0  0  0  0
  191.3070  176.9120  144.9620 C   0  0  0  0  0  0  0  0  0  0  0  0
  190.4600  176.8400  146.0020 N   0  0  0  0  0  0  0  0  0  0  0  0
  191.8120  176.7330  146.2370 N   0  0  0  0  0  2  0  0  0  0  0  0
  191.2700  179.3980  144.3040 C   0  0  0  0  0  1  0  0  0  0  0  0
  191.6070  178.5220  143.1120 C   0  0  0  0  0  2  0  0  0  0  0  0
  1 13  1  0  0  0  0
  1 19  1  1  0  0  0
  2  1  1  0  0  0  0
  3 10  2  0  0  0  0
  5  8  1  0  0  0  0
  6  4  1  1  0  0  0
  6  9  1  0  0  0  0
  6  5  1  0  0  0  0
  7  8  2  0  0  0  0
  7  2  1  0  0  0  0
  9  7  1  0  0  0  0
 10  9  1  0  0  0  0
 11  3  1  0  0  0  0
 11  4  2  0  0  0  0
 12 18  2  0  0  0  0
 12 13  1  0  0  0  0
 13 15  2  0  0  0  0
 14 17  1  0  0  0  0
 14 16  2  0  0  0  0
 15 16  1  0  0  0  0
 18 14  1  0  0  0  0
 20 19  1  6  0  0  0
 20 21  1  0  0  0  0
 21 22  2  0  0  0  0
 21 23  1  0  0  0  0
 22 23  1  0  0  0  0
 25 20  1  0  0  0  0
 25 24  1  0  0  0  0
M  END
>  <MODEL>
7

>  <REMARK>
 VINA RESULT:      -7.5      1.742      2.878
  Name = 
  6 active torsions:
  status: ('A' for Active; 'I' for Inactive)
    1  A    between atoms: C_1  and  C_22
    2  A    between atoms: N_2  and  C_25
    3  A    between atoms: C_9  and  C_25
    4  A    between atoms: C_22  and  C_23
    5  A    between atoms: C_22  and  C_24
    6  A    between atoms: C_23  and  C_25
                            x       y       z     vdW  Elec       q    Type
                         _______ _______ _______ _____ _____    ______ ____

>  <TORSDO>
F 6

$$$$
=
 OpenBabel11042411213D

 25 28  0  0  1  0  0  0  0  0999 V2000
  189.0610  177.5070  142.2720 C   0  0  1  0  0  3  0  0  0  0  0  0
  188.7680  177.3920  140.8430 N   0  0  0  0  0  2  0  0  0  0  0  0
  188.1310  175.4200  137.1220 C   0  0  0  0  0  3  0  0  0  0  0  0
  190.5760  175.4980  136.9020 C   0  0  0  0  0  3  0  0  0  0  0  0
  191.6950  176.7230  138.7980 C   0  0  0  0  0  2  0  0  0  0  0  0
  190.6110  176.7650  137.7160 C   0  0  2  0  0  3  0  0  0  0  0  0
  189.7330  177.1350  139.8150 C   0  0  0  0  0  0  0  0  0  0  0  0
  190.9970  177.0350  140.0410 N   0  0  0  0  0  0  0  0  0  0  0  0
  189.3730  176.9490  138.4620 N   0  0  0  0  0  0  0  0  0  0  0  0
  188.1260  176.3850  138.0410 C   0  0  0  0  0  3  0  0  0  0  0  0
  189.4140  174.9090  136.5950 C   0  0  0  0  0  3  0  0  0  0  0  0
  187.7880  177.6580  144.4580 C   0  0  0  0  0  3  0  0  0  0  0  0
  187.8240  177.8090  143.0640 C   0  0  0  0  0  0  0  0  0  0  0  0
  185.4660  178.3400  144.4820 C   0  0  0  0  0  0  0  0  0  0  0  0
  186.6710  178.2180  142.3850 C   0  0  0  0  0  3  0  0  0  0  0  0
  185.4940  178.4850  143.0910 C   0  0  0  0  0  3  0  0  0  0  0  0
  184.2150  178.6240  145.2320 C   0  0  0  0  0  1  0  0  0  0  0  0
  186.6120  177.9260  145.1650 C   0  0  0  0  0  3  0  0  0  0  0  0
  189.8230  176.2950  142.8070 C   0  0  0  0  0  2  0  0  0  0  0  0
  191.2070  176.6900  143.2970 C   0  0  2  0  0  3  0  0  0  0  0  0
  191.2680  176.5140  144.7760 C   0  0  0  0  0  0  0  0  0  0  0  0
  190.6970  176.6520  145.9840 N   0  0  0  0  0  0  0  0  0  0  0  0
  191.9380  176.0640  145.8980 N   0  0  0  0  0  2  0  0  0  0  0  0
  191.5440  179.0030  144.1720 C   0  0  0  0  0  1  0  0  0  0  0  0
  191.4960  178.1360  142.9270 C   0  0  0  0  0  2  0  0  0  0  0  0
  1 19  1  1  0  0  0
  1 13  1  0  0  0  0
  2  1  1  0  0  0  0
  3 10  2  0  0  0  0
  5  8  1  0  0  0  0
  6  4  1  1  0  0  0
  6  9  1  0  0  0  0
  6  5  1  0  0  0  0
  7  8  2  0  0  0  0
  7  2  1  0  0  0  0
  9  7  1  0  0  0  0
 10  9  1  0  0  0  0
 11  4  2  0  0  0  0
 11  3  1  0  0  0  0
 12 18  1  0  0  0  0
 13 12  2  0  0  0  0
 14 18  2  0  0  0  0
 14 17  1  0  0  0  0
 15 13  1  0  0  0  0
 15 16  2  0  0  0  0
 16 14  1  0  0  0  0
 20 19  1  1  0  0  0
 20 21  1  0  0  0  0
 21 23  1  0  0  0  0
 21 22  2  0  0  0  0
 23 22  1  0  0  0  0
 25 20  1  0  0  0  0
 25 24  1  0  0  0  0
M  END
>  <MODEL>
8

>  <REMARK>
 VINA RESULT:      -7.3      1.483      2.275
  Name = 
  6 active torsions:
  status: ('A' for Active; 'I' for Inactive)
    1  A    between atoms: C_1  and  C_22
    2  A    between atoms: N_2  and  C_25
    3  A    between atoms: C_9  and  C_25
    4  A    between atoms: C_22  and  C_23
    5  A    between atoms: C_22  and  C_24
    6  A    between atoms: C_23  and  C_25
                            x       y       z     vdW  Elec       q    Type
                         _______ _______ _______ _____ _____    ______ ____

>  <TORSDO>
F 6

$$$$
=
 OpenBabel11042411213D

 25 28  0  0  1  0  0  0  0  0999 V2000
  185.0690  178.8240  142.4850 C   0  0  1  0  0  3  0  0  0  0  0  0
  184.6230  179.2930  141.1730 N   0  0  0  0  0  2  0  0  0  0  0  0
  181.9130  180.8760  138.2920 C   0  0  0  0  0  3  0  0  0  0  0  0
  181.1650  178.5510  138.0300 C   0  0  0  0  0  3  0  0  0  0  0  0
  182.4990  176.9260  139.4160 C   0  0  0  0  0  2  0  0  0  0  0  0
  182.5430  178.0640  138.3920 C   0  0  2  0  0  3  0  0  0  0  0  0
  183.7820  178.5620  140.2700 C   0  0  0  0  0  0  0  0  0  0  0  0
  183.3710  177.3630  140.5010 N   0  0  0  0  0  0  0  0  0  0  0  0
  183.3160  179.1070  139.0530 N   0  0  0  0  0  0  0  0  0  0  0  0
  183.0640  180.5010  138.8510 C   0  0  0  0  0  3  0  0  0  0  0  0
  180.8980  179.8600  137.9430 C   0  0  0  0  0  3  0  0  0  0  0  0
  187.3230  178.5410  141.3610 C   0  0  0  0  0  3  0  0  0  0  0  0
  186.4520  178.2470  142.4210 C   0  0  0  0  0  0  0  0  0  0  0  0
  189.0060  177.0980  142.3320 C   0  0  0  0  0  0  0  0  0  0  0  0
  186.8640  177.3690  143.4280 C   0  0  0  0  0  3  0  0  0  0  0  0
  188.1390  176.7960  143.3860 C   0  0  0  0  0  3  0  0  0  0  0  0
  190.3610  176.4890  142.2870 C   0  0  0  0  0  1  0  0  0  0  0  0
  188.5980  177.9690  141.3180 C   0  0  0  0  0  3  0  0  0  0  0  0
  184.9270  179.8980  143.5630 C   0  0  0  0  0  2  0  0  0  0  0  0
  183.8880  179.5000  144.5990 C   0  0  2  0  0  3  0  0  0  0  0  0
  184.5840  179.0100  145.8230 C   0  0  0  0  0  0  0  0  0  0  0  0
  185.6660  179.0090  146.6190 N   0  0  0  0  0  0  0  0  0  0  0  0
  184.5750  178.2510  146.9790 N   0  0  0  0  0  2  0  0  0  0  0  0
  181.6580  179.0050  143.5950 C   0  0  0  0  0  1  0  0  0  0  0  0
  182.9840  178.4140  144.0380 C   0  0  0  0  0  2  0  0  0  0  0  0
  1 19  1  1  0  0  0
  2  1  1  0  0  0  0
  3 10  2  0  0  0  0
  5  8  1  0  0  0  0
  6  4  1  1  0  0  0
  6  9  1  0  0  0  0
  6  5  1  0  0  0  0
  7  8  2  0  0  0  0
  7  2  1  0  0  0  0
  9  7  1  0  0  0  0
 10  9  1  0  0  0  0
 11  4  2  0  0  0  0
 11  3  1  0  0  0  0
 12 13  1  0  0  0  0
 13  1  1  0  0  0  0
 13 15  2  0  0  0  0
 14 16  2  0  0  0  0
 16 15  1  0  0  0  0
 17 14  1  0  0  0  0
 18 12  2  0  0  0  0
 18 14  1  0  0  0  0
 20 19  1  6  0  0  0
 20 21  1  0  0  0  0
 21 22  2  0  0  0  0
 21 23  1  0  0  0  0
 22 23  1  0  0  0  0
 24 25  1  0  0  0  0
 25 20  1  0  0  0  0
M  END
>  <MODEL>
9

>  <REMARK>
 VINA RESULT:      -7.2      3.368      6.523
  Name = 
  6 active torsions:
  status: ('A' for Active; 'I' for Inactive)
    1  A    between atoms: C_1  and  C_22
    2  A    between atoms: N_2  and  C_25
    3  A    between atoms: C_9  and  C_25
    4  A    between atoms: C_22  and  C_23
    5  A    between atoms: C_22  and  C_24
    6  A    between atoms: C_23  and  C_25
                            x       y       z     vdW  Elec       q    Type
                         _______ _______ _______ _____ _____    ______ ____

>  <TORSDO>
F 6

$$$$
