=
 OpenBabel11032420063D

 60 67  0  0  1  0  0  0  0  0999 V2000
  181.7170  177.6190  140.1950 C   0  0  0  0  0  0  0  0  0  0  0  0
  185.2980  178.6260  139.1210 C   0  0  0  0  0  2  0  0  0  0  0  0
  180.8250  177.1170  141.2800 C   0  0  2  0  0  3  0  0  0  0  0  0
  181.1780  177.2980  139.0200 C   0  0  0  0  0  0  0  0  0  0  0  0
  183.1470  178.0610  140.4070 C   0  0  0  0  0  2  0  0  0  0  0  0
  179.7620  176.4310  140.5500 N   0  0  0  0  0  0  0  0  0  0  0  0
  179.9570  176.5680  139.2860 C   0  0  0  0  0  0  0  0  0  0  0  0
  183.5950  177.3100  138.0820 C   0  0  1  0  0  3  0  0  0  0  0  0
  183.9370  175.8760  135.5910 O   0  0  0  0  0  0  0  0  0  0  0  0
  183.7990  178.4200  139.0790 C   0  0  2  0  0  3  0  0  0  0  0  0
  185.7380  178.3020  137.6950 C   0  0  0  0  0  2  0  0  0  0  0  0
  181.9340  177.5420  137.3920 S   0  0  0  0  0  0  0  0  0  0  0  0
  184.8670  176.6270  135.9870 C   0  0  0  0  0  0  0  0  0  0  0  0
  184.6710  177.4810  137.1260 N   0  0  0  0  0  0  0  0  0  0  0  0
  179.0610  178.2980  142.3260 O   0  0  0  0  0  0  0  0  0  0  0  0
  180.2590  178.2460  142.0820 C   0  0  0  0  0  0  0  0  0  0  0  0
  181.3550  179.4800  142.7630 S   0  0  0  0  0  0  0  0  0  0  0  0
  182.0860  178.3200  143.9540 C   0  0  0  0  0  2  0  0  0  0  0  0
  183.3910  178.8690  144.4860 C   0  0  1  0  0  3  0  0  0  0  0  0
  184.4890  178.5040  143.5080 C   0  0  1  0  0  3  0  0  0  0  0  0
  183.9230  179.9090  143.5270 C   0  0  0  0  0  2  0  0  0  0  0  0
  185.8180  178.4850  144.2390 C   0  0  0  0  0  2  0  0  0  0  0  0
  188.1240  177.9740  141.3020 O   0  0  0  0  0  0  0  0  0  0  0  0
  187.5470  176.8210  144.8590 N   0  0  2  0  0  0  0  0  0  0  0  0
  187.7690  177.2410  143.4700 N   0  0  0  0  0  0  0  0  0  0  0  0
  186.4570  177.0990  144.0880 C   0  0  2  0  0  3  0  0  0  0  0  0
  188.6250  177.5630  142.3790 C   0  0  0  0  0  0  0  0  0  0  0  0
  187.4350  177.3270  148.0940 C   0  0  0  0  0  3  0  0  0  0  0  0
  189.4800  177.6200  146.1640 C   0  0  0  0  0  2  0  0  0  0  0  0
  189.7040  177.8880  147.6550 C   0  0  0  0  0  2  0  0  0  0  0  0
  188.0290  177.9090  145.7170 C   0  0  2  0  0  3  0  0  0  0  0  0
  188.6740  177.2310  148.4330 N   0  0  0  0  0  0  0  0  0  0  0  0
  187.0480  178.1360  146.8890 C   0  0  0  0  0  2  0  0  0  0  0  0
  190.8600  177.2620  141.3990 C   0  0  0  0  0  1  0  0  0  0  0  0
  190.0040  177.4130  142.5220 O   0  0  0  0  0  0  0  0  0  0  0  0
  186.1910  176.5530  135.3020 C   0  0  0  0  0  2  0  0  0  0  0  0
  187.0590  175.5430  136.0190 C   0  0  0  0  0  2  0  0  0  0  0  0
  188.4960  175.9480  135.9750 C   0  0  0  0  0  0  0  0  0  0  0  0
  188.7770  177.0640  135.5710 O   0  0  0  0  0  0  0  0  0  0  0  0
  188.9560  173.6690  136.8050 C   0  0  0  0  0  1  0  0  0  0  0  0
  189.5770  175.0220  136.4860 C   0  0  1  0  0  0  0  0  0  0  0  0
  190.5370  174.8200  135.4920 O   0  0  0  0  0  1  0  0  0  0  0  0
  189.3760  176.3020  138.5310 O   0  0  0  0  0  1  0  0  0  0  0  0
  190.2720  175.5720  137.7430 C   0  0  2  0  0  3  0  0  0  0  0  0
  191.4960  176.4390  137.4310 C   0  0  0  0  0  2  0  0  0  0  0  0
  192.7610  175.8740  138.0550 C   0  0  0  0  0  2  0  0  0  0  0  0
  193.6430  176.9050  138.3810 O   0  0  0  0  0  1  0  0  0  0  0  0
  179.1200  175.9030  138.2390 C   0  0  0  0  0  2  0  0  0  0  0  0
  179.8080  172.3670  137.6570 C   0  0  0  0  0  3  0  0  0  0  0  0
  178.9310  173.3550  138.0680 C   0  0  0  0  0  3  0  0  0  0  0  0
  180.8810  174.2570  137.4200 C   0  0  0  0  0  3  0  0  0  0  0  0
  179.6250  174.5360  137.9060 C   0  0  0  0  0  0  0  0  0  0  0  0
  180.9750  172.9240  137.2670 N   0  0  0  0  0  0  0  0  0  0  0  0
  183.1100  170.3110  135.6330 C   0  0  0  0  0  3  0  0  0  0  0  0
  181.9820  171.0100  136.0860 C   0  0  0  0  0  3  0  0  0  0  0  0
  184.5500  172.0000  136.5810 C   0  0  0  0  0  0  0  0  0  0  0  0
  182.1250  172.2090  136.7890 C   0  0  0  0  0  0  0  0  0  0  0  0
  185.7860  172.4840  136.8100 F   0  0  0  0  0  0  0  0  0  0  0  0
  183.4250  172.6980  137.0350 C   0  0  0  0  0  3  0  0  0  0  0  0
  184.3910  170.8060  135.8800 C   0  0  0  0  0  3  0  0  0  0  0  0
  1  5  1  0  0  0  0
  1  3  1  0  0  0  0
  3 16  1  6  0  0  0
  4  7  1  0  0  0  0
  4  1  2  0  0  0  0
  6  3  1  0  0  0  0
  7  6  2  0  0  0  0
  8 12  1  6  0  0  0
  8 10  1  0  0  0  0
  9 13  2  0  0  0  0
 10  2  1  1  0  0  0
 10  5  1  0  0  0  0
 11  2  1  0  0  0  0
 12  4  1  0  0  0  0
 13 14  1  0  0  0  0
 14 11  1  0  0  0  0
 14  8  1  0  0  0  0
 16 15  2  0  0  0  0
 16 17  1  0  0  0  0
 17 18  1  0  0  0  0
 19 18  1  6  0  0  0
 20 21  1  0  0  0  0
 20 22  1  1  0  0  0
 20 19  1  0  0  0  0
 21 19  1  0  0  0  0
 23 27  2  0  0  0  0
 24 25  1  6  0  0  0
 24 31  1  0  0  0  0
 25 26  1  0  0  0  0
 26 22  1  1  0  0  0
 26 24  1  0  0  0  0
 27 35  1  0  0  0  0
 27 25  1  0  0  0  0
 28 32  2  0  0  0  0
 29 30  1  0  0  0  0
 30 32  1  0  0  0  0
 31 29  1  1  0  0  0
 31 33  1  0  0  0  0
 33 28  1  0  0  0  0
 34 35  1  0  0  0  0
 36 13  1  0  0  0  0
 36 37  1  0  0  0  0
 38 37  1  0  0  0  0
 38 41  1  0  0  0  0
 39 38  2  0  0  0  0
 41 40  1  1  0  0  0
 41 44  1  0  0  0  0
 42 41  1  0  0  0  0
 44 43  1  6  0  0  0
 45 44  1  0  0  0  0
 45 46  1  0  0  0  0
 46 47  1  0  0  0  0
 48  7  1  0  0  0  0
 49 50  2  0  0  0  0
 51 52  2  0  0  0  0
 52 50  1  0  0  0  0
 52 48  1  0  0  0  0
 53 51  1  0  0  0  0
 53 49  1  0  0  0  0
 54 60  2  0  0  0  0
 54 55  1  0  0  0  0
 55 57  2  0  0  0  0
 56 58  1  0  0  0  0
 56 59  2  0  0  0  0
 57 59  1  0  0  0  0
 57 53  1  0  0  0  0
 60 56  1  0  0  0  0
M  END
>  <MODEL>
1

>  <REMARK>
 VINA RESULT:      -7.1      0.000      0.000
  Name = 
  18 active torsions:
  status: ('A' for Active; 'I' for Inactive)
    1  A    between atoms: C_9  and  C_25
    2  A    between atoms: C_10  and  C_60
    3  A    between atoms: O_12  and  C_48
    4  A    between atoms: C_13  and  C_18
    5  A    between atoms: C_13  and  C_27
    6  A    between atoms: C_15  and  C_24
    7  A    between atoms: C_15  and  C_47
    8  A    between atoms: C_18  and  C_57
    9  A    between atoms: C_20  and  C_42
   10  A    between atoms: C_25  and  S_56
   11  A    between atoms: C_27  and  C_44
   12  A    between atoms: C_28  and  C_29
   13  A    between atoms: C_29  and  C_37
   14  A    between atoms: C_32  and  N_52
   15  A    between atoms: N_40  and  C_50
   16  A    between atoms: C_42  and  S_56
   17  A    between atoms: C_44  and  C_59
   18  A    between atoms: C_59  and  C_60
                            x       y       z     vdW  Elec       q    Type
                         _______ _______ _______ _____ _____    ______ ____

>  <TORSDO>
F 18

$$$$
=
 OpenBabel11032420063D

 60 67  0  0  1  0  0  0  0  0999 V2000
  182.7170  178.5010  140.7000 C   0  0  0  0  0  0  0  0  0  0  0  0
  186.2830  178.5720  139.1940 C   0  0  0  0  0  2  0  0  0  0  0  0
  181.8650  178.2730  141.9040 C   0  0  2  0  0  3  0  0  0  0  0  0
  181.9840  178.2720  139.6120 C   0  0  0  0  0  0  0  0  0  0  0  0
  184.2260  178.5940  140.7320 C   0  0  0  0  0  2  0  0  0  0  0  0
  180.5930  177.8340  141.3360 N   0  0  0  0  0  0  0  0  0  0  0  0
  180.6660  177.8690  140.0520 C   0  0  0  0  0  0  0  0  0  0  0  0
  184.2100  177.6640  138.4290 C   0  0  1  0  0  3  0  0  0  0  0  0
  183.9120  176.0910  136.0180 O   0  0  0  0  0  0  0  0  0  0  0  0
  184.7840  178.7310  139.3230 C   0  0  2  0  0  3  0  0  0  0  0  0
  186.4650  178.0940  137.7550 C   0  0  0  0  0  2  0  0  0  0  0  0
  182.5810  178.2620  137.9020 S   0  0  0  0  0  0  0  0  0  0  0  0
  185.0310  176.6110  136.2640 C   0  0  0  0  0  0  0  0  0  0  0  0
  185.1760  177.5320  137.3570 N   0  0  0  0  0  0  0  0  0  0  0  0
  180.6440  180.1810  142.5840 O   0  0  0  0  0  0  0  0  0  0  0  0
  181.6780  179.5360  142.6830 C   0  0  0  0  0  0  0  0  0  0  0  0
  182.9400  180.0580  143.8320 S   0  0  0  0  0  0  0  0  0  0  0  0
  183.0230  178.4330  144.6380 C   0  0  0  0  0  2  0  0  0  0  0  0
  184.3480  178.2670  145.3500 C   0  0  1  0  0  3  0  0  0  0  0  0
  185.3940  177.9020  144.3170 C   0  0  1  0  0  3  0  0  0  0  0  0
  185.3160  179.3170  144.8520 C   0  0  0  0  0  2  0  0  0  0  0  0
  186.5290  177.1650  145.0000 C   0  0  0  0  0  2  0  0  0  0  0  0
  188.3790  176.6210  148.2400 O   0  0  0  0  0  0  0  0  0  0  0  0
  188.8560  177.9770  144.7400 N   0  0  2  0  0  0  0  0  0  0  0  0
  188.6790  177.4770  146.1090 N   0  0  0  0  0  0  0  0  0  0  0  0
  187.6450  178.1600  145.3400 C   0  0  2  0  0  3  0  0  0  0  0  0
  189.1570  176.8090  147.2710 C   0  0  0  0  0  0  0  0  0  0  0  0
  189.0950  177.6290  141.4910 C   0  0  0  0  0  3  0  0  0  0  0  0
  190.4680  176.4550  143.6640 C   0  0  0  0  0  2  0  0  0  0  0  0
  190.8100  176.1450  142.2040 C   0  0  0  0  0  2  0  0  0  0  0  0
  188.9770  176.8040  143.8670 C   0  0  2  0  0  3  0  0  0  0  0  0
  190.2980  177.1930  141.3460 N   0  0  0  0  0  0  0  0  0  0  0  0
  188.2060  177.0400  142.5500 C   0  0  0  0  0  2  0  0  0  0  0  0
  191.5070  177.0320  146.5810 C   0  0  0  0  0  1  0  0  0  0  0  0
  190.4830  176.3790  147.3170 O   0  0  0  0  0  0  0  0  0  0  0  0
  186.2110  176.1930  135.4510 C   0  0  0  0  0  2  0  0  0  0  0  0
  187.0310  175.2050  136.2490 C   0  0  0  0  0  2  0  0  0  0  0  0
  188.4850  175.3380  135.9320 C   0  0  0  0  0  0  0  0  0  0  0  0
  188.8630  176.3280  135.3270 O   0  0  0  0  0  0  0  0  0  0  0  0
  188.7200  173.0840  136.9110 C   0  0  0  0  0  1  0  0  0  0  0  0
  189.4790  174.3040  136.4100 C   0  0  1  0  0  0  0  0  0  0  0  0
  190.2830  173.8910  135.3440 O   0  0  0  0  0  1  0  0  0  0  0  0
  189.7890  175.9270  138.1790 O   0  0  0  0  0  1  0  0  0  0  0  0
  190.3830  174.8380  137.5350 C   0  0  2  0  0  3  0  0  0  0  0  0
  191.7820  175.2360  137.0530 C   0  0  0  0  0  2  0  0  0  0  0  0
  192.2860  176.4850  137.7570 C   0  0  0  0  0  2  0  0  0  0  0  0
  193.6470  176.3660  138.0410 O   0  0  0  0  0  1  0  0  0  0  0  0
  179.5790  177.3840  139.1450 C   0  0  0  0  0  2  0  0  0  0  0  0
  179.4260  173.7410  139.2810 C   0  0  0  0  0  3  0  0  0  0  0  0
  179.1360  174.9650  139.8570 C   0  0  0  0  0  3  0  0  0  0  0  0
  180.1900  175.2500  137.8970 C   0  0  0  0  0  3  0  0  0  0  0  0
  179.6220  175.9000  138.9680 C   0  0  0  0  0  0  0  0  0  0  0  0
  180.0570  173.9280  138.1020 N   0  0  0  0  0  0  0  0  0  0  0  0
  180.1300  171.3060  135.4230 C   0  0  0  0  0  3  0  0  0  0  0  0
  179.6740  172.3290  136.2660 C   0  0  0  0  0  3  0  0  0  0  0  0
  182.2950  171.3800  136.4880 C   0  0  0  0  0  0  0  0  0  0  0  0
  180.5220  172.8880  137.2270 C   0  0  0  0  0  0  0  0  0  0  0  0
  183.5610  170.9320  136.5870 F   0  0  0  0  0  0  0  0  0  0  0  0
  181.8410  172.4010  137.3300 C   0  0  0  0  0  3  0  0  0  0  0  0
  181.4390  170.8330  135.5340 C   0  0  0  0  0  3  0  0  0  0  0  0
  1  5  1  0  0  0  0
  1  3  1  0  0  0  0
  3 16  1  6  0  0  0
  4  7  1  0  0  0  0
  4  1  2  0  0  0  0
  6  3  1  0  0  0  0
  7  6  2  0  0  0  0
  8 12  1  6  0  0  0
  8 10  1  0  0  0  0
  9 13  2  0  0  0  0
 10  2  1  1  0  0  0
 10  5  1  0  0  0  0
 11  2  1  0  0  0  0
 12  4  1  0  0  0  0
 13 14  1  0  0  0  0
 14 11  1  0  0  0  0
 14  8  1  0  0  0  0
 15 16  2  0  0  0  0
 16 17  1  0  0  0  0
 17 18  1  0  0  0  0
 19 18  1  6  0  0  0
 20 21  1  0  0  0  0
 20 22  1  1  0  0  0
 20 19  1  0  0  0  0
 21 19  1  0  0  0  0
 24 26  1  0  0  0  0
 24 25  1  1  0  0  0
 25 27  1  0  0  0  0
 26 22  1  6  0  0  0
 26 25  1  0  0  0  0
 27 35  1  0  0  0  0
 27 23  2  0  0  0  0
 28 33  1  0  0  0  0
 29 31  1  0  0  0  0
 30 29  1  0  0  0  0
 31 33  1  6  0  0  0
 31 24  1  0  0  0  0
 32 28  2  0  0  0  0
 32 30  1  0  0  0  0
 34 35  1  0  0  0  0
 36 37  1  0  0  0  0
 36 13  1  0  0  0  0
 38 37  1  0  0  0  0
 38 41  1  0  0  0  0
 39 38  2  0  0  0  0
 41 40  1  1  0  0  0
 41 44  1  0  0  0  0
 42 41  1  0  0  0  0
 44 43  1  6  0  0  0
 45 44  1  0  0  0  0
 45 46  1  0  0  0  0
 46 47  1  0  0  0  0
 48  7  1  0  0  0  0
 49 50  2  0  0  0  0
 51 53  1  0  0  0  0
 51 52  2  0  0  0  0
 52 48  1  0  0  0  0
 52 50  1  0  0  0  0
 53 49  1  0  0  0  0
 54 60  2  0  0  0  0
 54 55  1  0  0  0  0
 55 57  2  0  0  0  0
 56 58  1  0  0  0  0
 56 59  2  0  0  0  0
 57 59  1  0  0  0  0
 57 53  1  0  0  0  0
 60 56  1  0  0  0  0
M  END
>  <MODEL>
2

>  <REMARK>
 VINA RESULT:      -6.5      1.643      2.673
  Name = 
  18 active torsions:
  status: ('A' for Active; 'I' for Inactive)
    1  A    between atoms: C_9  and  C_25
    2  A    between atoms: C_10  and  C_60
    3  A    between atoms: O_12  and  C_48
    4  A    between atoms: C_13  and  C_18
    5  A    between atoms: C_13  and  C_27
    6  A    between atoms: C_15  and  C_24
    7  A    between atoms: C_15  and  C_47
    8  A    between atoms: C_18  and  C_57
    9  A    between atoms: C_20  and  C_42
   10  A    between atoms: C_25  and  S_56
   11  A    between atoms: C_27  and  C_44
   12  A    between atoms: C_28  and  C_29
   13  A    between atoms: C_29  and  C_37
   14  A    between atoms: C_32  and  N_52
   15  A    between atoms: N_40  and  C_50
   16  A    between atoms: C_42  and  S_56
   17  A    between atoms: C_44  and  C_59
   18  A    between atoms: C_59  and  C_60
                            x       y       z     vdW  Elec       q    Type
                         _______ _______ _______ _____ _____    ______ ____

>  <TORSDO>
F 18

$$$$
=
 OpenBabel11032420063D

 60 67  0  0  1  0  0  0  0  0999 V2000
  186.9390  177.7190  138.3690 C   0  0  0  0  0  0  0  0  0  0  0  0
  185.6770  176.5740  134.8920 C   0  0  0  0  0  2  0  0  0  0  0  0
  187.8920  177.4970  139.4950 C   0  0  2  0  0  3  0  0  0  0  0  0
  185.8590  178.3380  138.8420 C   0  0  0  0  0  0  0  0  0  0  0  0
  187.0280  177.0200  137.0310 C   0  0  0  0  0  2  0  0  0  0  0  0
  187.1710  178.0210  140.6520 N   0  0  0  0  0  0  0  0  0  0  0  0
  186.0480  178.5160  140.2650 C   0  0  0  0  0  0  0  0  0  0  0  0
  184.5550  177.2170  136.9010 C   0  0  1  0  0  3  0  0  0  0  0  0
  181.6870  177.1030  137.2730 O   0  0  0  0  0  0  0  0  0  0  0  0
  185.8470  177.3990  136.1490 C   0  0  2  0  0  3  0  0  0  0  0  0
  184.1820  176.6810  134.5990 C   0  0  0  0  0  2  0  0  0  0  0  0
  184.3430  178.7020  137.9200 S   0  0  0  0  0  0  0  0  0  0  0  0
  182.1580  176.8450  136.1350 C   0  0  0  0  0  0  0  0  0  0  0  0
  183.5540  177.0520  135.8660 N   0  0  0  0  0  0  0  0  0  0  0  0
  189.1610  179.3170  138.6740 O   0  0  0  0  0  0  0  0  0  0  0  0
  189.1630  178.2580  139.2870 C   0  0  0  0  0  0  0  0  0  0  0  0
  190.6790  177.6600  140.0160 S   0  0  0  0  0  0  0  0  0  0  0  0
  190.7990  176.2590  138.8670 C   0  0  0  0  0  2  0  0  0  0  0  0
  192.0290  176.3980  137.9980 C   0  0  1  0  0  3  0  0  0  0  0  0
  192.4530  175.0130  137.5560 C   0  0  1  0  0  3  0  0  0  0  0  0
  191.7080  175.9210  136.6000 C   0  0  0  0  0  2  0  0  0  0  0  0
  193.9310  175.0290  137.2220 C   0  0  0  0  0  2  0  0  0  0  0  0
  197.0230  176.7470  135.9180 O   0  0  0  0  0  0  0  0  0  0  0  0
  194.5860  173.9780  135.0750 N   0  0  2  0  0  0  0  0  0  0  0  0
  195.5260  175.0660  135.3770 N   0  0  0  0  0  0  0  0  0  0  0  0
  194.1040  175.0910  135.6990 C   0  0  2  0  0  3  0  0  0  0  0  0
  196.8320  175.6300  135.3750 C   0  0  0  0  0  0  0  0  0  0  0  0
  193.5580  170.8710  135.2310 C   0  0  0  0  0  3  0  0  0  0  0  0
  196.1190  172.0640  135.3210 C   0  0  0  0  0  2  0  0  0  0  0  0
  195.9100  170.5480  135.3730 C   0  0  0  0  0  2  0  0  0  0  0  0
  194.9430  172.8500  135.9430 C   0  0  2  0  0  3  0  0  0  0  0  0
  194.6000  170.2150  134.8520 N   0  0  0  0  0  0  0  0  0  0  0  0
  193.6960  171.9850  136.2300 C   0  0  0  0  0  2  0  0  0  0  0  0
  199.0960  174.6740  135.4420 C   0  0  0  0  0  1  0  0  0  0  0  0
  197.8770  174.9370  134.7630 O   0  0  0  0  0  0  0  0  0  0  0  0
  181.2580  176.2500  135.1030 C   0  0  0  0  0  2  0  0  0  0  0  0
  181.6710  174.8160  134.8590 C   0  0  0  0  0  2  0  0  0  0  0  0
  180.9260  173.8850  135.7580 C   0  0  0  0  0  0  0  0  0  0  0  0
  179.8090  174.2040  136.1340 O   0  0  0  0  0  0  0  0  0  0  0  0
  180.4140  171.6870  136.7590 C   0  0  0  0  0  1  0  0  0  0  0  0
  181.5090  172.5430  136.1390 C   0  0  1  0  0  0  0  0  0  0  0  0
  181.9640  171.8810  134.9950 O   0  0  0  0  0  1  0  0  0  0  0  0
  182.6430  173.9120  137.7820 O   0  0  0  0  0  1  0  0  0  0  0  0
  182.6760  172.6740  137.1330 C   0  0  2  0  0  3  0  0  0  0  0  0
  184.0510  172.4780  136.4860 C   0  0  0  0  0  2  0  0  0  0  0  0
  185.0640  173.4890  136.9980 C   0  0  0  0  0  2  0  0  0  0  0  0
  185.8900  172.9040  137.9590 O   0  0  0  0  0  1  0  0  0  0  0  0
  185.0070  179.0450  141.2010 C   0  0  0  0  0  2  0  0  0  0  0  0
  185.1350  178.3350  144.7780 C   0  0  0  0  0  3  0  0  0  0  0  0
  184.3990  178.6970  143.6640 C   0  0  0  0  0  3  0  0  0  0  0  0
  186.5430  178.3430  143.1060 C   0  0  0  0  0  3  0  0  0  0  0  0
  185.3040  178.6920  142.6230 C   0  0  0  0  0  0  0  0  0  0  0  0
  186.4220  178.1220  144.4270 N   0  0  0  0  0  0  0  0  0  0  0  0
  188.2790  177.2000  147.5500 C   0  0  0  0  0  3  0  0  0  0  0  0
  187.2380  177.5580  146.6830 C   0  0  0  0  0  3  0  0  0  0  0  0
  189.8320  177.2020  145.7020 C   0  0  0  0  0  0  0  0  0  0  0  0
  187.4810  177.7420  145.3190 C   0  0  0  0  0  0  0  0  0  0  0  0
  191.0790  177.0190  145.2270 F   0  0  0  0  0  0  0  0  0  0  0  0
  188.7940  177.5610  144.8360 C   0  0  0  0  0  3  0  0  0  0  0  0
  189.5740  177.0220  147.0590 C   0  0  0  0  0  3  0  0  0  0  0  0
  1  4  2  0  0  0  0
  1  3  1  0  0  0  0
  3 16  1  6  0  0  0
  3  6  1  0  0  0  0
  4  7  1  0  0  0  0
  5  1  1  0  0  0  0
  7  6  2  0  0  0  0
  7 48  1  0  0  0  0
  8 12  1  6  0  0  0
 10  2  1  6  0  0  0
 10  8  1  0  0  0  0
 10  5  1  0  0  0  0
 11  2  1  0  0  0  0
 11 14  1  0  0  0  0
 12  4  1  0  0  0  0
 13  9  2  0  0  0  0
 14 13  1  0  0  0  0
 14  8  1  0  0  0  0
 15 16  2  0  0  0  0
 16 17  1  0  0  0  0
 18 17  1  0  0  0  0
 19 18  1  1  0  0  0
 20 22  1  6  0  0  0
 20 19  1  0  0  0  0
 21 20  1  0  0  0  0
 21 19  1  0  0  0  0
 24 25  1  1  0  0  0
 24 26  1  0  0  0  0
 24 31  1  0  0  0  0
 25 26  1  0  0  0  0
 26 22  1  1  0  0  0
 27 25  1  0  0  0  0
 27 23  2  0  0  0  0
 28 33  1  0  0  0  0
 29 30  1  0  0  0  0
 31 29  1  6  0  0  0
 31 33  1  0  0  0  0
 32 28  2  0  0  0  0
 32 30  1  0  0  0  0
 35 27  1  0  0  0  0
 35 34  1  0  0  0  0
 36 13  1  0  0  0  0
 37 36  1  0  0  0  0
 37 38  1  0  0  0  0
 38 39  2  0  0  0  0
 38 41  1  0  0  0  0
 41 40  1  1  0  0  0
 41 44  1  0  0  0  0
 42 41  1  0  0  0  0
 44 43  1  6  0  0  0
 45 46  1  0  0  0  0
 45 44  1  0  0  0  0
 46 47  1  0  0  0  0
 48 52  1  0  0  0  0
 50 49  2  0  0  0  0
 51 53  1  0  0  0  0
 52 51  2  0  0  0  0
 52 50  1  0  0  0  0
 53 49  1  0  0  0  0
 53 57  1  0  0  0  0
 55 54  2  0  0  0  0
 56 60  2  0  0  0  0
 57 55  1  0  0  0  0
 58 56  1  0  0  0  0
 59 57  2  0  0  0  0
 59 56  1  0  0  0  0
 60 54  1  0  0  0  0
M  END
>  <MODEL>
3

>  <REMARK>
 VINA RESULT:      -6.2      4.232      9.819
  Name = 
  18 active torsions:
  status: ('A' for Active; 'I' for Inactive)
    1  A    between atoms: C_9  and  C_25
    2  A    between atoms: C_10  and  C_60
    3  A    between atoms: O_12  and  C_48
    4  A    between atoms: C_13  and  C_18
    5  A    between atoms: C_13  and  C_27
    6  A    between atoms: C_15  and  C_24
    7  A    between atoms: C_15  and  C_47
    8  A    between atoms: C_18  and  C_57
    9  A    between atoms: C_20  and  C_42
   10  A    between atoms: C_25  and  S_56
   11  A    between atoms: C_27  and  C_44
   12  A    between atoms: C_28  and  C_29
   13  A    between atoms: C_29  and  C_37
   14  A    between atoms: C_32  and  N_52
   15  A    between atoms: N_40  and  C_50
   16  A    between atoms: C_42  and  S_56
   17  A    between atoms: C_44  and  C_59
   18  A    between atoms: C_59  and  C_60
                            x       y       z     vdW  Elec       q    Type
                         _______ _______ _______ _____ _____    ______ ____

>  <TORSDO>
F 18

$$$$
=
 OpenBabel11032420063D

 60 67  0  0  1  0  0  0  0  0999 V2000
  188.1460  175.4410  136.8290 C   0  0  0  0  0  0  0  0  0  0  0  0
  188.0010  171.6590  136.0100 C   0  0  0  0  0  2  0  0  0  0  0  0
  188.6680  176.5140  137.7250 C   0  0  2  0  0  3  0  0  0  0  0  0
  187.0150  175.8680  136.2700 C   0  0  0  0  0  0  0  0  0  0  0  0
  188.6150  174.0040  136.8610 C   0  0  0  0  0  2  0  0  0  0  0  0
  187.6480  177.5550  137.6300 N   0  0  0  0  0  0  0  0  0  0  0  0
  186.7460  177.1910  136.7880 C   0  0  0  0  0  0  0  0  0  0  0  0
  186.3360  173.3700  136.1050 C   0  0  1  0  0  3  0  0  0  0  0  0
  183.5010  172.9040  135.7590 O   0  0  0  0  0  0  0  0  0  0  0  0
  187.8110  173.1550  135.8870 C   0  0  2  0  0  3  0  0  0  0  0  0
  186.6910  171.0910  135.4690 C   0  0  0  0  0  2  0  0  0  0  0  0
  185.9060  174.8930  135.2200 S   0  0  0  0  0  0  0  0  0  0  0  0
  184.2960  171.9460  135.5780 C   0  0  0  0  0  0  0  0  0  0  0  0
  185.7140  172.1730  135.5750 N   0  0  0  0  0  0  0  0  0  0  0  0
  190.1210  177.4040  136.0840 O   0  0  0  0  0  0  0  0  0  0  0  0
  189.9850  177.0310  137.2410 C   0  0  0  0  0  0  0  0  0  0  0  0
  191.3460  177.1870  138.3860 S   0  0  0  0  0  0  0  0  0  0  0  0
  190.4420  176.3680  139.7310 C   0  0  0  0  0  2  0  0  0  0  0  0
  189.8490  177.3970  140.6680 C   0  0  1  0  0  3  0  0  0  0  0  0
  189.7840  176.7890  142.0540 C   0  0  1  0  0  3  0  0  0  0  0  0
  190.8790  177.7770  141.7070 C   0  0  0  0  0  2  0  0  0  0  0  0
  188.7040  177.4920  142.8530 C   0  0  0  0  0  2  0  0  0  0  0  0
  190.5180  177.4220  146.1570 O   0  0  0  0  0  0  0  0  0  0  0  0
  187.0820  176.9440  144.6450 N   0  0  2  0  0  0  0  0  0  0  0  0
  188.4140  177.1030  145.2430 N   0  0  0  0  0  0  0  0  0  0  0  0
  188.1640  176.5350  143.9230 C   0  0  2  0  0  3  0  0  0  0  0  0
  189.2730  177.5220  146.2970 C   0  0  0  0  0  0  0  0  0  0  0  0
  184.5140  178.0470  142.9350 C   0  0  0  0  0  3  0  0  0  0  0  0
  185.5910  178.7310  145.4580 C   0  0  0  0  0  2  0  0  0  0  0  0
  184.3270  179.3840  144.8930 C   0  0  0  0  0  2  0  0  0  0  0  0
  186.5800  178.2920  144.3540 C   0  0  2  0  0  3  0  0  0  0  0  0
  183.7630  178.5470  143.8550 N   0  0  0  0  0  0  0  0  0  0  0  0
  185.9880  178.3420  142.9290 C   0  0  0  0  0  2  0  0  0  0  0  0
  187.9910  177.2100  148.3730 C   0  0  0  0  0  1  0  0  0  0  0  0
  188.7180  178.0320  147.4710 O   0  0  0  0  0  0  0  0  0  0  0  0
  183.7390  170.5670  135.4450 C   0  0  0  0  0  2  0  0  0  0  0  0
  182.5220  170.4420  136.3350 C   0  0  0  0  0  2  0  0  0  0  0  0
  181.2670  170.4290  135.5250 C   0  0  0  0  0  0  0  0  0  0  0  0
  181.1700  169.6280  134.6090 O   0  0  0  0  0  0  0  0  0  0  0  0
  179.7270  172.1410  134.6360 C   0  0  0  0  0  1  0  0  0  0  0  0
  180.1120  171.3410  135.8720 C   0  0  1  0  0  0  0  0  0  0  0  0
  179.0020  170.5800  136.2440 O   0  0  0  0  0  1  0  0  0  0  0  0
  180.6240  171.6200  138.2220 O   0  0  0  0  0  1  0  0  0  0  0  0
  180.4560  172.3090  137.0170 C   0  0  2  0  0  3  0  0  0  0  0  0
  179.4160  173.4180  137.2100 C   0  0  0  0  0  2  0  0  0  0  0  0
  179.8240  174.7020  136.5070 C   0  0  0  0  0  2  0  0  0  0  0  0
  181.1250  175.0580  136.8650 O   0  0  0  0  0  1  0  0  0  0  0  0
  185.4950  177.9690  136.5220 C   0  0  0  0  0  2  0  0  0  0  0  0
  183.0250  176.7010  138.8880 C   0  0  0  0  0  3  0  0  0  0  0  0
  184.0250  176.4500  137.9660 C   0  0  0  0  0  3  0  0  0  0  0  0
  183.7040  178.6590  138.1950 C   0  0  0  0  0  3  0  0  0  0  0  0
  184.4410  177.6960  137.5460 C   0  0  0  0  0  0  0  0  0  0  0  0
  182.8440  178.0330  139.0180 N   0  0  0  0  0  0  0  0  0  0  0  0
  180.5720  178.7100  141.9220 C   0  0  0  0  0  3  0  0  0  0  0  0
  181.5190  178.0900  141.0950 C   0  0  0  0  0  3  0  0  0  0  0  0
  180.3350  180.5030  140.3240 C   0  0  0  0  0  0  0  0  0  0  0  0
  181.8850  178.6690  139.8760 C   0  0  0  0  0  0  0  0  0  0  0  0
  179.7750  181.6720  139.9570 F   0  0  0  0  0  0  0  0  0  0  0  0
  181.2800  179.8850  139.4970 C   0  0  0  0  0  3  0  0  0  0  0  0
  179.9820  179.9150  141.5360 C   0  0  0  0  0  3  0  0  0  0  0  0
  1  5  1  0  0  0  0
  1  3  1  0  0  0  0
  3 16  1  6  0  0  0
  4  7  1  0  0  0  0
  4  1  2  0  0  0  0
  6  3  1  0  0  0  0
  7  6  2  0  0  0  0
  8 12  1  6  0  0  0
 10  2  1  1  0  0  0
 10  8  1  0  0  0  0
 10  5  1  0  0  0  0
 11 14  1  0  0  0  0
 11  2  1  0  0  0  0
 12  4  1  0  0  0  0
 13  9  2  0  0  0  0
 14 13  1  0  0  0  0
 14  8  1  0  0  0  0
 15 16  2  0  0  0  0
 16 17  1  0  0  0  0
 17 18  1  0  0  0  0
 19 18  1  6  0  0  0
 19 21  1  0  0  0  0
 19 20  1  0  0  0  0
 20 22  1  1  0  0  0
 21 20  1  0  0  0  0
 23 27  2  0  0  0  0
 24 25  1  1  0  0  0
 25 27  1  0  0  0  0
 26 22  1  6  0  0  0
 26 24  1  0  0  0  0
 26 25  1  0  0  0  0
 27 35  1  0  0  0  0
 28 32  2  0  0  0  0
 30 29  1  0  0  0  0
 31 33  1  6  0  0  0
 31 24  1  0  0  0  0
 31 29  1  0  0  0  0
 32 30  1  0  0  0  0
 33 28  1  0  0  0  0
 35 34  1  0  0  0  0
 36 13  1  0  0  0  0
 36 37  1  0  0  0  0
 38 41  1  0  0  0  0
 38 37  1  0  0  0  0
 39 38  2  0  0  0  0
 41 40  1  6  0  0  0
 41 42  1  0  0  0  0
 41 44  1  0  0  0  0
 44 45  1  0  0  0  0
 44 43  1  1  0  0  0
 46 47  1  0  0  0  0
 46 45  1  0  0  0  0
 48  7  1  0  0  0  0
 48 52  1  0  0  0  0
 49 53  1  0  0  0  0
 50 49  2  0  0  0  0
 51 53  1  0  0  0  0
 52 50  1  0  0  0  0
 52 51  2  0  0  0  0
 53 57  1  0  0  0  0
 55 54  2  0  0  0  0
 56 60  2  0  0  0  0
 57 55  1  0  0  0  0
 58 56  1  0  0  0  0
 59 57  2  0  0  0  0
 59 56  1  0  0  0  0
 60 54  1  0  0  0  0
M  END
>  <MODEL>
4

>  <REMARK>
 VINA RESULT:      -6.2      3.158      7.975
  Name = 
  18 active torsions:
  status: ('A' for Active; 'I' for Inactive)
    1  A    between atoms: C_9  and  C_25
    2  A    between atoms: C_10  and  C_60
    3  A    between atoms: O_12  and  C_48
    4  A    between atoms: C_13  and  C_18
    5  A    between atoms: C_13  and  C_27
    6  A    between atoms: C_15  and  C_24
    7  A    between atoms: C_15  and  C_47
    8  A    between atoms: C_18  and  C_57
    9  A    between atoms: C_20  and  C_42
   10  A    between atoms: C_25  and  S_56
   11  A    between atoms: C_27  and  C_44
   12  A    between atoms: C_28  and  C_29
   13  A    between atoms: C_29  and  C_37
   14  A    between atoms: C_32  and  N_52
   15  A    between atoms: N_40  and  C_50
   16  A    between atoms: C_42  and  S_56
   17  A    between atoms: C_44  and  C_59
   18  A    between atoms: C_59  and  C_60
                            x       y       z     vdW  Elec       q    Type
                         _______ _______ _______ _____ _____    ______ ____

>  <TORSDO>
F 18

$$$$
=
 OpenBabel11032420063D

 60 67  0  0  1  0  0  0  0  0999 V2000
  184.3060  178.4550  141.4000 C   0  0  0  0  0  0  0  0  0  0  0  0
  188.1550  178.4890  140.9770 C   0  0  0  0  0  2  0  0  0  0  0  0
  183.1340  177.9970  142.2020 C   0  0  2  0  0  3  0  0  0  0  0  0
  183.9080  178.6570  140.1460 C   0  0  0  0  0  0  0  0  0  0  0  0
  185.7450  178.3310  141.8500 C   0  0  0  0  0  2  0  0  0  0  0  0
  182.0620  177.9190  141.2140 N   0  0  0  0  0  0  0  0  0  0  0  0
  182.5030  178.3230  140.0750 C   0  0  0  0  0  0  0  0  0  0  0  0
  186.3510  178.1340  139.4500 C   0  0  1  0  0  3  0  0  0  0  0  0
  186.6900  177.3980  136.6720 O   0  0  0  0  0  0  0  0  0  0  0  0
  186.6910  178.8030  140.7560 C   0  0  2  0  0  3  0  0  0  0  0  0
  188.7220  178.4390  139.5600 C   0  0  0  0  0  2  0  0  0  0  0  0
  184.9720  179.0730  138.7390 S   0  0  0  0  0  0  0  0  0  0  0  0
  187.7140  177.6680  137.3530 C   0  0  0  0  0  0  0  0  0  0  0  0
  187.5790  178.1970  138.6820 N   0  0  0  0  0  0  0  0  0  0  0  0
  181.6360  179.0980  143.6650 O   0  0  0  0  0  0  0  0  0  0  0  0
  182.7880  178.9870  143.2690 C   0  0  0  0  0  0  0  0  0  0  0  0
  184.0830  179.9510  144.0310 S   0  0  0  0  0  0  0  0  0  0  0  0
  184.0800  178.9480  145.5440 C   0  0  0  0  0  2  0  0  0  0  0  0
  185.1470  177.8790  145.4660 C   0  0  1  0  0  3  0  0  0  0  0  0
  186.3940  178.4080  146.1440 C   0  0  1  0  0  3  0  0  0  0  0  0
  185.4980  177.4220  146.8640 C   0  0  0  0  0  2  0  0  0  0  0  0
  187.6050  177.6800  145.5910 C   0  0  0  0  0  2  0  0  0  0  0  0
  189.3940  178.0520  148.8880 O   0  0  0  0  0  0  0  0  0  0  0  0
  190.0020  178.1340  145.1540 N   0  0  2  0  0  0  0  0  0  0  0  0
  189.7760  178.1290  146.6050 N   0  0  0  0  0  0  0  0  0  0  0  0
  188.8170  178.6190  145.6240 C   0  0  2  0  0  3  0  0  0  0  0  0
  190.1860  177.8360  147.9360 C   0  0  0  0  0  0  0  0  0  0  0  0
  190.7740  176.6830  142.3200 C   0  0  0  0  0  3  0  0  0  0  0  0
  191.3740  176.0910  145.0180 C   0  0  0  0  0  2  0  0  0  0  0  0
  191.9060  175.2570  143.8500 C   0  0  0  0  0  2  0  0  0  0  0  0
  190.0010  176.7340  144.7160 C   0  0  2  0  0  3  0  0  0  0  0  0
  191.8410  176.0280  142.6260 N   0  0  0  0  0  0  0  0  0  0  0  0
  189.5810  176.6410  143.2330 C   0  0  0  0  0  2  0  0  0  0  0  0
  192.1940  177.6260  149.3400 C   0  0  0  0  0  1  0  0  0  0  0  0
  191.4620  177.3190  148.1630 O   0  0  0  0  0  0  0  0  0  0  0  0
  189.0580  177.3550  136.7840 C   0  0  0  0  0  2  0  0  0  0  0  0
  189.3060  175.8680  136.9030 C   0  0  0  0  0  2  0  0  0  0  0  0
  190.6040  175.5960  137.5890 C   0  0  0  0  0  0  0  0  0  0  0  0
  190.6350  175.6120  138.8090 O   0  0  0  0  0  0  0  0  0  0  0  0
  191.7490  173.7820  136.3680 C   0  0  0  0  0  1  0  0  0  0  0  0
  191.8410  175.2400  136.7950 C   0  0  1  0  0  0  0  0  0  0  0  0
  191.9000  176.0150  135.6350 O   0  0  0  0  0  1  0  0  0  0  0  0
  193.9570  176.4010  136.9840 O   0  0  0  0  0  1  0  0  0  0  0  0
  193.1340  175.4530  137.6010 C   0  0  2  0  0  3  0  0  0  0  0  0
  193.9300  174.1630  137.8270 C   0  0  0  0  0  2  0  0  0  0  0  0
  195.4210  174.4330  137.9420 C   0  0  0  0  0  2  0  0  0  0  0  0
  195.7370  174.8630  139.2310 O   0  0  0  0  0  1  0  0  0  0  0  0
  181.7030  178.2770  138.8100 C   0  0  0  0  0  2  0  0  0  0  0  0
  180.5100  174.9760  137.8130 C   0  0  0  0  0  3  0  0  0  0  0  0
  180.2300  176.2640  138.2330 C   0  0  0  0  0  3  0  0  0  0  0  0
  182.4440  175.9720  138.0210 C   0  0  0  0  0  3  0  0  0  0  0  0
  181.4610  176.8740  138.3550 C   0  0  0  0  0  0  0  0  0  0  0  0
  181.8450  174.8160  137.6870 N   0  0  0  0  0  0  0  0  0  0  0  0
  182.4320  171.3140  136.4840 C   0  0  0  0  0  3  0  0  0  0  0  0
  181.7770  172.4930  136.8660 C   0  0  0  0  0  3  0  0  0  0  0  0
  184.5690  172.3450  136.9250 C   0  0  0  0  0  0  0  0  0  0  0  0
  182.5100  173.6090  137.2810 C   0  0  0  0  0  0  0  0  0  0  0  0
  185.9140  172.2790  136.9420 F   0  0  0  0  0  0  0  0  0  0  0  0
  183.9170  173.5220  137.3080 C   0  0  0  0  0  3  0  0  0  0  0  0
  183.8260  171.2410  136.5130 C   0  0  0  0  0  3  0  0  0  0  0  0
  1  5  1  0  0  0  0
  1  3  1  0  0  0  0
  3 16  1  1  0  0  0
  4  1  2  0  0  0  0
  6  3  1  0  0  0  0
  7  4  1  0  0  0  0
  7  6  2  0  0  0  0
  8 12  1  6  0  0  0
  8 10  1  0  0  0  0
  9 13  2  0  0  0  0
 10  2  1  1  0  0  0
 10  5  1  0  0  0  0
 11  2  1  0  0  0  0
 12  4  1  0  0  0  0
 13 14  1  0  0  0  0
 14  8  1  0  0  0  0
 14 11  1  0  0  0  0
 16 15  2  0  0  0  0
 16 17  1  0  0  0  0
 17 18  1  0  0  0  0
 19 18  1  1  0  0  0
 19 20  1  0  0  0  0
 19 21  1  0  0  0  0
 20 22  1  6  0  0  0
 20 21  1  0  0  0  0
 24 26  1  0  0  0  0
 24 25  1  1  0  0  0
 25 27  1  0  0  0  0
 26 22  1  6  0  0  0
 26 25  1  0  0  0  0
 27 35  1  0  0  0  0
 27 23  2  0  0  0  0
 28 32  2  0  0  0  0
 28 33  1  0  0  0  0
 30 29  1  0  0  0  0
 31 33  1  6  0  0  0
 31 29  1  0  0  0  0
 31 24  1  0  0  0  0
 32 30  1  0  0  0  0
 35 34  1  0  0  0  0
 36 37  1  0  0  0  0
 36 13  1  0  0  0  0
 37 38  1  0  0  0  0
 38 39  2  0  0  0  0
 41 40  1  6  0  0  0
 41 38  1  0  0  0  0
 41 44  1  0  0  0  0
 42 41  1  0  0  0  0
 44 43  1  6  0  0  0
 44 45  1  0  0  0  0
 45 46  1  0  0  0  0
 46 47  1  0  0  0  0
 48  7  1  0  0  0  0
 49 50  2  0  0  0  0
 50 52  1  0  0  0  0
 51 52  2  0  0  0  0
 52 48  1  0  0  0  0
 53 49  1  0  0  0  0
 53 51  1  0  0  0  0
 54 60  2  0  0  0  0
 54 55  1  0  0  0  0
 55 57  2  0  0  0  0
 56 58  1  0  0  0  0
 56 59  2  0  0  0  0
 57 59  1  0  0  0  0
 57 53  1  0  0  0  0
 60 56  1  0  0  0  0
M  END
>  <MODEL>
5

>  <REMARK>
 VINA RESULT:      -6.1      2.247      3.591
  Name = 
  18 active torsions:
  status: ('A' for Active; 'I' for Inactive)
    1  A    between atoms: C_9  and  C_25
    2  A    between atoms: C_10  and  C_60
    3  A    between atoms: O_12  and  C_48
    4  A    between atoms: C_13  and  C_18
    5  A    between atoms: C_13  and  C_27
    6  A    between atoms: C_15  and  C_24
    7  A    between atoms: C_15  and  C_47
    8  A    between atoms: C_18  and  C_57
    9  A    between atoms: C_20  and  C_42
   10  A    between atoms: C_25  and  S_56
   11  A    between atoms: C_27  and  C_44
   12  A    between atoms: C_28  and  C_29
   13  A    between atoms: C_29  and  C_37
   14  A    between atoms: C_32  and  N_52
   15  A    between atoms: N_40  and  C_50
   16  A    between atoms: C_42  and  S_56
   17  A    between atoms: C_44  and  C_59
   18  A    between atoms: C_59  and  C_60
                            x       y       z     vdW  Elec       q    Type
                         _______ _______ _______ _____ _____    ______ ____

>  <TORSDO>
F 18

$$$$
=
 OpenBabel11032420063D

 60 67  0  0  1  0  0  0  0  0999 V2000
  184.0290  178.5490  141.4250 C   0  0  0  0  0  0  0  0  0  0  0  0
  187.0300  178.1550  139.0110 C   0  0  0  0  0  2  0  0  0  0  0  0
  183.4380  178.2310  142.7580 C   0  0  2  0  0  3  0  0  0  0  0  0
  183.0380  178.7830  140.5670 C   0  0  0  0  0  0  0  0  0  0  0  0
  185.4660  178.2720  141.0450 C   0  0  0  0  0  2  0  0  0  0  0  0
  182.0000  178.2640  142.5030 N   0  0  0  0  0  0  0  0  0  0  0  0
  181.7920  178.6050  141.2810 C   0  0  0  0  0  0  0  0  0  0  0  0
  184.6650  177.9870  138.7110 C   0  0  1  0  0  3  0  0  0  0  0  0
  183.3890  177.1930  136.2380 O   0  0  0  0  0  0  0  0  0  0  0  0
  185.7120  178.6260  139.5860 C   0  0  2  0  0  3  0  0  0  0  0  0
  186.7380  178.0290  137.5170 C   0  0  0  0  0  2  0  0  0  0  0  0
  183.2090  179.0660  138.7860 S   0  0  0  0  0  0  0  0  0  0  0  0
  184.6370  177.3550  136.2480 C   0  0  0  0  0  0  0  0  0  0  0  0
  185.2860  177.9070  137.4040 N   0  0  0  0  0  0  0  0  0  0  0  0
  182.9530  179.7770  144.4830 O   0  0  0  0  0  0  0  0  0  0  0  0
  183.8090  179.2630  143.7750 C   0  0  0  0  0  0  0  0  0  0  0  0
  185.5270  179.6820  144.0200 S   0  0  0  0  0  0  0  0  0  0  0  0
  185.4990  179.2100  145.7730 C   0  0  0  0  0  2  0  0  0  0  0  0
  186.2800  177.9320  145.9840 C   0  0  1  0  0  3  0  0  0  0  0  0
  187.5840  178.2850  146.6700 C   0  0  1  0  0  3  0  0  0  0  0  0
  186.4440  177.6870  147.4670 C   0  0  0  0  0  2  0  0  0  0  0  0
  188.6090  177.2090  146.3690 C   0  0  0  0  0  2  0  0  0  0  0  0
  191.6120  175.3940  147.7480 O   0  0  0  0  0  0  0  0  0  0  0  0
  190.5690  177.6980  144.9320 N   0  0  2  0  0  0  0  0  0  0  0  0
  190.9940  176.8230  146.0330 N   0  0  0  0  0  0  0  0  0  0  0  0
  189.9790  177.8630  146.1510 C   0  0  2  0  0  3  0  0  0  0  0  0
  191.7790  175.7580  146.5560 C   0  0  0  0  0  0  0  0  0  0  0  0
  189.0440  178.3460  142.1060 C   0  0  0  0  0  3  0  0  0  0  0  0
  190.8320  176.3100  142.9130 C   0  0  0  0  0  2  0  0  0  0  0  0
  190.2840  176.4130  141.4870 C   0  0  0  0  0  2  0  0  0  0  0  0
  189.8480  176.8570  143.9710 C   0  0  2  0  0  3  0  0  0  0  0  0
  189.7970  177.7550  141.2430 N   0  0  0  0  0  0  0  0  0  0  0  0
  188.6560  177.6360  143.3730 C   0  0  0  0  0  2  0  0  0  0  0  0
  192.4230  173.9590  145.0080 C   0  0  0  0  0  1  0  0  0  0  0  0
  192.7250  175.1380  145.7390 O   0  0  0  0  0  0  0  0  0  0  0  0
  185.4300  176.8900  135.0710 C   0  0  0  0  0  2  0  0  0  0  0  0
  186.3770  175.7990  135.5180 C   0  0  0  0  0  2  0  0  0  0  0  0
  185.7820  174.4480  135.2920 C   0  0  0  0  0  0  0  0  0  0  0  0
  184.7840  174.3590  134.5950 O   0  0  0  0  0  0  0  0  0  0  0  0
  186.0910  173.0950  137.3330 C   0  0  0  0  0  1  0  0  0  0  0  0
  186.4380  173.2080  135.8550 C   0  0  1  0  0  0  0  0  0  0  0  0
  185.9350  172.0730  135.2160 O   0  0  0  0  0  1  0  0  0  0  0  0
  188.4960  171.9380  135.7350 O   0  0  0  0  0  1  0  0  0  0  0  0
  187.9680  173.2320  135.6930 C   0  0  2  0  0  3  0  0  0  0  0  0
  188.6760  174.1010  136.7380 C   0  0  0  0  0  2  0  0  0  0  0  0
  190.0070  173.5020  137.1620 C   0  0  0  0  0  2  0  0  0  0  0  0
  190.8570  174.4990  137.6410 O   0  0  0  0  0  1  0  0  0  0  0  0
  180.4380  178.6370  140.6450 C   0  0  0  0  0  2  0  0  0  0  0  0
  179.1420  175.2670  140.1200 C   0  0  0  0  0  3  0  0  0  0  0  0
  179.2740  176.3750  140.9370 C   0  0  0  0  0  3  0  0  0  0  0  0
  180.2990  176.7230  138.9720 C   0  0  0  0  0  3  0  0  0  0  0  0
  180.0020  177.2800  140.1940 C   0  0  0  0  0  0  0  0  0  0  0  0
  179.7610  175.4910  138.9400 N   0  0  0  0  0  0  0  0  0  0  0  0
  180.3180  174.0770  135.5130 C   0  0  0  0  0  3  0  0  0  0  0  0
  180.2530  174.9850  136.5790 C   0  0  0  0  0  3  0  0  0  0  0  0
  179.5620  172.3030  136.9650 C   0  0  0  0  0  0  0  0  0  0  0  0
  179.8430  174.5640  137.8470 C   0  0  0  0  0  0  0  0  0  0  0  0
  179.2420  171.0090  137.1550 F   0  0  0  0  0  0  0  0  0  0  0  0
  179.4960  173.2090  138.0300 C   0  0  0  0  0  3  0  0  0  0  0  0
  179.9740  172.7380  135.7070 C   0  0  0  0  0  3  0  0  0  0  0  0
  1  3  1  0  0  0  0
  3 16  1  1  0  0  0
  4  7  1  0  0  0  0
  4  1  2  0  0  0  0
  5  1  1  0  0  0  0
  6  3  1  0  0  0  0
  7  6  2  0  0  0  0
  8 12  1  6  0  0  0
  8 10  1  0  0  0  0
  9 13  2  0  0  0  0
 10  2  1  6  0  0  0
 10  5  1  0  0  0  0
 11  2  1  0  0  0  0
 12  4  1  0  0  0  0
 13 14  1  0  0  0  0
 14 11  1  0  0  0  0
 14  8  1  0  0  0  0
 16 17  1  0  0  0  0
 16 15  2  0  0  0  0
 17 18  1  0  0  0  0
 19 18  1  1  0  0  0
 19 20  1  0  0  0  0
 19 21  1  0  0  0  0
 20 22  1  6  0  0  0
 20 21  1  0  0  0  0
 24 25  1  1  0  0  0
 24 26  1  0  0  0  0
 25 26  1  0  0  0  0
 25 27  1  0  0  0  0
 26 22  1  6  0  0  0
 27 23  2  0  0  0  0
 28 33  1  0  0  0  0
 30 29  1  0  0  0  0
 31 29  1  6  0  0  0
 31 24  1  0  0  0  0
 32 30  1  0  0  0  0
 32 28  2  0  0  0  0
 33 31  1  0  0  0  0
 34 35  1  0  0  0  0
 35 27  1  0  0  0  0
 36 37  1  0  0  0  0
 36 13  1  0  0  0  0
 38 37  1  0  0  0  0
 38 41  1  0  0  0  0
 39 38  2  0  0  0  0
 41 40  1  1  0  0  0
 42 41  1  0  0  0  0
 44 43  1  1  0  0  0
 44 41  1  0  0  0  0
 44 45  1  0  0  0  0
 45 46  1  0  0  0  0
 46 47  1  0  0  0  0
 48  7  1  0  0  0  0
 49 50  2  0  0  0  0
 51 52  2  0  0  0  0
 52 48  1  0  0  0  0
 52 50  1  0  0  0  0
 53 51  1  0  0  0  0
 53 49  1  0  0  0  0
 54 60  2  0  0  0  0
 54 55  1  0  0  0  0
 55 57  2  0  0  0  0
 56 58  1  0  0  0  0
 56 59  2  0  0  0  0
 57 59  1  0  0  0  0
 57 53  1  0  0  0  0
 60 56  1  0  0  0  0
M  END
>  <MODEL>
6

>  <REMARK>
 VINA RESULT:      -5.9      2.458      4.062
  Name = 
  18 active torsions:
  status: ('A' for Active; 'I' for Inactive)
    1  A    between atoms: C_9  and  C_25
    2  A    between atoms: C_10  and  C_60
    3  A    between atoms: O_12  and  C_48
    4  A    between atoms: C_13  and  C_18
    5  A    between atoms: C_13  and  C_27
    6  A    between atoms: C_15  and  C_24
    7  A    between atoms: C_15  and  C_47
    8  A    between atoms: C_18  and  C_57
    9  A    between atoms: C_20  and  C_42
   10  A    between atoms: C_25  and  S_56
   11  A    between atoms: C_27  and  C_44
   12  A    between atoms: C_28  and  C_29
   13  A    between atoms: C_29  and  C_37
   14  A    between atoms: C_32  and  N_52
   15  A    between atoms: N_40  and  C_50
   16  A    between atoms: C_42  and  S_56
   17  A    between atoms: C_44  and  C_59
   18  A    between atoms: C_59  and  C_60
                            x       y       z     vdW  Elec       q    Type
                         _______ _______ _______ _____ _____    ______ ____

>  <TORSDO>
F 18

$$$$
=
 OpenBabel11032420063D

 60 67  0  0  1  0  0  0  0  0999 V2000
  188.6040  177.6530  139.6460 C   0  0  0  0  0  0  0  0  0  0  0  0
  188.7960  176.5320  135.9450 C   0  0  0  0  0  2  0  0  0  0  0  0
  188.0660  178.6310  140.6370 C   0  0  2  0  0  3  0  0  0  0  0  0
  189.7320  177.1360  140.1300 C   0  0  0  0  0  0  0  0  0  0  0  0
  188.1510  177.5660  138.2060 C   0  0  0  0  0  2  0  0  0  0  0  0
  189.0740  178.6240  141.6940 N   0  0  0  0  0  0  0  0  0  0  0  0
  189.9830  177.7600  141.4110 C   0  0  0  0  0  0  0  0  0  0  0  0
  190.4410  176.7720  137.6620 C   0  0  1  0  0  3  0  0  0  0  0  0
  193.2820  176.4020  137.2580 O   0  0  0  0  0  0  0  0  0  0  0  0
  188.9690  176.5310  137.4490 C   0  0  2  0  0  3  0  0  0  0  0  0
  190.1140  175.9520  135.4380 C   0  0  0  0  0  2  0  0  0  0  0  0
  190.8560  176.0150  139.2560 S   0  0  0  0  0  0  0  0  0  0  0  0
  192.4990  176.1410  136.3080 C   0  0  0  0  0  0  0  0  0  0  0  0
  191.0780  176.1500  136.5180 N   0  0  0  0  0  0  0  0  0  0  0  0
  186.6710  177.2170  141.9230 O   0  0  0  0  0  0  0  0  0  0  0  0
  186.7450  178.1840  141.1770 C   0  0  0  0  0  0  0  0  0  0  0  0
  185.2750  179.1240  140.8000 S   0  0  0  0  0  0  0  0  0  0  0  0
  185.3160  178.6780  139.0400 C   0  0  0  0  0  2  0  0  0  0  0  0
  183.9100  178.5340  138.5020 C   0  0  1  0  0  3  0  0  0  0  0  0
  183.4160  177.1430  138.8430 C   0  0  1  0  0  3  0  0  0  0  0  0
  182.9530  178.3350  139.6560 C   0  0  0  0  0  2  0  0  0  0  0  0
  182.3300  176.7490  137.8610 C   0  0  0  0  0  2  0  0  0  0  0  0
  178.9320  176.0190  136.4020 O   0  0  0  0  0  0  0  0  0  0  0  0
  181.9600  174.2980  137.8810 N   0  0  2  0  0  0  0  0  0  0  0  0
  180.7680  174.9540  137.3270 N   0  0  0  0  0  0  0  0  0  0  0  0
  181.5970  175.5100  138.3890 C   0  0  2  0  0  3  0  0  0  0  0  0
  179.6720  175.0030  136.4210 C   0  0  0  0  0  0  0  0  0  0  0  0
  184.9160  172.9080  137.6250 C   0  0  0  0  0  3  0  0  0  0  0  0
  182.7380  173.1570  135.8390 C   0  0  0  0  0  2  0  0  0  0  0  0
  184.0220  172.4040  135.4800 C   0  0  0  0  0  2  0  0  0  0  0  0
  182.9850  174.3160  136.8310 C   0  0  2  0  0  3  0  0  0  0  0  0
  184.7350  172.0430  136.6880 N   0  0  0  0  0  0  0  0  0  0  0  0
  184.3940  174.3080  137.4640 C   0  0  0  0  0  2  0  0  0  0  0  0
  179.1450  172.6260  136.0810 C   0  0  0  0  0  1  0  0  0  0  0  0
  179.4330  173.9210  135.5740 O   0  0  0  0  0  0  0  0  0  0  0  0
  193.0730  175.9000  134.9510 C   0  0  0  0  0  2  0  0  0  0  0  0
  193.1570  174.4090  134.7110 C   0  0  0  0  0  2  0  0  0  0  0  0
  194.5440  173.9080  134.9450 C   0  0  0  0  0  0  0  0  0  0  0  0
  195.4840  174.6030  134.5940 O   0  0  0  0  0  0  0  0  0  0  0  0
  193.5030  172.1850  136.3740 C   0  0  0  0  0  1  0  0  0  0  0  0
  194.7840  172.5990  135.6630 C   0  0  1  0  0  0  0  0  0  0  0  0
  195.0940  171.6000  134.7380 O   0  0  0  0  0  1  0  0  0  0  0  0
  196.8310  171.6440  136.5330 O   0  0  0  0  0  1  0  0  0  0  0  0
  195.9260  172.6970  136.6900 C   0  0  2  0  0  3  0  0  0  0  0  0
  195.4360  172.7320  138.1420 C   0  0  0  0  0  2  0  0  0  0  0  0
  195.7580  174.0560  138.8130 C   0  0  0  0  0  2  0  0  0  0  0  0
  196.1610  174.9960  137.8640 O   0  0  0  0  0  1  0  0  0  0  0  0
  191.2260  177.5630  142.2220 C   0  0  0  0  0  2  0  0  0  0  0  0
  191.1480  177.5210  145.8690 C   0  0  0  0  0  3  0  0  0  0  0  0
  191.8760  177.4420  144.6950 C   0  0  0  0  0  3  0  0  0  0  0  0
  189.7000  177.7600  144.2500 C   0  0  0  0  0  3  0  0  0  0  0  0
  190.9450  177.5990  143.6890 C   0  0  0  0  0  0  0  0  0  0  0  0
  189.8420  177.7150  145.5860 N   0  0  0  0  0  0  0  0  0  0  0  0
  188.0270  177.9730  148.8570 C   0  0  0  0  0  3  0  0  0  0  0  0
  189.0650  177.8680  147.9200 C   0  0  0  0  0  3  0  0  0  0  0  0
  186.4040  178.0110  147.0700 C   0  0  0  0  0  0  0  0  0  0  0  0
  188.7850  177.8350  146.5510 C   0  0  0  0  0  0  0  0  0  0  0  0
  185.1240  178.0930  146.6590 F   0  0  0  0  0  0  0  0  0  0  0  0
  187.4390  177.9060  146.1340 C   0  0  0  0  0  3  0  0  0  0  0  0
  186.6990  178.0450  148.4310 C   0  0  0  0  0  3  0  0  0  0  0  0
  1  4  2  0  0  0  0
  1  3  1  0  0  0  0
  3 16  1  1  0  0  0
  3  6  1  0  0  0  0
  4  7  1  0  0  0  0
  5  1  1  0  0  0  0
  7  6  2  0  0  0  0
  7 48  1  0  0  0  0
  8 12  1  1  0  0  0
 10  2  1  6  0  0  0
 10  8  1  0  0  0  0
 10  5  1  0  0  0  0
 11  2  1  0  0  0  0
 11 14  1  0  0  0  0
 12  4  1  0  0  0  0
 13 14  1  0  0  0  0
 13  9  2  0  0  0  0
 14  8  1  0  0  0  0
 16 15  2  0  0  0  0
 17 16  1  0  0  0  0
 18 17  1  0  0  0  0
 19 20  1  0  0  0  0
 19 18  1  1  0  0  0
 19 21  1  0  0  0  0
 20 22  1  6  0  0  0
 20 21  1  0  0  0  0
 23 27  2  0  0  0  0
 24 25  1  6  0  0  0
 24 26  1  0  0  0  0
 25 26  1  0  0  0  0
 26 22  1  6  0  0  0
 27 25  1  0  0  0  0
 30 29  1  0  0  0  0
 30 32  1  0  0  0  0
 31 29  1  6  0  0  0
 31 33  1  0  0  0  0
 31 24  1  0  0  0  0
 32 28  2  0  0  0  0
 33 28  1  0  0  0  0
 35 34  1  0  0  0  0
 35 27  1  0  0  0  0
 36 13  1  0  0  0  0
 37 38  1  0  0  0  0
 37 36  1  0  0  0  0
 38 41  1  0  0  0  0
 39 38  2  0  0  0  0
 41 40  1  1  0  0  0
 41 44  1  0  0  0  0
 42 41  1  0  0  0  0
 44 43  1  1  0  0  0
 44 45  1  0  0  0  0
 45 46  1  0  0  0  0
 47 46  1  0  0  0  0
 48 52  1  0  0  0  0
 50 49  2  0  0  0  0
 51 53  1  0  0  0  0
 52 51  2  0  0  0  0
 52 50  1  0  0  0  0
 53 49  1  0  0  0  0
 53 57  1  0  0  0  0
 55 54  2  0  0  0  0
 56 60  2  0  0  0  0
 57 55  1  0  0  0  0
 58 56  1  0  0  0  0
 59 57  2  0  0  0  0
 59 56  1  0  0  0  0
 60 54  1  0  0  0  0
M  END
>  <MODEL>
7

>  <REMARK>
 VINA RESULT:      -5.6      3.389      9.743
  Name = 
  18 active torsions:
  status: ('A' for Active; 'I' for Inactive)
    1  A    between atoms: C_9  and  C_25
    2  A    between atoms: C_10  and  C_60
    3  A    between atoms: O_12  and  C_48
    4  A    between atoms: C_13  and  C_18
    5  A    between atoms: C_13  and  C_27
    6  A    between atoms: C_15  and  C_24
    7  A    between atoms: C_15  and  C_47
    8  A    between atoms: C_18  and  C_57
    9  A    between atoms: C_20  and  C_42
   10  A    between atoms: C_25  and  S_56
   11  A    between atoms: C_27  and  C_44
   12  A    between atoms: C_28  and  C_29
   13  A    between atoms: C_29  and  C_37
   14  A    between atoms: C_32  and  N_52
   15  A    between atoms: N_40  and  C_50
   16  A    between atoms: C_42  and  S_56
   17  A    between atoms: C_44  and  C_59
   18  A    between atoms: C_59  and  C_60
                            x       y       z     vdW  Elec       q    Type
                         _______ _______ _______ _____ _____    ______ ____

>  <TORSDO>
F 18

$$$$
=
 OpenBabel11032420063D

 60 67  0  0  1  0  0  0  0  0999 V2000
  188.9620  177.1810  137.5710 C   0  0  0  0  0  0  0  0  0  0  0  0
  190.7920  175.5090  134.5960 C   0  0  0  0  0  2  0  0  0  0  0  0
  187.9950  178.2230  138.0270 C   0  0  2  0  0  3  0  0  0  0  0  0
  189.8000  176.9140  138.5710 C   0  0  0  0  0  0  0  0  0  0  0  0
  189.1790  176.7980  136.1240 C   0  0  0  0  0  2  0  0  0  0  0  0
  188.4490  178.5310  139.3810 N   0  0  0  0  0  0  0  0  0  0  0  0
  189.4400  177.7680  139.6820 C   0  0  0  0  0  0  0  0  0  0  0  0
  191.5210  176.2550  136.7460 C   0  0  1  0  0  3  0  0  0  0  0  0
  194.2770  176.2270  137.6310 O   0  0  0  0  0  0  0  0  0  0  0  0
  190.3010  175.7790  136.0030 C   0  0  2  0  0  3  0  0  0  0  0  0
  192.2310  175.0450  134.8080 C   0  0  0  0  0  2  0  0  0  0  0  0
  191.2530  175.8350  138.4900 S   0  0  0  0  0  0  0  0  0  0  0  0
  193.9950  175.7070  136.5200 C   0  0  0  0  0  0  0  0  0  0  0  0
  192.6230  175.5510  136.1210 N   0  0  0  0  0  0  0  0  0  0  0  0
  186.3880  176.5050  138.2830 O   0  0  0  0  0  0  0  0  0  0  0  0
  186.5980  177.6890  138.0560 C   0  0  0  0  0  0  0  0  0  0  0  0
  185.2230  178.8070  137.8470 S   0  0  0  0  0  0  0  0  0  0  0  0
  184.4360  178.2930  139.4010 C   0  0  0  0  0  2  0  0  0  0  0  0
  183.0410  177.7710  139.1360 C   0  0  1  0  0  3  0  0  0  0  0  0
  183.1020  176.2580  139.1100 C   0  0  1  0  0  3  0  0  0  0  0  0
  182.5700  176.9760  140.3320 C   0  0  0  0  0  2  0  0  0  0  0  0
  181.9420  175.7290  138.2890 C   0  0  0  0  0  2  0  0  0  0  0  0
  184.7630  173.2730  137.8180 O   0  0  0  0  0  0  0  0  0  0  0  0
  181.6780  174.6180  136.0890 N   0  0  2  0  0  0  0  0  0  0  0  0
  182.8910  174.1040  136.7380 N   0  0  0  0  0  0  0  0  0  0  0  0
  182.4140  175.4770  136.8520 C   0  0  2  0  0  3  0  0  0  0  0  0
  183.8030  173.0540  137.0370 C   0  0  0  0  0  0  0  0  0  0  0  0
  179.4620  172.4210  135.0900 C   0  0  0  0  0  3  0  0  0  0  0  0
  180.9960  172.6800  137.4500 C   0  0  0  0  0  2  0  0  0  0  0  0
  180.0400  171.5080  137.2080 C   0  0  0  0  0  2  0  0  0  0  0  0
  180.5350  173.9790  136.7520 C   0  0  2  0  0  3  0  0  0  0  0  0
  179.7640  171.3840  135.7920 N   0  0  0  0  0  0  0  0  0  0  0  0
  179.3840  173.7720  135.7430 C   0  0  0  0  0  2  0  0  0  0  0  0
  183.2870  171.6560  135.0810 C   0  0  0  0  0  1  0  0  0  0  0  0
  183.6200  171.8000  136.4540 O   0  0  0  0  0  0  0  0  0  0  0  0
  195.1090  175.3300  135.6010 C   0  0  0  0  0  2  0  0  0  0  0  0
  196.4070  175.3360  136.3750 C   0  0  0  0  0  2  0  0  0  0  0  0
  197.1140  174.0270  136.2430 C   0  0  0  0  0  0  0  0  0  0  0  0
  197.7500  173.8070  135.2250 O   0  0  0  0  0  0  0  0  0  0  0  0
  197.8430  171.7700  136.9270 C   0  0  0  0  0  1  0  0  0  0  0  0
  197.1020  173.0220  137.3730 C   0  0  1  0  0  0  0  0  0  0  0  0
  197.7820  173.5420  138.4780 O   0  0  0  0  0  1  0  0  0  0  0  0
  195.4390  173.0060  139.1320 O   0  0  0  0  0  1  0  0  0  0  0  0
  195.6750  172.6430  137.8030 C   0  0  2  0  0  3  0  0  0  0  0  0
  195.3600  171.1540  137.6210 C   0  0  0  0  0  2  0  0  0  0  0  0
  194.2140  170.9350  136.6470 C   0  0  0  0  0  2  0  0  0  0  0  0
  193.7730  172.1560  136.1350 O   0  0  0  0  0  1  0  0  0  0  0  0
  190.2220  177.8830  140.9530 C   0  0  0  0  0  2  0  0  0  0  0  0
  187.8670  176.6570  143.4550 C   0  0  0  0  0  3  0  0  0  0  0  0
  188.2940  176.6870  142.1400 C   0  0  0  0  0  3  0  0  0  0  0  0
  189.6270  177.9530  143.4270 C   0  0  0  0  0  3  0  0  0  0  0  0
  189.4050  177.5050  142.1460 C   0  0  0  0  0  0  0  0  0  0  0  0
  188.6790  177.4200  144.2180 N   0  0  0  0  0  0  0  0  0  0  0  0
  189.4850  177.6770  147.8700 C   0  0  0  0  0  3  0  0  0  0  0  0
  189.6310  177.4760  146.4910 C   0  0  0  0  0  3  0  0  0  0  0  0
  187.1510  178.2050  147.5580 C   0  0  0  0  0  0  0  0  0  0  0  0
  188.5400  177.6370  145.6310 C   0  0  0  0  0  0  0  0  0  0  0  0
  185.9590  178.5690  148.0700 F   0  0  0  0  0  0  0  0  0  0  0  0
  187.2940  178.0040  146.1810 C   0  0  0  0  0  3  0  0  0  0  0  0
  188.2470  178.0420  148.4020 C   0  0  0  0  0  3  0  0  0  0  0  0
  1  3  1  0  0  0  0
  1  4  2  0  0  0  0
  2 11  1  0  0  0  0
  3 16  1  1  0  0  0
  3  6  1  0  0  0  0
  4  7  1  0  0  0  0
  5  1  1  0  0  0  0
  6  7  2  0  0  0  0
  7 48  1  0  0  0  0
  8 12  1  1  0  0  0
 10  2  1  6  0  0  0
 10  5  1  0  0  0  0
 10  8  1  0  0  0  0
 11 14  1  0  0  0  0
 12  4  1  0  0  0  0
 13  9  2  0  0  0  0
 14 13  1  0  0  0  0
 14  8  1  0  0  0  0
 16 15  2  0  0  0  0
 17 16  1  0  0  0  0
 17 18  1  0  0  0  0
 19 18  1  1  0  0  0
 19 21  1  0  0  0  0
 20 22  1  6  0  0  0
 20 19  1  0  0  0  0
 20 21  1  0  0  0  0
 24 25  1  1  0  0  0
 24 31  1  0  0  0  0
 24 26  1  0  0  0  0
 25 26  1  0  0  0  0
 25 27  1  0  0  0  0
 26 22  1  1  0  0  0
 27 23  2  0  0  0  0
 28 33  1  0  0  0  0
 28 32  2  0  0  0  0
 30 29  1  0  0  0  0
 31 33  1  6  0  0  0
 31 29  1  0  0  0  0
 32 30  1  0  0  0  0
 34 35  1  0  0  0  0
 35 27  1  0  0  0  0
 36 37  1  0  0  0  0
 36 13  1  0  0  0  0
 38 37  1  0  0  0  0
 38 41  1  0  0  0  0
 39 38  2  0  0  0  0
 41 40  1  6  0  0  0
 41 44  1  0  0  0  0
 41 42  1  0  0  0  0
 44 43  1  1  0  0  0
 45 44  1  0  0  0  0
 46 45  1  0  0  0  0
 47 46  1  0  0  0  0
 48 52  1  0  0  0  0
 49 53  1  0  0  0  0
 50 52  1  0  0  0  0
 50 49  2  0  0  0  0
 51 53  1  0  0  0  0
 52 51  2  0  0  0  0
 53 57  1  0  0  0  0
 54 60  1  0  0  0  0
 55 54  2  0  0  0  0
 56 58  1  0  0  0  0
 56 60  2  0  0  0  0
 57 59  2  0  0  0  0
 57 55  1  0  0  0  0
 59 56  1  0  0  0  0
M  END
>  <MODEL>
8

>  <REMARK>
 VINA RESULT:      -5.5      3.645     10.029
  Name = 
  18 active torsions:
  status: ('A' for Active; 'I' for Inactive)
    1  A    between atoms: C_9  and  C_25
    2  A    between atoms: C_10  and  C_60
    3  A    between atoms: O_12  and  C_48
    4  A    between atoms: C_13  and  C_18
    5  A    between atoms: C_13  and  C_27
    6  A    between atoms: C_15  and  C_24
    7  A    between atoms: C_15  and  C_47
    8  A    between atoms: C_18  and  C_57
    9  A    between atoms: C_20  and  C_42
   10  A    between atoms: C_25  and  S_56
   11  A    between atoms: C_27  and  C_44
   12  A    between atoms: C_28  and  C_29
   13  A    between atoms: C_29  and  C_37
   14  A    between atoms: C_32  and  N_52
   15  A    between atoms: N_40  and  C_50
   16  A    between atoms: C_42  and  S_56
   17  A    between atoms: C_44  and  C_59
   18  A    between atoms: C_59  and  C_60
                            x       y       z     vdW  Elec       q    Type
                         _______ _______ _______ _____ _____    ______ ____

>  <TORSDO>
F 18

$$$$
=
 OpenBabel11032420063D

 60 67  0  0  1  0  0  0  0  0999 V2000
  189.3440  175.1560  136.7420 C   0  0  0  0  0  0  0  0  0  0  0  0
  193.0950  174.8630  137.6560 C   0  0  0  0  0  2  0  0  0  0  0  0
  187.9650  175.5120  137.1900 C   0  0  2  0  0  3  0  0  0  0  0  0
  189.2530  174.2760  135.7470 C   0  0  0  0  0  0  0  0  0  0  0  0
  190.5970  175.4500  137.5360 C   0  0  0  0  0  2  0  0  0  0  0  0
  187.1140  174.6710  136.3520 N   0  0  0  0  0  0  0  0  0  0  0  0
  187.8480  174.0090  135.5290 C   0  0  0  0  0  0  0  0  0  0  0  0
  191.5830  173.4200  136.4960 C   0  0  1  0  0  3  0  0  0  0  0  0
  192.2570  170.7640  135.5680 O   0  0  0  0  0  0  0  0  0  0  0  0
  191.8190  174.8680  136.8410 C   0  0  2  0  0  3  0  0  0  0  0  0
  193.8920  173.7070  137.0560 C   0  0  0  0  0  2  0  0  0  0  0  0
  190.6330  173.4130  134.9520 S   0  0  0  0  0  0  0  0  0  0  0  0
  193.1660  171.4760  136.0670 C   0  0  0  0  0  0  0  0  0  0  0  0
  192.9130  172.8540  136.3860 N   0  0  0  0  0  0  0  0  0  0  0  0
  186.7590  177.2900  136.1980 O   0  0  0  0  0  0  0  0  0  0  0  0
  187.6720  176.9580  136.9420 C   0  0  0  0  0  0  0  0  0  0  0  0
  188.6060  178.2080  137.8090 S   0  0  0  0  0  0  0  0  0  0  0  0
  187.4860  178.1990  139.2380 C   0  0  0  0  0  2  0  0  0  0  0  0
  188.2070  178.6920  140.4730 C   0  0  1  0  0  3  0  0  0  0  0  0
  188.5860  177.4860  141.3090 C   0  0  1  0  0  3  0  0  0  0  0  0
  189.6300  178.1790  140.4570 C   0  0  0  0  0  2  0  0  0  0  0  0
  188.7470  177.9150  142.7540 C   0  0  0  0  0  2  0  0  0  0  0  0
  190.6590  177.3850  145.9600 O   0  0  0  0  0  0  0  0  0  0  0  0
  187.1940  177.0410  144.4770 N   0  0  2  0  0  0  0  0  0  0  0  0
  188.5390  177.1470  145.0590 N   0  0  0  0  0  0  0  0  0  0  0  0
  188.2660  176.7860  143.6730 C   0  0  2  0  0  3  0  0  0  0  0  0
  189.4160  177.4220  146.1450 C   0  0  0  0  0  0  0  0  0  0  0  0
  184.3650  178.2580  143.3600 C   0  0  0  0  0  3  0  0  0  0  0  0
  185.8660  178.7090  145.7130 C   0  0  0  0  0  2  0  0  0  0  0  0
  184.5210  179.3910  145.4450 C   0  0  0  0  0  2  0  0  0  0  0  0
  186.6470  178.4010  144.4150 C   0  0  2  0  0  3  0  0  0  0  0  0
  183.7850  178.6490  144.4420 N   0  0  0  0  0  0  0  0  0  0  0  0
  185.8140  178.5800  143.1270 C   0  0  0  0  0  2  0  0  0  0  0  0
  188.0330  176.8160  148.0860 C   0  0  0  0  0  1  0  0  0  0  0  0
  188.8820  177.7230  147.3980 O   0  0  0  0  0  0  0  0  0  0  0  0
  194.4780  170.8420  136.3920 C   0  0  0  0  0  2  0  0  0  0  0  0
  195.5650  171.5310  135.6000 C   0  0  0  0  0  2  0  0  0  0  0  0
  196.7440  171.8370  136.4660 C   0  0  0  0  0  0  0  0  0  0  0  0
  196.5970  171.8330  137.6770 O   0  0  0  0  0  0  0  0  0  0  0  0
  199.1660  171.4590  136.7610 C   0  0  0  0  0  1  0  0  0  0  0  0
  198.1080  172.0790  135.8590 C   0  0  1  0  0  0  0  0  0  0  0  0
  198.1930  171.4480  134.6150 O   0  0  0  0  0  1  0  0  0  0  0  0
  199.0200  174.1060  136.8180 O   0  0  0  0  0  1  0  0  0  0  0  0
  198.4090  173.5770  135.6780 C   0  0  2  0  0  3  0  0  0  0  0  0
  197.1690  174.4090  135.3350 C   0  0  0  0  0  2  0  0  0  0  0  0
  196.9210  175.5000  136.3640 C   0  0  0  0  0  2  0  0  0  0  0  0
  197.3590  176.7330  135.8790 O   0  0  0  0  0  1  0  0  0  0  0  0
  187.3160  172.9690  134.5940 C   0  0  0  0  0  2  0  0  0  0  0  0
  184.3230  171.2290  135.7460 C   0  0  0  0  0  3  0  0  0  0  0  0
  185.6910  171.2320  135.5430 C   0  0  0  0  0  3  0  0  0  0  0  0
  184.7990  173.1890  134.9010 C   0  0  0  0  0  3  0  0  0  0  0  0
  185.9700  172.4760  135.0150 C   0  0  0  0  0  0  0  0  0  0  0  0
  183.8000  172.4130  135.3580 N   0  0  0  0  0  0  0  0  0  0  0  0
  180.6290  174.3950  135.0920 C   0  0  0  0  0  3  0  0  0  0  0  0
  181.9850  174.0470  135.0260 C   0  0  0  0  0  3  0  0  0  0  0  0
  180.0940  172.1950  135.9290 C   0  0  0  0  0  0  0  0  0  0  0  0
  182.4100  172.7720  135.4100 C   0  0  0  0  0  0  0  0  0  0  0  0
  179.1830  171.2980  136.3520 F   0  0  0  0  0  0  0  0  0  0  0  0
  181.4480  171.8470  135.8650 C   0  0  0  0  0  3  0  0  0  0  0  0
  179.6860  173.4690  135.5420 C   0  0  0  0  0  3  0  0  0  0  0  0
  1  3  1  0  0  0  0
  1  5  1  0  0  0  0
  3 16  1  6  0  0  0
  4  1  2  0  0  0  0
  6  3  1  0  0  0  0
  7  4  1  0  0  0  0
  7  6  2  0  0  0  0
  8 12  1  6  0  0  0
  8 10  1  0  0  0  0
  9 13  2  0  0  0  0
 10  5  1  1  0  0  0
 10  2  1  0  0  0  0
 11  2  1  0  0  0  0
 12  4  1  0  0  0  0
 13 14  1  0  0  0  0
 13 36  1  0  0  0  0
 14  8  1  0  0  0  0
 14 11  1  0  0  0  0
 15 16  2  0  0  0  0
 16 17  1  0  0  0  0
 17 18  1  0  0  0  0
 19 18  1  6  0  0  0
 19 20  1  0  0  0  0
 20 22  1  1  0  0  0
 21 19  1  0  0  0  0
 21 20  1  0  0  0  0
 23 27  2  0  0  0  0
 24 25  1  1  0  0  0
 25 27  1  0  0  0  0
 26 22  1  6  0  0  0
 26 24  1  0  0  0  0
 26 25  1  0  0  0  0
 27 35  1  0  0  0  0
 28 32  2  0  0  0  0
 30 29  1  0  0  0  0
 31 33  1  6  0  0  0
 31 24  1  0  0  0  0
 31 29  1  0  0  0  0
 32 30  1  0  0  0  0
 33 28  1  0  0  0  0
 35 34  1  0  0  0  0
 37 36  1  0  0  0  0
 37 38  1  0  0  0  0
 38 39  2  0  0  0  0
 41 38  1  0  0  0  0
 41 40  1  1  0  0  0
 42 41  1  0  0  0  0
 44 41  1  0  0  0  0
 44 43  1  1  0  0  0
 45 44  1  0  0  0  0
 45 46  1  0  0  0  0
 47 46  1  0  0  0  0
 48 52  1  0  0  0  0
 48  7  1  0  0  0  0
 50 49  2  0  0  0  0
 51 52  2  0  0  0  0
 51 53  1  0  0  0  0
 52 50  1  0  0  0  0
 53 57  1  0  0  0  0
 53 49  1  0  0  0  0
 54 60  1  0  0  0  0
 55 54  2  0  0  0  0
 55 57  1  0  0  0  0
 56 58  1  0  0  0  0
 57 59  2  0  0  0  0
 59 56  1  0  0  0  0
 60 56  2  0  0  0  0
M  END
>  <MODEL>
9

>  <REMARK>
 VINA RESULT:      -5.4      4.006      7.246
  Name = 
  18 active torsions:
  status: ('A' for Active; 'I' for Inactive)
    1  A    between atoms: C_9  and  C_25
    2  A    between atoms: C_10  and  C_60
    3  A    between atoms: O_12  and  C_48
    4  A    between atoms: C_13  and  C_18
    5  A    between atoms: C_13  and  C_27
    6  A    between atoms: C_15  and  C_24
    7  A    between atoms: C_15  and  C_47
    8  A    between atoms: C_18  and  C_57
    9  A    between atoms: C_20  and  C_42
   10  A    between atoms: C_25  and  S_56
   11  A    between atoms: C_27  and  C_44
   12  A    between atoms: C_28  and  C_29
   13  A    between atoms: C_29  and  C_37
   14  A    between atoms: C_32  and  N_52
   15  A    between atoms: N_40  and  C_50
   16  A    between atoms: C_42  and  S_56
   17  A    between atoms: C_44  and  C_59
   18  A    between atoms: C_59  and  C_60
                            x       y       z     vdW  Elec       q    Type
                         _______ _______ _______ _____ _____    ______ ____

>  <TORSDO>
F 18

$$$$
