=
 OpenBabel11032419113D

 42 46  0  0  1  0  0  0  0  0999 V2000
  185.3920  178.1710  143.9120 C   0  0  0  0  0  0  0  0  0  0  0  0
  180.8680  179.7550  142.1250 C   0  0  0  0  0  0  0  0  0  0  0  0
  183.4300  178.0640  140.1740 O   0  0  0  0  0  0  0  0  0  0  0  0
  183.3240  178.9980  144.8760 C   0  0  0  0  0  3  0  0  0  0  0  0
  179.8880  180.5360  141.9840 O   0  0  0  0  0  0  0  0  0  0  0  0
  182.7120  178.9760  143.6170 C   0  0  0  0  0  0  0  0  0  0  0  0
  181.5540  179.2180  140.9740 N   0  0  0  0  0  0  0  0  0  0  0  0
  184.6560  178.6030  145.0220 C   0  0  0  0  0  3  0  0  0  0  0  0
  183.4490  178.5520  142.4940 C   0  0  0  0  0  0  0  0  0  0  0  0
  182.8280  178.5770  141.1590 C   0  0  0  0  0  0  0  0  0  0  0  0
  180.4040  178.1460  143.9300 C   0  0  0  0  0  1  0  0  0  0  0  0
  184.7830  178.1520  142.6500 C   0  0  0  0  0  3  0  0  0  0  0  0
  181.2560  179.3310  143.5110 C   0  0  2  0  0  3  0  0  0  0  0  0
  186.7940  177.7390  144.0660 C   0  0  0  0  0  0  0  0  0  0  0  0
  187.3330  177.0190  143.1820 O   0  0  0  0  0  0  0  0  0  0  0  0
  187.5450  178.1440  145.2150 N   0  0  0  0  0  2  0  0  0  0  0  0
  188.9150  177.7140  145.4460 C   0  0  0  0  0  2  0  0  0  0  0  0
  189.2150  177.7070  146.9340 C   0  0  0  0  0  2  0  0  0  0  0  0
  189.8890  176.4020  147.3250 C   0  0  0  0  0  2  0  0  0  0  0  0
  191.9140  176.0850  145.9900 O   0  0  0  0  0  0  0  0  0  0  0  0
  191.3290  176.5080  147.1600 N   0  0  0  0  0  0  0  0  0  0  0  0
  192.0140  177.1030  148.0170 O   0  0  0  0  0  0  0  0  0  0  0  0
  181.0270  179.3560  139.6050 C   0  0  2  0  0  3  0  0  0  0  0  0
  180.0590  176.9050  139.9610 C   0  0  0  0  0  2  0  0  0  0  0  0
  178.9310  177.8220  139.4960 C   0  0  0  0  0  2  0  0  0  0  0  0
  180.3580  178.0810  139.0580 C   0  0  0  0  0  0  0  0  0  0  0  0
  181.5190  176.5720  135.9110 O   0  0  0  0  0  0  0  0  0  0  0  0
  180.5500  177.7670  137.6480 N   0  0  0  0  0  2  0  0  0  0  0  0
  181.3280  176.6730  137.1510 C   0  0  0  0  0  0  0  0  0  0  0  0
  181.9410  175.6660  138.0760 C   0  0  0  0  0  2  0  0  0  0  0  0
  182.7000  173.6070  137.1440 O   0  0  0  0  0  0  0  0  0  0  0  0
  181.7230  174.2700  137.5830 C   0  0  0  0  0  0  0  0  0  0  0  0
  179.6210  173.6390  136.4370 O   0  0  0  0  0  0  0  0  0  0  0  0
  179.9210  173.1620  138.6540 O   0  0  0  0  0  1  0  0  0  0  0  0
  180.3840  173.6650  137.5980 C   0  0  0  0  0  0  0  0  0  0  0  0
  182.0600  179.9290  138.6420 C   0  0  0  0  0  2  0  0  0  0  0  0
  181.8650  181.4260  138.4910 C   0  0  0  0  0  2  0  0  0  0  0  0
  179.5250  183.6970  136.8090 C   0  0  2  0  0  3  0  0  0  0  0  0
  178.9310  183.0930  135.7000 O   0  0  0  0  0  1  0  0  0  0  0  0
  180.8720  181.6920  137.3820 C   0  0  2  0  0  3  0  0  0  0  0  0
  180.9300  183.1570  136.9960 C   0  0  2  0  0  3  0  0  0  0  0  0
  179.8080  182.6530  137.8730 C   0  0  1  0  0  3  0  0  0  0  0  0
  1 14  1  0  0  0  0
  1  8  1  0  0  0  0
  2 13  1  0  0  0  0
  3 10  2  0  0  0  0
  4  8  2  0  0  0  0
  5  2  2  0  0  0  0
  6  4  1  0  0  0  0
  7 10  1  0  0  0  0
  7  2  1  0  0  0  0
  9 12  1  0  0  0  0
  9  6  2  0  0  0  0
 10  9  1  0  0  0  0
 12  1  2  0  0  0  0
 13  6  1  0  0  0  0
 13 11  1  6  0  0  0
 14 16  1  0  0  0  0
 15 14  2  0  0  0  0
 16 17  1  0  0  0  0
 17 18  1  0  0  0  0
 18 19  1  0  0  0  0
 20 21  2  0  0  0  0
 21 19  1  0  0  0  0
 21 22  2  0  0  0  0
 23 36  1  6  0  0  0
 23  7  1  0  0  0  0
 25 24  1  0  0  0  0
 26 25  1  0  0  0  0
 26 23  1  0  0  0  0
 26 24  1  0  0  0  0
 27 29  2  0  0  0  0
 28 26  1  0  0  0  0
 29 28  1  0  0  0  0
 29 30  1  0  0  0  0
 31 32  2  0  0  0  0
 32 35  1  0  0  0  0
 32 30  1  0  0  0  0
 33 35  2  0  0  0  0
 35 34  1  0  0  0  0
 37 36  1  0  0  0  0
 38 41  1  0  0  0  0
 38 42  1  0  0  0  0
 39 38  1  0  0  0  0
 40 42  1  0  0  0  0
 40 37  1  0  0  0  0
 41 40  1  0  0  0  0
 41 42  1  0  0  0  0
M  END
>  <MODEL>
1

>  <REMARK>
 VINA RESULT:      -7.4      0.000      0.000
  Name = 
  14 active torsions:
  status: ('A' for Active; 'I' for Inactive)
    1  A    between atoms: C_1  and  C_8
    2  A    between atoms: C_5  and  C_7
    3  A    between atoms: C_5  and  N_20
    4  A    between atoms: C_7  and  C_11
    5  A    between atoms: C_11  and  N_40
    6  A    between atoms: C_13  and  C_36
    7  A    between atoms: N_16  and  C_24
    8  A    between atoms: C_23  and  C_28
    9  A    between atoms: C_23  and  C_35
   10  A    between atoms: C_24  and  C_28
   11  A    between atoms: C_24  and  C_41
   12  A    between atoms: C_25  and  C_36
   13  A    between atoms: C_25  and  C_39
   14  A    between atoms: N_32  and  C_41
                            x       y       z     vdW  Elec       q    Type
                         _______ _______ _______ _____ _____    ______ ____

>  <TORSDO>
F 14

$$$$
=
 OpenBabel11032419113D

 42 46  0  0  1  0  0  0  0  0999 V2000
  185.2990  178.3660  144.1830 C   0  0  0  0  0  0  0  0  0  0  0  0
  180.9110  179.3420  141.7400 C   0  0  0  0  0  0  0  0  0  0  0  0
  183.5710  177.1840  140.5160 O   0  0  0  0  0  0  0  0  0  0  0  0
  183.1830  179.4180  144.7410 C   0  0  0  0  0  3  0  0  0  0  0  0
  179.9500  180.0430  141.3220 O   0  0  0  0  0  0  0  0  0  0  0  0
  182.6510  179.0340  143.5050 C   0  0  0  0  0  0  0  0  0  0  0  0
  181.6620  178.5040  140.8350 N   0  0  0  0  0  0  0  0  0  0  0  0
  184.4990  179.0910  145.0760 C   0  0  0  0  0  3  0  0  0  0  0  0
  183.4510  178.3130  142.5980 C   0  0  0  0  0  0  0  0  0  0  0  0
  182.9140  177.9510  141.2740 C   0  0  0  0  0  0  0  0  0  0  0  0
  180.3190  178.3100  143.8960 C   0  0  0  0  0  1  0  0  0  0  0  0
  184.7680  177.9840  142.9430 C   0  0  0  0  0  3  0  0  0  0  0  0
  181.2080  179.3330  143.2110 C   0  0  2  0  0  3  0  0  0  0  0  0
  186.6830  178.0060  144.5420 C   0  0  0  0  0  0  0  0  0  0  0  0
  187.0510  178.0370  145.7490 O   0  0  0  0  0  0  0  0  0  0  0  0
  187.6080  177.6120  143.5230 N   0  0  0  0  0  2  0  0  0  0  0  0
  188.9960  177.2890  143.8080 C   0  0  0  0  0  2  0  0  0  0  0  0
  189.8910  177.8160  142.7000 C   0  0  0  0  0  2  0  0  0  0  0  0
  189.0980  177.9560  141.4110 C   0  0  0  0  0  2  0  0  0  0  0  0
  189.1280  177.1010  139.1180 O   0  0  0  0  0  0  0  0  0  0  0  0
  189.5920  177.0240  140.4100 N   0  0  0  0  0  0  0  0  0  0  0  0
  190.5290  176.2480  140.6890 O   0  0  0  0  0  0  0  0  0  0  0  0
  181.2220  178.2420  139.4530 C   0  0  2  0  0  3  0  0  0  0  0  0
  181.5850  180.7210  138.5630 C   0  0  0  0  0  2  0  0  0  0  0  0
  182.9440  180.0990  138.8670 C   0  0  0  0  0  2  0  0  0  0  0  0
  181.7890  179.2300  138.4160 C   0  0  0  0  0  0  0  0  0  0  0  0
  183.1040  177.5120  135.4410 O   0  0  0  0  0  0  0  0  0  0  0  0
  181.9820  178.7450  137.0550 N   0  0  0  0  0  2  0  0  0  0  0  0
  182.9490  177.7640  136.6650 C   0  0  0  0  0  0  0  0  0  0  0  0
  183.7980  177.0570  137.6770 C   0  0  0  0  0  2  0  0  0  0  0  0
  185.7640  176.2520  136.5960 O   0  0  0  0  0  0  0  0  0  0  0  0
  185.2500  177.1420  137.3240 C   0  0  0  0  0  0  0  0  0  0  0  0
  186.0460  178.5930  139.1650 O   0  0  0  0  0  1  0  0  0  0  0  0
  186.8400  178.8780  137.0380 O   0  0  0  0  0  0  0  0  0  0  0  0
  186.0830  178.2450  137.8210 C   0  0  0  0  0  0  0  0  0  0  0  0
  179.7100  178.0890  139.3450 C   0  0  0  0  0  2  0  0  0  0  0  0
  179.3250  176.6230  139.3910 C   0  0  0  0  0  2  0  0  0  0  0  0
  180.3870  173.5760  137.6420 C   0  0  2  0  0  3  0  0  0  0  0  0
  181.7540  173.5960  137.3620 O   0  0  0  0  0  1  0  0  0  0  0  0
  180.4190  175.7980  138.7510 C   0  0  2  0  0  3  0  0  0  0  0  0
  179.8360  174.9900  137.6080 C   0  0  2  0  0  3  0  0  0  0  0  0
  180.1170  174.3240  138.9360 C   0  0  1  0  0  3  0  0  0  0  0  0
  1 14  1  0  0  0  0
  1  8  1  0  0  0  0
  2 13  1  0  0  0  0
  3 10  2  0  0  0  0
  4  8  2  0  0  0  0
  5  2  2  0  0  0  0
  6  4  1  0  0  0  0
  7 10  1  0  0  0  0
  7  2  1  0  0  0  0
  9 12  1  0  0  0  0
  9  6  2  0  0  0  0
 10  9  1  0  0  0  0
 12  1  2  0  0  0  0
 13  6  1  0  0  0  0
 13 11  1  1  0  0  0
 14 15  2  0  0  0  0
 16 17  1  0  0  0  0
 16 14  1  0  0  0  0
 18 17  1  0  0  0  0
 19 18  1  0  0  0  0
 20 21  2  0  0  0  0
 21 22  2  0  0  0  0
 21 19  1  0  0  0  0
 23 36  1  1  0  0  0
 23  7  1  0  0  0  0
 24 25  1  0  0  0  0
 26 24  1  0  0  0  0
 26 25  1  0  0  0  0
 26 23  1  0  0  0  0
 27 29  2  0  0  0  0
 28 26  1  0  0  0  0
 29 28  1  0  0  0  0
 29 30  1  0  0  0  0
 31 32  2  0  0  0  0
 32 30  1  0  0  0  0
 32 35  1  0  0  0  0
 34 35  2  0  0  0  0
 35 33  1  0  0  0  0
 36 37  1  0  0  0  0
 38 42  1  0  0  0  0
 39 38  1  0  0  0  0
 40 42  1  0  0  0  0
 40 37  1  0  0  0  0
 41 38  1  0  0  0  0
 41 40  1  0  0  0  0
 41 42  1  0  0  0  0
M  END
>  <MODEL>
2

>  <REMARK>
 VINA RESULT:      -7.1      2.379      4.795
  Name = 
  14 active torsions:
  status: ('A' for Active; 'I' for Inactive)
    1  A    between atoms: C_1  and  C_8
    2  A    between atoms: C_5  and  C_7
    3  A    between atoms: C_5  and  N_20
    4  A    between atoms: C_7  and  C_11
    5  A    between atoms: C_11  and  N_40
    6  A    between atoms: C_13  and  C_36
    7  A    between atoms: N_16  and  C_24
    8  A    between atoms: C_23  and  C_28
    9  A    between atoms: C_23  and  C_35
   10  A    between atoms: C_24  and  C_28
   11  A    between atoms: C_24  and  C_41
   12  A    between atoms: C_25  and  C_36
   13  A    between atoms: C_25  and  C_39
   14  A    between atoms: N_32  and  C_41
                            x       y       z     vdW  Elec       q    Type
                         _______ _______ _______ _____ _____    ______ ____

>  <TORSDO>
F 14

$$$$
=
 OpenBabel11032419113D

 42 46  0  0  1  0  0  0  0  0999 V2000
  185.5030  178.2370  143.7490 C   0  0  0  0  0  0  0  0  0  0  0  0
  180.9050  179.4850  141.8850 C   0  0  0  0  0  0  0  0  0  0  0  0
  183.3270  177.3190  140.2490 O   0  0  0  0  0  0  0  0  0  0  0  0
  183.5060  179.3200  144.6020 C   0  0  0  0  0  3  0  0  0  0  0  0
  179.9300  180.2380  141.6180 O   0  0  0  0  0  0  0  0  0  0  0  0
  182.8220  179.0240  143.4180 C   0  0  0  0  0  0  0  0  0  0  0  0
  181.5170  178.6770  140.8560 N   0  0  0  0  0  0  0  0  0  0  0  0
  184.8380  178.9350  144.7650 C   0  0  0  0  0  3  0  0  0  0  0  0
  183.4870  178.3320  142.3870 C   0  0  0  0  0  0  0  0  0  0  0  0
  182.7900  178.0620  141.1180 C   0  0  0  0  0  0  0  0  0  0  0  0
  180.5240  178.3510  144.0370 C   0  0  0  0  0  1  0  0  0  0  0  0
  184.8220  177.9430  142.5600 C   0  0  0  0  0  3  0  0  0  0  0  0
  181.3670  179.3830  143.3090 C   0  0  2  0  0  3  0  0  0  0  0  0
  186.9050  177.8150  143.9260 C   0  0  0  0  0  0  0  0  0  0  0  0
  187.4670  177.1060  143.0470 O   0  0  0  0  0  0  0  0  0  0  0  0
  187.6330  178.2180  145.0910 N   0  0  0  0  0  2  0  0  0  0  0  0
  189.0020  177.7980  145.3430 C   0  0  0  0  0  2  0  0  0  0  0  0
  189.0550  176.9050  146.5690 C   0  0  0  0  0  2  0  0  0  0  0  0
  190.2830  177.2350  147.4030 C   0  0  0  0  0  2  0  0  0  0  0  0
  191.7740  176.3240  145.6910 O   0  0  0  0  0  0  0  0  0  0  0  0
  191.4000  176.3910  147.0120 N   0  0  0  0  0  0  0  0  0  0  0  0
  192.0990  175.8360  147.8850 O   0  0  0  0  0  0  0  0  0  0  0  0
  180.9140  178.5080  139.5220 C   0  0  2  0  0  3  0  0  0  0  0  0
  181.3380  181.0330  138.8030 C   0  0  0  0  0  2  0  0  0  0  0  0
  182.6660  180.2820  138.7870 C   0  0  0  0  0  2  0  0  0  0  0  0
  181.3720  179.5540  138.4880 C   0  0  0  0  0  0  0  0  0  0  0  0
  181.9470  178.0510  135.1810 O   0  0  0  0  0  0  0  0  0  0  0  0
  181.2690  179.2020  137.0780 N   0  0  0  0  0  2  0  0  0  0  0  0
  182.0390  178.1850  136.4300 C   0  0  0  0  0  0  0  0  0  0  0  0
  182.9720  177.3000  137.2000 C   0  0  0  0  0  2  0  0  0  0  0  0
  184.5260  177.0850  135.4040 O   0  0  0  0  0  0  0  0  0  0  0  0
  184.3540  177.3370  136.6270 C   0  0  0  0  0  0  0  0  0  0  0  0
  186.6060  176.8020  137.5030 O   0  0  0  0  0  0  0  0  0  0  0  0
  185.5270  178.7070  138.1660 O   0  0  0  0  0  1  0  0  0  0  0  0
  185.5120  177.6570  137.4720 C   0  0  0  0  0  0  0  0  0  0  0  0
  179.3970  178.3780  139.5850 C   0  0  0  0  0  2  0  0  0  0  0  0
  179.0000  176.9230  139.7490 C   0  0  0  0  0  2  0  0  0  0  0  0
  179.9880  173.6130  138.5110 C   0  0  2  0  0  3  0  0  0  0  0  0
  180.8960  173.7100  137.4560 O   0  0  0  0  0  1  0  0  0  0  0  0
  179.8070  176.0730  138.7930 C   0  0  2  0  0  3  0  0  0  0  0  0
  179.0430  174.8000  138.4860 C   0  0  2  0  0  3  0  0  0  0  0  0
  180.1890  174.7720  139.4710 C   0  0  1  0  0  3  0  0  0  0  0  0
  1 14  1  0  0  0  0
  1  8  1  0  0  0  0
  2 13  1  0  0  0  0
  3 10  2  0  0  0  0
  4  8  2  0  0  0  0
  5  2  2  0  0  0  0
  6  4  1  0  0  0  0
  7 10  1  0  0  0  0
  7  2  1  0  0  0  0
  9 12  1  0  0  0  0
  9  6  2  0  0  0  0
 10  9  1  0  0  0  0
 12  1  2  0  0  0  0
 13  6  1  0  0  0  0
 13 11  1  1  0  0  0
 14 16  1  0  0  0  0
 15 14  2  0  0  0  0
 16 17  1  0  0  0  0
 17 18  1  0  0  0  0
 18 19  1  0  0  0  0
 20 21  2  0  0  0  0
 21 19  1  0  0  0  0
 21 22  2  0  0  0  0
 23 36  1  1  0  0  0
 23  7  1  0  0  0  0
 25 24  1  0  0  0  0
 26 25  1  0  0  0  0
 26 24  1  0  0  0  0
 26 23  1  0  0  0  0
 27 29  2  0  0  0  0
 28 26  1  0  0  0  0
 29 28  1  0  0  0  0
 29 30  1  0  0  0  0
 31 32  2  0  0  0  0
 32 30  1  0  0  0  0
 32 35  1  0  0  0  0
 35 33  2  0  0  0  0
 35 34  1  0  0  0  0
 36 37  1  0  0  0  0
 38 42  1  0  0  0  0
 39 38  1  0  0  0  0
 40 42  1  0  0  0  0
 40 37  1  0  0  0  0
 41 38  1  0  0  0  0
 41 40  1  0  0  0  0
 41 42  1  0  0  0  0
M  END
>  <MODEL>
3

>  <REMARK>
 VINA RESULT:      -7.1      1.567      4.024
  Name = 
  14 active torsions:
  status: ('A' for Active; 'I' for Inactive)
    1  A    between atoms: C_1  and  C_8
    2  A    between atoms: C_5  and  C_7
    3  A    between atoms: C_5  and  N_20
    4  A    between atoms: C_7  and  C_11
    5  A    between atoms: C_11  and  N_40
    6  A    between atoms: C_13  and  C_36
    7  A    between atoms: N_16  and  C_24
    8  A    between atoms: C_23  and  C_28
    9  A    between atoms: C_23  and  C_35
   10  A    between atoms: C_24  and  C_28
   11  A    between atoms: C_24  and  C_41
   12  A    between atoms: C_25  and  C_36
   13  A    between atoms: C_25  and  C_39
   14  A    between atoms: N_32  and  C_41
                            x       y       z     vdW  Elec       q    Type
                         _______ _______ _______ _____ _____    ______ ____

>  <TORSDO>
F 14

$$$$
=
 OpenBabel11032419113D

 42 46  0  0  1  0  0  0  0  0999 V2000
  185.2380  178.2760  143.8070 C   0  0  0  0  0  0  0  0  0  0  0  0
  180.6720  179.6850  141.9790 C   0  0  0  0  0  0  0  0  0  0  0  0
  183.3190  178.1060  140.0490 O   0  0  0  0  0  0  0  0  0  0  0  0
  183.1280  179.0150  144.7520 C   0  0  0  0  0  3  0  0  0  0  0  0
  179.6630  180.4270  141.8320 O   0  0  0  0  0  0  0  0  0  0  0  0
  182.5310  178.9740  143.4880 C   0  0  0  0  0  0  0  0  0  0  0  0
  181.3910  179.1810  140.8330 N   0  0  0  0  0  0  0  0  0  0  0  0
  184.4730  178.6730  144.9110 C   0  0  0  0  0  3  0  0  0  0  0  0
  183.2950  178.5850  142.3710 C   0  0  0  0  0  0  0  0  0  0  0  0
  182.6870  178.5900  141.0290 C   0  0  0  0  0  0  0  0  0  0  0  0
  180.2540  178.0510  143.7730 C   0  0  0  0  0  1  0  0  0  0  0  0
  184.6420  178.2380  142.5380 C   0  0  0  0  0  3  0  0  0  0  0  0
  181.0620  179.2710  143.3680 C   0  0  2  0  0  3  0  0  0  0  0  0
  186.6540  177.8990  143.9740 C   0  0  0  0  0  0  0  0  0  0  0  0
  187.0940  177.5880  145.1150 O   0  0  0  0  0  0  0  0  0  0  0  0
  187.5280  177.8770  142.8410 N   0  0  0  0  0  2  0  0  0  0  0  0
  188.9420  177.5580  142.9490 C   0  0  0  0  0  2  0  0  0  0  0  0
  189.5350  177.3450  141.5680 C   0  0  0  0  0  2  0  0  0  0  0  0
  188.6360  177.9710  140.5120 C   0  0  0  0  0  2  0  0  0  0  0  0
  190.4810  177.4960  138.9780 O   0  0  0  0  0  0  0  0  0  0  0  0
  189.4010  178.2780  139.3150 N   0  0  0  0  0  0  0  0  0  0  0  0
  189.0030  179.1600  138.5280 O   0  0  0  0  0  0  0  0  0  0  0  0
  180.8730  179.3030  139.4590 C   0  0  2  0  0  3  0  0  0  0  0  0
  180.0860  176.7790  139.7360 C   0  0  0  0  0  2  0  0  0  0  0  0
  178.9320  177.6000  139.1690 C   0  0  0  0  0  2  0  0  0  0  0  0
  180.3650  177.9790  138.8590 C   0  0  0  0  0  0  0  0  0  0  0  0
  181.9920  176.6650  135.8340 O   0  0  0  0  0  0  0  0  0  0  0  0
  180.7080  177.6880  137.4730 N   0  0  0  0  0  2  0  0  0  0  0  0
  181.7000  176.7440  137.0560 C   0  0  0  0  0  0  0  0  0  0  0  0
  182.4160  175.8740  138.0440 C   0  0  0  0  0  2  0  0  0  0  0  0
  183.7440  174.0260  137.3320 O   0  0  0  0  0  0  0  0  0  0  0  0
  182.5850  174.4820  137.5200 C   0  0  0  0  0  0  0  0  0  0  0  0
  180.3020  173.6810  138.0450 O   0  0  0  0  0  1  0  0  0  0  0  0
  181.4130  172.8920  136.2070 O   0  0  0  0  0  0  0  0  0  0  0  0
  181.4170  173.6430  137.2170 C   0  0  0  0  0  0  0  0  0  0  0  0
  181.8470  180.0240  138.5350 C   0  0  0  0  0  2  0  0  0  0  0  0
  181.6430  181.5250  138.6230 C   0  0  0  0  0  2  0  0  0  0  0  0
  179.7460  184.1440  136.8880 C   0  0  2  0  0  3  0  0  0  0  0  0
  179.3470  183.7320  135.6170 O   0  0  0  0  0  1  0  0  0  0  0  0
  180.8850  181.9990  137.4020 C   0  0  2  0  0  3  0  0  0  0  0  0
  181.0710  183.4950  137.2460 C   0  0  2  0  0  3  0  0  0  0  0  0
  179.7860  182.9520  137.8270 C   0  0  1  0  0  3  0  0  0  0  0  0
  1 14  1  0  0  0  0
  1  8  1  0  0  0  0
  2 13  1  0  0  0  0
  3 10  2  0  0  0  0
  4  8  2  0  0  0  0
  5  2  2  0  0  0  0
  6  4  1  0  0  0  0
  7 10  1  0  0  0  0
  7  2  1  0  0  0  0
  9 12  1  0  0  0  0
  9  6  2  0  0  0  0
 10  9  1  0  0  0  0
 12  1  2  0  0  0  0
 13  6  1  0  0  0  0
 13 11  1  6  0  0  0
 14 15  2  0  0  0  0
 16 17  1  0  0  0  0
 16 14  1  0  0  0  0
 18 17  1  0  0  0  0
 19 18  1  0  0  0  0
 20 21  2  0  0  0  0
 21 19  1  0  0  0  0
 22 21  2  0  0  0  0
 23 36  1  6  0  0  0
 23  7  1  0  0  0  0
 25 24  1  0  0  0  0
 26 25  1  0  0  0  0
 26 23  1  0  0  0  0
 26 24  1  0  0  0  0
 27 29  2  0  0  0  0
 28 26  1  0  0  0  0
 29 28  1  0  0  0  0
 29 30  1  0  0  0  0
 31 32  2  0  0  0  0
 32 30  1  0  0  0  0
 34 35  2  0  0  0  0
 35 32  1  0  0  0  0
 35 33  1  0  0  0  0
 36 37  1  0  0  0  0
 38 41  1  0  0  0  0
 38 42  1  0  0  0  0
 39 38  1  0  0  0  0
 40 42  1  0  0  0  0
 40 37  1  0  0  0  0
 41 40  1  0  0  0  0
 41 42  1  0  0  0  0
M  END
>  <MODEL>
4

>  <REMARK>
 VINA RESULT:      -7.0      1.934      2.838
  Name = 
  14 active torsions:
  status: ('A' for Active; 'I' for Inactive)
    1  A    between atoms: C_1  and  C_8
    2  A    between atoms: C_5  and  C_7
    3  A    between atoms: C_5  and  N_20
    4  A    between atoms: C_7  and  C_11
    5  A    between atoms: C_11  and  N_40
    6  A    between atoms: C_13  and  C_36
    7  A    between atoms: N_16  and  C_24
    8  A    between atoms: C_23  and  C_28
    9  A    between atoms: C_23  and  C_35
   10  A    between atoms: C_24  and  C_28
   11  A    between atoms: C_24  and  C_41
   12  A    between atoms: C_25  and  C_36
   13  A    between atoms: C_25  and  C_39
   14  A    between atoms: N_32  and  C_41
                            x       y       z     vdW  Elec       q    Type
                         _______ _______ _______ _____ _____    ______ ____

>  <TORSDO>
F 14

$$$$
=
 OpenBabel11032419113D

 42 46  0  0  1  0  0  0  0  0999 V2000
  185.2950  178.2330  143.3220 C   0  0  0  0  0  0  0  0  0  0  0  0
  180.5280  179.7550  142.2600 C   0  0  0  0  0  0  0  0  0  0  0  0
  182.8610  178.3110  139.8720 O   0  0  0  0  0  0  0  0  0  0  0  0
  183.3480  178.9040  144.6050 C   0  0  0  0  0  3  0  0  0  0  0  0
  179.5140  180.5030  142.3070 O   0  0  0  0  0  0  0  0  0  0  0  0
  182.5760  178.9470  143.4380 C   0  0  0  0  0  0  0  0  0  0  0  0
  181.0720  179.3290  140.9920 N   0  0  0  0  0  0  0  0  0  0  0  0
  184.6990  178.5550  144.5470 C   0  0  0  0  0  3  0  0  0  0  0  0
  183.1710  178.6340  142.2010 C   0  0  0  0  0  0  0  0  0  0  0  0
  182.3780  178.7280  140.9620 C   0  0  0  0  0  0  0  0  0  0  0  0
  180.3560  178.0040  143.9830 C   0  0  0  0  0  1  0  0  0  0  0  0
  184.5250  178.2790  142.1510 C   0  0  0  0  0  3  0  0  0  0  0  0
  181.1080  179.2490  143.5480 C   0  0  2  0  0  3  0  0  0  0  0  0
  186.7180  177.8480  143.2610 C   0  0  0  0  0  0  0  0  0  0  0  0
  187.3150  177.8110  142.1500 O   0  0  0  0  0  0  0  0  0  0  0  0
  187.4240  177.5240  144.4630 N   0  0  0  0  0  2  0  0  0  0  0  0
  188.8140  177.0950  144.4630 C   0  0  0  0  0  2  0  0  0  0  0  0
  189.4300  177.3280  145.8300 C   0  0  0  0  0  2  0  0  0  0  0  0
  188.4480  176.9280  146.9200 C   0  0  0  0  0  2  0  0  0  0  0  0
  186.9630  178.6910  147.7400 O   0  0  0  0  0  0  0  0  0  0  0  0
  188.1810  178.0560  147.7980 N   0  0  0  0  0  0  0  0  0  0  0  0
  188.9990  178.3610  148.6890 O   0  0  0  0  0  0  0  0  0  0  0  0
  180.3660  179.5420  139.7170 C   0  0  2  0  0  3  0  0  0  0  0  0
  178.9320  178.3000  137.8530 C   0  0  0  0  0  2  0  0  0  0  0  0
  180.3860  177.8500  137.7440 C   0  0  0  0  0  2  0  0  0  0  0  0
  179.8080  178.2520  139.0850 C   0  0  0  0  0  0  0  0  0  0  0  0
  179.8000  174.8410  140.4610 O   0  0  0  0  0  0  0  0  0  0  0  0
  179.6200  177.0980  139.9550 N   0  0  0  0  0  2  0  0  0  0  0  0
  180.1270  175.7860  139.6950 C   0  0  0  0  0  0  0  0  0  0  0  0
  181.0120  175.5070  138.5180 C   0  0  0  0  0  2  0  0  0  0  0  0
  179.2710  174.5170  137.2240 O   0  0  0  0  0  0  0  0  0  0  0  0
  180.4490  174.4170  137.6610 C   0  0  0  0  0  0  0  0  0  0  0  0
  182.5780  173.3770  136.9450 O   0  0  0  0  0  0  0  0  0  0  0  0
  180.7440  172.0810  137.3850 O   0  0  0  0  0  1  0  0  0  0  0  0
  181.2500  173.2320  137.3250 C   0  0  0  0  0  0  0  0  0  0  0  0
  181.1850  180.3660  138.7320 C   0  0  0  0  0  2  0  0  0  0  0  0
  180.7490  181.8180  138.7710 C   0  0  0  0  0  2  0  0  0  0  0  0
  180.8450  184.7550  136.5720 C   0  0  2  0  0  3  0  0  0  0  0  0
  180.9730  184.3880  135.2320 O   0  0  0  0  0  1  0  0  0  0  0  0
  180.8460  182.4080  137.3810 C   0  0  2  0  0  3  0  0  0  0  0  0
  181.5590  183.7440  137.4510 C   0  0  2  0  0  3  0  0  0  0  0  0
  180.0530  183.6980  137.3210 C   0  0  1  0  0  3  0  0  0  0  0  0
  1  8  1  0  0  0  0
  2  5  2  0  0  0  0
  2 13  1  0  0  0  0
  3 10  2  0  0  0  0
  6 13  1  0  0  0  0
  6  4  1  0  0  0  0
  7  2  1  0  0  0  0
  8  4  2  0  0  0  0
  9  6  2  0  0  0  0
 10  7  1  0  0  0  0
 10  9  1  0  0  0  0
 12  9  1  0  0  0  0
 12  1  2  0  0  0  0
 13 11  1  6  0  0  0
 14  1  1  0  0  0  0
 14 16  1  0  0  0  0
 15 14  2  0  0  0  0
 17 16  1  0  0  0  0
 17 18  1  0  0  0  0
 18 19  1  0  0  0  0
 19 21  1  0  0  0  0
 20 21  2  0  0  0  0
 21 22  2  0  0  0  0
 23 36  1  6  0  0  0
 23  7  1  0  0  0  0
 24 26  1  0  0  0  0
 25 24  1  0  0  0  0
 25 26  1  0  0  0  0
 26 23  1  0  0  0  0
 26 28  1  0  0  0  0
 29 28  1  0  0  0  0
 29 27  2  0  0  0  0
 30 29  1  0  0  0  0
 31 32  2  0  0  0  0
 32 30  1  0  0  0  0
 33 35  2  0  0  0  0
 35 34  1  0  0  0  0
 35 32  1  0  0  0  0
 36 37  1  0  0  0  0
 38 42  1  0  0  0  0
 38 41  1  0  0  0  0
 39 38  1  0  0  0  0
 40 41  1  0  0  0  0
 40 37  1  0  0  0  0
 42 40  1  0  0  0  0
 42 41  1  0  0  0  0
M  END
>  <MODEL>
5

>  <REMARK>
 VINA RESULT:      -6.9      1.530      2.002
  Name = 
  14 active torsions:
  status: ('A' for Active; 'I' for Inactive)
    1  A    between atoms: C_1  and  C_8
    2  A    between atoms: C_5  and  C_7
    3  A    between atoms: C_5  and  N_20
    4  A    between atoms: C_7  and  C_11
    5  A    between atoms: C_11  and  N_40
    6  A    between atoms: C_13  and  C_36
    7  A    between atoms: N_16  and  C_24
    8  A    between atoms: C_23  and  C_28
    9  A    between atoms: C_23  and  C_35
   10  A    between atoms: C_24  and  C_28
   11  A    between atoms: C_24  and  C_41
   12  A    between atoms: C_25  and  C_36
   13  A    between atoms: C_25  and  C_39
   14  A    between atoms: N_32  and  C_41
                            x       y       z     vdW  Elec       q    Type
                         _______ _______ _______ _____ _____    ______ ____

>  <TORSDO>
F 14

$$$$
=
 OpenBabel11032419113D

 42 46  0  0  1  0  0  0  0  0999 V2000
  182.8890  178.9620  140.5980 C   0  0  0  0  0  0  0  0  0  0  0  0
  186.4480  177.8140  144.0890 C   0  0  0  0  0  0  0  0  0  0  0  0
  187.1010  179.2000  140.7900 O   0  0  0  0  0  0  0  0  0  0  0  0
  182.9020  178.3690  142.9510 C   0  0  0  0  0  3  0  0  0  0  0  0
  187.0060  177.1350  144.9920 O   0  0  0  0  0  0  0  0  0  0  0  0
  184.3000  178.4290  142.9730 C   0  0  0  0  0  0  0  0  0  0  0  0
  187.1910  178.2580  142.9330 N   0  0  0  0  0  0  0  0  0  0  0  0
  182.2020  178.6280  141.7710 C   0  0  0  0  0  3  0  0  0  0  0  0
  185.0000  178.7550  141.7950 C   0  0  0  0  0  0  0  0  0  0  0  0
  186.4730  178.7690  141.7970 C   0  0  0  0  0  0  0  0  0  0  0  0
  184.9620  179.4950  145.1040 C   0  0  0  0  0  1  0  0  0  0  0  0
  184.2890  179.0200  140.6160 C   0  0  0  0  0  3  0  0  0  0  0  0
  185.0160  178.2230  144.2780 C   0  0  2  0  0  3  0  0  0  0  0  0
  182.1500  179.2520  139.3550 C   0  0  0  0  0  0  0  0  0  0  0  0
  181.5950  178.3160  138.7170 O   0  0  0  0  0  0  0  0  0  0  0  0
  182.0540  180.5980  138.8760 N   0  0  0  0  0  2  0  0  0  0  0  0
  181.3780  180.9410  137.6350 C   0  0  0  0  0  2  0  0  0  0  0  0
  180.7020  182.2940  137.7690 C   0  0  0  0  0  2  0  0  0  0  0  0
  180.8060  183.0610  136.4600 C   0  0  0  0  0  2  0  0  0  0  0  0
  180.9270  185.4610  136.0000 O   0  0  0  0  0  0  0  0  0  0  0  0
  181.4010  184.3670  136.6860 N   0  0  0  0  0  0  0  0  0  0  0  0
  182.2450  184.5210  137.5930 O   0  0  0  0  0  0  0  0  0  0  0  0
  188.6580  178.1490  142.8480 C   0  0  2  0  0  3  0  0  0  0  0  0
  190.4890  176.2760  142.3880 C   0  0  0  0  0  2  0  0  0  0  0  0
  189.1960  175.6060  142.8430 C   0  0  0  0  0  2  0  0  0  0  0  0
  189.1520  176.9110  142.0760 C   0  0  0  0  0  0  0  0  0  0  0  0
  188.8170  176.9300  138.4130 O   0  0  0  0  0  0  0  0  0  0  0  0
  188.6590  176.7180  140.7180 N   0  0  0  0  0  2  0  0  0  0  0  0
  189.3920  177.0280  139.5290 C   0  0  0  0  0  0  0  0  0  0  0  0
  190.8160  177.4930  139.5860 C   0  0  0  0  0  2  0  0  0  0  0  0
  191.3020  175.3280  138.7140 O   0  0  0  0  0  0  0  0  0  0  0  0
  191.7470  176.4650  139.0230 C   0  0  0  0  0  0  0  0  0  0  0  0
  193.7190  176.7510  137.5560 O   0  0  0  0  0  0  0  0  0  0  0  0
  193.9070  177.0360  139.8180 O   0  0  0  0  0  1  0  0  0  0  0  0
  193.1730  176.7630  138.8330 C   0  0  0  0  0  0  0  0  0  0  0  0
  189.3290  178.2920  144.2080 C   0  0  0  0  0  2  0  0  0  0  0  0
  190.8280  178.4540  144.0410 C   0  0  0  0  0  2  0  0  0  0  0  0
  191.3300  176.2170  146.9070 C   0  0  2  0  0  3  0  0  0  0  0  0
  192.2700  176.7310  147.8000 O   0  0  0  0  0  1  0  0  0  0  0  0
  191.5140  178.1450  145.3530 C   0  0  2  0  0  3  0  0  0  0  0  0
  191.6780  176.6450  145.4930 C   0  0  2  0  0  3  0  0  0  0  0  0
  190.5750  177.3550  146.2430 C   0  0  1  0  0  3  0  0  0  0  0  0
  1 12  2  0  0  0  0
  1  8  1  0  0  0  0
  2 13  1  0  0  0  0
  2  5  2  0  0  0  0
  3 10  2  0  0  0  0
  4  6  1  0  0  0  0
  6 13  1  0  0  0  0
  7  2  1  0  0  0  0
  8  4  2  0  0  0  0
  9 10  1  0  0  0  0
  9  6  2  0  0  0  0
 10  7  1  0  0  0  0
 12  9  1  0  0  0  0
 13 11  1  1  0  0  0
 14  1  1  0  0  0  0
 15 14  2  0  0  0  0
 16 14  1  0  0  0  0
 17 18  1  0  0  0  0
 17 16  1  0  0  0  0
 19 21  1  0  0  0  0
 19 18  1  0  0  0  0
 20 21  2  0  0  0  0
 21 22  2  0  0  0  0
 23  7  1  0  0  0  0
 23 36  1  1  0  0  0
 24 25  1  0  0  0  0
 26 24  1  0  0  0  0
 26 25  1  0  0  0  0
 26 23  1  0  0  0  0
 27 29  2  0  0  0  0
 28 26  1  0  0  0  0
 29 30  1  0  0  0  0
 29 28  1  0  0  0  0
 31 32  2  0  0  0  0
 32 30  1  0  0  0  0
 33 35  2  0  0  0  0
 35 32  1  0  0  0  0
 35 34  1  0  0  0  0
 37 36  1  0  0  0  0
 37 40  1  0  0  0  0
 38 39  1  0  0  0  0
 40 41  1  0  0  0  0
 40 42  1  0  0  0  0
 41 42  1  0  0  0  0
 41 38  1  0  0  0  0
 42 38  1  0  0  0  0
M  END
>  <MODEL>
6

>  <REMARK>
 VINA RESULT:      -6.8      3.665     10.692
  Name = 
  14 active torsions:
  status: ('A' for Active; 'I' for Inactive)
    1  A    between atoms: C_1  and  C_8
    2  A    between atoms: C_5  and  C_7
    3  A    between atoms: C_5  and  N_20
    4  A    between atoms: C_7  and  C_11
    5  A    between atoms: C_11  and  N_40
    6  A    between atoms: C_13  and  C_36
    7  A    between atoms: N_16  and  C_24
    8  A    between atoms: C_23  and  C_28
    9  A    between atoms: C_23  and  C_35
   10  A    between atoms: C_24  and  C_28
   11  A    between atoms: C_24  and  C_41
   12  A    between atoms: C_25  and  C_36
   13  A    between atoms: C_25  and  C_39
   14  A    between atoms: N_32  and  C_41
                            x       y       z     vdW  Elec       q    Type
                         _______ _______ _______ _____ _____    ______ ____

>  <TORSDO>
F 14

$$$$
=
 OpenBabel11032419113D

 42 46  0  0  1  0  0  0  0  0999 V2000
  185.4520  178.2630  144.1760 C   0  0  0  0  0  0  0  0  0  0  0  0
  181.0750  179.3950  141.7800 C   0  0  0  0  0  0  0  0  0  0  0  0
  183.6610  177.1760  140.5090 O   0  0  0  0  0  0  0  0  0  0  0  0
  183.3720  179.3680  144.7630 C   0  0  0  0  0  3  0  0  0  0  0  0
  180.1320  180.1290  141.3780 O   0  0  0  0  0  0  0  0  0  0  0  0
  182.8190  179.0150  143.5270 C   0  0  0  0  0  0  0  0  0  0  0  0
  181.7940  178.5470  140.8590 N   0  0  0  0  0  0  0  0  0  0  0  0
  184.6810  179.0000  145.0830 C   0  0  0  0  0  3  0  0  0  0  0  0
  183.5910  178.2830  142.6040 C   0  0  0  0  0  0  0  0  0  0  0  0
  183.0330  177.9530  141.2810 C   0  0  0  0  0  0  0  0  0  0  0  0
  180.4700  178.3550  143.9280 C   0  0  0  0  0  1  0  0  0  0  0  0
  184.9010  177.9110  142.9360 C   0  0  0  0  0  3  0  0  0  0  0  0
  181.3830  179.3590  143.2480 C   0  0  2  0  0  3  0  0  0  0  0  0
  186.8280  177.8590  144.5180 C   0  0  0  0  0  0  0  0  0  0  0  0
  187.2180  177.9000  145.7180 O   0  0  0  0  0  0  0  0  0  0  0  0
  187.7190  177.4100  143.4920 N   0  0  0  0  0  2  0  0  0  0  0  0
  189.1000  177.0410  143.7610 C   0  0  0  0  0  2  0  0  0  0  0  0
  190.0050  177.5850  142.6710 C   0  0  0  0  0  2  0  0  0  0  0  0
  189.6020  177.0110  141.3220 C   0  0  0  0  0  2  0  0  0  0  0  0
  190.6850  176.0720  139.3390 O   0  0  0  0  0  0  0  0  0  0  0  0
  190.7710  176.8430  140.4750 N   0  0  0  0  0  0  0  0  0  0  0  0
  191.8070  177.5000  140.7030 O   0  0  0  0  0  0  0  0  0  0  0  0
  181.3360  178.3140  139.4780 C   0  0  2  0  0  3  0  0  0  0  0  0
  181.1700  180.1560  137.5670 C   0  0  0  0  0  2  0  0  0  0  0  0
  181.9800  180.7190  138.7300 C   0  0  0  0  0  2  0  0  0  0  0  0
  181.9980  179.2340  138.4340 C   0  0  0  0  0  0  0  0  0  0  0  0
  184.6810  177.2690  136.8640 O   0  0  0  0  0  0  0  0  0  0  0  0
  183.2760  178.8140  137.8750 N   0  0  0  0  0  2  0  0  0  0  0  0
  183.5060  177.5740  137.1990 C   0  0  0  0  0  0  0  0  0  0  0  0
  182.3860  176.6210  136.9090 C   0  0  0  0  0  2  0  0  0  0  0  0
  183.0460  175.3960  134.9720 O   0  0  0  0  0  0  0  0  0  0  0  0
  182.8850  175.3880  136.2220 C   0  0  0  0  0  0  0  0  0  0  0  0
  182.5510  172.9750  136.6580 O   0  0  0  0  0  0  0  0  0  0  0  0
  184.0120  174.1910  137.9310 O   0  0  0  0  0  1  0  0  0  0  0  0
  183.1820  174.1680  136.9850 C   0  0  0  0  0  0  0  0  0  0  0  0
  179.8170  178.3040  139.3650 C   0  0  0  0  0  2  0  0  0  0  0  0
  179.3230  176.9110  139.0280 C   0  0  0  0  0  2  0  0  0  0  0  0
  179.8120  173.7030  140.7410 C   0  0  2  0  0  3  0  0  0  0  0  0
  179.4870  173.7900  142.0950 O   0  0  0  0  0  1  0  0  0  0  0  0
  179.2620  176.0820  140.2910 C   0  0  2  0  0  3  0  0  0  0  0  0
  180.3570  175.0340  140.2580 C   0  0  2  0  0  3  0  0  0  0  0  0
  178.9320  174.6440  139.9390 C   0  0  1  0  0  3  0  0  0  0  0  0
  1 14  1  0  0  0  0
  1  8  1  0  0  0  0
  2 13  1  0  0  0  0
  3 10  2  0  0  0  0
  4  8  2  0  0  0  0
  5  2  2  0  0  0  0
  6  4  1  0  0  0  0
  7 10  1  0  0  0  0
  7  2  1  0  0  0  0
  9 12  1  0  0  0  0
  9  6  2  0  0  0  0
 10  9  1  0  0  0  0
 12  1  2  0  0  0  0
 13  6  1  0  0  0  0
 13 11  1  1  0  0  0
 14 15  2  0  0  0  0
 16 17  1  0  0  0  0
 16 14  1  0  0  0  0
 18 17  1  0  0  0  0
 19 18  1  0  0  0  0
 20 21  2  0  0  0  0
 21 22  2  0  0  0  0
 21 19  1  0  0  0  0
 23 36  1  1  0  0  0
 23  7  1  0  0  0  0
 24 26  1  0  0  0  0
 24 25  1  0  0  0  0
 26 25  1  0  0  0  0
 26 23  1  0  0  0  0
 27 29  2  0  0  0  0
 28 26  1  0  0  0  0
 29 28  1  0  0  0  0
 30 29  1  0  0  0  0
 31 32  2  0  0  0  0
 32 30  1  0  0  0  0
 32 35  1  0  0  0  0
 33 35  2  0  0  0  0
 35 34  1  0  0  0  0
 37 36  1  0  0  0  0
 37 40  1  0  0  0  0
 38 39  1  0  0  0  0
 41 40  1  0  0  0  0
 41 38  1  0  0  0  0
 42 41  1  0  0  0  0
 42 40  1  0  0  0  0
 42 38  1  0  0  0  0
M  END
>  <MODEL>
7

>  <REMARK>
 VINA RESULT:      -6.7      2.468      4.372
  Name = 
  14 active torsions:
  status: ('A' for Active; 'I' for Inactive)
    1  A    between atoms: C_1  and  C_8
    2  A    between atoms: C_5  and  C_7
    3  A    between atoms: C_5  and  N_20
    4  A    between atoms: C_7  and  C_11
    5  A    between atoms: C_11  and  N_40
    6  A    between atoms: C_13  and  C_36
    7  A    between atoms: N_16  and  C_24
    8  A    between atoms: C_23  and  C_28
    9  A    between atoms: C_23  and  C_35
   10  A    between atoms: C_24  and  C_28
   11  A    between atoms: C_24  and  C_41
   12  A    between atoms: C_25  and  C_36
   13  A    between atoms: C_25  and  C_39
   14  A    between atoms: N_32  and  C_41
                            x       y       z     vdW  Elec       q    Type
                         _______ _______ _______ _____ _____    ______ ____

>  <TORSDO>
F 14

$$$$
=
 OpenBabel11032419113D

 42 46  0  0  1  0  0  0  0  0999 V2000
  183.9590  178.9610  140.7780 C   0  0  0  0  0  0  0  0  0  0  0  0
  187.2720  177.7080  144.4700 C   0  0  0  0  0  0  0  0  0  0  0  0
  188.1390  179.2630  141.2970 O   0  0  0  0  0  0  0  0  0  0  0  0
  183.8110  178.2540  143.0950 C   0  0  0  0  0  3  0  0  0  0  0  0
  187.7770  176.9950  145.3790 O   0  0  0  0  0  0  0  0  0  0  0  0
  185.2010  178.3380  143.2250 C   0  0  0  0  0  0  0  0  0  0  0  0
  188.0900  178.2190  143.3950 N   0  0  0  0  0  0  0  0  0  0  0  0
  183.1940  178.5580  141.8790 C   0  0  0  0  0  3  0  0  0  0  0  0
  185.9790  178.7330  142.1200 C   0  0  0  0  0  0  0  0  0  0  0  0
  187.4470  178.7730  142.2340 C   0  0  0  0  0  0  0  0  0  0  0  0
  185.6810  179.3120  145.4470 C   0  0  0  0  0  1  0  0  0  0  0  0
  185.3530  179.0420  140.9050 C   0  0  0  0  0  3  0  0  0  0  0  0
  185.8230  178.0810  144.5690 C   0  0  2  0  0  3  0  0  0  0  0  0
  183.3090  179.2980  139.4980 C   0  0  0  0  0  0  0  0  0  0  0  0
  183.9680  179.2500  138.4230 O   0  0  0  0  0  0  0  0  0  0  0  0
  181.9270  179.6690  139.4730 N   0  0  0  0  0  2  0  0  0  0  0  0
  181.2420  180.0540  138.2500 C   0  0  0  0  0  2  0  0  0  0  0  0
  180.6950  181.4640  138.3820 C   0  0  0  0  0  2  0  0  0  0  0  0
  181.7630  182.4770  138.0000 C   0  0  0  0  0  2  0  0  0  0  0  0
  181.9240  184.7300  137.0620 O   0  0  0  0  0  0  0  0  0  0  0  0
  181.1610  183.6190  137.3340 N   0  0  0  0  0  0  0  0  0  0  0  0
  179.9960  183.5430  136.8930 O   0  0  0  0  0  0  0  0  0  0  0  0
  189.5610  178.1410  143.4150 C   0  0  2  0  0  3  0  0  0  0  0  0
  189.7430  175.5510  142.8380 C   0  0  0  0  0  2  0  0  0  0  0  0
  189.1860  176.2920  141.6260 C   0  0  0  0  0  2  0  0  0  0  0  0
  190.1400  176.9860  142.5750 C   0  0  0  0  0  0  0  0  0  0  0  0
  192.8590  177.5080  140.1540 O   0  0  0  0  0  0  0  0  0  0  0  0
  191.4510  177.1820  141.9680 N   0  0  0  0  0  2  0  0  0  0  0  0
  191.6770  177.4780  140.5870 C   0  0  0  0  0  0  0  0  0  0  0  0
  190.5400  177.7210  139.6420 C   0  0  0  0  0  2  0  0  0  0  0  0
  190.9310  175.5490  138.7390 O   0  0  0  0  0  0  0  0  0  0  0  0
  190.5400  176.7270  138.5220 C   0  0  0  0  0  0  0  0  0  0  0  0
  189.1770  178.1370  137.0120 O   0  0  0  0  0  1  0  0  0  0  0  0
  190.5490  176.5170  136.1600 O   0  0  0  0  0  0  0  0  0  0  0  0
  190.0970  177.1090  137.1740 C   0  0  0  0  0  0  0  0  0  0  0  0
  190.1230  178.1680  144.8310 C   0  0  0  0  0  2  0  0  0  0  0  0
  190.7870  176.8450  145.1600 C   0  0  0  0  0  2  0  0  0  0  0  0
  192.4270  175.4210  148.1180 C   0  0  2  0  0  3  0  0  0  0  0  0
  193.1810  176.3780  148.7980 O   0  0  0  0  0  1  0  0  0  0  0  0
  191.6750  177.0180  146.3720 C   0  0  2  0  0  3  0  0  0  0  0  0
  192.4280  175.7280  146.6320 C   0  0  2  0  0  3  0  0  0  0  0  0
  191.2210  176.0790  147.4720 C   0  0  1  0  0  3  0  0  0  0  0  0
  1 12  2  0  0  0  0
  1  8  1  0  0  0  0
  2 13  1  0  0  0  0
  2  5  2  0  0  0  0
  3 10  2  0  0  0  0
  4  6  1  0  0  0  0
  6 13  1  0  0  0  0
  7 23  1  0  0  0  0
  7  2  1  0  0  0  0
  8  4  2  0  0  0  0
  9 10  1  0  0  0  0
  9  6  2  0  0  0  0
 10  7  1  0  0  0  0
 12  9  1  0  0  0  0
 13 11  1  1  0  0  0
 14  1  1  0  0  0  0
 15 14  2  0  0  0  0
 16 14  1  0  0  0  0
 17 18  1  0  0  0  0
 17 16  1  0  0  0  0
 19 18  1  0  0  0  0
 20 21  2  0  0  0  0
 21 19  1  0  0  0  0
 22 21  2  0  0  0  0
 23 36  1  1  0  0  0
 25 26  1  0  0  0  0
 25 24  1  0  0  0  0
 26 24  1  0  0  0  0
 26 23  1  0  0  0  0
 27 29  2  0  0  0  0
 28 26  1  0  0  0  0
 29 28  1  0  0  0  0
 30 29  1  0  0  0  0
 32 31  2  0  0  0  0
 32 30  1  0  0  0  0
 33 35  1  0  0  0  0
 34 35  2  0  0  0  0
 35 32  1  0  0  0  0
 36 37  1  0  0  0  0
 37 40  1  0  0  0  0
 38 39  1  0  0  0  0
 40 41  1  0  0  0  0
 40 42  1  0  0  0  0
 41 42  1  0  0  0  0
 41 38  1  0  0  0  0
 42 38  1  0  0  0  0
M  END
>  <MODEL>
8

>  <REMARK>
 VINA RESULT:      -6.6      3.584     10.870
  Name = 
  14 active torsions:
  status: ('A' for Active; 'I' for Inactive)
    1  A    between atoms: C_1  and  C_8
    2  A    between atoms: C_5  and  C_7
    3  A    between atoms: C_5  and  N_20
    4  A    between atoms: C_7  and  C_11
    5  A    between atoms: C_11  and  N_40
    6  A    between atoms: C_13  and  C_36
    7  A    between atoms: N_16  and  C_24
    8  A    between atoms: C_23  and  C_28
    9  A    between atoms: C_23  and  C_35
   10  A    between atoms: C_24  and  C_28
   11  A    between atoms: C_24  and  C_41
   12  A    between atoms: C_25  and  C_36
   13  A    between atoms: C_25  and  C_39
   14  A    between atoms: N_32  and  C_41
                            x       y       z     vdW  Elec       q    Type
                         _______ _______ _______ _____ _____    ______ ____

>  <TORSDO>
F 14

$$$$
=
 OpenBabel11032419113D

 42 46  0  0  1  0  0  0  0  0999 V2000
  182.5700  178.9880  143.1900 C   0  0  0  0  0  0  0  0  0  0  0  0
  187.0660  177.8860  145.3690 C   0  0  0  0  0  0  0  0  0  0  0  0
  186.6160  179.1730  141.9970 O   0  0  0  0  0  0  0  0  0  0  0  0
  183.3450  178.4580  145.4280 C   0  0  0  0  0  3  0  0  0  0  0  0
  187.8850  177.2240  146.0620 O   0  0  0  0  0  0  0  0  0  0  0  0
  184.6750  178.5000  144.9930 C   0  0  0  0  0  0  0  0  0  0  0  0
  187.3950  178.2880  144.0220 N   0  0  0  0  0  0  0  0  0  0  0  0
  182.3000  178.6950  144.5330 C   0  0  0  0  0  3  0  0  0  0  0  0
  184.9540  178.7840  143.6430 C   0  0  0  0  0  0  0  0  0  0  0  0
  186.3480  178.7780  143.1660 C   0  0  0  0  0  0  0  0  0  0  0  0
  185.9980  179.6150  146.7600 C   0  0  0  0  0  1  0  0  0  0  0  0
  183.9010  179.0270  142.7510 C   0  0  0  0  0  3  0  0  0  0  0  0
  185.7750  178.3190  146.0000 C   0  0  2  0  0  3  0  0  0  0  0  0
  181.4680  179.2540  142.2460 C   0  0  0  0  0  0  0  0  0  0  0  0
  180.5820  180.1050  142.5350 O   0  0  0  0  0  0  0  0  0  0  0  0
  181.4100  178.5550  140.9980 N   0  0  0  0  0  2  0  0  0  0  0  0
  180.3260  178.7420  140.0470 C   0  0  0  0  0  2  0  0  0  0  0  0
  180.8760  178.7780  138.6330 C   0  0  0  0  0  2  0  0  0  0  0  0
  182.3960  178.7550  138.6630 C   0  0  0  0  0  2  0  0  0  0  0  0
  184.2400  180.3090  139.0730 O   0  0  0  0  0  0  0  0  0  0  0  0
  182.9200  180.1080  138.7460 N   0  0  0  0  0  0  0  0  0  0  0  0
  182.2130  181.0750  138.3940 O   0  0  0  0  0  0  0  0  0  0  0  0
  188.7540  178.1570  143.4680 C   0  0  2  0  0  3  0  0  0  0  0  0
  189.9910  175.8720  142.9000 C   0  0  0  0  0  2  0  0  0  0  0  0
  188.5120  175.5880  143.1470 C   0  0  0  0  0  2  0  0  0  0  0  0
  188.9500  176.9190  142.5710 C   0  0  0  0  0  0  0  0  0  0  0  0
  189.0770  177.4810  138.9390 O   0  0  0  0  0  0  0  0  0  0  0  0
  188.5910  177.0390  141.1640 N   0  0  0  0  0  2  0  0  0  0  0  0
  189.5180  177.2780  140.1000 C   0  0  0  0  0  0  0  0  0  0  0  0
  190.9960  177.3210  140.3450 C   0  0  0  0  0  2  0  0  0  0  0  0
  191.1890  175.5360  138.7760 O   0  0  0  0  0  0  0  0  0  0  0  0
  191.7420  176.5330  139.3140 C   0  0  0  0  0  0  0  0  0  0  0  0
  193.5870  176.5660  137.6650 O   0  0  0  0  0  0  0  0  0  0  0  0
  193.8540  177.5290  139.7230 O   0  0  0  0  0  1  0  0  0  0  0  0
  193.1100  176.9020  138.9250 C   0  0  0  0  0  0  0  0  0  0  0  0
  189.8300  178.2750  144.5400 C   0  0  0  0  0  2  0  0  0  0  0  0
  190.8150  177.1280  144.4260 C   0  0  0  0  0  2  0  0  0  0  0  0
  191.8640  175.6350  147.6110 C   0  0  2  0  0  3  0  0  0  0  0  0
  192.9340  176.3310  148.1750 O   0  0  0  0  0  1  0  0  0  0  0  0
  191.7280  177.1300  145.6330 C   0  0  2  0  0  3  0  0  0  0  0  0
  191.9490  175.7040  146.0970 C   0  0  2  0  0  3  0  0  0  0  0  0
  190.9780  176.5950  146.8370 C   0  0  1  0  0  3  0  0  0  0  0  0
  1  8  1  0  0  0  0
  2 13  1  0  0  0  0
  2  5  2  0  0  0  0
  3 10  2  0  0  0  0
  6  4  1  0  0  0  0
  6 13  1  0  0  0  0
  7  2  1  0  0  0  0
  8  4  2  0  0  0  0
  9  6  2  0  0  0  0
 10  9  1  0  0  0  0
 10  7  1  0  0  0  0
 12  1  2  0  0  0  0
 12  9  1  0  0  0  0
 13 11  1  6  0  0  0
 14 15  2  0  0  0  0
 14  1  1  0  0  0  0
 16 14  1  0  0  0  0
 17 16  1  0  0  0  0
 18 19  1  0  0  0  0
 18 17  1  0  0  0  0
 19 21  1  0  0  0  0
 21 20  2  0  0  0  0
 22 21  2  0  0  0  0
 23  7  1  0  0  0  0
 23 36  1  1  0  0  0
 24 25  1  0  0  0  0
 26 24  1  0  0  0  0
 26 25  1  0  0  0  0
 26 23  1  0  0  0  0
 27 29  2  0  0  0  0
 28 26  1  0  0  0  0
 29 30  1  0  0  0  0
 29 28  1  0  0  0  0
 31 32  2  0  0  0  0
 32 30  1  0  0  0  0
 33 35  2  0  0  0  0
 35 32  1  0  0  0  0
 35 34  1  0  0  0  0
 37 36  1  0  0  0  0
 37 40  1  0  0  0  0
 38 39  1  0  0  0  0
 40 41  1  0  0  0  0
 40 42  1  0  0  0  0
 41 42  1  0  0  0  0
 41 38  1  0  0  0  0
 42 38  1  0  0  0  0
M  END
>  <MODEL>
9

>  <REMARK>
 VINA RESULT:      -6.5      3.376     10.315
  Name = 
  14 active torsions:
  status: ('A' for Active; 'I' for Inactive)
    1  A    between atoms: C_1  and  C_8
    2  A    between atoms: C_5  and  C_7
    3  A    between atoms: C_5  and  N_20
    4  A    between atoms: C_7  and  C_11
    5  A    between atoms: C_11  and  N_40
    6  A    between atoms: C_13  and  C_36
    7  A    between atoms: N_16  and  C_24
    8  A    between atoms: C_23  and  C_28
    9  A    between atoms: C_23  and  C_35
   10  A    between atoms: C_24  and  C_28
   11  A    between atoms: C_24  and  C_41
   12  A    between atoms: C_25  and  C_36
   13  A    between atoms: C_25  and  C_39
   14  A    between atoms: N_32  and  C_41
                            x       y       z     vdW  Elec       q    Type
                         _______ _______ _______ _____ _____    ______ ____

>  <TORSDO>
F 14

$$$$
