=
 OpenBabel11032421193D

 52 57  0  0  1  0  0  0  0  0999 V2000
  188.2010  177.5950  137.5380 O   0  0  0  0  0  0  0  0  0  0  0  0
  187.5850  178.0550  138.6130 C   0  0  0  0  0  0  0  0  0  0  0  0
  190.4500  176.8030  137.0840 C   0  0  0  0  0  3  0  0  0  0  0  0
  189.4330  177.3110  137.8890 C   0  0  0  0  0  0  0  0  0  0  0  0
  191.9050  176.8610  139.0550 C   0  0  0  0  0  3  0  0  0  0  0  0
  191.7040  176.5720  137.6820 C   0  0  0  0  0  0  0  0  0  0  0  0
  189.6340  177.5860  139.2200 C   0  0  0  0  0  0  0  0  0  0  0  0
  188.4410  178.0650  139.7060 C   0  0  0  0  0  0  0  0  0  0  0  0
  190.8610  177.3760  139.8420 C   0  0  0  0  0  3  0  0  0  0  0  0
  192.8220  176.0260  136.8490 C   0  0  1  0  0  3  0  0  0  0  0  0
  193.8400  176.9830  136.7670 O   0  0  0  0  0  1  0  0  0  0  0  0
  194.8320  174.8440  137.7850 C   0  0  0  0  0  2  0  0  0  0  0  0
  195.3450  173.6240  138.4260 N   0  0  0  0  0  0  0  0  0  0  0  0
  195.3440  172.5760  137.3810 C   0  0  2  0  0  3  0  0  0  0  0  0
  193.2500  173.5700  136.3780 C   0  0  1  0  0  3  0  0  0  0  0  0
  191.9150  173.2860  136.0950 O   0  0  0  0  0  1  0  0  0  0  0  0
  193.3580  174.6970  137.4090 C   0  0  2  0  0  3  0  0  0  0  0  0
  193.9140  172.3070  136.9050 C   0  0  0  0  0  2  0  0  0  0  0  0
  196.7270  174.9510  139.8240 O   0  0  0  0  0  1  0  0  0  0  0  0
  196.7240  173.9230  138.8770 C   0  0  2  0  0  3  0  0  0  0  0  0
  197.6120  174.3550  137.7400 C   0  0  0  0  0  0  0  0  0  0  0  0
  198.5980  173.3960  137.1680 C   0  0  0  0  0  1  0  0  0  0  0  0
  197.5220  175.4790  137.2740 O   0  0  0  0  0  0  0  0  0  0  0  0
  195.8870  171.2410  137.8870 C   0  0  0  0  0  2  0  0  0  0  0  0
  195.7830  170.1730  136.8070 C   0  0  0  0  0  2  0  0  0  0  0  0
  198.2800  169.6840  136.3710 C   0  0  0  0  0  1  0  0  0  0  0  0
  196.8760  170.6820  134.7810 O   0  0  0  0  0  0  0  0  0  0  0  0
  196.9710  170.2110  135.9020 C   0  0  0  0  0  0  0  0  0  0  0  0
  186.2510  178.4600  138.6430 O   0  0  0  0  0  0  0  0  0  0  0  0
  180.3970  176.6430  139.8780 C   0  0  0  0  0  1  0  0  0  0  0  0
  185.1960  177.5580  138.3340 C   0  0  2  0  0  3  0  0  0  0  0  0
  183.8370  179.2590  139.7800 C   0  0  0  0  0  2  0  0  0  0  0  0
  183.2420  178.9330  141.1410 C   0  0  0  0  0  2  0  0  0  0  0  0
  181.9020  178.2720  140.9770 C   0  0  0  0  0  0  0  0  0  0  0  0
  184.1990  178.2380  137.6060 O   0  0  0  0  0  0  0  0  0  0  0  0
  182.8360  176.8990  139.1090 C   0  0  0  0  0  2  0  0  0  0  0  0
  183.9160  177.9730  138.9570 C   0  0  1  0  0  0  0  0  0  0  0  0
  180.5960  178.7900  142.0400 Cl  0  0  0  0  0  0  0  0  0  0  0  0
  181.7160  177.3260  140.0330 C   0  0  0  0  0  0  0  0  0  0  0  0
  188.1510  178.5570  141.0820 C   0  0  0  0  0  2  0  0  0  0  0  0
  188.0420  177.3780  142.0320 C   0  0  0  0  0  2  0  0  0  0  0  0
  187.6550  177.8480  143.4350 C   0  0  2  0  0  3  0  0  0  0  0  0
  188.9210  177.5020  146.7960 C   0  0  0  0  0  0  0  0  0  0  0  0
  189.8730  177.3410  144.6320 C   0  0  1  0  0  3  0  0  0  0  0  0
  188.8080  177.6800  148.1090 C   0  0  0  0  0  2  0  0  0  0  0  0
  190.2290  177.4440  146.1050 C   0  0  0  0  0  2  0  0  0  0  0  0
  190.5920  176.3020  144.0450 O   0  0  0  0  0  1  0  0  0  0  0  0
  187.7540  177.3430  145.8990 C   0  0  0  0  0  2  0  0  0  0  0  0
  188.3680  177.0540  144.5390 C   0  0  1  0  0  3  0  0  0  0  0  0
  185.4990  177.4880  142.4560 F   0  0  0  0  0  0  0  0  0  0  0  0
  186.1370  177.8700  143.6210 C   0  0  0  0  0  3  0  0  0  0  0  0
  185.6950  179.1220  144.0120 F   0  0  0  0  0  0  0  0  0  0  0  0
  1  4  1  0  0  0  0
  1  2  1  0  0  0  0
  2 29  1  0  0  0  0
  2  8  2  0  0  0  0
  3  6  2  0  0  0  0
  3  4  1  0  0  0  0
  4  7  2  0  0  0  0
  5  9  2  0  0  0  0
  6  5  1  0  0  0  0
  7  8  1  0  0  0  0
  7  9  1  0  0  0  0
  8 40  1  0  0  0  0
 10 11  1  1  0  0  0
 10  6  1  0  0  0  0
 12 13  1  0  0  0  0
 13 20  1  0  0  0  0
 14 24  1  1  0  0  0
 14 13  1  0  0  0  0
 15 16  1  1  0  0  0
 15 18  1  0  0  0  0
 15 17  1  0  0  0  0
 17 10  1  6  0  0  0
 17 12  1  0  0  0  0
 18 14  1  0  0  0  0
 20 19  1  1  0  0  0
 21 20  1  0  0  0  0
 22 21  1  0  0  0  0
 23 21  2  0  0  0  0
 25 24  1  0  0  0  0
 27 28  2  0  0  0  0
 28 26  1  0  0  0  0
 28 25  1  0  0  0  0
 30 39  1  0  0  0  0
 31 29  1  1  0  0  0
 31 37  1  0  0  0  0
 32 33  1  0  0  0  0
 34 33  1  0  0  0  0
 34 38  1  0  0  0  0
 35 31  1  0  0  0  0
 35 37  1  0  0  0  0
 36 39  1  0  0  0  0
 37 36  1  1  0  0  0
 37 32  1  0  0  0  0
 39 34  2  0  0  0  0
 40 41  1  0  0  0  0
 42 41  1  6  0  0  0
 42 51  1  0  0  0  0
 43 45  2  0  0  0  0
 44 47  1  1  0  0  0
 44 46  1  0  0  0  0
 46 43  1  0  0  0  0
 48 43  1  0  0  0  0
 49 42  1  6  0  0  0
 49 44  1  0  0  0  0
 49 48  1  0  0  0  0
 50 51  1  0  0  0  0
 51 52  1  0  0  0  0
M  END
>  <MODEL>
1

>  <REMARK>
 VINA RESULT:      -8.7      0.000      0.000
  Name = 
  14 active torsions:
  status: ('A' for Active; 'I' for Inactive)
    1  A    between atoms: C_4  and  C_28
    2  A    between atoms: C_4  and  C_45
    3  A    between atoms: O_6  and  C_10
    4  A    between atoms: O_6  and  C_17
    5  A    between atoms: N_9  and  C_50
    6  A    between atoms: C_16  and  C_21
    7  A    between atoms: C_18  and  C_50
    8  A    between atoms: C_21  and  C_42
    9  A    between atoms: C_21  and  C_47
   10  A    between atoms: C_30  and  C_36
   11  A    between atoms: C_36  and  C_44
   12  A    between atoms: C_37  and  C_45
   13  A    between atoms: C_38  and  C_40
   14  A    between atoms: C_40  and  C_47
                            x       y       z     vdW  Elec       q    Type
                         _______ _______ _______ _____ _____    ______ ____

>  <TORSDO>
F 14

$$$$
=
 OpenBabel11032421193D

 52 57  0  0  1  0  0  0  0  0999 V2000
  188.1860  177.4320  138.2150 O   0  0  0  0  0  0  0  0  0  0  0  0
  188.1650  177.9720  139.4220 C   0  0  0  0  0  0  0  0  0  0  0  0
  189.8390  176.1860  136.9470 C   0  0  0  0  0  3  0  0  0  0  0  0
  189.3630  176.8710  138.0620 C   0  0  0  0  0  0  0  0  0  0  0  0
  191.9330  175.8440  138.1720 C   0  0  0  0  0  3  0  0  0  0  0  0
  191.1440  175.6620  137.0080 C   0  0  0  0  0  0  0  0  0  0  0  0
  190.1320  177.0410  139.1880 C   0  0  0  0  0  0  0  0  0  0  0  0
  189.3660  177.7500  140.0820 C   0  0  0  0  0  0  0  0  0  0  0  0
  191.4270  176.5420  139.2810 C   0  0  0  0  0  3  0  0  0  0  0  0
  191.6910  174.9190  135.8290 C   0  0  1  0  0  3  0  0  0  0  0  0
  191.6240  175.7410  134.6990 O   0  0  0  0  0  1  0  0  0  0  0  0
  194.1250  175.4170  135.4560 C   0  0  0  0  0  2  0  0  0  0  0  0
  195.5120  175.0410  135.7680 N   0  0  0  0  0  0  0  0  0  0  0  0
  195.7690  173.7720  135.0500 C   0  0  2  0  0  3  0  0  0  0  0  0
  193.3760  173.0620  135.4400 C   0  0  1  0  0  3  0  0  0  0  0  0
  192.5980  172.0860  136.0600 O   0  0  0  0  0  1  0  0  0  0  0  0
  193.1310  174.4340  136.0740 C   0  0  2  0  0  3  0  0  0  0  0  0
  194.8410  172.6720  135.5750 C   0  0  0  0  0  2  0  0  0  0  0  0
  197.5740  176.1950  135.9720 O   0  0  0  0  0  1  0  0  0  0  0  0
  196.3780  176.1270  135.2520 C   0  0  2  0  0  3  0  0  0  0  0  0
  195.7150  177.4760  135.3490 C   0  0  0  0  0  0  0  0  0  0  0  0
  196.2760  178.6300  134.5940 C   0  0  0  0  0  1  0  0  0  0  0  0
  194.7140  177.6280  136.0290 O   0  0  0  0  0  0  0  0  0  0  0  0
  197.1950  173.2620  135.2490 C   0  0  0  0  0  2  0  0  0  0  0  0
  197.3370  172.5740  136.6000 C   0  0  0  0  0  2  0  0  0  0  0  0
  198.0450  170.4660  135.2880 C   0  0  0  0  0  1  0  0  0  0  0  0
  198.9510  171.0390  137.3730 O   0  0  0  0  0  0  0  0  0  0  0  0
  198.1720  171.3400  136.4850 C   0  0  0  0  0  0  0  0  0  0  0  0
  187.0760  178.6570  139.9580 O   0  0  0  0  0  0  0  0  0  0  0  0
  180.9990  178.3400  141.3920 C   0  0  0  0  0  1  0  0  0  0  0  0
  185.7550  178.4320  139.4870 C   0  0  2  0  0  3  0  0  0  0  0  0
  185.1640  179.4120  141.8360 C   0  0  0  0  0  2  0  0  0  0  0  0
  184.5220  178.6060  142.9570 C   0  0  0  0  0  2  0  0  0  0  0  0
  183.0290  178.5800  142.7880 C   0  0  0  0  0  0  0  0  0  0  0  0
  185.0650  179.6600  139.4220 O   0  0  0  0  0  0  0  0  0  0  0  0
  183.3380  178.2140  140.3350 C   0  0  0  0  0  2  0  0  0  0  0  0
  184.7370  178.8140  140.4960 C   0  0  1  0  0  0  0  0  0  0  0  0
  182.0370  178.8150  144.2240 Cl  0  0  0  0  0  0  0  0  0  0  0  0
  182.4810  178.3960  141.5690 C   0  0  0  0  0  0  0  0  0  0  0  0
  189.7620  178.2370  141.4330 C   0  0  0  0  0  2  0  0  0  0  0  0
  188.8820  177.5900  142.4870 C   0  0  0  0  0  2  0  0  0  0  0  0
  189.7120  177.1630  143.6980 C   0  0  2  0  0  3  0  0  0  0  0  0
  187.0400  177.8660  146.0200 C   0  0  0  0  0  0  0  0  0  0  0  0
  189.3530  177.3960  146.2330 C   0  0  1  0  0  3  0  0  0  0  0  0
  185.8200  178.3190  146.2910 C   0  0  0  0  0  2  0  0  0  0  0  0
  188.1460  177.9070  147.0020 C   0  0  0  0  0  2  0  0  0  0  0  0
  190.0010  176.4100  146.9750 O   0  0  0  0  0  1  0  0  0  0  0  0
  187.4120  177.2760  144.7130 C   0  0  0  0  0  2  0  0  0  0  0  0
  188.8420  176.8040  144.9120 C   0  0  1  0  0  3  0  0  0  0  0  0
  190.3720  179.4650  143.6660 F   0  0  0  0  0  0  0  0  0  0  0  0
  190.7850  178.1990  144.0370 C   0  0  0  0  0  3  0  0  0  0  0  0
  191.9890  177.8970  143.4250 F   0  0  0  0  0  0  0  0  0  0  0  0
  1  2  1  0  0  0  0
  2 29  1  0  0  0  0
  2  8  2  0  0  0  0
  3  6  2  0  0  0  0
  3  4  1  0  0  0  0
  4  1  1  0  0  0  0
  4  7  2  0  0  0  0
  5  9  2  0  0  0  0
  6  5  1  0  0  0  0
  7  9  1  0  0  0  0
  7  8  1  0  0  0  0
  8 40  1  0  0  0  0
 10 11  1  6  0  0  0
 10  6  1  0  0  0  0
 12 13  1  0  0  0  0
 12 17  1  0  0  0  0
 14 24  1  1  0  0  0
 14 18  1  0  0  0  0
 14 13  1  0  0  0  0
 15 18  1  0  0  0  0
 15 16  1  1  0  0  0
 15 17  1  0  0  0  0
 17 10  1  6  0  0  0
 20 21  1  0  0  0  0
 20 13  1  0  0  0  0
 20 19  1  1  0  0  0
 21 23  2  0  0  0  0
 22 21  1  0  0  0  0
 24 25  1  0  0  0  0
 26 28  1  0  0  0  0
 28 25  1  0  0  0  0
 28 27  2  0  0  0  0
 30 39  1  0  0  0  0
 31 29  1  1  0  0  0
 31 37  1  0  0  0  0
 32 33  1  0  0  0  0
 34 33  1  0  0  0  0
 34 38  1  0  0  0  0
 35 31  1  0  0  0  0
 35 37  1  0  0  0  0
 36 39  1  0  0  0  0
 37 36  1  6  0  0  0
 37 32  1  0  0  0  0
 39 34  2  0  0  0  0
 40 41  1  0  0  0  0
 42 41  1  6  0  0  0
 42 51  1  0  0  0  0
 43 45  2  0  0  0  0
 43 46  1  0  0  0  0
 44 47  1  1  0  0  0
 44 46  1  0  0  0  0
 48 49  1  0  0  0  0
 48 43  1  0  0  0  0
 49 42  1  6  0  0  0
 49 44  1  0  0  0  0
 50 51  1  0  0  0  0
 52 51  1  0  0  0  0
M  END
>  <MODEL>
2

>  <REMARK>
 VINA RESULT:      -8.6      2.135      2.722
  Name = 
  14 active torsions:
  status: ('A' for Active; 'I' for Inactive)
    1  A    between atoms: C_4  and  C_28
    2  A    between atoms: C_4  and  C_45
    3  A    between atoms: O_6  and  C_10
    4  A    between atoms: O_6  and  C_17
    5  A    between atoms: N_9  and  C_50
    6  A    between atoms: C_16  and  C_21
    7  A    between atoms: C_18  and  C_50
    8  A    between atoms: C_21  and  C_42
    9  A    between atoms: C_21  and  C_47
   10  A    between atoms: C_30  and  C_36
   11  A    between atoms: C_36  and  C_44
   12  A    between atoms: C_37  and  C_45
   13  A    between atoms: C_38  and  C_40
   14  A    between atoms: C_40  and  C_47
                            x       y       z     vdW  Elec       q    Type
                         _______ _______ _______ _____ _____    ______ ____

>  <TORSDO>
F 14

$$$$
=
 OpenBabel11032421193D

 52 57  0  0  1  0  0  0  0  0999 V2000
  186.3300  178.6110  139.3410 O   0  0  0  0  0  0  0  0  0  0  0  0
  187.4810  178.6050  139.9900 C   0  0  0  0  0  0  0  0  0  0  0  0
  184.0000  178.6030  140.0250 C   0  0  0  0  0  3  0  0  0  0  0  0
  185.3760  178.6050  140.2430 C   0  0  0  0  0  0  0  0  0  0  0  0
  183.7130  178.5860  142.4580 C   0  0  0  0  0  3  0  0  0  0  0  0
  183.1590  178.5980  141.1530 C   0  0  0  0  0  0  0  0  0  0  0  0
  185.9070  178.5960  141.5090 C   0  0  0  0  0  0  0  0  0  0  0  0
  187.2730  178.6020  141.3630 C   0  0  0  0  0  0  0  0  0  0  0  0
  185.1050  178.5850  142.6470 C   0  0  0  0  0  3  0  0  0  0  0  0
  181.6740  178.5960  140.9590 C   0  0  1  0  0  3  0  0  0  0  0  0
  181.3200  179.6700  140.1340 O   0  0  0  0  0  1  0  0  0  0  0  0
  181.4490  177.2140  138.8720 C   0  0  0  0  0  2  0  0  0  0  0  0
  181.0840  175.9080  138.3030 N   0  0  0  0  0  0  0  0  0  0  0  0
  179.6100  175.8120  138.4010 C   0  0  2  0  0  3  0  0  0  0  0  0
  179.6660  177.0930  140.5780 C   0  0  1  0  0  3  0  0  0  0  0  0
  179.3590  176.9860  141.9330 O   0  0  0  0  0  1  0  0  0  0  0  0
  181.1740  177.2630  140.3740 C   0  0  2  0  0  3  0  0  0  0  0  0
  179.1760  175.8390  139.8690 C   0  0  0  0  0  2  0  0  0  0  0  0
  182.7550  175.2760  136.7450 O   0  0  0  0  0  1  0  0  0  0  0  0
  181.5230  175.9180  136.8880 C   0  0  2  0  0  3  0  0  0  0  0  0
  181.6780  177.3170  136.3510 C   0  0  0  0  0  0  0  0  0  0  0  0
  180.4990  178.0210  135.7740 C   0  0  0  0  0  1  0  0  0  0  0  0
  182.7570  177.8840  136.3970 O   0  0  0  0  0  0  0  0  0  0  0  0
  179.0650  174.5120  137.8140 C   0  0  0  0  0  2  0  0  0  0  0  0
  179.6520  173.3080  138.5390 C   0  0  0  0  0  2  0  0  0  0  0  0
  181.3850  172.0520  137.0950 C   0  0  0  0  0  1  0  0  0  0  0  0
  179.1180  171.4630  137.1710 O   0  0  0  0  0  0  0  0  0  0  0  0
  179.9870  172.2160  137.5750 C   0  0  0  0  0  0  0  0  0  0  0  0
  188.7320  178.6150  139.3750 O   0  0  0  0  0  0  0  0  0  0  0  0
  192.3790  175.1340  135.6780 C   0  0  0  0  0  1  0  0  0  0  0  0
  188.9250  178.0570  138.0820 C   0  0  2  0  0  3  0  0  0  0  0  0
  190.7560  176.7030  139.3650 C   0  0  0  0  0  2  0  0  0  0  0  0
  192.2510  176.8620  139.1320 C   0  0  0  0  0  2  0  0  0  0  0  0
  192.6890  176.0140  137.9700 C   0  0  0  0  0  0  0  0  0  0  0  0
  188.6660  176.6720  138.1280 O   0  0  0  0  0  0  0  0  0  0  0  0
  190.6450  176.7200  136.7170 C   0  0  0  0  0  2  0  0  0  0  0  0
  190.0170  177.0530  138.0730 C   0  0  1  0  0  0  0  0  0  0  0  0
  194.1870  175.1040  138.1380 Cl  0  0  0  0  0  0  0  0  0  0  0  0
  191.9410  175.9510  136.8490 C   0  0  0  0  0  0  0  0  0  0  0  0
  188.3040  178.5420  142.4370 C   0  0  0  0  0  2  0  0  0  0  0  0
  188.6970  177.0970  142.6860 C   0  0  0  0  0  2  0  0  0  0  0  0
  189.5190  176.9730  143.9700 C   0  0  2  0  0  3  0  0  0  0  0  0
  186.7930  177.9470  146.1240 C   0  0  0  0  0  0  0  0  0  0  0  0
  189.1150  177.5860  146.4330 C   0  0  1  0  0  3  0  0  0  0  0  0
  185.5570  178.4000  146.3090 C   0  0  0  0  0  2  0  0  0  0  0  0
  187.8830  178.1740  147.1000 C   0  0  0  0  0  2  0  0  0  0  0  0
  189.7800  176.7480  147.3270 O   0  0  0  0  0  1  0  0  0  0  0  0
  187.2010  177.1730  144.9300 C   0  0  0  0  0  2  0  0  0  0  0  0
  188.6410  176.7810  145.2150 C   0  0  1  0  0  3  0  0  0  0  0  0
  191.0870  178.4390  142.9080 F   0  0  0  0  0  0  0  0  0  0  0  0
  190.5010  178.1350  144.1230 C   0  0  0  0  0  3  0  0  0  0  0  0
  191.4780  177.8510  145.0600 F   0  0  0  0  0  0  0  0  0  0  0  0
  1  2  1  0  0  0  0
  1  4  1  0  0  0  0
  2  8  2  0  0  0  0
  3  4  2  0  0  0  0
  3  6  1  0  0  0  0
  4  7  1  0  0  0  0
  5  9  1  0  0  0  0
  6  5  2  0  0  0  0
  7  9  2  0  0  0  0
  8  7  1  0  0  0  0
  8 40  1  0  0  0  0
 10 11  1  6  0  0  0
 10  6  1  0  0  0  0
 12 17  1  0  0  0  0
 13 14  1  0  0  0  0
 13 12  1  0  0  0  0
 14 24  1  1  0  0  0
 14 18  1  0  0  0  0
 15 16  1  1  0  0  0
 17 15  1  0  0  0  0
 17 10  1  6  0  0  0
 18 15  1  0  0  0  0
 20 19  1  1  0  0  0
 20 13  1  0  0  0  0
 21 23  2  0  0  0  0
 21 20  1  0  0  0  0
 22 21  1  0  0  0  0
 24 25  1  0  0  0  0
 26 28  1  0  0  0  0
 27 28  2  0  0  0  0
 28 25  1  0  0  0  0
 29  2  1  0  0  0  0
 30 39  1  0  0  0  0
 31 35  1  0  0  0  0
 31 29  1  1  0  0  0
 33 32  1  0  0  0  0
 34 38  1  0  0  0  0
 34 33  1  0  0  0  0
 36 39  1  0  0  0  0
 37 36  1  6  0  0  0
 37 31  1  0  0  0  0
 37 35  1  0  0  0  0
 37 32  1  0  0  0  0
 39 34  2  0  0  0  0
 40 41  1  0  0  0  0
 42 41  1  6  0  0  0
 42 51  1  0  0  0  0
 43 45  2  0  0  0  0
 43 46  1  0  0  0  0
 44 46  1  0  0  0  0
 44 47  1  1  0  0  0
 48 49  1  0  0  0  0
 48 43  1  0  0  0  0
 49 42  1  6  0  0  0
 49 44  1  0  0  0  0
 50 51  1  0  0  0  0
 51 52  1  0  0  0  0
M  END
>  <MODEL>
3

>  <REMARK>
 VINA RESULT:      -8.4      4.740     10.688
  Name = 
  14 active torsions:
  status: ('A' for Active; 'I' for Inactive)
    1  A    between atoms: C_4  and  C_28
    2  A    between atoms: C_4  and  C_45
    3  A    between atoms: O_6  and  C_10
    4  A    between atoms: O_6  and  C_17
    5  A    between atoms: N_9  and  C_50
    6  A    between atoms: C_16  and  C_21
    7  A    between atoms: C_18  and  C_50
    8  A    between atoms: C_21  and  C_42
    9  A    between atoms: C_21  and  C_47
   10  A    between atoms: C_30  and  C_36
   11  A    between atoms: C_36  and  C_44
   12  A    between atoms: C_37  and  C_45
   13  A    between atoms: C_38  and  C_40
   14  A    between atoms: C_40  and  C_47
                            x       y       z     vdW  Elec       q    Type
                         _______ _______ _______ _____ _____    ______ ____

>  <TORSDO>
F 14

$$$$
=
 OpenBabel11032421193D

 52 57  0  0  1  0  0  0  0  0999 V2000
  188.3530  177.6000  138.3370 O   0  0  0  0  0  0  0  0  0  0  0  0
  187.8980  178.0880  139.4790 C   0  0  0  0  0  0  0  0  0  0  0  0
  190.5190  176.8040  137.5800 C   0  0  0  0  0  3  0  0  0  0  0  0
  189.6260  177.3310  138.5120 C   0  0  0  0  0  0  0  0  0  0  0  0
  192.2460  176.9240  139.3130 C   0  0  0  0  0  3  0  0  0  0  0  0
  191.8480  176.5950  137.9930 C   0  0  0  0  0  0  0  0  0  0  0  0
  190.0180  177.6440  139.7900 C   0  0  0  0  0  0  0  0  0  0  0  0
  188.9060  178.1330  140.4320 C   0  0  0  0  0  0  0  0  0  0  0  0
  191.3250  177.4570  140.2300 C   0  0  0  0  0  3  0  0  0  0  0  0
  192.8360  176.0300  137.0200 C   0  0  1  0  0  3  0  0  0  0  0  0
  193.8440  176.9730  136.7930 O   0  0  0  0  0  1  0  0  0  0  0  0
  194.9000  174.8840  137.8820 C   0  0  0  0  0  2  0  0  0  0  0  0
  195.4650  173.6560  138.4610 N   0  0  0  0  0  0  0  0  0  0  0  0
  195.4930  172.6580  137.3690 C   0  0  2  0  0  3  0  0  0  0  0  0
  193.3520  173.6170  136.4310 C   0  0  1  0  0  3  0  0  0  0  0  0
  192.0260  173.2940  136.1470 O   0  0  0  0  0  1  0  0  0  0  0  0
  193.4280  174.6980  137.5130 C   0  0  2  0  0  3  0  0  0  0  0  0
  194.0690  172.3570  136.8930 C   0  0  0  0  0  2  0  0  0  0  0  0
  196.8130  175.0010  139.8740 O   0  0  0  0  0  1  0  0  0  0  0  0
  196.8370  173.9870  138.9140 C   0  0  2  0  0  3  0  0  0  0  0  0
  197.7100  174.4580  137.7810 C   0  0  0  0  0  0  0  0  0  0  0  0
  198.8540  173.6170  137.3310 C   0  0  0  0  0  1  0  0  0  0  0  0
  197.4810  175.5170  137.2190 O   0  0  0  0  0  0  0  0  0  0  0  0
  196.0920  171.3230  137.8070 C   0  0  0  0  0  2  0  0  0  0  0  0
  196.1440  170.3470  136.6390 C   0  0  0  0  0  2  0  0  0  0  0  0
  197.5380  171.1360  134.6140 C   0  0  0  0  0  1  0  0  0  0  0  0
  198.4530  169.9340  136.4070 O   0  0  0  0  0  0  0  0  0  0  0  0
  197.4530  170.4380  135.9250 C   0  0  0  0  0  0  0  0  0  0  0  0
  186.5800  178.4880  139.6930 O   0  0  0  0  0  0  0  0  0  0  0  0
  180.5070  178.1340  138.2520 C   0  0  0  0  0  1  0  0  0  0  0  0
  185.6070  178.4130  138.6610 C   0  0  2  0  0  3  0  0  0  0  0  0
  184.0070  178.9300  140.6610 C   0  0  0  0  0  2  0  0  0  0  0  0
  182.9860  177.9450  141.2100 C   0  0  0  0  0  2  0  0  0  0  0  0
  181.7160  178.0120  140.4080 C   0  0  0  0  0  0  0  0  0  0  0  0
  184.9520  179.6560  138.5450 O   0  0  0  0  0  0  0  0  0  0  0  0
  183.0750  178.1270  138.3140 C   0  0  0  0  0  2  0  0  0  0  0  0
  184.2340  178.6280  139.1800 C   0  0  1  0  0  0  0  0  0  0  0  0
  180.1890  177.9970  141.2860 Cl  0  0  0  0  0  0  0  0  0  0  0  0
  181.7610  178.0950  139.0620 C   0  0  0  0  0  0  0  0  0  0  0  0
  188.8170  178.6620  141.8220 C   0  0  0  0  0  2  0  0  0  0  0  0
  189.8850  178.0140  142.6840 C   0  0  0  0  0  2  0  0  0  0  0  0
  189.4650  176.6040  143.1000 C   0  0  2  0  0  3  0  0  0  0  0  0
  186.3780  177.9010  144.4460 C   0  0  0  0  0  0  0  0  0  0  0  0
  188.5700  177.5950  145.2960 C   0  0  1  0  0  3  0  0  0  0  0  0
  185.1460  178.3760  144.2910 C   0  0  0  0  0  2  0  0  0  0  0  0
  187.2440  178.2790  145.5860 C   0  0  0  0  0  2  0  0  0  0  0  0
  189.0030  176.9080  146.4280 O   0  0  0  0  0  1  0  0  0  0  0  0
  187.0040  176.9500  143.5000 C   0  0  0  0  0  2  0  0  0  0  0  0
  188.3380  176.6090  144.1430 C   0  0  1  0  0  3  0  0  0  0  0  0
  191.8480  176.3680  143.1520 F   0  0  0  0  0  0  0  0  0  0  0  0
  190.6650  175.7670  143.5440 C   0  0  0  0  0  3  0  0  0  0  0  0
  190.6000  174.4810  143.0370 F   0  0  0  0  0  0  0  0  0  0  0  0
  1  4  1  0  0  0  0
  1  2  1  0  0  0  0
  2 29  1  0  0  0  0
  2  8  2  0  0  0  0
  3  6  2  0  0  0  0
  3  4  1  0  0  0  0
  4  7  2  0  0  0  0
  5  9  2  0  0  0  0
  6  5  1  0  0  0  0
  7  9  1  0  0  0  0
  7  8  1  0  0  0  0
  8 40  1  0  0  0  0
 10 11  1  1  0  0  0
 10  6  1  0  0  0  0
 12 13  1  0  0  0  0
 13 20  1  0  0  0  0
 14 24  1  1  0  0  0
 14 13  1  0  0  0  0
 15 16  1  1  0  0  0
 15 18  1  0  0  0  0
 15 17  1  0  0  0  0
 17 10  1  6  0  0  0
 17 12  1  0  0  0  0
 18 14  1  0  0  0  0
 20 19  1  1  0  0  0
 21 20  1  0  0  0  0
 22 21  1  0  0  0  0
 23 21  2  0  0  0  0
 25 24  1  0  0  0  0
 26 28  1  0  0  0  0
 28 27  2  0  0  0  0
 28 25  1  0  0  0  0
 30 39  1  0  0  0  0
 31 37  1  0  0  0  0
 31 29  1  1  0  0  0
 32 33  1  0  0  0  0
 34 33  1  0  0  0  0
 34 38  1  0  0  0  0
 35 31  1  0  0  0  0
 35 37  1  0  0  0  0
 36 39  1  0  0  0  0
 37 36  1  6  0  0  0
 37 32  1  0  0  0  0
 39 34  2  0  0  0  0
 40 41  1  0  0  0  0
 42 41  1  1  0  0  0
 42 51  1  0  0  0  0
 43 46  1  0  0  0  0
 44 46  1  0  0  0  0
 44 47  1  1  0  0  0
 45 43  2  0  0  0  0
 48 49  1  0  0  0  0
 48 43  1  0  0  0  0
 49 42  1  6  0  0  0
 49 44  1  0  0  0  0
 50 51  1  0  0  0  0
 52 51  1  0  0  0  0
M  END
>  <MODEL>
4

>  <REMARK>
 VINA RESULT:      -8.4      1.647      2.089
  Name = 
  14 active torsions:
  status: ('A' for Active; 'I' for Inactive)
    1  A    between atoms: C_4  and  C_28
    2  A    between atoms: C_4  and  C_45
    3  A    between atoms: O_6  and  C_10
    4  A    between atoms: O_6  and  C_17
    5  A    between atoms: N_9  and  C_50
    6  A    between atoms: C_16  and  C_21
    7  A    between atoms: C_18  and  C_50
    8  A    between atoms: C_21  and  C_42
    9  A    between atoms: C_21  and  C_47
   10  A    between atoms: C_30  and  C_36
   11  A    between atoms: C_36  and  C_44
   12  A    between atoms: C_37  and  C_45
   13  A    between atoms: C_38  and  C_40
   14  A    between atoms: C_40  and  C_47
                            x       y       z     vdW  Elec       q    Type
                         _______ _______ _______ _____ _____    ______ ____

>  <TORSDO>
F 14

$$$$
=
 OpenBabel11032421193D

 52 57  0  0  1  0  0  0  0  0999 V2000
  190.1570  176.5180  137.6130 O   0  0  0  0  0  0  0  0  0  0  0  0
  191.0660  176.5510  138.5730 C   0  0  0  0  0  0  0  0  0  0  0  0
  187.8440  177.2390  137.4470 C   0  0  0  0  0  3  0  0  0  0  0  0
  189.0640  177.0610  138.0970 C   0  0  0  0  0  0  0  0  0  0  0  0
  187.0050  178.2590  139.5110 C   0  0  0  0  0  3  0  0  0  0  0  0
  186.8020  177.8510  138.1680 C   0  0  0  0  0  0  0  0  0  0  0  0
  189.2550  177.4600  139.3970 C   0  0  0  0  0  0  0  0  0  0  0  0
  190.5520  177.1410  139.7190 C   0  0  0  0  0  0  0  0  0  0  0  0
  188.2450  178.0640  140.1420 C   0  0  0  0  0  3  0  0  0  0  0  0
  185.4760  178.0600  137.5040 C   0  0  1  0  0  3  0  0  0  0  0  0
  185.3190  177.1100  136.4890 O   0  0  0  0  0  1  0  0  0  0  0  0
  183.2310  177.0430  137.9930 C   0  0  0  0  0  2  0  0  0  0  0  0
  182.1560  176.8690  138.9810 N   0  0  0  0  0  0  0  0  0  0  0  0
  181.4710  178.1760  139.0830 C   0  0  2  0  0  3  0  0  0  0  0  0
  183.6710  179.3630  138.7200 C   0  0  1  0  0  3  0  0  0  0  0  0
  184.5680  180.2420  139.3250 O   0  0  0  0  0  1  0  0  0  0  0  0
  184.3130  177.9900  138.5100 C   0  0  2  0  0  3  0  0  0  0  0  0
  182.4400  179.2410  139.6060 C   0  0  0  0  0  2  0  0  0  0  0  0
  181.0580  174.8040  139.3750 O   0  0  0  0  0  1  0  0  0  0  0  0
  181.2440  175.8310  138.4460 C   0  0  2  0  0  3  0  0  0  0  0  0
  181.7760  175.2050  137.1830 C   0  0  0  0  0  0  0  0  0  0  0  0
  182.4710  173.8900  137.2470 C   0  0  0  0  0  1  0  0  0  0  0  0
  181.6300  175.7600  136.1060 O   0  0  0  0  0  0  0  0  0  0  0  0
  180.2950  178.1490  140.0580 C   0  0  0  0  0  2  0  0  0  0  0  0
  180.5650  179.0540  141.2520 C   0  0  0  0  0  2  0  0  0  0  0  0
  179.2570  179.6500  143.3970 C   0  0  0  0  0  1  0  0  0  0  0  0
  179.5140  177.4510  142.6250 O   0  0  0  0  0  0  0  0  0  0  0  0
  179.7570  178.6310  142.4360 C   0  0  0  0  0  0  0  0  0  0  0  0
  192.3670  176.0700  138.4400 O   0  0  0  0  0  0  0  0  0  0  0  0
  197.2940  174.3990  134.9720 C   0  0  0  0  0  1  0  0  0  0  0  0
  193.1290  176.3100  137.2640 C   0  0  2  0  0  3  0  0  0  0  0  0
  194.1680  174.0070  137.9320 C   0  0  0  0  0  2  0  0  0  0  0  0
  195.6050  173.8250  138.3990 C   0  0  0  0  0  2  0  0  0  0  0  0
  196.5230  173.6970  137.2160 C   0  0  0  0  0  0  0  0  0  0  0  0
  192.8740  175.2900  136.3250 O   0  0  0  0  0  0  0  0  0  0  0  0
  195.2800  175.5450  136.0820 C   0  0  0  0  0  2  0  0  0  0  0  0
  194.1020  175.2210  137.0050 C   0  0  1  0  0  0  0  0  0  0  0  0
  197.7770  172.4620  137.2820 Cl  0  0  0  0  0  0  0  0  0  0  0  0
  196.3710  174.4980  136.1410 C   0  0  0  0  0  0  0  0  0  0  0  0
  191.2340  177.3190  141.0320 C   0  0  0  0  0  2  0  0  0  0  0  0
  190.6340  176.3680  142.0520 C   0  0  0  0  0  2  0  0  0  0  0  0
  190.8310  176.9010  143.4710 C   0  0  2  0  0  3  0  0  0  0  0  0
  187.4550  177.4950  144.5980 C   0  0  0  0  0  0  0  0  0  0  0  0
  189.5830  177.4790  145.6420 C   0  0  1  0  0  3  0  0  0  0  0  0
  186.1760  177.7660  144.3570 C   0  0  0  0  0  2  0  0  0  0  0  0
  188.1350  177.8900  145.8520 C   0  0  0  0  0  2  0  0  0  0  0  0
  190.0330  176.7580  146.7470 O   0  0  0  0  0  1  0  0  0  0  0  0
  188.3240  176.7740  143.6400 C   0  0  0  0  0  2  0  0  0  0  0  0
  189.6360  176.5990  144.3860 C   0  0  1  0  0  3  0  0  0  0  0  0
  191.9670  178.6980  144.5760 F   0  0  0  0  0  0  0  0  0  0  0  0
  191.2020  178.3850  143.4680 C   0  0  0  0  0  3  0  0  0  0  0  0
  190.0740  179.1870  143.4320 F   0  0  0  0  0  0  0  0  0  0  0  0
  1  4  1  0  0  0  0
  1  2  1  0  0  0  0
  2  8  2  0  0  0  0
  3  4  2  0  0  0  0
  3  6  1  0  0  0  0
  4  7  1  0  0  0  0
  5  9  1  0  0  0  0
  6  5  2  0  0  0  0
  7  8  1  0  0  0  0
  7  9  2  0  0  0  0
  8 40  1  0  0  0  0
 10 11  1  6  0  0  0
 10  6  1  0  0  0  0
 12 17  1  0  0  0  0
 12 13  1  0  0  0  0
 13 14  1  0  0  0  0
 14 18  1  0  0  0  0
 14 24  1  1  0  0  0
 15 16  1  1  0  0  0
 15 18  1  0  0  0  0
 17 10  1  6  0  0  0
 17 15  1  0  0  0  0
 20 13  1  0  0  0  0
 20 19  1  1  0  0  0
 21 22  1  0  0  0  0
 21 20  1  0  0  0  0
 23 21  2  0  0  0  0
 24 25  1  0  0  0  0
 25 28  1  0  0  0  0
 28 27  2  0  0  0  0
 28 26  1  0  0  0  0
 29  2  1  0  0  0  0
 30 39  1  0  0  0  0
 31 29  1  1  0  0  0
 32 33  1  0  0  0  0
 34 38  1  0  0  0  0
 34 33  1  0  0  0  0
 35 37  1  0  0  0  0
 35 31  1  0  0  0  0
 36 39  1  0  0  0  0
 37 36  1  6  0  0  0
 37 31  1  0  0  0  0
 37 32  1  0  0  0  0
 39 34  2  0  0  0  0
 40 41  1  0  0  0  0
 42 41  1  6  0  0  0
 43 46  1  0  0  0  0
 44 46  1  0  0  0  0
 44 47  1  1  0  0  0
 45 43  2  0  0  0  0
 48 49  1  0  0  0  0
 48 43  1  0  0  0  0
 49 42  1  6  0  0  0
 49 44  1  0  0  0  0
 51 42  1  0  0  0  0
 51 50  1  0  0  0  0
 52 51  1  0  0  0  0
M  END
>  <MODEL>
5

>  <REMARK>
 VINA RESULT:      -8.3      3.985     11.300
  Name = 
  14 active torsions:
  status: ('A' for Active; 'I' for Inactive)
    1  A    between atoms: C_4  and  C_28
    2  A    between atoms: C_4  and  C_45
    3  A    between atoms: O_6  and  C_10
    4  A    between atoms: O_6  and  C_17
    5  A    between atoms: N_9  and  C_50
    6  A    between atoms: C_16  and  C_21
    7  A    between atoms: C_18  and  C_50
    8  A    between atoms: C_21  and  C_42
    9  A    between atoms: C_21  and  C_47
   10  A    between atoms: C_30  and  C_36
   11  A    between atoms: C_36  and  C_44
   12  A    between atoms: C_37  and  C_45
   13  A    between atoms: C_38  and  C_40
   14  A    between atoms: C_40  and  C_47
                            x       y       z     vdW  Elec       q    Type
                         _______ _______ _______ _____ _____    ______ ____

>  <TORSDO>
F 14

$$$$
=
 OpenBabel11032421193D

 52 57  0  0  1  0  0  0  0  0999 V2000
  185.6780  178.9960  140.2390 O   0  0  0  0  0  0  0  0  0  0  0  0
  184.9060  178.8070  139.1830 C   0  0  0  0  0  0  0  0  0  0  0  0
  185.2640  179.2000  142.6230 C   0  0  0  0  0  3  0  0  0  0  0  0
  184.8940  179.0210  141.2920 C   0  0  0  0  0  0  0  0  0  0  0  0
  182.8920  179.0080  143.2060 C   0  0  0  0  0  3  0  0  0  0  0  0
  184.2440  179.1890  143.5930 C   0  0  0  0  0  0  0  0  0  0  0  0
  183.5830  178.8440  140.9240 C   0  0  0  0  0  0  0  0  0  0  0  0
  183.5740  178.6980  139.5580 C   0  0  0  0  0  0  0  0  0  0  0  0
  182.5480  178.8330  141.8550 C   0  0  0  0  0  3  0  0  0  0  0  0
  184.6030  179.3780  145.0340 C   0  0  1  0  0  3  0  0  0  0  0  0
  183.7630  178.5830  145.8220 O   0  0  0  0  0  1  0  0  0  0  0  0
  186.6070  178.0820  144.2460 C   0  0  0  0  0  2  0  0  0  0  0  0
  188.0470  177.8370  144.4110 N   0  0  0  0  0  0  0  0  0  0  0  0
  188.1990  177.0970  145.6830 C   0  0  2  0  0  3  0  0  0  0  0  0
  186.2720  178.3960  146.6740 C   0  0  1  0  0  3  0  0  0  0  0  0
  185.9460  179.2840  147.6970 O   0  0  0  0  0  1  0  0  0  0  0  0
  186.0830  179.0530  145.3040 C   0  0  2  0  0  3  0  0  0  0  0  0
  187.7180  177.9580  146.8550 C   0  0  0  0  0  2  0  0  0  0  0  0
  189.2640  175.9360  143.6840 O   0  0  0  0  0  1  0  0  0  0  0  0
  188.4760  177.0090  143.2600 C   0  0  2  0  0  3  0  0  0  0  0  0
  189.2870  177.7970  142.2640 C   0  0  0  0  0  0  0  0  0  0  0  0
  188.7810  177.9750  140.8750 C   0  0  0  0  0  1  0  0  0  0  0  0
  190.3490  178.3030  142.5900 O   0  0  0  0  0  0  0  0  0  0  0  0
  189.6520  176.7350  145.9830 C   0  0  0  0  0  2  0  0  0  0  0  0
  190.0650  177.2560  147.3530 C   0  0  0  0  0  2  0  0  0  0  0  0
  192.0290  175.6190  146.9980 C   0  0  0  0  0  1  0  0  0  0  0  0
  192.0610  177.3240  148.6060 O   0  0  0  0  0  0  0  0  0  0  0  0
  191.4330  176.7770  147.7160 C   0  0  0  0  0  0  0  0  0  0  0  0
  185.3750  178.7160  137.8730 O   0  0  0  0  0  0  0  0  0  0  0  0
  187.5040  173.0450  136.3260 C   0  0  0  0  0  1  0  0  0  0  0  0
  186.5050  177.9210  137.5440 C   0  0  2  0  0  3  0  0  0  0  0  0
  184.6340  176.2360  136.8460 C   0  0  0  0  0  2  0  0  0  0  0  0
  184.3620  174.9220  137.5640 C   0  0  0  0  0  2  0  0  0  0  0  0
  185.2760  173.8480  137.0460 C   0  0  0  0  0  0  0  0  0  0  0  0
  186.4940  177.6400  136.1630 O   0  0  0  0  0  0  0  0  0  0  0  0
  187.1660  175.4830  137.0630 C   0  0  0  0  0  2  0  0  0  0  0  0
  186.1110  176.5920  137.0170 C   0  0  1  0  0  0  0  0  0  0  0  0
  184.5830  172.2580  136.7380 Cl  0  0  0  0  0  0  0  0  0  0  0  0
  186.5790  174.1110  136.8150 C   0  0  0  0  0  0  0  0  0  0  0  0
  182.3910  178.5340  138.6670 C   0  0  0  0  0  2  0  0  0  0  0  0
  181.6640  179.8610  138.5360 C   0  0  0  0  0  2  0  0  0  0  0  0
  180.3370  179.6810  137.7990 C   0  0  2  0  0  3  0  0  0  0  0  0
  180.4650  182.8650  136.1060 C   0  0  0  0  0  0  0  0  0  0  0  0
  180.0320  182.1760  138.3320 C   0  0  1  0  0  3  0  0  0  0  0  0
  180.8160  183.6220  135.0710 C   0  0  0  0  0  2  0  0  0  0  0  0
  180.3370  183.3970  137.4810 C   0  0  0  0  0  2  0  0  0  0  0  0
  178.9360  182.4360  139.1520 O   0  0  0  0  0  1  0  0  0  0  0  0
  180.1680  181.4190  135.9870 C   0  0  0  0  0  2  0  0  0  0  0  0
  179.7100  181.0180  137.3790 C   0  0  1  0  0  3  0  0  0  0  0  0
  179.8600  178.5630  139.8630 F   0  0  0  0  0  0  0  0  0  0  0  0
  179.3660  178.8070  138.5950 C   0  0  0  0  0  3  0  0  0  0  0  0
  179.1180  177.6090  137.9480 F   0  0  0  0  0  0  0  0  0  0  0  0
  1  4  1  0  0  0  0
  2  8  2  0  0  0  0
  2  1  1  0  0  0  0
  3  6  1  0  0  0  0
  4  3  2  0  0  0  0
  5  6  2  0  0  0  0
  6 10  1  0  0  0  0
  7  4  1  0  0  0  0
  7  9  2  0  0  0  0
  8  7  1  0  0  0  0
  9  5  1  0  0  0  0
 10 11  1  1  0  0  0
 12 13  1  0  0  0  0
 12 17  1  0  0  0  0
 13 14  1  0  0  0  0
 14 24  1  1  0  0  0
 14 18  1  0  0  0  0
 15 18  1  0  0  0  0
 15 16  1  1  0  0  0
 17 10  1  6  0  0  0
 17 15  1  0  0  0  0
 20 19  1  1  0  0  0
 20 13  1  0  0  0  0
 21 23  2  0  0  0  0
 21 20  1  0  0  0  0
 22 21  1  0  0  0  0
 24 25  1  0  0  0  0
 25 28  1  0  0  0  0
 26 28  1  0  0  0  0
 28 27  2  0  0  0  0
 29  2  1  0  0  0  0
 30 39  1  0  0  0  0
 31 29  1  6  0  0  0
 32 33  1  0  0  0  0
 34 33  1  0  0  0  0
 35 37  1  0  0  0  0
 35 31  1  0  0  0  0
 37 32  1  1  0  0  0
 37 36  1  0  0  0  0
 37 31  1  0  0  0  0
 38 34  1  0  0  0  0
 39 34  2  0  0  0  0
 39 36  1  0  0  0  0
 40  8  1  0  0  0  0
 41 40  1  0  0  0  0
 42 41  1  1  0  0  0
 42 51  1  0  0  0  0
 43 46  1  0  0  0  0
 44 47  1  1  0  0  0
 45 43  2  0  0  0  0
 46 44  1  0  0  0  0
 48 43  1  0  0  0  0
 48 49  1  0  0  0  0
 49 42  1  1  0  0  0
 49 44  1  0  0  0  0
 51 50  1  0  0  0  0
 52 51  1  0  0  0  0
M  END
>  <MODEL>
6

>  <REMARK>
 VINA RESULT:      -7.9      5.799     10.209
  Name = 
  14 active torsions:
  status: ('A' for Active; 'I' for Inactive)
    1  A    between atoms: C_4  and  C_28
    2  A    between atoms: C_4  and  C_45
    3  A    between atoms: O_6  and  C_10
    4  A    between atoms: O_6  and  C_17
    5  A    between atoms: N_9  and  C_50
    6  A    between atoms: C_16  and  C_21
    7  A    between atoms: C_18  and  C_50
    8  A    between atoms: C_21  and  C_42
    9  A    between atoms: C_21  and  C_47
   10  A    between atoms: C_30  and  C_36
   11  A    between atoms: C_36  and  C_44
   12  A    between atoms: C_37  and  C_45
   13  A    between atoms: C_38  and  C_40
   14  A    between atoms: C_40  and  C_47
                            x       y       z     vdW  Elec       q    Type
                         _______ _______ _______ _____ _____    ______ ____

>  <TORSDO>
F 14

$$$$
=
 OpenBabel11032421193D

 52 57  0  0  1  0  0  0  0  0999 V2000
  189.8680  176.8710  139.4340 O   0  0  0  0  0  0  0  0  0  0  0  0
  189.5320  177.6730  140.4300 C   0  0  0  0  0  0  0  0  0  0  0  0
  188.7640  176.1530  137.3940 C   0  0  0  0  0  3  0  0  0  0  0  0
  188.8620  176.8610  138.5900 C   0  0  0  0  0  0  0  0  0  0  0  0
  186.5360  177.1320  137.1100 C   0  0  0  0  0  3  0  0  0  0  0  0
  187.5820  176.2960  136.6430 C   0  0  0  0  0  0  0  0  0  0  0  0
  187.8470  177.6700  139.0350 C   0  0  0  0  0  0  0  0  0  0  0  0
  188.2680  178.2100  140.2270 C   0  0  0  0  0  0  0  0  0  0  0  0
  186.6620  177.8320  138.3220 C   0  0  0  0  0  3  0  0  0  0  0  0
  187.4400  175.5510  135.3520 C   0  0  1  0  0  3  0  0  0  0  0  0
  188.6790  175.0050  135.0010 O   0  0  0  0  0  1  0  0  0  0  0  0
  185.0260  175.0730  135.8610 C   0  0  0  0  0  2  0  0  0  0  0  0
  183.9470  174.0740  135.8450 N   0  0  0  0  0  0  0  0  0  0  0  0
  184.2580  173.1110  136.9250 C   0  0  2  0  0  3  0  0  0  0  0  0
  186.7270  173.3860  136.4670 C   0  0  1  0  0  3  0  0  0  0  0  0
  187.8630  172.6850  136.0660 O   0  0  0  0  0  1  0  0  0  0  0  0
  186.3600  174.4580  135.4370 C   0  0  2  0  0  3  0  0  0  0  0  0
  185.5820  172.3980  136.6320 C   0  0  0  0  0  2  0  0  0  0  0  0
  181.8560  174.8070  135.0020 O   0  0  0  0  0  1  0  0  0  0  0  0
  182.6860  174.7980  136.1260 C   0  0  2  0  0  3  0  0  0  0  0  0
  182.9310  176.2320  136.5170 C   0  0  0  0  0  0  0  0  0  0  0  0
  183.1310  177.2620  135.4600 C   0  0  0  0  0  1  0  0  0  0  0  0
  182.9520  176.5600  137.6930 O   0  0  0  0  0  0  0  0  0  0  0  0
  183.2010  172.0170  137.0600 C   0  0  0  0  0  2  0  0  0  0  0  0
  183.0850  171.2190  135.7690 C   0  0  0  0  0  2  0  0  0  0  0  0
  181.2090  169.6280  134.9830 C   0  0  0  0  0  1  0  0  0  0  0  0
  180.8450  171.8920  135.4690 O   0  0  0  0  0  0  0  0  0  0  0  0
  181.6530  170.9810  135.4150 C   0  0  0  0  0  0  0  0  0  0  0  0
  190.3480  177.9490  141.5270 O   0  0  0  0  0  0  0  0  0  0  0  0
  191.8650  175.2520  146.9590 C   0  0  0  0  0  1  0  0  0  0  0  0
  191.0830  176.9230  142.1790 C   0  0  2  0  0  3  0  0  0  0  0  0
  189.5750  177.6500  144.1850 C   0  0  0  0  0  2  0  0  0  0  0  0
  190.0990  178.3340  145.4390 C   0  0  0  0  0  2  0  0  0  0  0  0
  190.6020  177.3110  146.4180 C   0  0  0  0  0  0  0  0  0  0  0  0
  190.1980  175.9130  142.6070 O   0  0  0  0  0  0  0  0  0  0  0  0
  191.6750  176.0720  144.5310 C   0  0  0  0  0  2  0  0  0  0  0  0
  190.6860  176.7780  143.6010 C   0  0  1  0  0  0  0  0  0  0  0  0
  190.1850  177.5240  148.1150 Cl  0  0  0  0  0  0  0  0  0  0  0  0
  191.3350  176.2610  145.9930 C   0  0  0  0  0  0  0  0  0  0  0  0
  187.5080  179.1110  141.1370 C   0  0  0  0  0  2  0  0  0  0  0  0
  186.3970  178.3320  141.8160 C   0  0  0  0  0  2  0  0  0  0  0  0
  185.1390  179.1900  141.9560 C   0  0  2  0  0  3  0  0  0  0  0  0
  185.2690  178.6130  145.5150 C   0  0  0  0  0  0  0  0  0  0  0  0
  183.5410  179.0920  143.9660 C   0  0  1  0  0  3  0  0  0  0  0  0
  185.8950  178.1750  146.6040 C   0  0  0  0  0  2  0  0  0  0  0  0
  183.7950  178.6230  145.3890 C   0  0  0  0  0  2  0  0  0  0  0  0
  182.5940  180.1150  143.9690 O   0  0  0  0  0  1  0  0  0  0  0  0
  185.9830  179.1330  144.3260 C   0  0  0  0  0  2  0  0  0  0  0  0
  184.8720  179.6130  143.4070 C   0  0  1  0  0  3  0  0  0  0  0  0
  184.1730  177.1750  141.0950 F   0  0  0  0  0  0  0  0  0  0  0  0
  183.9250  178.5170  141.3130 C   0  0  0  0  0  3  0  0  0  0  0  0
  183.5790  179.1320  140.1220 F   0  0  0  0  0  0  0  0  0  0  0  0
  1  2  1  0  0  0  0
  2 29  1  0  0  0  0
  3  4  1  0  0  0  0
  4  7  2  0  0  0  0
  4  1  1  0  0  0  0
  5  9  2  0  0  0  0
  6  5  1  0  0  0  0
  6  3  2  0  0  0  0
  7  8  1  0  0  0  0
  8  2  2  0  0  0  0
  8 40  1  0  0  0  0
  9  7  1  0  0  0  0
 10 11  1  1  0  0  0
 10  6  1  0  0  0  0
 13 12  1  0  0  0  0
 13 20  1  0  0  0  0
 13 14  1  0  0  0  0
 14 24  1  6  0  0  0
 15 16  1  6  0  0  0
 15 18  1  0  0  0  0
 17 10  1  1  0  0  0
 17 12  1  0  0  0  0
 17 15  1  0  0  0  0
 18 14  1  0  0  0  0
 20 19  1  6  0  0  0
 20 21  1  0  0  0  0
 21 23  2  0  0  0  0
 22 21  1  0  0  0  0
 25 24  1  0  0  0  0
 26 28  1  0  0  0  0
 28 27  2  0  0  0  0
 28 25  1  0  0  0  0
 31 29  1  6  0  0  0
 31 35  1  0  0  0  0
 31 37  1  0  0  0  0
 32 33  1  0  0  0  0
 33 34  1  0  0  0  0
 34 38  1  0  0  0  0
 35 37  1  0  0  0  0
 36 39  1  0  0  0  0
 37 32  1  1  0  0  0
 37 36  1  0  0  0  0
 39 34  2  0  0  0  0
 39 30  1  0  0  0  0
 40 41  1  0  0  0  0
 42 41  1  1  0  0  0
 43 45  2  0  0  0  0
 44 47  1  1  0  0  0
 44 46  1  0  0  0  0
 46 43  1  0  0  0  0
 48 43  1  0  0  0  0
 49 42  1  6  0  0  0
 49 44  1  0  0  0  0
 49 48  1  0  0  0  0
 50 51  1  0  0  0  0
 51 42  1  0  0  0  0
 52 51  1  0  0  0  0
M  END
>  <MODEL>
7

>  <REMARK>
 VINA RESULT:      -7.6      5.319      9.002
  Name = 
  14 active torsions:
  status: ('A' for Active; 'I' for Inactive)
    1  A    between atoms: C_4  and  C_28
    2  A    between atoms: C_4  and  C_45
    3  A    between atoms: O_6  and  C_10
    4  A    between atoms: O_6  and  C_17
    5  A    between atoms: N_9  and  C_50
    6  A    between atoms: C_16  and  C_21
    7  A    between atoms: C_18  and  C_50
    8  A    between atoms: C_21  and  C_42
    9  A    between atoms: C_21  and  C_47
   10  A    between atoms: C_30  and  C_36
   11  A    between atoms: C_36  and  C_44
   12  A    between atoms: C_37  and  C_45
   13  A    between atoms: C_38  and  C_40
   14  A    between atoms: C_40  and  C_47
                            x       y       z     vdW  Elec       q    Type
                         _______ _______ _______ _____ _____    ______ ____

>  <TORSDO>
F 14

$$$$
=
 OpenBabel11032421193D

 52 57  0  0  1  0  0  0  0  0999 V2000
  190.4360  176.2130  137.1000 O   0  0  0  0  0  0  0  0  0  0  0  0
  191.1500  176.4070  138.1960 C   0  0  0  0  0  0  0  0  0  0  0  0
  188.1760  176.7890  136.4280 C   0  0  0  0  0  3  0  0  0  0  0  0
  189.2580  176.7530  137.3050 C   0  0  0  0  0  0  0  0  0  0  0  0
  186.9390  178.0060  138.1580 C   0  0  0  0  0  3  0  0  0  0  0  0
  187.0010  177.4300  136.8640 C   0  0  0  0  0  0  0  0  0  0  0  0
  189.1920  177.3150  138.5560 C   0  0  0  0  0  0  0  0  0  0  0  0
  190.4150  177.1040  139.1460 C   0  0  0  0  0  0  0  0  0  0  0  0
  188.0450  177.9520  139.0220 C   0  0  0  0  0  3  0  0  0  0  0  0
  185.8170  177.4890  135.9490 C   0  0  1  0  0  3  0  0  0  0  0  0
  186.0700  176.6990  134.8220 O   0  0  0  0  0  1  0  0  0  0  0  0
  184.2190  177.9790  137.8260 C   0  0  0  0  0  2  0  0  0  0  0  0
  182.9310  177.6470  138.4540 N   0  0  0  0  0  0  0  0  0  0  0  0
  183.1100  176.3230  139.0900 C   0  0  2  0  0  3  0  0  0  0  0  0
  184.6510  175.6240  137.2150 C   0  0  1  0  0  3  0  0  0  0  0  0
  184.7890  174.6970  136.1830 O   0  0  0  0  0  1  0  0  0  0  0  0
  184.5240  177.0430  136.6560 C   0  0  2  0  0  3  0  0  0  0  0  0
  183.4160  175.2640  138.0280 C   0  0  0  0  0  2  0  0  0  0  0  0
  182.2730  179.8890  138.8610 O   0  0  0  0  0  1  0  0  0  0  0  0
  182.6660  178.6930  139.4690 C   0  0  2  0  0  3  0  0  0  0  0  0
  183.8820  178.9920  140.3070 C   0  0  0  0  0  0  0  0  0  0  0  0
  184.0600  178.3080  141.6180 C   0  0  0  0  0  1  0  0  0  0  0  0
  184.7280  179.7780  139.9150 O   0  0  0  0  0  0  0  0  0  0  0  0
  181.8560  175.8480  139.8220 C   0  0  0  0  0  2  0  0  0  0  0  0
  180.9450  175.0720  138.8810 C   0  0  0  0  0  2  0  0  0  0  0  0
  179.3320  177.0310  139.3560 C   0  0  0  0  0  1  0  0  0  0  0  0
  179.1030  175.6050  137.5090 O   0  0  0  0  0  0  0  0  0  0  0  0
  179.7480  175.8840  138.5050 C   0  0  0  0  0  0  0  0  0  0  0  0
  192.4660  175.9800  138.3640 O   0  0  0  0  0  0  0  0  0  0  0  0
  197.6450  174.0860  135.4180 C   0  0  0  0  0  1  0  0  0  0  0  0
  193.4730  176.2930  137.4110 C   0  0  2  0  0  3  0  0  0  0  0  0
  193.9760  173.7430  137.6780 C   0  0  0  0  0  2  0  0  0  0  0  0
  195.2440  173.1880  138.3090 C   0  0  0  0  0  2  0  0  0  0  0  0
  196.3450  173.1170  137.2880 C   0  0  0  0  0  0  0  0  0  0  0  0
  193.2480  175.5540  136.2320 O   0  0  0  0  0  0  0  0  0  0  0  0
  195.6630  175.3650  136.4350 C   0  0  0  0  0  2  0  0  0  0  0  0
  194.2900  175.1060  137.0610 C   0  0  1  0  0  0  0  0  0  0  0  0
  197.3460  171.6690  137.2590 Cl  0  0  0  0  0  0  0  0  0  0  0  0
  196.5380  174.1310  136.4190 C   0  0  0  0  0  0  0  0  0  0  0  0
  190.8360  177.4740  140.5260 C   0  0  0  0  0  2  0  0  0  0  0  0
  190.0390  176.6670  141.5360 C   0  0  0  0  0  2  0  0  0  0  0  0
  190.5760  176.8860  142.9500 C   0  0  2  0  0  3  0  0  0  0  0  0
  187.4420  177.5400  144.6150 C   0  0  0  0  0  0  0  0  0  0  0  0
  189.7050  177.4200  145.3090 C   0  0  1  0  0  3  0  0  0  0  0  0
  186.1510  177.8590  144.5890 C   0  0  0  0  0  2  0  0  0  0  0  0
  188.3240  177.8660  145.7580 C   0  0  0  0  0  2  0  0  0  0  0  0
  190.2960  176.6440  146.3040 O   0  0  0  0  0  1  0  0  0  0  0  0
  188.1230  176.8300  143.5090 C   0  0  0  0  0  2  0  0  0  0  0  0
  189.5280  176.5870  144.0320 C   0  0  1  0  0  3  0  0  0  0  0  0
  192.0590  178.3060  144.1860 F   0  0  0  0  0  0  0  0  0  0  0  0
  191.1940  178.2770  143.1070 C   0  0  0  0  0  3  0  0  0  0  0  0
  190.2200  179.2480  143.2580 F   0  0  0  0  0  0  0  0  0  0  0  0
  1  4  1  0  0  0  0
  1  2  1  0  0  0  0
  2 29  1  0  0  0  0
  2  8  2  0  0  0  0
  3  6  2  0  0  0  0
  3  4  1  0  0  0  0
  4  7  2  0  0  0  0
  5  9  2  0  0  0  0
  6  5  1  0  0  0  0
  7  9  1  0  0  0  0
  7  8  1  0  0  0  0
  8 40  1  0  0  0  0
 10 11  1  6  0  0  0
 10  6  1  0  0  0  0
 12 13  1  0  0  0  0
 13 14  1  0  0  0  0
 13 20  1  0  0  0  0
 14 24  1  6  0  0  0
 15 16  1  6  0  0  0
 15 18  1  0  0  0  0
 17 10  1  1  0  0  0
 17 15  1  0  0  0  0
 17 12  1  0  0  0  0
 18 14  1  0  0  0  0
 20 19  1  6  0  0  0
 20 21  1  0  0  0  0
 21 22  1  0  0  0  0
 23 21  2  0  0  0  0
 25 24  1  0  0  0  0
 27 28  2  0  0  0  0
 28 25  1  0  0  0  0
 28 26  1  0  0  0  0
 30 39  1  0  0  0  0
 31 29  1  1  0  0  0
 32 33  1  0  0  0  0
 34 33  1  0  0  0  0
 35 37  1  0  0  0  0
 35 31  1  0  0  0  0
 37 36  1  6  0  0  0
 37 31  1  0  0  0  0
 37 32  1  0  0  0  0
 38 34  1  0  0  0  0
 39 36  1  0  0  0  0
 39 34  2  0  0  0  0
 40 41  1  0  0  0  0
 42 41  1  6  0  0  0
 42 51  1  0  0  0  0
 43 46  1  0  0  0  0
 44 46  1  0  0  0  0
 44 47  1  1  0  0  0
 45 43  2  0  0  0  0
 48 49  1  0  0  0  0
 48 43  1  0  0  0  0
 49 42  1  6  0  0  0
 49 44  1  0  0  0  0
 51 52  1  0  0  0  0
 51 50  1  0  0  0  0
M  END
>  <MODEL>
8

>  <REMARK>
 VINA RESULT:      -7.6      3.884     10.607
  Name = 
  14 active torsions:
  status: ('A' for Active; 'I' for Inactive)
    1  A    between atoms: C_4  and  C_28
    2  A    between atoms: C_4  and  C_45
    3  A    between atoms: O_6  and  C_10
    4  A    between atoms: O_6  and  C_17
    5  A    between atoms: N_9  and  C_50
    6  A    between atoms: C_16  and  C_21
    7  A    between atoms: C_18  and  C_50
    8  A    between atoms: C_21  and  C_42
    9  A    between atoms: C_21  and  C_47
   10  A    between atoms: C_30  and  C_36
   11  A    between atoms: C_36  and  C_44
   12  A    between atoms: C_37  and  C_45
   13  A    between atoms: C_38  and  C_40
   14  A    between atoms: C_40  and  C_47
                            x       y       z     vdW  Elec       q    Type
                         _______ _______ _______ _____ _____    ______ ____

>  <TORSDO>
F 14

$$$$
=
 OpenBabel11032421193D

 52 57  0  0  1  0  0  0  0  0999 V2000
  189.0140  177.9340  140.0300 O   0  0  0  0  0  0  0  0  0  0  0  0
  188.3150  178.4120  141.0450 C   0  0  0  0  0  0  0  0  0  0  0  0
  188.4840  177.3560  137.7320 C   0  0  0  0  0  3  0  0  0  0  0  0
  188.1920  177.8210  139.0120 C   0  0  0  0  0  0  0  0  0  0  0  0
  186.1340  177.7490  137.1600 C   0  0  0  0  0  3  0  0  0  0  0  0
  187.4370  177.3250  136.7920 C   0  0  0  0  0  0  0  0  0  0  0  0
  186.9300  178.2330  139.3610 C   0  0  0  0  0  0  0  0  0  0  0  0
  186.9930  178.6250  140.6770 C   0  0  0  0  0  0  0  0  0  0  0  0
  185.8690  178.2110  138.4600 C   0  0  0  0  0  3  0  0  0  0  0  0
  187.7120  176.8320  135.4060 C   0  0  1  0  0  3  0  0  0  0  0  0
  189.0700  176.5160  135.2940 O   0  0  0  0  0  1  0  0  0  0  0  0
  185.4000  175.8540  135.5210 C   0  0  0  0  0  2  0  0  0  0  0  0
  184.5090  174.7650  135.0930 N   0  0  0  0  0  0  0  0  0  0  0  0
  184.9440  173.5590  135.8330 C   0  0  2  0  0  3  0  0  0  0  0  0
  187.3430  174.3390  135.7060 C   0  0  1  0  0  3  0  0  0  0  0  0
  188.5960  173.9890  135.2050 O   0  0  0  0  0  1  0  0  0  0  0  0
  186.8330  175.6210  135.0430 C   0  0  2  0  0  3  0  0  0  0  0  0
  186.3790  173.1910  135.4470 C   0  0  0  0  0  2  0  0  0  0  0  0
  182.6480  176.1600  134.6340 O   0  0  0  0  0  1  0  0  0  0  0  0
  183.1340  175.1580  135.4770 C   0  0  2  0  0  3  0  0  0  0  0  0
  183.0670  175.6830  136.8870 C   0  0  0  0  0  0  0  0  0  0  0  0
  182.4770  177.0250  137.1480 C   0  0  0  0  0  1  0  0  0  0  0  0
  183.4790  175.0120  137.8200 O   0  0  0  0  0  0  0  0  0  0  0  0
  184.0860  172.3350  135.5200 C   0  0  0  0  0  2  0  0  0  0  0  0
  183.4460  171.7880  136.7880 C   0  0  0  0  0  2  0  0  0  0  0  0
  181.0530  171.8930  137.7540 C   0  0  0  0  0  1  0  0  0  0  0  0
  181.5130  171.2620  135.5430 O   0  0  0  0  0  0  0  0  0  0  0  0
  181.9700  171.6240  136.6130 C   0  0  0  0  0  0  0  0  0  0  0  0
  188.8420  178.6760  142.3080 O   0  0  0  0  0  0  0  0  0  0  0  0
  191.3170  175.9040  147.3350 C   0  0  0  0  0  1  0  0  0  0  0  0
  189.9200  177.9150  142.8350 C   0  0  2  0  0  3  0  0  0  0  0  0
  188.2620  177.6730  144.8400 C   0  0  0  0  0  2  0  0  0  0  0  0
  188.4910  178.2880  146.2120 C   0  0  0  0  0  2  0  0  0  0  0  0
  189.3560  177.3870  147.0480 C   0  0  0  0  0  0  0  0  0  0  0  0
  189.4940  176.5880  143.0500 O   0  0  0  0  0  0  0  0  0  0  0  0
  190.8100  176.9780  145.0570 C   0  0  0  0  0  2  0  0  0  0  0  0
  189.6190  177.3980  144.1920 C   0  0  1  0  0  0  0  0  0  0  0  0
  188.9000  177.1430  148.7320 Cl  0  0  0  0  0  0  0  0  0  0  0  0
  190.4340  176.7800  146.5090 C   0  0  0  0  0  0  0  0  0  0  0  0
  185.8760  179.1020  141.5390 C   0  0  0  0  0  2  0  0  0  0  0  0
  185.1260  177.9100  142.1070 C   0  0  0  0  0  2  0  0  0  0  0  0
  184.2540  178.3330  143.2900 C   0  0  2  0  0  3  0  0  0  0  0  0
  180.6600  178.6480  143.3030 C   0  0  0  0  0  0  0  0  0  0  0  0
  182.3020  178.3690  141.6180 C   0  0  1  0  0  3  0  0  0  0  0  0
  179.4890  178.6220  143.9330 C   0  0  0  0  0  2  0  0  0  0  0  0
  180.8050  178.3120  141.8690 C   0  0  0  0  0  2  0  0  0  0  0  0
  182.5610  179.1370  140.4840 O   0  0  0  0  0  1  0  0  0  0  0  0
  181.9290  179.0140  143.9710 C   0  0  0  0  0  2  0  0  0  0  0  0
  182.9520  179.0170  142.8480 C   0  0  1  0  0  3  0  0  0  0  0  0
  184.8310  178.7160  145.5830 F   0  0  0  0  0  0  0  0  0  0  0  0
  185.0420  179.1740  144.2960 C   0  0  0  0  0  3  0  0  0  0  0  0
  184.7020  180.5130  144.2100 F   0  0  0  0  0  0  0  0  0  0  0  0
  1  2  1  0  0  0  0
  2 29  1  0  0  0  0
  3  4  1  0  0  0  0
  4  7  2  0  0  0  0
  4  1  1  0  0  0  0
  5  9  2  0  0  0  0
  6  5  1  0  0  0  0
  6  3  2  0  0  0  0
  7  8  1  0  0  0  0
  8  2  2  0  0  0  0
  8 40  1  0  0  0  0
  9  7  1  0  0  0  0
 10 11  1  1  0  0  0
 10  6  1  0  0  0  0
 13 20  1  0  0  0  0
 13 12  1  0  0  0  0
 13 14  1  0  0  0  0
 14 24  1  6  0  0  0
 15 16  1  6  0  0  0
 17 10  1  1  0  0  0
 17 12  1  0  0  0  0
 17 15  1  0  0  0  0
 18 15  1  0  0  0  0
 18 14  1  0  0  0  0
 20 19  1  6  0  0  0
 20 21  1  0  0  0  0
 21 22  1  0  0  0  0
 21 23  2  0  0  0  0
 24 25  1  0  0  0  0
 27 28  2  0  0  0  0
 28 25  1  0  0  0  0
 28 26  1  0  0  0  0
 31 29  1  6  0  0  0
 31 35  1  0  0  0  0
 31 37  1  0  0  0  0
 32 33  1  0  0  0  0
 33 34  1  0  0  0  0
 34 38  1  0  0  0  0
 35 37  1  0  0  0  0
 36 39  1  0  0  0  0
 37 32  1  1  0  0  0
 37 36  1  0  0  0  0
 39 34  2  0  0  0  0
 39 30  1  0  0  0  0
 40 41  1  0  0  0  0
 42 41  1  6  0  0  0
 42 51  1  0  0  0  0
 43 45  2  0  0  0  0
 43 48  1  0  0  0  0
 44 47  1  6  0  0  0
 44 46  1  0  0  0  0
 44 49  1  0  0  0  0
 46 43  1  0  0  0  0
 49 42  1  1  0  0  0
 49 48  1  0  0  0  0
 51 50  1  0  0  0  0
 52 51  1  0  0  0  0
M  END
>  <MODEL>
9

>  <REMARK>
 VINA RESULT:      -7.4      5.552      9.091
  Name = 
  14 active torsions:
  status: ('A' for Active; 'I' for Inactive)
    1  A    between atoms: C_4  and  C_28
    2  A    between atoms: C_4  and  C_45
    3  A    between atoms: O_6  and  C_10
    4  A    between atoms: O_6  and  C_17
    5  A    between atoms: N_9  and  C_50
    6  A    between atoms: C_16  and  C_21
    7  A    between atoms: C_18  and  C_50
    8  A    between atoms: C_21  and  C_42
    9  A    between atoms: C_21  and  C_47
   10  A    between atoms: C_30  and  C_36
   11  A    between atoms: C_36  and  C_44
   12  A    between atoms: C_37  and  C_45
   13  A    between atoms: C_38  and  C_40
   14  A    between atoms: C_40  and  C_47
                            x       y       z     vdW  Elec       q    Type
                         _______ _______ _______ _____ _____    ______ ____

>  <TORSDO>
F 14

$$$$
