=
 OpenBabel11042410103D

 62 68  0  0  1  0  0  0  0  0999 V2000
  184.7710  178.0830  138.4250 C   0  0  0  0  0  0  0  0  0  0  0  0
  182.2720  178.9550  139.2560 O   0  0  0  0  0  0  0  0  0  0  0  0
  190.6710  176.7120  139.7230 C   0  0  1  0  0  3  0  0  0  0  0  0
  181.5150  178.1440  135.8140 C   0  0  0  0  0  0  0  0  0  0  0  0
  186.1770  177.8830  137.9340 C   0  0  0  0  0  2  0  0  0  0  0  0
  192.5760  177.6810  140.8480 C   0  0  0  0  0  2  0  0  0  0  0  0
  188.4570  177.1540  138.7470 C   0  0  0  0  0  0  0  0  0  0  0  0
  191.3940  176.4090  138.5740 O   0  0  0  0  0  0  0  0  0  0  0  0
  191.3270  176.8320  141.0480 C   0  0  1  0  0  3  0  0  0  0  0  0
  189.4110  177.1060  139.7800 C   0  0  0  0  0  0  0  0  0  0  0  0
  187.1840  177.7010  139.0450 C   0  0  0  0  0  0  0  0  0  0  0  0
  181.2930  178.3790  137.1150 C   0  0  0  0  0  3  0  0  0  0  0  0
  182.8300  177.6620  135.3430 C   0  0  0  0  0  3  0  0  0  0  0  0
  189.1390  177.5840  141.0420 C   0  0  0  0  0  0  0  0  0  0  0  0
  185.6290  178.6350  140.6970 O   0  0  0  0  0  0  0  0  0  0  0  0
  183.3320  179.0270  140.1720 C   0  0  0  0  0  0  0  0  0  0  0  0
  192.7250  176.9120  138.4360 C   0  0  1  0  0  3  0  0  0  0  0  0
  190.2200  177.4910  141.8390 C   0  0  1  0  0  3  0  0  0  0  0  0
  184.5530  178.5900  139.8030 C   0  0  0  0  0  0  0  0  0  0  0  0
  187.8800  178.1020  141.3600 C   0  0  0  0  0  3  0  0  0  0  0  0
  183.8750  177.5730  136.1690 C   0  0  0  0  0  3  0  0  0  0  0  0
  186.8950  178.1510  140.3620 C   0  0  0  0  0  0  0  0  0  0  0  0
  182.3240  178.0470  138.1550 C   0  0  1  0  0  3  0  0  0  0  0  0
  193.4660  177.0170  139.7850 C   0  0  0  0  0  2  0  0  0  0  0  0
  183.7220  177.9380  137.5940 C   0  0  0  0  0  0  0  0  0  0  0  0
  190.2660  177.8160  143.3310 C   0  0  2  0  0  0  0  0  0  0  0  0
  190.0250  179.1890  143.5050 O   0  0  0  0  0  1  0  0  0  0  0  0
  191.6800  176.0530  144.0080 N   0  0  0  0  0  2  0  0  0  0  0  0
  191.5840  177.4540  143.8930 N   0  0  0  0  0  0  0  0  0  0  0  0
  191.8860  175.7020  145.3670 C   0  0  0  0  0  3  0  0  0  0  0  0
  191.6690  177.8640  145.2080 O   0  0  0  0  0  0  0  0  0  0  0  0
  191.8750  176.8090  146.0820 C   0  0  0  0  0  3  0  0  0  0  0  0
  188.6590  175.9660  143.2250 O   0  0  0  0  0  1  0  0  0  0  0  0
  189.1560  176.9920  144.0320 C   0  0  2  0  0  3  0  0  0  0  0  0
  188.0880  177.8140  144.5080 O   0  0  0  0  0  0  0  0  0  0  0  0
  187.5060  177.6280  145.7640 C   0  0  0  0  0  3  0  0  0  0  0  0
  186.8110  178.5340  146.3000 O   0  0  0  0  0  0  0  0  0  0  0  0
  183.1070  179.5740  141.5570 C   0  0  0  0  0  2  0  0  0  0  0  0
  182.6500  178.5390  142.5930 C   0  0  1  0  0  3  0  0  0  0  0  0
  183.6760  178.2670  143.5000 O   0  0  0  0  0  0  0  0  0  0  0  0
  184.0620  179.5150  143.9880 C   0  0  0  0  0  1  0  0  0  0  0  0
  181.3900  179.0030  143.3170 C   0  0  0  0  0  2  0  0  0  0  0  0
  180.3010  179.3560  142.3190 C   0  0  0  0  0  1  0  0  0  0  0  0
  180.4300  178.3750  134.8180 C   0  0  0  0  0  2  0  0  0  0  0  0
  179.3430  177.4300  135.0250 N   0  0  0  0  0  2  0  0  0  0  0  0
  179.7890  176.2300  134.5940 O   0  0  0  0  0  1  0  0  0  0  0  0
  193.4940  176.1010  137.4050 C   0  0  0  0  0  2  0  0  0  0  0  0
  194.0970  174.8490  138.0200 C   0  0  0  0  0  2  0  0  0  0  0  0
  195.0970  174.2090  137.0690 C   0  0  1  0  0  3  0  0  0  0  0  0
  193.7420  172.4570  136.2000 O   0  0  0  0  0  0  0  0  0  0  0  0
  194.7940  172.7550  136.8230 C   0  0  0  0  0  0  0  0  0  0  0  0
  195.6010  171.7200  137.3080 O   0  0  0  0  0  0  0  0  0  0  0  0
  195.8810  170.5360  136.5760 C   0  0  2  0  0  3  0  0  0  0  0  0
  196.8160  169.6490  137.3750 C   0  0  0  0  0  1  0  0  0  0  0  0
  196.4880  170.8740  135.3690 O   0  0  0  0  0  1  0  0  0  0  0  0
  195.1100  174.9100  135.8600 O   0  0  0  0  0  0  0  0  0  0  0  0
  196.4190  175.3790  135.7290 C   0  0  0  0  0  2  0  0  0  0  0  0
  196.4810  176.4060  134.6170 C   0  0  0  0  0  1  0  0  0  0  0  0
  188.7650  176.6010  137.3810 C   0  0  0  0  0  2  0  0  0  0  0  0
  188.3570  175.1380  137.2700 C   0  0  0  0  0  2  0  0  0  0  0  0
  189.5740  174.2500  137.0970 C   0  0  0  0  0  2  0  0  0  0  0  0
  190.2380  174.6000  135.9230 O   0  0  0  0  0  1  0  0  0  0  0  0
  1 19  1  0  0  0  0
  2 16  1  0  0  0  0
  3  8  1  6  0  0  0
  3 10  1  0  0  0  0
  3  9  1  0  0  0  0
  4 12  2  0  0  0  0
  5  1  1  0  0  0  0
  5 11  1  0  0  0  0
  7 11  2  0  0  0  0
  7 10  1  0  0  0  0
  9  6  1  6  0  0  0
  9 18  1  0  0  0  0
 10 14  2  0  0  0  0
 11 22  1  0  0  0  0
 13  4  1  0  0  0  0
 13 21  2  0  0  0  0
 14 20  1  0  0  0  0
 14 18  1  0  0  0  0
 16 38  1  0  0  0  0
 17 47  1  6  0  0  0
 17  8  1  0  0  0  0
 17 24  1  0  0  0  0
 18 26  1  1  0  0  0
 19 16  2  0  0  0  0
 19 15  1  0  0  0  0
 21 25  1  0  0  0  0
 22 15  1  0  0  0  0
 22 20  2  0  0  0  0
 23 12  1  6  0  0  0
 23  2  1  0  0  0  0
 24  6  1  0  0  0  0
 25 23  1  0  0  0  0
 25  1  2  0  0  0  0
 26 27  1  1  0  0  0
 26 29  1  0  0  0  0
 26 34  1  0  0  0  0
 28 30  1  0  0  0  0
 29 28  1  0  0  0  0
 29 31  1  0  0  0  0
 30 32  2  0  0  0  0
 31 32  1  0  0  0  0
 34 33  1  6  0  0  0
 34 35  1  0  0  0  0
 35 36  1  0  0  0  0
 36 37  2  0  0  0  0
 39 38  1  6  0  0  0
 39 42  1  0  0  0  0
 39 40  1  0  0  0  0
 40 41  1  0  0  0  0
 43 42  1  0  0  0  0
 44 45  1  0  0  0  0
 44  4  1  0  0  0  0
 46 45  1  0  0  0  0
 47 48  1  0  0  0  0
 49 48  1  1  0  0  0
 50 51  2  0  0  0  0
 51 49  1  0  0  0  0
 51 52  1  0  0  0  0
 53 52  1  0  0  0  0
 53 54  1  1  0  0  0
 55 53  1  0  0  0  0
 56 49  1  0  0  0  0
 57 56  1  0  0  0  0
 58 57  1  0  0  0  0
 59  7  1  0  0  0  0
 60 59  1  0  0  0  0
 61 60  1  0  0  0  0
 62 61  1  0  0  0  0
M  END
>  <MODEL>
1

>  <REMARK>
 VINA RESULT:      -5.9      0.000      0.000
  Name = 
  22 active torsions:
  status: ('A' for Active; 'I' for Inactive)
    1  A    between atoms: C_1  and  C_12
    2  A    between atoms: C_1  and  C_19
    3  A    between atoms: C_2  and  C_36
    4  A    between atoms: C_2  and  C_49
    5  A    between atoms: N_4  and  C_23
    6  A    between atoms: O_5  and  C_53
    7  A    between atoms: C_8  and  C_12
    8  A    between atoms: C_11  and  O_62
    9  A    between atoms: O_13  and  C_41
   10  A    between atoms: O_13  and  C_54
   11  A    between atoms: N_14  and  C_24
   12  A    between atoms: C_15  and  C_23
   13  A    between atoms: C_24  and  C_38
   14  A    between atoms: C_24  and  C_54
   15  A    between atoms: C_34  and  C_58
   16  A    between atoms: C_35  and  O_50
   17  A    between atoms: C_36  and  C_48
   18  A    between atoms: C_36  and  O_50
   19  A    between atoms: C_37  and  C_49
   20  A    between atoms: C_39  and  C_53
   21  A    between atoms: C_48  and  O_62
   22  A    between atoms: C_53  and  C_58
                            x       y       z     vdW  Elec       q    Type
                         _______ _______ _______ _____ _____    ______ ____

>  <TORSDO>
F 22

$$$$
=
 OpenBabel11042410103D

 62 68  0  0  1  0  0  0  0  0999 V2000
  188.8340  177.3870  138.1610 C   0  0  0  0  0  0  0  0  0  0  0  0
  189.2010  177.1880  135.4180 O   0  0  0  0  0  0  0  0  0  0  0  0
  185.0700  178.1520  143.0210 C   0  0  1  0  0  3  0  0  0  0  0  0
  192.5760  176.5180  136.5290 C   0  0  0  0  0  0  0  0  0  0  0  0
  188.6680  177.7700  139.6040 C   0  0  0  0  0  2  0  0  0  0  0  0
  183.3110  179.6310  143.7650 C   0  0  0  0  0  2  0  0  0  0  0  0
  186.9190  177.8490  141.4270 C   0  0  0  0  0  0  0  0  0  0  0  0
  185.7810  178.2570  144.2110 O   0  0  0  0  0  0  0  0  0  0  0  0
  183.6020  178.3660  142.9670 C   0  0  1  0  0  3  0  0  0  0  0  0
  185.5780  178.0480  141.8050 C   0  0  0  0  0  0  0  0  0  0  0  0
  187.2260  177.8560  140.0440 C   0  0  0  0  0  0  0  0  0  0  0  0
  191.5110  176.5190  135.7150 C   0  0  0  0  0  3  0  0  0  0  0  0
  192.4130  176.6050  137.9950 C   0  0  0  0  0  3  0  0  0  0  0  0
  184.5850  178.2590  140.8750 C   0  0  0  0  0  0  0  0  0  0  0  0
  186.4550  177.9760  137.7170 O   0  0  0  0  0  0  0  0  0  0  0  0
  187.9290  177.5490  135.8870 C   0  0  0  0  0  0  0  0  0  0  0  0
  185.3740  179.2260  145.1810 C   0  0  1  0  0  3  0  0  0  0  0  0
  183.4020  178.4870  141.4730 C   0  0  1  0  0  3  0  0  0  0  0  0
  187.7150  177.6320  137.2150 C   0  0  0  0  0  0  0  0  0  0  0  0
  184.8670  178.2410  139.5060 C   0  0  0  0  0  3  0  0  0  0  0  0
  191.2170  176.8210  138.5500 C   0  0  0  0  0  3  0  0  0  0  0  0
  186.1890  178.0290  139.0870 C   0  0  0  0  0  0  0  0  0  0  0  0
  190.1120  176.4830  136.2600 C   0  0  1  0  0  3  0  0  0  0  0  0
  183.8490  179.4550  145.1940 C   0  0  0  0  0  2  0  0  0  0  0  0
  190.0190  176.9540  137.6920 C   0  0  0  0  0  0  0  0  0  0  0  0
  182.0550  178.6490  140.7680 C   0  0  2  0  0  0  0  0  0  0  0  0
  181.0290  178.3290  141.6720 O   0  0  0  0  0  1  0  0  0  0  0  0
  180.6460  177.6230  139.1800 N   0  0  0  0  0  2  0  0  0  0  0  0
  181.9870  177.7670  139.5850 N   0  0  0  0  0  0  0  0  0  0  0  0
  180.2770  176.2550  139.2380 C   0  0  0  0  0  3  0  0  0  0  0  0
  182.3300  176.4770  139.9330 O   0  0  0  0  0  0  0  0  0  0  0  0
  181.3060  175.5730  139.6990 C   0  0  0  0  0  3  0  0  0  0  0  0
  180.7510  180.7270  140.7870 O   0  0  0  0  0  1  0  0  0  0  0  0
  181.9260  180.1290  140.3260 C   0  0  2  0  0  3  0  0  0  0  0  0
  182.0420  180.2850  138.9100 O   0  0  0  0  0  0  0  0  0  0  0  0
  181.6370  181.4480  138.2520 C   0  0  0  0  0  3  0  0  0  0  0  0
  182.2960  182.5180  138.3550 O   0  0  0  0  0  0  0  0  0  0  0  0
  186.8090  177.8280  134.9190 C   0  0  0  0  0  2  0  0  0  0  0  0
  185.9160  176.6220  134.6000 C   0  0  1  0  0  3  0  0  0  0  0  0
  186.6210  175.4300  134.7780 O   0  0  0  0  0  0  0  0  0  0  0  0
  185.6590  174.5040  135.1820 C   0  0  0  0  0  1  0  0  0  0  0  0
  184.6460  176.6380  135.4450 C   0  0  0  0  0  2  0  0  0  0  0  0
  183.4470  177.0240  134.5970 C   0  0  0  0  0  1  0  0  0  0  0  0
  193.9510  176.4360  135.9590 C   0  0  0  0  0  2  0  0  0  0  0  0
  194.8310  175.7080  136.8600 N   0  0  0  0  0  2  0  0  0  0  0  0
  196.0720  175.7840  136.3310 O   0  0  0  0  0  1  0  0  0  0  0  0
  185.9260  178.8660  146.5520 C   0  0  0  0  0  2  0  0  0  0  0  0
  186.7990  177.6240  146.4910 C   0  0  0  0  0  2  0  0  0  0  0  0
  188.0830  177.8270  147.2810 C   0  0  1  0  0  3  0  0  0  0  0  0
  189.1270  178.3560  145.2090 O   0  0  0  0  0  0  0  0  0  0  0  0
  189.2880  177.9370  146.3840 C   0  0  0  0  0  0  0  0  0  0  0  0
  190.5690  177.5400  146.7850 O   0  0  0  0  0  0  0  0  0  0  0  0
  190.8160  176.4100  147.6080 C   0  0  2  0  0  3  0  0  0  0  0  0
  192.3100  176.2290  147.7910 C   0  0  0  0  0  1  0  0  0  0  0  0
  190.2860  175.2740  147.0030 O   0  0  0  0  0  1  0  0  0  0  0  0
  187.9680  178.9700  148.0770 O   0  0  0  0  0  0  0  0  0  0  0  0
  188.4370  178.5820  149.3340 C   0  0  0  0  0  2  0  0  0  0  0  0
  187.5170  177.5280  149.9160 C   0  0  0  0  0  1  0  0  0  0  0  0
  187.9850  177.5930  142.4590 C   0  0  0  0  0  2  0  0  0  0  0  0
  188.0770  176.1130  142.8070 C   0  0  0  0  0  2  0  0  0  0  0  0
  189.4970  175.6070  142.6440 C   0  0  0  0  0  2  0  0  0  0  0  0
  190.3790  176.5120  143.2310 O   0  0  0  0  0  1  0  0  0  0  0  0
  1  5  1  0  0  0  0
  2 16  1  0  0  0  0
  2 23  1  0  0  0  0
  3 10  1  6  0  0  0
  3  8  1  0  0  0  0
  4 13  1  0  0  0  0
  5 11  1  0  0  0  0
  6 24  1  0  0  0  0
  7 10  1  0  0  0  0
  7 59  1  0  0  0  0
  8 17  1  0  0  0  0
  9  3  1  0  0  0  0
  9  6  1  1  0  0  0
 11  7  2  0  0  0  0
 12  4  2  0  0  0  0
 13 21  2  0  0  0  0
 14 18  1  0  0  0  0
 14 10  2  0  0  0  0
 15 22  1  0  0  0  0
 16 19  2  0  0  0  0
 17 24  1  0  0  0  0
 17 47  1  1  0  0  0
 18 26  1  6  0  0  0
 18  9  1  0  0  0  0
 19 15  1  0  0  0  0
 19  1  1  0  0  0  0
 20 14  1  0  0  0  0
 22 20  2  0  0  0  0
 22 11  1  0  0  0  0
 23 12  1  6  0  0  0
 23 25  1  0  0  0  0
 25  1  2  0  0  0  0
 25 21  1  0  0  0  0
 26 27  1  1  0  0  0
 28 30  1  0  0  0  0
 28 29  1  0  0  0  0
 29 31  1  0  0  0  0
 29 26  1  0  0  0  0
 30 32  2  0  0  0  0
 32 31  1  0  0  0  0
 34 26  1  0  0  0  0
 34 33  1  6  0  0  0
 35 34  1  0  0  0  0
 36 37  2  0  0  0  0
 36 35  1  0  0  0  0
 38 16  1  0  0  0  0
 39 40  1  0  0  0  0
 39 38  1  1  0  0  0
 39 42  1  0  0  0  0
 40 41  1  0  0  0  0
 43 42  1  0  0  0  0
 44  4  1  0  0  0  0
 44 45  1  0  0  0  0
 46 45  1  0  0  0  0
 48 47  1  0  0  0  0
 49 48  1  6  0  0  0
 49 56  1  0  0  0  0
 50 51  2  0  0  0  0
 51 52  1  0  0  0  0
 51 49  1  0  0  0  0
 52 53  1  0  0  0  0
 53 54  1  6  0  0  0
 55 53  1  0  0  0  0
 56 57  1  0  0  0  0
 57 58  1  0  0  0  0
 59 60  1  0  0  0  0
 61 60  1  0  0  0  0
 61 62  1  0  0  0  0
M  END
>  <MODEL>
2

>  <REMARK>
 VINA RESULT:      -5.2      3.018      9.964
  Name = 
  22 active torsions:
  status: ('A' for Active; 'I' for Inactive)
    1  A    between atoms: C_1  and  C_12
    2  A    between atoms: C_1  and  C_19
    3  A    between atoms: C_2  and  C_36
    4  A    between atoms: C_2  and  C_49
    5  A    between atoms: N_4  and  C_23
    6  A    between atoms: O_5  and  C_53
    7  A    between atoms: C_8  and  C_12
    8  A    between atoms: C_11  and  O_62
    9  A    between atoms: O_13  and  C_41
   10  A    between atoms: O_13  and  C_54
   11  A    between atoms: N_14  and  C_24
   12  A    between atoms: C_15  and  C_23
   13  A    between atoms: C_24  and  C_38
   14  A    between atoms: C_24  and  C_54
   15  A    between atoms: C_34  and  C_58
   16  A    between atoms: C_35  and  O_50
   17  A    between atoms: C_36  and  C_48
   18  A    between atoms: C_36  and  O_50
   19  A    between atoms: C_37  and  C_49
   20  A    between atoms: C_39  and  C_53
   21  A    between atoms: C_48  and  O_62
   22  A    between atoms: C_53  and  C_58
                            x       y       z     vdW  Elec       q    Type
                         _______ _______ _______ _____ _____    ______ ____

>  <TORSDO>
F 22

$$$$
=
 OpenBabel11042410103D

 62 68  0  0  1  0  0  0  0  0999 V2000
  184.5770  178.3840  143.2350 C   0  0  0  0  0  0  0  0  0  0  0  0
  183.4710  179.0720  145.6840 O   0  0  0  0  0  0  0  0  0  0  0  0
  184.0600  177.8440  137.0850 C   0  0  1  0  0  3  0  0  0  0  0  0
  186.8370  178.2810  146.7420 C   0  0  0  0  0  0  0  0  0  0  0  0
  185.0640  177.7580  141.9590 C   0  0  0  0  0  2  0  0  0  0  0  0
  182.5460  176.9210  135.4450 C   0  0  0  0  0  2  0  0  0  0  0  0
  184.7070  177.8600  139.4590 C   0  0  0  0  0  0  0  0  0  0  0  0
  185.1770  177.2320  136.5270 O   0  0  0  0  0  0  0  0  0  0  0  0
  182.8570  178.1590  136.2760 C   0  0  1  0  0  3  0  0  0  0  0  0
  183.8330  178.0460  138.3710 C   0  0  0  0  0  0  0  0  0  0  0  0
  184.1950  178.0680  140.7640 C   0  0  0  0  0  0  0  0  0  0  0  0
  185.6140  178.8300  146.7880 C   0  0  0  0  0  3  0  0  0  0  0  0
  187.4600  177.9200  145.4530 C   0  0  0  0  0  3  0  0  0  0  0  0
  182.5160  178.4060  138.5520 C   0  0  0  0  0  0  0  0  0  0  0  0
  182.3370  178.7560  142.2110 O   0  0  0  0  0  0  0  0  0  0  0  0
  182.6300  179.0660  144.5610 C   0  0  0  0  0  0  0  0  0  0  0  0
  184.9950  176.2630  135.4910 C   0  0  1  0  0  3  0  0  0  0  0  0
  181.8640  178.4610  137.3760 C   0  0  1  0  0  3  0  0  0  0  0  0
  183.1450  178.7570  143.3540 C   0  0  0  0  0  0  0  0  0  0  0  0
  182.0030  178.6410  139.8310 C   0  0  0  0  0  3  0  0  0  0  0  0
  186.7810  178.0010  144.3050 C   0  0  0  0  0  3  0  0  0  0  0  0
  182.8470  178.4830  140.9400 C   0  0  0  0  0  0  0  0  0  0  0  0
  184.8830  179.2120  145.5330 C   0  0  1  0  0  3  0  0  0  0  0  0
  183.7780  176.5690  134.5940 C   0  0  0  0  0  2  0  0  0  0  0  0
  185.3830  178.4840  144.3080 C   0  0  0  0  0  0  0  0  0  0  0  0
  180.4250  178.9330  137.1680 C   0  0  2  0  0  0  0  0  0  0  0  0
  180.1990  179.1080  135.7930 O   0  0  0  0  0  1  0  0  0  0  0  0
  179.0200  180.8130  137.4040 N   0  0  0  0  0  2  0  0  0  0  0  0
  180.1930  180.2020  137.8890 N   0  0  0  0  0  0  0  0  0  0  0  0
  179.3350  182.0890  136.8720 C   0  0  0  0  0  3  0  0  0  0  0  0
  181.1650  181.1230  137.5550 O   0  0  0  0  0  0  0  0  0  0  0  0
  180.6380  182.2630  136.9680 C   0  0  0  0  0  3  0  0  0  0  0  0
  179.1490  178.0410  139.0640 O   0  0  0  0  0  1  0  0  0  0  0  0
  179.4810  177.8360  137.7230 C   0  0  2  0  0  3  0  0  0  0  0  0
  180.0060  176.5210  137.5350 O   0  0  0  0  0  0  0  0  0  0  0  0
  180.0390  175.5760  138.5630 C   0  0  0  0  0  3  0  0  0  0  0  0
  181.0620  174.8660  138.7640 O   0  0  0  0  0  0  0  0  0  0  0  0
  181.1710  179.4150  144.6980 C   0  0  0  0  0  2  0  0  0  0  0  0
  180.3170  179.1160  143.4590 C   0  0  1  0  0  3  0  0  0  0  0  0
  179.4350  178.0630  143.7150 O   0  0  0  0  0  0  0  0  0  0  0  0
  180.2050  177.1060  144.3760 C   0  0  0  0  0  1  0  0  0  0  0  0
  179.5650  180.3590  142.9950 C   0  0  0  0  0  2  0  0  0  0  0  0
  179.7260  180.5510  141.4980 C   0  0  0  0  0  1  0  0  0  0  0  0
  187.5860  178.0200  148.0050 C   0  0  0  0  0  2  0  0  0  0  0  0
  188.5790  176.9770  147.7990 N   0  0  0  0  0  2  0  0  0  0  0  0
  189.7840  177.5880  147.8030 O   0  0  0  0  0  1  0  0  0  0  0  0
  186.2810  176.0880  134.6970 C   0  0  0  0  0  2  0  0  0  0  0  0
  187.0320  174.8390  135.1270 C   0  0  0  0  0  2  0  0  0  0  0  0
  188.0010  175.1550  136.2570 C   0  0  1  0  0  3  0  0  0  0  0  0
  188.0990  172.8160  136.6870 O   0  0  0  0  0  0  0  0  0  0  0  0
  188.6950  173.9210  136.7690 C   0  0  0  0  0  0  0  0  0  0  0  0
  189.9520  173.9590  137.3850 O   0  0  0  0  0  0  0  0  0  0  0  0
  191.1550  173.5830  136.7330 C   0  0  2  0  0  3  0  0  0  0  0  0
  191.9490  174.8230  136.3690 C   0  0  0  0  0  1  0  0  0  0  0  0
  190.8490  172.8770  135.5730 O   0  0  0  0  0  1  0  0  0  0  0  0
  188.9410  176.0920  135.8200 O   0  0  0  0  0  0  0  0  0  0  0  0
  189.0580  177.0020  136.8730 C   0  0  0  0  0  2  0  0  0  0  0  0
  188.6560  178.3830  136.3960 C   0  0  0  0  0  1  0  0  0  0  0  0
  186.1500  177.4930  139.2390 C   0  0  0  0  0  2  0  0  0  0  0  0
  187.0850  178.5570  139.8010 C   0  0  0  0  0  2  0  0  0  0  0  0
  188.2350  177.9200  140.5560 C   0  0  0  0  0  2  0  0  0  0  0  0
  189.4330  178.2210  139.9110 O   0  0  0  0  0  1  0  0  0  0  0  0
  1 19  1  0  0  0  0
  1 25  2  0  0  0  0
  3  8  1  1  0  0  0
  3 10  1  0  0  0  0
  4 12  2  0  0  0  0
  4 44  1  0  0  0  0
  5  1  1  0  0  0  0
  7 11  1  0  0  0  0
  9  6  1  1  0  0  0
  9  3  1  0  0  0  0
  9 18  1  0  0  0  0
 10 14  1  0  0  0  0
 10  7  2  0  0  0  0
 11 22  2  0  0  0  0
 11  5  1  0  0  0  0
 13  4  1  0  0  0  0
 14 20  2  0  0  0  0
 15 19  1  0  0  0  0
 16 38  1  0  0  0  0
 16  2  1  0  0  0  0
 17 47  1  6  0  0  0
 17  8  1  0  0  0  0
 18 26  1  6  0  0  0
 18 14  1  0  0  0  0
 19 16  2  0  0  0  0
 20 22  1  0  0  0  0
 21 25  1  0  0  0  0
 21 13  2  0  0  0  0
 22 15  1  0  0  0  0
 23  2  1  0  0  0  0
 23 12  1  1  0  0  0
 24  6  1  0  0  0  0
 24 17  1  0  0  0  0
 25 23  1  0  0  0  0
 26 27  1  6  0  0  0
 26 34  1  0  0  0  0
 26 29  1  0  0  0  0
 28 29  1  0  0  0  0
 30 32  2  0  0  0  0
 30 28  1  0  0  0  0
 31 29  1  0  0  0  0
 32 31  1  0  0  0  0
 34 33  1  1  0  0  0
 35 34  1  0  0  0  0
 35 36  1  0  0  0  0
 36 37  2  0  0  0  0
 39 42  1  1  0  0  0
 39 40  1  0  0  0  0
 39 38  1  0  0  0  0
 40 41  1  0  0  0  0
 43 42  1  0  0  0  0
 45 46  1  0  0  0  0
 45 44  1  0  0  0  0
 47 48  1  0  0  0  0
 49 48  1  6  0  0  0
 49 51  1  0  0  0  0
 50 51  2  0  0  0  0
 51 52  1  0  0  0  0
 53 54  1  6  0  0  0
 53 52  1  0  0  0  0
 55 53  1  0  0  0  0
 56 49  1  0  0  0  0
 56 57  1  0  0  0  0
 58 57  1  0  0  0  0
 59  7  1  0  0  0  0
 59 60  1  0  0  0  0
 60 61  1  0  0  0  0
 62 61  1  0  0  0  0
M  END
>  <MODEL>
3

>  <REMARK>
 VINA RESULT:      -5.2      3.124      8.884
  Name = 
  22 active torsions:
  status: ('A' for Active; 'I' for Inactive)
    1  A    between atoms: C_1  and  C_12
    2  A    between atoms: C_1  and  C_19
    3  A    between atoms: C_2  and  C_36
    4  A    between atoms: C_2  and  C_49
    5  A    between atoms: N_4  and  C_23
    6  A    between atoms: O_5  and  C_53
    7  A    between atoms: C_8  and  C_12
    8  A    between atoms: C_11  and  O_62
    9  A    between atoms: O_13  and  C_41
   10  A    between atoms: O_13  and  C_54
   11  A    between atoms: N_14  and  C_24
   12  A    between atoms: C_15  and  C_23
   13  A    between atoms: C_24  and  C_38
   14  A    between atoms: C_24  and  C_54
   15  A    between atoms: C_34  and  C_58
   16  A    between atoms: C_35  and  O_50
   17  A    between atoms: C_36  and  C_48
   18  A    between atoms: C_36  and  O_50
   19  A    between atoms: C_37  and  C_49
   20  A    between atoms: C_39  and  C_53
   21  A    between atoms: C_48  and  O_62
   22  A    between atoms: C_53  and  C_58
                            x       y       z     vdW  Elec       q    Type
                         _______ _______ _______ _____ _____    ______ ____

>  <TORSDO>
F 22

$$$$
=
 OpenBabel11042410103D

 62 68  0  0  1  0  0  0  0  0999 V2000
  189.1140  177.2180  138.1170 C   0  0  0  0  0  0  0  0  0  0  0  0
  189.3910  177.0910  135.3590 O   0  0  0  0  0  0  0  0  0  0  0  0
  185.5440  178.0590  143.1090 C   0  0  1  0  0  3  0  0  0  0  0  0
  192.7440  176.1630  136.3470 C   0  0  0  0  0  0  0  0  0  0  0  0
  189.0140  177.5610  139.5760 C   0  0  0  0  0  2  0  0  0  0  0  0
  183.9090  179.6240  143.9530 C   0  0  0  0  0  2  0  0  0  0  0  0
  187.3250  177.6910  141.4530 C   0  0  0  0  0  0  0  0  0  0  0  0
  186.2930  178.0760  144.2810 O   0  0  0  0  0  0  0  0  0  0  0  0
  184.0930  178.3710  143.1060 C   0  0  1  0  0  3  0  0  0  0  0  0
  186.0110  177.9640  141.8770 C   0  0  0  0  0  0  0  0  0  0  0  0
  187.5930  177.7260  140.0610 C   0  0  0  0  0  0  0  0  0  0  0  0
  191.6590  176.2620  135.5650 C   0  0  0  0  0  3  0  0  0  0  0  0
  192.6270  176.2090  137.8190 C   0  0  0  0  0  3  0  0  0  0  0  0
  185.0090  178.2720  140.9830 C   0  0  0  0  0  0  0  0  0  0  0  0
  186.7680  177.9770  137.7640 O   0  0  0  0  0  0  0  0  0  0  0  0
  188.1600  177.5190  135.8780 C   0  0  0  0  0  0  0  0  0  0  0  0
  185.9790  179.0350  145.2940 C   0  0  1  0  0  3  0  0  0  0  0  0
  183.8600  178.5560  141.6240 C   0  0  1  0  0  3  0  0  0  0  0  0
  187.9890  177.5690  137.2140 C   0  0  0  0  0  0  0  0  0  0  0  0
  185.2510  178.2840  139.6070 C   0  0  0  0  0  3  0  0  0  0  0  0
  191.4640  176.4840  138.4160 C   0  0  0  0  0  3  0  0  0  0  0  0
  186.5440  177.9990  139.1420 C   0  0  0  0  0  0  0  0  0  0  0  0
  190.2770  176.2990  136.1510 C   0  0  1  0  0  3  0  0  0  0  0  0
  184.4730  179.3630  145.3600 C   0  0  0  0  0  2  0  0  0  0  0  0
  190.2540  176.7250  137.6000 C   0  0  0  0  0  0  0  0  0  0  0  0
  182.5090  178.8310  140.9650 C   0  0  2  0  0  0  0  0  0  0  0  0
  182.7110  179.6340  139.8310 O   0  0  0  0  0  1  0  0  0  0  0  0
  180.7650  178.5580  142.5300 N   0  0  0  0  0  2  0  0  0  0  0  0
  181.6040  179.5090  141.9160 N   0  0  0  0  0  0  0  0  0  0  0  0
  179.4110  178.8650  142.2440 C   0  0  0  0  0  3  0  0  0  0  0  0
  180.7030  180.3000  141.2330 O   0  0  0  0  0  0  0  0  0  0  0  0
  179.3880  179.9210  141.4550 C   0  0  0  0  0  3  0  0  0  0  0  0
  182.8730  176.5280  140.2030 O   0  0  0  0  0  1  0  0  0  0  0  0
  181.9000  177.4690  140.5450 C   0  0  2  0  0  3  0  0  0  0  0  0
  180.9440  177.6030  139.4910 O   0  0  0  0  0  0  0  0  0  0  0  0
  180.4130  176.4990  138.8210 C   0  0  0  0  0  3  0  0  0  0  0  0
  180.7250  176.2510  137.6240 O   0  0  0  0  0  0  0  0  0  0  0  0
  187.0350  177.9040  134.9530 C   0  0  0  0  0  2  0  0  0  0  0  0
  186.0750  176.7620  134.5940 C   0  0  1  0  0  3  0  0  0  0  0  0
  186.6700  175.5240  134.8460 O   0  0  0  0  0  0  0  0  0  0  0  0
  185.6820  174.7800  135.4910 C   0  0  0  0  0  1  0  0  0  0  0  0
  184.7540  176.8970  135.3430 C   0  0  0  0  0  2  0  0  0  0  0  0
  184.0090  178.1410  134.8910 C   0  0  0  0  0  1  0  0  0  0  0  0
  194.0950  176.0110  135.7340 C   0  0  0  0  0  2  0  0  0  0  0  0
  194.9990  177.0300  136.2430 N   0  0  0  0  0  2  0  0  0  0  0  0
  195.2240  177.8890  135.2240 O   0  0  0  0  0  1  0  0  0  0  0  0
  186.5430  178.5920  146.6350 C   0  0  0  0  0  2  0  0  0  0  0  0
  186.8430  177.1020  146.6470 C   0  0  0  0  0  2  0  0  0  0  0  0
  188.0980  176.8120  147.4560 C   0  0  1  0  0  3  0  0  0  0  0  0
  189.2420  177.3090  145.4300 O   0  0  0  0  0  0  0  0  0  0  0  0
  189.3530  177.0150  146.6480 C   0  0  0  0  0  0  0  0  0  0  0  0
  190.6340  176.8330  147.1800 O   0  0  0  0  0  0  0  0  0  0  0  0
  191.4620  175.7230  146.8680 C   0  0  2  0  0  3  0  0  0  0  0  0
  192.6060  175.6430  147.8600 C   0  0  0  0  0  1  0  0  0  0  0  0
  191.9760  175.8790  145.5840 O   0  0  0  0  0  1  0  0  0  0  0  0
  188.1210  177.6220  148.5940 O   0  0  0  0  0  0  0  0  0  0  0  0
  189.4400  178.0710  148.6910 C   0  0  0  0  0  2  0  0  0  0  0  0
  189.4740  179.5800  148.5600 C   0  0  0  0  0  1  0  0  0  0  0  0
  188.4000  177.3300  142.4430 C   0  0  0  0  0  2  0  0  0  0  0  0
  189.5740  178.2980  142.3640 C   0  0  0  0  0  2  0  0  0  0  0  0
  190.8700  177.6030  142.7340 C   0  0  0  0  0  2  0  0  0  0  0  0
  191.7660  177.7030  141.6710 O   0  0  0  0  0  1  0  0  0  0  0  0
  1  5  1  0  0  0  0
  2 16  1  0  0  0  0
  2 23  1  0  0  0  0
  3 10  1  6  0  0  0
  3  8  1  0  0  0  0
  4 13  1  0  0  0  0
  5 11  1  0  0  0  0
  6 24  1  0  0  0  0
  7 10  1  0  0  0  0
  7 59  1  0  0  0  0
  8 17  1  0  0  0  0
  9  3  1  0  0  0  0
  9  6  1  1  0  0  0
 11  7  2  0  0  0  0
 12  4  2  0  0  0  0
 13 21  2  0  0  0  0
 14 18  1  0  0  0  0
 14 10  2  0  0  0  0
 15 22  1  0  0  0  0
 16 19  2  0  0  0  0
 17 24  1  0  0  0  0
 17 47  1  1  0  0  0
 18 26  1  6  0  0  0
 18  9  1  0  0  0  0
 19 15  1  0  0  0  0
 19  1  1  0  0  0  0
 20 14  1  0  0  0  0
 22 20  2  0  0  0  0
 22 11  1  0  0  0  0
 23 12  1  6  0  0  0
 23 25  1  0  0  0  0
 25  1  2  0  0  0  0
 25 21  1  0  0  0  0
 26 27  1  6  0  0  0
 26 29  1  0  0  0  0
 29 28  1  0  0  0  0
 30 28  1  0  0  0  0
 31 32  1  0  0  0  0
 31 29  1  0  0  0  0
 32 30  2  0  0  0  0
 34 33  1  6  0  0  0
 34 26  1  0  0  0  0
 35 34  1  0  0  0  0
 36 35  1  0  0  0  0
 37 36  2  0  0  0  0
 38 16  1  0  0  0  0
 39 40  1  0  0  0  0
 39 38  1  1  0  0  0
 39 42  1  0  0  0  0
 40 41  1  0  0  0  0
 43 42  1  0  0  0  0
 44 45  1  0  0  0  0
 44  4  1  0  0  0  0
 46 45  1  0  0  0  0
 47 48  1  0  0  0  0
 49 48  1  6  0  0  0
 49 56  1  0  0  0  0
 50 51  2  0  0  0  0
 51 52  1  0  0  0  0
 51 49  1  0  0  0  0
 53 52  1  0  0  0  0
 53 54  1  1  0  0  0
 55 53  1  0  0  0  0
 56 57  1  0  0  0  0
 58 57  1  0  0  0  0
 60 59  1  0  0  0  0
 60 61  1  0  0  0  0
 62 61  1  0  0  0  0
M  END
>  <MODEL>
4

>  <REMARK>
 VINA RESULT:      -4.6      3.200      9.729
  Name = 
  22 active torsions:
  status: ('A' for Active; 'I' for Inactive)
    1  A    between atoms: C_1  and  C_12
    2  A    between atoms: C_1  and  C_19
    3  A    between atoms: C_2  and  C_36
    4  A    between atoms: C_2  and  C_49
    5  A    between atoms: N_4  and  C_23
    6  A    between atoms: O_5  and  C_53
    7  A    between atoms: C_8  and  C_12
    8  A    between atoms: C_11  and  O_62
    9  A    between atoms: O_13  and  C_41
   10  A    between atoms: O_13  and  C_54
   11  A    between atoms: N_14  and  C_24
   12  A    between atoms: C_15  and  C_23
   13  A    between atoms: C_24  and  C_38
   14  A    between atoms: C_24  and  C_54
   15  A    between atoms: C_34  and  C_58
   16  A    between atoms: C_35  and  O_50
   17  A    between atoms: C_36  and  C_48
   18  A    between atoms: C_36  and  O_50
   19  A    between atoms: C_37  and  C_49
   20  A    between atoms: C_39  and  C_53
   21  A    between atoms: C_48  and  O_62
   22  A    between atoms: C_53  and  C_58
                            x       y       z     vdW  Elec       q    Type
                         _______ _______ _______ _____ _____    ______ ____

>  <TORSDO>
F 22

$$$$
=
 OpenBabel11042410103D

 62 68  0  0  1  0  0  0  0  0999 V2000
  190.3020  177.1730  139.3690 C   0  0  0  0  0  0  0  0  0  0  0  0
  192.7690  177.1940  140.6380 O   0  0  0  0  0  0  0  0  0  0  0  0
  184.2050  178.2600  139.4920 C   0  0  1  0  0  3  0  0  0  0  0  0
  193.8000  176.1590  137.3300 C   0  0  0  0  0  0  0  0  0  0  0  0
  188.9420  176.9030  138.7920 C   0  0  0  0  0  2  0  0  0  0  0  0
  182.2860  177.7970  140.8830 C   0  0  0  0  0  2  0  0  0  0  0  0
  186.5370  177.6560  138.9950 C   0  0  0  0  0  0  0  0  0  0  0  0
  183.5800  177.8180  138.3310 O   0  0  0  0  0  0  0  0  0  0  0  0
  183.4300  178.7750  140.6480 C   0  0  1  0  0  3  0  0  0  0  0  0
  185.4820  178.1190  139.8020 C   0  0  0  0  0  0  0  0  0  0  0  0
  187.8150  177.5140  139.5910 C   0  0  0  0  0  0  0  0  0  0  0  0
  193.9080  176.6740  138.5630 C   0  0  0  0  0  3  0  0  0  0  0  0
  192.5040  176.1490  136.6210 C   0  0  0  0  0  3  0  0  0  0  0  0
  185.6640  178.4160  141.1340 C   0  0  0  0  0  0  0  0  0  0  0  0
  189.2680  177.7960  141.5480 O   0  0  0  0  0  0  0  0  0  0  0  0
  191.6310  177.4810  141.4070 C   0  0  0  0  0  0  0  0  0  0  0  0
  182.3170  177.1540  138.4310 C   0  0  1  0  0  3  0  0  0  0  0  0
  184.5040  178.7770  141.7130 C   0  0  1  0  0  3  0  0  0  0  0  0
  190.4220  177.5000  140.8130 C   0  0  0  0  0  0  0  0  0  0  0  0
  186.9240  178.3080  141.7300 C   0  0  0  0  0  3  0  0  0  0  0  0
  191.3760  176.5260  137.2290 C   0  0  0  0  0  3  0  0  0  0  0  0
  188.0060  177.8660  140.9540 C   0  0  0  0  0  0  0  0  0  0  0  0
  192.7520  177.3710  139.2220 C   0  0  1  0  0  3  0  0  0  0  0  0
  181.4540  177.6820  139.5950 C   0  0  0  0  0  2  0  0  0  0  0  0
  191.4140  176.9900  138.6330 C   0  0  0  0  0  0  0  0  0  0  0  0
  184.3330  179.2840  143.1440 C   0  0  2  0  0  0  0  0  0  0  0  0
  185.1580  180.4060  143.3300 O   0  0  0  0  0  1  0  0  0  0  0  0
  183.9730  178.4160  145.3080 N   0  0  0  0  0  0  0  0  0  0  0  0
  184.6890  178.2240  144.1090 N   0  0  0  0  0  0  0  0  0  0  0  0
  184.8830  178.6010  146.3790 C   0  0  0  0  0  3  0  0  0  0  0  0
  185.9980  178.3740  144.5200 O   0  0  0  0  0  0  0  0  0  0  0  0
  186.1060  178.5760  145.8870 C   0  0  0  0  0  2  0  0  0  0  0  0
  182.6980  180.8550  144.0810 O   0  0  0  0  0  1  0  0  0  0  0  0
  182.8480  179.6850  143.3320 C   0  0  2  0  0  3  0  0  0  0  0  0
  182.0670  178.6290  143.8960 O   0  0  0  0  0  0  0  0  0  0  0  0
  180.6730  178.6040  143.8090 C   0  0  0  0  0  3  0  0  0  0  0  0
  180.0080  177.6440  144.2860 O   0  0  0  0  0  0  0  0  0  0  0  0
  191.7600  177.7800  142.8780 C   0  0  0  0  0  2  0  0  0  0  0  0
  190.8600  176.9350  143.7890 C   0  0  1  0  0  3  0  0  0  0  0  0
  191.6320  176.1230  144.6230 O   0  0  0  0  0  0  0  0  0  0  0  0
  191.7060  174.8980  143.9600 C   0  0  0  0  0  1  0  0  0  0  0  0
  189.9160  177.8150  144.6020 C   0  0  0  0  0  2  0  0  0  0  0  0
  189.3820  177.0550  145.8030 C   0  0  0  0  0  1  0  0  0  0  0  0
  194.9970  175.5780  136.6570 C   0  0  0  0  0  2  0  0  0  0  0  0
  194.6630  174.3020  136.0430 N   0  0  0  0  0  2  0  0  0  0  0  0
  195.5650  173.4060  136.5020 O   0  0  0  0  0  1  0  0  0  0  0  0
  181.5910  177.1940  137.0950 C   0  0  0  0  0  2  0  0  0  0  0  0
  180.9720  175.8470  136.7580 C   0  0  0  0  0  2  0  0  0  0  0  0
  182.0510  174.8240  136.4370 C   0  0  1  0  0  3  0  0  0  0  0  0
  180.7290  173.8140  134.7360 O   0  0  0  0  0  0  0  0  0  0  0  0
  181.4970  173.6250  135.7150 C   0  0  0  0  0  0  0  0  0  0  0  0
  181.7530  172.3110  136.1220 O   0  0  0  0  0  0  0  0  0  0  0  0
  182.4820  171.3770  135.3390 C   0  0  2  0  0  3  0  0  0  0  0  0
  183.1660  170.3730  136.2470 C   0  0  0  0  0  1  0  0  0  0  0  0
  183.4440  172.0530  134.5940 O   0  0  0  0  0  1  0  0  0  0  0  0
  183.0550  175.4260  135.6730 O   0  0  0  0  0  0  0  0  0  0  0  0
  184.2360  174.7960  136.0700 C   0  0  0  0  0  2  0  0  0  0  0  0
  184.1410  174.4160  137.5340 C   0  0  0  0  0  1  0  0  0  0  0  0
  186.3230  177.3610  137.5340 C   0  0  0  0  0  2  0  0  0  0  0  0
  186.8240  178.5030  136.6590 C   0  0  0  0  0  2  0  0  0  0  0  0
  187.5620  177.9700  135.4460 C   0  0  0  0  0  2  0  0  0  0  0  0
  186.7950  176.9780  134.8380 O   0  0  0  0  0  1  0  0  0  0  0  0
  1 19  1  0  0  0  0
  2 16  1  0  0  0  0
  3  8  1  1  0  0  0
  3 10  1  0  0  0  0
  3  9  1  0  0  0  0
  4 12  2  0  0  0  0
  5  1  1  0  0  0  0
  5 11  1  0  0  0  0
  7 11  2  0  0  0  0
  7 10  1  0  0  0  0
  8 17  1  0  0  0  0
  9  6  1  1  0  0  0
  9 18  1  0  0  0  0
 10 14  2  0  0  0  0
 11 22  1  0  0  0  0
 13 21  2  0  0  0  0
 13  4  1  0  0  0  0
 14 18  1  0  0  0  0
 14 20  1  0  0  0  0
 16 38  1  0  0  0  0
 17 47  1  6  0  0  0
 17 24  1  0  0  0  0
 18 26  1  6  0  0  0
 19 16  2  0  0  0  0
 19 15  1  0  0  0  0
 21 25  1  0  0  0  0
 22 15  1  0  0  0  0
 22 20  2  0  0  0  0
 23 12  1  6  0  0  0
 23  2  1  0  0  0  0
 24  6  1  0  0  0  0
 25 23  1  0  0  0  0
 25  1  2  0  0  0  0
 26 27  1  1  0  0  0
 26 34  1  0  0  0  0
 26 29  1  0  0  0  0
 28 30  2  0  0  0  0
 29 31  1  0  0  0  0
 29 28  1  0  0  0  0
 31 32  1  0  0  0  0
 32 30  1  0  0  0  0
 34 35  1  0  0  0  0
 34 33  1  1  0  0  0
 36 35  1  0  0  0  0
 36 37  2  0  0  0  0
 39 38  1  1  0  0  0
 39 42  1  0  0  0  0
 39 40  1  0  0  0  0
 41 40  1  0  0  0  0
 42 43  1  0  0  0  0
 44  4  1  0  0  0  0
 45 46  1  0  0  0  0
 45 44  1  0  0  0  0
 48 47  1  0  0  0  0
 49 48  1  6  0  0  0
 50 51  2  0  0  0  0
 51 52  1  0  0  0  0
 51 49  1  0  0  0  0
 53 52  1  0  0  0  0
 53 54  1  1  0  0  0
 55 53  1  0  0  0  0
 56 57  1  0  0  0  0
 56 49  1  0  0  0  0
 57 58  1  0  0  0  0
 59  7  1  0  0  0  0
 60 59  1  0  0  0  0
 61 60  1  0  0  0  0
 62 61  1  0  0  0  0
M  END
>  <MODEL>
5

>  <REMARK>
 VINA RESULT:      -4.6      2.964      9.322
  Name = 
  22 active torsions:
  status: ('A' for Active; 'I' for Inactive)
    1  A    between atoms: C_1  and  C_12
    2  A    between atoms: C_1  and  C_19
    3  A    between atoms: C_2  and  C_36
    4  A    between atoms: C_2  and  C_49
    5  A    between atoms: N_4  and  C_23
    6  A    between atoms: O_5  and  C_53
    7  A    between atoms: C_8  and  C_12
    8  A    between atoms: C_11  and  O_62
    9  A    between atoms: O_13  and  C_41
   10  A    between atoms: O_13  and  C_54
   11  A    between atoms: N_14  and  C_24
   12  A    between atoms: C_15  and  C_23
   13  A    between atoms: C_24  and  C_38
   14  A    between atoms: C_24  and  C_54
   15  A    between atoms: C_34  and  C_58
   16  A    between atoms: C_35  and  O_50
   17  A    between atoms: C_36  and  C_48
   18  A    between atoms: C_36  and  O_50
   19  A    between atoms: C_37  and  C_49
   20  A    between atoms: C_39  and  C_53
   21  A    between atoms: C_48  and  O_62
   22  A    between atoms: C_53  and  C_58
                            x       y       z     vdW  Elec       q    Type
                         _______ _______ _______ _____ _____    ______ ____

>  <TORSDO>
F 22

$$$$
=
 OpenBabel11042410103D

 62 68  0  0  1  0  0  0  0  0999 V2000
  185.0860  178.4030  143.3710 C   0  0  0  0  0  0  0  0  0  0  0  0
  183.5280  178.7680  145.6380 O   0  0  0  0  0  0  0  0  0  0  0  0
  185.5920  178.1430  137.2020 C   0  0  1  0  0  3  0  0  0  0  0  0
  186.7820  178.4550  147.1850 C   0  0  0  0  0  0  0  0  0  0  0  0
  185.8550  177.9360  142.1680 C   0  0  0  0  0  2  0  0  0  0  0  0
  184.5120  177.0900  135.3160 C   0  0  0  0  0  2  0  0  0  0  0  0
  185.8640  178.1240  139.6470 C   0  0  0  0  0  0  0  0  0  0  0  0
  186.8650  177.7470  136.8060 O   0  0  0  0  0  0  0  0  0  0  0  0
  184.4880  178.3120  136.2250 C   0  0  1  0  0  3  0  0  0  0  0  0
  185.1440  178.2330  138.4430 C   0  0  0  0  0  0  0  0  0  0  0  0
  185.1350  178.1740  140.8620 C   0  0  0  0  0  0  0  0  0  0  0  0
  185.4930  178.8010  147.0560 C   0  0  0  0  0  3  0  0  0  0  0  0
  187.6420  178.2700  145.9980 C   0  0  0  0  0  3  0  0  0  0  0  0
  183.7740  178.3710  138.4260 C   0  0  0  0  0  0  0  0  0  0  0  0
  182.9940  178.4780  142.0210 O   0  0  0  0  0  0  0  0  0  0  0  0
  182.8780  178.6950  144.3970 C   0  0  0  0  0  0  0  0  0  0  0  0
  187.0000  176.8230  135.7240 C   0  0  1  0  0  3  0  0  0  0  0  0
  183.3060  178.3910  137.1650 C   0  0  1  0  0  3  0  0  0  0  0  0
  183.6110  178.5400  143.2760 C   0  0  0  0  0  0  0  0  0  0  0  0
  183.0440  178.4490  139.6150 C   0  0  0  0  0  3  0  0  0  0  0  0
  187.1380  178.3100  144.7610 C   0  0  0  0  0  3  0  0  0  0  0  0
  183.7270  178.3620  140.8380 C   0  0  0  0  0  0  0  0  0  0  0  0
  184.9050  179.1360  145.7150 C   0  0  1  0  0  3  0  0  0  0  0  0
  185.8980  176.9850  134.6580 C   0  0  0  0  0  2  0  0  0  0  0  0
  185.6950  178.5660  144.5600 C   0  0  0  0  0  0  0  0  0  0  0  0
  181.8570  178.6430  136.7490 C   0  0  2  0  0  0  0  0  0  0  0  0
  181.8450  179.2120  135.4650 O   0  0  0  0  0  1  0  0  0  0  0  0
  179.8000  179.3690  137.6460 N   0  0  0  0  0  2  0  0  0  0  0  0
  181.1960  179.5450  137.7140 N   0  0  0  0  0  0  0  0  0  0  0  0
  179.1840  180.5940  137.2840 C   0  0  0  0  0  3  0  0  0  0  0  0
  181.3470  180.8590  137.3170 O   0  0  0  0  0  0  0  0  0  0  0  0
  180.1340  181.4870  137.0850 C   0  0  0  0  0  3  0  0  0  0  0  0
  181.8800  176.2530  137.3040 O   0  0  0  0  0  1  0  0  0  0  0  0
  181.1250  177.2770  136.7260 C   0  0  2  0  0  3  0  0  0  0  0  0
  180.7070  176.9060  135.4110 O   0  0  0  0  0  0  0  0  0  0  0  0
  179.3860  177.0490  134.9800 C   0  0  0  0  0  3  0  0  0  0  0  0
  178.9410  178.1680  134.6040 O   0  0  0  0  0  0  0  0  0  0  0  0
  181.3770  178.8020  144.3140 C   0  0  0  0  0  2  0  0  0  0  0  0
  180.8120  178.8620  142.8890 C   0  0  1  0  0  3  0  0  0  0  0  0
  179.6690  178.0670  142.7820 O   0  0  0  0  0  0  0  0  0  0  0  0
  179.9910  177.1070  141.8220 C   0  0  0  0  0  1  0  0  0  0  0  0
  180.5210  180.2990  142.4720 C   0  0  0  0  0  2  0  0  0  0  0  0
  179.9420  180.3400  141.0690 C   0  0  0  0  0  1  0  0  0  0  0  0
  187.3650  178.2420  148.5400 C   0  0  0  0  0  2  0  0  0  0  0  0
  188.6970  178.8220  148.6150 N   0  0  0  0  0  2  0  0  0  0  0  0
  189.5360  177.8180  148.9550 O   0  0  0  0  0  1  0  0  0  0  0  0
  188.4020  176.8970  135.1370 C   0  0  0  0  0  2  0  0  0  0  0  0
  188.8520  175.5480  134.6020 C   0  0  0  0  0  2  0  0  0  0  0  0
  190.1320  175.0960  135.2880 C   0  0  1  0  0  3  0  0  0  0  0  0
  189.3780  174.5280  137.4720 O   0  0  0  0  0  0  0  0  0  0  0  0
  190.0810  175.3070  136.7780 C   0  0  0  0  0  0  0  0  0  0  0  0
  190.7360  176.3660  137.4160 O   0  0  0  0  0  0  0  0  0  0  0  0
  192.0920  176.3110  137.8340 C   0  0  2  0  0  3  0  0  0  0  0  0
  192.5440  174.8650  137.9100 C   0  0  0  0  0  1  0  0  0  0  0  0
  192.2110  176.8960  139.0910 O   0  0  0  0  0  1  0  0  0  0  0  0
  190.3690  173.7490  134.9990 O   0  0  0  0  0  0  0  0  0  0  0  0
  191.7170  173.6890  134.6420 C   0  0  0  0  0  2  0  0  0  0  0  0
  192.2350  172.2800  134.8520 C   0  0  0  0  0  1  0  0  0  0  0  0
  187.3650  178.0010  139.6450 C   0  0  0  0  0  2  0  0  0  0  0  0
  187.9750  178.6400  140.8860 C   0  0  0  0  0  2  0  0  0  0  0  0
  189.4150  178.1990  141.0660 C   0  0  0  0  0  2  0  0  0  0  0  0
  189.4590  176.8150  141.2230 O   0  0  0  0  0  1  0  0  0  0  0  0
  1 25  2  0  0  0  0
  2 23  1  0  0  0  0
  3  8  1  1  0  0  0
  3 10  1  0  0  0  0
  4 44  1  0  0  0  0
  5  1  1  0  0  0  0
  7 11  1  0  0  0  0
  9  6  1  6  0  0  0
  9 18  1  0  0  0  0
  9  3  1  0  0  0  0
 10  7  2  0  0  0  0
 11  5  1  0  0  0  0
 12  4  2  0  0  0  0
 13  4  1  0  0  0  0
 14 10  1  0  0  0  0
 14 20  2  0  0  0  0
 15 19  1  0  0  0  0
 16  2  1  0  0  0  0
 17 47  1  6  0  0  0
 17  8  1  0  0  0  0
 18 26  1  6  0  0  0
 18 14  1  0  0  0  0
 19  1  1  0  0  0  0
 19 16  2  0  0  0  0
 20 22  1  0  0  0  0
 21 13  2  0  0  0  0
 22 11  2  0  0  0  0
 22 15  1  0  0  0  0
 23 12  1  1  0  0  0
 24  6  1  0  0  0  0
 24 17  1  0  0  0  0
 25 21  1  0  0  0  0
 25 23  1  0  0  0  0
 26 27  1  6  0  0  0
 26 29  1  0  0  0  0
 28 29  1  0  0  0  0
 30 28  1  0  0  0  0
 31 29  1  0  0  0  0
 32 30  2  0  0  0  0
 32 31  1  0  0  0  0
 34 26  1  0  0  0  0
 34 33  1  6  0  0  0
 35 34  1  0  0  0  0
 36 35  1  0  0  0  0
 37 36  2  0  0  0  0
 38 16  1  0  0  0  0
 39 42  1  1  0  0  0
 39 38  1  0  0  0  0
 40 39  1  0  0  0  0
 41 40  1  0  0  0  0
 43 42  1  0  0  0  0
 44 45  1  0  0  0  0
 45 46  1  0  0  0  0
 48 47  1  0  0  0  0
 49 48  1  6  0  0  0
 49 51  1  0  0  0  0
 51 52  1  0  0  0  0
 51 50  2  0  0  0  0
 52 53  1  0  0  0  0
 53 54  1  1  0  0  0
 53 55  1  0  0  0  0
 56 49  1  0  0  0  0
 57 58  1  0  0  0  0
 57 56  1  0  0  0  0
 59  7  1  0  0  0  0
 59 60  1  0  0  0  0
 60 61  1  0  0  0  0
 61 62  1  0  0  0  0
M  END
>  <MODEL>
6

>  <REMARK>
 VINA RESULT:      -4.4      2.943      8.683
  Name = 
  22 active torsions:
  status: ('A' for Active; 'I' for Inactive)
    1  A    between atoms: C_1  and  C_12
    2  A    between atoms: C_1  and  C_19
    3  A    between atoms: C_2  and  C_36
    4  A    between atoms: C_2  and  C_49
    5  A    between atoms: N_4  and  C_23
    6  A    between atoms: O_5  and  C_53
    7  A    between atoms: C_8  and  C_12
    8  A    between atoms: C_11  and  O_62
    9  A    between atoms: O_13  and  C_41
   10  A    between atoms: O_13  and  C_54
   11  A    between atoms: N_14  and  C_24
   12  A    between atoms: C_15  and  C_23
   13  A    between atoms: C_24  and  C_38
   14  A    between atoms: C_24  and  C_54
   15  A    between atoms: C_34  and  C_58
   16  A    between atoms: C_35  and  O_50
   17  A    between atoms: C_36  and  C_48
   18  A    between atoms: C_36  and  O_50
   19  A    between atoms: C_37  and  C_49
   20  A    between atoms: C_39  and  C_53
   21  A    between atoms: C_48  and  O_62
   22  A    between atoms: C_53  and  C_58
                            x       y       z     vdW  Elec       q    Type
                         _______ _______ _______ _____ _____    ______ ____

>  <TORSDO>
F 22

$$$$
=
 OpenBabel11042410103D

 62 68  0  0  1  0  0  0  0  0999 V2000
  184.0410  178.1780  137.8100 C   0  0  0  0  0  0  0  0  0  0  0  0
  181.9020  177.6620  136.1200 O   0  0  0  0  0  0  0  0  0  0  0  0
  190.0150  177.4340  139.2700 C   0  0  1  0  0  3  0  0  0  0  0  0
  180.3270  179.9890  138.3970 C   0  0  0  0  0  0  0  0  0  0  0  0
  185.1190  178.2220  138.8560 C   0  0  0  0  0  2  0  0  0  0  0  0
  191.6350  175.6600  139.5230 C   0  0  0  0  0  2  0  0  0  0  0  0
  187.6220  177.9800  139.1090 C   0  0  0  0  0  0  0  0  0  0  0  0
  190.3200  178.0060  140.5000 O   0  0  0  0  0  0  0  0  0  0  0  0
  191.0050  176.6200  138.5220 C   0  0  1  0  0  3  0  0  0  0  0  0
  188.8220  177.3640  138.7070 C   0  0  0  0  0  0  0  0  0  0  0  0
  186.4450  177.6790  138.3790 C   0  0  0  0  0  0  0  0  0  0  0  0
  180.5240  179.2930  137.2680 C   0  0  0  0  0  3  0  0  0  0  0  0
  181.4480  180.2950  139.3080 C   0  0  0  0  0  3  0  0  0  0  0  0
  188.8660  176.4830  137.6490 C   0  0  0  0  0  0  0  0  0  0  0  0
  185.3740  176.5420  136.4870 O   0  0  0  0  0  0  0  0  0  0  0  0
  183.0980  176.9640  135.8990 C   0  0  0  0  0  0  0  0  0  0  0  0
  191.1820  177.3050  141.3990 C   0  0  1  0  0  3  0  0  0  0  0  0
  190.1020  175.9760  137.4940 C   0  0  1  0  0  3  0  0  0  0  0  0
  184.1610  177.2100  136.6900 C   0  0  0  0  0  0  0  0  0  0  0  0
  187.7190  176.1970  136.9020 C   0  0  0  0  0  3  0  0  0  0  0  0
  182.6650  179.7790  139.1110 C   0  0  0  0  0  3  0  0  0  0  0  0
  186.5070  176.8050  137.2610 C   0  0  0  0  0  0  0  0  0  0  0  0
  181.9050  178.9050  136.8230 C   0  0  1  0  0  3  0  0  0  0  0  0
  192.2570  176.4730  140.6700 C   0  0  0  0  0  2  0  0  0  0  0  0
  182.9140  178.9010  137.9470 C   0  0  0  0  0  0  0  0  0  0  0  0
  190.5600  175.0570  136.3610 C   0  0  2  0  0  0  0  0  0  0  0  0
  189.8940  175.4250  135.1810 O   0  0  0  0  0  1  0  0  0  0  0  0
  189.6010  173.0350  135.6150 N   0  0  0  0  0  0  0  0  0  0  0  0
  190.2690  173.6480  136.6950 N   0  0  0  0  0  0  0  0  0  0  0  0
  188.3300  172.5750  136.0440 C   0  0  0  0  0  3  0  0  0  0  0  0
  189.3250  173.5830  137.7000 O   0  0  0  0  0  0  0  0  0  0  0  0
  188.1750  172.9160  137.3070 C   0  0  0  0  0  2  0  0  0  0  0  0
  192.4140  175.9050  134.9970 O   0  0  0  0  0  1  0  0  0  0  0  0
  192.0880  175.2470  136.1850 C   0  0  2  0  0  3  0  0  0  0  0  0
  192.8040  174.0140  136.2840 O   0  0  0  0  0  0  0  0  0  0  0  0
  194.1990  173.9570  136.2530 C   0  0  0  0  0  3  0  0  0  0  0  0
  194.8110  173.5100  135.2430 O   0  0  0  0  0  0  0  0  0  0  0  0
  183.2000  175.9600  134.7800 C   0  0  0  0  0  2  0  0  0  0  0  0
  182.1880  174.8100  134.8520 C   0  0  1  0  0  3  0  0  0  0  0  0
  182.8190  173.5860  134.6210 O   0  0  0  0  0  0  0  0  0  0  0  0
  183.1010  173.0850  135.8930 C   0  0  0  0  0  1  0  0  0  0  0  0
  181.4550  174.8030  136.1900 C   0  0  0  0  0  2  0  0  0  0  0  0
  179.9520  174.7920  135.9740 C   0  0  0  0  0  1  0  0  0  0  0  0
  178.9570  180.4600  138.7520 C   0  0  0  0  0  2  0  0  0  0  0  0
  179.0300  181.5340  139.7310 N   0  0  0  0  0  2  0  0  0  0  0  0
  179.2090  182.6780  139.0340 O   0  0  0  0  0  1  0  0  0  0  0  0
  191.7730  178.2630  142.4220 C   0  0  0  0  0  2  0  0  0  0  0  0
  191.2330  177.9890  143.8160 C   0  0  0  0  0  2  0  0  0  0  0  0
  190.9050  176.5130  143.9870 C   0  0  1  0  0  3  0  0  0  0  0  0
  191.9700  174.6160  144.9510 O   0  0  0  0  0  0  0  0  0  0  0  0
  191.7750  175.8570  145.0270 C   0  0  0  0  0  0  0  0  0  0  0  0
  192.3260  176.5580  146.1050 O   0  0  0  0  0  0  0  0  0  0  0  0
  192.1280  176.1890  147.4620 C   0  0  2  0  0  3  0  0  0  0  0  0
  190.7410  175.6020  147.6340 C   0  0  0  0  0  1  0  0  0  0  0  0
  192.2530  177.3170  148.2680 O   0  0  0  0  0  1  0  0  0  0  0  0
  189.5570  176.3680  144.3240 O   0  0  0  0  0  0  0  0  0  0  0  0
  189.1360  177.6490  144.6880 C   0  0  0  0  0  2  0  0  0  0  0  0
  188.8020  177.6720  146.1660 C   0  0  0  0  0  1  0  0  0  0  0  0
  187.6000  178.9610  140.2510 C   0  0  0  0  0  2  0  0  0  0  0  0
  187.3320  178.2620  141.5780 C   0  0  0  0  0  2  0  0  0  0  0  0
  186.4280  179.1030  142.4570 C   0  0  0  0  0  2  0  0  0  0  0  0
  186.0580  178.3640  143.5800 O   0  0  0  0  0  1  0  0  0  0  0  0
  1 25  2  0  0  0  0
  1  5  1  0  0  0  0
  2 23  1  0  0  0  0
  3 10  1  1  0  0  0
  3  8  1  0  0  0  0
  4 44  1  0  0  0  0
  4 13  1  0  0  0  0
  6 24  1  0  0  0  0
  7 59  1  0  0  0  0
  8 17  1  0  0  0  0
  9  3  1  0  0  0  0
  9  6  1  1  0  0  0
 10  7  1  0  0  0  0
 11  5  1  0  0  0  0
 11  7  2  0  0  0  0
 12  4  2  0  0  0  0
 14 10  2  0  0  0  0
 15 19  1  0  0  0  0
 15 22  1  0  0  0  0
 16  2  1  0  0  0  0
 16 19  2  0  0  0  0
 17 47  1  1  0  0  0
 18 26  1  6  0  0  0
 18 14  1  0  0  0  0
 18  9  1  0  0  0  0
 19  1  1  0  0  0  0
 20 22  2  0  0  0  0
 20 14  1  0  0  0  0
 21 13  2  0  0  0  0
 22 11  1  0  0  0  0
 23 12  1  1  0  0  0
 23 25  1  0  0  0  0
 24 17  1  0  0  0  0
 25 21  1  0  0  0  0
 26 27  1  6  0  0  0
 26 29  1  0  0  0  0
 28 30  2  0  0  0  0
 28 29  1  0  0  0  0
 29 31  1  0  0  0  0
 30 32  1  0  0  0  0
 32 31  1  0  0  0  0
 34 33  1  6  0  0  0
 34 35  1  0  0  0  0
 34 26  1  0  0  0  0
 36 35  1  0  0  0  0
 37 36  2  0  0  0  0
 38 16  1  0  0  0  0
 39 38  1  1  0  0  0
 39 42  1  0  0  0  0
 40 39  1  0  0  0  0
 40 41  1  0  0  0  0
 43 42  1  0  0  0  0
 44 45  1  0  0  0  0
 46 45  1  0  0  0  0
 47 48  1  0  0  0  0
 49 48  1  1  0  0  0
 49 56  1  0  0  0  0
 49 51  1  0  0  0  0
 50 51  2  0  0  0  0
 51 52  1  0  0  0  0
 52 53  1  0  0  0  0
 53 54  1  6  0  0  0
 53 55  1  0  0  0  0
 56 57  1  0  0  0  0
 57 58  1  0  0  0  0
 59 60  1  0  0  0  0
 60 61  1  0  0  0  0
 61 62  1  0  0  0  0
M  END
>  <MODEL>
7

>  <REMARK>
 VINA RESULT:      -3.9      2.704      7.701
  Name = 
  22 active torsions:
  status: ('A' for Active; 'I' for Inactive)
    1  A    between atoms: C_1  and  C_12
    2  A    between atoms: C_1  and  C_19
    3  A    between atoms: C_2  and  C_36
    4  A    between atoms: C_2  and  C_49
    5  A    between atoms: N_4  and  C_23
    6  A    between atoms: O_5  and  C_53
    7  A    between atoms: C_8  and  C_12
    8  A    between atoms: C_11  and  O_62
    9  A    between atoms: O_13  and  C_41
   10  A    between atoms: O_13  and  C_54
   11  A    between atoms: N_14  and  C_24
   12  A    between atoms: C_15  and  C_23
   13  A    between atoms: C_24  and  C_38
   14  A    between atoms: C_24  and  C_54
   15  A    between atoms: C_34  and  C_58
   16  A    between atoms: C_35  and  O_50
   17  A    between atoms: C_36  and  C_48
   18  A    between atoms: C_36  and  O_50
   19  A    between atoms: C_37  and  C_49
   20  A    between atoms: C_39  and  C_53
   21  A    between atoms: C_48  and  O_62
   22  A    between atoms: C_53  and  C_58
                            x       y       z     vdW  Elec       q    Type
                         _______ _______ _______ _____ _____    ______ ____

>  <TORSDO>
F 22

$$$$
=
 OpenBabel11042410103D

 62 68  0  0  1  0  0  0  0  0999 V2000
  188.3220  177.3750  141.9940 C   0  0  0  0  0  0  0  0  0  0  0  0
  190.8940  176.3340  142.0010 O   0  0  0  0  0  0  0  0  0  0  0  0
  183.0610  178.6360  138.9770 C   0  0  1  0  0  3  0  0  0  0  0  0
  190.5700  177.1670  145.5050 C   0  0  0  0  0  0  0  0  0  0  0  0
  187.0550  178.1770  141.9100 C   0  0  0  0  0  2  0  0  0  0  0  0
  182.3280  179.6720  136.9210 C   0  0  0  0  0  2  0  0  0  0  0  0
  184.9340  178.3640  140.5490 C   0  0  0  0  0  0  0  0  0  0  0  0
  182.1800  179.3700  139.7630 O   0  0  0  0  0  0  0  0  0  0  0  0
  182.7840  178.3590  137.5450 C   0  0  1  0  0  3  0  0  0  0  0  0
  184.2880  178.2660  139.3020 C   0  0  0  0  0  0  0  0  0  0  0  0
  186.2930  177.9700  140.6230 C   0  0  0  0  0  0  0  0  0  0  0  0
  191.0410  176.5530  144.4100 C   0  0  0  0  0  3  0  0  0  0  0  0
  189.1990  177.7160  145.5380 C   0  0  0  0  0  3  0  0  0  0  0  0
  184.9440  177.8180  138.1780 C   0  0  0  0  0  0  0  0  0  0  0  0
  188.2710  177.0120  139.5300 O   0  0  0  0  0  0  0  0  0  0  0  0
  190.2280  176.4330  140.7700 C   0  0  0  0  0  0  0  0  0  0  0  0
  181.4510  180.4470  139.1700 C   0  0  1  0  0  3  0  0  0  0  0  0
  184.1440  177.8720  137.0970 C   0  0  1  0  0  3  0  0  0  0  0  0
  188.9690  176.9140  140.7390 C   0  0  0  0  0  0  0  0  0  0  0  0
  186.2760  177.4000  138.2400 C   0  0  0  0  0  3  0  0  0  0  0  0
  188.4330  177.7400  144.4440 C   0  0  0  0  0  3  0  0  0  0  0  0
  186.9510  177.4660  139.4680 C   0  0  0  0  0  0  0  0  0  0  0  0
  190.1590  176.2890  143.2230 C   0  0  1  0  0  3  0  0  0  0  0  0
  181.1010  180.1900  137.6900 C   0  0  0  0  0  2  0  0  0  0  0  0
  188.9450  177.1870  143.1720 C   0  0  0  0  0  0  0  0  0  0  0  0
  184.4850  177.3540  135.7000 C   0  0  2  0  0  0  0  0  0  0  0  0
  183.8830  178.1910  134.7460 O   0  0  0  0  0  1  0  0  0  0  0  0
  182.7500  175.9730  134.8960 N   0  0  0  0  0  0  0  0  0  0  0  0
  184.0040  175.9660  135.5370 N   0  0  0  0  0  0  0  0  0  0  0  0
  181.7820  175.3710  135.7410 C   0  0  0  0  0  3  0  0  0  0  0  0
  183.7030  175.4200  136.7690 O   0  0  0  0  0  0  0  0  0  0  0  0
  182.3730  175.0440  136.8720 C   0  0  0  0  0  2  0  0  0  0  0  0
  186.4780  178.6020  135.0040 O   0  0  0  0  0  1  0  0  0  0  0  0
  186.0260  177.3950  135.5410 C   0  0  2  0  0  3  0  0  0  0  0  0
  186.5230  176.2930  134.7790 O   0  0  0  0  0  0  0  0  0  0  0  0
  187.2920  175.2770  135.3520 C   0  0  0  0  0  3  0  0  0  0  0  0
  186.7480  174.2830  135.9070 O   0  0  0  0  0  0  0  0  0  0  0  0
  190.9040  175.9930  139.4980 C   0  0  0  0  0  2  0  0  0  0  0  0
  191.8780  177.0160  138.8980 C   0  0  1  0  0  3  0  0  0  0  0  0
  193.1970  176.6700  139.1960 O   0  0  0  0  0  0  0  0  0  0  0  0
  193.6360  177.6620  140.0730 C   0  0  0  0  0  1  0  0  0  0  0  0
  191.6740  177.1530  137.3930 C   0  0  0  0  0  2  0  0  0  0  0  0
  192.1950  175.9240  136.6700 C   0  0  0  0  0  1  0  0  0  0  0  0
  191.4360  177.3100  146.7100 C   0  0  0  0  0  2  0  0  0  0  0  0
  192.0400  176.0320  147.0550 N   0  0  0  0  0  2  0  0  0  0  0  0
  192.1130  175.9930  148.4040 O   0  0  0  0  0  1  0  0  0  0  0  0
  180.2300  180.7870  140.0120 C   0  0  0  0  0  2  0  0  0  0  0  0
  179.1090  179.7840  139.7940 C   0  0  0  0  0  2  0  0  0  0  0  0
  179.1180  178.7200  140.8810 C   0  0  1  0  0  3  0  0  0  0  0  0
  179.6460  177.2330  139.1000 O   0  0  0  0  0  0  0  0  0  0  0  0
  179.4630  177.3580  140.3380 C   0  0  0  0  0  0  0  0  0  0  0  0
  179.5330  176.2170  141.1440 O   0  0  0  0  0  0  0  0  0  0  0  0
  179.5270  174.8930  140.6300 C   0  0  2  0  0  3  0  0  0  0  0  0
  179.1730  173.9170  141.7350 C   0  0  0  0  0  1  0  0  0  0  0  0
  180.7900  174.5870  140.1320 O   0  0  0  0  0  1  0  0  0  0  0  0
  180.0200  179.0820  141.8840 O   0  0  0  0  0  0  0  0  0  0  0  0
  179.2880  179.0100  143.0710 C   0  0  0  0  0  2  0  0  0  0  0  0
  180.1290  179.5310  144.2190 C   0  0  0  0  0  1  0  0  0  0  0  0
  184.1910  178.8310  141.7720 C   0  0  0  0  0  2  0  0  0  0  0  0
  184.9690  178.5210  143.0450 C   0  0  0  0  0  2  0  0  0  0  0  0
  184.6910  179.5600  144.1130 C   0  0  0  0  0  2  0  0  0  0  0  0
  184.4000  178.9200  145.3160 O   0  0  0  0  0  1  0  0  0  0  0  0
  1 25  2  0  0  0  0
  2 23  1  0  0  0  0
  3 10  1  6  0  0  0
  3  8  1  0  0  0  0
  4 13  1  0  0  0  0
  4 44  1  0  0  0  0
  5  1  1  0  0  0  0
  6 24  1  0  0  0  0
  7 11  1  0  0  0  0
  7 59  1  0  0  0  0
  9  6  1  6  0  0  0
  9  3  1  0  0  0  0
 10  7  2  0  0  0  0
 11  5  1  0  0  0  0
 12  4  2  0  0  0  0
 14 20  2  0  0  0  0
 14 10  1  0  0  0  0
 15 19  1  0  0  0  0
 16  2  1  0  0  0  0
 17  8  1  0  0  0  0
 17 47  1  1  0  0  0
 18 26  1  1  0  0  0
 18  9  1  0  0  0  0
 18 14  1  0  0  0  0
 19 16  2  0  0  0  0
 19  1  1  0  0  0  0
 20 22  1  0  0  0  0
 21 13  2  0  0  0  0
 22 15  1  0  0  0  0
 22 11  2  0  0  0  0
 23 12  1  1  0  0  0
 24 17  1  0  0  0  0
 25 23  1  0  0  0  0
 25 21  1  0  0  0  0
 26 27  1  6  0  0  0
 28 29  1  0  0  0  0
 28 30  2  0  0  0  0
 29 26  1  0  0  0  0
 29 31  1  0  0  0  0
 30 32  1  0  0  0  0
 31 32  1  0  0  0  0
 34 33  1  6  0  0  0
 34 26  1  0  0  0  0
 35 36  1  0  0  0  0
 35 34  1  0  0  0  0
 36 37  2  0  0  0  0
 38 16  1  0  0  0  0
 39 42  1  6  0  0  0
 39 40  1  0  0  0  0
 39 38  1  0  0  0  0
 40 41  1  0  0  0  0
 43 42  1  0  0  0  0
 44 45  1  0  0  0  0
 45 46  1  0  0  0  0
 48 47  1  0  0  0  0
 49 48  1  6  0  0  0
 49 56  1  0  0  0  0
 50 51  2  0  0  0  0
 51 49  1  0  0  0  0
 51 52  1  0  0  0  0
 53 52  1  0  0  0  0
 53 54  1  1  0  0  0
 55 53  1  0  0  0  0
 56 57  1  0  0  0  0
 57 58  1  0  0  0  0
 59 60  1  0  0  0  0
 60 61  1  0  0  0  0
 61 62  1  0  0  0  0
M  END
>  <MODEL>
8

>  <REMARK>
 VINA RESULT:      -3.7      2.950     11.875
  Name = 
  22 active torsions:
  status: ('A' for Active; 'I' for Inactive)
    1  A    between atoms: C_1  and  C_12
    2  A    between atoms: C_1  and  C_19
    3  A    between atoms: C_2  and  C_36
    4  A    between atoms: C_2  and  C_49
    5  A    between atoms: N_4  and  C_23
    6  A    between atoms: O_5  and  C_53
    7  A    between atoms: C_8  and  C_12
    8  A    between atoms: C_11  and  O_62
    9  A    between atoms: O_13  and  C_41
   10  A    between atoms: O_13  and  C_54
   11  A    between atoms: N_14  and  C_24
   12  A    between atoms: C_15  and  C_23
   13  A    between atoms: C_24  and  C_38
   14  A    between atoms: C_24  and  C_54
   15  A    between atoms: C_34  and  C_58
   16  A    between atoms: C_35  and  O_50
   17  A    between atoms: C_36  and  C_48
   18  A    between atoms: C_36  and  O_50
   19  A    between atoms: C_37  and  C_49
   20  A    between atoms: C_39  and  C_53
   21  A    between atoms: C_48  and  O_62
   22  A    between atoms: C_53  and  C_58
                            x       y       z     vdW  Elec       q    Type
                         _______ _______ _______ _____ _____    ______ ____

>  <TORSDO>
F 22

$$$$
=
 OpenBabel11042410103D

 62 68  0  0  1  0  0  0  0  0999 V2000
  189.6420  176.9550  142.9260 C   0  0  0  0  0  0  0  0  0  0  0  0
  187.7400  177.7230  144.7950 O   0  0  0  0  0  0  0  0  0  0  0  0
  191.2290  175.8520  137.0410 C   0  0  1  0  0  3  0  0  0  0  0  0
  190.6160  177.3880  146.9620 C   0  0  0  0  0  0  0  0  0  0  0  0
  190.5680  176.2810  141.9550 C   0  0  0  0  0  2  0  0  0  0  0  0
  190.4150  174.6390  135.1170 C   0  0  0  0  0  2  0  0  0  0  0  0
  191.0510  176.1350  139.4780 C   0  0  0  0  0  0  0  0  0  0  0  0
  192.5100  175.3190  136.9440 O   0  0  0  0  0  0  0  0  0  0  0  0
  190.3410  175.9680  135.8580 C   0  0  1  0  0  3  0  0  0  0  0  0
  190.5750  176.1360  138.1540 C   0  0  0  0  0  0  0  0  0  0  0  0
  190.1230  176.3950  140.5170 C   0  0  0  0  0  0  0  0  0  0  0  0
  189.4100  177.8040  146.5500 C   0  0  0  0  0  3  0  0  0  0  0  0
  191.6550  176.9890  145.9910 C   0  0  0  0  0  3  0  0  0  0  0  0
  189.2490  176.3650  137.8600 C   0  0  0  0  0  0  0  0  0  0  0  0
  187.8450  176.9980  141.2020 O   0  0  0  0  0  0  0  0  0  0  0  0
  187.3210  177.5330  143.4700 C   0  0  0  0  0  0  0  0  0  0  0  0
  192.7520  174.2540  136.0230 C   0  0  1  0  0  3  0  0  0  0  0  0
  189.0210  176.2530  136.5380 C   0  0  1  0  0  3  0  0  0  0  0  0
  188.2270  177.1810  142.5360 C   0  0  0  0  0  0  0  0  0  0  0  0
  188.3270  176.6500  138.8700 C   0  0  0  0  0  3  0  0  0  0  0  0
  191.3900  176.9010  144.6840 C   0  0  0  0  0  3  0  0  0  0  0  0
  188.7660  176.6760  140.2020 C   0  0  0  0  0  0  0  0  0  0  0  0
  189.1090  178.0000  145.0910 C   0  0  1  0  0  3  0  0  0  0  0  0
  191.8810  174.3510  134.7530 C   0  0  0  0  0  2  0  0  0  0  0  0
  190.0380  177.2300  144.1830 C   0  0  0  0  0  0  0  0  0  0  0  0
  187.7010  176.5480  135.8270 C   0  0  2  0  0  0  0  0  0  0  0  0
  187.6890  175.8750  134.5940 O   0  0  0  0  0  1  0  0  0  0  0  0
  188.7850  178.6430  135.8230 N   0  0  0  0  0  0  0  0  0  0  0  0
  187.5470  178.0030  135.6160 N   0  0  0  0  0  0  0  0  0  0  0  0
  188.6620  179.5820  136.8780 C   0  0  0  0  0  3  0  0  0  0  0  0
  186.7630  178.5470  136.6130 O   0  0  0  0  0  0  0  0  0  0  0  0
  187.4330  179.5120  137.3490 C   0  0  0  0  0  2  0  0  0  0  0  0
  186.6720  174.6660  137.0170 O   0  0  0  0  0  1  0  0  0  0  0  0
  186.5500  176.0260  136.7240 C   0  0  2  0  0  3  0  0  0  0  0  0
  185.2620  176.3030  136.1710 O   0  0  0  0  0  0  0  0  0  0  0  0
  184.0970  176.2710  136.9410 C   0  0  0  0  0  3  0  0  0  0  0  0
  183.9290  177.0700  137.9020 O   0  0  0  0  0  0  0  0  0  0  0  0
  185.8770  177.7330  143.0900 C   0  0  0  0  0  2  0  0  0  0  0  0
  185.4090  179.1940  143.0840 C   0  0  1  0  0  3  0  0  0  0  0  0
  185.5220  179.7400  141.8030 O   0  0  0  0  0  0  0  0  0  0  0  0
  184.7120  178.9360  141.0010 C   0  0  0  0  0  1  0  0  0  0  0  0
  183.9810  179.3180  143.6060 C   0  0  0  0  0  2  0  0  0  0  0  0
  183.9110  178.9090  145.0660 C   0  0  0  0  0  1  0  0  0  0  0  0
  190.9220  177.3150  148.4200 C   0  0  0  0  0  2  0  0  0  0  0  0
  192.2640  176.7940  148.6290 N   0  0  0  0  0  2  0  0  0  0  0  0
  192.9120  177.6980  149.3960 O   0  0  0  0  0  1  0  0  0  0  0  0
  194.2380  174.1520  135.7100 C   0  0  0  0  0  2  0  0  0  0  0  0
  194.7390  172.7250  135.8580 C   0  0  0  0  0  2  0  0  0  0  0  0
  196.1000  172.7000  136.5370 C   0  0  1  0  0  3  0  0  0  0  0  0
  195.1320  172.4150  138.6920 O   0  0  0  0  0  0  0  0  0  0  0  0
  196.0050  173.0090  138.0080 C   0  0  0  0  0  0  0  0  0  0  0  0
  196.8070  173.9700  138.6340 O   0  0  0  0  0  0  0  0  0  0  0  0
  197.8640  174.6550  137.9780 C   0  0  2  0  0  3  0  0  0  0  0  0
  198.9270  173.6640  137.5470 C   0  0  0  0  0  1  0  0  0  0  0  0
  198.4250  175.5810  138.8530 O   0  0  0  0  0  1  0  0  0  0  0  0
  196.6980  171.4520  136.3440 O   0  0  0  0  0  0  0  0  0  0  0  0
  196.2590  171.0330  135.0860 C   0  0  0  0  0  2  0  0  0  0  0  0
  195.4670  169.7490  135.2280 C   0  0  0  0  0  1  0  0  0  0  0  0
  192.5090  175.9080  139.7770 C   0  0  0  0  0  2  0  0  0  0  0  0
  193.0990  177.0660  140.5730 C   0  0  0  0  0  2  0  0  0  0  0  0
  194.4570  177.4590  140.0270 C   0  0  0  0  0  2  0  0  0  0  0  0
  195.4540  176.8300  140.7700 O   0  0  0  0  0  1  0  0  0  0  0  0
  1 25  2  0  0  0  0
  2 23  1  0  0  0  0
  3  8  1  1  0  0  0
  3 10  1  0  0  0  0
  4 44  1  0  0  0  0
  5  1  1  0  0  0  0
  7 59  1  0  0  0  0
  7 11  1  0  0  0  0
  9  6  1  1  0  0  0
  9 18  1  0  0  0  0
  9  3  1  0  0  0  0
 10  7  2  0  0  0  0
 11  5  1  0  0  0  0
 12  4  2  0  0  0  0
 13  4  1  0  0  0  0
 14 10  1  0  0  0  0
 14 20  2  0  0  0  0
 15 19  1  0  0  0  0
 16  2  1  0  0  0  0
 17 47  1  6  0  0  0
 17  8  1  0  0  0  0
 18 26  1  6  0  0  0
 18 14  1  0  0  0  0
 19  1  1  0  0  0  0
 19 16  2  0  0  0  0
 20 22  1  0  0  0  0
 21 13  2  0  0  0  0
 22 11  2  0  0  0  0
 22 15  1  0  0  0  0
 23 12  1  1  0  0  0
 24  6  1  0  0  0  0
 24 17  1  0  0  0  0
 25 21  1  0  0  0  0
 25 23  1  0  0  0  0
 26 27  1  6  0  0  0
 26 34  1  0  0  0  0
 28 30  2  0  0  0  0
 29 28  1  0  0  0  0
 29 26  1  0  0  0  0
 29 31  1  0  0  0  0
 30 32  1  0  0  0  0
 31 32  1  0  0  0  0
 34 33  1  6  0  0  0
 35 34  1  0  0  0  0
 35 36  1  0  0  0  0
 36 37  2  0  0  0  0
 38 16  1  0  0  0  0
 39 38  1  6  0  0  0
 39 42  1  0  0  0  0
 40 39  1  0  0  0  0
 41 40  1  0  0  0  0
 42 43  1  0  0  0  0
 44 45  1  0  0  0  0
 45 46  1  0  0  0  0
 47 48  1  0  0  0  0
 49 48  1  1  0  0  0
 49 51  1  0  0  0  0
 51 52  1  0  0  0  0
 51 50  2  0  0  0  0
 53 54  1  1  0  0  0
 53 52  1  0  0  0  0
 53 55  1  0  0  0  0
 56 49  1  0  0  0  0
 57 58  1  0  0  0  0
 57 56  1  0  0  0  0
 59 60  1  0  0  0  0
 61 60  1  0  0  0  0
 61 62  1  0  0  0  0
M  END
>  <MODEL>
9

>  <REMARK>
 VINA RESULT:      -3.6      2.749      7.764
  Name = 
  22 active torsions:
  status: ('A' for Active; 'I' for Inactive)
    1  A    between atoms: C_1  and  C_12
    2  A    between atoms: C_1  and  C_19
    3  A    between atoms: C_2  and  C_36
    4  A    between atoms: C_2  and  C_49
    5  A    between atoms: N_4  and  C_23
    6  A    between atoms: O_5  and  C_53
    7  A    between atoms: C_8  and  C_12
    8  A    between atoms: C_11  and  O_62
    9  A    between atoms: O_13  and  C_41
   10  A    between atoms: O_13  and  C_54
   11  A    between atoms: N_14  and  C_24
   12  A    between atoms: C_15  and  C_23
   13  A    between atoms: C_24  and  C_38
   14  A    between atoms: C_24  and  C_54
   15  A    between atoms: C_34  and  C_58
   16  A    between atoms: C_35  and  O_50
   17  A    between atoms: C_36  and  C_48
   18  A    between atoms: C_36  and  O_50
   19  A    between atoms: C_37  and  C_49
   20  A    between atoms: C_39  and  C_53
   21  A    between atoms: C_48  and  O_62
   22  A    between atoms: C_53  and  C_58
                            x       y       z     vdW  Elec       q    Type
                         _______ _______ _______ _____ _____    ______ ____

>  <TORSDO>
F 22

$$$$
