=
 OpenBabel11032419513D

 27 31  0  0  1  0  0  0  0  0999 V2000
  188.3340  178.5720  139.2180 N   0  0  0  0  0  0  0  0  0  0  0  0
  190.1010  176.9740  139.4990 C   0  0  0  0  0  0  0  0  0  0  0  0
  189.2890  177.7390  138.7100 C   0  0  0  0  0  0  0  0  0  0  0  0
  190.6830  176.3810  141.8760 N   0  0  0  0  0  2  0  0  0  0  0  0
  188.9820  177.8650  141.4120 C   0  0  0  0  0  0  0  0  0  0  0  0
  191.0420  176.2110  138.6330 C   0  0  0  0  0  3  0  0  0  0  0  0
  190.6510  176.6450  137.2820 N   0  0  0  0  0  0  0  0  0  0  0  0
  189.0240  177.7590  142.9040 C   0  0  2  0  0  3  0  0  0  0  0  0
  189.0570  178.1220  136.1420 C   0  0  0  0  0  1  0  0  0  0  0  0
  188.1630  178.6500  140.5770 C   0  0  0  0  0  2  0  0  0  0  0  0
  189.9400  177.0390  140.8740 C   0  0  0  0  0  0  0  0  0  0  0  0
  190.1510  176.8270  143.0980 N   0  0  0  0  0  0  0  0  0  0  0  0
  189.6730  177.4960  137.3430 C   0  0  0  0  0  0  0  0  0  0  0  0
  192.0290  175.9540  146.8020 C   0  0  0  0  0  0  0  0  0  0  0  0
  191.6150  175.4140  144.4780 C   0  0  0  0  0  3  0  0  0  0  0  0
  192.2380  175.1250  145.6960 C   0  0  0  0  0  3  0  0  0  0  0  0
  190.7790  176.5340  144.3550 C   0  0  0  0  0  0  0  0  0  0  0  0
  191.2100  177.0800  146.6840 C   0  0  0  0  0  3  0  0  0  0  0  0
  190.5870  177.3680  145.4660 C   0  0  0  0  0  3  0  0  0  0  0  0
  192.7110  175.6620  148.0910 C   0  0  0  0  0  2  0  0  0  0  0  0
  192.8590  176.8390  148.8240 O   0  0  0  0  0  1  0  0  0  0  0  0
  187.7330  177.1240  143.4090 C   0  0  1  0  0  3  0  0  0  0  0  0
  187.5100  177.4860  144.8650 C   0  0  0  0  0  2  0  0  0  0  0  0
  186.7400  178.2110  143.7830 C   0  0  2  0  0  3  0  0  0  0  0  0
  184.3330  179.7760  143.9440 N   0  0  0  0  0  2  0  0  0  0  0  0
  184.2310  178.4970  143.7900 C   0  0  0  0  0  3  0  0  0  0  0  0
  185.3940  177.6710  143.7040 N   0  0  0  0  0  2  0  0  0  0  0  0
  1 10  1  0  0  0  0
  2 11  1  0  0  0  0
  3  1  2  0  0  0  0
  3  2  1  0  0  0  0
  4 12  1  0  0  0  0
  6  2  2  0  0  0  0
  7 13  2  0  0  0  0
  7  6  1  0  0  0  0
  8  5  1  6  0  0  0
  8 12  1  0  0  0  0
  8 22  1  0  0  0  0
  9 13  1  0  0  0  0
 10  5  1  0  0  0  0
 11  5  2  0  0  0  0
 11  4  1  0  0  0  0
 12 17  1  0  0  0  0
 13  3  1  0  0  0  0
 14 20  1  0  0  0  0
 15 16  1  0  0  0  0
 16 14  2  0  0  0  0
 17 15  2  0  0  0  0
 17 19  1  0  0  0  0
 18 14  1  0  0  0  0
 19 18  2  0  0  0  0
 20 21  1  0  0  0  0
 22 24  1  0  0  0  0
 22 23  1  1  0  0  0
 24 27  1  1  0  0  0
 24 23  1  0  0  0  0
 26 25  2  0  0  0  0
 27 26  1  0  0  0  0
M  END
>  <MODEL>
1

>  <REMARK>
 VINA RESULT:      -8.3      0.000      0.000
  Name = 
  4 active torsions:
  status: ('A' for Active; 'I' for Inactive)
    1  A    between atoms: C_2  and  C_4
    2  A    between atoms: C_6  and  C_14
    3  A    between atoms: N_18  and  C_25
    4  A    between atoms: C_21  and  N_26
                            x       y       z     vdW  Elec       q    Type
                         _______ _______ _______ _____ _____    ______ ____

>  <TORSDO>
F 4

$$$$
=
 OpenBabel11032419513D

 27 31  0  0  1  0  0  0  0  0999 V2000
  190.1700  176.4810  141.9500 N   0  0  0  0  0  0  0  0  0  0  0  0
  188.8000  177.8940  140.5780 C   0  0  0  0  0  0  0  0  0  0  0  0
  189.9510  177.1930  140.8050 C   0  0  0  0  0  0  0  0  0  0  0  0
  186.5460  178.4990  141.5240 N   0  0  0  0  0  2  0  0  0  0  0  0
  188.0160  177.1870  142.7210 C   0  0  0  0  0  0  0  0  0  0  0  0
  188.8730  178.5250  139.2310 C   0  0  0  0  0  3  0  0  0  0  0  0
  190.1950  178.0910  138.7500 N   0  0  0  0  0  0  0  0  0  0  0  0
  186.8110  177.3360  143.5940 C   0  0  2  0  0  3  0  0  0  0  0  0
  192.1310  176.7530  139.4460 C   0  0  0  0  0  1  0  0  0  0  0  0
  189.2070  176.4650  142.9270 C   0  0  0  0  0  2  0  0  0  0  0  0
  187.8180  177.8900  141.5560 C   0  0  0  0  0  0  0  0  0  0  0  0
  185.9290  178.1510  142.7380 N   0  0  0  0  0  0  0  0  0  0  0  0
  190.7820  177.3490  139.6390 C   0  0  0  0  0  0  0  0  0  0  0  0
  181.8190  178.9200  143.4660 C   0  0  0  0  0  0  0  0  0  0  0  0
  183.6180  178.3980  141.9330 C   0  0  0  0  0  3  0  0  0  0  0  0
  182.2630  178.6470  142.1690 C   0  0  0  0  0  3  0  0  0  0  0  0
  184.5400  178.4170  142.9900 C   0  0  0  0  0  0  0  0  0  0  0  0
  182.7290  178.9280  144.5280 C   0  0  0  0  0  3  0  0  0  0  0  0
  184.0840  178.6780  144.2900 C   0  0  0  0  0  3  0  0  0  0  0  0
  180.3740  179.1620  143.7230 C   0  0  0  0  0  2  0  0  0  0  0  0
  179.7070  177.9440  143.8480 O   0  0  0  0  0  1  0  0  0  0  0  0
  187.1810  178.1190  144.8500 C   0  0  1  0  0  3  0  0  0  0  0  0
  186.4800  177.5290  146.0580 C   0  0  0  0  0  2  0  0  0  0  0  0
  187.9400  177.2180  145.8090 C   0  0  2  0  0  3  0  0  0  0  0  0
  190.2630  176.2890  147.2270 N   0  0  0  0  0  2  0  0  0  0  0  0
  189.9080  177.5250  147.3600 C   0  0  0  0  0  3  0  0  0  0  0  0
  188.7630  178.0410  146.6800 N   0  0  0  0  0  2  0  0  0  0  0  0
  1 10  1  0  0  0  0
  2  3  1  0  0  0  0
  2 11  1  0  0  0  0
  3  1  2  0  0  0  0
  4 11  1  0  0  0  0
  4 12  1  0  0  0  0
  5 10  1  0  0  0  0
  6  2  2  0  0  0  0
  7  6  1  0  0  0  0
  7 13  2  0  0  0  0
  8  5  1  6  0  0  0
  8 22  1  0  0  0  0
  9 13  1  0  0  0  0
 11  5  2  0  0  0  0
 12 17  1  0  0  0  0
 12  8  1  0  0  0  0
 13  3  1  0  0  0  0
 14 20  1  0  0  0  0
 14 18  1  0  0  0  0
 15 16  1  0  0  0  0
 15 17  2  0  0  0  0
 16 14  2  0  0  0  0
 17 19  1  0  0  0  0
 19 18  2  0  0  0  0
 20 21  1  0  0  0  0
 22 24  1  0  0  0  0
 22 23  1  1  0  0  0
 24 23  1  0  0  0  0
 24 27  1  1  0  0  0
 25 26  2  0  0  0  0
 27 26  1  0  0  0  0
M  END
>  <MODEL>
2

>  <REMARK>
 VINA RESULT:      -8.2      3.313      6.531
  Name = 
  4 active torsions:
  status: ('A' for Active; 'I' for Inactive)
    1  A    between atoms: C_2  and  C_4
    2  A    between atoms: C_6  and  C_14
    3  A    between atoms: N_18  and  C_25
    4  A    between atoms: C_21  and  N_26
                            x       y       z     vdW  Elec       q    Type
                         _______ _______ _______ _____ _____    ______ ____

>  <TORSDO>
F 4

$$$$
=
 OpenBabel11032419513D

 27 31  0  0  1  0  0  0  0  0999 V2000
  188.2230  178.3820  138.3990 N   0  0  0  0  0  0  0  0  0  0  0  0
  189.9800  176.8640  139.0000 C   0  0  0  0  0  0  0  0  0  0  0  0
  189.2330  177.5250  138.0670 C   0  0  0  0  0  0  0  0  0  0  0  0
  190.3510  176.5280  141.4680 N   0  0  0  0  0  2  0  0  0  0  0  0
  188.6780  177.9170  140.7040 C   0  0  0  0  0  0  0  0  0  0  0  0
  191.0070  176.0400  138.3050 C   0  0  0  0  0  3  0  0  0  0  0  0
  190.7350  176.3250  136.8860 N   0  0  0  0  0  0  0  0  0  0  0  0
  188.5860  177.9640  142.1960 C   0  0  2  0  0  3  0  0  0  0  0  0
  189.2310  177.6400  135.4630 C   0  0  0  0  0  1  0  0  0  0  0  0
  187.9280  178.5940  139.7220 C   0  0  0  0  0  2  0  0  0  0  0  0
  189.6940  177.0640  140.3410 C   0  0  0  0  0  0  0  0  0  0  0  0
  189.7030  177.0820  142.5850 N   0  0  0  0  0  0  0  0  0  0  0  0
  189.7440  177.1550  136.7720 C   0  0  0  0  0  0  0  0  0  0  0  0
  191.2490  176.6420  146.5130 C   0  0  0  0  0  0  0  0  0  0  0  0
  191.3500  176.1370  144.1470 C   0  0  0  0  0  3  0  0  0  0  0  0
  191.8640  175.9930  145.4390 C   0  0  0  0  0  3  0  0  0  0  0  0
  190.2180  176.9330  143.9170 C   0  0  0  0  0  0  0  0  0  0  0  0
  190.1300  177.4500  146.2900 C   0  0  0  0  0  3  0  0  0  0  0  0
  189.6160  177.5940  144.9980 C   0  0  0  0  0  3  0  0  0  0  0  0
  191.8090  176.5090  147.8840 C   0  0  0  0  0  2  0  0  0  0  0  0
  193.0100  175.8020  147.8360 O   0  0  0  0  0  1  0  0  0  0  0  0
  187.2630  177.3520  142.6470 C   0  0  1  0  0  3  0  0  0  0  0  0
  186.8570  177.9210  143.9920 C   0  0  0  0  0  2  0  0  0  0  0  0
  186.2010  178.4340  142.7300 C   0  0  2  0  0  3  0  0  0  0  0  0
  184.2220  179.2350  140.8020 N   0  0  0  0  0  2  0  0  0  0  0  0
  183.9450  178.2630  141.6080 C   0  0  0  0  0  3  0  0  0  0  0  0
  184.8900  177.8240  142.5850 N   0  0  0  0  0  2  0  0  0  0  0  0
  1 10  1  0  0  0  0
  2 11  1  0  0  0  0
  3  1  2  0  0  0  0
  3  2  1  0  0  0  0
  4 12  1  0  0  0  0
  6  2  2  0  0  0  0
  7  6  1  0  0  0  0
  8  5  1  6  0  0  0
  8 12  1  0  0  0  0
  8 22  1  0  0  0  0
  9 13  1  0  0  0  0
 10  5  1  0  0  0  0
 11  5  2  0  0  0  0
 11  4  1  0  0  0  0
 12 17  1  0  0  0  0
 13  7  2  0  0  0  0
 13  3  1  0  0  0  0
 14 20  1  0  0  0  0
 15 16  1  0  0  0  0
 16 14  2  0  0  0  0
 17 15  2  0  0  0  0
 17 19  1  0  0  0  0
 18 14  1  0  0  0  0
 19 18  2  0  0  0  0
 21 20  1  0  0  0  0
 22 24  1  0  0  0  0
 22 23  1  1  0  0  0
 24 27  1  1  0  0  0
 24 23  1  0  0  0  0
 25 26  2  0  0  0  0
 26 27  1  0  0  0  0
M  END
>  <MODEL>
3

>  <REMARK>
 VINA RESULT:      -7.9      1.113      1.161
  Name = 
  4 active torsions:
  status: ('A' for Active; 'I' for Inactive)
    1  A    between atoms: C_2  and  C_4
    2  A    between atoms: C_6  and  C_14
    3  A    between atoms: N_18  and  C_25
    4  A    between atoms: C_21  and  N_26
                            x       y       z     vdW  Elec       q    Type
                         _______ _______ _______ _____ _____    ______ ____

>  <TORSDO>
F 4

$$$$
=
 OpenBabel11032419513D

 27 31  0  0  1  0  0  0  0  0999 V2000
  187.3370  177.2330  145.5160 N   0  0  0  0  0  0  0  0  0  0  0  0
  189.7270  177.4240  145.4210 C   0  0  0  0  0  0  0  0  0  0  0  0
  188.5560  177.3540  146.1210 C   0  0  0  0  0  0  0  0  0  0  0  0
  190.7440  177.3950  143.1180 N   0  0  0  0  0  2  0  0  0  0  0  0
  188.4610  177.2670  143.4020 C   0  0  0  0  0  0  0  0  0  0  0  0
  190.8620  177.5200  146.3800 C   0  0  0  0  0  2  0  0  0  0  0  0
  190.1770  177.4960  147.6840 N   0  0  0  0  0  0  0  0  0  0  0  0
  188.6820  177.2310  141.9230 C   0  0  2  0  0  3  0  0  0  0  0  0
  187.9270  177.3510  148.6510 C   0  0  0  0  0  1  0  0  0  0  0  0
  187.2680  177.1870  144.1470 C   0  0  0  0  0  3  0  0  0  0  0  0
  189.6740  177.3810  144.0370 C   0  0  0  0  0  0  0  0  0  0  0  0
  190.1540  177.2840  141.8470 N   0  0  0  0  0  0  0  0  0  0  0  0
  188.8930  177.4020  147.5210 C   0  0  0  0  0  0  0  0  0  0  0  0
  192.4780  176.6140  138.3590 C   0  0  0  0  0  0  0  0  0  0  0  0
  192.2630  177.5030  140.6020 C   0  0  0  0  0  3  0  0  0  0  0  0
  193.0330  177.2810  139.4560 C   0  0  0  0  0  3  0  0  0  0  0  0
  190.9340  177.0590  140.6630 C   0  0  0  0  0  0  0  0  0  0  0  0
  191.1580  176.1560  138.4170 C   0  0  0  0  0  3  0  0  0  0  0  0
  190.3900  176.3780  139.5640 C   0  0  0  0  0  3  0  0  0  0  0  0
  193.3030  176.3570  137.1490 C   0  0  0  0  0  2  0  0  0  0  0  0
  194.4220  175.5990  137.4930 O   0  0  0  0  0  1  0  0  0  0  0  0
  188.0860  178.4820  141.2850 C   0  0  1  0  0  3  0  0  0  0  0  0
  187.9250  178.2790  139.7910 C   0  0  0  0  0  2  0  0  0  0  0  0
  186.7220  178.1580  140.7000 C   0  0  2  0  0  3  0  0  0  0  0  0
  183.9410  178.2760  139.9780 N   0  0  0  0  0  2  0  0  0  0  0  0
  184.5550  179.3770  140.2610 C   0  0  0  0  0  3  0  0  0  0  0  0
  185.9360  179.3780  140.6260 N   0  0  0  0  0  2  0  0  0  0  0  0
  1  3  1  0  0  0  0
  2  3  2  0  0  0  0
  2  6  1  0  0  0  0
  3 13  1  0  0  0  0
  4 11  1  0  0  0  0
  5 11  2  0  0  0  0
  5 10  1  0  0  0  0
  6  7  1  0  0  0  0
  8  5  1  1  0  0  0
 10  1  2  0  0  0  0
 11  2  1  0  0  0  0
 12  8  1  0  0  0  0
 12  4  1  0  0  0  0
 13  7  2  0  0  0  0
 13  9  1  0  0  0  0
 14 18  2  0  0  0  0
 14 16  1  0  0  0  0
 15 17  1  0  0  0  0
 16 15  2  0  0  0  0
 17 12  1  0  0  0  0
 18 19  1  0  0  0  0
 19 17  2  0  0  0  0
 20 21  1  0  0  0  0
 20 14  1  0  0  0  0
 22 23  1  6  0  0  0
 22  8  1  0  0  0  0
 23 24  1  0  0  0  0
 24 27  1  6  0  0  0
 24 22  1  0  0  0  0
 25 26  2  0  0  0  0
 26 27  1  0  0  0  0
M  END
>  <MODEL>
4

>  <REMARK>
 VINA RESULT:      -7.8      3.087      6.660
  Name = 
  4 active torsions:
  status: ('A' for Active; 'I' for Inactive)
    1  A    between atoms: C_2  and  C_4
    2  A    between atoms: C_6  and  C_14
    3  A    between atoms: N_18  and  C_25
    4  A    between atoms: C_21  and  N_26
                            x       y       z     vdW  Elec       q    Type
                         _______ _______ _______ _____ _____    ______ ____

>  <TORSDO>
F 4

$$$$
=
 OpenBabel11032419513D

 27 31  0  0  1  0  0  0  0  0999 V2000
  187.0460  178.3670  145.5750 N   0  0  0  0  0  0  0  0  0  0  0  0
  186.4120  177.8870  143.3120 C   0  0  0  0  0  0  0  0  0  0  0  0
  186.1040  178.2500  144.5930 C   0  0  0  0  0  0  0  0  0  0  0  0
  188.2870  177.2710  141.7490 N   0  0  0  0  0  2  0  0  0  0  0  0
  188.7020  177.7220  143.9710 C   0  0  0  0  0  0  0  0  0  0  0  0
  185.1660  177.8830  142.4960 C   0  0  0  0  0  3  0  0  0  0  0  0
  184.1440  178.2840  143.4770 N   0  0  0  0  0  0  0  0  0  0  0  0
  190.0340  177.3930  143.3740 C   0  0  2  0  0  3  0  0  0  0  0  0
  183.9100  178.9030  145.8390 C   0  0  0  0  0  1  0  0  0  0  0  0
  188.3610  178.1070  145.2820 C   0  0  0  0  0  2  0  0  0  0  0  0
  187.7350  177.6170  142.9990 C   0  0  0  0  0  0  0  0  0  0  0  0
  189.6710  177.1560  141.9640 N   0  0  0  0  0  0  0  0  0  0  0  0
  184.6840  178.4840  144.6400 C   0  0  0  0  0  0  0  0  0  0  0  0
  192.4030  176.7380  138.7430 C   0  0  0  0  0  0  0  0  0  0  0  0
  190.1990  176.3960  139.6860 C   0  0  0  0  0  3  0  0  0  0  0  0
  191.0950  176.2600  138.6220 C   0  0  0  0  0  3  0  0  0  0  0  0
  190.6010  177.0130  140.8800 C   0  0  0  0  0  0  0  0  0  0  0  0
  192.8080  177.3660  139.9250 C   0  0  0  0  0  3  0  0  0  0  0  0
  191.9110  177.5030  140.9880 C   0  0  0  0  0  3  0  0  0  0  0  0
  193.3500  176.6150  137.6040 C   0  0  0  0  0  2  0  0  0  0  0  0
  194.3190  175.6550  137.8960 O   0  0  0  0  0  1  0  0  0  0  0  0
  190.5690  176.1070  143.9950 C   0  0  1  0  0  3  0  0  0  0  0  0
  192.0180  175.9010  143.5990 C   0  0  0  0  0  2  0  0  0  0  0  0
  191.6820  176.4350  144.9740 C   0  0  2  0  0  3  0  0  0  0  0  0
  192.0560  176.8160  147.8000 N   0  0  0  0  0  2  0  0  0  0  0  0
  191.9740  175.6100  147.3430 C   0  0  0  0  0  3  0  0  0  0  0  0
  191.7890  175.3620  145.9480 N   0  0  0  0  0  2  0  0  0  0  0  0
  2  3  1  0  0  0  0
  3 13  1  0  0  0  0
  3  1  2  0  0  0  0
  4 12  1  0  0  0  0
  4 11  1  0  0  0  0
  5 10  1  0  0  0  0
  6  2  2  0  0  0  0
  6  7  1  0  0  0  0
  7 13  2  0  0  0  0
  8  5  1  1  0  0  0
  8 22  1  0  0  0  0
 10  1  1  0  0  0  0
 11  2  1  0  0  0  0
 11  5  2  0  0  0  0
 12  8  1  0  0  0  0
 13  9  1  0  0  0  0
 14 18  1  0  0  0  0
 15 17  2  0  0  0  0
 16 14  2  0  0  0  0
 16 15  1  0  0  0  0
 17 19  1  0  0  0  0
 17 12  1  0  0  0  0
 18 19  2  0  0  0  0
 20 21  1  0  0  0  0
 20 14  1  0  0  0  0
 22 23  1  6  0  0  0
 22 24  1  0  0  0  0
 23 24  1  0  0  0  0
 24 27  1  1  0  0  0
 26 25  2  0  0  0  0
 27 26  1  0  0  0  0
M  END
>  <MODEL>
5

>  <REMARK>
 VINA RESULT:      -7.7      2.819      6.776
  Name = 
  4 active torsions:
  status: ('A' for Active; 'I' for Inactive)
    1  A    between atoms: C_2  and  C_4
    2  A    between atoms: C_6  and  C_14
    3  A    between atoms: N_18  and  C_25
    4  A    between atoms: C_21  and  N_26
                            x       y       z     vdW  Elec       q    Type
                         _______ _______ _______ _____ _____    ______ ____

>  <TORSDO>
F 4

$$$$
=
 OpenBabel11032419513D

 27 31  0  0  1  0  0  0  0  0999 V2000
  188.2500  177.0220  145.3800 N   0  0  0  0  0  0  0  0  0  0  0  0
  190.2130  177.4930  144.0840 C   0  0  0  0  0  0  0  0  0  0  0  0
  189.5980  177.2070  145.2710 C   0  0  2  0  0  3  0  0  0  0  0  0
  189.8460  177.8530  141.6190 N   0  0  0  0  0  2  0  0  0  0  0  0
  188.0710  177.4330  143.0280 C   0  0  0  0  0  0  0  0  0  0  0  0
  191.6800  177.6030  144.3110 C   0  0  0  0  0  3  0  0  0  0  0  0
  191.7980  177.3460  145.7560 N   0  0  0  0  0  0  0  0  0  0  0  0
  187.4710  177.5980  141.6680 C   0  0  2  0  0  3  0  0  0  0  0  0
  190.4160  176.8330  147.7170 C   0  0  0  0  0  1  0  0  0  0  0  0
  187.4630  177.1310  144.2620 C   0  0  0  0  0  3  0  0  0  0  0  0
  189.4320  177.6090  142.9450 C   0  0  0  0  0  0  0  0  0  0  0  0
  188.6740  177.8270  140.8440 N   0  0  0  0  0  0  0  0  0  0  0  0
  190.6280  177.1270  146.2750 C   0  0  0  0  0  0  0  0  0  0  0  0
  188.7580  177.8340  136.6010 C   0  0  0  0  0  0  0  0  0  0  0  0
  188.3940  176.6700  138.6930 C   0  0  0  0  0  3  0  0  0  0  0  0
  188.4170  176.6700  137.2950 C   0  0  0  0  0  3  0  0  0  0  0  0
  188.7090  177.8340  139.4090 C   0  0  0  0  0  0  0  0  0  0  0  0
  189.0600  179.0030  137.3070 C   0  0  0  0  0  3  0  0  0  0  0  0
  189.0360  179.0020  138.7050 C   0  0  0  0  0  3  0  0  0  0  0  0
  188.7600  177.8420  135.1140 C   0  0  0  0  0  2  0  0  0  0  0  0
  187.4480  177.8740  134.6410 O   0  0  0  0  0  1  0  0  0  0  0  0
  186.5860  178.8400  141.6460 C   0  0  1  0  0  3  0  0  0  0  0  0
  185.4760  178.6710  140.6270 C   0  0  0  0  0  2  0  0  0  0  0  0
  185.1820  178.4760  142.0980 C   0  0  2  0  0  3  0  0  0  0  0  0
  184.2010  178.7600  144.7870 N   0  0  0  0  0  2  0  0  0  0  0  0
  184.0610  179.7500  143.9680 C   0  0  0  0  0  3  0  0  0  0  0  0
  184.5300  179.6650  142.6210 N   0  0  0  0  0  2  0  0  0  0  0  0
  2  6  2  0  0  0  0
  3  2  1  6  0  0  0
  3  1  1  0  0  0  0
  3 13  1  0  0  0  0
  4 11  1  0  0  0  0
  5 10  1  0  0  0  0
  6  7  1  0  0  0  0
  7 13  2  0  0  0  0
  8  5  1  1  0  0  0
 10  1  2  0  0  0  0
 11  5  2  0  0  0  0
 11  2  1  0  0  0  0
 12  4  1  0  0  0  0
 12  8  1  0  0  0  0
 13  9  1  0  0  0  0
 14 16  2  0  0  0  0
 14 18  1  0  0  0  0
 15 17  2  0  0  0  0
 16 15  1  0  0  0  0
 17 12  1  0  0  0  0
 18 19  2  0  0  0  0
 19 17  1  0  0  0  0
 20 14  1  0  0  0  0
 21 20  1  0  0  0  0
 22 23  1  6  0  0  0
 22  8  1  0  0  0  0
 22 24  1  0  0  0  0
 23 24  1  0  0  0  0
 24 27  1  1  0  0  0
 26 25  2  0  0  0  0
 27 26  1  0  0  0  0
M  END
>  <MODEL>
6

>  <REMARK>
 VINA RESULT:      -7.4      3.419      7.113
  Name = 
  4 active torsions:
  status: ('A' for Active; 'I' for Inactive)
    1  A    between atoms: C_2  and  C_4
    2  A    between atoms: C_6  and  C_14
    3  A    between atoms: N_18  and  C_25
    4  A    between atoms: C_21  and  N_26
                            x       y       z     vdW  Elec       q    Type
                         _______ _______ _______ _____ _____    ______ ____

>  <TORSDO>
F 4

$$$$
=
 OpenBabel11032419513D

 27 31  0  0  1  0  0  0  0  0999 V2000
  188.8070  176.6020  144.1900 N   0  0  0  0  0  0  0  0  0  0  0  0
  188.8720  177.5890  142.0050 C   0  0  0  0  0  0  0  0  0  0  0  0
  189.4800  176.9720  143.0610 C   0  0  0  0  0  0  0  0  0  0  0  0
  186.6760  178.4410  141.1140 N   0  0  0  0  0  2  0  0  0  0  0  0
  186.8140  177.5020  143.2150 C   0  0  0  0  0  0  0  0  0  0  0  0
  189.8790  177.8250  140.9340 C   0  0  0  0  0  3  0  0  0  0  0  0
  191.1070  177.2700  141.5270 N   0  0  0  0  0  0  0  0  0  0  0  0
  185.3800  177.8910  143.0440 C   0  0  2  0  0  3  0  0  0  0  0  0
  191.9070  176.1660  143.5670 C   0  0  0  0  0  1  0  0  0  0  0  0
  187.4630  176.8600  144.2870 C   0  0  0  0  0  2  0  0  0  0  0  0
  187.5150  177.8580  142.0870 C   0  0  0  0  0  0  0  0  0  0  0  0
  185.3880  178.4430  141.6760 N   0  0  0  0  0  0  0  0  0  0  0  0
  190.8670  176.7990  142.7110 C   0  0  0  0  0  0  0  0  0  0  0  0
  181.9520  179.4160  139.3830 C   0  0  0  0  0  0  0  0  0  0  0  0
  184.3550  179.4470  139.6840 C   0  0  0  0  0  3  0  0  0  0  0  0
  183.2260  179.7660  138.9240 C   0  0  0  0  0  3  0  0  0  0  0  0
  184.2220  178.7740  140.9070 C   0  0  0  0  0  0  0  0  0  0  0  0
  181.8120  178.7330  140.5950 C   0  0  0  0  0  3  0  0  0  0  0  0
  182.9410  178.4140  141.3540 C   0  0  0  0  0  3  0  0  0  0  0  0
  180.7520  179.7340  138.5640 C   0  0  0  0  0  2  0  0  0  0  0  0
  181.0670  180.7180  137.6280 O   0  0  0  0  0  1  0  0  0  0  0  0
  185.0240  178.9870  144.0440 C   0  0  1  0  0  3  0  0  0  0  0  0
  183.6040  178.7980  144.5410 C   0  0  0  0  0  2  0  0  0  0  0  0
  184.7680  178.3720  145.4080 C   0  0  2  0  0  3  0  0  0  0  0  0
  186.8570  178.2530  147.3820 N   0  0  0  0  0  2  0  0  0  0  0  0
  186.0550  179.2670  147.3880 C   0  0  0  0  0  3  0  0  0  0  0  0
  185.0000  179.3780  146.4320 N   0  0  0  0  0  2  0  0  0  0  0  0
  1 10  1  0  0  0  0
  2 11  1  0  0  0  0
  2  3  1  0  0  0  0
  3  1  2  0  0  0  0
  4 12  1  0  0  0  0
  4 11  1  0  0  0  0
  5 10  1  0  0  0  0
  6  7  1  0  0  0  0
  6  2  2  0  0  0  0
  7 13  2  0  0  0  0
  8  5  1  1  0  0  0
  8 22  1  0  0  0  0
 11  5  2  0  0  0  0
 12  8  1  0  0  0  0
 13  3  1  0  0  0  0
 13  9  1  0  0  0  0
 14 18  1  0  0  0  0
 15 17  2  0  0  0  0
 16 14  2  0  0  0  0
 16 15  1  0  0  0  0
 17 19  1  0  0  0  0
 17 12  1  0  0  0  0
 18 19  2  0  0  0  0
 20 14  1  0  0  0  0
 21 20  1  0  0  0  0
 22 23  1  6  0  0  0
 22 24  1  0  0  0  0
 23 24  1  0  0  0  0
 24 27  1  1  0  0  0
 25 26  2  0  0  0  0
 27 26  1  0  0  0  0
M  END
>  <MODEL>
7

>  <REMARK>
 VINA RESULT:      -7.4      4.247      7.610
  Name = 
  4 active torsions:
  status: ('A' for Active; 'I' for Inactive)
    1  A    between atoms: C_2  and  C_4
    2  A    between atoms: C_6  and  C_14
    3  A    between atoms: N_18  and  C_25
    4  A    between atoms: C_21  and  N_26
                            x       y       z     vdW  Elec       q    Type
                         _______ _______ _______ _____ _____    ______ ____

>  <TORSDO>
F 4

$$$$
=
 OpenBabel11032419513D

 27 31  0  0  1  0  0  0  0  0999 V2000
  187.6730  178.4820  138.0560 N   0  0  0  0  0  0  0  0  0  0  0  0
  189.2600  177.0810  139.1820 C   0  0  0  0  0  0  0  0  0  0  0  0
  188.7280  177.6160  138.0430 C   0  0  0  0  0  0  0  0  0  0  0  0
  189.1020  177.0330  141.6950 N   0  0  0  0  0  2  0  0  0  0  0  0
  187.6310  178.2890  140.4420 C   0  0  0  0  0  0  0  0  0  0  0  0
  190.4100  176.2070  138.8170 C   0  0  0  0  0  3  0  0  0  0  0  0
  190.4440  176.3250  137.3500 N   0  0  0  0  0  0  0  0  0  0  0  0
  187.2260  178.5020  141.8660 C   0  0  2  0  0  3  0  0  0  0  0  0
  189.2760  177.4380  135.5010 C   0  0  0  0  0  1  0  0  0  0  0  0
  187.1060  178.8350  139.2540 C   0  0  0  0  0  2  0  0  0  0  0  0
  188.6980  177.4240  140.4010 C   0  0  0  0  0  0  0  0  0  0  0  0
  188.2340  177.6950  142.5790 N   0  0  0  0  0  0  0  0  0  0  0  0
  189.5000  177.1140  136.9350 C   0  0  0  0  0  0  0  0  0  0  0  0
  188.9080  177.7520  146.7690 C   0  0  0  0  0  0  0  0  0  0  0  0
  189.7500  177.9010  144.5040 C   0  0  0  0  0  3  0  0  0  0  0  0
  189.9750  177.9250  145.8830 C   0  0  0  0  0  3  0  0  0  0  0  0
  188.4560  177.7080  143.9980 C   0  0  0  0  0  0  0  0  0  0  0  0
  187.6130  177.5730  146.2730 C   0  0  0  0  0  3  0  0  0  0  0  0
  187.3890  177.5500  144.8940 C   0  0  0  0  0  3  0  0  0  0  0  0
  189.1420  177.8000  148.2370 C   0  0  0  0  0  2  0  0  0  0  0  0
  187.9230  177.9050  148.9070 O   0  0  0  0  0  1  0  0  0  0  0  0
  185.8360  177.9160  142.0960 C   0  0  1  0  0  3  0  0  0  0  0  0
  185.1060  178.7090  143.1620 C   0  0  0  0  0  2  0  0  0  0  0  0
  184.7800  178.9330  141.7030 C   0  0  2  0  0  3  0  0  0  0  0  0
  183.2000  179.4220  139.3500 N   0  0  0  0  0  2  0  0  0  0  0  0
  182.8040  178.5190  140.1850 C   0  0  0  0  0  3  0  0  0  0  0  0
  183.5490  178.2340  141.3700 N   0  0  0  0  0  2  0  0  0  0  0  0
  1 10  1  0  0  0  0
  2 11  1  0  0  0  0
  3  1  2  0  0  0  0
  3  2  1  0  0  0  0
  4 12  1  0  0  0  0
  6  2  2  0  0  0  0
  7  6  1  0  0  0  0
  8  5  1  6  0  0  0
  8 22  1  0  0  0  0
  8 12  1  0  0  0  0
  9 13  1  0  0  0  0
 10  5  1  0  0  0  0
 11  5  2  0  0  0  0
 11  4  1  0  0  0  0
 12 17  1  0  0  0  0
 13  7  2  0  0  0  0
 13  3  1  0  0  0  0
 14 20  1  0  0  0  0
 15 16  1  0  0  0  0
 16 14  2  0  0  0  0
 17 15  2  0  0  0  0
 17 19  1  0  0  0  0
 18 14  1  0  0  0  0
 19 18  2  0  0  0  0
 20 21  1  0  0  0  0
 22 23  1  1  0  0  0
 24 27  1  1  0  0  0
 24 22  1  0  0  0  0
 24 23  1  0  0  0  0
 25 26  2  0  0  0  0
 26 27  1  0  0  0  0
M  END
>  <MODEL>
8

>  <REMARK>
 VINA RESULT:      -7.3      2.115      2.765
  Name = 
  4 active torsions:
  status: ('A' for Active; 'I' for Inactive)
    1  A    between atoms: C_2  and  C_4
    2  A    between atoms: C_6  and  C_14
    3  A    between atoms: N_18  and  C_25
    4  A    between atoms: C_21  and  N_26
                            x       y       z     vdW  Elec       q    Type
                         _______ _______ _______ _____ _____    ______ ____

>  <TORSDO>
F 4

$$$$
=
 OpenBabel11032419513D

 27 31  0  0  1  0  0  0  0  0999 V2000
  183.0450  179.4420  144.5520 N   0  0  0  0  0  0  0  0  0  0  0  0
  183.2230  178.4960  142.3550 C   0  0  0  0  0  0  0  0  0  0  0  0
  182.4890  179.0330  143.3750 C   0  0  0  0  0  0  0  0  0  0  0  0
  185.5450  177.8680  141.6100 N   0  0  0  0  0  2  0  0  0  0  0  0
  185.1760  178.7500  143.7070 C   0  0  0  0  0  0  0  0  0  0  0  0
  182.3180  178.1870  141.2140 C   0  0  0  0  0  3  0  0  0  0  0  0
  181.0050  178.6150  141.7270 N   0  0  0  0  0  0  0  0  0  0  0  0
  186.6490  178.5000  143.6320 C   0  0  2  0  0  3  0  0  0  0  0  0
  179.9680  179.6000  143.7190 C   0  0  0  0  0  1  0  0  0  0  0  0
  184.3980  179.3090  144.7390 C   0  0  0  0  0  2  0  0  0  0  0  0
  184.5910  178.3520  142.5280 C   0  0  0  0  0  0  0  0  0  0  0  0
  186.7860  177.9750  142.2600 N   0  0  0  0  0  0  0  0  0  0  0  0
  181.1190  179.0830  142.9310 C   0  0  0  0  0  0  0  0  0  0  0  0
  190.4560  177.3400  140.2250 C   0  0  0  0  0  0  0  0  0  0  0  0
  188.9670  176.8550  142.0720 C   0  0  0  0  0  3  0  0  0  0  0  0
  190.1750  176.6400  141.4020 C   0  0  0  0  0  3  0  0  0  0  0  0
  188.0280  177.7680  141.5700 C   0  0  0  0  0  0  0  0  0  0  0  0
  189.5200  178.2420  139.7100 C   0  0  0  0  0  3  0  0  0  0  0  0
  188.3120  178.4550  140.3810 C   0  0  0  0  0  3  0  0  0  0  0  0
  191.7310  177.0960  139.4990 C   0  0  0  0  0  2  0  0  0  0  0  0
  192.7990  177.6070  140.2350 O   0  0  0  0  0  1  0  0  0  0  0  0
  187.0370  177.4220  144.6400 C   0  0  1  0  0  3  0  0  0  0  0  0
  188.5150  177.5220  144.9650 C   0  0  0  0  0  2  0  0  0  0  0  0
  187.4920  178.0730  145.9340 C   0  0  2  0  0  3  0  0  0  0  0  0
  188.7760  178.2680  148.5010 N   0  0  0  0  0  2  0  0  0  0  0  0
  187.9720  177.2790  148.2830 C   0  0  0  0  0  3  0  0  0  0  0  0
  187.3070  177.1320  147.0270 N   0  0  0  0  0  2  0  0  0  0  0  0
  1 10  1  0  0  0  0
  2 11  1  0  0  0  0
  2  3  1  0  0  0  0
  3  1  2  0  0  0  0
  4 12  1  0  0  0  0
  4 11  1  0  0  0  0
  5 10  1  0  0  0  0
  6  7  1  0  0  0  0
  6  2  2  0  0  0  0
  7 13  2  0  0  0  0
  8  5  1  1  0  0  0
  8 22  1  0  0  0  0
 11  5  2  0  0  0  0
 12  8  1  0  0  0  0
 13  3  1  0  0  0  0
 13  9  1  0  0  0  0
 14 16  1  0  0  0  0
 16 15  2  0  0  0  0
 17 15  1  0  0  0  0
 17 12  1  0  0  0  0
 18 14  2  0  0  0  0
 18 19  1  0  0  0  0
 19 17  2  0  0  0  0
 20 14  1  0  0  0  0
 20 21  1  0  0  0  0
 22 23  1  6  0  0  0
 22 24  1  0  0  0  0
 23 24  1  0  0  0  0
 24 27  1  1  0  0  0
 26 25  2  0  0  0  0
 27 26  1  0  0  0  0
M  END
>  <MODEL>
9

>  <REMARK>
 VINA RESULT:      -7.1      3.294      6.705
  Name = 
  4 active torsions:
  status: ('A' for Active; 'I' for Inactive)
    1  A    between atoms: C_2  and  C_4
    2  A    between atoms: C_6  and  C_14
    3  A    between atoms: N_18  and  C_25
    4  A    between atoms: C_21  and  N_26
                            x       y       z     vdW  Elec       q    Type
                         _______ _______ _______ _____ _____    ______ ____

>  <TORSDO>
F 4

$$$$
