=
 OpenBabel11042410523D

 26 26  0  0  1  0  0  0  0  0999 V2000
  189.1450  177.5360  142.6630 N   0  0  0  0  0  0  0  0  0  0  0  0
  188.2440  177.8620  141.7910 C   0  0  0  0  0  3  0  0  0  0  0  0
  184.3170  179.0710  142.9650 C   0  0  0  0  0  3  0  0  0  0  0  0
  186.2880  178.6340  139.8350 N   0  0  0  0  0  1  0  0  0  0  0  0
  183.7480  179.4260  140.6840 F   0  0  0  0  0  0  0  0  0  0  0  0
  186.8910  178.2730  142.1930 C   0  0  0  0  0  0  0  0  0  0  0  0
  185.9470  178.6510  141.2210 C   0  0  0  0  0  0  0  0  0  0  0  0
  186.5310  178.2990  143.5480 C   0  0  0  0  0  3  0  0  0  0  0  0
  184.6630  179.0500  141.6130 C   0  0  0  0  0  0  0  0  0  0  0  0
  185.2420  178.6810  143.9410 C   0  0  0  0  0  0  0  0  0  0  0  0
  185.6560  179.7050  146.0380 F   0  0  0  0  0  0  0  0  0  0  0  0
  183.5370  179.0930  145.5270 O   0  0  0  0  0  1  0  0  0  0  0  0
  184.8840  178.7510  145.3980 C   0  0  0  0  0  0  0  0  0  0  0  0
  185.1020  177.5280  146.0070 F   0  0  0  0  0  0  0  0  0  0  0  0
  190.4760  177.1340  142.3070 C   0  0  0  0  0  3  0  0  0  0  0  0
  191.5580  177.5940  142.8710 N   0  0  0  0  0  0  0  0  0  0  0  0
  191.6410  177.8520  145.3350 N   0  0  0  0  0  2  0  0  0  0  0  0
  191.4970  179.7150  143.9200 N   0  0  0  0  0  2  0  0  0  0  0  0
  191.6450  178.4360  144.0310 C   0  0  0  0  0  0  0  0  0  0  0  0
  191.7660  176.4180  145.5530 C   0  0  0  0  0  2  0  0  0  0  0  0
  191.3570  176.0520  146.9790 C   0  0  1  0  0  3  0  0  0  0  0  0
  192.5340  175.6240  147.8570 C   0  0  0  0  0  2  0  0  0  0  0  0
  192.9240  176.6800  148.7780 N   0  0  0  0  0  1  0  0  0  0  0  0
  190.4810  177.1230  147.6310 C   0  0  0  0  0  2  0  0  0  0  0  0
  188.3260  177.6190  146.5120 C   0  0  0  0  0  1  0  0  0  0  0  0
  188.9990  176.7860  147.5820 C   0  0  0  0  0  2  0  0  0  0  0  0
  2  6  1  0  0  0  0
  2  1  2  0  0  0  0
  3 10  1  0  0  0  0
  4  7  1  0  0  0  0
  5  9  1  0  0  0  0
  6  8  1  0  0  0  0
  7  9  1  0  0  0  0
  7  6  2  0  0  0  0
  8 10  2  0  0  0  0
  9  3  2  0  0  0  0
 10 13  1  0  0  0  0
 13 12  1  0  0  0  0
 13 14  1  0  0  0  0
 13 11  1  0  0  0  0
 15  1  1  0  0  0  0
 15 16  2  0  0  0  0
 16 19  1  0  0  0  0
 17 20  1  0  0  0  0
 18 19  2  0  0  0  0
 19 17  1  0  0  0  0
 21 20  1  6  0  0  0
 21 24  1  0  0  0  0
 21 22  1  0  0  0  0
 22 23  1  0  0  0  0
 25 26  1  0  0  0  0
 26 24  1  0  0  0  0
M  END
>  <MODEL>
1

>  <REMARK>
 VINA RESULT:      -7.8      0.000      0.000
  Name = 
  9 active torsions:
  status: ('A' for Active; 'I' for Inactive)
    1  A    between atoms: C_3  and  C_24
    2  A    between atoms: N_5  and  C_17
    3  A    between atoms: C_6  and  C_18
    4  A    between atoms: C_6  and  C_24
    5  A    between atoms: C_7  and  N_10
    6  A    between atoms: C_13  and  C_21
    7  A    between atoms: C_17  and  C_24
    8  A    between atoms: C_19  and  C_22
    9  A    between atoms: C_23  and  N_26
                            x       y       z     vdW  Elec       q    Type
                         _______ _______ _______ _____ _____    ______ ____

>  <TORSDO>
F 9

$$$$
=
 OpenBabel11042410523D

 26 26  0  0  1  0  0  0  0  0999 V2000
  190.3380  178.3780  144.0640 N   0  0  0  0  0  0  0  0  0  0  0  0
  189.9850  177.6310  145.0620 C   0  0  0  0  0  3  0  0  0  0  0  0
  186.3480  178.2990  147.2030 C   0  0  0  0  0  3  0  0  0  0  0  0
  189.8930  177.4150  147.9240 N   0  0  0  0  0  1  0  0  0  0  0  0
  187.4750  177.8520  149.2490 F   0  0  0  0  0  0  0  0  0  0  0  0
  188.7360  177.8660  145.8010 C   0  0  0  0  0  0  0  0  0  0  0  0
  188.7100  177.7530  147.2020 C   0  0  0  0  0  0  0  0  0  0  0  0
  187.5580  178.1980  145.1150 C   0  0  0  0  0  3  0  0  0  0  0  0
  187.5130  177.9680  147.8980 C   0  0  0  0  0  0  0  0  0  0  0  0
  186.3650  178.4320  145.8100 C   0  0  0  0  0  0  0  0  0  0  0  0
  184.8680  177.7780  144.0930 F   0  0  0  0  0  0  0  0  0  0  0  0
  184.0270  178.7560  145.9530 O   0  0  0  0  0  1  0  0  0  0  0  0
  185.1000  178.7390  145.0620 C   0  0  0  0  0  0  0  0  0  0  0  0
  185.1940  179.9730  144.4420 F   0  0  0  0  0  0  0  0  0  0  0  0
  191.5470  178.1750  143.3180 C   0  0  0  0  0  3  0  0  0  0  0  0
  191.7450  177.1830  142.4950 N   0  0  0  0  0  0  0  0  0  0  0  0
  190.1320  176.3940  140.7880 N   0  0  0  0  0  2  0  0  0  0  0  0
  190.3300  175.3220  142.8620 N   0  0  0  0  0  2  0  0  0  0  0  0
  190.7820  176.2180  142.0480 C   0  0  0  0  0  0  0  0  0  0  0  0
  190.5500  177.4010  139.8230 C   0  0  0  0  0  2  0  0  0  0  0  0
  189.3550  178.2370  139.3650 C   0  0  1  0  0  3  0  0  0  0  0  0
  189.2170  178.3150  137.8430 C   0  0  0  0  0  2  0  0  0  0  0  0
  188.8450  179.6530  137.4100 N   0  0  0  0  0  1  0  0  0  0  0  0
  188.0560  177.8360  140.0660 C   0  0  0  0  0  2  0  0  0  0  0  0
  186.2930  178.9430  141.4090 C   0  0  0  0  0  1  0  0  0  0  0  0
  187.7780  178.6620  141.3120 C   0  0  0  0  0  2  0  0  0  0  0  0
  1  2  2  0  0  0  0
  2  6  1  0  0  0  0
  3  9  1  0  0  0  0
  6  7  1  0  0  0  0
  7  9  2  0  0  0  0
  7  4  1  0  0  0  0
  8  6  2  0  0  0  0
  8 10  1  0  0  0  0
  9  5  1  0  0  0  0
 10  3  2  0  0  0  0
 11 13  1  0  0  0  0
 13 10  1  0  0  0  0
 13 12  1  0  0  0  0
 14 13  1  0  0  0  0
 15  1  1  0  0  0  0
 16 15  2  0  0  0  0
 17 19  1  0  0  0  0
 19 16  1  0  0  0  0
 19 18  2  0  0  0  0
 20 17  1  0  0  0  0
 21 22  1  6  0  0  0
 21 20  1  0  0  0  0
 21 24  1  0  0  0  0
 23 22  1  0  0  0  0
 24 26  1  0  0  0  0
 26 25  1  0  0  0  0
M  END
>  <MODEL>
2

>  <REMARK>
 VINA RESULT:      -7.7      2.126      5.950
  Name = 
  9 active torsions:
  status: ('A' for Active; 'I' for Inactive)
    1  A    between atoms: C_3  and  C_24
    2  A    between atoms: N_5  and  C_17
    3  A    between atoms: C_6  and  C_18
    4  A    between atoms: C_6  and  C_24
    5  A    between atoms: C_7  and  N_10
    6  A    between atoms: C_13  and  C_21
    7  A    between atoms: C_17  and  C_24
    8  A    between atoms: C_19  and  C_22
    9  A    between atoms: C_23  and  N_26
                            x       y       z     vdW  Elec       q    Type
                         _______ _______ _______ _____ _____    ______ ____

>  <TORSDO>
F 9

$$$$
=
 OpenBabel11042410523D

 26 26  0  0  1  0  0  0  0  0999 V2000
  189.9920  176.1930  142.6030 N   0  0  0  0  0  0  0  0  0  0  0  0
  190.1540  177.0560  141.6510 C   0  0  0  0  0  3  0  0  0  0  0  0
  186.9300  178.2550  139.1160 C   0  0  0  0  0  3  0  0  0  0  0  0
  190.3330  176.7770  138.7980 N   0  0  0  0  0  1  0  0  0  0  0  0
  188.1890  177.5980  137.2090 F   0  0  0  0  0  0  0  0  0  0  0  0
  189.0440  177.4630  140.7780 C   0  0  0  0  0  0  0  0  0  0  0  0
  189.1510  177.3210  139.3820 C   0  0  0  0  0  0  0  0  0  0  0  0
  187.8710  178.0020  141.3270 C   0  0  0  0  0  3  0  0  0  0  0  0
  188.0920  177.7210  138.5570 C   0  0  0  0  0  0  0  0  0  0  0  0
  186.8040  178.3850  140.5040 C   0  0  0  0  0  0  0  0  0  0  0  0
  185.9200  179.9180  142.0810 F   0  0  0  0  0  0  0  0  0  0  0  0
  184.8560  179.6630  140.1000 O   0  0  0  0  0  1  0  0  0  0  0  0
  185.5730  179.0050  141.1000 C   0  0  0  0  0  0  0  0  0  0  0  0
  184.7700  178.0320  141.6690 F   0  0  0  0  0  0  0  0  0  0  0  0
  191.0520  175.7760  143.4760 C   0  0  0  0  0  3  0  0  0  0  0  0
  191.6600  176.5610  144.3210 N   0  0  0  0  0  0  0  0  0  0  0  0
  190.2150  178.1490  145.5600 N   0  0  0  0  0  2  0  0  0  0  0  0
  191.8050  178.9040  144.0130 N   0  0  0  0  0  2  0  0  0  0  0  0
  191.3050  177.9090  144.6680 C   0  0  0  0  0  0  0  0  0  0  0  0
  189.5670  177.0840  146.3130 C   0  0  0  0  0  2  0  0  0  0  0  0
  188.0540  177.2980  146.3550 C   0  0  1  0  0  3  0  0  0  0  0  0
  187.5680  177.9320  147.6600 C   0  0  0  0  0  2  0  0  0  0  0  0
  188.6490  178.0610  148.6250 N   0  0  0  0  0  1  0  0  0  0  0  0
  187.5280  178.0120  145.1090 C   0  0  0  0  0  2  0  0  0  0  0  0
  185.1920  178.8360  145.0350 C   0  0  0  0  0  1  0  0  0  0  0  0
  186.0900  177.6430  144.7800 C   0  0  0  0  0  2  0  0  0  0  0  0
  1 15  1  0  0  0  0
  2  1  2  0  0  0  0
  3 10  1  0  0  0  0
  4  7  1  0  0  0  0
  5  9  1  0  0  0  0
  6  8  1  0  0  0  0
  6  2  1  0  0  0  0
  7  6  2  0  0  0  0
  9  3  2  0  0  0  0
  9  7  1  0  0  0  0
 10 13  1  0  0  0  0
 10  8  2  0  0  0  0
 12 13  1  0  0  0  0
 13 14  1  0  0  0  0
 13 11  1  0  0  0  0
 15 16  2  0  0  0  0
 16 19  1  0  0  0  0
 17 20  1  0  0  0  0
 18 19  2  0  0  0  0
 19 17  1  0  0  0  0
 20 21  1  0  0  0  0
 21 24  1  6  0  0  0
 21 22  1  0  0  0  0
 22 23  1  0  0  0  0
 26 25  1  0  0  0  0
 26 24  1  0  0  0  0
M  END
>  <MODEL>
3

>  <REMARK>
 VINA RESULT:      -7.3      2.506      3.737
  Name = 
  9 active torsions:
  status: ('A' for Active; 'I' for Inactive)
    1  A    between atoms: C_3  and  C_24
    2  A    between atoms: N_5  and  C_17
    3  A    between atoms: C_6  and  C_18
    4  A    between atoms: C_6  and  C_24
    5  A    between atoms: C_7  and  N_10
    6  A    between atoms: C_13  and  C_21
    7  A    between atoms: C_17  and  C_24
    8  A    between atoms: C_19  and  C_22
    9  A    between atoms: C_23  and  N_26
                            x       y       z     vdW  Elec       q    Type
                         _______ _______ _______ _____ _____    ______ ____

>  <TORSDO>
F 9

$$$$
=
 OpenBabel11042410523D

 26 26  0  0  1  0  0  0  0  0999 V2000
  188.9520  177.5850  142.1530 N   0  0  0  0  0  0  0  0  0  0  0  0
  188.0570  177.1630  142.9890 C   0  0  0  0  0  3  0  0  0  0  0  0
  184.1380  178.8600  143.1450 C   0  0  0  0  0  3  0  0  0  0  0  0
  186.8070  177.7700  145.5030 N   0  0  0  0  0  1  0  0  0  0  0  0
  184.2380  178.8640  145.5200 F   0  0  0  0  0  0  0  0  0  0  0  0
  186.7120  177.7520  143.0450 C   0  0  0  0  0  0  0  0  0  0  0  0
  186.1140  178.0400  144.2850 C   0  0  0  0  0  0  0  0  0  0  0  0
  186.0090  178.0270  141.8620 C   0  0  0  0  0  3  0  0  0  0  0  0
  184.8270  178.5920  144.3290 C   0  0  0  0  0  0  0  0  0  0  0  0
  184.7290  178.5950  141.9030 C   0  0  0  0  0  0  0  0  0  0  0  0
  182.6770  179.2540  140.9160 F   0  0  0  0  0  0  0  0  0  0  0  0
  184.6110  179.8290  139.8900 O   0  0  0  0  0  1  0  0  0  0  0  0
  183.9670  178.8390  140.6330 C   0  0  0  0  0  0  0  0  0  0  0  0
  183.9000  177.6790  139.8810 F   0  0  0  0  0  0  0  0  0  0  0  0
  190.2740  177.0310  142.0700 C   0  0  0  0  0  3  0  0  0  0  0  0
  191.2890  177.4450  142.7760 N   0  0  0  0  0  0  0  0  0  0  0  0
  191.2830  177.9140  145.2090 N   0  0  0  0  0  2  0  0  0  0  0  0
  191.0150  179.6320  143.6380 N   0  0  0  0  0  2  0  0  0  0  0  0
  191.2710  178.3850  143.8610 C   0  0  0  0  0  0  0  0  0  0  0  0
  191.5260  176.5190  145.5520 C   0  0  0  0  0  2  0  0  0  0  0  0
  191.0160  176.2130  146.9590 C   0  0  1  0  0  3  0  0  0  0  0  0
  192.0020  176.6050  148.0610 C   0  0  0  0  0  2  0  0  0  0  0  0
  193.1550  175.7180  148.0830 N   0  0  0  0  0  1  0  0  0  0  0  0
  189.6030  176.7490  147.2000 C   0  0  0  0  0  2  0  0  0  0  0  0
  188.1680  177.9840  148.7980 C   0  0  0  0  0  1  0  0  0  0  0  0
  189.5640  177.8760  148.2190 C   0  0  0  0  0  2  0  0  0  0  0  0
  1  2  2  0  0  0  0
  2  6  1  0  0  0  0
  3  9  1  0  0  0  0
  6  7  1  0  0  0  0
  7  9  2  0  0  0  0
  7  4  1  0  0  0  0
  8 10  1  0  0  0  0
  8  6  2  0  0  0  0
  9  5  1  0  0  0  0
 10  3  2  0  0  0  0
 12 13  1  0  0  0  0
 13 11  1  0  0  0  0
 13 10  1  0  0  0  0
 14 13  1  0  0  0  0
 15  1  1  0  0  0  0
 15 16  2  0  0  0  0
 16 19  1  0  0  0  0
 17 20  1  0  0  0  0
 18 19  2  0  0  0  0
 19 17  1  0  0  0  0
 21 20  1  6  0  0  0
 21 24  1  0  0  0  0
 21 22  1  0  0  0  0
 22 23  1  0  0  0  0
 24 26  1  0  0  0  0
 26 25  1  0  0  0  0
M  END
>  <MODEL>
4

>  <REMARK>
 VINA RESULT:      -7.0      1.654      2.968
  Name = 
  9 active torsions:
  status: ('A' for Active; 'I' for Inactive)
    1  A    between atoms: C_3  and  C_24
    2  A    between atoms: N_5  and  C_17
    3  A    between atoms: C_6  and  C_18
    4  A    between atoms: C_6  and  C_24
    5  A    between atoms: C_7  and  N_10
    6  A    between atoms: C_13  and  C_21
    7  A    between atoms: C_17  and  C_24
    8  A    between atoms: C_19  and  C_22
    9  A    between atoms: C_23  and  N_26
                            x       y       z     vdW  Elec       q    Type
                         _______ _______ _______ _____ _____    ______ ____

>  <TORSDO>
F 9

$$$$
=
 OpenBabel11042410523D

 26 26  0  0  1  0  0  0  0  0999 V2000
  189.2140  176.5420  143.3190 N   0  0  0  0  0  0  0  0  0  0  0  0
  189.4510  176.9290  144.5320 C   0  0  0  0  0  3  0  0  0  0  0  0
  186.3330  178.3830  147.0670 C   0  0  0  0  0  3  0  0  0  0  0  0
  189.7520  176.9400  147.3890 N   0  0  0  0  0  1  0  0  0  0  0  0
  187.6620  177.8930  148.9770 F   0  0  0  0  0  0  0  0  0  0  0  0
  188.3820  177.4340  145.4050 C   0  0  0  0  0  0  0  0  0  0  0  0
  188.5460  177.4290  146.8020 C   0  0  0  0  0  0  0  0  0  0  0  0
  187.1860  177.9190  144.8540 C   0  0  0  0  0  3  0  0  0  0  0  0
  187.5180  177.9030  147.6280 C   0  0  0  0  0  0  0  0  0  0  0  0
  186.1650  178.4100  145.6770 C   0  0  0  0  0  0  0  0  0  0  0  0
  184.4450  178.0020  144.0980 F   0  0  0  0  0  0  0  0  0  0  0  0
  183.8990  178.9550  146.0770 O   0  0  0  0  0  1  0  0  0  0  0  0
  184.8710  178.8810  145.0790 C   0  0  0  0  0  0  0  0  0  0  0  0
  185.0310  180.1320  144.5080 F   0  0  0  0  0  0  0  0  0  0  0  0
  190.2330  176.0410  142.4400 C   0  0  0  0  0  3  0  0  0  0  0  0
  190.3290  176.3480  141.1770 N   0  0  0  0  0  0  0  0  0  0  0  0
  189.9370  177.6760  139.1210 N   0  0  0  0  0  2  0  0  0  0  0  0
  188.7290  178.0900  141.0860 N   0  0  0  0  0  2  0  0  0  0  0  0
  189.5770  177.3400  140.4620 C   0  0  0  0  0  0  0  0  0  0  0  0
  190.9090  176.9090  138.3540 C   0  0  0  0  0  2  0  0  0  0  0  0
  190.2810  176.3800  137.0650 C   0  0  1  0  0  3  0  0  0  0  0  0
  189.4720  175.0970  137.2670 C   0  0  0  0  0  2  0  0  0  0  0  0
  190.3390  173.9490  137.4830 N   0  0  0  0  0  1  0  0  0  0  0  0
  189.5140  177.4590  136.3000 C   0  0  0  0  0  2  0  0  0  0  0  0
  187.2050  178.2850  136.6520 C   0  0  0  0  0  1  0  0  0  0  0  0
  188.0390  177.1320  136.1340 C   0  0  0  0  0  2  0  0  0  0  0  0
  1  2  2  0  0  0  0
  2  6  1  0  0  0  0
  3  9  1  0  0  0  0
  6  7  1  0  0  0  0
  7  4  1  0  0  0  0
  7  9  2  0  0  0  0
  8  6  2  0  0  0  0
  8 10  1  0  0  0  0
  9  5  1  0  0  0  0
 10  3  2  0  0  0  0
 11 13  1  0  0  0  0
 13 10  1  0  0  0  0
 13 12  1  0  0  0  0
 14 13  1  0  0  0  0
 15  1  1  0  0  0  0
 16 15  2  0  0  0  0
 17 19  1  0  0  0  0
 19 18  2  0  0  0  0
 19 16  1  0  0  0  0
 20 17  1  0  0  0  0
 21 24  1  1  0  0  0
 21 22  1  0  0  0  0
 21 20  1  0  0  0  0
 22 23  1  0  0  0  0
 26 24  1  0  0  0  0
 26 25  1  0  0  0  0
M  END
>  <MODEL>
5

>  <REMARK>
 VINA RESULT:      -7.0      3.278      6.722
  Name = 
  9 active torsions:
  status: ('A' for Active; 'I' for Inactive)
    1  A    between atoms: C_3  and  C_24
    2  A    between atoms: N_5  and  C_17
    3  A    between atoms: C_6  and  C_18
    4  A    between atoms: C_6  and  C_24
    5  A    between atoms: C_7  and  N_10
    6  A    between atoms: C_13  and  C_21
    7  A    between atoms: C_17  and  C_24
    8  A    between atoms: C_19  and  C_22
    9  A    between atoms: C_23  and  N_26
                            x       y       z     vdW  Elec       q    Type
                         _______ _______ _______ _____ _____    ______ ____

>  <TORSDO>
F 9

$$$$
=
 OpenBabel11042410523D

 26 26  0  0  1  0  0  0  0  0999 V2000
  188.8500  176.1640  143.5640 N   0  0  0  0  0  0  0  0  0  0  0  0
  189.0870  176.7170  144.7120 C   0  0  0  0  0  3  0  0  0  0  0  0
  186.0350  178.7730  146.8820 C   0  0  0  0  0  3  0  0  0  0  0  0
  189.3670  177.2370  147.5220 N   0  0  0  0  0  1  0  0  0  0  0  0
  187.3210  178.5740  148.8720 F   0  0  0  0  0  0  0  0  0  0  0  0
  188.0410  177.4290  145.4590 C   0  0  0  0  0  0  0  0  0  0  0  0
  188.1950  177.6720  146.8360 C   0  0  0  0  0  0  0  0  0  0  0  0
  186.8780  177.8660  144.8080 C   0  0  0  0  0  3  0  0  0  0  0  0
  187.1880  178.3420  147.5420 C   0  0  0  0  0  0  0  0  0  0  0  0
  185.8780  178.5520  145.5090 C   0  0  0  0  0  0  0  0  0  0  0  0
  184.2490  178.0270  143.8690 F   0  0  0  0  0  0  0  0  0  0  0  0
  183.5910  179.1020  145.7490 O   0  0  0  0  0  1  0  0  0  0  0  0
  184.6160  178.9720  144.8120 C   0  0  0  0  0  0  0  0  0  0  0  0
  184.8010  180.1840  144.1700 F   0  0  0  0  0  0  0  0  0  0  0  0
  189.8460  175.4590  142.8090 C   0  0  0  0  0  3  0  0  0  0  0  0
  190.6160  176.0110  141.9130 N   0  0  0  0  0  0  0  0  0  0  0  0
  190.2930  177.9180  140.3640 N   0  0  0  0  0  2  0  0  0  0  0  0
  191.4690  178.1700  142.3750 N   0  0  0  0  0  2  0  0  0  0  0  0
  190.7470  177.4100  141.6200 C   0  0  0  0  0  0  0  0  0  0  0  0
  189.5040  177.1230  139.4330 C   0  0  0  0  0  2  0  0  0  0  0  0
  189.9600  177.3660  137.9960 C   0  0  1  0  0  3  0  0  0  0  0  0
  190.9160  176.2930  137.4720 C   0  0  0  0  0  2  0  0  0  0  0  0
  190.8670  175.0910  138.2910 N   0  0  0  0  0  1  0  0  0  0  0  0
  188.7910  177.6430  137.0490 C   0  0  0  0  0  2  0  0  0  0  0  0
  186.4250  178.0840  137.6370 C   0  0  0  0  0  1  0  0  0  0  0  0
  187.4890  177.0130  137.5170 C   0  0  0  0  0  2  0  0  0  0  0  0
  1  2  2  0  0  0  0
  2  6  1  0  0  0  0
  3  9  1  0  0  0  0
  6  7  1  0  0  0  0
  7  4  1  0  0  0  0
  7  9  2  0  0  0  0
  8  6  2  0  0  0  0
  8 10  1  0  0  0  0
  9  5  1  0  0  0  0
 10  3  2  0  0  0  0
 11 13  1  0  0  0  0
 13 10  1  0  0  0  0
 13 12  1  0  0  0  0
 14 13  1  0  0  0  0
 15  1  1  0  0  0  0
 16 15  2  0  0  0  0
 17 19  1  0  0  0  0
 19 16  1  0  0  0  0
 19 18  2  0  0  0  0
 20 17  1  0  0  0  0
 21 24  1  6  0  0  0
 21 20  1  0  0  0  0
 22 21  1  0  0  0  0
 22 23  1  0  0  0  0
 24 26  1  0  0  0  0
 26 25  1  0  0  0  0
M  END
>  <MODEL>
6

>  <REMARK>
 VINA RESULT:      -7.0      2.767      6.213
  Name = 
  9 active torsions:
  status: ('A' for Active; 'I' for Inactive)
    1  A    between atoms: C_3  and  C_24
    2  A    between atoms: N_5  and  C_17
    3  A    between atoms: C_6  and  C_18
    4  A    between atoms: C_6  and  C_24
    5  A    between atoms: C_7  and  N_10
    6  A    between atoms: C_13  and  C_21
    7  A    between atoms: C_17  and  C_24
    8  A    between atoms: C_19  and  C_22
    9  A    between atoms: C_23  and  N_26
                            x       y       z     vdW  Elec       q    Type
                         _______ _______ _______ _____ _____    ______ ____

>  <TORSDO>
F 9

$$$$
=
 OpenBabel11042410523D

 26 26  0  0  1  0  0  0  0  0999 V2000
  190.2840  178.4390  144.0110 N   0  0  0  0  0  0  0  0  0  0  0  0
  190.0320  177.7250  145.0630 C   0  0  0  0  0  3  0  0  0  0  0  0
  186.4540  178.2500  147.3400 C   0  0  0  0  0  3  0  0  0  0  0  0
  190.0320  177.3910  147.9160 N   0  0  0  0  0  1  0  0  0  0  0  0
  187.6500  177.7360  149.3300 F   0  0  0  0  0  0  0  0  0  0  0  0
  188.8040  177.9110  145.8480 C   0  0  0  0  0  0  0  0  0  0  0  0
  188.8230  177.7400  147.2450 C   0  0  0  0  0  0  0  0  0  0  0  0
  187.6010  178.2530  145.2130 C   0  0  0  0  0  3  0  0  0  0  0  0
  187.6450  177.9090  147.9840 C   0  0  0  0  0  0  0  0  0  0  0  0
  186.4260  178.4400  145.9530 C   0  0  0  0  0  0  0  0  0  0  0  0
  184.9210  177.8770  144.2110 F   0  0  0  0  0  0  0  0  0  0  0  0
  184.0810  178.6520  146.1640 O   0  0  0  0  0  1  0  0  0  0  0  0
  185.1350  178.7580  145.2570 C   0  0  0  0  0  0  0  0  0  0  0  0
  185.1660  180.0450  144.7470 F   0  0  0  0  0  0  0  0  0  0  0  0
  191.4700  178.2820  143.2200 C   0  0  0  0  0  3  0  0  0  0  0  0
  191.6840  177.2870  142.4050 N   0  0  0  0  0  0  0  0  0  0  0  0
  190.0030  176.4160  140.8050 N   0  0  0  0  0  2  0  0  0  0  0  0
  190.4160  175.3360  142.8440 N   0  0  0  0  0  2  0  0  0  0  0  0
  190.7520  176.2670  142.0130 C   0  0  0  0  0  0  0  0  0  0  0  0
  190.2870  177.4580  139.8280 C   0  0  0  0  0  2  0  0  0  0  0  0
  189.8020  177.0410  138.4400 C   0  0  1  0  0  3  0  0  0  0  0  0
  188.7550  177.9900  137.8540 C   0  0  0  0  0  2  0  0  0  0  0  0
  187.9670  178.6250  138.9000 N   0  0  0  0  0  1  0  0  0  0  0  0
  190.9550  176.7510  137.4780 C   0  0  0  0  0  2  0  0  0  0  0  0
  191.0990  174.2950  137.1850 C   0  0  0  0  0  1  0  0  0  0  0  0
  191.7340  175.4990  137.8490 C   0  0  0  0  0  2  0  0  0  0  0  0
  1  2  2  0  0  0  0
  2  6  1  0  0  0  0
  3  9  1  0  0  0  0
  6  7  1  0  0  0  0
  7  4  1  0  0  0  0
  7  9  2  0  0  0  0
  8  6  2  0  0  0  0
  8 10  1  0  0  0  0
  9  5  1  0  0  0  0
 10  3  2  0  0  0  0
 11 13  1  0  0  0  0
 13 10  1  0  0  0  0
 13 12  1  0  0  0  0
 14 13  1  0  0  0  0
 15  1  1  0  0  0  0
 16 15  2  0  0  0  0
 17 19  1  0  0  0  0
 19 16  1  0  0  0  0
 19 18  2  0  0  0  0
 20 17  1  0  0  0  0
 21 24  1  6  0  0  0
 21 20  1  0  0  0  0
 22 21  1  0  0  0  0
 22 23  1  0  0  0  0
 24 26  1  0  0  0  0
 25 26  1  0  0  0  0
M  END
>  <MODEL>
7

>  <REMARK>
 VINA RESULT:      -6.9      2.713      6.463
  Name = 
  9 active torsions:
  status: ('A' for Active; 'I' for Inactive)
    1  A    between atoms: C_3  and  C_24
    2  A    between atoms: N_5  and  C_17
    3  A    between atoms: C_6  and  C_18
    4  A    between atoms: C_6  and  C_24
    5  A    between atoms: C_7  and  N_10
    6  A    between atoms: C_13  and  C_21
    7  A    between atoms: C_17  and  C_24
    8  A    between atoms: C_19  and  C_22
    9  A    between atoms: C_23  and  N_26
                            x       y       z     vdW  Elec       q    Type
                         _______ _______ _______ _____ _____    ______ ____

>  <TORSDO>
F 9

$$$$
=
 OpenBabel11042410523D

 26 26  0  0  1  0  0  0  0  0999 V2000
  189.7280  177.3550  142.7550 N   0  0  0  0  0  0  0  0  0  0  0  0
  189.3080  176.6000  143.7210 C   0  0  0  0  0  3  0  0  0  0  0  0
  187.9520  178.2210  147.4340 C   0  0  0  0  0  3  0  0  0  0  0  0
  190.9990  176.5950  146.0410 N   0  0  0  0  0  1  0  0  0  0  0  0
  190.0340  177.6600  148.4360 F   0  0  0  0  0  0  0  0  0  0  0  0
  188.8450  177.1630  144.9970 C   0  0  0  0  0  0  0  0  0  0  0  0
  189.6870  177.1490  146.1240 C   0  0  0  0  0  0  0  0  0  0  0  0
  187.5590  177.7120  145.1050 C   0  0  0  0  0  3  0  0  0  0  0  0
  189.2340  177.6770  147.3400 C   0  0  0  0  0  0  0  0  0  0  0  0
  187.1110  178.2570  146.3160 C   0  0  0  0  0  0  0  0  0  0  0  0
  184.8250  177.7760  146.7170 F   0  0  0  0  0  0  0  0  0  0  0  0
  185.6690  179.7420  147.4580 O   0  0  0  0  0  1  0  0  0  0  0  0
  185.7150  178.7980  146.4320 C   0  0  0  0  0  0  0  0  0  0  0  0
  185.3300  179.3970  145.2460 F   0  0  0  0  0  0  0  0  0  0  0  0
  190.1840  176.8410  141.4950 C   0  0  0  0  0  3  0  0  0  0  0  0
  189.6280  177.1120  140.3470 N   0  0  0  0  0  0  0  0  0  0  0  0
  188.5680  178.7680  138.8380 N   0  0  0  0  0  2  0  0  0  0  0  0
  187.8250  178.4790  141.0420 N   0  0  0  0  0  2  0  0  0  0  0  0
  188.5930  178.0720  140.0860 C   0  0  0  0  0  0  0  0  0  0  0  0
  189.4240  178.4020  137.7180 C   0  0  0  0  0  2  0  0  0  0  0  0
  188.5870  177.8930  136.5450 C   0  0  1  0  0  3  0  0  0  0  0  0
  188.5520  176.3670  136.4420 C   0  0  0  0  0  2  0  0  0  0  0  0
  189.8280  175.7790  136.8190 N   0  0  0  0  0  1  0  0  0  0  0  0
  187.1980  178.5300  136.4960 C   0  0  0  0  0  2  0  0  0  0  0  0
  185.2230  177.8790  137.8440 C   0  0  0  0  0  1  0  0  0  0  0  0
  186.0760  177.5150  136.6470 C   0  0  0  0  0  2  0  0  0  0  0  0
  1  2  2  0  0  0  0
  2  6  1  0  0  0  0
  4  7  1  0  0  0  0
  6  8  2  0  0  0  0
  6  7  1  0  0  0  0
  7  9  2  0  0  0  0
  8 10  1  0  0  0  0
  9  3  1  0  0  0  0
  9  5  1  0  0  0  0
 10 13  1  0  0  0  0
 10  3  2  0  0  0  0
 13 11  1  0  0  0  0
 13 12  1  0  0  0  0
 14 13  1  0  0  0  0
 15  1  1  0  0  0  0
 16 15  2  0  0  0  0
 17 19  1  0  0  0  0
 19 16  1  0  0  0  0
 19 18  2  0  0  0  0
 20 17  1  0  0  0  0
 21 22  1  1  0  0  0
 21 20  1  0  0  0  0
 22 23  1  0  0  0  0
 24 21  1  0  0  0  0
 24 26  1  0  0  0  0
 26 25  1  0  0  0  0
M  END
>  <MODEL>
8

>  <REMARK>
 VINA RESULT:      -6.8      3.066      7.079
  Name = 
  9 active torsions:
  status: ('A' for Active; 'I' for Inactive)
    1  A    between atoms: C_3  and  C_24
    2  A    between atoms: N_5  and  C_17
    3  A    between atoms: C_6  and  C_18
    4  A    between atoms: C_6  and  C_24
    5  A    between atoms: C_7  and  N_10
    6  A    between atoms: C_13  and  C_21
    7  A    between atoms: C_17  and  C_24
    8  A    between atoms: C_19  and  C_22
    9  A    between atoms: C_23  and  N_26
                            x       y       z     vdW  Elec       q    Type
                         _______ _______ _______ _____ _____    ______ ____

>  <TORSDO>
F 9

$$$$
=
 OpenBabel11042410523D

 26 26  0  0  1  0  0  0  0  0999 V2000
  189.6690  178.2520  144.2450 N   0  0  0  0  0  0  0  0  0  0  0  0
  188.9160  177.7010  145.1440 C   0  0  0  0  0  3  0  0  0  0  0  0
  184.7200  178.4780  145.3550 C   0  0  0  0  0  3  0  0  0  0  0  0
  187.5510  177.7720  147.6700 N   0  0  0  0  0  1  0  0  0  0  0  0
  184.8040  178.2720  147.7220 F   0  0  0  0  0  0  0  0  0  0  0  0
  187.4740  177.9740  145.2190 C   0  0  0  0  0  0  0  0  0  0  0  0
  186.8220  178.0020  146.4650 C   0  0  0  0  0  0  0  0  0  0  0  0
  186.7340  178.2020  144.0490 C   0  0  0  0  0  3  0  0  0  0  0  0
  185.4450  178.2520  146.5270 C   0  0  0  0  0  0  0  0  0  0  0  0
  185.3600  178.4700  144.1100 C   0  0  0  0  0  0  0  0  0  0  0  0
  184.5720  177.5030  142.0950 F   0  0  0  0  0  0  0  0  0  0  0  0
  183.2540  178.9940  143.1730 O   0  0  0  0  0  1  0  0  0  0  0  0
  184.5700  178.6650  142.8490 C   0  0  0  0  0  0  0  0  0  0  0  0
  185.1180  179.6830  142.0880 F   0  0  0  0  0  0  0  0  0  0  0  0
  191.0790  178.0060  144.1410 C   0  0  0  0  0  3  0  0  0  0  0  0
  191.6030  176.9900  143.5130 N   0  0  0  0  0  0  0  0  0  0  0  0
  190.6590  176.3420  141.3150 N   0  0  0  0  0  2  0  0  0  0  0  0
  190.3520  175.0040  143.2140 N   0  0  0  0  0  2  0  0  0  0  0  0
  190.9240  176.0340  142.6840 C   0  0  0  0  0  0  0  0  0  0  0  0
  191.2310  177.5020  140.6460 C   0  0  0  0  0  2  0  0  0  0  0  0
  190.9280  177.4640  139.1490 C   0  0  1  0  0  3  0  0  0  0  0  0
  191.7510  176.4210  138.3900 C   0  0  0  0  0  2  0  0  0  0  0  0
  193.1760  176.7040  138.4730 N   0  0  0  0  0  1  0  0  0  0  0  0
  189.4300  177.3760  138.8550 C   0  0  0  0  0  2  0  0  0  0  0  0
  187.7000  178.2520  140.3980 C   0  0  0  0  0  1  0  0  0  0  0  0
  188.6680  178.6170  139.2920 C   0  0  0  0  0  2  0  0  0  0  0  0
  1  2  2  0  0  0  0
  2  6  1  0  0  0  0
  3  9  1  0  0  0  0
  6  7  1  0  0  0  0
  7  9  2  0  0  0  0
  7  4  1  0  0  0  0
  8 10  1  0  0  0  0
  8  6  2  0  0  0  0
  9  5  1  0  0  0  0
 10  3  2  0  0  0  0
 11 13  1  0  0  0  0
 13 12  1  0  0  0  0
 13 10  1  0  0  0  0
 14 13  1  0  0  0  0
 15  1  1  0  0  0  0
 16 15  2  0  0  0  0
 17 19  1  0  0  0  0
 19 18  2  0  0  0  0
 19 16  1  0  0  0  0
 20 17  1  0  0  0  0
 21 22  1  1  0  0  0
 21 20  1  0  0  0  0
 22 23  1  0  0  0  0
 24 21  1  0  0  0  0
 24 26  1  0  0  0  0
 26 25  1  0  0  0  0
M  END
>  <MODEL>
9

>  <REMARK>
 VINA RESULT:      -6.8      2.476      5.499
  Name = 
  9 active torsions:
  status: ('A' for Active; 'I' for Inactive)
    1  A    between atoms: C_3  and  C_24
    2  A    between atoms: N_5  and  C_17
    3  A    between atoms: C_6  and  C_18
    4  A    between atoms: C_6  and  C_24
    5  A    between atoms: C_7  and  N_10
    6  A    between atoms: C_13  and  C_21
    7  A    between atoms: C_17  and  C_24
    8  A    between atoms: C_19  and  C_22
    9  A    between atoms: C_23  and  N_26
                            x       y       z     vdW  Elec       q    Type
                         _______ _______ _______ _____ _____    ______ ____

>  <TORSDO>
F 9

$$$$
