=
 OpenBabel11032419273D

 36 39  0  0  1  0  0  0  0  0999 V2000
  188.7000  176.7300  142.8460 N   0  0  2  0  0  0  0  0  0  0  0  0
  190.2800  177.5410  144.4260 N   0  0  0  0  0  0  0  0  0  0  0  0
  190.5900  177.9440  142.0530 C   0  0  0  0  0  2  0  0  0  0  0  0
  188.6370  176.6910  141.3890 C   0  0  0  0  0  2  0  0  0  0  0  0
  188.3140  176.9310  145.7190 N   0  0  0  0  0  0  0  0  0  0  0  0
  189.7250  177.1990  145.5540 C   0  0  0  0  0  0  0  0  0  0  0  0
  187.3760  177.0340  143.3890 C   0  0  1  0  0  3  0  0  0  0  0  0
  189.5960  177.8220  143.1800 C   0  0  1  0  0  3  0  0  0  0  0  0
  187.3230  176.8410  144.8750 C   0  0  0  0  0  3  0  0  0  0  0  0
  189.8630  177.4010  140.8440 C   0  0  2  0  0  3  0  0  0  0  0  0
  191.9370  177.1030  146.3410 F   0  0  0  0  0  0  0  0  0  0  0  0
  190.4220  175.7050  147.2510 F   0  0  0  0  0  0  0  0  0  0  0  0
  190.3470  177.9030  147.7230 F   0  0  0  0  0  0  0  0  0  0  0  0
  190.6180  176.9740  146.7350 C   0  0  0  0  0  0  0  0  0  0  0  0
  190.7050  176.4450  140.1440 N   0  0  0  0  0  2  0  0  0  0  0  0
  190.8940  176.4660  138.7250 C   0  0  0  0  0  0  0  0  0  0  0  0
  190.2970  177.3410  138.0380 O   0  0  0  0  0  0  0  0  0  0  0  0
  189.8560  174.1360  137.0230 C   0  0  0  0  0  1  0  0  0  0  0  0
  193.1680  175.6410  138.1990 C   0  0  0  0  0  3  0  0  0  0  0  0
  191.7800  175.4830  138.0470 C   0  0  0  0  0  0  0  0  0  0  0  0
  191.3050  174.4000  137.2590 C   0  0  0  0  0  0  0  0  0  0  0  0
  192.2160  173.5260  136.6570 C   0  0  0  0  0  3  0  0  0  0  0  0
  193.5890  173.7030  136.8230 C   0  0  0  0  0  3  0  0  0  0  0  0
  194.0650  174.7600  137.5940 C   0  0  0  0  0  0  0  0  0  0  0  0
  195.4000  174.9340  137.7580 F   0  0  0  0  0  0  0  0  0  0  0  0
  186.9170  178.3820  143.0410 N   0  0  0  0  0  2  0  0  0  0  0  0
  184.2640  178.8430  146.3230 N   0  0  0  0  0  1  0  0  0  0  0  0
  180.9890  179.0290  142.8210 C   0  0  0  0  0  1  0  0  0  0  0  0
  184.0240  179.0540  144.9360 C   0  0  0  0  0  0  0  0  0  0  0  0
  185.5420  178.7790  143.0480 C   0  0  0  0  0  0  0  0  0  0  0  0
  182.7280  178.6780  140.7560 F   0  0  0  0  0  0  0  0  0  0  0  0
  182.4500  178.8530  143.0640 C   0  0  0  0  0  0  0  0  0  0  0  0
  183.2660  178.6810  142.0040 C   0  0  0  0  0  0  0  0  0  0  0  0
  184.7080  178.3690  142.0870 C   0  0  0  0  0  3  0  0  0  0  0  0
  182.8700  178.7300  144.4360 N   0  0  0  0  0  0  0  0  0  0  0  0
  185.0800  179.7070  144.1150 C   0  0  0  0  0  2  0  0  0  0  0  0
  1  4  1  6  0  0  0
  1  8  1  0  0  0  0
  1  7  1  0  0  0  0
  2  6  2  0  0  0  0
  6  5  1  0  0  0  0
  6 14  1  0  0  0  0
  7 26  1  1  0  0  0
  7  9  1  0  0  0  0
  8  3  1  6  0  0  0
  8  2  1  0  0  0  0
  9  5  2  0  0  0  0
 10 15  1  1  0  0  0
 10  4  1  0  0  0  0
 10  3  1  0  0  0  0
 11 14  1  0  0  0  0
 14 12  1  0  0  0  0
 14 13  1  0  0  0  0
 16 15  1  0  0  0  0
 17 16  2  0  0  0  0
 18 21  1  0  0  0  0
 20 19  1  0  0  0  0
 20 16  1  0  0  0  0
 21 20  2  0  0  0  0
 22 23  2  0  0  0  0
 22 21  1  0  0  0  0
 23 24  1  0  0  0  0
 24 25  1  0  0  0  0
 24 19  2  0  0  0  0
 26 30  1  0  0  0  0
 28 32  1  0  0  0  0
 29 27  1  0  0  0  0
 30 36  1  0  0  0  0
 31 33  1  0  0  0  0
 32 35  1  0  0  0  0
 33 34  1  0  0  0  0
 33 32  2  0  0  0  0
 34 30  2  0  0  0  0
 35 29  2  0  0  0  0
 36 29  1  0  0  0  0
M  END
>  <MODEL>
1

>  <REMARK>
 VINA RESULT:      -8.9      0.000      0.000
  Name = 
  5 active torsions:
  status: ('A' for Active; 'I' for Inactive)
    1  A    between atoms: N_5  and  C_31
    2  A    between atoms: C_7  and  C_15
    3  A    between atoms: C_12  and  C_28
    4  A    between atoms: C_13  and  N_33
    5  A    between atoms: C_21  and  N_33
                            x       y       z     vdW  Elec       q    Type
                         _______ _______ _______ _____ _____    ______ ____

>  <TORSDO>
F 5

$$$$
=
 OpenBabel11032419273D

 36 39  0  0  1  0  0  0  0  0999 V2000
  188.4750  176.9040  142.7860 N   0  0  2  0  0  0  0  0  0  0  0  0
  189.9160  177.7570  144.4720 N   0  0  0  0  0  0  0  0  0  0  0  0
  190.3610  178.2040  142.1290 C   0  0  0  0  0  2  0  0  0  0  0  0
  188.5070  176.8810  141.3270 C   0  0  0  0  0  2  0  0  0  0  0  0
  187.8990  177.0510  145.6300 N   0  0  0  0  0  0  0  0  0  0  0  0
  189.3060  177.3780  145.5580 C   0  0  0  0  0  0  0  0  0  0  0  0
  187.1080  177.1470  143.2460 C   0  0  1  0  0  3  0  0  0  0  0  0
  189.3020  178.0270  143.1880 C   0  0  1  0  0  3  0  0  0  0  0  0
  186.9690  176.9330  144.7230 C   0  0  0  0  0  3  0  0  0  0  0  0
  189.7340  177.6480  140.8700 C   0  0  2  0  0  3  0  0  0  0  0  0
  191.4700  177.2860  146.4690 F   0  0  0  0  0  0  0  0  0  0  0  0
  189.8950  175.9200  147.3250 F   0  0  0  0  0  0  0  0  0  0  0  0
  189.8120  178.1280  147.7430 F   0  0  0  0  0  0  0  0  0  0  0  0
  190.1300  177.1750  146.7920 C   0  0  0  0  0  0  0  0  0  0  0  0
  190.6590  176.7360  140.2150 N   0  0  0  0  0  2  0  0  0  0  0  0
  190.7270  176.5850  138.7930 C   0  0  0  0  0  0  0  0  0  0  0  0
  189.9460  177.2570  138.0640 O   0  0  0  0  0  0  0  0  0  0  0  0
  193.7690  176.8640  139.0660 C   0  0  0  0  0  1  0  0  0  0  0  0
  191.1870  174.5920  137.3970 C   0  0  0  0  0  3  0  0  0  0  0  0
  191.7000  175.6560  138.1600 C   0  0  0  0  0  0  0  0  0  0  0  0
  193.1100  175.7810  138.2810 C   0  0  0  0  0  0  0  0  0  0  0  0
  193.9480  174.8560  137.6490 C   0  0  0  0  0  3  0  0  0  0  0  0
  193.4150  173.8090  136.8970 C   0  0  0  0  0  3  0  0  0  0  0  0
  192.0340  173.6770  136.7720 C   0  0  0  0  0  0  0  0  0  0  0  0
  191.5130  172.6610  136.0410 F   0  0  0  0  0  0  0  0  0  0  0  0
  186.6170  178.4790  142.8830 N   0  0  0  0  0  2  0  0  0  0  0  0
  184.0320  178.8770  146.2270 N   0  0  0  0  0  1  0  0  0  0  0  0
  180.6760  179.0350  142.8010 C   0  0  0  0  0  1  0  0  0  0  0  0
  183.7570  179.0930  144.8480 C   0  0  0  0  0  0  0  0  0  0  0  0
  185.2360  178.8550  142.9240 C   0  0  0  0  0  0  0  0  0  0  0  0
  182.3740  178.7260  140.6950 F   0  0  0  0  0  0  0  0  0  0  0  0
  182.1440  178.8810  143.0090 C   0  0  0  0  0  0  0  0  0  0  0  0
  182.9400  178.7280  141.9300 C   0  0  0  0  0  0  0  0  0  0  0  0
  184.3870  178.4390  141.9790 C   0  0  0  0  0  3  0  0  0  0  0  0
  182.5970  178.7550  144.3700 N   0  0  0  0  0  0  0  0  0  0  0  0
  184.7840  179.7680  144.0080 C   0  0  0  0  0  2  0  0  0  0  0  0
  1  4  1  6  0  0  0
  1  8  1  0  0  0  0
  1  7  1  0  0  0  0
  2  6  2  0  0  0  0
  6  5  1  0  0  0  0
  6 14  1  0  0  0  0
  7 26  1  1  0  0  0
  7  9  1  0  0  0  0
  8  3  1  6  0  0  0
  8  2  1  0  0  0  0
  9  5  2  0  0  0  0
 10 15  1  1  0  0  0
 10  4  1  0  0  0  0
 10  3  1  0  0  0  0
 11 14  1  0  0  0  0
 14 12  1  0  0  0  0
 14 13  1  0  0  0  0
 16 15  1  0  0  0  0
 17 16  2  0  0  0  0
 19 20  1  0  0  0  0
 20 21  2  0  0  0  0
 20 16  1  0  0  0  0
 21 18  1  0  0  0  0
 22 21  1  0  0  0  0
 23 22  2  0  0  0  0
 24 23  1  0  0  0  0
 24 19  2  0  0  0  0
 25 24  1  0  0  0  0
 26 30  1  0  0  0  0
 28 32  1  0  0  0  0
 29 27  1  0  0  0  0
 30 36  1  0  0  0  0
 31 33  1  0  0  0  0
 32 35  1  0  0  0  0
 33 34  1  0  0  0  0
 33 32  2  0  0  0  0
 34 30  2  0  0  0  0
 35 29  2  0  0  0  0
 36 29  1  0  0  0  0
M  END
>  <MODEL>
2

>  <REMARK>
 VINA RESULT:      -8.6      0.914      1.470
  Name = 
  5 active torsions:
  status: ('A' for Active; 'I' for Inactive)
    1  A    between atoms: N_5  and  C_31
    2  A    between atoms: C_7  and  C_15
    3  A    between atoms: C_12  and  C_28
    4  A    between atoms: C_13  and  N_33
    5  A    between atoms: C_21  and  N_33
                            x       y       z     vdW  Elec       q    Type
                         _______ _______ _______ _____ _____    ______ ____

>  <TORSDO>
F 5

$$$$
=
 OpenBabel11032419273D

 36 39  0  0  1  0  0  0  0  0999 V2000
  187.9160  177.3000  141.7660 N   0  0  2  0  0  0  0  0  0  0  0  0
  188.3880  178.5260  139.7860 N   0  0  0  0  0  0  0  0  0  0  0  0
  186.8040  179.3770  141.4150 C   0  0  0  0  0  2  0  0  0  0  0  0
  186.9660  177.4520  142.8630 C   0  0  0  0  0  2  0  0  0  0  0  0
  190.1480  176.8590  139.9600 N   0  0  0  0  0  0  0  0  0  0  0  0
  189.3160  177.7950  139.2380 C   0  0  0  0  0  0  0  0  0  0  0  0
  189.2030  176.8420  142.2890 C   0  0  1  0  0  3  0  0  0  0  0  0
  188.0920  178.6240  141.2010 C   0  0  1  0  0  3  0  0  0  0  0  0
  190.1380  176.4290  141.1920 C   0  0  0  0  0  3  0  0  0  0  0  0
  186.1900  178.7370  142.6400 C   0  0  2  0  0  3  0  0  0  0  0  0
  188.4820  177.0920  137.1570 F   0  0  0  0  0  0  0  0  0  0  0  0
  190.7080  177.3670  137.3740 F   0  0  0  0  0  0  0  0  0  0  0  0
  189.3570  179.1630  137.3100 F   0  0  0  0  0  0  0  0  0  0  0  0
  189.4700  177.8570  137.7490 C   0  0  0  0  0  0  0  0  0  0  0  0
  184.7920  178.4220  142.3890 N   0  0  0  0  0  2  0  0  0  0  0  0
  183.7130  179.0850  143.0570 C   0  0  0  0  0  0  0  0  0  0  0  0
  183.9730  179.9740  143.9150 O   0  0  0  0  0  0  0  0  0  0  0  0
  182.6420  178.5950  140.2250 C   0  0  0  0  0  1  0  0  0  0  0  0
  181.4050  178.6490  143.8420 C   0  0  0  0  0  3  0  0  0  0  0  0
  182.2960  178.7480  142.7590 C   0  0  0  0  0  0  0  0  0  0  0  0
  181.7930  178.5230  141.4490 C   0  0  0  0  0  0  0  0  0  0  0  0
  180.4420  178.2090  141.2660 C   0  0  0  0  0  3  0  0  0  0  0  0
  179.5780  178.1170  142.3570 C   0  0  0  0  0  3  0  0  0  0  0  0
  180.0600  178.3370  143.6460 C   0  0  0  0  0  0  0  0  0  0  0  0
  179.2230  178.2490  144.7080 F   0  0  0  0  0  0  0  0  0  0  0  0
  189.8490  177.8360  143.1510 N   0  0  0  0  0  2  0  0  0  0  0  0
  192.0050  176.0100  146.3190 N   0  0  0  0  0  1  0  0  0  0  0  0
  188.2120  177.4570  148.8770 C   0  0  0  0  0  1  0  0  0  0  0  0
  190.8810  176.8800  146.3810 C   0  0  0  0  0  0  0  0  0  0  0  0
  189.6340  177.9220  144.5640 C   0  0  0  0  0  0  0  0  0  0  0  0
  186.8480  178.5690  146.7990 F   0  0  0  0  0  0  0  0  0  0  0  0
  188.7640  177.4370  147.4920 C   0  0  0  0  0  0  0  0  0  0  0  0
  188.0450  178.0000  146.4990 C   0  0  0  0  0  0  0  0  0  0  0  0
  188.3950  177.9490  145.0650 C   0  0  0  0  0  3  0  0  0  0  0  0
  189.9700  176.6780  147.2850 N   0  0  0  0  0  0  0  0  0  0  0  0
  190.8200  178.0420  145.4530 C   0  0  0  0  0  2  0  0  0  0  0  0
  1  7  1  0  0  0  0
  1  4  1  1  0  0  0
  2  8  1  0  0  0  0
  3 10  1  0  0  0  0
  5  9  2  0  0  0  0
  6  2  2  0  0  0  0
  6  5  1  0  0  0  0
  7 26  1  6  0  0  0
  8  3  1  6  0  0  0
  8  1  1  0  0  0  0
  9  7  1  0  0  0  0
 10 15  1  6  0  0  0
 10  4  1  0  0  0  0
 11 14  1  0  0  0  0
 12 14  1  0  0  0  0
 13 14  1  0  0  0  0
 14  6  1  0  0  0  0
 15 16  1  0  0  0  0
 16 17  2  0  0  0  0
 18 21  1  0  0  0  0
 20 16  1  0  0  0  0
 20 19  2  0  0  0  0
 21 20  1  0  0  0  0
 22 21  2  0  0  0  0
 22 23  1  0  0  0  0
 23 24  2  0  0  0  0
 24 19  1  0  0  0  0
 24 25  1  0  0  0  0
 26 30  1  0  0  0  0
 27 29  1  0  0  0  0
 29 35  2  0  0  0  0
 30 34  2  0  0  0  0
 30 36  1  0  0  0  0
 32 28  1  0  0  0  0
 33 31  1  0  0  0  0
 33 32  2  0  0  0  0
 34 33  1  0  0  0  0
 35 32  1  0  0  0  0
 36 29  1  0  0  0  0
M  END
>  <MODEL>
3

>  <REMARK>
 VINA RESULT:      -8.4      3.420      8.818
  Name = 
  5 active torsions:
  status: ('A' for Active; 'I' for Inactive)
    1  A    between atoms: N_5  and  C_31
    2  A    between atoms: C_7  and  C_15
    3  A    between atoms: C_12  and  C_28
    4  A    between atoms: C_13  and  N_33
    5  A    between atoms: C_21  and  N_33
                            x       y       z     vdW  Elec       q    Type
                         _______ _______ _______ _____ _____    ______ ____

>  <TORSDO>
F 5

$$$$
=
 OpenBabel11032419273D

 36 39  0  0  1  0  0  0  0  0999 V2000
  187.7040  177.0140  142.5210 N   0  0  2  0  0  0  0  0  0  0  0  0
  188.3220  178.4510  140.7330 N   0  0  0  0  0  0  0  0  0  0  0  0
  186.6840  179.1620  142.3750 C   0  0  0  0  0  2  0  0  0  0  0  0
  186.7020  177.0710  143.5810 C   0  0  0  0  0  2  0  0  0  0  0  0
  190.0130  176.7050  140.7860 N   0  0  0  0  0  0  0  0  0  0  0  0
  189.2530  177.7550  140.1440 C   0  0  0  0  0  0  0  0  0  0  0  0
  188.9450  176.4450  143.0460 C   0  0  1  0  0  3  0  0  0  0  0  0
  187.9550  178.3890  142.1330 C   0  0  1  0  0  3  0  0  0  0  0  0
  189.9220  176.1310  141.9530 C   0  0  0  0  0  3  0  0  0  0  0  0
  185.9840  178.4040  143.4800 C   0  0  2  0  0  3  0  0  0  0  0  0
  188.6030  177.2200  137.9500 F   0  0  0  0  0  0  0  0  0  0  0  0
  190.7820  177.6400  138.3430 F   0  0  0  0  0  0  0  0  0  0  0  0
  189.2920  179.3240  138.3760 F   0  0  0  0  0  0  0  0  0  0  0  0
  189.4870  177.9900  138.6830 C   0  0  0  0  0  0  0  0  0  0  0  0
  184.5920  178.1780  143.1250 N   0  0  0  0  0  2  0  0  0  0  0  0
  183.5490  179.1090  143.4330 C   0  0  0  0  0  0  0  0  0  0  0  0
  183.8350  180.1710  144.0530 O   0  0  0  0  0  0  0  0  0  0  0  0
  182.6380  178.7790  140.5230 C   0  0  0  0  0  1  0  0  0  0  0  0
  181.1790  178.7540  144.0570 C   0  0  0  0  0  3  0  0  0  0  0  0
  182.1400  178.8520  143.0350 C   0  0  0  0  0  0  0  0  0  0  0  0
  181.7110  178.7000  141.6890 C   0  0  0  0  0  0  0  0  0  0  0  0
  180.3610  178.4580  141.4110 C   0  0  0  0  0  3  0  0  0  0  0  0
  179.4270  178.3650  142.4430 C   0  0  0  0  0  3  0  0  0  0  0  0
  179.8370  178.5130  143.7660 C   0  0  0  0  0  0  0  0  0  0  0  0
  178.9310  178.4240  144.7700 F   0  0  0  0  0  0  0  0  0  0  0  0
  189.5780  177.3010  144.0540 N   0  0  0  0  0  2  0  0  0  0  0  0
  189.0660  178.6880  148.0340 N   0  0  0  0  0  1  0  0  0  0  0  0
  192.8160  175.8030  148.8380 C   0  0  0  0  0  1  0  0  0  0  0  0
  189.8460  177.5980  147.5550 C   0  0  0  0  0  0  0  0  0  0  0  0
  190.1510  176.8060  145.2690 C   0  0  0  0  0  0  0  0  0  0  0  0
  193.1320  174.9870  146.2600 F   0  0  0  0  0  0  0  0  0  0  0  0
  191.9240  176.3060  147.7540 C   0  0  0  0  0  0  0  0  0  0  0  0
  192.1270  175.8700  146.4930 C   0  0  0  0  0  0  0  0  0  0  0  0
  191.4140  176.3690  145.2990 C   0  0  0  0  0  3  0  0  0  0  0  0
  190.9940  177.3470  148.1090 N   0  0  0  0  0  0  0  0  0  0  0  0
  189.2890  176.7340  146.4790 C   0  0  0  0  0  2  0  0  0  0  0  0
  1  7  1  0  0  0  0
  1  4  1  1  0  0  0
  2  8  1  0  0  0  0
  3 10  1  0  0  0  0
  5  9  2  0  0  0  0
  6  2  2  0  0  0  0
  6  5  1  0  0  0  0
  7 26  1  1  0  0  0
  8  3  1  6  0  0  0
  8  1  1  0  0  0  0
  9  7  1  0  0  0  0
 10 15  1  6  0  0  0
 10  4  1  0  0  0  0
 11 14  1  0  0  0  0
 12 14  1  0  0  0  0
 13 14  1  0  0  0  0
 14  6  1  0  0  0  0
 15 16  1  0  0  0  0
 16 17  2  0  0  0  0
 18 21  1  0  0  0  0
 20 16  1  0  0  0  0
 20 19  2  0  0  0  0
 21 20  1  0  0  0  0
 22 21  2  0  0  0  0
 22 23  1  0  0  0  0
 23 24  2  0  0  0  0
 24 19  1  0  0  0  0
 24 25  1  0  0  0  0
 26 30  1  0  0  0  0
 29 27  1  0  0  0  0
 29 35  2  0  0  0  0
 30 34  2  0  0  0  0
 30 36  1  0  0  0  0
 31 33  1  0  0  0  0
 32 35  1  0  0  0  0
 32 28  1  0  0  0  0
 33 32  2  0  0  0  0
 34 33  1  0  0  0  0
 36 29  1  0  0  0  0
M  END
>  <MODEL>
4

>  <REMARK>
 VINA RESULT:      -8.4      3.359      9.272
  Name = 
  5 active torsions:
  status: ('A' for Active; 'I' for Inactive)
    1  A    between atoms: N_5  and  C_31
    2  A    between atoms: C_7  and  C_15
    3  A    between atoms: C_12  and  C_28
    4  A    between atoms: C_13  and  N_33
    5  A    between atoms: C_21  and  N_33
                            x       y       z     vdW  Elec       q    Type
                         _______ _______ _______ _____ _____    ______ ____

>  <TORSDO>
F 5

$$$$
=
 OpenBabel11032419273D

 36 39  0  0  1  0  0  0  0  0999 V2000
  190.1150  176.2530  139.7970 N   0  0  2  0  0  0  0  0  0  0  0  0
  188.7960  177.9650  138.8100 N   0  0  0  0  0  0  0  0  0  0  0  0
  189.9380  178.3480  140.9170 C   0  0  0  0  0  2  0  0  0  0  0  0
  190.8180  176.1050  141.0660 C   0  0  0  0  0  2  0  0  0  0  0  0
  189.1400  176.3130  137.0610 N   0  0  0  0  0  0  0  0  0  0  0  0
  188.4350  177.4090  137.6890 C   0  0  0  0  0  0  0  0  0  0  0  0
  190.9160  175.6720  138.7190 C   0  0  1  0  0  3  0  0  0  0  0  0
  189.9980  177.6800  139.5660 C   0  0  1  0  0  3  0  0  0  0  0  0
  190.1420  175.5690  137.4390 C   0  0  0  0  0  3  0  0  0  0  0  0
  190.6730  177.4030  141.8400 C   0  0  2  0  0  3  0  0  0  0  0  0
  186.7370  176.9230  136.1390 F   0  0  0  0  0  0  0  0  0  0  0  0
  187.3480  179.0750  136.4090 F   0  0  0  0  0  0  0  0  0  0  0  0
  186.1780  178.0300  138.0210 F   0  0  0  0  0  0  0  0  0  0  0  0
  187.1570  177.8670  137.0570 C   0  0  0  0  0  0  0  0  0  0  0  0
  189.8860  177.1660  143.0390 N   0  0  0  0  0  2  0  0  0  0  0  0
  189.9750  177.9930  144.2050 C   0  0  0  0  0  0  0  0  0  0  0  0
  190.7800  178.9660  144.2100 O   0  0  0  0  0  0  0  0  0  0  0  0
  191.0620  176.7700  146.7990 C   0  0  0  0  0  1  0  0  0  0  0  0
  187.7750  178.0680  145.3400 C   0  0  0  0  0  3  0  0  0  0  0  0
  189.1380  177.7310  145.4060 C   0  0  0  0  0  0  0  0  0  0  0  0
  189.6350  177.1630  146.6100 C   0  0  0  0  0  0  0  0  0  0  0  0
  188.7720  176.9550  147.6900 C   0  0  0  0  0  3  0  0  0  0  0  0
  187.4220  177.2970  147.5990 C   0  0  0  0  0  3  0  0  0  0  0  0
  186.9250  177.8540  146.4240 C   0  0  0  0  0  0  0  0  0  0  0  0
  185.6140  178.1870  146.3330 F   0  0  0  0  0  0  0  0  0  0  0  0
  192.1690  176.3990  138.4900 N   0  0  0  0  0  2  0  0  0  0  0  0
  195.3920  173.7070  139.1090 N   0  0  0  0  0  1  0  0  0  0  0  0
  196.8630  175.5150  134.9150 C   0  0  0  0  0  1  0  0  0  0  0  0
  195.0240  174.4130  137.9300 C   0  0  0  0  0  0  0  0  0  0  0  0
  193.1800  175.9680  137.5740 C   0  0  0  0  0  0  0  0  0  0  0  0
  194.8000  177.2620  134.5940 F   0  0  0  0  0  0  0  0  0  0  0  0
  195.7800  175.6250  135.9330 C   0  0  0  0  0  0  0  0  0  0  0  0
  194.7820  176.5090  135.7240 C   0  0  0  0  0  0  0  0  0  0  0  0
  193.7110  176.8220  136.6930 C   0  0  0  0  0  3  0  0  0  0  0  0
  195.9550  174.8770  137.1510 N   0  0  0  0  0  0  0  0  0  0  0  0
  193.5810  174.5360  137.5860 C   0  0  0  0  0  2  0  0  0  0  0  0
  1  4  1  1  0  0  0
  2  8  1  0  0  0  0
  3 10  1  0  0  0  0
  4 10  1  0  0  0  0
  5  9  2  0  0  0  0
  5  6  1  0  0  0  0
  6  2  2  0  0  0  0
  7 26  1  6  0  0  0
  7  1  1  0  0  0  0
  8  1  1  0  0  0  0
  8  3  1  1  0  0  0
  9  7  1  0  0  0  0
 10 15  1  1  0  0  0
 11 14  1  0  0  0  0
 12 14  1  0  0  0  0
 14  6  1  0  0  0  0
 14 13  1  0  0  0  0
 15 16  1  0  0  0  0
 16 17  2  0  0  0  0
 16 20  1  0  0  0  0
 19 20  2  0  0  0  0
 19 24  1  0  0  0  0
 20 21  1  0  0  0  0
 21 18  1  0  0  0  0
 21 22  2  0  0  0  0
 23 22  1  0  0  0  0
 24 23  2  0  0  0  0
 25 24  1  0  0  0  0
 28 32  1  0  0  0  0
 29 27  1  0  0  0  0
 30 36  1  0  0  0  0
 30 26  1  0  0  0  0
 31 33  1  0  0  0  0
 32 35  1  0  0  0  0
 33 32  2  0  0  0  0
 33 34  1  0  0  0  0
 34 30  2  0  0  0  0
 35 29  2  0  0  0  0
 36 29  1  0  0  0  0
M  END
>  <MODEL>
5

>  <REMARK>
 VINA RESULT:      -8.3      3.694     10.312
  Name = 
  5 active torsions:
  status: ('A' for Active; 'I' for Inactive)
    1  A    between atoms: N_5  and  C_31
    2  A    between atoms: C_7  and  C_15
    3  A    between atoms: C_12  and  C_28
    4  A    between atoms: C_13  and  N_33
    5  A    between atoms: C_21  and  N_33
                            x       y       z     vdW  Elec       q    Type
                         _______ _______ _______ _____ _____    ______ ____

>  <TORSDO>
F 5

$$$$
=
 OpenBabel11032419273D

 36 39  0  0  1  0  0  0  0  0999 V2000
  189.1710  176.7450  142.2480 N   0  0  2  0  0  0  0  0  0  0  0  0
  190.7360  177.4080  143.9090 N   0  0  0  0  0  0  0  0  0  0  0  0
  191.1620  177.8600  141.5630 C   0  0  0  0  0  2  0  0  0  0  0  0
  189.1610  176.7520  140.7890 C   0  0  0  0  0  2  0  0  0  0  0  0
  188.6880  176.8860  145.1090 N   0  0  0  0  0  0  0  0  0  0  0  0
  190.1190  177.0690  145.0040 C   0  0  0  0  0  0  0  0  0  0  0  0
  187.8480  177.1160  142.7510 C   0  0  1  0  0  3  0  0  0  0  0  0
  190.1190  177.7680  142.6480 C   0  0  1  0  0  3  0  0  0  0  0  0
  187.7270  176.8840  144.2280 C   0  0  0  0  0  3  0  0  0  0  0  0
  190.4480  177.3990  140.3120 C   0  0  2  0  0  3  0  0  0  0  0  0
  191.8180  175.7210  145.9090 F   0  0  0  0  0  0  0  0  0  0  0  0
  190.1410  176.3740  147.2650 F   0  0  0  0  0  0  0  0  0  0  0  0
  191.6820  177.8660  146.5890 F   0  0  0  0  0  0  0  0  0  0  0  0
  190.9500  176.7550  146.2100 C   0  0  0  0  0  0  0  0  0  0  0  0
  191.2560  176.4120  139.6130 N   0  0  0  0  0  2  0  0  0  0  0  0
  191.3170  176.3260  138.1850 C   0  0  0  0  0  0  0  0  0  0  0  0
  190.6320  177.1260  137.4900 O   0  0  0  0  0  0  0  0  0  0  0  0
  190.2210  173.7710  136.8880 C   0  0  0  0  0  1  0  0  0  0  0  0
  193.5550  175.5540  137.4600 C   0  0  0  0  0  3  0  0  0  0  0  0
  192.1700  175.3150  137.5070 C   0  0  0  0  0  0  0  0  0  0  0  0
  191.6700  174.1290  136.9060 C   0  0  0  0  0  0  0  0  0  0  0  0
  192.5510  173.2360  136.2870 C   0  0  0  0  0  3  0  0  0  0  0  0
  193.9210  173.4950  136.2550 C   0  0  0  0  0  3  0  0  0  0  0  0
  194.4230  174.6540  136.8410 C   0  0  0  0  0  0  0  0  0  0  0  0
  195.7540  174.9080  136.8110 F   0  0  0  0  0  0  0  0  0  0  0  0
  187.4870  178.5000  142.4290 N   0  0  0  0  0  2  0  0  0  0  0  0
  183.7130  178.4570  144.3720 N   0  0  0  0  0  1  0  0  0  0  0  0
  182.1240  179.1660  139.9000 C   0  0  0  0  0  1  0  0  0  0  0  0
  184.0400  178.8750  143.0510 C   0  0  0  0  0  0  0  0  0  0  0  0
  186.2040  178.8900  141.9290 C   0  0  0  0  0  0  0  0  0  0  0  0
  184.5670  179.1330  138.6980 F   0  0  0  0  0  0  0  0  0  0  0  0
  183.3700  178.9570  140.6910 C   0  0  0  0  0  0  0  0  0  0  0  0
  184.5540  178.9480  140.0440 C   0  0  0  0  0  0  0  0  0  0  0  0
  185.8560  178.6290  140.6650 C   0  0  0  0  0  3  0  0  0  0  0  0
  183.2080  178.6290  142.0840 N   0  0  0  0  0  0  0  0  0  0  0  0
  185.2940  179.6450  142.8310 C   0  0  0  0  0  2  0  0  0  0  0  0
  1  4  1  6  0  0  0
  1  8  1  0  0  0  0
  1  7  1  0  0  0  0
  2  6  2  0  0  0  0
  6  5  1  0  0  0  0
  6 14  1  0  0  0  0
  7 26  1  1  0  0  0
  7  9  1  0  0  0  0
  8  3  1  6  0  0  0
  8  2  1  0  0  0  0
  9  5  2  0  0  0  0
 10 15  1  1  0  0  0
 10  4  1  0  0  0  0
 10  3  1  0  0  0  0
 11 14  1  0  0  0  0
 14 13  1  0  0  0  0
 14 12  1  0  0  0  0
 16 15  1  0  0  0  0
 17 16  2  0  0  0  0
 18 21  1  0  0  0  0
 19 20  1  0  0  0  0
 20 16  1  0  0  0  0
 21 20  2  0  0  0  0
 22 21  1  0  0  0  0
 23 22  2  0  0  0  0
 23 24  1  0  0  0  0
 24 19  2  0  0  0  0
 25 24  1  0  0  0  0
 28 32  1  0  0  0  0
 29 27  1  0  0  0  0
 30 26  1  0  0  0  0
 30 36  1  0  0  0  0
 31 33  1  0  0  0  0
 32 35  1  0  0  0  0
 33 34  1  0  0  0  0
 33 32  2  0  0  0  0
 34 30  2  0  0  0  0
 35 29  2  0  0  0  0
 36 29  1  0  0  0  0
M  END
>  <MODEL>
6

>  <REMARK>
 VINA RESULT:      -8.0      1.188      1.379
  Name = 
  5 active torsions:
  status: ('A' for Active; 'I' for Inactive)
    1  A    between atoms: N_5  and  C_31
    2  A    between atoms: C_7  and  C_15
    3  A    between atoms: C_12  and  C_28
    4  A    between atoms: C_13  and  N_33
    5  A    between atoms: C_21  and  N_33
                            x       y       z     vdW  Elec       q    Type
                         _______ _______ _______ _____ _____    ______ ____

>  <TORSDO>
F 5

$$$$
=
 OpenBabel11032419273D

 36 39  0  0  1  0  0  0  0  0999 V2000
  189.5720  176.2090  138.3650 N   0  0  2  0  0  0  0  0  0  0  0  0
  188.0390  177.5890  137.1860 N   0  0  0  0  0  0  0  0  0  0  0  0
  189.2140  178.4360  139.1330 C   0  0  0  0  0  2  0  0  0  0  0  0
  190.3360  176.3500  139.6000 C   0  0  0  0  0  2  0  0  0  0  0  0
  188.4910  175.7070  135.7160 N   0  0  0  0  0  0  0  0  0  0  0  0
  187.6970  176.8180  136.1940 C   0  0  0  0  0  0  0  0  0  0  0  0
  190.3890  175.5370  137.3550 C   0  0  1  0  0  3  0  0  0  0  0  0
  189.2930  177.5580  137.9090 C   0  0  1  0  0  3  0  0  0  0  0  0
  189.5810  175.1420  136.1550 C   0  0  0  0  0  3  0  0  0  0  0  0
  190.0820  177.7390  140.1560 C   0  0  2  0  0  3  0  0  0  0  0  0
  185.9250  175.8520  134.9890 F   0  0  0  0  0  0  0  0  0  0  0  0
  186.4290  178.0120  134.5940 F   0  0  0  0  0  0  0  0  0  0  0  0
  185.4370  177.4270  136.5260 F   0  0  0  0  0  0  0  0  0  0  0  0
  186.3530  177.0320  135.5680 C   0  0  0  0  0  0  0  0  0  0  0  0
  189.3710  177.6320  141.4210 N   0  0  0  0  0  2  0  0  0  0  0  0
  190.0210  177.7540  142.6910 C   0  0  0  0  0  0  0  0  0  0  0  0
  191.2680  177.9480  142.7290 O   0  0  0  0  0  0  0  0  0  0  0  0
  191.3080  177.1280  145.4040 C   0  0  0  0  0  1  0  0  0  0  0  0
  187.8680  177.8700  143.9100 C   0  0  0  0  0  3  0  0  0  0  0  0
  189.2570  177.6580  143.9630 C   0  0  0  0  0  0  0  0  0  0  0  0
  189.8470  177.3660  145.2220 C   0  0  0  0  0  0  0  0  0  0  0  0
  189.0470  177.2990  146.3680 C   0  0  0  0  0  3  0  0  0  0  0  0
  187.6710  177.5130  146.2890 C   0  0  0  0  0  3  0  0  0  0  0  0
  187.0820  177.7980  145.0590 C   0  0  0  0  0  0  0  0  0  0  0  0
  185.7450  178.0060  144.9800 F   0  0  0  0  0  0  0  0  0  0  0  0
  191.5460  176.3360  136.9390 N   0  0  0  0  0  2  0  0  0  0  0  0
  194.9730  177.2180  134.5940 N   0  0  0  0  0  1  0  0  0  0  0  0
  196.8970  173.7140  137.2490 C   0  0  0  0  0  1  0  0  0  0  0  0
  194.8720  176.4400  135.7820 C   0  0  0  0  0  0  0  0  0  0  0  0
  192.9040  175.9230  137.1250 C   0  0  0  0  0  0  0  0  0  0  0  0
  194.6560  173.1550  138.6890 F   0  0  0  0  0  0  0  0  0  0  0  0
  195.6260  174.4580  137.0180 C   0  0  0  0  0  0  0  0  0  0  0  0
  194.5440  174.1380  137.7590 C   0  0  0  0  0  0  0  0  0  0  0  0
  193.1890  174.6920  137.5620 C   0  0  0  0  0  3  0  0  0  0  0  0
  195.6020  175.3730  135.9060 N   0  0  0  0  0  0  0  0  0  0  0  0
  193.9840  176.9150  136.8780 C   0  0  0  0  0  2  0  0  0  0  0  0
  1  4  1  1  0  0  0
  2  8  1  0  0  0  0
  3 10  1  0  0  0  0
  4 10  1  0  0  0  0
  5  9  2  0  0  0  0
  5  6  1  0  0  0  0
  6  2  2  0  0  0  0
  7 26  1  6  0  0  0
  7  1  1  0  0  0  0
  8  1  1  0  0  0  0
  8  3  1  1  0  0  0
  9  7  1  0  0  0  0
 10 15  1  1  0  0  0
 11 14  1  0  0  0  0
 12 14  1  0  0  0  0
 14  6  1  0  0  0  0
 14 13  1  0  0  0  0
 15 16  1  0  0  0  0
 16 17  2  0  0  0  0
 16 20  1  0  0  0  0
 19 20  2  0  0  0  0
 19 24  1  0  0  0  0
 20 21  1  0  0  0  0
 21 18  1  0  0  0  0
 21 22  2  0  0  0  0
 23 22  1  0  0  0  0
 24 23  2  0  0  0  0
 25 24  1  0  0  0  0
 26 30  1  0  0  0  0
 27 29  1  0  0  0  0
 29 35  2  0  0  0  0
 29 36  1  0  0  0  0
 30 34  2  0  0  0  0
 32 28  1  0  0  0  0
 32 33  2  0  0  0  0
 33 31  1  0  0  0  0
 34 33  1  0  0  0  0
 35 32  1  0  0  0  0
 36 30  1  0  0  0  0
M  END
>  <MODEL>
7

>  <REMARK>
 VINA RESULT:      -7.9      3.606     10.448
  Name = 
  5 active torsions:
  status: ('A' for Active; 'I' for Inactive)
    1  A    between atoms: N_5  and  C_31
    2  A    between atoms: C_7  and  C_15
    3  A    between atoms: C_12  and  C_28
    4  A    between atoms: C_13  and  N_33
    5  A    between atoms: C_21  and  N_33
                            x       y       z     vdW  Elec       q    Type
                         _______ _______ _______ _____ _____    ______ ____

>  <TORSDO>
F 5

$$$$
=
 OpenBabel11032419273D

 36 39  0  0  1  0  0  0  0  0999 V2000
  182.8680  178.3030  139.2780 N   0  0  2  0  0  0  0  0  0  0  0  0
  181.4460  176.4090  139.4710 N   0  0  0  0  0  0  0  0  0  0  0  0
  182.1430  177.6330  141.4460 C   0  0  0  0  0  2  0  0  0  0  0  0
  183.5520  179.1710  140.2300 C   0  0  0  0  0  2  0  0  0  0  0  0
  181.4070  177.0200  137.1190 N   0  0  0  0  0  0  0  0  0  0  0  0
  181.2470  176.0990  138.2220 C   0  0  0  0  0  0  0  0  0  0  0  0
  182.3490  179.1010  138.1680 C   0  0  1  0  0  3  0  0  0  0  0  0
  181.7460  177.7260  139.9950 C   0  0  1  0  0  3  0  0  0  0  0  0
  181.8590  178.2410  137.0410 C   0  0  0  0  0  3  0  0  0  0  0  0
  183.1650  178.7330  141.6310 C   0  0  2  0  0  3  0  0  0  0  0  0
  179.9880  174.6370  136.8800 F   0  0  0  0  0  0  0  0  0  0  0  0
  180.4140  174.0290  139.0080 F   0  0  0  0  0  0  0  0  0  0  0  0
  182.0660  174.0080  137.4830 F   0  0  0  0  0  0  0  0  0  0  0  0
  180.9260  174.6720  137.8950 C   0  0  0  0  0  0  0  0  0  0  0  0
  184.3370  178.2130  142.3170 N   0  0  0  0  0  2  0  0  0  0  0  0
  184.8790  178.8170  143.4960 C   0  0  0  0  0  0  0  0  0  0  0  0
  184.3340  179.8560  143.9630 O   0  0  0  0  0  0  0  0  0  0  0  0
  185.1530  178.6240  146.5450 C   0  0  0  0  0  1  0  0  0  0  0  0
  187.1180  177.7660  143.3800 C   0  0  0  0  0  3  0  0  0  0  0  0
  186.0680  178.2450  144.1820 C   0  0  0  0  0  0  0  0  0  0  0  0
  186.2020  178.1540  145.5940 C   0  0  0  0  0  0  0  0  0  0  0  0
  187.3580  177.5970  146.1490 C   0  0  0  0  0  3  0  0  0  0  0  0
  188.3870  177.1290  145.3320 C   0  0  0  0  0  3  0  0  0  0  0  0
  188.2670  177.2140  143.9470 C   0  0  0  0  0  0  0  0  0  0  0  0
  189.2650  176.7610  143.1510 F   0  0  0  0  0  0  0  0  0  0  0  0
  181.2950  180.0310  138.5840 N   0  0  0  0  0  2  0  0  0  0  0  0
  179.8830  180.3510  134.5940 N   0  0  0  0  0  1  0  0  0  0  0  0
  180.8010  185.0040  135.3230 C   0  0  0  0  0  1  0  0  0  0  0  0
  180.1060  181.3780  135.5530 C   0  0  0  0  0  0  0  0  0  0  0  0
  180.9270  181.1990  137.8420 C   0  0  0  0  0  0  0  0  0  0  0  0
  181.7470  184.7350  137.8620 F   0  0  0  0  0  0  0  0  0  0  0  0
  180.8810  183.6680  135.9790 C   0  0  0  0  0  0  0  0  0  0  0  0
  181.3600  183.5920  137.2390 C   0  0  0  0  0  0  0  0  0  0  0  0
  181.6180  182.3360  137.9730 C   0  0  0  0  0  3  0  0  0  0  0  0
  180.5770  182.5230  135.1600 N   0  0  0  0  0  0  0  0  0  0  0  0
  179.7240  181.1320  136.9710 C   0  0  0  0  0  2  0  0  0  0  0  0
  1  8  1  0  0  0  0
  1  4  1  1  0  0  0
  2  8  1  0  0  0  0
  3 10  1  0  0  0  0
  4 10  1  0  0  0  0
  5  6  1  0  0  0  0
  6  2  2  0  0  0  0
  7 26  1  1  0  0  0
  7  1  1  0  0  0  0
  8  3  1  1  0  0  0
  9  5  2  0  0  0  0
  9  7  1  0  0  0  0
 10 15  1  6  0  0  0
 11 14  1  0  0  0  0
 13 14  1  0  0  0  0
 14  6  1  0  0  0  0
 14 12  1  0  0  0  0
 15 16  1  0  0  0  0
 16 17  2  0  0  0  0
 16 20  1  0  0  0  0
 19 24  2  0  0  0  0
 19 20  1  0  0  0  0
 20 21  2  0  0  0  0
 21 22  1  0  0  0  0
 21 18  1  0  0  0  0
 23 22  2  0  0  0  0
 24 23  1  0  0  0  0
 25 24  1  0  0  0  0
 27 29  1  0  0  0  0
 28 32  1  0  0  0  0
 29 36  1  0  0  0  0
 30 34  2  0  0  0  0
 30 26  1  0  0  0  0
 32 33  2  0  0  0  0
 33 31  1  0  0  0  0
 33 34  1  0  0  0  0
 35 29  2  0  0  0  0
 35 32  1  0  0  0  0
 36 30  1  0  0  0  0
M  END
>  <MODEL>
8

>  <REMARK>
 VINA RESULT:      -7.8      5.584      9.706
  Name = 
  5 active torsions:
  status: ('A' for Active; 'I' for Inactive)
    1  A    between atoms: N_5  and  C_31
    2  A    between atoms: C_7  and  C_15
    3  A    between atoms: C_12  and  C_28
    4  A    between atoms: C_13  and  N_33
    5  A    between atoms: C_21  and  N_33
                            x       y       z     vdW  Elec       q    Type
                         _______ _______ _______ _____ _____    ______ ____

>  <TORSDO>
F 5

$$$$
=
 OpenBabel11032419273D

 36 39  0  0  1  0  0  0  0  0999 V2000
  182.3270  178.2160  139.3180 N   0  0  2  0  0  0  0  0  0  0  0  0
  182.6610  180.4910  138.7190 N   0  0  0  0  0  0  0  0  0  0  0  0
  184.4120  179.2430  139.8420 C   0  0  0  0  0  2  0  0  0  0  0  0
  183.0930  177.2350  140.0800 C   0  0  0  0  0  2  0  0  0  0  0  0
  180.7000  179.7680  137.4780 N   0  0  0  0  0  0  0  0  0  0  0  0
  181.5560  180.7630  138.0850 C   0  0  0  0  0  0  0  0  0  0  0  0
  181.7060  177.5680  138.1630 C   0  0  1  0  0  3  0  0  0  0  0  0
  183.2880  179.1910  138.8380 C   0  0  1  0  0  3  0  0  0  0  0  0
  180.7100  178.4630  137.4890 C   0  0  0  0  0  3  0  0  0  0  0  0
  184.4060  177.8760  140.4880 C   0  0  2  0  0  3  0  0  0  0  0  0
  182.1570  183.0200  138.3460 F   0  0  0  0  0  0  0  0  0  0  0  0
  180.1010  182.3810  139.0120 F   0  0  0  0  0  0  0  0  0  0  0  0
  180.5810  182.5050  136.8190 F   0  0  0  0  0  0  0  0  0  0  0  0
  181.0900  182.1860  138.0650 C   0  0  0  0  0  0  0  0  0  0  0  0
  184.4500  178.0090  141.9360 N   0  0  0  0  0  2  0  0  0  0  0  0
  185.6750  178.1130  142.6710 C   0  0  0  0  0  0  0  0  0  0  0  0
  186.7720  178.0740  142.0480 O   0  0  0  0  0  0  0  0  0  0  0  0
  183.3710  179.3770  144.2530 C   0  0  0  0  0  1  0  0  0  0  0  0
  186.8040  177.8050  144.8530 C   0  0  0  0  0  3  0  0  0  0  0  0
  185.6780  178.2690  144.1490 C   0  0  0  0  0  0  0  0  0  0  0  0
  184.6150  178.8550  144.8880 C   0  0  0  0  0  0  0  0  0  0  0  0
  184.7070  178.9570  146.2800 C   0  0  0  0  0  3  0  0  0  0  0  0
  185.8350  178.4900  146.9550 C   0  0  0  0  0  3  0  0  0  0  0  0
  186.8830  177.9140  146.2410 C   0  0  0  0  0  0  0  0  0  0  0  0
  187.9810  177.4600  146.8950 F   0  0  0  0  0  0  0  0  0  0  0  0
  182.6890  177.0870  137.1880 N   0  0  0  0  0  2  0  0  0  0  0  0
  179.7480  174.1970  136.1780 N   0  0  0  0  0  1  0  0  0  0  0  0
  183.4300  171.1800  136.7830 C   0  0  0  0  0  1  0  0  0  0  0  0
  181.1620  174.0540  136.2500 C   0  0  0  0  0  0  0  0  0  0  0  0
  182.8520  175.7080  136.8410 C   0  0  0  0  0  0  0  0  0  0  0  0
  185.2640  173.0690  137.4760 F   0  0  0  0  0  0  0  0  0  0  0  0
  183.0600  172.6220  136.8620 C   0  0  0  0  0  0  0  0  0  0  0  0
  184.0080  173.5160  137.2120 C   0  0  0  0  0  0  0  0  0  0  0  0
  183.7680  174.9530  137.4560 C   0  0  0  0  0  3  0  0  0  0  0  0
  181.6660  172.9440  136.7010 N   0  0  0  0  0  0  0  0  0  0  0  0
  182.0230  175.1540  135.7370 C   0  0  0  0  0  2  0  0  0  0  0  0
  1  4  1  1  0  0  0
  2  8  1  0  0  0  0
  3 10  1  0  0  0  0
  4 10  1  0  0  0  0
  5  9  2  0  0  0  0
  5  6  1  0  0  0  0
  6  2  2  0  0  0  0
  7 26  1  6  0  0  0
  7  1  1  0  0  0  0
  8  1  1  0  0  0  0
  8  3  1  1  0  0  0
  9  7  1  0  0  0  0
 10 15  1  1  0  0  0
 13 14  1  0  0  0  0
 14  6  1  0  0  0  0
 14 11  1  0  0  0  0
 14 12  1  0  0  0  0
 15 16  1  0  0  0  0
 16 20  1  0  0  0  0
 17 16  2  0  0  0  0
 18 21  1  0  0  0  0
 19 24  1  0  0  0  0
 20 19  2  0  0  0  0
 20 21  1  0  0  0  0
 21 22  2  0  0  0  0
 22 23  1  0  0  0  0
 24 25  1  0  0  0  0
 24 23  2  0  0  0  0
 27 29  1  0  0  0  0
 28 32  1  0  0  0  0
 29 35  2  0  0  0  0
 30 26  1  0  0  0  0
 30 34  2  0  0  0  0
 32 33  2  0  0  0  0
 33 34  1  0  0  0  0
 33 31  1  0  0  0  0
 35 32  1  0  0  0  0
 36 29  1  0  0  0  0
 36 30  1  0  0  0  0
M  END
>  <MODEL>
9

>  <REMARK>
 VINA RESULT:      -7.8      5.325     10.066
  Name = 
  5 active torsions:
  status: ('A' for Active; 'I' for Inactive)
    1  A    between atoms: N_5  and  C_31
    2  A    between atoms: C_7  and  C_15
    3  A    between atoms: C_12  and  C_28
    4  A    between atoms: C_13  and  N_33
    5  A    between atoms: C_21  and  N_33
                            x       y       z     vdW  Elec       q    Type
                         _______ _______ _______ _____ _____    ______ ____

>  <TORSDO>
F 5

$$$$
