=
 OpenBabel11042412303D

 31 34  0  0  1  0  0  0  0  0999 V2000
  185.2140  178.3010  142.0690 C   0  0  1  0  0  3  0  0  0  0  0  0
  184.6630  179.1750  142.9880 C   0  0  1  0  0  3  0  0  0  0  0  0
  183.7340  178.4990  142.0330 N   0  0  0  0  0  0  0  0  0  0  0  0
  182.4390  178.2340  141.4990 C   0  0  0  0  0  0  0  0  0  0  0  0
  182.1370  177.2340  140.4430 C   0  0  0  0  0  2  0  0  0  0  0  0
  180.6550  177.4530  140.3360 C   0  0  0  0  0  0  0  0  0  0  0  0
  181.3270  178.8450  141.8580 C   0  0  0  0  0  0  0  0  0  0  0  0
  180.2050  178.3650  141.1360 N   0  0  0  0  0  0  0  0  0  0  0  0
  179.8120  176.7610  139.4670 O   0  0  0  0  0  0  0  0  0  0  0  0
  179.6790  175.3500  139.5220 C   0  0  0  0  0  1  0  0  0  0  0  0
  181.2540  179.8850  142.8310 N   0  0  0  0  0  2  0  0  0  0  0  0
  180.1600  180.6780  142.9100 O   0  0  0  0  0  1  0  0  0  0  0  0
  183.3160  178.9870  145.0680 C   0  0  0  0  0  1  0  0  0  0  0  0
  184.5670  178.5120  144.3570 C   0  0  2  0  0  3  0  0  0  0  0  0
  185.7750  178.8760  145.2090 C   0  0  0  0  0  2  0  0  0  0  0  0
  188.4770  177.8620  147.0820 N   0  0  0  0  0  2  0  0  0  0  0  0
  190.0390  176.4950  143.1490 C   0  0  0  0  0  3  0  0  0  0  0  0
  188.8490  177.5990  145.7460 C   0  0  0  0  0  0  0  0  0  0  0  0
  190.1000  177.7480  145.3130 C   0  0  0  0  0  3  0  0  0  0  0  0
  187.6240  176.6080  143.8120 C   0  0  0  0  0  3  0  0  0  0  0  0
  188.7850  176.0450  143.0930 C   0  0  0  0  0  3  0  0  0  0  0  0
  186.4670  177.6260  145.7520 C   0  0  2  0  0  3  0  0  0  0  0  0
  186.5550  178.9580  147.8090 F   0  0  0  0  0  0  0  0  0  0  0  0
  187.0240  177.8110  147.1880 C   0  0  2  0  0  3  0  0  0  0  0  0
  190.4590  177.7400  143.8630 C   0  0  0  0  0  2  0  0  0  0  0  0
  187.6750  177.3330  144.9350 C   0  0  0  0  0  0  0  0  0  0  0  0
  185.8640  179.0680  140.9230 C   0  0  2  0  0  3  0  0  0  0  0  0
  185.0350  178.9820  139.6800 C   0  0  0  0  0  3  0  0  0  0  0  0
  184.5620  179.9870  139.1780 O   0  0  0  0  0  0  0  0  0  0  0  0
  187.5340  178.5040  139.2780 O   0  0  0  0  0  1  0  0  0  0  0  0
  187.2740  178.5530  140.6500 C   0  0  0  0  0  2  0  0  0  0  0  0
  1 27  1  6  0  0  0
  1  2  1  0  0  0  0
  2 14  1  1  0  0  0
  3  1  1  0  0  0  0
  3  2  1  0  0  0  0
  4  7  2  0  0  0  0
  4  3  1  0  0  0  0
  5  4  1  0  0  0  0
  6  5  1  0  0  0  0
  6  8  2  0  0  0  0
  7 11  1  0  0  0  0
  8  7  1  0  0  0  0
  9 10  1  0  0  0  0
  9  6  1  0  0  0  0
 11 12  1  0  0  0  0
 14 13  1  1  0  0  0
 14 15  1  0  0  0  0
 16 24  1  0  0  0  0
 17 25  1  0  0  0  0
 18 16  1  0  0  0  0
 19 18  2  0  0  0  0
 20 26  2  0  0  0  0
 21 17  2  0  0  0  0
 21 20  1  0  0  0  0
 22 15  1  6  0  0  0
 22 24  1  0  0  0  0
 24 23  1  6  0  0  0
 25 19  1  0  0  0  0
 26 18  1  0  0  0  0
 26 22  1  0  0  0  0
 27 28  1  6  0  0  0
 29 28  2  0  0  0  0
 30 31  1  0  0  0  0
 31 27  1  0  0  0  0
M  END
>  <MODEL>
1

>  <REMARK>
 VINA RESULT:      -8.7      0.000      0.000
  Name = 
  9 active torsions:
  status: ('A' for Active; 'I' for Inactive)
    1  A    between atoms: O_2  and  C_11
    2  A    between atoms: C_4  and  C_25
    3  A    between atoms: C_5  and  C_25
    4  A    between atoms: C_6  and  N_31
    5  A    between atoms: N_7  and  C_20
    6  A    between atoms: C_14  and  C_25
    7  A    between atoms: C_16  and  C_21
    8  A    between atoms: C_18  and  C_21
    9  A    between atoms: C_18  and  C_22
                            x       y       z     vdW  Elec       q    Type
                         _______ _______ _______ _____ _____    ______ ____

>  <TORSDO>
F 9

$$$$
=
 OpenBabel11042412303D

 31 34  0  0  1  0  0  0  0  0999 V2000
  189.4380  178.1110  139.7620 C   0  0  1  0  0  3  0  0  0  0  0  0
  189.5080  177.1240  140.7270 C   0  0  1  0  0  3  0  0  0  0  0  0
  190.4480  177.0280  139.5680 N   0  0  0  0  0  0  0  0  0  0  0  0
  191.5000  176.4000  138.8400 C   0  0  0  0  0  0  0  0  0  0  0  0
  192.9380  176.7570  138.9350 C   0  0  0  0  0  2  0  0  0  0  0  0
  193.4870  175.7670  137.9480 C   0  0  0  0  0  0  0  0  0  0  0  0
  191.3450  175.4190  137.9720 C   0  0  0  0  0  0  0  0  0  0  0  0
  192.5820  175.0160  137.4070 N   0  0  0  0  0  0  0  0  0  0  0  0
  194.8350  175.6400  137.6170 O   0  0  0  0  0  0  0  0  0  0  0  0
  195.2540  174.9930  136.4270 C   0  0  0  0  0  1  0  0  0  0  0  0
  190.0900  174.8460  137.6130 N   0  0  0  0  0  2  0  0  0  0  0  0
  189.9550  173.5060  137.4900 O   0  0  0  0  0  1  0  0  0  0  0  0
  191.0520  176.5070  142.5730 C   0  0  0  0  0  1  0  0  0  0  0  0
  190.2530  177.6350  141.9540 C   0  0  2  0  0  3  0  0  0  0  0  0
  189.2710  178.1590  142.9920 C   0  0  0  0  0  2  0  0  0  0  0  0
  186.4370  177.3010  144.7440 N   0  0  0  0  0  2  0  0  0  0  0  0
  189.1100  177.7340  148.2720 C   0  0  0  0  0  3  0  0  0  0  0  0
  187.3980  177.5910  145.7370 C   0  0  0  0  0  0  0  0  0  0  0  0
  187.0760  178.1830  146.8860 C   0  0  0  0  0  3  0  0  0  0  0  0
  189.8120  177.0130  145.9760 C   0  0  0  0  0  3  0  0  0  0  0  0
  189.8880  177.0270  147.4510 C   0  0  0  0  0  3  0  0  0  0  0  0
  188.6450  177.0170  143.7900 C   0  0  2  0  0  3  0  0  0  0  0  0
  186.6740  177.5800  142.4440 F   0  0  0  0  0  0  0  0  0  0  0  0
  187.1230  176.8550  143.5370 C   0  0  2  0  0  3  0  0  0  0  0  0
  188.1000  178.7400  147.8220 C   0  0  0  0  0  2  0  0  0  0  0  0
  188.7350  177.3190  145.2440 C   0  0  0  0  0  0  0  0  0  0  0  0
  188.2470  177.8750  138.8390 C   0  0  2  0  0  3  0  0  0  0  0  0
  188.4440  178.5560  137.5220 C   0  0  0  0  0  3  0  0  0  0  0  0
  189.0260  179.6260  137.4570 O   0  0  0  0  0  0  0  0  0  0  0  0
  186.0120  178.7240  138.5210 O   0  0  0  0  0  1  0  0  0  0  0  0
  186.9500  178.3510  139.4870 C   0  0  0  0  0  2  0  0  0  0  0  0
  1 27  1  6  0  0  0
  1  2  1  0  0  0  0
  2 14  1  1  0  0  0
  3  1  1  0  0  0  0
  3  2  1  0  0  0  0
  4  5  1  0  0  0  0
  4  3  1  0  0  0  0
  6  5  1  0  0  0  0
  7  4  2  0  0  0  0
  8  6  2  0  0  0  0
  8  7  1  0  0  0  0
  9  6  1  0  0  0  0
 10  9  1  0  0  0  0
 11  7  1  0  0  0  0
 12 11  1  0  0  0  0
 14 13  1  1  0  0  0
 14 15  1  0  0  0  0
 16 18  1  0  0  0  0
 18 19  2  0  0  0  0
 19 25  1  0  0  0  0
 20 21  1  0  0  0  0
 21 17  2  0  0  0  0
 22 15  1  6  0  0  0
 22 26  1  0  0  0  0
 24 23  1  6  0  0  0
 24 22  1  0  0  0  0
 24 16  1  0  0  0  0
 25 17  1  0  0  0  0
 26 18  1  0  0  0  0
 26 20  2  0  0  0  0
 27 28  1  6  0  0  0
 27 31  1  0  0  0  0
 29 28  2  0  0  0  0
 30 31  1  0  0  0  0
M  END
>  <MODEL>
2

>  <REMARK>
 VINA RESULT:      -8.5      4.508      7.900
  Name = 
  9 active torsions:
  status: ('A' for Active; 'I' for Inactive)
    1  A    between atoms: O_2  and  C_11
    2  A    between atoms: C_4  and  C_25
    3  A    between atoms: C_5  and  C_25
    4  A    between atoms: C_6  and  N_31
    5  A    between atoms: N_7  and  C_20
    6  A    between atoms: C_14  and  C_25
    7  A    between atoms: C_16  and  C_21
    8  A    between atoms: C_18  and  C_21
    9  A    between atoms: C_18  and  C_22
                            x       y       z     vdW  Elec       q    Type
                         _______ _______ _______ _____ _____    ______ ____

>  <TORSDO>
F 9

$$$$
=
 OpenBabel11042412303D

 31 34  0  0  1  0  0  0  0  0999 V2000
  188.7210  177.3450  142.1980 C   0  0  1  0  0  3  0  0  0  0  0  0
  188.0400  178.5330  142.0080 C   0  0  1  0  0  3  0  0  0  0  0  0
  188.3840  177.7310  140.7950 N   0  0  0  0  0  0  0  0  0  0  0  0
  188.3860  177.5000  139.3880 C   0  0  0  0  0  0  0  0  0  0  0  0
  187.3360  177.9600  138.4440 C   0  0  0  0  0  2  0  0  0  0  0  0
  187.9110  177.4040  137.1720 C   0  0  0  0  0  0  0  0  0  0  0  0
  189.3150  176.8370  138.7270 C   0  0  0  0  0  0  0  0  0  0  0  0
  189.0270  176.7710  137.3400 N   0  0  0  0  0  0  0  0  0  0  0  0
  187.3270  177.5360  135.9140 O   0  0  0  0  0  0  0  0  0  0  0  0
  185.9300  177.3860  135.7210 C   0  0  0  0  0  1  0  0  0  0  0  0
  190.4580  176.2300  139.3260 N   0  0  0  0  0  2  0  0  0  0  0  0
  191.1350  175.2520  138.6820 O   0  0  0  0  0  1  0  0  0  0  0  0
  185.7160  179.0570  141.2990 C   0  0  0  0  0  1  0  0  0  0  0  0
  186.5630  178.3550  142.3410 C   0  0  2  0  0  3  0  0  0  0  0  0
  186.2510  178.9570  143.7050 C   0  0  0  0  0  2  0  0  0  0  0  0
  185.0860  178.5070  146.9100 N   0  0  0  0  0  2  0  0  0  0  0  0
  189.3090  177.3890  147.7390 C   0  0  0  0  0  3  0  0  0  0  0  0
  186.4780  178.2950  147.0030 C   0  0  0  0  0  0  0  0  0  0  0  0
  187.1860  178.6700  148.0670 C   0  0  0  0  0  3  0  0  0  0  0  0
  188.0990  177.0540  145.5690 C   0  0  0  0  0  3  0  0  0  0  0  0
  189.0830  176.7080  146.6140 C   0  0  0  0  0  3  0  0  0  0  0  0
  185.9170  177.8710  144.7260 C   0  0  2  0  0  3  0  0  0  0  0  0
  183.9030  179.2330  145.0400 F   0  0  0  0  0  0  0  0  0  0  0  0
  184.6450  178.1840  145.5590 C   0  0  2  0  0  3  0  0  0  0  0  0
  188.6800  178.7040  148.0720 C   0  0  0  0  0  2  0  0  0  0  0  0
  187.0000  177.7960  145.7430 C   0  0  0  0  0  0  0  0  0  0  0  0
  190.1990  177.6120  142.4640 C   0  0  2  0  0  3  0  0  0  0  0  0
  190.9000  176.3640  142.9000 C   0  0  0  0  0  3  0  0  0  0  0  0
  190.3370  175.2840  142.8440 O   0  0  0  0  0  0  0  0  0  0  0  0
  191.7300  178.9360  143.7750 O   0  0  0  0  0  1  0  0  0  0  0  0
  190.3770  178.7080  143.5110 C   0  0  0  0  0  2  0  0  0  0  0  0
  1 27  1  6  0  0  0
  2  1  1  0  0  0  0
  2 14  1  1  0  0  0
  3  2  1  0  0  0  0
  3  1  1  0  0  0  0
  4  3  1  0  0  0  0
  5  4  1  0  0  0  0
  6  8  2  0  0  0  0
  6  5  1  0  0  0  0
  7 11  1  0  0  0  0
  7  4  2  0  0  0  0
  8  7  1  0  0  0  0
  9  6  1  0  0  0  0
 10  9  1  0  0  0  0
 12 11  1  0  0  0  0
 14 13  1  6  0  0  0
 14 15  1  0  0  0  0
 16 18  1  0  0  0  0
 17 25  1  0  0  0  0
 18 19  2  0  0  0  0
 19 25  1  0  0  0  0
 20 26  2  0  0  0  0
 20 21  1  0  0  0  0
 21 17  2  0  0  0  0
 22 15  1  6  0  0  0
 22 24  1  0  0  0  0
 22 26  1  0  0  0  0
 24 23  1  6  0  0  0
 24 16  1  0  0  0  0
 26 18  1  0  0  0  0
 27 28  1  1  0  0  0
 27 31  1  0  0  0  0
 29 28  2  0  0  0  0
 31 30  1  0  0  0  0
M  END
>  <MODEL>
3

>  <REMARK>
 VINA RESULT:      -8.3      4.086      5.999
  Name = 
  9 active torsions:
  status: ('A' for Active; 'I' for Inactive)
    1  A    between atoms: O_2  and  C_11
    2  A    between atoms: C_4  and  C_25
    3  A    between atoms: C_5  and  C_25
    4  A    between atoms: C_6  and  N_31
    5  A    between atoms: N_7  and  C_20
    6  A    between atoms: C_14  and  C_25
    7  A    between atoms: C_16  and  C_21
    8  A    between atoms: C_18  and  C_21
    9  A    between atoms: C_18  and  C_22
                            x       y       z     vdW  Elec       q    Type
                         _______ _______ _______ _____ _____    ______ ____

>  <TORSDO>
F 9

$$$$
=
 OpenBabel11042412303D

 31 34  0  0  1  0  0  0  0  0999 V2000
  190.2590  176.4500  139.6670 C   0  0  1  0  0  3  0  0  0  0  0  0
  189.5770  177.5870  140.0590 C   0  0  1  0  0  3  0  0  0  0  0  0
  189.0860  176.8710  138.8430 N   0  0  0  0  0  0  0  0  0  0  0  0
  188.1910  176.7040  137.7460 C   0  0  0  0  0  0  0  0  0  0  0  0
  187.8670  175.4090  137.0950 C   0  0  0  0  0  2  0  0  0  0  0  0
  186.9120  175.9100  136.0500 C   0  0  0  0  0  0  0  0  0  0  0  0
  187.5310  177.6760  137.1470 C   0  0  0  0  0  0  0  0  0  0  0  0
  186.7280  177.1900  136.0840 N   0  0  0  0  0  0  0  0  0  0  0  0
  186.2670  175.1040  135.1130 O   0  0  0  0  0  0  0  0  0  0  0  0
  185.3650  174.0810  135.5030 C   0  0  0  0  0  1  0  0  0  0  0  0
  187.6280  179.0550  137.4970 N   0  0  0  0  0  2  0  0  0  0  0  0
  188.7920  179.7260  137.3390 O   0  0  0  0  0  1  0  0  0  0  0  0
  187.8510  178.5020  141.5950 C   0  0  0  0  0  1  0  0  0  0  0  0
  188.6680  177.2760  141.2420 C   0  0  2  0  0  3  0  0  0  0  0  0
  189.4940  176.8780  142.4570 C   0  0  0  0  0  2  0  0  0  0  0  0
  191.5840  178.0070  144.9460 N   0  0  0  0  0  2  0  0  0  0  0  0
  188.0390  177.2970  147.5360 C   0  0  0  0  0  3  0  0  0  0  0  0
  190.4040  177.6190  145.6180 C   0  0  0  0  0  0  0  0  0  0  0  0
  190.4260  177.0580  146.8260 C   0  0  0  0  0  3  0  0  0  0  0  0
  187.9840  177.9530  145.1170 C   0  0  0  0  0  3  0  0  0  0  0  0
  187.4760  177.9260  146.5040 C   0  0  0  0  0  3  0  0  0  0  0  0
  189.7420  178.0740  143.3750 C   0  0  2  0  0  3  0  0  0  0  0  0
  192.0670  177.7150  142.6870 F   0  0  0  0  0  0  0  0  0  0  0  0
  191.2480  178.3870  143.5790 C   0  0  2  0  0  3  0  0  0  0  0  0
  189.2290  176.3980  147.4310 C   0  0  0  0  0  2  0  0  0  0  0  0
  189.2540  177.7580  144.7450 C   0  0  0  0  0  0  0  0  0  0  0  0
  191.5520  176.8230  138.9490 C   0  0  2  0  0  3  0  0  0  0  0  0
  192.0880  175.6630  138.1700 C   0  0  0  0  0  3  0  0  0  0  0  0
  191.4290  174.6450  138.0400 O   0  0  0  0  0  0  0  0  0  0  0  0
  193.8880  176.9460  139.5370 O   0  0  0  0  0  1  0  0  0  0  0  0
  192.6030  177.3210  139.9380 C   0  0  0  0  0  2  0  0  0  0  0  0
  1 27  1  6  0  0  0
  1  2  1  0  0  0  0
  2 14  1  1  0  0  0
  3  1  1  0  0  0  0
  3  2  1  0  0  0  0
  4  3  1  0  0  0  0
  5  4  1  0  0  0  0
  6  8  2  0  0  0  0
  6  5  1  0  0  0  0
  7 11  1  0  0  0  0
  7  4  2  0  0  0  0
  8  7  1  0  0  0  0
  9 10  1  0  0  0  0
  9  6  1  0  0  0  0
 12 11  1  0  0  0  0
 14 13  1  1  0  0  0
 14 15  1  0  0  0  0
 16 18  1  0  0  0  0
 18 19  2  0  0  0  0
 19 25  1  0  0  0  0
 20 21  1  0  0  0  0
 21 17  2  0  0  0  0
 22 15  1  6  0  0  0
 22 24  1  0  0  0  0
 22 26  1  0  0  0  0
 24 23  1  6  0  0  0
 24 16  1  0  0  0  0
 25 17  1  0  0  0  0
 26 20  2  0  0  0  0
 26 18  1  0  0  0  0
 27 28  1  1  0  0  0
 27 31  1  0  0  0  0
 29 28  2  0  0  0  0
 30 31  1  0  0  0  0
M  END
>  <MODEL>
4

>  <REMARK>
 VINA RESULT:      -8.1      4.901      6.271
  Name = 
  9 active torsions:
  status: ('A' for Active; 'I' for Inactive)
    1  A    between atoms: O_2  and  C_11
    2  A    between atoms: C_4  and  C_25
    3  A    between atoms: C_5  and  C_25
    4  A    between atoms: C_6  and  N_31
    5  A    between atoms: N_7  and  C_20
    6  A    between atoms: C_14  and  C_25
    7  A    between atoms: C_16  and  C_21
    8  A    between atoms: C_18  and  C_21
    9  A    between atoms: C_18  and  C_22
                            x       y       z     vdW  Elec       q    Type
                         _______ _______ _______ _____ _____    ______ ____

>  <TORSDO>
F 9

$$$$
=
 OpenBabel11042412303D

 31 34  0  0  1  0  0  0  0  0999 V2000
  190.2380  176.7080  141.9240 C   0  0  1  0  0  3  0  0  0  0  0  0
  189.8110  177.8930  141.3540 C   0  0  1  0  0  3  0  0  0  0  0  0
  190.6120  176.9630  140.5000 N   0  0  0  0  0  0  0  0  0  0  0  0
  191.2420  176.5940  139.2760 C   0  0  0  0  0  0  0  0  0  0  0  0
  190.5690  175.9210  138.1370 C   0  0  0  0  0  2  0  0  0  0  0  0
  191.7440  175.8120  137.2070 C   0  0  0  0  0  0  0  0  0  0  0  0
  192.5140  176.7880  138.9850 C   0  0  0  0  0  0  0  0  0  0  0  0
  192.8380  176.3020  137.6930 N   0  0  0  0  0  0  0  0  0  0  0  0
  191.6990  175.2410  135.9360 O   0  0  0  0  0  0  0  0  0  0  0  0
  190.8650  175.7610  134.9140 C   0  0  0  0  0  1  0  0  0  0  0  0
  193.4630  177.3860  139.8650 N   0  0  0  0  0  2  0  0  0  0  0  0
  194.5920  176.7260  140.2120 O   0  0  0  0  0  1  0  0  0  0  0  0
  188.1220  178.3970  139.6020 C   0  0  0  0  0  1  0  0  0  0  0  0
  188.3370  177.7970  140.9760 C   0  0  2  0  0  3  0  0  0  0  0  0
  187.4820  178.5610  141.9780 C   0  0  0  0  0  2  0  0  0  0  0  0
  184.4030  178.5120  143.5120 N   0  0  0  0  0  2  0  0  0  0  0  0
  186.8280  178.1420  147.2200 C   0  0  0  0  0  3  0  0  0  0  0  0
  185.3320  178.5110  144.5740 C   0  0  0  0  0  0  0  0  0  0  0  0
  185.1060  179.1570  145.7170 C   0  0  0  0  0  3  0  0  0  0  0  0
  187.4660  177.2780  144.9550 C   0  0  0  0  0  3  0  0  0  0  0  0
  187.4360  177.2540  146.4310 C   0  0  0  0  0  3  0  0  0  0  0  0
  186.5070  177.6310  142.6980 C   0  0  2  0  0  3  0  0  0  0  0  0
  184.8740  178.7380  141.2420 F   0  0  0  0  0  0  0  0  0  0  0  0
  185.0230  177.9050  142.3400 C   0  0  2  0  0  3  0  0  0  0  0  0
  186.1740  179.3950  146.7350 C   0  0  0  0  0  2  0  0  0  0  0  0
  186.5730  177.8810  144.1630 C   0  0  0  0  0  0  0  0  0  0  0  0
  191.4450  176.9510  142.8250 C   0  0  2  0  0  3  0  0  0  0  0  0
  191.4140  176.0500  144.0190 C   0  0  0  0  0  3  0  0  0  0  0  0
  192.1030  175.0450  144.0560 O   0  0  0  0  0  0  0  0  0  0  0  0
  191.0330  178.5590  144.5740 O   0  0  0  0  0  1  0  0  0  0  0  0
  191.5090  178.4100  143.2690 C   0  0  0  0  0  2  0  0  0  0  0  0
  1 27  1  1  0  0  0
  2 14  1  6  0  0  0
  2  1  1  0  0  0  0
  3  2  1  0  0  0  0
  3  1  1  0  0  0  0
  4  3  1  0  0  0  0
  5  4  1  0  0  0  0
  6  8  2  0  0  0  0
  6  5  1  0  0  0  0
  7  4  2  0  0  0  0
  7 11  1  0  0  0  0
  8  7  1  0  0  0  0
  9  6  1  0  0  0  0
 10  9  1  0  0  0  0
 11 12  1  0  0  0  0
 14 13  1  6  0  0  0
 14 15  1  0  0  0  0
 16 18  1  0  0  0  0
 18 19  2  0  0  0  0
 19 25  1  0  0  0  0
 20 21  1  0  0  0  0
 21 17  2  0  0  0  0
 22 15  1  6  0  0  0
 22 26  1  0  0  0  0
 24 23  1  6  0  0  0
 24 22  1  0  0  0  0
 24 16  1  0  0  0  0
 25 17  1  0  0  0  0
 26 18  1  0  0  0  0
 26 20  2  0  0  0  0
 27 31  1  1  0  0  0
 27 28  1  0  0  0  0
 28 29  2  0  0  0  0
 31 30  1  0  0  0  0
M  END
>  <MODEL>
5

>  <REMARK>
 VINA RESULT:      -8.1      4.600      8.077
  Name = 
  9 active torsions:
  status: ('A' for Active; 'I' for Inactive)
    1  A    between atoms: O_2  and  C_11
    2  A    between atoms: C_4  and  C_25
    3  A    between atoms: C_5  and  C_25
    4  A    between atoms: C_6  and  N_31
    5  A    between atoms: N_7  and  C_20
    6  A    between atoms: C_14  and  C_25
    7  A    between atoms: C_16  and  C_21
    8  A    between atoms: C_18  and  C_21
    9  A    between atoms: C_18  and  C_22
                            x       y       z     vdW  Elec       q    Type
                         _______ _______ _______ _____ _____    ______ ____

>  <TORSDO>
F 9

$$$$
=
 OpenBabel11042412303D

 31 34  0  0  1  0  0  0  0  0999 V2000
  187.2690  178.2700  143.5700 C   0  0  1  0  0  3  0  0  0  0  0  0
  186.2620  177.7310  144.3480 C   0  0  1  0  0  3  0  0  0  0  0  0
  187.6300  177.8070  144.9440 N   0  0  0  0  0  0  0  0  0  0  0  0
  188.5630  177.6060  146.0020 C   0  0  0  0  0  0  0  0  0  0  0  0
  189.9620  177.1390  145.8310 C   0  0  0  0  0  2  0  0  0  0  0  0
  190.3800  177.1300  147.2740 C   0  0  0  0  0  0  0  0  0  0  0  0
  188.3150  177.7960  147.2830 C   0  0  0  0  0  0  0  0  0  0  0  0
  189.4450  177.5000  148.0880 N   0  0  0  0  0  0  0  0  0  0  0  0
  191.6440  176.7610  147.7320 O   0  0  0  0  0  0  0  0  0  0  0  0
  192.3290  175.6360  147.2060 C   0  0  0  0  0  1  0  0  0  0  0  0
  187.0590  178.2180  147.8100 N   0  0  0  0  0  2  0  0  0  0  0  0
  186.8200  179.5270  148.0550 O   0  0  0  0  0  1  0  0  0  0  0  0
  184.5020  178.2770  146.0160 C   0  0  0  0  0  1  0  0  0  0  0  0
  185.3870  178.8400  144.9230 C   0  0  2  0  0  3  0  0  0  0  0  0
  184.4990  179.4320  143.8380 C   0  0  0  0  0  2  0  0  0  0  0  0
  182.7650  178.7340  140.9490 N   0  0  0  0  0  2  0  0  0  0  0  0
  179.2080  179.3750  143.5390 C   0  0  0  0  0  3  0  0  0  0  0  0
  181.7700  179.0800  141.8890 C   0  0  0  0  0  0  0  0  0  0  0  0
  180.6730  179.7540  141.5480 C   0  0  0  0  0  3  0  0  0  0  0  0
  181.4290  178.4880  144.2880 C   0  0  0  0  0  3  0  0  0  0  0  0
  179.9580  178.6030  144.3270 C   0  0  0  0  0  3  0  0  0  0  0  0
  183.6400  178.3560  143.1760 C   0  0  2  0  0  3  0  0  0  0  0  0
  185.0720  178.8500  141.2480 F   0  0  0  0  0  0  0  0  0  0  0  0
  183.9200  178.1970  141.6580 C   0  0  2  0  0  3  0  0  0  0  0  0
  179.7520  180.3610  142.5560 C   0  0  0  0  0  2  0  0  0  0  0  0
  182.2090  178.7570  143.2340 C   0  0  0  0  0  0  0  0  0  0  0  0
  187.7530  177.2530  142.5410 C   0  0  2  0  0  3  0  0  0  0  0  0
  188.3010  176.0320  143.2100 C   0  0  0  0  0  3  0  0  0  0  0  0
  189.3580  175.5440  142.8420 O   0  0  0  0  0  0  0  0  0  0  0  0
  188.5270  177.5820  140.2820 O   0  0  0  0  0  1  0  0  0  0  0  0
  188.8060  177.8650  141.6210 C   0  0  0  0  0  2  0  0  0  0  0  0
  1 27  1  6  0  0  0
  1  2  1  0  0  0  0
  1  3  1  0  0  0  0
  2 14  1  1  0  0  0
  2  3  1  0  0  0  0
  3  4  1  0  0  0  0
  4  7  2  0  0  0  0
  5  4  1  0  0  0  0
  5  6  1  0  0  0  0
  6  9  1  0  0  0  0
  6  8  2  0  0  0  0
  7 11  1  0  0  0  0
  7  8  1  0  0  0  0
 10  9  1  0  0  0  0
 11 12  1  0  0  0  0
 14 13  1  1  0  0  0
 15 14  1  0  0  0  0
 16 24  1  0  0  0  0
 16 18  1  0  0  0  0
 17 21  2  0  0  0  0
 18 26  1  0  0  0  0
 19 18  2  0  0  0  0
 19 25  1  0  0  0  0
 20 21  1  0  0  0  0
 22 26  1  0  0  0  0
 22 15  1  6  0  0  0
 24 23  1  6  0  0  0
 24 22  1  0  0  0  0
 25 17  1  0  0  0  0
 26 20  2  0  0  0  0
 27 31  1  1  0  0  0
 27 28  1  0  0  0  0
 29 28  2  0  0  0  0
 30 31  1  0  0  0  0
M  END
>  <MODEL>
6

>  <REMARK>
 VINA RESULT:      -7.9      3.194      7.977
  Name = 
  9 active torsions:
  status: ('A' for Active; 'I' for Inactive)
    1  A    between atoms: O_2  and  C_11
    2  A    between atoms: C_4  and  C_25
    3  A    between atoms: C_5  and  C_25
    4  A    between atoms: C_6  and  N_31
    5  A    between atoms: N_7  and  C_20
    6  A    between atoms: C_14  and  C_25
    7  A    between atoms: C_16  and  C_21
    8  A    between atoms: C_18  and  C_21
    9  A    between atoms: C_18  and  C_22
                            x       y       z     vdW  Elec       q    Type
                         _______ _______ _______ _____ _____    ______ ____

>  <TORSDO>
F 9

$$$$
=
 OpenBabel11042412303D

 31 34  0  0  1  0  0  0  0  0999 V2000
  189.3730  177.5330  142.3030 C   0  0  1  0  0  3  0  0  0  0  0  0
  188.6370  178.5740  141.7700 C   0  0  1  0  0  3  0  0  0  0  0  0
  189.3770  177.6910  140.8180 N   0  0  0  0  0  0  0  0  0  0  0  0
  189.7760  177.2930  139.5090 C   0  0  0  0  0  0  0  0  0  0  0  0
  190.6240  176.1150  139.1940 C   0  0  0  0  0  2  0  0  0  0  0  0
  190.6750  176.2610  137.7000 C   0  0  0  0  0  0  0  0  0  0  0  0
  189.4580  177.9190  138.3930 C   0  0  0  0  0  0  0  0  0  0  0  0
  190.0160  177.2820  137.2550 N   0  0  0  0  0  0  0  0  0  0  0  0
  191.3580  175.4000  136.8420 O   0  0  0  0  0  0  0  0  0  0  0  0
  192.1590  174.3380  137.3330 C   0  0  0  0  0  1  0  0  0  0  0  0
  188.6750  179.1090  138.3270 N   0  0  0  0  0  2  0  0  0  0  0  0
  188.9150  180.0380  137.3730 O   0  0  0  0  0  1  0  0  0  0  0  0
  186.5470  178.6270  140.4270 C   0  0  0  0  0  1  0  0  0  0  0  0
  187.1540  178.2210  141.7540 C   0  0  2  0  0  3  0  0  0  0  0  0
  186.4220  178.9570  142.8680 C   0  0  0  0  0  2  0  0  0  0  0  0
  184.2610  178.8360  145.5420 N   0  0  0  0  0  2  0  0  0  0  0  0
  187.9310  177.7370  147.7990 C   0  0  0  0  0  3  0  0  0  0  0  0
  185.5370  178.6120  146.1030 C   0  0  0  0  0  0  0  0  0  0  0  0
  185.8780  179.0760  147.3030 C   0  0  0  0  0  3  0  0  0  0  0  0
  187.4760  177.2140  145.3900 C   0  0  0  0  0  3  0  0  0  0  0  0
  188.0510  176.9550  146.7250 C   0  0  0  0  0  3  0  0  0  0  0  0
  185.7250  177.9800  143.8130 C   0  0  2  0  0  3  0  0  0  0  0  0
  183.7830  179.3970  143.3330 F   0  0  0  0  0  0  0  0  0  0  0  0
  184.2680  178.3910  144.1530 C   0  0  2  0  0  3  0  0  0  0  0  0
  187.2890  179.0870  147.7940 C   0  0  0  0  0  2  0  0  0  0  0  0
  186.4150  177.9860  145.1310 C   0  0  0  0  0  0  0  0  0  0  0  0
  190.6890  178.0470  142.8790 C   0  0  2  0  0  3  0  0  0  0  0  0
  191.6450  176.9220  143.1220 C   0  0  0  0  0  3  0  0  0  0  0  0
  191.2390  175.8290  143.4810 O   0  0  0  0  0  0  0  0  0  0  0  0
  191.1390  180.0420  144.1570 O   0  0  0  0  0  1  0  0  0  0  0  0
  190.4540  178.8240  144.1710 C   0  0  0  0  0  2  0  0  0  0  0  0
  1 27  1  1  0  0  0
  2 14  1  6  0  0  0
  2  1  1  0  0  0  0
  3  2  1  0  0  0  0
  3  1  1  0  0  0  0
  4  3  1  0  0  0  0
  5  4  1  0  0  0  0
  6  5  1  0  0  0  0
  7  4  2  0  0  0  0
  8  6  2  0  0  0  0
  8  7  1  0  0  0  0
  9 10  1  0  0  0  0
  9  6  1  0  0  0  0
 11  7  1  0  0  0  0
 12 11  1  0  0  0  0
 14 13  1  6  0  0  0
 14 15  1  0  0  0  0
 16 18  1  0  0  0  0
 18 19  2  0  0  0  0
 19 25  1  0  0  0  0
 20 21  1  0  0  0  0
 21 17  2  0  0  0  0
 22 15  1  6  0  0  0
 22 24  1  0  0  0  0
 22 26  1  0  0  0  0
 24 23  1  6  0  0  0
 24 16  1  0  0  0  0
 25 17  1  0  0  0  0
 26 20  2  0  0  0  0
 26 18  1  0  0  0  0
 27 28  1  1  0  0  0
 27 31  1  0  0  0  0
 28 29  2  0  0  0  0
 30 31  1  0  0  0  0
M  END
>  <MODEL>
7

>  <REMARK>
 VINA RESULT:      -7.9      4.031      6.846
  Name = 
  9 active torsions:
  status: ('A' for Active; 'I' for Inactive)
    1  A    between atoms: O_2  and  C_11
    2  A    between atoms: C_4  and  C_25
    3  A    between atoms: C_5  and  C_25
    4  A    between atoms: C_6  and  N_31
    5  A    between atoms: N_7  and  C_20
    6  A    between atoms: C_14  and  C_25
    7  A    between atoms: C_16  and  C_21
    8  A    between atoms: C_18  and  C_21
    9  A    between atoms: C_18  and  C_22
                            x       y       z     vdW  Elec       q    Type
                         _______ _______ _______ _____ _____    ______ ____

>  <TORSDO>
F 9

$$$$
=
 OpenBabel11042412303D

 31 34  0  0  1  0  0  0  0  0999 V2000
  188.8330  177.2300  139.5690 C   0  0  1  0  0  3  0  0  0  0  0  0
  188.1710  178.1680  140.3390 C   0  0  1  0  0  3  0  0  0  0  0  0
  187.4560  177.6230  139.1450 N   0  0  0  0  0  0  0  0  0  0  0  0
  186.3310  177.5340  138.2740 C   0  0  0  0  0  0  0  0  0  0  0  0
  186.2340  176.6430  137.0900 C   0  0  0  0  0  2  0  0  0  0  0  0
  184.8580  177.0260  136.6260 C   0  0  0  0  0  0  0  0  0  0  0  0
  185.2220  178.2370  138.3890 C   0  0  0  0  0  0  0  0  0  0  0  0
  184.2930  177.9280  137.3620 N   0  0  0  0  0  0  0  0  0  0  0  0
  184.2190  176.4870  135.5100 O   0  0  0  0  0  0  0  0  0  0  0  0
  184.0750  175.0870  135.3370 C   0  0  0  0  0  1  0  0  0  0  0  0
  184.9830  179.2140  139.4000 N   0  0  0  0  0  2  0  0  0  0  0  0
  184.3890  180.3900  139.0950 O   0  0  0  0  0  1  0  0  0  0  0  0
  186.8400  178.5440  142.4030 C   0  0  0  0  0  1  0  0  0  0  0  0
  187.6240  177.5220  141.6070 C   0  0  2  0  0  3  0  0  0  0  0  0
  188.7630  177.0030  142.4720 C   0  0  0  0  0  2  0  0  0  0  0  0
  191.6910  177.9300  144.0240 N   0  0  0  0  0  2  0  0  0  0  0  0
  189.3970  177.0640  147.7340 C   0  0  0  0  0  3  0  0  0  0  0  0
  190.8480  177.5030  145.0740 C   0  0  0  0  0  0  0  0  0  0  0  0
  191.3140  176.8560  146.1410 C   0  0  0  0  0  3  0  0  0  0  0  0
  188.4360  177.8940  145.5730 C   0  0  0  0  0  3  0  0  0  0  0  0
  188.5020  177.7710  147.0430 C   0  0  0  0  0  3  0  0  0  0  0  0
  189.3890  178.1270  143.2970 C   0  0  2  0  0  3  0  0  0  0  0  0
  191.2550  177.7980  141.7410 F   0  0  0  0  0  0  0  0  0  0  0  0
  190.8670  178.4110  142.9220 C   0  0  2  0  0  3  0  0  0  0  0  0
  190.4200  176.1640  147.1190 C   0  0  0  0  0  2  0  0  0  0  0  0
  189.4560  177.7160  144.7260 C   0  0  0  0  0  0  0  0  0  0  0  0
  189.8620  177.9060  138.6690 C   0  0  2  0  0  3  0  0  0  0  0  0
  189.2030  178.5450  137.4870 C   0  0  0  0  0  3  0  0  0  0  0  0
  189.0540  179.7550  137.4380 O   0  0  0  0  0  0  0  0  0  0  0  0
  190.6690  175.6340  138.7170 O   0  0  0  0  0  1  0  0  0  0  0  0
  190.9200  176.9090  138.2040 C   0  0  0  0  0  2  0  0  0  0  0  0
  1 27  1  6  0  0  0
  1  2  1  0  0  0  0
  2 14  1  1  0  0  0
  3  1  1  0  0  0  0
  3  2  1  0  0  0  0
  4  7  2  0  0  0  0
  4  3  1  0  0  0  0
  5  4  1  0  0  0  0
  6  5  1  0  0  0  0
  6  8  2  0  0  0  0
  7 11  1  0  0  0  0
  8  7  1  0  0  0  0
  9  6  1  0  0  0  0
 10  9  1  0  0  0  0
 12 11  1  0  0  0  0
 14 13  1  1  0  0  0
 14 15  1  0  0  0  0
 16 18  1  0  0  0  0
 18 19  2  0  0  0  0
 19 25  1  0  0  0  0
 20 21  1  0  0  0  0
 21 17  2  0  0  0  0
 22 15  1  6  0  0  0
 22 26  1  0  0  0  0
 24 23  1  6  0  0  0
 24 22  1  0  0  0  0
 24 16  1  0  0  0  0
 25 17  1  0  0  0  0
 26 18  1  0  0  0  0
 26 20  2  0  0  0  0
 27 28  1  6  0  0  0
 29 28  2  0  0  0  0
 31 27  1  0  0  0  0
 31 30  1  0  0  0  0
M  END
>  <MODEL>
8

>  <REMARK>
 VINA RESULT:      -7.8      3.621      4.762
  Name = 
  9 active torsions:
  status: ('A' for Active; 'I' for Inactive)
    1  A    between atoms: O_2  and  C_11
    2  A    between atoms: C_4  and  C_25
    3  A    between atoms: C_5  and  C_25
    4  A    between atoms: C_6  and  N_31
    5  A    between atoms: N_7  and  C_20
    6  A    between atoms: C_14  and  C_25
    7  A    between atoms: C_16  and  C_21
    8  A    between atoms: C_18  and  C_21
    9  A    between atoms: C_18  and  C_22
                            x       y       z     vdW  Elec       q    Type
                         _______ _______ _______ _____ _____    ______ ____

>  <TORSDO>
F 9

$$$$
=
 OpenBabel11042412303D

 31 34  0  0  1  0  0  0  0  0999 V2000
  188.9280  177.8100  143.2160 C   0  0  1  0  0  3  0  0  0  0  0  0
  188.0150  176.9240  143.7580 C   0  0  1  0  0  3  0  0  0  0  0  0
  189.2790  177.1670  144.5190 N   0  0  0  0  0  0  0  0  0  0  0  0
  190.1490  176.9600  145.6280 C   0  0  0  0  0  0  0  0  0  0  0  0
  191.4260  176.2040  145.5840 C   0  0  0  0  0  2  0  0  0  0  0  0
  191.8280  176.3470  147.0240 C   0  0  0  0  0  0  0  0  0  0  0  0
  189.9390  177.4000  146.8530 C   0  0  0  0  0  0  0  0  0  0  0  0
  190.9840  177.0220  147.7350 N   0  0  0  0  0  0  0  0  0  0  0  0
  192.9910  175.8150  147.5800 O   0  0  0  0  0  0  0  0  0  0  0  0
  193.2410  175.8630  148.9750 C   0  0  0  0  0  1  0  0  0  0  0  0
  188.7920  178.1420  147.2610 N   0  0  0  0  0  2  0  0  0  0  0  0
  188.6210  178.4890  148.5580 O   0  0  0  0  0  1  0  0  0  0  0  0
  186.6010  177.1180  145.7920 C   0  0  0  0  0  1  0  0  0  0  0  0
  186.8660  177.6830  144.4120 C   0  0  2  0  0  3  0  0  0  0  0  0
  185.5990  177.5470  143.5810 C   0  0  0  0  0  2  0  0  0  0  0  0
  182.6100  179.2510  143.5250 N   0  0  0  0  0  2  0  0  0  0  0  0
  183.0900  178.9160  139.1170 C   0  0  0  0  0  3  0  0  0  0  0  0
  182.8770  178.9520  142.1710 C   0  0  0  0  0  0  0  0  0  0  0  0
  181.9110  178.6480  141.3060 C   0  0  0  0  0  3  0  0  0  0  0  0
  184.9510  179.0660  140.7900 C   0  0  0  0  0  3  0  0  0  0  0  0
  184.3170  179.2960  139.4770 C   0  0  0  0  0  3  0  0  0  0  0  0
  184.9940  178.9140  143.2630 C   0  0  2  0  0  3  0  0  0  0  0  0
  183.8190  178.5310  145.3810 F   0  0  0  0  0  0  0  0  0  0  0  0
  183.8720  179.3310  144.2510 C   0  0  2  0  0  3  0  0  0  0  0  0
  182.1880  178.0690  139.9570 C   0  0  0  0  0  2  0  0  0  0  0  0
  184.3070  178.8590  141.9450 C   0  0  0  0  0  0  0  0  0  0  0  0
  189.7120  177.1470  142.0880 C   0  0  2  0  0  3  0  0  0  0  0  0
  191.1250  177.6390  142.0540 C   0  0  0  0  0  3  0  0  0  0  0  0
  191.8300  177.4340  141.0800 O   0  0  0  0  0  0  0  0  0  0  0  0
  188.3960  178.6280  140.7140 O   0  0  0  0  0  1  0  0  0  0  0  0
  189.0400  177.3890  140.7390 C   0  0  0  0  0  2  0  0  0  0  0  0
  1 27  1  6  0  0  0
  1  2  1  0  0  0  0
  1  3  1  0  0  0  0
  2 14  1  1  0  0  0
  2  3  1  0  0  0  0
  3  4  1  0  0  0  0
  4  7  2  0  0  0  0
  5  4  1  0  0  0  0
  5  6  1  0  0  0  0
  6  9  1  0  0  0  0
  6  8  2  0  0  0  0
  7 11  1  0  0  0  0
  7  8  1  0  0  0  0
  9 10  1  0  0  0  0
 11 12  1  0  0  0  0
 14 13  1  1  0  0  0
 15 14  1  0  0  0  0
 16 24  1  0  0  0  0
 17 21  2  0  0  0  0
 17 25  1  0  0  0  0
 18 16  1  0  0  0  0
 19 18  2  0  0  0  0
 20 26  2  0  0  0  0
 21 20  1  0  0  0  0
 22 15  1  1  0  0  0
 22 24  1  0  0  0  0
 24 23  1  1  0  0  0
 25 19  1  0  0  0  0
 26 18  1  0  0  0  0
 26 22  1  0  0  0  0
 27 31  1  6  0  0  0
 28 27  1  0  0  0  0
 29 28  2  0  0  0  0
 30 31  1  0  0  0  0
M  END
>  <MODEL>
9

>  <REMARK>
 VINA RESULT:      -7.8      3.213      8.089
  Name = 
  9 active torsions:
  status: ('A' for Active; 'I' for Inactive)
    1  A    between atoms: O_2  and  C_11
    2  A    between atoms: C_4  and  C_25
    3  A    between atoms: C_5  and  C_25
    4  A    between atoms: C_6  and  N_31
    5  A    between atoms: N_7  and  C_20
    6  A    between atoms: C_14  and  C_25
    7  A    between atoms: C_16  and  C_21
    8  A    between atoms: C_18  and  C_21
    9  A    between atoms: C_18  and  C_22
                            x       y       z     vdW  Elec       q    Type
                         _______ _______ _______ _____ _____    ______ ____

>  <TORSDO>
F 9

$$$$
