=
 OpenBabel11042411463D

 47 51  0  0  1  0  0  0  0  0999 V2000
  187.4400  178.0850  139.3450 C   0  0  2  0  0  3  0  0  0  0  0  0
  185.2290  175.3710  137.0040 C   0  0  0  0  0  1  0  0  0  0  0  0
  185.3200  176.8760  136.8190 C   0  0  2  0  0  3  0  0  0  0  0  0
  186.4230  178.0520  138.3000 N   0  0  0  0  0  0  0  0  0  0  0  0
  186.6220  177.3110  137.1710 O   0  0  0  0  0  0  0  0  0  0  0  0
  184.4050  177.5760  137.7620 C   0  0  0  0  0  0  0  0  0  0  0  0
  185.0810  178.2360  138.6180 N   0  0  0  0  0  0  0  0  0  0  0  0
  182.3300  177.9960  136.7050 O   0  0  0  0  0  0  0  0  0  0  0  0
  182.9340  177.5710  137.7260 C   0  0  0  0  0  0  0  0  0  0  0  0
  182.1470  177.0690  138.8900 C   0  0  0  0  0  2  0  0  0  0  0  0
  179.8230  178.4780  138.8990 O   0  0  0  0  0  0  0  0  0  0  0  0
  181.9800  179.8770  139.4000 O   0  0  0  0  0  1  0  0  0  0  0  0
  181.1560  178.4120  139.6100 P   0  0  2  0  0  0  0  0  0  0  0  0
  180.9130  178.1030  141.2610 O   0  0  0  0  0  0  0  0  0  0  0  0
  181.8900  178.8480  141.9290 C   0  0  0  0  0  2  0  0  0  0  0  0
  180.1460  178.3880  143.6180 C   0  0  0  0  0  1  0  0  0  0  0  0
  181.5380  178.9360  143.3990 C   0  0  0  0  0  2  0  0  0  0  0  0
  187.0850  178.9950  140.3930 O   0  0  0  0  0  0  0  0  0  0  0  0
  187.6030  177.6070  142.4580 C   0  0  0  0  0  2  0  0  0  0  0  0
  185.7290  179.2320  142.2920 C   0  0  0  0  0  3  0  0  0  0  0  0
  186.3430  178.2490  144.5180 C   0  0  2  0  0  3  0  0  0  0  0  0
  186.7630  178.6190  141.7050 C   0  0  0  0  0  0  0  0  0  0  0  0
  185.2400  178.8820  143.6680 C   0  0  0  0  0  2  0  0  0  0  0  0
  186.9250  177.0820  143.7230 C   0  0  0  0  0  2  0  0  0  0  0  0
  185.7930  177.7720  145.8670 C   0  0  2  0  0  3  0  0  0  0  0  0
  184.4130  178.3610  146.1220 C   0  0  0  0  0  1  0  0  0  0  0  0
  186.7230  178.1940  146.9960 C   0  0  0  0  0  2  0  0  0  0  0  0
  188.1170  178.4520  146.4570 C   0  0  0  0  0  2  0  0  0  0  0  0
  190.1070  176.9600  145.8490 N   0  0  0  0  0  2  0  0  0  0  0  0
  190.0160  178.8330  144.4330 O   0  0  0  0  0  0  0  0  0  0  0  0
  188.9840  177.2590  146.6900 C   0  0  0  0  0  0  0  0  0  0  0  0
  190.5640  177.7350  144.7320 C   0  0  0  0  0  0  0  0  0  0  0  0
  188.7350  176.5060  147.6680 O   0  0  0  0  0  0  0  0  0  0  0  0
  191.2670  176.6590  142.6240 C   0  0  0  0  0  2  0  0  0  0  0  0
  191.7390  177.2560  143.9390 C   0  0  0  0  0  3  0  0  0  0  0  0
  191.6650  175.7500  143.7660 C   0  0  0  0  0  2  0  0  0  0  0  0
  188.8100  178.4220  138.7650 C   0  0  0  0  0  2  0  0  0  0  0  0
  189.8800  177.5080  139.3420 C   0  0  0  0  0  2  0  0  0  0  0  0
  190.6610  176.8630  138.2460 C   0  0  0  0  0  0  0  0  0  0  0  0
  194.0030  175.3390  137.5210 C   0  0  0  0  0  3  0  0  0  0  0  0
  193.2830  175.0660  135.2130 S   0  0  0  0  0  0  0  0  0  0  0  0
  192.1330  175.7600  136.1870 C   0  0  0  0  0  0  0  0  0  0  0  0
  190.1090  176.7710  136.9490 C   0  0  0  0  0  3  0  0  0  0  0  0
  192.6930  175.8440  137.4480 C   0  0  0  0  0  0  0  0  0  0  0  0
  191.9670  176.4020  138.4990 C   0  0  0  0  0  3  0  0  0  0  0  0
  194.4930  174.8580  136.3440 N   0  0  0  0  0  0  0  0  0  0  0  0
  190.8490  176.2100  135.8970 C   0  0  0  0  0  3  0  0  0  0  0  0
  1 37  1  6  0  0  0
  1 18  1  0  0  0  0
  3  2  1  1  0  0  0
  3  5  1  0  0  0  0
  3  6  1  0  0  0  0
  4  7  1  0  0  0  0
  4  1  1  0  0  0  0
  5  4  1  0  0  0  0
  6  7  2  0  0  0  0
  8  9  2  0  0  0  0
  9  6  1  0  0  0  0
  9 10  1  0  0  0  0
 10 13  1  0  0  0  0
 12 13  1  0  0  0  0
 13 11  2  6  0  0  0
 13 14  1  0  0  0  0
 14 15  1  0  0  0  0
 15 17  1  0  0  0  0
 17 16  1  0  0  0  0
 18 22  1  0  0  0  0
 19 24  1  0  0  0  0
 20 23  1  0  0  0  0
 21 25  1  1  0  0  0
 22 20  2  0  0  0  0
 22 19  1  0  0  0  0
 23 21  1  0  0  0  0
 24 21  1  0  0  0  0
 25 26  1  1  0  0  0
 25 27  1  0  0  0  0
 28 31  1  0  0  0  0
 28 27  1  0  0  0  0
 29 31  1  0  0  0  0
 30 32  2  0  0  0  0
 31 33  2  0  0  0  0
 32 29  1  0  0  0  0
 34 36  1  0  0  0  0
 34 35  1  0  0  0  0
 35 32  1  0  0  0  0
 36 35  1  0  0  0  0
 37 38  1  0  0  0  0
 39 45  1  0  0  0  0
 39 38  1  0  0  0  0
 41 42  1  0  0  0  0
 41 46  1  0  0  0  0
 42 44  1  0  0  0  0
 43 39  2  0  0  0  0
 44 40  1  0  0  0  0
 44 45  2  0  0  0  0
 46 40  2  0  0  0  0
 47 42  2  0  0  0  0
 47 43  1  0  0  0  0
M  END
>  <MODEL>
1

>  <REMARK>
 VINA RESULT:      -7.6      0.000      0.000
  Name = 
  17 active torsions:
  status: ('A' for Active; 'I' for Inactive)
    1  A    between atoms: C_2  and  C_15
    2  A    between atoms: O_4  and  P_29
    3  A    between atoms: O_4  and  C_37
    4  A    between atoms: C_11  and  C_15
    5  A    between atoms: C_11  and  C_46
    6  A    between atoms: C_12  and  C_22
    7  A    between atoms: C_12  and  C_31
    8  A    between atoms: C_17  and  C_28
    9  A    between atoms: C_20  and  C_25
   10  A    between atoms: C_20  and  P_29
   11  A    between atoms: N_21  and  C_46
   12  A    between atoms: C_22  and  C_28
   13  A    between atoms: C_25  and  C_30
   14  A    between atoms: O_32  and  C_39
   15  A    between atoms: O_32  and  C_46
   16  A    between atoms: C_33  and  C_34
   17  A    between atoms: C_37  and  C_38
                            x       y       z     vdW  Elec       q    Type
                         _______ _______ _______ _____ _____    ______ ____

>  <TORSDO>
F 17

$$$$
=
 OpenBabel11042411463D

 47 51  0  0  1  0  0  0  0  0999 V2000
  189.3400  177.0930  140.0620 C   0  0  2  0  0  3  0  0  0  0  0  0
  186.0390  177.0020  137.4480 C   0  0  0  0  0  1  0  0  0  0  0  0
  186.7290  178.2340  138.0070 C   0  0  2  0  0  3  0  0  0  0  0  0
  188.3260  177.9660  139.4810 N   0  0  0  0  0  0  0  0  0  0  0  0
  188.1170  177.9750  138.1320 O   0  0  0  0  0  0  0  0  0  0  0  0
  186.2570  178.5160  139.3910 C   0  0  0  0  0  0  0  0  0  0  0  0
  187.2060  178.3340  140.2210 N   0  0  0  0  0  0  0  0  0  0  0  0
  184.4940  180.0950  139.3810 O   0  0  0  0  0  0  0  0  0  0  0  0
  184.9170  178.9780  139.7850 C   0  0  0  0  0  0  0  0  0  0  0  0
  184.0510  178.1380  140.6620 C   0  0  0  0  0  2  0  0  0  0  0  0
  182.7120  175.9690  139.7180 O   0  0  0  0  0  1  0  0  0  0  0  0
  182.7350  178.0480  138.1250 O   0  0  0  0  0  0  0  0  0  0  0  0
  182.6440  177.4800  139.7180 P   0  0  2  0  0  0  0  0  0  0  0  0
  181.1970  177.9900  140.4440 O   0  0  0  0  0  0  0  0  0  0  0  0
  181.2210  179.3870  140.3840 C   0  0  0  0  0  2  0  0  0  0  0  0
  179.8670  181.3460  139.7250 C   0  0  0  0  0  1  0  0  0  0  0  0
  180.1020  179.8720  139.4860 C   0  0  0  0  0  2  0  0  0  0  0  0
  190.3160  177.8390  140.7950 O   0  0  0  0  0  0  0  0  0  0  0  0
  190.4800  178.8360  143.1280 C   0  0  0  0  0  2  0  0  0  0  0  0
  190.8930  176.4430  142.5900 C   0  0  0  0  0  3  0  0  0  0  0  0
  190.7020  177.1760  144.9830 C   0  0  2  0  0  3  0  0  0  0  0  0
  190.5920  177.6740  142.1610 C   0  0  0  0  0  0  0  0  0  0  0  0
  191.2700  176.1390  144.0130 C   0  0  0  0  0  2  0  0  0  0  0  0
  191.1280  178.5560  144.4840 C   0  0  0  0  0  2  0  0  0  0  0  0
  191.2090  176.9300  146.4080 C   0  0  2  0  0  3  0  0  0  0  0  0
  192.0660  175.6730  146.4650 C   0  0  0  0  0  1  0  0  0  0  0  0
  190.0380  176.7690  147.3660 C   0  0  0  0  0  2  0  0  0  0  0  0
  188.7310  177.0390  146.6450 C   0  0  0  0  0  2  0  0  0  0  0  0
  186.6110  178.4000  147.1040 N   0  0  0  0  0  2  0  0  0  0  0  0
  186.8860  178.0530  144.7970 O   0  0  0  0  0  0  0  0  0  0  0  0
  187.7530  177.6730  147.5780 C   0  0  0  0  0  0  0  0  0  0  0  0
  186.2340  178.5940  145.7340 C   0  0  0  0  0  0  0  0  0  0  0  0
  187.9260  177.5460  148.8190 O   0  0  0  0  0  0  0  0  0  0  0  0
  183.9070  178.5100  144.9130 C   0  0  0  0  0  2  0  0  0  0  0  0
  185.0230  179.4120  145.4150 C   0  0  0  0  0  3  0  0  0  0  0  0
  184.7190  179.3250  143.9300 C   0  0  0  0  0  2  0  0  0  0  0  0
  189.9980  176.2310  138.9890 C   0  0  0  0  0  2  0  0  0  0  0  0
  191.4360  176.6670  138.7560 C   0  0  0  0  0  2  0  0  0  0  0  0
  192.1390  175.6910  137.8710 C   0  0  0  0  0  0  0  0  0  0  0  0
  195.3830  175.1540  136.0790 C   0  0  0  0  0  3  0  0  0  0  0  0
  194.4340  173.1170  135.1480 S   0  0  0  0  0  0  0  0  0  0  0  0
  193.3950  173.9300  136.1550 C   0  0  0  0  0  0  0  0  0  0  0  0
  191.4590  174.5440  137.4090 C   0  0  0  0  0  3  0  0  0  0  0  0
  194.0790  175.0500  136.5930 C   0  0  0  0  0  0  0  0  0  0  0  0
  193.4590  175.9530  137.4560 C   0  0  0  0  0  3  0  0  0  0  0  0
  195.7470  174.1430  135.2420 N   0  0  0  0  0  0  0  0  0  0  0  0
  192.0900  173.6420  136.5370 C   0  0  0  0  0  3  0  0  0  0  0  0
  1 37  1  6  0  0  0
  1 18  1  0  0  0  0
  3  2  1  1  0  0  0
  3  5  1  0  0  0  0
  3  6  1  0  0  0  0
  4  1  1  0  0  0  0
  4  7  1  0  0  0  0
  5  4  1  0  0  0  0
  6  9  1  0  0  0  0
  6  7  2  0  0  0  0
  8  9  2  0  0  0  0
  9 10  1  0  0  0  0
 13 12  2  6  0  0  0
 13 11  1  0  0  0  0
 13 14  1  0  0  0  0
 13 10  1  0  0  0  0
 15 14  1  0  0  0  0
 17 16  1  0  0  0  0
 17 15  1  0  0  0  0
 18 22  1  0  0  0  0
 19 24  1  0  0  0  0
 20 23  1  0  0  0  0
 21 25  1  1  0  0  0
 22 20  2  0  0  0  0
 22 19  1  0  0  0  0
 23 21  1  0  0  0  0
 24 21  1  0  0  0  0
 25 26  1  6  0  0  0
 25 27  1  0  0  0  0
 28 27  1  0  0  0  0
 28 31  1  0  0  0  0
 29 31  1  0  0  0  0
 30 32  2  0  0  0  0
 31 33  2  0  0  0  0
 32 29  1  0  0  0  0
 34 35  1  0  0  0  0
 35 32  1  0  0  0  0
 36 34  1  0  0  0  0
 36 35  1  0  0  0  0
 38 37  1  0  0  0  0
 39 38  1  0  0  0  0
 40 44  1  0  0  0  0
 41 46  1  0  0  0  0
 41 42  1  0  0  0  0
 42 47  2  0  0  0  0
 42 44  1  0  0  0  0
 43 39  2  0  0  0  0
 44 45  2  0  0  0  0
 45 39  1  0  0  0  0
 46 40  2  0  0  0  0
 47 43  1  0  0  0  0
M  END
>  <MODEL>
2

>  <REMARK>
 VINA RESULT:      -7.6      1.973      3.835
  Name = 
  17 active torsions:
  status: ('A' for Active; 'I' for Inactive)
    1  A    between atoms: C_2  and  C_15
    2  A    between atoms: O_4  and  P_29
    3  A    between atoms: O_4  and  C_37
    4  A    between atoms: C_11  and  C_15
    5  A    between atoms: C_11  and  C_46
    6  A    between atoms: C_12  and  C_22
    7  A    between atoms: C_12  and  C_31
    8  A    between atoms: C_17  and  C_28
    9  A    between atoms: C_20  and  C_25
   10  A    between atoms: C_20  and  P_29
   11  A    between atoms: N_21  and  C_46
   12  A    between atoms: C_22  and  C_28
   13  A    between atoms: C_25  and  C_30
   14  A    between atoms: O_32  and  C_39
   15  A    between atoms: O_32  and  C_46
   16  A    between atoms: C_33  and  C_34
   17  A    between atoms: C_37  and  C_38
                            x       y       z     vdW  Elec       q    Type
                         _______ _______ _______ _____ _____    ______ ____

>  <TORSDO>
F 17

$$$$
=
 OpenBabel11042411463D

 47 51  0  0  1  0  0  0  0  0999 V2000
  190.5170  176.5760  139.9120 C   0  0  2  0  0  3  0  0  0  0  0  0
  189.2960  178.3780  136.3060 C   0  0  0  0  0  1  0  0  0  0  0  0
  188.6490  178.5330  137.6710 C   0  0  2  0  0  3  0  0  0  0  0  0
  189.4120  177.3370  139.3390 N   0  0  0  0  0  0  0  0  0  0  0  0
  189.6540  178.5020  138.6710 O   0  0  0  0  0  0  0  0  0  0  0  0
  187.7670  177.3710  137.9680 C   0  0  0  0  0  0  0  0  0  0  0  0
  188.2500  176.6900  138.9300 N   0  0  0  0  0  0  0  0  0  0  0  0
  185.6990  177.9620  136.9790 O   0  0  0  0  0  0  0  0  0  0  0  0
  186.4960  177.0410  137.3040 C   0  0  0  0  0  0  0  0  0  0  0  0
  186.1370  175.6220  137.0110 C   0  0  0  0  0  2  0  0  0  0  0  0
  187.3180  176.1130  134.6130 O   0  0  0  0  0  0  0  0  0  0  0  0
  186.2790  173.7230  134.8780 O   0  0  0  0  0  1  0  0  0  0  0  0
  187.1180  174.9970  135.6140 P   0  0  2  0  0  0  0  0  0  0  0  0
  188.6230  174.4600  136.1860 O   0  0  0  0  0  0  0  0  0  0  0  0
  189.3930  174.2190  135.0430 C   0  0  0  0  0  2  0  0  0  0  0  0
  191.6270  173.4330  135.7450 C   0  0  0  0  0  1  0  0  0  0  0  0
  190.8250  174.6360  135.3030 C   0  0  0  0  0  2  0  0  0  0  0  0
  191.3480  177.3990  140.7370 O   0  0  0  0  0  0  0  0  0  0  0  0
  191.0090  178.6730  142.9100 C   0  0  0  0  0  2  0  0  0  0  0  0
  191.5310  176.2460  142.7720 C   0  0  0  0  0  3  0  0  0  0  0  0
  190.8330  177.2570  144.9610 C   0  0  2  0  0  3  0  0  0  0  0  0
  191.3260  177.4070  142.1400 C   0  0  0  0  0  0  0  0  0  0  0  0
  191.5960  176.1270  144.2690 C   0  0  0  0  0  2  0  0  0  0  0  0
  191.3530  178.5780  144.3960 C   0  0  0  0  0  2  0  0  0  0  0  0
  191.0250  177.1990  146.4810 C   0  0  2  0  0  3  0  0  0  0  0  0
  191.9070  176.0200  146.8660 C   0  0  0  0  0  1  0  0  0  0  0  0
  189.6800  177.0550  147.1790 C   0  0  0  0  0  2  0  0  0  0  0  0
  188.5540  177.1310  146.1660 C   0  0  0  0  0  2  0  0  0  0  0  0
  186.1980  178.1220  146.0060 N   0  0  0  0  0  2  0  0  0  0  0  0
  186.8670  177.2450  143.9310 O   0  0  0  0  0  0  0  0  0  0  0  0
  187.3580  177.7830  146.7780 C   0  0  0  0  0  0  0  0  0  0  0  0
  186.0050  177.8730  144.6060 C   0  0  0  0  0  0  0  0  0  0  0  0
  187.3620  178.0210  148.0150 O   0  0  0  0  0  0  0  0  0  0  0  0
  184.6430  179.8410  143.9990 C   0  0  0  0  0  2  0  0  0  0  0  0
  184.7390  178.3250  143.9490 C   0  0  0  0  0  3  0  0  0  0  0  0
  183.8420  179.0020  144.9700 C   0  0  0  0  0  2  0  0  0  0  0  0
  191.3330  175.8920  138.8200 C   0  0  0  0  0  2  0  0  0  0  0  0
  192.4480  176.8030  138.3290 C   0  0  0  0  0  2  0  0  0  0  0  0
  193.5120  176.0060  137.6500 C   0  0  0  0  0  0  0  0  0  0  0  0
  195.8600  173.1450  138.2210 C   0  0  0  0  0  3  0  0  0  0  0  0
  196.7740  173.5640  136.0060 S   0  0  0  0  0  0  0  0  0  0  0  0
  195.5460  174.6000  136.4210 C   0  0  0  0  0  0  0  0  0  0  0  0
  193.9410  176.3660  136.3540 C   0  0  0  0  0  3  0  0  0  0  0  0
  195.1430  174.2340  137.6920 C   0  0  0  0  0  0  0  0  0  0  0  0
  194.1210  174.9340  138.3300 C   0  0  0  0  0  3  0  0  0  0  0  0
  196.8220  172.6440  137.3980 N   0  0  0  0  0  0  0  0  0  0  0  0
  194.9740  175.6560  135.7200 C   0  0  0  0  0  3  0  0  0  0  0  0
  1 37  1  6  0  0  0
  1 18  1  0  0  0  0
  3  2  1  6  0  0  0
  3  6  1  0  0  0  0
  3  5  1  0  0  0  0
  4  1  1  0  0  0  0
  5  4  1  0  0  0  0
  6  7  2  0  0  0  0
  7  4  1  0  0  0  0
  8  9  2  0  0  0  0
  9  6  1  0  0  0  0
 10  9  1  0  0  0  0
 12 13  1  0  0  0  0
 13 11  2  6  0  0  0
 13 14  1  0  0  0  0
 13 10  1  0  0  0  0
 15 17  1  0  0  0  0
 15 14  1  0  0  0  0
 17 16  1  0  0  0  0
 18 22  1  0  0  0  0
 19 24  1  0  0  0  0
 20 23  1  0  0  0  0
 21 25  1  1  0  0  0
 22 20  2  0  0  0  0
 22 19  1  0  0  0  0
 23 21  1  0  0  0  0
 24 21  1  0  0  0  0
 25 26  1  6  0  0  0
 25 27  1  0  0  0  0
 28 31  1  0  0  0  0
 28 27  1  0  0  0  0
 29 31  1  0  0  0  0
 30 32  2  0  0  0  0
 31 33  2  0  0  0  0
 32 29  1  0  0  0  0
 34 36  1  0  0  0  0
 35 34  1  0  0  0  0
 35 32  1  0  0  0  0
 35 36  1  0  0  0  0
 38 37  1  0  0  0  0
 39 38  1  0  0  0  0
 39 45  1  0  0  0  0
 41 42  1  0  0  0  0
 41 46  1  0  0  0  0
 42 44  1  0  0  0  0
 43 39  2  0  0  0  0
 44 40  1  0  0  0  0
 44 45  2  0  0  0  0
 46 40  2  0  0  0  0
 47 43  1  0  0  0  0
 47 42  2  0  0  0  0
M  END
>  <MODEL>
3

>  <REMARK>
 VINA RESULT:      -7.6      2.905      5.898
  Name = 
  17 active torsions:
  status: ('A' for Active; 'I' for Inactive)
    1  A    between atoms: C_2  and  C_15
    2  A    between atoms: O_4  and  P_29
    3  A    between atoms: O_4  and  C_37
    4  A    between atoms: C_11  and  C_15
    5  A    between atoms: C_11  and  C_46
    6  A    between atoms: C_12  and  C_22
    7  A    between atoms: C_12  and  C_31
    8  A    between atoms: C_17  and  C_28
    9  A    between atoms: C_20  and  C_25
   10  A    between atoms: C_20  and  P_29
   11  A    between atoms: N_21  and  C_46
   12  A    between atoms: C_22  and  C_28
   13  A    between atoms: C_25  and  C_30
   14  A    between atoms: O_32  and  C_39
   15  A    between atoms: O_32  and  C_46
   16  A    between atoms: C_33  and  C_34
   17  A    between atoms: C_37  and  C_38
                            x       y       z     vdW  Elec       q    Type
                         _______ _______ _______ _____ _____    ______ ____

>  <TORSDO>
F 17

$$$$
=
 OpenBabel11042411463D

 47 51  0  0  1  0  0  0  0  0999 V2000
  191.0950  176.7510  139.7270 C   0  0  2  0  0  3  0  0  0  0  0  0
  188.8690  179.2140  137.1360 C   0  0  0  0  0  1  0  0  0  0  0  0
  188.3250  178.2980  138.2180 C   0  0  2  0  0  3  0  0  0  0  0  0
  189.7230  177.0080  139.3030 N   0  0  0  0  0  0  0  0  0  0  0  0
  189.2280  178.2790  139.3110 O   0  0  0  0  0  0  0  0  0  0  0  0
  188.2700  176.8910  137.7340 C   0  0  0  0  0  0  0  0  0  0  0  0
  189.1060  176.1740  138.3750 N   0  0  0  0  0  0  0  0  0  0  0  0
  187.5240  176.6910  135.4960 O   0  0  0  0  0  0  0  0  0  0  0  0
  187.3700  176.3520  136.7010 C   0  0  0  0  0  0  0  0  0  0  0  0
  186.2730  175.4090  137.0650 C   0  0  0  0  0  2  0  0  0  0  0  0
  183.7280  175.5030  138.0150 O   0  0  0  0  0  1  0  0  0  0  0  0
  184.0470  176.4170  135.5810 O   0  0  0  0  0  0  0  0  0  0  0  0
  184.6840  176.2880  137.1440 P   0  0  2  0  0  0  0  0  0  0  0  0
  184.9320  177.8300  137.8090 O   0  0  0  0  0  0  0  0  0  0  0  0
  183.6710  178.2640  138.2280 C   0  0  0  0  0  2  0  0  0  0  0  0
  184.9420  178.9930  140.2180 C   0  0  0  0  0  1  0  0  0  0  0  0
  183.8320  179.3610  139.2590 C   0  0  0  0  0  2  0  0  0  0  0  0
  191.5510  177.7410  140.6540 O   0  0  0  0  0  0  0  0  0  0  0  0
  191.2560  178.8140  142.9390 C   0  0  0  0  0  2  0  0  0  0  0  0
  191.6270  176.3840  142.5670 C   0  0  0  0  0  3  0  0  0  0  0  0
  190.9560  177.2170  144.8380 C   0  0  2  0  0  3  0  0  0  0  0  0
  191.5060  177.6130  142.0500 C   0  0  0  0  0  0  0  0  0  0  0  0
  191.6590  176.1140  144.0440 C   0  0  0  0  0  2  0  0  0  0  0  0
  191.5680  178.5510  144.4120 C   0  0  0  0  0  2  0  0  0  0  0  0
  191.1180  176.9980  146.3460 C   0  0  2  0  0  3  0  0  0  0  0  0
  191.8580  175.6970  146.6230 C   0  0  0  0  0  1  0  0  0  0  0  0
  189.7550  176.9410  147.0210 C   0  0  0  0  0  2  0  0  0  0  0  0
  188.6550  177.1460  145.9970 C   0  0  0  0  0  2  0  0  0  0  0  0
  186.2590  178.0470  145.9170 N   0  0  0  0  0  2  0  0  0  0  0  0
  186.9450  177.3340  143.7860 O   0  0  0  0  0  0  0  0  0  0  0  0
  187.4390  177.7070  146.6590 C   0  0  0  0  0  0  0  0  0  0  0  0
  186.0630  177.8820  144.5060 C   0  0  0  0  0  0  0  0  0  0  0  0
  187.4440  177.8650  147.9080 O   0  0  0  0  0  0  0  0  0  0  0  0
  184.6650  179.8380  143.9460 C   0  0  0  0  0  2  0  0  0  0  0  0
  184.7740  178.3230  143.8880 C   0  0  0  0  0  3  0  0  0  0  0  0
  183.9010  178.9870  144.9370 C   0  0  0  0  0  2  0  0  0  0  0  0
  192.0290  176.6520  138.5250 C   0  0  0  0  0  2  0  0  0  0  0  0
  192.3290  175.1980  138.1940 C   0  0  0  0  0  2  0  0  0  0  0  0
  193.6450  175.0830  137.4990 C   0  0  0  0  0  0  0  0  0  0  0  0
  197.0860  173.6700  137.9330 C   0  0  0  0  0  3  0  0  0  0  0  0
  197.6810  174.6900  135.8060 S   0  0  0  0  0  0  0  0  0  0  0  0
  196.1050  174.9600  136.2510 C   0  0  0  0  0  0  0  0  0  0  0  0
  193.8450  175.7290  136.2600 C   0  0  0  0  0  3  0  0  0  0  0  0
  195.9320  174.3230  137.4660 C   0  0  0  0  0  0  0  0  0  0  0  0
  194.6980  174.3780  138.1140 C   0  0  0  0  0  3  0  0  0  0  0  0
  198.1700  173.7770  137.1150 N   0  0  0  0  0  0  0  0  0  0  0  0
  195.0920  175.6700  135.6170 C   0  0  0  0  0  3  0  0  0  0  0  0
  1 37  1  6  0  0  0
  1 18  1  0  0  0  0
  3  2  1  6  0  0  0
  3  5  1  0  0  0  0
  4  5  1  0  0  0  0
  4  1  1  0  0  0  0
  6  3  1  0  0  0  0
  6  7  2  0  0  0  0
  7  4  1  0  0  0  0
  8  9  2  0  0  0  0
  9 10  1  0  0  0  0
  9  6  1  0  0  0  0
 10 13  1  0  0  0  0
 13 12  2  6  0  0  0
 13 14  1  0  0  0  0
 13 11  1  0  0  0  0
 14 15  1  0  0  0  0
 15 17  1  0  0  0  0
 17 16  1  0  0  0  0
 18 22  1  0  0  0  0
 19 24  1  0  0  0  0
 20 23  1  0  0  0  0
 21 25  1  1  0  0  0
 22 20  2  0  0  0  0
 22 19  1  0  0  0  0
 23 21  1  0  0  0  0
 24 21  1  0  0  0  0
 25 26  1  6  0  0  0
 25 27  1  0  0  0  0
 28 31  1  0  0  0  0
 28 27  1  0  0  0  0
 29 31  1  0  0  0  0
 30 32  2  0  0  0  0
 31 33  2  0  0  0  0
 32 29  1  0  0  0  0
 34 36  1  0  0  0  0
 35 34  1  0  0  0  0
 35 32  1  0  0  0  0
 35 36  1  0  0  0  0
 38 37  1  0  0  0  0
 39 45  1  0  0  0  0
 39 38  1  0  0  0  0
 41 42  1  0  0  0  0
 41 46  1  0  0  0  0
 42 44  1  0  0  0  0
 43 39  2  0  0  0  0
 44 40  1  0  0  0  0
 44 45  2  0  0  0  0
 46 40  2  0  0  0  0
 47 42  2  0  0  0  0
 47 43  1  0  0  0  0
M  END
>  <MODEL>
4

>  <REMARK>
 VINA RESULT:      -7.5      2.531      4.775
  Name = 
  17 active torsions:
  status: ('A' for Active; 'I' for Inactive)
    1  A    between atoms: C_2  and  C_15
    2  A    between atoms: O_4  and  P_29
    3  A    between atoms: O_4  and  C_37
    4  A    between atoms: C_11  and  C_15
    5  A    between atoms: C_11  and  C_46
    6  A    between atoms: C_12  and  C_22
    7  A    between atoms: C_12  and  C_31
    8  A    between atoms: C_17  and  C_28
    9  A    between atoms: C_20  and  C_25
   10  A    between atoms: C_20  and  P_29
   11  A    between atoms: N_21  and  C_46
   12  A    between atoms: C_22  and  C_28
   13  A    between atoms: C_25  and  C_30
   14  A    between atoms: O_32  and  C_39
   15  A    between atoms: O_32  and  C_46
   16  A    between atoms: C_33  and  C_34
   17  A    between atoms: C_37  and  C_38
                            x       y       z     vdW  Elec       q    Type
                         _______ _______ _______ _____ _____    ______ ____

>  <TORSDO>
F 17

$$$$
=
 OpenBabel11042411463D

 47 51  0  0  1  0  0  0  0  0999 V2000
  189.0350  176.8160  138.9990 C   0  0  2  0  0  3  0  0  0  0  0  0
  190.8450  175.6400  135.3830 C   0  0  0  0  0  1  0  0  0  0  0  0
  191.0190  174.9930  136.7460 C   0  0  2  0  0  3  0  0  0  0  0  0
  190.0730  175.9300  138.4840 N   0  0  0  0  0  0  0  0  0  0  0  0
  189.7970  175.0720  137.4590 O   0  0  0  0  0  0  0  0  0  0  0  0
  192.0000  175.7550  137.5670 C   0  0  0  0  0  0  0  0  0  0  0  0
  191.4130  176.2990  138.5570 N   0  0  0  0  0  0  0  0  0  0  0  0
  193.9950  176.9920  137.2620 O   0  0  0  0  0  0  0  0  0  0  0  0
  193.4490  175.8580  137.3320 C   0  0  0  0  0  0  0  0  0  0  0  0
  194.2830  174.6310  137.1710 C   0  0  0  0  0  2  0  0  0  0  0  0
  195.3690  173.0740  139.1160 O   0  0  0  0  0  0  0  0  0  0  0  0
  195.0330  175.5900  139.7580 O   0  0  0  0  0  1  0  0  0  0  0  0
  195.4520  174.4750  138.5540 P   0  0  2  0  0  0  0  0  0  0  0  0
  197.0250  174.7770  137.9920 O   0  0  0  0  0  0  0  0  0  0  0  0
  196.9420  174.7100  136.5970 C   0  0  0  0  0  2  0  0  0  0  0  0
  197.3460  172.3880  135.8570 C   0  0  0  0  0  1  0  0  0  0  0  0
  197.9830  173.7420  136.0770 C   0  0  0  0  0  2  0  0  0  0  0  0
  188.3060  177.4420  137.9390 O   0  0  0  0  0  0  0  0  0  0  0  0
  186.1850  176.3380  137.0780 C   0  0  0  0  0  2  0  0  0  0  0  0
  186.2320  178.4210  138.4360 C   0  0  0  0  0  3  0  0  0  0  0  0
  184.0530  177.2490  138.0120 C   0  0  2  0  0  3  0  0  0  0  0  0
  186.9080  177.4440  137.8190 C   0  0  0  0  0  0  0  0  0  0  0  0
  184.7410  178.5760  138.3370 C   0  0  0  0  0  2  0  0  0  0  0  0
  184.7260  176.6740  136.7670 C   0  0  0  0  0  2  0  0  0  0  0  0
  182.5520  177.4510  137.7790 C   0  0  2  0  0  3  0  0  0  0  0  0
  182.2290  178.9280  137.6070 C   0  0  0  0  0  1  0  0  0  0  0  0
  181.7560  176.9080  138.9570 C   0  0  0  0  0  2  0  0  0  0  0  0
  182.5420  177.0780  140.2430 C   0  0  0  0  0  2  0  0  0  0  0  0
  182.5700  178.7640  142.1690 N   0  0  0  0  0  2  0  0  0  0  0  0
  184.7270  177.9150  141.7850 O   0  0  0  0  0  0  0  0  0  0  0  0
  181.8660  178.0720  141.1290 C   0  0  0  0  0  0  0  0  0  0  0  0
  183.9640  178.6390  142.4840 C   0  0  0  0  0  0  0  0  0  0  0  0
  180.6480  178.3250  140.9410 O   0  0  0  0  0  0  0  0  0  0  0  0
  185.1740  178.4690  144.6290 C   0  0  0  0  0  2  0  0  0  0  0  0
  184.5300  179.4160  143.6300 C   0  0  0  0  0  3  0  0  0  0  0  0
  183.8050  179.0460  144.9120 C   0  0  0  0  0  2  0  0  0  0  0  0
  189.6250  177.8540  139.9480 C   0  0  0  0  0  2  0  0  0  0  0  0
  188.7390  178.0310  141.1720 C   0  0  0  0  0  2  0  0  0  0  0  0
  189.4790  177.6490  142.4110 C   0  0  0  0  0  0  0  0  0  0  0  0
  189.0080  177.2090  146.1000 C   0  0  0  0  0  3  0  0  0  0  0  0
  191.3870  176.7220  146.2590 S   0  0  0  0  0  0  0  0  0  0  0  0
  190.8790  177.0380  144.7120 C   0  0  0  0  0  0  0  0  0  0  0  0
  190.8660  177.3890  142.3500 C   0  0  0  0  0  3  0  0  0  0  0  0
  189.5220  177.2920  144.7940 C   0  0  0  0  0  0  0  0  0  0  0  0
  188.8000  177.6070  143.6440 C   0  0  0  0  0  3  0  0  0  0  0  0
  189.9290  176.8960  147.0530 N   0  0  0  0  0  0  0  0  0  0  0  0
  191.5850  177.0760  143.5140 C   0  0  0  0  0  3  0  0  0  0  0  0
  1 37  1  1  0  0  0
  3  2  1  6  0  0  0
  3  5  1  0  0  0  0
  3  6  1  0  0  0  0
  4  7  1  0  0  0  0
  4  1  1  0  0  0  0
  5  4  1  0  0  0  0
  6  7  2  0  0  0  0
  8  9  2  0  0  0  0
  9  6  1  0  0  0  0
 10  9  1  0  0  0  0
 10 13  1  0  0  0  0
 13 11  2  1  0  0  0
 13 12  1  0  0  0  0
 14 13  1  0  0  0  0
 15 14  1  0  0  0  0
 16 17  1  0  0  0  0
 17 15  1  0  0  0  0
 18  1  1  0  0  0  0
 19 22  1  0  0  0  0
 21 25  1  6  0  0  0
 21 23  1  0  0  0  0
 22 18  1  0  0  0  0
 22 20  2  0  0  0  0
 23 20  1  0  0  0  0
 24 19  1  0  0  0  0
 24 21  1  0  0  0  0
 25 26  1  1  0  0  0
 25 27  1  0  0  0  0
 27 28  1  0  0  0  0
 28 31  1  0  0  0  0
 29 32  1  0  0  0  0
 30 32  2  0  0  0  0
 31 29  1  0  0  0  0
 32 35  1  0  0  0  0
 33 31  2  0  0  0  0
 34 36  1  0  0  0  0
 35 34  1  0  0  0  0
 35 36  1  0  0  0  0
 37 38  1  0  0  0  0
 38 39  1  0  0  0  0
 39 45  1  0  0  0  0
 40 46  2  0  0  0  0
 41 46  1  0  0  0  0
 42 44  1  0  0  0  0
 42 41  1  0  0  0  0
 43 39  2  0  0  0  0
 43 47  1  0  0  0  0
 44 40  1  0  0  0  0
 45 44  2  0  0  0  0
 47 42  2  0  0  0  0
M  END
>  <MODEL>
5

>  <REMARK>
 VINA RESULT:      -7.4      4.215      9.582
  Name = 
  17 active torsions:
  status: ('A' for Active; 'I' for Inactive)
    1  A    between atoms: C_2  and  C_15
    2  A    between atoms: O_4  and  P_29
    3  A    between atoms: O_4  and  C_37
    4  A    between atoms: C_11  and  C_15
    5  A    between atoms: C_11  and  C_46
    6  A    between atoms: C_12  and  C_22
    7  A    between atoms: C_12  and  C_31
    8  A    between atoms: C_17  and  C_28
    9  A    between atoms: C_20  and  C_25
   10  A    between atoms: C_20  and  P_29
   11  A    between atoms: N_21  and  C_46
   12  A    between atoms: C_22  and  C_28
   13  A    between atoms: C_25  and  C_30
   14  A    between atoms: O_32  and  C_39
   15  A    between atoms: O_32  and  C_46
   16  A    between atoms: C_33  and  C_34
   17  A    between atoms: C_37  and  C_38
                            x       y       z     vdW  Elec       q    Type
                         _______ _______ _______ _____ _____    ______ ____

>  <TORSDO>
F 17

$$$$
=
 OpenBabel11042411463D

 47 51  0  0  1  0  0  0  0  0999 V2000
  185.3080  179.0640  141.3250 C   0  0  2  0  0  3  0  0  0  0  0  0
  188.7520  176.9290  140.1750 C   0  0  0  0  0  1  0  0  0  0  0  0
  188.2930  178.2770  139.6470 C   0  0  2  0  0  3  0  0  0  0  0  0
  186.3640  179.0670  140.3180 N   0  0  0  0  0  0  0  0  0  0  0  0
  187.6740  179.0020  140.6960 O   0  0  0  0  0  0  0  0  0  0  0  0
  187.2330  178.1020  138.6150 C   0  0  0  0  0  0  0  0  0  0  0  0
  186.1240  178.5570  139.0460 N   0  0  0  0  0  0  0  0  0  0  0  0
  188.0300  178.1810  136.3880 O   0  0  0  0  0  0  0  0  0  0  0  0
  187.4040  177.5330  137.2690 C   0  0  0  0  0  0  0  0  0  0  0  0
  186.8400  176.1930  136.9330 C   0  0  0  0  0  2  0  0  0  0  0  0
  188.6360  175.3060  135.0970 O   0  0  0  0  0  0  0  0  0  0  0  0
  187.5840  173.4500  136.6150 O   0  0  0  0  0  1  0  0  0  0  0  0
  188.1750  175.0330  136.5110 P   0  0  2  0  0  0  0  0  0  0  0  0
  189.4670  175.2530  137.5900 O   0  0  0  0  0  0  0  0  0  0  0  0
  190.5390  175.6900  136.8050 C   0  0  0  0  0  2  0  0  0  0  0  0
  192.7660  176.2940  137.6890 C   0  0  0  0  0  1  0  0  0  0  0  0
  191.3260  176.7380  137.5640 C   0  0  0  0  0  2  0  0  0  0  0  0
  185.3250  177.8590  142.0980 O   0  0  0  0  0  0  0  0  0  0  0  0
  187.2380  177.1110  143.5950 C   0  0  0  0  0  2  0  0  0  0  0  0
  185.1850  178.2560  144.4060 C   0  0  0  0  0  3  0  0  0  0  0  0
  187.1430  177.9490  145.9470 C   0  0  2  0  0  3  0  0  0  0  0  0
  185.8760  177.7390  143.3830 C   0  0  0  0  0  0  0  0  0  0  0  0
  185.6300  178.1410  145.8370 C   0  0  0  0  0  2  0  0  0  0  0  0
  187.5240  176.7670  145.0570 C   0  0  0  0  0  2  0  0  0  0  0  0
  187.5610  177.6960  147.4000 C   0  0  2  0  0  3  0  0  0  0  0  0
  187.9590  178.9990  148.0790 C   0  0  0  0  0  1  0  0  0  0  0  0
  188.7410  176.7360  147.4510 C   0  0  0  0  0  2  0  0  0  0  0  0
  190.0290  177.5020  147.6860 C   0  0  0  0  0  2  0  0  0  0  0  0
  191.6740  177.0010  145.7890 N   0  0  0  0  0  2  0  0  0  0  0  0
  190.2610  178.7850  145.2060 O   0  0  0  0  0  0  0  0  0  0  0  0
  191.1840  176.7490  147.1130 C   0  0  0  0  0  0  0  0  0  0  0  0
  191.1770  177.9840  144.8700 C   0  0  0  0  0  0  0  0  0  0  0  0
  191.7580  175.8820  147.8240 O   0  0  0  0  0  0  0  0  0  0  0  0
  190.7210  177.8770  142.4460 C   0  0  0  0  0  2  0  0  0  0  0  0
  191.7870  178.0900  143.5080 C   0  0  0  0  0  3  0  0  0  0  0  0
  191.6790  176.7570  142.7900 C   0  0  0  0  0  2  0  0  0  0  0  0
  183.9420  179.2870  140.6850 C   0  0  0  0  0  2  0  0  0  0  0  0
  182.8970  178.3800  141.3160 C   0  0  0  0  0  2  0  0  0  0  0  0
  182.2650  177.5130  140.2780 C   0  0  0  0  0  0  0  0  0  0  0  0
  183.0860  174.8630  137.7620 C   0  0  0  0  0  3  0  0  0  0  0  0
  180.7580  174.9300  137.0580 S   0  0  0  0  0  0  0  0  0  0  0  0
  181.1060  175.9830  138.2920 C   0  0  0  0  0  0  0  0  0  0  0  0
  180.8930  177.6620  139.9770 C   0  0  0  0  0  3  0  0  0  0  0  0
  182.4510  175.8240  138.5690 C   0  0  0  0  0  0  0  0  0  0  0  0
  183.0550  176.5910  139.5650 C   0  0  0  0  0  3  0  0  0  0  0  0
  182.2730  174.2600  136.8510 N   0  0  0  0  0  0  0  0  0  0  0  0
  180.2950  176.8870  138.9700 C   0  0  0  0  0  3  0  0  0  0  0  0
  1 37  1  6  0  0  0
  1 18  1  0  0  0  0
  3  2  1  1  0  0  0
  3  5  1  0  0  0  0
  4  5  1  0  0  0  0
  4  1  1  0  0  0  0
  6  7  2  0  0  0  0
  6  3  1  0  0  0  0
  7  4  1  0  0  0  0
  8  9  2  0  0  0  0
  9  6  1  0  0  0  0
 10  9  1  0  0  0  0
 13 11  2  6  0  0  0
 13 12  1  0  0  0  0
 13 10  1  0  0  0  0
 13 14  1  0  0  0  0
 15 17  1  0  0  0  0
 15 14  1  0  0  0  0
 17 16  1  0  0  0  0
 18 22  1  0  0  0  0
 19 24  1  0  0  0  0
 20 23  1  0  0  0  0
 21 25  1  1  0  0  0
 22 19  1  0  0  0  0
 22 20  2  0  0  0  0
 23 21  1  0  0  0  0
 24 21  1  0  0  0  0
 25 27  1  0  0  0  0
 25 26  1  6  0  0  0
 27 28  1  0  0  0  0
 29 31  1  0  0  0  0
 31 28  1  0  0  0  0
 31 33  2  0  0  0  0
 32 30  2  0  0  0  0
 32 29  1  0  0  0  0
 34 36  1  0  0  0  0
 34 35  1  0  0  0  0
 35 32  1  0  0  0  0
 36 35  1  0  0  0  0
 37 38  1  0  0  0  0
 39 38  1  0  0  0  0
 40 44  1  0  0  0  0
 41 42  1  0  0  0  0
 42 44  2  0  0  0  0
 42 47  1  0  0  0  0
 43 39  1  0  0  0  0
 44 45  1  0  0  0  0
 45 39  2  0  0  0  0
 46 41  1  0  0  0  0
 46 40  2  0  0  0  0
 47 43  2  0  0  0  0
M  END
>  <MODEL>
6

>  <REMARK>
 VINA RESULT:      -7.2      3.346      6.778
  Name = 
  17 active torsions:
  status: ('A' for Active; 'I' for Inactive)
    1  A    between atoms: C_2  and  C_15
    2  A    between atoms: O_4  and  P_29
    3  A    between atoms: O_4  and  C_37
    4  A    between atoms: C_11  and  C_15
    5  A    between atoms: C_11  and  C_46
    6  A    between atoms: C_12  and  C_22
    7  A    between atoms: C_12  and  C_31
    8  A    between atoms: C_17  and  C_28
    9  A    between atoms: C_20  and  C_25
   10  A    between atoms: C_20  and  P_29
   11  A    between atoms: N_21  and  C_46
   12  A    between atoms: C_22  and  C_28
   13  A    between atoms: C_25  and  C_30
   14  A    between atoms: O_32  and  C_39
   15  A    between atoms: O_32  and  C_46
   16  A    between atoms: C_33  and  C_34
   17  A    between atoms: C_37  and  C_38
                            x       y       z     vdW  Elec       q    Type
                         _______ _______ _______ _____ _____    ______ ____

>  <TORSDO>
F 17

$$$$
=
 OpenBabel11042411463D

 47 51  0  0  1  0  0  0  0  0999 V2000
  184.6950  179.0290  142.8790 C   0  0  2  0  0  3  0  0  0  0  0  0
  180.5970  179.9380  143.2240 C   0  0  0  0  0  1  0  0  0  0  0  0
  181.2070  178.6280  142.7580 C   0  0  2  0  0  3  0  0  0  0  0  0
  183.3810  178.5050  142.5240 N   0  0  0  0  0  0  0  0  0  0  0  0
  182.4070  178.3910  143.4730 O   0  0  0  0  0  0  0  0  0  0  0  0
  181.6160  178.7210  141.3290 C   0  0  0  0  0  0  0  0  0  0  0  0
  182.8860  178.6620  141.2330 N   0  0  0  0  0  0  0  0  0  0  0  0
  180.1940  177.7840  139.6850 O   0  0  0  0  0  0  0  0  0  0  0  0
  180.7230  178.8240  140.1640 C   0  0  0  0  0  0  0  0  0  0  0  0
  180.4370  180.1480  139.5400 C   0  0  0  0  0  2  0  0  0  0  0  0
  181.8010  179.1310  137.4200 O   0  0  0  0  0  0  0  0  0  0  0  0
  183.0250  181.0470  138.7200 O   0  0  0  0  0  1  0  0  0  0  0  0
  181.5560  180.4400  138.1370 P   0  0  2  0  0  0  0  0  0  0  0  0
  180.8390  181.5520  137.0730 O   0  0  0  0  0  0  0  0  0  0  0  0
  180.7470  182.7490  137.7900 C   0  0  0  0  0  2  0  0  0  0  0  0
  180.5660  185.0060  136.8030 C   0  0  0  0  0  1  0  0  0  0  0  0
  181.4940  183.8380  137.0490 C   0  0  0  0  0  2  0  0  0  0  0  0
  185.3260  179.6620  141.7600 O   0  0  0  0  0  0  0  0  0  0  0  0
  185.6130  178.7690  139.3980 C   0  0  0  0  0  2  0  0  0  0  0  0
  187.3550  178.6440  141.1680 C   0  0  0  0  0  3  0  0  0  0  0  0
  187.9390  178.0840  138.7920 C   0  0  2  0  0  3  0  0  0  0  0  0
  186.1170  179.0020  140.8080 C   0  0  0  0  0  0  0  0  0  0  0  0
  188.2830  177.8780  140.2680 C   0  0  0  0  0  2  0  0  0  0  0  0
  186.4560  177.7630  138.6150 C   0  0  0  0  0  2  0  0  0  0  0  0
  188.8030  177.1900  137.8960 C   0  0  2  0  0  3  0  0  0  0  0  0
  187.9460  176.1520  137.1860 C   0  0  0  0  0  1  0  0  0  0  0  0
  189.8580  176.4710  138.7260 C   0  0  0  0  0  2  0  0  0  0  0  0
  191.1400  176.3240  137.9280 C   0  0  0  0  0  2  0  0  0  0  0  0
  192.8050  174.3900  137.7160 N   0  0  0  0  0  2  0  0  0  0  0  0
  193.9290  176.3990  138.1860 O   0  0  0  0  0  0  0  0  0  0  0  0
  191.4560  174.8790  137.7290 C   0  0  0  0  0  0  0  0  0  0  0  0
  193.9940  175.1690  137.9100 C   0  0  0  0  0  0  0  0  0  0  0  0
  190.5080  174.0620  137.5930 O   0  0  0  0  0  0  0  0  0  0  0  0
  195.3610  173.5470  136.6460 C   0  0  0  0  0  2  0  0  0  0  0  0
  195.3300  174.5000  137.8310 C   0  0  0  0  0  3  0  0  0  0  0  0
  195.1710  173.0050  138.0460 C   0  0  0  0  0  2  0  0  0  0  0  0
  185.5810  177.9330  143.4620 C   0  0  0  0  0  2  0  0  0  0  0  0
  185.7310  178.1060  144.9660 C   0  0  0  0  0  2  0  0  0  0  0  0
  187.1330  177.8150  145.3870 C   0  0  0  0  0  0  0  0  0  0  0  0
  190.4720  176.8270  144.0070 C   0  0  0  0  0  3  0  0  0  0  0  0
  191.2990  176.7520  146.2940 S   0  0  0  0  0  0  0  0  0  0  0  0
  189.7010  177.1820  146.1830 C   0  0  0  0  0  0  0  0  0  0  0  0
  187.4700  177.8110  146.7580 C   0  0  0  0  0  3  0  0  0  0  0  0
  189.3900  177.1770  144.8350 C   0  0  0  0  0  0  0  0  0  0  0  0
  188.0990  177.4890  144.4150 C   0  0  0  0  0  3  0  0  0  0  0  0
  191.6300  176.5540  144.6700 N   0  0  0  0  0  0  0  0  0  0  0  0
  188.7730  177.4920  147.1720 C   0  0  0  0  0  3  0  0  0  0  0  0
  1 37  1  6  0  0  0
  3  2  1  1  0  0  0
  3  5  1  0  0  0  0
  4  1  1  0  0  0  0
  4  5  1  0  0  0  0
  6  3  1  0  0  0  0
  7  6  2  0  0  0  0
  7  4  1  0  0  0  0
  8  9  2  0  0  0  0
  9  6  1  0  0  0  0
 10  9  1  0  0  0  0
 13 11  2  6  0  0  0
 13 12  1  0  0  0  0
 13 10  1  0  0  0  0
 14 15  1  0  0  0  0
 14 13  1  0  0  0  0
 16 17  1  0  0  0  0
 17 15  1  0  0  0  0
 18  1  1  0  0  0  0
 19 22  1  0  0  0  0
 21 25  1  6  0  0  0
 21 23  1  0  0  0  0
 22 20  2  0  0  0  0
 22 18  1  0  0  0  0
 23 20  1  0  0  0  0
 24 21  1  0  0  0  0
 24 19  1  0  0  0  0
 25 26  1  1  0  0  0
 25 27  1  0  0  0  0
 28 27  1  0  0  0  0
 29 31  1  0  0  0  0
 29 32  1  0  0  0  0
 31 28  1  0  0  0  0
 32 30  2  0  0  0  0
 33 31  2  0  0  0  0
 34 35  1  0  0  0  0
 34 36  1  0  0  0  0
 35 32  1  0  0  0  0
 35 36  1  0  0  0  0
 37 38  1  0  0  0  0
 38 39  1  0  0  0  0
 39 43  1  0  0  0  0
 40 46  2  0  0  0  0
 40 44  1  0  0  0  0
 42 41  1  0  0  0  0
 42 47  1  0  0  0  0
 43 47  2  0  0  0  0
 44 42  2  0  0  0  0
 45 44  1  0  0  0  0
 45 39  2  0  0  0  0
 46 41  1  0  0  0  0
M  END
>  <MODEL>
7

>  <REMARK>
 VINA RESULT:      -7.1      3.210      7.225
  Name = 
  17 active torsions:
  status: ('A' for Active; 'I' for Inactive)
    1  A    between atoms: C_2  and  C_15
    2  A    between atoms: O_4  and  P_29
    3  A    between atoms: O_4  and  C_37
    4  A    between atoms: C_11  and  C_15
    5  A    between atoms: C_11  and  C_46
    6  A    between atoms: C_12  and  C_22
    7  A    between atoms: C_12  and  C_31
    8  A    between atoms: C_17  and  C_28
    9  A    between atoms: C_20  and  C_25
   10  A    between atoms: C_20  and  P_29
   11  A    between atoms: N_21  and  C_46
   12  A    between atoms: C_22  and  C_28
   13  A    between atoms: C_25  and  C_30
   14  A    between atoms: O_32  and  C_39
   15  A    between atoms: O_32  and  C_46
   16  A    between atoms: C_33  and  C_34
   17  A    between atoms: C_37  and  C_38
                            x       y       z     vdW  Elec       q    Type
                         _______ _______ _______ _____ _____    ______ ____

>  <TORSDO>
F 17

$$$$
=
 OpenBabel11042411463D

 47 51  0  0  1  0  0  0  0  0999 V2000
  184.7820  179.1090  143.1990 C   0  0  2  0  0  3  0  0  0  0  0  0
  180.6600  179.9170  143.5100 C   0  0  0  0  0  1  0  0  0  0  0  0
  181.3060  178.6240  143.0440 C   0  0  2  0  0  3  0  0  0  0  0  0
  183.4840  178.5540  142.8300 N   0  0  0  0  0  0  0  0  0  0  0  0
  182.5050  178.4130  143.7700 O   0  0  0  0  0  0  0  0  0  0  0  0
  181.7260  178.7320  141.6190 C   0  0  0  0  0  0  0  0  0  0  0  0
  182.9970  178.7050  141.5350 N   0  0  0  0  0  0  0  0  0  0  0  0
  180.6770  179.9230  139.8630 O   0  0  0  0  0  0  0  0  0  0  0  0
  180.8410  178.8180  140.4470 C   0  0  0  0  0  0  0  0  0  0  0  0
  180.1290  177.6070  139.9420 C   0  0  0  0  0  2  0  0  0  0  0  0
  180.3830  175.6700  138.0520 O   0  0  0  0  0  0  0  0  0  0  0  0
  182.3260  175.7820  139.8050 O   0  0  0  0  0  1  0  0  0  0  0  0
  181.2200  176.6420  138.8540 P   0  0  2  0  0  0  0  0  0  0  0  0
  182.0380  177.6970  137.8060 O   0  0  0  0  0  0  0  0  0  0  0  0
  181.6390  177.3280  136.5170 C   0  0  0  0  0  2  0  0  0  0  0  0
  184.0510  176.8240  136.3430 C   0  0  0  0  0  1  0  0  0  0  0  0
  182.8410  177.3360  135.5960 C   0  0  0  0  0  2  0  0  0  0  0  0
  185.4160  179.7450  142.0840 O   0  0  0  0  0  0  0  0  0  0  0  0
  185.6550  178.8940  139.7010 C   0  0  0  0  0  2  0  0  0  0  0  0
  187.4080  178.6800  141.4520 C   0  0  0  0  0  3  0  0  0  0  0  0
  187.9540  178.1530  139.0590 C   0  0  2  0  0  3  0  0  0  0  0  0
  186.1780  179.0820  141.1110 C   0  0  0  0  0  0  0  0  0  0  0  0
  188.3050  177.9060  140.5270 C   0  0  0  0  0  2  0  0  0  0  0  0
  186.4610  177.8800  138.8890 C   0  0  0  0  0  2  0  0  0  0  0  0
  188.7830  177.2530  138.1370 C   0  0  2  0  0  3  0  0  0  0  0  0
  187.8830  176.2920  137.3730 C   0  0  0  0  0  1  0  0  0  0  0  0
  189.7870  176.4460  138.9480 C   0  0  0  0  0  2  0  0  0  0  0  0
  191.1130  176.3700  138.2130 C   0  0  0  0  0  2  0  0  0  0  0  0
  192.7290  174.4550  137.6890 N   0  0  0  0  0  2  0  0  0  0  0  0
  193.9080  176.3580  138.4020 O   0  0  0  0  0  0  0  0  0  0  0  0
  191.3920  174.9600  137.8070 C   0  0  0  0  0  0  0  0  0  0  0  0
  193.9390  175.1770  137.9570 C   0  0  0  0  0  0  0  0  0  0  0  0
  190.4230  174.1880  137.5850 O   0  0  0  0  0  0  0  0  0  0  0  0
  195.2220  173.1030  138.3420 C   0  0  0  0  0  2  0  0  0  0  0  0
  195.2580  174.5020  137.7480 C   0  0  0  0  0  3  0  0  0  0  0  0
  195.9120  174.2230  139.0900 C   0  0  0  0  0  2  0  0  0  0  0  0
  185.6810  178.0370  143.8050 C   0  0  0  0  0  2  0  0  0  0  0  0
  185.7660  178.1950  145.3150 C   0  0  0  0  0  2  0  0  0  0  0  0
  187.1430  177.8780  145.7960 C   0  0  0  0  0  0  0  0  0  0  0  0
  190.5330  176.8790  144.5570 C   0  0  0  0  0  3  0  0  0  0  0  0
  191.2490  176.7470  146.8790 S   0  0  0  0  0  0  0  0  0  0  0  0
  189.6620  177.1990  146.7010 C   0  0  0  0  0  0  0  0  0  0  0  0
  187.4140  177.8430  147.1810 C   0  0  0  0  0  3  0  0  0  0  0  0
  189.4170  177.2240  145.3400 C   0  0  0  0  0  0  0  0  0  0  0  0
  188.1500  177.5610  144.8650 C   0  0  0  0  0  3  0  0  0  0  0  0
  191.6550  176.5790  145.2690 N   0  0  0  0  0  0  0  0  0  0  0  0
  188.6920  177.5000  147.6510 C   0  0  0  0  0  3  0  0  0  0  0  0
  1 37  1  6  0  0  0
  3  2  1  1  0  0  0
  3  5  1  0  0  0  0
  4  1  1  0  0  0  0
  4  5  1  0  0  0  0
  6  3  1  0  0  0  0
  7  6  2  0  0  0  0
  7  4  1  0  0  0  0
  8  9  2  0  0  0  0
  9  6  1  0  0  0  0
 10  9  1  0  0  0  0
 13 11  2  6  0  0  0
 13 12  1  0  0  0  0
 13 10  1  0  0  0  0
 14 13  1  0  0  0  0
 15 14  1  0  0  0  0
 17 16  1  0  0  0  0
 17 15  1  0  0  0  0
 18  1  1  0  0  0  0
 19 22  1  0  0  0  0
 21 25  1  6  0  0  0
 21 23  1  0  0  0  0
 22 20  2  0  0  0  0
 22 18  1  0  0  0  0
 23 20  1  0  0  0  0
 24 21  1  0  0  0  0
 24 19  1  0  0  0  0
 25 26  1  1  0  0  0
 25 27  1  0  0  0  0
 28 27  1  0  0  0  0
 29 31  1  0  0  0  0
 29 32  1  0  0  0  0
 31 28  1  0  0  0  0
 32 30  2  0  0  0  0
 33 31  2  0  0  0  0
 34 36  1  0  0  0  0
 35 32  1  0  0  0  0
 35 34  1  0  0  0  0
 35 36  1  0  0  0  0
 37 38  1  0  0  0  0
 38 39  1  0  0  0  0
 39 43  1  0  0  0  0
 40 46  2  0  0  0  0
 40 44  1  0  0  0  0
 42 41  1  0  0  0  0
 42 47  1  0  0  0  0
 43 47  2  0  0  0  0
 44 42  2  0  0  0  0
 45 44  1  0  0  0  0
 45 39  2  0  0  0  0
 46 41  1  0  0  0  0
M  END
>  <MODEL>
8

>  <REMARK>
 VINA RESULT:      -7.1      2.823      7.252
  Name = 
  17 active torsions:
  status: ('A' for Active; 'I' for Inactive)
    1  A    between atoms: C_2  and  C_15
    2  A    between atoms: O_4  and  P_29
    3  A    between atoms: O_4  and  C_37
    4  A    between atoms: C_11  and  C_15
    5  A    between atoms: C_11  and  C_46
    6  A    between atoms: C_12  and  C_22
    7  A    between atoms: C_12  and  C_31
    8  A    between atoms: C_17  and  C_28
    9  A    between atoms: C_20  and  C_25
   10  A    between atoms: C_20  and  P_29
   11  A    between atoms: N_21  and  C_46
   12  A    between atoms: C_22  and  C_28
   13  A    between atoms: C_25  and  C_30
   14  A    between atoms: O_32  and  C_39
   15  A    between atoms: O_32  and  C_46
   16  A    between atoms: C_33  and  C_34
   17  A    between atoms: C_37  and  C_38
                            x       y       z     vdW  Elec       q    Type
                         _______ _______ _______ _____ _____    ______ ____

>  <TORSDO>
F 17

$$$$
=
 OpenBabel11042411463D

 47 51  0  0  1  0  0  0  0  0999 V2000
  185.3820  179.0110  141.3930 C   0  0  2  0  0  3  0  0  0  0  0  0
  181.3350  178.1210  140.6470 C   0  0  0  0  0  1  0  0  0  0  0  0
  182.4790  178.0770  139.6500 C   0  0  2  0  0  3  0  0  0  0  0  0
  184.4600  178.7550  140.2930 N   0  0  0  0  0  0  0  0  0  0  0  0
  183.6580  177.6500  140.3120 O   0  0  0  0  0  0  0  0  0  0  0  0
  182.7870  179.4430  139.1450 C   0  0  0  0  0  0  0  0  0  0  0  0
  183.9380  179.8110  139.5520 N   0  0  0  0  0  0  0  0  0  0  0  0
  181.6050  179.8390  137.1330 O   0  0  0  0  0  0  0  0  0  0  0  0
  181.9390  180.2680  138.2710 C   0  0  0  0  0  0  0  0  0  0  0  0
  181.4700  181.6130  138.7150 C   0  0  0  0  0  2  0  0  0  0  0  0
  179.4600  181.6970  140.5410 O   0  0  0  0  0  1  0  0  0  0  0  0
  179.0460  180.1120  138.4970 O   0  0  0  0  0  0  0  0  0  0  0  0
  179.6840  181.5800  139.0500 P   0  0  2  0  0  0  0  0  0  0  0  0
  178.9430  182.8830  138.2540 O   0  0  0  0  0  0  0  0  0  0  0  0
  179.6520  183.0430  137.0590 C   0  0  0  0  0  2  0  0  0  0  0  0
  180.8020  184.6890  135.6200 C   0  0  0  0  0  1  0  0  0  0  0  0
  180.2170  184.4470  136.9930 C   0  0  0  0  0  2  0  0  0  0  0  0
  186.7000  179.3020  140.9150 O   0  0  0  0  0  0  0  0  0  0  0  0
  186.8850  178.1580  138.6530 C   0  0  0  0  0  2  0  0  0  0  0  0
  188.6410  178.0840  140.4120 C   0  0  0  0  0  3  0  0  0  0  0  0
  189.1450  177.2470  138.0990 C   0  0  2  0  0  3  0  0  0  0  0  0
  187.4260  178.4940  140.0280 C   0  0  0  0  0  0  0  0  0  0  0  0
  189.4960  177.1650  139.5860 C   0  0  0  0  0  2  0  0  0  0  0  0
  187.6400  177.0190  137.9680 C   0  0  0  0  0  2  0  0  0  0  0  0
  189.9280  176.2070  137.2910 C   0  0  2  0  0  3  0  0  0  0  0  0
  189.0470  175.0110  136.9590 C   0  0  0  0  0  1  0  0  0  0  0  0
  191.1350  175.7220  138.0810 C   0  0  0  0  0  2  0  0  0  0  0  0
  192.3870  175.8080  137.2280 C   0  0  0  0  0  2  0  0  0  0  0  0
  194.0590  173.8740  137.3760 N   0  0  0  0  0  2  0  0  0  0  0  0
  194.6900  175.6220  138.8130 O   0  0  0  0  0  0  0  0  0  0  0  0
  192.8460  174.4370  136.8550 C   0  0  0  0  0  0  0  0  0  0  0  0
  194.9550  174.4960  138.3070 C   0  0  0  0  0  0  0  0  0  0  0  0
  192.1350  173.7470  136.0790 O   0  0  0  0  0  0  0  0  0  0  0  0
  197.4120  174.4250  138.0770 C   0  0  0  0  0  2  0  0  0  0  0  0
  196.1990  173.7750  138.7210 C   0  0  0  0  0  3  0  0  0  0  0  0
  196.8540  173.1400  137.5080 C   0  0  0  0  0  2  0  0  0  0  0  0
  185.3990  177.8450  142.3760 C   0  0  0  0  0  2  0  0  0  0  0  0
  185.2240  178.3410  143.8040 C   0  0  0  0  0  2  0  0  0  0  0  0
  186.4160  177.9820  144.6290 C   0  0  0  0  0  0  0  0  0  0  0  0
  187.7530  178.2130  148.1190 C   0  0  0  0  0  3  0  0  0  0  0  0
  189.8150  177.2100  147.3040 S   0  0  0  0  0  0  0  0  0  0  0  0
  188.6630  177.4050  146.1250 C   0  0  0  0  0  0  0  0  0  0  0  0
  187.5460  177.3980  144.0160 C   0  0  0  0  0  3  0  0  0  0  0  0
  187.5690  177.9800  146.7440 C   0  0  0  0  0  0  0  0  0  0  0  0
  186.4270  178.2830  146.0040 C   0  0  0  0  0  3  0  0  0  0  0  0
  188.9700  177.8360  148.6010 N   0  0  0  0  0  0  0  0  0  0  0  0
  188.6920  177.0990  144.7690 C   0  0  0  0  0  3  0  0  0  0  0  0
  1 37  1  1  0  0  0
  3  5  1  0  0  0  0
  3  2  1  1  0  0  0
  4  5  1  0  0  0  0
  4  1  1  0  0  0  0
  6  7  2  0  0  0  0
  6  3  1  0  0  0  0
  7  4  1  0  0  0  0
  8  9  2  0  0  0  0
  9 10  1  0  0  0  0
  9  6  1  0  0  0  0
 10 13  1  0  0  0  0
 13 12  2  6  0  0  0
 13 11  1  0  0  0  0
 14 13  1  0  0  0  0
 15 14  1  0  0  0  0
 16 17  1  0  0  0  0
 17 15  1  0  0  0  0
 18  1  1  0  0  0  0
 19 22  1  0  0  0  0
 21 25  1  6  0  0  0
 21 23  1  0  0  0  0
 22 20  2  0  0  0  0
 22 18  1  0  0  0  0
 23 20  1  0  0  0  0
 24 21  1  0  0  0  0
 24 19  1  0  0  0  0
 25 26  1  1  0  0  0
 25 27  1  0  0  0  0
 28 27  1  0  0  0  0
 29 32  1  0  0  0  0
 31 28  1  0  0  0  0
 31 29  1  0  0  0  0
 32 35  1  0  0  0  0
 32 30  2  0  0  0  0
 33 31  2  0  0  0  0
 34 35  1  0  0  0  0
 36 34  1  0  0  0  0
 36 35  1  0  0  0  0
 37 38  1  0  0  0  0
 38 39  1  0  0  0  0
 39 45  1  0  0  0  0
 40 46  2  0  0  0  0
 41 46  1  0  0  0  0
 42 44  1  0  0  0  0
 42 41  1  0  0  0  0
 43 39  2  0  0  0  0
 43 47  1  0  0  0  0
 44 40  1  0  0  0  0
 45 44  2  0  0  0  0
 47 42  2  0  0  0  0
M  END
>  <MODEL>
9

>  <REMARK>
 VINA RESULT:      -7.0      3.601      7.735
  Name = 
  17 active torsions:
  status: ('A' for Active; 'I' for Inactive)
    1  A    between atoms: C_2  and  C_15
    2  A    between atoms: O_4  and  P_29
    3  A    between atoms: O_4  and  C_37
    4  A    between atoms: C_11  and  C_15
    5  A    between atoms: C_11  and  C_46
    6  A    between atoms: C_12  and  C_22
    7  A    between atoms: C_12  and  C_31
    8  A    between atoms: C_17  and  C_28
    9  A    between atoms: C_20  and  C_25
   10  A    between atoms: C_20  and  P_29
   11  A    between atoms: N_21  and  C_46
   12  A    between atoms: C_22  and  C_28
   13  A    between atoms: C_25  and  C_30
   14  A    between atoms: O_32  and  C_39
   15  A    between atoms: O_32  and  C_46
   16  A    between atoms: C_33  and  C_34
   17  A    between atoms: C_37  and  C_38
                            x       y       z     vdW  Elec       q    Type
                         _______ _______ _______ _____ _____    ______ ____

>  <TORSDO>
F 17

$$$$
