=
 OpenBabel11042413233D

 50 56  0  0  1  0  0  0  0  0999 V2000
  180.2950  179.2500  140.2970 C   0  0  1  0  0  3  0  0  0  0  0  0
  183.8050  177.2320  138.8880 C   0  0  0  0  0  2  0  0  0  0  0  0
  179.4770  177.6880  138.6910 C   0  0  0  0  0  2  0  0  0  0  0  0
  181.7150  178.6610  140.2720 C   0  0  2  0  0  3  0  0  0  0  0  0
  180.8320  177.0150  138.4780 C   0  0  2  0  0  3  0  0  0  0  0  0
  182.9270  176.5440  139.7400 O   0  0  0  0  0  0  0  0  0  0  0  0
  181.6770  177.2070  139.7560 C   0  0  1  0  0  3  0  0  0  0  0  0
  181.4900  177.5860  137.2180 C   0  0  0  0  0  2  0  0  0  0  0  0
  182.6680  176.7690  136.7760 C   0  0  0  0  0  3  0  0  0  0  0  0
  183.7650  176.6190  137.5240 C   0  0  0  0  0  0  0  0  0  0  0  0
  180.3490  180.6600  140.6510 N   0  0  0  0  0  1  0  0  0  0  0  0
  179.6500  179.1100  138.9910 N   0  0  0  0  0  2  0  0  0  0  0  0
  184.9070  175.8060  137.0420 C   0  0  0  0  0  0  0  0  0  0  0  0
  184.2430  173.5490  137.9080 N   0  0  0  0  0  1  0  0  0  0  0  0
  185.1060  174.4410  137.2090 C   0  0  0  0  0  0  0  0  0  0  0  0
  186.2690  174.0570  136.6560 N   0  0  0  0  0  0  0  0  0  0  0  0
  186.0330  176.2110  136.3360 C   0  0  0  0  0  0  0  0  0  0  0  0
  186.8200  175.1360  136.1240 N   0  0  0  0  0  0  0  0  0  0  0  0
  186.3390  177.5890  135.8470 C   0  0  0  0  0  1  0  0  0  0  0  0
  188.1050  175.1270  135.4430 C   0  0  0  0  0  2  0  0  0  0  0  0
  189.3030  174.1350  136.3810 S   0  0  0  0  0  0  0  0  0  0  0  0
  192.0410  176.4790  138.7520 S   0  0  0  0  0  0  0  0  0  0  0  0
  189.4130  176.2020  138.1730 C   0  0  0  0  0  2  0  0  0  0  0  0
  191.5360  175.2280  137.5260 C   0  0  0  0  0  2  0  0  0  0  0  0
  190.3640  177.1890  138.8130 C   0  0  1  0  0  3  0  0  0  0  0  0
  190.1660  175.6060  137.0070 C   0  0  1  0  0  3  0  0  0  0  0  0
  189.9720  177.4340  140.2000 N   0  0  0  0  0  2  0  0  0  0  0  0
  188.6440  178.0520  140.2580 C   0  0  2  0  0  3  0  0  0  0  0  0
  188.5300  179.0820  139.3150 O   0  0  0  0  0  1  0  0  0  0  0  0
  188.3260  178.5650  141.6590 C   0  0  0  0  0  1  0  0  0  0  0  0
  184.3340  178.8910  143.0300 C   0  0  0  0  0  3  0  0  0  0  0  0
  183.5240  178.8920  144.1740 C   0  0  0  0  0  0  0  0  0  0  0  0
  182.1340  178.8110  144.0380 C   0  0  0  0  0  3  0  0  0  0  0  0
  181.5560  178.7330  142.7660 C   0  0  0  0  0  3  0  0  0  0  0  0
  182.3640  178.7310  141.6230 C   0  0  0  0  0  0  0  0  0  0  0  0
  183.7590  178.8100  141.7590 C   0  0  0  0  0  3  0  0  0  0  0  0
  184.0990  178.9660  145.4800 N   0  0  0  0  0  2  0  0  0  0  0  0
  185.4360  179.3480  145.6720 N   0  0  0  0  0  0  0  0  0  0  0  0
  185.3970  177.2170  146.8310 O   0  0  0  0  0  1  0  0  0  0  0  0
  186.1150  178.3690  146.4920 C   0  0  2  0  0  0  0  0  0  0  0  0
  185.6110  179.4980  147.0460 O   0  0  0  0  0  0  0  0  0  0  0  0
  187.6300  178.3380  146.3750 C   0  0  2  0  0  3  0  0  0  0  0  0
  189.4350  177.3670  147.2560 C   0  0  0  0  0  2  0  0  0  0  0  0
  188.0540  177.3470  145.3180 C   0  0  0  0  0  2  0  0  0  0  0  0
  188.2050  177.9520  147.5960 O   0  0  0  0  0  0  0  0  0  0  0  0
  189.3440  176.8000  145.8540 C   0  0  1  0  0  3  0  0  0  0  0  0
  190.9000  176.4620  143.4620 O   0  0  0  0  0  0  0  0  0  0  0  0
  190.4640  179.0160  144.4140 O   0  0  0  0  0  1  0  0  0  0  0  0
  190.7400  177.4070  144.8570 P   0  0  0  0  0  0  0  0  0  0  0  0
  192.0160  177.3230  145.6610 O   0  0  0  0  0  1  0  0  0  0  0  0
  1 11  1  6  0  0  0
  2  6  1  0  0  0  0
  3 12  1  0  0  0  0
  4  1  1  0  0  0  0
  4 35  1  1  0  0  0
  5  8  1  6  0  0  0
  5  3  1  0  0  0  0
  5  7  1  0  0  0  0
  7  6  1  6  0  0  0
  7  4  1  0  0  0  0
  9  8  1  0  0  0  0
  9 10  2  0  0  0  0
 10  2  1  0  0  0  0
 12  1  1  0  0  0  0
 13 15  1  0  0  0  0
 13 10  1  0  0  0  0
 15 14  1  0  0  0  0
 16 15  2  0  0  0  0
 17 13  2  0  0  0  0
 18 17  1  0  0  0  0
 18 16  1  0  0  0  0
 19 17  1  0  0  0  0
 20 18  1  0  0  0  0
 20 21  1  0  0  0  0
 22 25  1  0  0  0  0
 23 25  1  0  0  0  0
 24 22  1  0  0  0  0
 25 27  1  1  0  0  0
 26 21  1  1  0  0  0
 26 24  1  0  0  0  0
 26 23  1  0  0  0  0
 27 28  1  0  0  0  0
 28 30  1  1  0  0  0
 29 28  1  0  0  0  0
 31 32  1  0  0  0  0
 32 37  1  0  0  0  0
 33 32  2  0  0  0  0
 34 33  1  0  0  0  0
 35 36  1  0  0  0  0
 35 34  2  0  0  0  0
 36 31  2  0  0  0  0
 37 38  1  0  0  0  0
 38 40  1  0  0  0  0
 38 41  1  0  0  0  0
 40 39  1  1  0  0  0
 40 41  1  0  0  0  0
 42 44  1  6  0  0  0
 42 40  1  0  0  0  0
 42 45  1  0  0  0  0
 43 45  1  0  0  0  0
 44 46  1  0  0  0  0
 46 49  1  6  0  0  0
 46 43  1  0  0  0  0
 47 49  2  0  0  0  0
 48 49  1  0  0  0  0
 49 50  1  0  0  0  0
M  END
>  <MODEL>
1

>  <REMARK>
 VINA RESULT:      -8.8      0.000      0.000
  Name = 
  11 active torsions:
  status: ('A' for Active; 'I' for Inactive)
    1  A    between atoms: C_1  and  C_44
    2  A    between atoms: C_4  and  C_31
    3  A    between atoms: N_5  and  C_12
    4  A    between atoms: N_5  and  C_41
    5  A    between atoms: N_6  and  C_7
    6  A    between atoms: N_6  and  N_15
    7  A    between atoms: S_9  and  C_47
    8  A    between atoms: S_9  and  C_50
    9  A    between atoms: C_26  and  C_32
   10  A    between atoms: C_27  and  P_28
   11  A    between atoms: N_39  and  C_50
                            x       y       z     vdW  Elec       q    Type
                         _______ _______ _______ _____ _____    ______ ____

>  <TORSDO>
F 11

$$$$
=
 OpenBabel11042413233D

 50 56  0  0  1  0  0  0  0  0999 V2000
  182.1070  177.4120  136.3000 C   0  0  1  0  0  3  0  0  0  0  0  0
  183.4750  177.6870  140.3530 C   0  0  0  0  0  2  0  0  0  0  0  0
  181.1100  179.4140  137.1270 C   0  0  0  0  0  2  0  0  0  0  0  0
  182.9940  177.2380  137.5450 C   0  0  2  0  0  3  0  0  0  0  0  0
  181.8550  179.3750  138.4620 C   0  0  2  0  0  3  0  0  0  0  0  0
  184.0150  178.5630  139.3980 O   0  0  0  0  0  0  0  0  0  0  0  0
  183.1700  178.5920  138.2630 C   0  0  1  0  0  3  0  0  0  0  0  0
  180.9410  178.7730  139.5350 C   0  0  0  0  0  2  0  0  0  0  0  0
  181.4820  178.9800  140.9180 C   0  0  0  0  0  3  0  0  0  0  0  0
  182.6420  178.4580  141.3270 C   0  0  0  0  0  0  0  0  0  0  0  0
  181.8290  176.1140  135.7030 N   0  0  0  0  0  1  0  0  0  0  0  0
  180.8410  178.0580  136.6490 N   0  0  0  0  0  2  0  0  0  0  0  0
  183.1330  178.6860  142.7070 C   0  0  0  0  0  0  0  0  0  0  0  0
  180.9670  178.6110  143.9670 N   0  0  0  0  0  1  0  0  0  0  0  0
  182.3820  178.7430  143.8750 C   0  0  0  0  0  0  0  0  0  0  0  0
  183.1680  178.9910  144.9370 N   0  0  0  0  0  0  0  0  0  0  0  0
  184.4310  178.9060  143.1490 C   0  0  0  0  0  0  0  0  0  0  0  0
  184.4100  179.0820  144.4860 N   0  0  0  0  0  0  0  0  0  0  0  0
  185.6720  178.9210  142.3180 C   0  0  0  0  0  1  0  0  0  0  0  0
  185.5540  179.3620  145.3400 C   0  0  0  0  0  2  0  0  0  0  0  0
  185.3790  178.4900  146.9240 S   0  0  0  0  0  0  0  0  0  0  0  0
  189.5030  177.2230  146.9660 S   0  0  0  0  0  0  0  0  0  0  0  0
  187.4630  177.8020  145.2870 C   0  0  0  0  0  2  0  0  0  0  0  0
  187.8830  177.6740  147.6700 C   0  0  0  0  0  2  0  0  0  0  0  0
  188.8150  177.1240  145.2810 C   0  0  1  0  0  3  0  0  0  0  0  0
  186.8290  177.4430  146.6090 C   0  0  1  0  0  3  0  0  0  0  0  0
  189.7070  177.7920  144.3340 N   0  0  0  0  0  2  0  0  0  0  0  0
  190.1800  176.8460  143.3200 C   0  0  2  0  0  3  0  0  0  0  0  0
  189.2040  175.8810  143.0400 O   0  0  0  0  0  1  0  0  0  0  0  0
  191.4880  176.1830  143.7400 C   0  0  0  0  0  1  0  0  0  0  0  0
  185.8330  174.7480  137.0340 C   0  0  0  0  0  3  0  0  0  0  0  0
  186.8240  175.5750  136.4870 C   0  0  0  0  0  0  0  0  0  0  0  0
  186.5620  176.9360  136.2950 C   0  0  0  0  0  3  0  0  0  0  0  0
  185.3160  177.4670  136.6450 C   0  0  0  0  0  3  0  0  0  0  0  0
  184.3260  176.6430  137.1920 C   0  0  0  0  0  0  0  0  0  0  0  0
  184.5880  175.2780  137.3880 C   0  0  0  0  0  3  0  0  0  0  0  0
  188.1030  175.0490  136.1290 N   0  0  0  0  0  2  0  0  0  0  0  0
  189.2820  175.7820  136.3370 N   0  0  0  0  0  0  0  0  0  0  0  0
  189.8970  173.6430  137.3030 O   0  0  0  0  0  1  0  0  0  0  0  0
  190.2430  174.9770  137.0570 C   0  0  2  0  0  0  0  0  0  0  0  0
  189.4600  175.8640  137.7160 O   0  0  0  0  0  0  0  0  0  0  0  0
  191.6980  175.3900  136.9180 C   0  0  2  0  0  3  0  0  0  0  0  0
  193.3630  176.3500  138.0510 C   0  0  0  0  0  2  0  0  0  0  0  0
  192.6080  174.2360  137.2620 C   0  0  0  0  0  2  0  0  0  0  0  0
  191.9880  176.4530  137.7870 O   0  0  0  0  0  0  0  0  0  0  0  0
  193.7900  174.9030  137.8990 C   0  0  1  0  0  3  0  0  0  0  0  0
  195.1360  173.4000  135.8540 O   0  0  0  0  0  1  0  0  0  0  0  0
  195.2610  176.1560  135.7750 O   0  0  0  0  0  0  0  0  0  0  0  0
  195.2320  174.8040  136.7930 P   0  0  0  0  0  0  0  0  0  0  0  0
  196.5010  174.7670  137.6110 O   0  0  0  0  0  1  0  0  0  0  0  0
  1 11  1  1  0  0  0
  1 12  1  0  0  0  0
  1  4  1  0  0  0  0
  2 10  1  0  0  0  0
  4 35  1  6  0  0  0
  4  7  1  0  0  0  0
  5  3  1  6  0  0  0
  5  8  1  0  0  0  0
  6  2  1  0  0  0  0
  7  5  1  0  0  0  0
  7  6  1  1  0  0  0
  8  9  1  0  0  0  0
  9 10  2  0  0  0  0
 10 13  1  0  0  0  0
 12  3  1  0  0  0  0
 13 17  2  0  0  0  0
 13 15  1  0  0  0  0
 15 14  1  0  0  0  0
 15 16  2  0  0  0  0
 17 18  1  0  0  0  0
 18 16  1  0  0  0  0
 18 20  1  0  0  0  0
 19 17  1  0  0  0  0
 20 21  1  0  0  0  0
 22 24  1  0  0  0  0
 23 26  1  0  0  0  0
 25 27  1  6  0  0  0
 25 23  1  0  0  0  0
 25 22  1  0  0  0  0
 26 21  1  1  0  0  0
 26 24  1  0  0  0  0
 28 30  1  1  0  0  0
 28 27  1  0  0  0  0
 29 28  1  0  0  0  0
 31 36  1  0  0  0  0
 32 31  2  0  0  0  0
 33 32  1  0  0  0  0
 33 34  2  0  0  0  0
 34 35  1  0  0  0  0
 35 36  2  0  0  0  0
 37 38  1  0  0  0  0
 37 32  1  0  0  0  0
 38 40  1  0  0  0  0
 38 41  1  0  0  0  0
 40 39  1  1  0  0  0
 40 41  1  0  0  0  0
 42 40  1  0  0  0  0
 42 44  1  1  0  0  0
 42 45  1  0  0  0  0
 44 46  1  0  0  0  0
 45 43  1  0  0  0  0
 46 49  1  6  0  0  0
 46 43  1  0  0  0  0
 47 49  1  0  0  0  0
 48 49  2  0  0  0  0
 49 50  1  0  0  0  0
M  END
>  <MODEL>
2

>  <REMARK>
 VINA RESULT:      -8.4      3.764      8.005
  Name = 
  11 active torsions:
  status: ('A' for Active; 'I' for Inactive)
    1  A    between atoms: C_1  and  C_44
    2  A    between atoms: C_4  and  C_31
    3  A    between atoms: N_5  and  C_12
    4  A    between atoms: N_5  and  C_41
    5  A    between atoms: N_6  and  C_7
    6  A    between atoms: N_6  and  N_15
    7  A    between atoms: S_9  and  C_47
    8  A    between atoms: S_9  and  C_50
    9  A    between atoms: C_26  and  C_32
   10  A    between atoms: C_27  and  P_28
   11  A    between atoms: N_39  and  C_50
                            x       y       z     vdW  Elec       q    Type
                         _______ _______ _______ _____ _____    ______ ____

>  <TORSDO>
F 11

$$$$
=
 OpenBabel11042413233D

 50 56  0  0  1  0  0  0  0  0999 V2000
  180.1260  179.2980  140.5730 C   0  0  1  0  0  3  0  0  0  0  0  0
  183.7110  177.4180  139.1590 C   0  0  0  0  0  2  0  0  0  0  0  0
  179.3710  177.7350  138.9380 C   0  0  0  0  0  2  0  0  0  0  0  0
  181.5660  178.7560  140.5490 C   0  0  2  0  0  3  0  0  0  0  0  0
  180.7500  177.1090  138.7250 C   0  0  2  0  0  3  0  0  0  0  0  0
  182.8510  176.6880  139.9950 O   0  0  0  0  0  0  0  0  0  0  0  0
  181.5790  177.3100  140.0110 C   0  0  1  0  0  3  0  0  0  0  0  0
  181.3970  177.7210  137.4780 C   0  0  0  0  0  2  0  0  0  0  0  0
  182.6040  176.9500  137.0330 C   0  0  0  0  0  3  0  0  0  0  0  0
  183.7000  176.8240  137.7860 C   0  0  0  0  0  0  0  0  0  0  0  0
  180.1320  180.7040  140.9480 N   0  0  0  0  0  1  0  0  0  0  0  0
  179.4950  179.1570  139.2600 N   0  0  0  0  0  2  0  0  0  0  0  0
  184.8720  176.0560  137.3010 C   0  0  0  0  0  0  0  0  0  0  0  0
  183.9910  173.7190  137.5140 N   0  0  0  0  0  1  0  0  0  0  0  0
  184.9880  174.6780  137.1750 C   0  0  0  0  0  0  0  0  0  0  0  0
  186.2080  174.3410  136.7230 N   0  0  0  0  0  0  0  0  0  0  0  0
  186.1100  176.5240  136.8790 C   0  0  0  0  0  0  0  0  0  0  0  0
  186.8790  175.4680  136.5420 N   0  0  0  0  0  0  0  0  0  0  0  0
  186.5440  177.9490  136.7740 C   0  0  0  0  0  1  0  0  0  0  0  0
  188.2540  175.5150  136.0710 C   0  0  0  0  0  2  0  0  0  0  0  0
  188.9360  173.8350  135.9630 S   0  0  0  0  0  0  0  0  0  0  0  0
  191.9720  176.0870  138.0440 S   0  0  0  0  0  0  0  0  0  0  0  0
  191.6000  173.8310  136.5990 C   0  0  0  0  0  2  0  0  0  0  0  0
  190.2910  175.6750  137.4690 C   0  0  0  0  0  2  0  0  0  0  0  0
  192.6160  174.4640  137.5220 C   0  0  1  0  0  3  0  0  0  0  0  0
  190.2480  174.1930  137.1670 C   0  0  1  0  0  3  0  0  0  0  0  0
  193.8910  174.6300  136.8250 N   0  0  0  0  0  2  0  0  0  0  0  0
  195.0010  174.6510  137.7820 C   0  0  2  0  0  3  0  0  0  0  0  0
  196.2000  175.0080  137.1500 O   0  0  0  0  0  1  0  0  0  0  0  0
  195.1470  173.3120  138.4980 C   0  0  0  0  0  1  0  0  0  0  0  0
  182.0700  178.7080  144.3260 C   0  0  0  0  0  3  0  0  0  0  0  0
  183.4500  178.9390  144.4180 C   0  0  0  0  0  0  0  0  0  0  0  0
  184.2030  179.1140  143.2510 C   0  0  0  0  0  3  0  0  0  0  0  0
  183.5810  179.0560  141.9990 C   0  0  0  0  0  3  0  0  0  0  0  0
  182.2030  178.8280  141.9060 C   0  0  0  0  0  0  0  0  0  0  0  0
  181.4470  178.6540  143.0760 C   0  0  0  0  0  3  0  0  0  0  0  0
  184.0990  179.0060  145.6890 N   0  0  0  0  0  2  0  0  0  0  0  0
  185.4550  179.3520  145.8030 N   0  0  0  0  0  0  0  0  0  0  0  0
  185.5840  176.9360  145.9750 O   0  0  0  0  0  1  0  0  0  0  0  0
  186.2500  178.1660  146.0280 C   0  0  2  0  0  0  0  0  0  0  0  0
  185.8640  178.9400  147.0700 O   0  0  0  0  0  0  0  0  0  0  0  0
  187.7220  178.2710  145.6670 C   0  0  2  0  0  3  0  0  0  0  0  0
  189.7080  177.3660  146.1280 C   0  0  0  0  0  2  0  0  0  0  0  0
  188.0250  177.4330  144.4480 C   0  0  0  0  0  2  0  0  0  0  0  0
  188.5190  177.8100  146.7260 O   0  0  0  0  0  0  0  0  0  0  0  0
  189.4190  176.9420  144.7020 C   0  0  1  0  0  3  0  0  0  0  0  0
  189.8970  177.8810  142.0300 O   0  0  0  0  0  0  0  0  0  0  0  0
  190.9390  179.3130  144.1460 O   0  0  0  0  0  1  0  0  0  0  0  0
  190.5850  177.7620  143.5710 P   0  0  0  0  0  0  0  0  0  0  0  0
  191.8610  176.9590  143.4830 O   0  0  0  0  0  1  0  0  0  0  0  0
  1 11  1  6  0  0  0
  2  6  1  0  0  0  0
  3 12  1  0  0  0  0
  4  1  1  0  0  0  0
  4 35  1  1  0  0  0
  5  8  1  6  0  0  0
  5  3  1  0  0  0  0
  5  7  1  0  0  0  0
  7  6  1  6  0  0  0
  7  4  1  0  0  0  0
  9  8  1  0  0  0  0
  9 10  2  0  0  0  0
 10  2  1  0  0  0  0
 12  1  1  0  0  0  0
 13 10  1  0  0  0  0
 15 13  1  0  0  0  0
 15 14  1  0  0  0  0
 16 15  2  0  0  0  0
 17 13  2  0  0  0  0
 18 16  1  0  0  0  0
 18 17  1  0  0  0  0
 19 17  1  0  0  0  0
 20 18  1  0  0  0  0
 21 20  1  0  0  0  0
 23 26  1  0  0  0  0
 23 25  1  0  0  0  0
 24 22  1  0  0  0  0
 25 27  1  6  0  0  0
 25 22  1  0  0  0  0
 26 21  1  6  0  0  0
 26 24  1  0  0  0  0
 27 28  1  0  0  0  0
 28 30  1  6  0  0  0
 29 28  1  0  0  0  0
 31 32  1  0  0  0  0
 32 37  1  0  0  0  0
 33 32  2  0  0  0  0
 34 33  1  0  0  0  0
 35 34  2  0  0  0  0
 35 36  1  0  0  0  0
 36 31  2  0  0  0  0
 37 38  1  0  0  0  0
 38 40  1  0  0  0  0
 38 41  1  0  0  0  0
 40 39  1  6  0  0  0
 40 41  1  0  0  0  0
 42 44  1  6  0  0  0
 42 40  1  0  0  0  0
 42 45  1  0  0  0  0
 43 45  1  0  0  0  0
 44 46  1  0  0  0  0
 46 49  1  6  0  0  0
 46 43  1  0  0  0  0
 47 49  2  0  0  0  0
 49 48  1  0  0  0  0
 50 49  1  0  0  0  0
M  END
>  <MODEL>
3

>  <REMARK>
 VINA RESULT:      -8.3      1.796      2.590
  Name = 
  11 active torsions:
  status: ('A' for Active; 'I' for Inactive)
    1  A    between atoms: C_1  and  C_44
    2  A    between atoms: C_4  and  C_31
    3  A    between atoms: N_5  and  C_12
    4  A    between atoms: N_5  and  C_41
    5  A    between atoms: N_6  and  C_7
    6  A    between atoms: N_6  and  N_15
    7  A    between atoms: S_9  and  C_47
    8  A    between atoms: S_9  and  C_50
    9  A    between atoms: C_26  and  C_32
   10  A    between atoms: C_27  and  P_28
   11  A    between atoms: N_39  and  C_50
                            x       y       z     vdW  Elec       q    Type
                         _______ _______ _______ _____ _____    ______ ____

>  <TORSDO>
F 11

$$$$
=
 OpenBabel11042413233D

 50 56  0  0  1  0  0  0  0  0999 V2000
  189.9710  177.9690  144.1980 C   0  0  1  0  0  3  0  0  0  0  0  0
  186.1110  178.5410  142.4250 C   0  0  0  0  0  2  0  0  0  0  0  0
  188.4400  177.1580  145.8370 C   0  0  0  0  0  2  0  0  0  0  0  0
  188.8770  178.1230  143.1290 C   0  0  2  0  0  3  0  0  0  0  0  0
  187.2130  177.3070  144.9370 C   0  0  2  0  0  3  0  0  0  0  0  0
  186.6240  177.2370  142.5180 O   0  0  0  0  0  0  0  0  0  0  0  0
  187.6740  177.2180  143.4670 C   0  0  1  0  0  3  0  0  0  0  0  0
  186.4920  178.6160  145.2740 C   0  0  0  0  0  2  0  0  0  0  0  0
  185.1280  178.6840  144.6560 C   0  0  0  0  0  3  0  0  0  0  0  0
  184.9320  178.6820  143.3350 C   0  0  0  0  0  0  0  0  0  0  0  0
  191.0420  178.9240  143.9530 N   0  0  0  0  0  1  0  0  0  0  0  0
  189.4260  178.1970  145.5380 N   0  0  0  0  0  2  0  0  0  0  0  0
  183.5630  178.7580  142.7700 C   0  0  0  0  0  0  0  0  0  0  0  0
  182.2280  179.0330  144.8740 N   0  0  0  0  0  1  0  0  0  0  0  0
  182.3690  178.9220  143.4610 C   0  0  0  0  0  0  0  0  0  0  0  0
  181.3240  178.9200  142.6160 N   0  0  0  0  0  0  0  0  0  0  0  0
  183.1570  178.6680  141.4440 C   0  0  0  0  0  0  0  0  0  0  0  0
  181.8130  178.7720  141.3950 N   0  0  0  0  0  0  0  0  0  0  0  0
  184.0340  178.5150  140.2450 C   0  0  0  0  0  1  0  0  0  0  0  0
  180.9840  178.7050  140.2020 C   0  0  0  0  0  2  0  0  0  0  0  0
  179.3530  179.4340  140.5320 S   0  0  0  0  0  0  0  0  0  0  0  0
  180.8310  181.2910  136.9290 S   0  0  0  0  0  0  0  0  0  0  0  0
  179.3240  181.7800  139.1220 C   0  0  0  0  0  2  0  0  0  0  0  0
  180.5400  179.9400  138.1190 C   0  0  0  0  0  2  0  0  0  0  0  0
  179.6180  182.3680  137.7600 C   0  0  1  0  0  3  0  0  0  0  0  0
  179.3090  180.2830  138.9270 C   0  0  1  0  0  3  0  0  0  0  0  0
  180.1610  183.7190  137.9030 N   0  0  0  0  0  2  0  0  0  0  0  0
  181.2500  183.9390  136.9480 C   0  0  2  0  0  3  0  0  0  0  0  0
  182.3090  184.6330  137.5470 O   0  0  0  0  0  1  0  0  0  0  0  0
  180.7620  184.6710  135.7020 C   0  0  0  0  0  1  0  0  0  0  0  0
  189.4350  178.2030  139.3600 C   0  0  0  0  0  3  0  0  0  0  0  0
  190.4450  177.2420  139.2150 C   0  0  0  0  0  0  0  0  0  0  0  0
  190.9320  176.5730  140.3440 C   0  0  0  0  0  3  0  0  0  0  0  0
  190.4130  176.8640  141.6100 C   0  0  0  0  0  3  0  0  0  0  0  0
  189.4030  177.8220  141.7560 C   0  0  0  0  0  0  0  0  0  0  0  0
  188.9130  178.4920  140.6250 C   0  0  0  0  0  3  0  0  0  0  0  0
  190.9810  176.9300  137.9280 N   0  0  0  0  0  2  0  0  0  0  0  0
  191.1190  175.6020  137.4930 N   0  0  0  0  0  0  0  0  0  0  0  0
  193.2150  176.5550  136.7280 O   0  0  0  0  0  1  0  0  0  0  0  0
  192.3600  175.4480  136.7670 C   0  0  2  0  0  0  0  0  0  0  0  0
  191.1960  175.6470  136.1030 O   0  0  0  0  0  0  0  0  0  0  0  0
  192.9100  174.0350  136.6790 C   0  0  2  0  0  3  0  0  0  0  0  0
  193.9540  172.6440  135.2810 C   0  0  0  0  0  2  0  0  0  0  0  0
  194.3230  173.9870  137.2100 C   0  0  0  0  0  2  0  0  0  0  0  0
  192.9280  173.6000  135.3450 O   0  0  0  0  0  0  0  0  0  0  0  0
  194.9810  172.9470  136.3540 C   0  0  1  0  0  3  0  0  0  0  0  0
  194.1220  170.2820  136.9980 O   0  0  0  0  0  1  0  0  0  0  0  0
  196.8270  170.8270  136.9390 O   0  0  0  0  0  0  0  0  0  0  0  0
  195.3030  171.4470  137.3330 P   0  0  0  0  0  0  0  0  0  0  0  0
  195.2650  171.7810  138.8060 O   0  0  0  0  0  1  0  0  0  0  0  0
  1 11  1  6  0  0  0
  1 12  1  0  0  0  0
  2  6  1  0  0  0  0
  2 10  1  0  0  0  0
  4 35  1  6  0  0  0
  4  7  1  0  0  0  0
  4  1  1  0  0  0  0
  5  8  1  6  0  0  0
  5  3  1  0  0  0  0
  7  6  1  6  0  0  0
  7  5  1  0  0  0  0
  9  8  1  0  0  0  0
 10  9  2  0  0  0  0
 12  3  1  0  0  0  0
 13 10  1  0  0  0  0
 13 15  1  0  0  0  0
 15 14  1  0  0  0  0
 16 15  2  0  0  0  0
 17 13  2  0  0  0  0
 18 17  1  0  0  0  0
 18 16  1  0  0  0  0
 19 17  1  0  0  0  0
 20 21  1  0  0  0  0
 20 18  1  0  0  0  0
 22 25  1  0  0  0  0
 22 24  1  0  0  0  0
 24 26  1  0  0  0  0
 25 27  1  1  0  0  0
 25 23  1  0  0  0  0
 26 23  1  0  0  0  0
 26 21  1  1  0  0  0
 28 30  1  6  0  0  0
 28 29  1  0  0  0  0
 28 27  1  0  0  0  0
 31 36  1  0  0  0  0
 32 31  2  0  0  0  0
 32 33  1  0  0  0  0
 33 34  2  0  0  0  0
 34 35  1  0  0  0  0
 36 35  2  0  0  0  0
 37 32  1  0  0  0  0
 38 37  1  0  0  0  0
 40 39  1  1  0  0  0
 40 38  1  0  0  0  0
 41 40  1  0  0  0  0
 41 38  1  0  0  0  0
 42 40  1  0  0  0  0
 42 44  1  6  0  0  0
 43 45  1  0  0  0  0
 43 46  1  0  0  0  0
 45 42  1  0  0  0  0
 46 44  1  0  0  0  0
 46 49  1  1  0  0  0
 47 49  1  0  0  0  0
 48 49  2  0  0  0  0
 49 50  1  0  0  0  0
M  END
>  <MODEL>
4

>  <REMARK>
 VINA RESULT:      -7.8      4.810     10.036
  Name = 
  11 active torsions:
  status: ('A' for Active; 'I' for Inactive)
    1  A    between atoms: C_1  and  C_44
    2  A    between atoms: C_4  and  C_31
    3  A    between atoms: N_5  and  C_12
    4  A    between atoms: N_5  and  C_41
    5  A    between atoms: N_6  and  C_7
    6  A    between atoms: N_6  and  N_15
    7  A    between atoms: S_9  and  C_47
    8  A    between atoms: S_9  and  C_50
    9  A    between atoms: C_26  and  C_32
   10  A    between atoms: C_27  and  P_28
   11  A    between atoms: N_39  and  C_50
                            x       y       z     vdW  Elec       q    Type
                         _______ _______ _______ _____ _____    ______ ____

>  <TORSDO>
F 11

$$$$
=
 OpenBabel11042413233D

 50 56  0  0  1  0  0  0  0  0999 V2000
  190.2790  177.8240  144.2340 C   0  0  1  0  0  3  0  0  0  0  0  0
  186.3300  178.5020  142.7100 C   0  0  0  0  0  2  0  0  0  0  0  0
  188.8340  176.9580  145.9230 C   0  0  0  0  0  2  0  0  0  0  0  0
  189.1270  178.0320  143.2370 C   0  0  2  0  0  3  0  0  0  0  0  0
  187.5600  177.1550  145.1010 C   0  0  2  0  0  3  0  0  0  0  0  0
  186.8330  177.1920  142.7200 O   0  0  0  0  0  0  0  0  0  0  0  0
  187.9350  177.1230  143.6050 C   0  0  1  0  0  3  0  0  0  0  0  0
  186.8730  178.4550  145.5330 C   0  0  0  0  0  2  0  0  0  0  0  0
  185.4770  178.5610  144.9980 C   0  0  0  0  0  3  0  0  0  0  0  0
  185.2060  178.6160  143.6910 C   0  0  0  0  0  0  0  0  0  0  0  0
  191.3440  178.7790  143.9680 N   0  0  0  0  0  1  0  0  0  0  0  0
  189.8130  178.0000  145.6110 N   0  0  0  0  0  2  0  0  0  0  0  0
  183.8080  178.7270  143.2090 C   0  0  0  0  0  0  0  0  0  0  0  0
  182.6060  179.0030  145.3910 N   0  0  0  0  0  1  0  0  0  0  0  0
  182.6610  178.9070  143.9710 C   0  0  0  0  0  0  0  0  0  0  0  0
  181.5680  178.9380  143.1890 N   0  0  0  0  0  0  0  0  0  0  0  0
  183.3240  178.6620  141.9080 C   0  0  0  0  0  0  0  0  0  0  0  0
  181.9820  178.7940  141.9400 N   0  0  0  0  0  0  0  0  0  0  0  0
  184.1250  178.5070  140.6580 C   0  0  0  0  0  1  0  0  0  0  0  0
  181.0830  178.7600  140.7970 C   0  0  0  0  0  2  0  0  0  0  0  0
  180.0260  177.2840  140.8770 S   0  0  0  0  0  0  0  0  0  0  0  0
  183.0390  175.5170  138.3430 S   0  0  0  0  0  0  0  0  0  0  0  0
  181.3760  177.6430  138.5220 C   0  0  0  0  0  2  0  0  0  0  0  0
  181.8980  175.6280  139.7620 C   0  0  0  0  0  2  0  0  0  0  0  0
  182.2370  176.9240  137.5080 C   0  0  1  0  0  3  0  0  0  0  0  0
  180.7700  176.5620  139.3850 C   0  0  1  0  0  3  0  0  0  0  0  0
  183.2490  177.8350  136.9730 N   0  0  0  0  0  2  0  0  0  0  0  0
  184.5180  177.1300  136.7690 C   0  0  2  0  0  3  0  0  0  0  0  0
  185.5750  177.8140  137.3830 O   0  0  0  0  0  1  0  0  0  0  0  0
  184.8040  176.9130  135.2870 C   0  0  0  0  0  1  0  0  0  0  0  0
  189.4330  178.2290  139.4430 C   0  0  0  0  0  3  0  0  0  0  0  0
  190.4620  177.3060  139.2060 C   0  0  0  0  0  0  0  0  0  0  0  0
  191.0420  176.6230  140.2810 C   0  0  0  0  0  3  0  0  0  0  0  0
  190.5980  176.8640  141.5860 C   0  0  0  0  0  3  0  0  0  0  0  0
  189.5710  177.7840  141.8240 C   0  0  0  0  0  0  0  0  0  0  0  0
  188.9870  178.4670  140.7460 C   0  0  0  0  0  3  0  0  0  0  0  0
  190.9210  177.0450  137.8790 N   0  0  0  0  0  2  0  0  0  0  0  0
  191.2030  175.7410  137.4430 N   0  0  0  0  0  0  0  0  0  0  0  0
  193.4030  176.7530  137.3090 O   0  0  0  0  0  1  0  0  0  0  0  0
  192.5960  175.6350  137.0700 C   0  0  2  0  0  0  0  0  0  0  0  0
  191.6480  175.8500  136.1270 O   0  0  0  0  0  0  0  0  0  0  0  0
  193.1840  174.2340  137.0760 C   0  0  2  0  0  3  0  0  0  0  0  0
  193.7300  172.5580  135.7090 C   0  0  0  0  0  2  0  0  0  0  0  0
  194.6910  174.2970  137.0180 C   0  0  0  0  0  2  0  0  0  0  0  0
  192.7310  173.5110  135.9610 O   0  0  0  0  0  0  0  0  0  0  0  0
  195.0580  173.0860  136.2140 C   0  0  1  0  0  3  0  0  0  0  0  0
  195.3640  170.2910  136.8050 O   0  0  0  0  0  0  0  0  0  0  0  0
  197.5270  171.9680  137.1620 O   0  0  0  0  0  1  0  0  0  0  0  0
  195.8440  171.8410  137.2840 P   0  0  0  0  0  0  0  0  0  0  0  0
  195.4300  172.0670  138.7180 O   0  0  0  0  0  1  0  0  0  0  0  0
  1 11  1  6  0  0  0
  1 12  1  0  0  0  0
  2  6  1  0  0  0  0
  2 10  1  0  0  0  0
  4 35  1  6  0  0  0
  4  7  1  0  0  0  0
  4  1  1  0  0  0  0
  5  8  1  1  0  0  0
  5  3  1  0  0  0  0
  7  6  1  6  0  0  0
  7  5  1  0  0  0  0
  9  8  1  0  0  0  0
 10  9  2  0  0  0  0
 12  3  1  0  0  0  0
 13 10  1  0  0  0  0
 13 15  1  0  0  0  0
 15 14  1  0  0  0  0
 16 15  2  0  0  0  0
 17 18  1  0  0  0  0
 17 13  2  0  0  0  0
 18 16  1  0  0  0  0
 19 17  1  0  0  0  0
 20 21  1  0  0  0  0
 20 18  1  0  0  0  0
 22 24  1  0  0  0  0
 23 26  1  0  0  0  0
 25 27  1  1  0  0  0
 25 22  1  0  0  0  0
 25 23  1  0  0  0  0
 26 24  1  0  0  0  0
 26 21  1  1  0  0  0
 28 30  1  6  0  0  0
 28 27  1  0  0  0  0
 28 29  1  0  0  0  0
 31 36  1  0  0  0  0
 32 31  2  0  0  0  0
 32 33  1  0  0  0  0
 33 34  2  0  0  0  0
 34 35  1  0  0  0  0
 36 35  2  0  0  0  0
 37 32  1  0  0  0  0
 38 37  1  0  0  0  0
 40 42  1  0  0  0  0
 40 39  1  1  0  0  0
 40 38  1  0  0  0  0
 41 40  1  0  0  0  0
 41 38  1  0  0  0  0
 42 44  1  6  0  0  0
 43 45  1  0  0  0  0
 43 46  1  0  0  0  0
 45 42  1  0  0  0  0
 46 44  1  0  0  0  0
 46 49  1  1  0  0  0
 47 49  2  0  0  0  0
 48 49  1  0  0  0  0
 49 50  1  0  0  0  0
M  END
>  <MODEL>
5

>  <REMARK>
 VINA RESULT:      -7.7      4.229      9.485
  Name = 
  11 active torsions:
  status: ('A' for Active; 'I' for Inactive)
    1  A    between atoms: C_1  and  C_44
    2  A    between atoms: C_4  and  C_31
    3  A    between atoms: N_5  and  C_12
    4  A    between atoms: N_5  and  C_41
    5  A    between atoms: N_6  and  C_7
    6  A    between atoms: N_6  and  N_15
    7  A    between atoms: S_9  and  C_47
    8  A    between atoms: S_9  and  C_50
    9  A    between atoms: C_26  and  C_32
   10  A    between atoms: C_27  and  P_28
   11  A    between atoms: N_39  and  C_50
                            x       y       z     vdW  Elec       q    Type
                         _______ _______ _______ _____ _____    ______ ____

>  <TORSDO>
F 11

$$$$
=
 OpenBabel11042413233D

 50 56  0  0  1  0  0  0  0  0999 V2000
  189.6220  177.9620  144.7750 C   0  0  1  0  0  3  0  0  0  0  0  0
  185.9430  178.4520  142.6290 C   0  0  0  0  0  2  0  0  0  0  0  0
  187.9420  177.2430  146.3060 C   0  0  0  0  0  2  0  0  0  0  0  0
  188.6310  178.0640  143.6030 C   0  0  2  0  0  3  0  0  0  0  0  0
  186.8030  177.3470  145.2910 C   0  0  2  0  0  3  0  0  0  0  0  0
  186.4360  177.1540  142.8360 O   0  0  0  0  0  0  0  0  0  0  0  0
  187.3950  177.1810  143.8760 C   0  0  1  0  0  3  0  0  0  0  0  0
  186.0640  178.6750  145.4930 C   0  0  0  0  0  2  0  0  0  0  0  0
  184.7630  178.7140  144.7500 C   0  0  0  0  0  3  0  0  0  0  0  0
  184.6870  178.6440  143.4190 C   0  0  0  0  0  0  0  0  0  0  0  0
  190.7180  178.9000  144.5800 N   0  0  0  0  0  1  0  0  0  0  0  0
  188.9590  178.2610  146.0450 N   0  0  0  0  0  2  0  0  0  0  0  0
  183.3770  178.6940  142.7280 C   0  0  0  0  0  0  0  0  0  0  0  0
  181.8490  178.9830  144.6950 N   0  0  0  0  0  1  0  0  0  0  0  0
  182.1220  178.8540  143.3030 C   0  0  0  0  0  0  0  0  0  0  0  0
  181.1600  178.8260  142.3640 N   0  0  0  0  0  0  0  0  0  0  0  0
  183.0970  178.5800  141.3720 C   0  0  0  0  0  0  0  0  0  0  0  0
  181.7620  178.6660  141.1970 N   0  0  0  0  0  0  0  0  0  0  0  0
  184.0840  178.4200  140.2620 C   0  0  0  0  0  1  0  0  0  0  0  0
  181.0490  178.5710  139.9330 C   0  0  0  0  0  2  0  0  0  0  0  0
  180.5220  176.8570  139.6390 S   0  0  0  0  0  0  0  0  0  0  0  0
  182.2160  175.2160  136.0260 S   0  0  0  0  0  0  0  0  0  0  0  0
  182.7610  175.6350  138.6420 C   0  0  0  0  0  2  0  0  0  0  0  0
  180.9840  176.0800  137.0560 C   0  0  0  0  0  2  0  0  0  0  0  0
  183.4650  175.2850  137.3500 C   0  0  1  0  0  3  0  0  0  0  0  0
  181.6950  176.6380  138.2690 C   0  0  1  0  0  3  0  0  0  0  0  0
  184.1340  173.9910  137.4790 N   0  0  0  0  0  2  0  0  0  0  0  0
  185.5690  174.1250  137.2130 C   0  0  2  0  0  3  0  0  0  0  0  0
  185.7930  174.7510  135.9800 O   0  0  0  0  0  1  0  0  0  0  0  0
  186.2770  172.7760  137.2690 C   0  0  0  0  0  1  0  0  0  0  0  0
  190.8860  176.4040  141.0190 C   0  0  0  0  0  3  0  0  0  0  0  0
  190.4300  177.0030  139.8360 C   0  0  0  0  0  0  0  0  0  0  0  0
  189.3980  177.9470  139.8910 C   0  0  0  0  0  3  0  0  0  0  0  0
  188.8230  178.2870  141.1200 C   0  0  0  0  0  3  0  0  0  0  0  0
  189.2780  177.6900  142.3010 C   0  0  0  0  0  0  0  0  0  0  0  0
  190.3140  176.7450  142.2480 C   0  0  0  0  0  3  0  0  0  0  0  0
  191.0110  176.6710  138.5740 N   0  0  0  0  0  2  0  0  0  0  0  0
  191.9750  175.6570  138.4540 N   0  0  0  0  0  0  0  0  0  0  0  0
  191.3120  175.9340  136.1370 O   0  0  0  0  0  1  0  0  0  0  0  0
  192.0680  175.2250  137.0780 C   0  0  2  0  0  0  0  0  0  0  0  0
  191.3110  174.5350  137.9640 O   0  0  0  0  0  0  0  0  0  0  0  0
  193.3650  174.5420  136.6790 C   0  0  2  0  0  3  0  0  0  0  0  0
  194.4680  173.7770  134.8970 C   0  0  0  0  0  2  0  0  0  0  0  0
  194.4540  175.5650  136.4670 C   0  0  0  0  0  2  0  0  0  0  0  0
  193.1930  173.8280  135.4830 O   0  0  0  0  0  0  0  0  0  0  0  0
  195.2740  174.9750  135.3580 C   0  0  1  0  0  3  0  0  0  0  0  0
  197.5640  175.6320  136.9640 O   0  0  0  0  0  1  0  0  0  0  0  0
  196.6700  173.0210  136.9300 O   0  0  0  0  0  1  0  0  0  0  0  0
  196.8830  174.4180  136.0010 P   0  0  0  0  0  0  0  0  0  0  0  0
  197.8150  174.1160  134.8510 O   0  0  0  0  0  0  0  0  0  0  0  0
  1 11  1  6  0  0  0
  1 12  1  0  0  0  0
  2  6  1  0  0  0  0
  2 10  1  0  0  0  0
  4 35  1  6  0  0  0
  4  7  1  0  0  0  0
  4  1  1  0  0  0  0
  5  8  1  6  0  0  0
  5  3  1  0  0  0  0
  7  6  1  6  0  0  0
  7  5  1  0  0  0  0
  9  8  1  0  0  0  0
 10  9  2  0  0  0  0
 12  3  1  0  0  0  0
 13 15  1  0  0  0  0
 13 10  1  0  0  0  0
 15 14  1  0  0  0  0
 16 15  2  0  0  0  0
 17 13  2  0  0  0  0
 18 17  1  0  0  0  0
 18 16  1  0  0  0  0
 19 17  1  0  0  0  0
 20 18  1  0  0  0  0
 21 20  1  0  0  0  0
 22 24  1  0  0  0  0
 22 25  1  0  0  0  0
 24 26  1  0  0  0  0
 25 27  1  1  0  0  0
 25 23  1  0  0  0  0
 26 23  1  0  0  0  0
 26 21  1  1  0  0  0
 28 30  1  6  0  0  0
 28 27  1  0  0  0  0
 29 28  1  0  0  0  0
 31 36  1  0  0  0  0
 32 33  1  0  0  0  0
 32 31  2  0  0  0  0
 33 34  2  0  0  0  0
 34 35  1  0  0  0  0
 36 35  2  0  0  0  0
 37 32  1  0  0  0  0
 38 37  1  0  0  0  0
 40 39  1  6  0  0  0
 40 41  1  0  0  0  0
 40 38  1  0  0  0  0
 41 38  1  0  0  0  0
 42 44  1  6  0  0  0
 42 40  1  0  0  0  0
 43 46  1  0  0  0  0
 43 45  1  0  0  0  0
 45 42  1  0  0  0  0
 46 49  1  1  0  0  0
 46 44  1  0  0  0  0
 49 48  1  0  0  0  0
 49 47  1  0  0  0  0
 50 49  2  0  0  0  0
M  END
>  <MODEL>
6

>  <REMARK>
 VINA RESULT:      -7.3      4.274      9.341
  Name = 
  11 active torsions:
  status: ('A' for Active; 'I' for Inactive)
    1  A    between atoms: C_1  and  C_44
    2  A    between atoms: C_4  and  C_31
    3  A    between atoms: N_5  and  C_12
    4  A    between atoms: N_5  and  C_41
    5  A    between atoms: N_6  and  C_7
    6  A    between atoms: N_6  and  N_15
    7  A    between atoms: S_9  and  C_47
    8  A    between atoms: S_9  and  C_50
    9  A    between atoms: C_26  and  C_32
   10  A    between atoms: C_27  and  P_28
   11  A    between atoms: N_39  and  C_50
                            x       y       z     vdW  Elec       q    Type
                         _______ _______ _______ _____ _____    ______ ____

>  <TORSDO>
F 11

$$$$
=
 OpenBabel11042413233D

 50 56  0  0  1  0  0  0  0  0999 V2000
  190.3700  177.8350  144.1360 C   0  0  1  0  0  3  0  0  0  0  0  0
  186.3860  178.5000  142.7010 C   0  0  0  0  0  2  0  0  0  0  0  0
  188.9670  176.9610  145.8550 C   0  0  0  0  0  2  0  0  0  0  0  0
  189.1960  178.0400  143.1640 C   0  0  2  0  0  3  0  0  0  0  0  0
  187.6740  177.1540  145.0630 C   0  0  2  0  0  3  0  0  0  0  0  0
  186.8940  177.1910  142.6980 O   0  0  0  0  0  0  0  0  0  0  0  0
  188.0160  177.1260  143.5580 C   0  0  1  0  0  3  0  0  0  0  0  0
  186.9920  178.4510  145.5110 C   0  0  0  0  0  2  0  0  0  0  0  0
  185.5840  178.5520  145.0070 C   0  0  0  0  0  3  0  0  0  0  0  0
  185.2840  178.6070  143.7070 C   0  0  0  0  0  0  0  0  0  0  0  0
  191.4260  178.7940  143.8470 N   0  0  0  0  0  1  0  0  0  0  0  0
  189.9350  178.0070  145.5220 N   0  0  0  0  0  2  0  0  0  0  0  0
  183.8750  178.7130  143.2560 C   0  0  0  0  0  0  0  0  0  0  0  0
  182.7230  178.9990  145.4640 N   0  0  0  0  0  1  0  0  0  0  0  0
  182.7460  178.8960  144.0440 C   0  0  0  0  0  0  0  0  0  0  0  0
  181.6340  178.9210  143.2870 N   0  0  0  0  0  0  0  0  0  0  0  0
  183.3610  178.6410  141.9680 C   0  0  0  0  0  0  0  0  0  0  0  0
  182.0190  178.7710  142.0300 N   0  0  0  0  0  0  0  0  0  0  0  0
  184.1340  178.4800  140.7000 C   0  0  0  0  0  1  0  0  0  0  0  0
  181.0950  178.7290  140.9080 C   0  0  0  0  0  2  0  0  0  0  0  0
  179.6320  177.7420  141.3400 S   0  0  0  0  0  0  0  0  0  0  0  0
  180.1990  174.3050  138.7950 S   0  0  0  0  0  0  0  0  0  0  0  0
  181.1250  176.8060  139.2450 C   0  0  0  0  0  2  0  0  0  0  0  0
  179.4120  175.3160  140.0920 C   0  0  0  0  0  2  0  0  0  0  0  0
  181.1720  175.7220  138.1910 C   0  0  1  0  0  3  0  0  0  0  0  0
  179.7250  176.7690  139.8090 C   0  0  1  0  0  3  0  0  0  0  0  0
  182.5560  175.3160  137.9510 N   0  0  0  0  0  2  0  0  0  0  0  0
  183.0930  175.9920  136.7670 C   0  0  2  0  0  3  0  0  0  0  0  0
  184.4860  176.1090  136.8450 O   0  0  0  0  0  1  0  0  0  0  0  0
  182.4470  177.3590  136.5630 C   0  0  0  0  0  1  0  0  0  0  0  0
  191.1520  176.8930  140.1020 C   0  0  0  0  0  3  0  0  0  0  0  0
  190.3180  177.3360  139.0660 C   0  0  0  0  0  0  0  0  0  0  0  0
  189.1300  178.0090  139.3720 C   0  0  0  0  0  3  0  0  0  0  0  0
  188.7760  178.2360  140.7070 C   0  0  0  0  0  3  0  0  0  0  0  0
  189.6090  177.7950  141.7420 C   0  0  0  0  0  0  0  0  0  0  0  0
  190.8020  177.1220  141.4360 C   0  0  0  0  0  3  0  0  0  0  0  0
  190.6680  177.1170  137.6980 N   0  0  0  0  0  2  0  0  0  0  0  0
  189.7320  176.6400  136.7680 N   0  0  0  0  0  0  0  0  0  0  0  0
  190.9790  174.6140  137.2420 O   0  0  0  0  0  1  0  0  0  0  0  0
  189.9810  175.2430  136.4900 C   0  0  2  0  0  0  0  0  0  0  0  0
  190.4580  176.2030  135.6620 O   0  0  0  0  0  0  0  0  0  0  0  0
  188.8060  174.4530  135.9390 C   0  0  2  0  0  3  0  0  0  0  0  0
  188.2930  172.4840  135.0240 C   0  0  0  0  0  2  0  0  0  0  0  0
  188.1010  173.7150  137.0510 C   0  0  0  0  0  2  0  0  0  0  0  0
  189.2500  173.5110  134.9980 O   0  0  0  0  0  0  0  0  0  0  0  0
  187.6370  172.4510  136.3900 C   0  0  1  0  0  3  0  0  0  0  0  0
  185.1020  172.8320  137.6860 O   0  0  0  0  0  1  0  0  0  0  0  0
  185.3910  173.6560  135.0680 O   0  0  0  0  0  0  0  0  0  0  0  0
  185.8270  172.4760  136.2000 P   0  0  0  0  0  0  0  0  0  0  0  0
  185.3460  171.1260  135.7240 O   0  0  0  0  0  1  0  0  0  0  0  0
  1 11  1  6  0  0  0
  1 12  1  0  0  0  0
  2 10  1  0  0  0  0
  4 35  1  6  0  0  0
  4  7  1  0  0  0  0
  4  1  1  0  0  0  0
  5  8  1  1  0  0  0
  5  3  1  0  0  0  0
  6  2  1  0  0  0  0
  7  6  1  6  0  0  0
  7  5  1  0  0  0  0
  9  8  1  0  0  0  0
 10  9  2  0  0  0  0
 12  3  1  0  0  0  0
 13 10  1  0  0  0  0
 13 15  1  0  0  0  0
 15 14  1  0  0  0  0
 16 15  2  0  0  0  0
 17 18  1  0  0  0  0
 17 13  2  0  0  0  0
 18 16  1  0  0  0  0
 19 17  1  0  0  0  0
 20 21  1  0  0  0  0
 20 18  1  0  0  0  0
 22 24  1  0  0  0  0
 23 26  1  0  0  0  0
 25 27  1  1  0  0  0
 25 22  1  0  0  0  0
 25 23  1  0  0  0  0
 26 24  1  0  0  0  0
 26 21  1  1  0  0  0
 28 30  1  1  0  0  0
 28 29  1  0  0  0  0
 28 27  1  0  0  0  0
 31 36  1  0  0  0  0
 32 33  1  0  0  0  0
 32 31  2  0  0  0  0
 33 34  2  0  0  0  0
 34 35  1  0  0  0  0
 36 35  2  0  0  0  0
 37 32  1  0  0  0  0
 38 37  1  0  0  0  0
 40 38  1  0  0  0  0
 40 39  1  1  0  0  0
 41 40  1  0  0  0  0
 41 38  1  0  0  0  0
 42 40  1  0  0  0  0
 42 44  1  1  0  0  0
 43 46  1  0  0  0  0
 45 43  1  0  0  0  0
 45 42  1  0  0  0  0
 46 49  1  6  0  0  0
 46 44  1  0  0  0  0
 48 49  2  0  0  0  0
 49 47  1  0  0  0  0
 50 49  1  0  0  0  0
M  END
>  <MODEL>
7

>  <REMARK>
 VINA RESULT:      -6.9      3.859      9.665
  Name = 
  11 active torsions:
  status: ('A' for Active; 'I' for Inactive)
    1  A    between atoms: C_1  and  C_44
    2  A    between atoms: C_4  and  C_31
    3  A    between atoms: N_5  and  C_12
    4  A    between atoms: N_5  and  C_41
    5  A    between atoms: N_6  and  C_7
    6  A    between atoms: N_6  and  N_15
    7  A    between atoms: S_9  and  C_47
    8  A    between atoms: S_9  and  C_50
    9  A    between atoms: C_26  and  C_32
   10  A    between atoms: C_27  and  P_28
   11  A    between atoms: N_39  and  C_50
                            x       y       z     vdW  Elec       q    Type
                         _______ _______ _______ _____ _____    ______ ____

>  <TORSDO>
F 11

$$$$
=
 OpenBabel11042413233D

 50 56  0  0  1  0  0  0  0  0999 V2000
  189.7070  177.9430  144.7070 C   0  0  1  0  0  3  0  0  0  0  0  0
  186.0010  178.4330  142.6080 C   0  0  0  0  0  2  0  0  0  0  0  0
  188.0460  177.2270  146.2610 C   0  0  0  0  0  2  0  0  0  0  0  0
  188.7000  178.0440  143.5480 C   0  0  2  0  0  3  0  0  0  0  0  0
  186.8940  177.3310  145.2610 C   0  0  2  0  0  3  0  0  0  0  0  0
  186.4950  177.1340  142.8100 O   0  0  0  0  0  0  0  0  0  0  0  0
  187.4680  177.1620  143.8380 C   0  0  1  0  0  3  0  0  0  0  0  0
  186.1590  178.6590  145.4700 C   0  0  0  0  0  2  0  0  0  0  0  0
  184.8480  178.6990  144.7440 C   0  0  0  0  0  3  0  0  0  0  0  0
  184.7560  178.6270  143.4130 C   0  0  0  0  0  0  0  0  0  0  0  0
  190.8010  178.8790  144.4960 N   0  0  0  0  0  1  0  0  0  0  0  0
  189.0600  178.2440  145.9850 N   0  0  0  0  0  2  0  0  0  0  0  0
  183.4360  178.6770  142.7390 C   0  0  0  0  0  0  0  0  0  0  0  0
  181.9360  178.9970  144.7230 N   0  0  0  0  0  1  0  0  0  0  0  0
  182.1900  178.8510  143.3290 C   0  0  0  0  0  0  0  0  0  0  0  0
  181.2150  178.8190  142.4040 N   0  0  0  0  0  0  0  0  0  0  0  0
  183.1380  178.5490  141.3890 C   0  0  0  0  0  0  0  0  0  0  0  0
  181.8010  178.6410  141.2300 N   0  0  0  0  0  0  0  0  0  0  0  0
  184.1090  178.3720  140.2680 C   0  0  0  0  0  1  0  0  0  0  0  0
  181.0710  178.5370  139.9770 C   0  0  0  0  0  2  0  0  0  0  0  0
  180.8330  180.1860  139.2520 S   0  0  0  0  0  0  0  0  0  0  0  0
  181.0020  179.1720  135.0620 S   0  0  0  0  0  0  0  0  0  0  0  0
  181.5390  178.1840  137.5220 C   0  0  0  0  0  2  0  0  0  0  0  0
  180.7270  180.2340  136.5180 C   0  0  0  0  0  2  0  0  0  0  0  0
  181.8390  177.9030  136.0670 C   0  0  1  0  0  3  0  0  0  0  0  0
  181.5540  179.6880  137.6610 C   0  0  1  0  0  3  0  0  0  0  0  0
  181.3540  176.5730  135.7030 N   0  0  0  0  0  2  0  0  0  0  0  0
  180.6780  175.9430  136.8410 C   0  0  2  0  0  3  0  0  0  0  0  0
  181.3040  174.7390  137.1910 O   0  0  0  0  0  1  0  0  0  0  0  0
  179.1970  175.7180  136.5560 C   0  0  0  0  0  1  0  0  0  0  0  0
  190.9350  176.3930  140.9390 C   0  0  0  0  0  3  0  0  0  0  0  0
  190.4500  176.9750  139.7600 C   0  0  0  0  0  0  0  0  0  0  0  0
  189.4060  177.9040  139.8240 C   0  0  0  0  0  3  0  0  0  0  0  0
  188.8460  178.2470  141.0600 C   0  0  0  0  0  3  0  0  0  0  0  0
  189.3300  177.6670  142.2380 C   0  0  0  0  0  0  0  0  0  0  0  0
  190.3790  176.7370  142.1750 C   0  0  0  0  0  3  0  0  0  0  0  0
  191.0140  176.6400  138.4910 N   0  0  0  0  0  2  0  0  0  0  0  0
  192.0250  175.6730  138.3700 N   0  0  0  0  0  0  0  0  0  0  0  0
  191.3470  175.9190  136.0530 O   0  0  0  0  0  1  0  0  0  0  0  0
  192.1370  175.2470  136.9930 C   0  0  2  0  0  0  0  0  0  0  0  0
  191.4150  174.5210  137.8790 O   0  0  0  0  0  0  0  0  0  0  0  0
  193.4650  174.6260  136.5920 C   0  0  2  0  0  3  0  0  0  0  0  0
  194.4940  173.6470  134.8720 C   0  0  0  0  0  2  0  0  0  0  0  0
  194.4120  175.6900  136.0900 C   0  0  0  0  0  2  0  0  0  0  0  0
  193.2750  173.6870  135.5670 O   0  0  0  0  0  0  0  0  0  0  0  0
  195.1970  174.9810  135.0270 C   0  0  1  0  0  3  0  0  0  0  0  0
  197.9780  175.5640  134.6000 O   0  0  0  0  0  0  0  0  0  0  0  0
  197.0690  175.2490  137.1870 O   0  0  0  0  0  1  0  0  0  0  0  0
  196.9060  174.7090  135.5920 P   0  0  0  0  0  0  0  0  0  0  0  0
  197.2370  173.2370  135.5260 O   0  0  0  0  0  1  0  0  0  0  0  0
  1 11  1  6  0  0  0
  1 12  1  0  0  0  0
  2  6  1  0  0  0  0
  2 10  1  0  0  0  0
  4 35  1  6  0  0  0
  4  7  1  0  0  0  0
  4  1  1  0  0  0  0
  5  8  1  6  0  0  0
  5  3  1  0  0  0  0
  7  6  1  6  0  0  0
  7  5  1  0  0  0  0
  9  8  1  0  0  0  0
 10  9  2  0  0  0  0
 12  3  1  0  0  0  0
 13 15  1  0  0  0  0
 13 10  1  0  0  0  0
 15 14  1  0  0  0  0
 16 15  2  0  0  0  0
 17 13  2  0  0  0  0
 18 17  1  0  0  0  0
 18 16  1  0  0  0  0
 19 17  1  0  0  0  0
 20 18  1  0  0  0  0
 21 20  1  0  0  0  0
 22 25  1  0  0  0  0
 22 24  1  0  0  0  0
 23 26  1  0  0  0  0
 24 26  1  0  0  0  0
 25 27  1  6  0  0  0
 25 23  1  0  0  0  0
 26 21  1  1  0  0  0
 27 28  1  0  0  0  0
 28 30  1  6  0  0  0
 28 29  1  0  0  0  0
 31 36  1  0  0  0  0
 32 33  1  0  0  0  0
 32 31  2  0  0  0  0
 33 34  2  0  0  0  0
 34 35  1  0  0  0  0
 36 35  2  0  0  0  0
 37 32  1  0  0  0  0
 38 37  1  0  0  0  0
 40 39  1  6  0  0  0
 40 41  1  0  0  0  0
 40 38  1  0  0  0  0
 41 38  1  0  0  0  0
 42 44  1  6  0  0  0
 42 40  1  0  0  0  0
 43 46  1  0  0  0  0
 43 45  1  0  0  0  0
 45 42  1  0  0  0  0
 46 49  1  1  0  0  0
 46 44  1  0  0  0  0
 47 49  2  0  0  0  0
 49 48  1  0  0  0  0
 50 49  1  0  0  0  0
M  END
>  <MODEL>
8

>  <REMARK>
 VINA RESULT:      -6.9      4.533      9.751
  Name = 
  11 active torsions:
  status: ('A' for Active; 'I' for Inactive)
    1  A    between atoms: C_1  and  C_44
    2  A    between atoms: C_4  and  C_31
    3  A    between atoms: N_5  and  C_12
    4  A    between atoms: N_5  and  C_41
    5  A    between atoms: N_6  and  C_7
    6  A    between atoms: N_6  and  N_15
    7  A    between atoms: S_9  and  C_47
    8  A    between atoms: S_9  and  C_50
    9  A    between atoms: C_26  and  C_32
   10  A    between atoms: C_27  and  P_28
   11  A    between atoms: N_39  and  C_50
                            x       y       z     vdW  Elec       q    Type
                         _______ _______ _______ _____ _____    ______ ____

>  <TORSDO>
F 11

$$$$
=
 OpenBabel11042413233D

 50 56  0  0  1  0  0  0  0  0999 V2000
  189.9220  177.9610  144.8190 C   0  0  1  0  0  3  0  0  0  0  0  0
  186.3620  178.4550  142.4830 C   0  0  0  0  0  2  0  0  0  0  0  0
  188.1720  177.1660  146.2310 C   0  0  0  0  0  2  0  0  0  0  0  0
  188.9960  178.0820  143.5970 C   0  0  2  0  0  3  0  0  0  0  0  0
  187.0900  177.2830  145.1560 C   0  0  2  0  0  3  0  0  0  0  0  0
  186.8660  177.1600  142.6790 O   0  0  0  0  0  0  0  0  0  0  0  0
  187.7640  177.1700  143.7730 C   0  0  1  0  0  3  0  0  0  0  0  0
  186.3170  178.5910  145.3560 C   0  0  0  0  0  2  0  0  0  0  0  0
  185.0590  178.6320  144.5420 C   0  0  0  0  0  3  0  0  0  0  0  0
  185.0600  178.6020  143.2060 C   0  0  0  0  0  0  0  0  0  0  0  0
  191.0100  178.9220  144.7150 N   0  0  0  0  0  1  0  0  0  0  0  0
  189.1830  178.2090  146.0580 N   0  0  0  0  0  2  0  0  0  0  0  0
  183.7890  178.6510  142.4440 C   0  0  0  0  0  0  0  0  0  0  0  0
  184.6790  178.8740  140.1110 N   0  0  0  0  0  1  0  0  0  0  0  0
  183.6310  178.7630  141.0680 C   0  0  0  0  0  0  0  0  0  0  0  0
  182.3280  178.8010  140.7390 N   0  0  0  0  0  0  0  0  0  0  0  0
  182.4830  178.6130  142.9160 C   0  0  0  0  0  0  0  0  0  0  0  0
  181.6410  178.7030  141.8660 N   0  0  0  0  0  0  0  0  0  0  0  0
  182.0460  178.4640  144.3360 C   0  0  0  0  0  1  0  0  0  0  0  0
  180.1880  178.7230  141.9240 C   0  0  0  0  0  2  0  0  0  0  0  0
  179.5970  180.4160  142.2180 S   0  0  0  0  0  0  0  0  0  0  0  0
  179.2590  179.6000  137.9950 S   0  0  0  0  0  0  0  0  0  0  0  0
  180.0570  181.5010  139.7460 C   0  0  0  0  0  2  0  0  0  0  0  0
  179.0580  179.2930  139.7810 C   0  0  0  0  0  2  0  0  0  0  0  0
  179.7200  181.3400  138.2810 C   0  0  1  0  0  3  0  0  0  0  0  0
  179.0740  180.6290  140.4910 C   0  0  1  0  0  3  0  0  0  0  0  0
  180.8750  181.6960  137.4590 N   0  0  0  0  0  2  0  0  0  0  0  0
  180.6260  182.9470  136.7360 C   0  0  2  0  0  3  0  0  0  0  0  0
  181.1210  182.8770  135.4280 O   0  0  0  0  0  1  0  0  0  0  0  0
  181.2170  184.1450  137.4730 C   0  0  0  0  0  1  0  0  0  0  0  0
  191.6510  176.8870  141.1380 C   0  0  0  0  0  3  0  0  0  0  0  0
  191.0210  177.1460  139.9120 C   0  0  0  0  0  0  0  0  0  0  0  0
  189.7420  177.7140  139.8970 C   0  0  0  0  0  3  0  0  0  0  0  0
  189.0950  178.0170  141.0990 C   0  0  0  0  0  3  0  0  0  0  0  0
  189.7220  177.7600  142.3230 C   0  0  0  0  0  0  0  0  0  0  0  0
  191.0060  177.1930  142.3400 C   0  0  0  0  0  3  0  0  0  0  0  0
  191.6720  176.8470  138.6760 N   0  0  0  0  0  2  0  0  0  0  0  0
  190.9410  176.5700  137.5100 N   0  0  0  0  0  0  0  0  0  0  0  0
  191.6530  174.3400  138.1450 O   0  0  0  0  0  1  0  0  0  0  0  0
  191.0090  175.1580  137.2100 C   0  0  2  0  0  0  0  0  0  0  0  0
  191.8430  176.0300  136.5960 O   0  0  0  0  0  0  0  0  0  0  0  0
  189.8990  174.6090  136.3290 C   0  0  2  0  0  3  0  0  0  0  0  0
  189.4660  172.9820  134.8660 C   0  0  0  0  0  2  0  0  0  0  0  0
  189.0360  173.6460  137.1100 C   0  0  0  0  0  2  0  0  0  0  0  0
  190.4420  173.9220  135.2320 O   0  0  0  0  0  0  0  0  0  0  0  0
  188.6340  172.6290  136.0830 C   0  0  1  0  0  3  0  0  0  0  0  0
  186.3700  171.5260  134.7030 O   0  0  0  0  0  0  0  0  0  0  0  0
  185.9620  172.7970  137.1180 O   0  0  0  0  0  1  0  0  0  0  0  0
  186.8670  172.8080  135.6880 P   0  0  0  0  0  0  0  0  0  0  0  0
  186.6350  174.1110  134.9610 O   0  0  0  0  0  1  0  0  0  0  0  0
  1 11  1  6  0  0  0
  1 12  1  0  0  0  0
  2  6  1  0  0  0  0
  2 10  1  0  0  0  0
  4 35  1  6  0  0  0
  4  7  1  0  0  0  0
  4  1  1  0  0  0  0
  5  8  1  6  0  0  0
  5  3  1  0  0  0  0
  7  6  1  6  0  0  0
  7  5  1  0  0  0  0
  9  8  1  0  0  0  0
 10  9  2  0  0  0  0
 12  3  1  0  0  0  0
 13 17  2  0  0  0  0
 13 10  1  0  0  0  0
 14 15  1  0  0  0  0
 15 13  1  0  0  0  0
 16 15  2  0  0  0  0
 16 18  1  0  0  0  0
 17 19  1  0  0  0  0
 18 20  1  0  0  0  0
 18 17  1  0  0  0  0
 20 21  1  0  0  0  0
 22 25  1  0  0  0  0
 22 24  1  0  0  0  0
 23 26  1  0  0  0  0
 24 26  1  0  0  0  0
 25 27  1  6  0  0  0
 25 23  1  0  0  0  0
 26 21  1  1  0  0  0
 28 27  1  0  0  0  0
 28 30  1  1  0  0  0
 29 28  1  0  0  0  0
 31 36  1  0  0  0  0
 32 31  2  0  0  0  0
 33 32  1  0  0  0  0
 33 34  2  0  0  0  0
 34 35  1  0  0  0  0
 35 36  2  0  0  0  0
 37 32  1  0  0  0  0
 38 37  1  0  0  0  0
 40 38  1  0  0  0  0
 40 39  1  1  0  0  0
 41 40  1  0  0  0  0
 41 38  1  0  0  0  0
 42 44  1  1  0  0  0
 42 40  1  0  0  0  0
 43 45  1  0  0  0  0
 43 46  1  0  0  0  0
 45 42  1  0  0  0  0
 46 49  1  6  0  0  0
 46 44  1  0  0  0  0
 47 49  2  0  0  0  0
 49 48  1  0  0  0  0
 50 49  1  0  0  0  0
M  END
>  <MODEL>
9

>  <REMARK>
 VINA RESULT:      -6.7      4.456      9.965
  Name = 
  11 active torsions:
  status: ('A' for Active; 'I' for Inactive)
    1  A    between atoms: C_1  and  C_44
    2  A    between atoms: C_4  and  C_31
    3  A    between atoms: N_5  and  C_12
    4  A    between atoms: N_5  and  C_41
    5  A    between atoms: N_6  and  C_7
    6  A    between atoms: N_6  and  N_15
    7  A    between atoms: S_9  and  C_47
    8  A    between atoms: S_9  and  C_50
    9  A    between atoms: C_26  and  C_32
   10  A    between atoms: C_27  and  P_28
   11  A    between atoms: N_39  and  C_50
                            x       y       z     vdW  Elec       q    Type
                         _______ _______ _______ _____ _____    ______ ____

>  <TORSDO>
F 11

$$$$
