=
 OpenBabel11042411223D

 25 27  0  0  1  0  0  0  0  0999 V2000
  183.9950  178.7130  146.3280 N   0  0  0  0  0  0  0  0  0  0  0  0
  184.6220  178.9870  144.0430 C   0  0  0  0  0  0  0  0  0  0  0  0
  185.9170  178.5780  144.3600 C   0  0  0  0  0  3  0  0  0  0  0  0
  183.6610  179.0460  145.0530 C   0  0  0  0  0  3  0  0  0  0  0  0
  186.2580  178.2450  145.6780 C   0  0  0  0  0  0  0  0  0  0  0  0
  185.2540  178.3170  146.6550 C   0  0  0  0  0  3  0  0  0  0  0  0
  189.7800  176.8010  145.4020 C   0  0  0  0  0  3  0  0  0  0  0  0
  188.1030  176.9570  143.5980 C   0  0  0  0  0  1  0  0  0  0  0  0
  189.3250  177.5090  147.6500 C   0  0  0  0  0  3  0  0  0  0  0  0
  190.2070  176.9550  146.7210 C   0  0  0  0  0  0  0  0  0  0  0  0
  188.0810  177.8970  147.2650 N   0  0  0  0  0  0  0  0  0  0  0  0
  187.6350  177.7740  145.9810 C   0  0  0  0  0  0  0  0  0  0  0  0
  188.5000  177.2030  145.0150 C   0  0  0  0  0  0  0  0  0  0  0  0
  191.5580  176.5310  147.1230 C   0  0  0  0  0  0  0  0  0  0  0  0
  192.2160  175.5300  146.4170 O   0  0  0  0  0  0  0  0  0  0  0  0
  192.1300  177.0700  148.1070 O   0  0  0  0  0  1  0  0  0  0  0  0
  184.2560  179.3130  142.6340 C   0  0  0  0  0  2  0  0  0  0  0  0
  184.0480  178.1970  138.4370 C   0  0  0  0  0  3  0  0  0  0  0  0
  185.1630  178.2530  137.6980 C   0  0  0  0  0  3  0  0  0  0  0  0
  185.4280  179.2190  141.7750 N   0  0  0  0  0  2  0  0  0  0  0  0
  185.3930  178.6590  140.4600 C   0  0  0  0  0  0  0  0  0  0  0  0
  186.4620  178.7090  139.7180 N   0  0  0  0  0  0  0  0  0  0  0  0
  187.5300  178.7580  137.5830 N   0  0  0  0  0  1  0  0  0  0  0  0
  184.1430  177.9980  139.9270 C   0  0  0  0  0  2  0  0  0  0  0  0
  186.5000  178.1150  138.3770 C   0  0  2  0  0  3  0  0  0  0  0  0
  1  6  1  0  0  0  0
  2  3  2  0  0  0  0
  2  4  1  0  0  0  0
  3  5  1  0  0  0  0
  4  1  2  0  0  0  0
  5 12  1  0  0  0  0
  5  6  2  0  0  0  0
  7 10  1  0  0  0  0
  8 13  1  0  0  0  0
 10 14  1  0  0  0  0
 10  9  2  0  0  0  0
 11  9  1  0  0  0  0
 12 11  2  0  0  0  0
 13  7  2  0  0  0  0
 13 12  1  0  0  0  0
 14 16  1  0  0  0  0
 15 14  2  0  0  0  0
 17  2  1  0  0  0  0
 18 24  1  0  0  0  0
 19 25  1  0  0  0  0
 19 18  2  0  0  0  0
 20 17  1  0  0  0  0
 21 20  1  0  0  0  0
 22 21  2  0  0  0  0
 24 21  1  0  0  0  0
 25 23  1  6  0  0  0
 25 22  1  0  0  0  0
M  END
>  <MODEL>
1

>  <REMARK>
 VINA RESULT:      -9.3      0.000      0.000
  Name = 
  4 active torsions:
  status: ('A' for Active; 'I' for Inactive)
    1  A    between atoms: C_4  and  C_16
    2  A    between atoms: C_8  and  C_9
    3  A    between atoms: C_8  and  N_13
    4  A    between atoms: C_18  and  C_20
                            x       y       z     vdW  Elec       q    Type
                         _______ _______ _______ _____ _____    ______ ____

>  <TORSDO>
F 4

$$$$
=
 OpenBabel11042411223D

 25 27  0  0  1  0  0  0  0  0999 V2000
  183.9190  178.8040  145.9650 N   0  0  0  0  0  0  0  0  0  0  0  0
  184.5610  178.7610  143.6680 C   0  0  0  0  0  0  0  0  0  0  0  0
  185.8480  178.3790  144.0440 C   0  0  0  0  0  3  0  0  0  0  0  0
  183.5960  178.9680  144.6550 C   0  0  0  0  0  3  0  0  0  0  0  0
  186.1780  178.2200  145.3970 C   0  0  0  0  0  0  0  0  0  0  0  0
  185.1710  178.4370  146.3500 C   0  0  0  0  0  3  0  0  0  0  0  0
  189.7120  176.7810  145.3130 C   0  0  0  0  0  3  0  0  0  0  0  0
  188.0930  176.8300  143.4510 C   0  0  0  0  0  1  0  0  0  0  0  0
  189.1830  177.6100  147.5030 C   0  0  0  0  0  3  0  0  0  0  0  0
  190.0970  177.0100  146.6350 C   0  0  0  0  0  0  0  0  0  0  0  0
  187.9510  177.9700  147.0580 N   0  0  0  0  0  0  0  0  0  0  0  0
  187.5460  177.7740  145.7700 C   0  0  0  0  0  0  0  0  0  0  0  0
  188.4440  177.1550  144.8640 C   0  0  0  0  0  0  0  0  0  0  0  0
  191.4350  176.6150  147.1020 C   0  0  0  0  0  0  0  0  0  0  0  0
  192.1680  175.6630  146.4020 O   0  0  0  0  0  0  0  0  0  0  0  0
  191.9300  177.1370  148.1370 O   0  0  0  0  0  1  0  0  0  0  0  0
  184.2060  178.9020  142.2260 C   0  0  0  0  0  2  0  0  0  0  0  0
  182.4090  175.9540  139.5830 C   0  0  0  0  0  3  0  0  0  0  0  0
  181.0760  175.8240  139.5710 C   0  0  0  0  0  3  0  0  0  0  0  0
  182.7670  178.7650  142.0450 N   0  0  0  0  0  2  0  0  0  0  0  0
  182.1790  177.9450  141.0320 C   0  0  0  0  0  0  0  0  0  0  0  0
  180.8860  177.7950  141.0050 N   0  0  0  0  0  0  0  0  0  0  0  0
  178.9330  176.5390  140.4490 N   0  0  0  0  0  1  0  0  0  0  0  0
  183.0330  177.2640  139.9870 C   0  0  0  0  0  2  0  0  0  0  0  0
  180.2220  177.0000  139.9660 C   0  0  2  0  0  3  0  0  0  0  0  0
  1  6  1  0  0  0  0
  2  3  2  0  0  0  0
  2  4  1  0  0  0  0
  3  5  1  0  0  0  0
  4  1  2  0  0  0  0
  5 12  1  0  0  0  0
  5  6  2  0  0  0  0
  7 10  1  0  0  0  0
  8 13  1  0  0  0  0
 10 14  1  0  0  0  0
 10  9  2  0  0  0  0
 11  9  1  0  0  0  0
 12 11  2  0  0  0  0
 13  7  2  0  0  0  0
 13 12  1  0  0  0  0
 14 16  1  0  0  0  0
 15 14  2  0  0  0  0
 17  2  1  0  0  0  0
 18 24  1  0  0  0  0
 19 18  2  0  0  0  0
 19 25  1  0  0  0  0
 20 17  1  0  0  0  0
 21 20  1  0  0  0  0
 22 21  2  0  0  0  0
 24 21  1  0  0  0  0
 25 23  1  1  0  0  0
 25 22  1  0  0  0  0
M  END
>  <MODEL>
2

>  <REMARK>
 VINA RESULT:      -9.0      2.263      2.972
  Name = 
  4 active torsions:
  status: ('A' for Active; 'I' for Inactive)
    1  A    between atoms: C_4  and  C_16
    2  A    between atoms: C_8  and  C_9
    3  A    between atoms: C_8  and  N_13
    4  A    between atoms: C_18  and  C_20
                            x       y       z     vdW  Elec       q    Type
                         _______ _______ _______ _____ _____    ______ ____

>  <TORSDO>
F 4

$$$$
=
 OpenBabel11042411223D

 25 27  0  0  1  0  0  0  0  0999 V2000
  184.2020  178.9490  145.8690 N   0  0  0  0  0  0  0  0  0  0  0  0
  184.8690  178.3810  143.6510 C   0  0  0  0  0  0  0  0  0  0  0  0
  186.1310  178.0290  144.1310 C   0  0  0  0  0  3  0  0  0  0  0  0
  183.9050  178.8420  144.5470 C   0  0  0  0  0  3  0  0  0  0  0  0
  186.4350  178.1510  145.4930 C   0  0  0  0  0  0  0  0  0  0  0  0
  185.4280  178.6150  146.3530 C   0  0  0  0  0  3  0  0  0  0  0  0
  189.4520  177.3890  147.7020 C   0  0  0  0  0  3  0  0  0  0  0  0
  187.3170  178.3990  148.4170 C   0  0  0  0  0  1  0  0  0  0  0  0
  189.9060  176.8160  145.4160 C   0  0  0  0  0  3  0  0  0  0  0  0
  190.3290  176.8780  146.7450 C   0  0  0  0  0  0  0  0  0  0  0  0
  188.6610  177.2380  145.0740 N   0  0  0  0  0  0  0  0  0  0  0  0
  187.7730  177.7310  145.9850 C   0  0  0  0  0  0  0  0  0  0  0  0
  188.1740  177.8200  147.3420 C   0  0  0  0  0  0  0  0  0  0  0  0
  191.6740  176.4230  147.1310 C   0  0  0  0  0  0  0  0  0  0  0  0
  192.3120  175.4250  146.4020 O   0  0  0  0  0  0  0  0  0  0  0  0
  192.2610  176.9340  148.1220 O   0  0  0  0  0  1  0  0  0  0  0  0
  184.5410  178.2230  142.2040 C   0  0  0  0  0  2  0  0  0  0  0  0
  182.8620  178.8010  138.2350 C   0  0  0  0  0  3  0  0  0  0  0  0
  181.5380  178.9650  138.1120 C   0  0  0  0  0  3  0  0  0  0  0  0
  183.1370  178.5330  141.9690 N   0  0  0  0  0  2  0  0  0  0  0  0
  182.6240  178.9240  140.6940 C   0  0  0  0  0  0  0  0  0  0  0  0
  181.3390  179.0810  140.5450 N   0  0  0  0  0  0  0  0  0  0  0  0
  179.3730  179.0920  139.1910 N   0  0  0  0  0  1  0  0  0  0  0  0
  183.5480  179.1720  139.5250 C   0  0  0  0  0  2  0  0  0  0  0  0
  180.7570  179.5210  139.2730 C   0  0  2  0  0  3  0  0  0  0  0  0
  1  6  1  0  0  0  0
  2  3  2  0  0  0  0
  2  4  1  0  0  0  0
  3  5  1  0  0  0  0
  4  1  2  0  0  0  0
  5 12  1  0  0  0  0
  5  6  2  0  0  0  0
  9 10  1  0  0  0  0
 10 14  1  0  0  0  0
 10  7  2  0  0  0  0
 11  9  2  0  0  0  0
 11 12  1  0  0  0  0
 12 13  2  0  0  0  0
 13  7  1  0  0  0  0
 13  8  1  0  0  0  0
 14 16  1  0  0  0  0
 15 14  2  0  0  0  0
 17  2  1  0  0  0  0
 18 24  1  0  0  0  0
 19 18  2  0  0  0  0
 19 25  1  0  0  0  0
 20 17  1  0  0  0  0
 21 20  1  0  0  0  0
 22 21  2  0  0  0  0
 24 21  1  0  0  0  0
 25 23  1  6  0  0  0
 25 22  1  0  0  0  0
M  END
>  <MODEL>
3

>  <REMARK>
 VINA RESULT:      -8.7      2.109      2.937
  Name = 
  4 active torsions:
  status: ('A' for Active; 'I' for Inactive)
    1  A    between atoms: C_4  and  C_16
    2  A    between atoms: C_8  and  C_9
    3  A    between atoms: C_8  and  N_13
    4  A    between atoms: C_18  and  C_20
                            x       y       z     vdW  Elec       q    Type
                         _______ _______ _______ _____ _____    ______ ____

>  <TORSDO>
F 4

$$$$
=
 OpenBabel11042411223D

 25 27  0  0  1  0  0  0  0  0999 V2000
  182.3590  178.9380  143.6860 N   0  0  0  0  0  0  0  0  0  0  0  0
  183.7970  178.8430  141.7860 C   0  0  0  0  0  0  0  0  0  0  0  0
  184.8830  178.6110  142.6310 C   0  0  0  0  0  3  0  0  0  0  0  0
  182.5260  179.0020  142.3380 C   0  0  0  0  0  3  0  0  0  0  0  0
  184.7050  178.5550  144.0200 C   0  0  0  0  0  0  0  0  0  0  0  0
  183.4060  178.7180  144.5250 C   0  0  0  0  0  3  0  0  0  0  0  0
  188.1250  177.4830  145.3330 C   0  0  0  0  0  3  0  0  0  0  0  0
  187.3050  177.2840  143.0130 C   0  0  0  0  0  1  0  0  0  0  0  0
  186.7640  178.3470  147.1110 C   0  0  0  0  0  3  0  0  0  0  0  0
  187.9780  177.8070  146.6820 C   0  0  0  0  0  0  0  0  0  0  0  0
  185.7580  178.5600  146.2240 N   0  0  0  0  0  0  0  0  0  0  0  0
  185.8710  178.2670  144.8960 C   0  0  0  0  0  0  0  0  0  0  0  0
  187.0850  177.7050  144.4280 C   0  0  0  0  0  0  0  0  0  0  0  0
  189.0770  177.5720  147.6310 C   0  0  0  0  0  0  0  0  0  0  0  0
  189.1130  178.2510  148.8440 O   0  0  0  0  0  1  0  0  0  0  0  0
  189.9950  176.7540  147.3550 O   0  0  0  0  0  0  0  0  0  0  0  0
  183.9860  178.8730  140.3060 C   0  0  0  0  0  2  0  0  0  0  0  0
  185.6920  177.5260  136.5400 C   0  0  0  0  0  3  0  0  0  0  0  0
  186.9790  177.7910  136.2830 C   0  0  0  0  0  3  0  0  0  0  0  0
  185.4000  178.9990  139.9810 N   0  0  0  0  0  2  0  0  0  0  0  0
  186.0000  178.3790  138.8410 C   0  0  0  0  0  0  0  0  0  0  0  0
  187.2480  178.6280  138.5640 N   0  0  0  0  0  0  0  0  0  0  0  0
  189.0550  178.8050  137.0140 N   0  0  0  0  0  1  0  0  0  0  0  0
  185.2150  177.4300  137.9670 C   0  0  0  0  0  2  0  0  0  0  0  0
  187.9310  177.9900  137.4340 C   0  0  2  0  0  3  0  0  0  0  0  0
  1  6  1  0  0  0  0
  2  4  1  0  0  0  0
  2  3  2  0  0  0  0
  3  5  1  0  0  0  0
  4  1  2  0  0  0  0
  5  6  2  0  0  0  0
  5 12  1  0  0  0  0
  7 10  1  0  0  0  0
  8 13  1  0  0  0  0
 10  9  2  0  0  0  0
 10 14  1  0  0  0  0
 11  9  1  0  0  0  0
 12 11  2  0  0  0  0
 13 12  1  0  0  0  0
 13  7  2  0  0  0  0
 14 15  1  0  0  0  0
 16 14  2  0  0  0  0
 17  2  1  0  0  0  0
 18 24  1  0  0  0  0
 19 18  2  0  0  0  0
 19 25  1  0  0  0  0
 20 17  1  0  0  0  0
 21 20  1  0  0  0  0
 22 21  2  0  0  0  0
 24 21  1  0  0  0  0
 25 23  1  6  0  0  0
 25 22  1  0  0  0  0
M  END
>  <MODEL>
4

>  <REMARK>
 VINA RESULT:      -8.6      1.535      2.417
  Name = 
  4 active torsions:
  status: ('A' for Active; 'I' for Inactive)
    1  A    between atoms: C_4  and  C_16
    2  A    between atoms: C_8  and  C_9
    3  A    between atoms: C_8  and  N_13
    4  A    between atoms: C_18  and  C_20
                            x       y       z     vdW  Elec       q    Type
                         _______ _______ _______ _____ _____    ______ ____

>  <TORSDO>
F 4

$$$$
=
 OpenBabel11042411223D

 25 27  0  0  1  0  0  0  0  0999 V2000
  187.4530  178.2960  147.6580 N   0  0  0  0  0  0  0  0  0  0  0  0
  188.5260  177.3930  145.7290 C   0  0  0  0  0  0  0  0  0  0  0  0
  187.3670  177.6210  144.9890 C   0  0  0  0  0  3  0  0  0  0  0  0
  188.5520  177.7450  147.0790 C   0  0  0  0  0  3  0  0  0  0  0  0
  186.2330  178.1810  145.5930 C   0  0  0  0  0  0  0  0  0  0  0  0
  186.3120  178.5200  146.9530 C   0  0  0  0  0  3  0  0  0  0  0  0
  183.8130  178.6540  142.6810 C   0  0  0  0  0  3  0  0  0  0  0  0
  186.2160  178.1130  142.5300 C   0  0  0  0  0  1  0  0  0  0  0  0
  182.7040  179.0300  144.7770 C   0  0  0  0  0  3  0  0  0  0  0  0
  182.6490  178.9700  143.3830 C   0  0  0  0  0  0  0  0  0  0  0  0
  183.8700  178.7750  145.4270 N   0  0  0  0  0  0  0  0  0  0  0  0
  185.0230  178.4500  144.7730 C   0  0  0  0  0  0  0  0  0  0  0  0
  185.0060  178.3930  143.3570 C   0  0  0  0  0  0  0  0  0  0  0  0
  181.3940  179.2420  142.6650 C   0  0  0  0  0  0  0  0  0  0  0  0
  180.9730  178.3960  141.6450 O   0  0  0  0  0  0  0  0  0  0  0  0
  180.6890  180.2420  142.9670 O   0  0  0  0  0  1  0  0  0  0  0  0
  189.7400  176.8240  145.0740 C   0  0  0  0  0  2  0  0  0  0  0  0
  192.2640  177.8180  141.6760 C   0  0  0  0  0  3  0  0  0  0  0  0
  191.9640  177.3030  140.4770 C   0  0  0  0  0  3  0  0  0  0  0  0
  189.4340  176.4210  143.7080 N   0  0  0  0  0  2  0  0  0  0  0  0
  190.1420  176.9140  142.5690 C   0  0  0  0  0  0  0  0  0  0  0  0
  189.8760  176.4230  141.3920 N   0  0  0  0  0  0  0  0  0  0  0  0
  190.5040  175.8960  139.1500 N   0  0  0  0  0  1  0  0  0  0  0  0
  191.1810  178.0020  142.7070 C   0  0  0  0  0  2  0  0  0  0  0  0
  190.5390  176.9170  140.1810 C   0  0  2  0  0  3  0  0  0  0  0  0
  2  4  2  0  0  0  0
  3  5  2  0  0  0  0
  3  2  1  0  0  0  0
  4  1  1  0  0  0  0
  5  6  1  0  0  0  0
  6  1  2  0  0  0  0
  7 13  2  0  0  0  0
  7 10  1  0  0  0  0
  8 13  1  0  0  0  0
  9 11  1  0  0  0  0
 10  9  2  0  0  0  0
 12 11  2  0  0  0  0
 12  5  1  0  0  0  0
 13 12  1  0  0  0  0
 14 16  1  0  0  0  0
 14 10  1  0  0  0  0
 15 14  2  0  0  0  0
 17  2  1  0  0  0  0
 18 24  1  0  0  0  0
 19 18  2  0  0  0  0
 20 17  1  0  0  0  0
 21 24  1  0  0  0  0
 21 20  1  0  0  0  0
 22 21  2  0  0  0  0
 25 23  1  6  0  0  0
 25 19  1  0  0  0  0
 25 22  1  0  0  0  0
M  END
>  <MODEL>
5

>  <REMARK>
 VINA RESULT:      -8.5      4.399      6.636
  Name = 
  4 active torsions:
  status: ('A' for Active; 'I' for Inactive)
    1  A    between atoms: C_4  and  C_16
    2  A    between atoms: C_8  and  C_9
    3  A    between atoms: C_8  and  N_13
    4  A    between atoms: C_18  and  C_20
                            x       y       z     vdW  Elec       q    Type
                         _______ _______ _______ _____ _____    ______ ____

>  <TORSDO>
F 4

$$$$
=
 OpenBabel11042411223D

 25 27  0  0  1  0  0  0  0  0999 V2000
  189.0620  177.6560  146.8640 N   0  0  0  0  0  0  0  0  0  0  0  0
  189.7230  177.0230  144.6610 C   0  0  0  0  0  0  0  0  0  0  0  0
  188.4330  177.2950  144.2060 C   0  0  0  0  0  3  0  0  0  0  0  0
  190.0230  177.2150  146.0100 C   0  0  0  0  0  3  0  0  0  0  0  0
  187.4430  177.7410  145.0930 C   0  0  0  0  0  0  0  0  0  0  0  0
  187.7980  177.9220  146.4380 C   0  0  0  0  0  3  0  0  0  0  0  0
  183.7750  178.7560  144.8120 C   0  0  0  0  0  3  0  0  0  0  0  0
  185.0980  178.5610  146.8860 C   0  0  0  0  0  1  0  0  0  0  0  0
  184.6800  178.2320  142.6510 C   0  0  0  0  0  3  0  0  0  0  0  0
  183.5990  178.6470  143.4320 C   0  0  0  0  0  0  0  0  0  0  0  0
  185.8760  177.9530  143.2310 N   0  0  0  0  0  0  0  0  0  0  0  0
  186.0870  178.0620  144.5750 C   0  0  0  0  0  0  0  0  0  0  0  0
  185.0080  178.4680  145.4000 C   0  0  0  0  0  0  0  0  0  0  0  0
  182.2980  178.9530  142.8180 C   0  0  0  0  0  0  0  0  0  0  0  0
  181.1790  179.1630  143.6170 O   0  0  0  0  0  1  0  0  0  0  0  0
  182.1850  179.0310  141.5650 O   0  0  0  0  0  0  0  0  0  0  0  0
  190.7810  176.5760  143.7090 C   0  0  0  0  0  2  0  0  0  0  0  0
  192.8230  177.2440  139.9290 C   0  0  0  0  0  3  0  0  0  0  0  0
  192.2510  176.8080  138.8000 C   0  0  0  0  0  3  0  0  0  0  0  0
  190.1920  176.2540  142.4160 N   0  0  0  0  0  2  0  0  0  0  0  0
  190.7670  176.6570  141.1710 C   0  0  0  0  0  0  0  0  0  0  0  0
  190.2340  176.2390  140.0590 N   0  0  0  0  0  0  0  0  0  0  0  0
  190.3900  175.6690  137.7450 N   0  0  0  0  0  1  0  0  0  0  0  0
  191.9700  177.5700  141.1270 C   0  0  0  0  0  2  0  0  0  0  0  0
  190.7540  176.6510  138.7510 C   0  0  2  0  0  3  0  0  0  0  0  0
  2  4  1  0  0  0  0
  3  2  2  0  0  0  0
  3  5  1  0  0  0  0
  4  1  2  0  0  0  0
  5  6  2  0  0  0  0
  6  1  1  0  0  0  0
  7 13  1  0  0  0  0
  9 11  2  0  0  0  0
  9 10  1  0  0  0  0
 10  7  2  0  0  0  0
 11 12  1  0  0  0  0
 12  5  1  0  0  0  0
 12 13  2  0  0  0  0
 13  8  1  0  0  0  0
 14 10  1  0  0  0  0
 14 15  1  0  0  0  0
 16 14  2  0  0  0  0
 17  2  1  0  0  0  0
 18 24  1  0  0  0  0
 19 18  2  0  0  0  0
 20 17  1  0  0  0  0
 21 20  1  0  0  0  0
 22 21  2  0  0  0  0
 24 21  1  0  0  0  0
 25 23  1  6  0  0  0
 25 19  1  0  0  0  0
 25 22  1  0  0  0  0
M  END
>  <MODEL>
6

>  <REMARK>
 VINA RESULT:      -8.5      4.431      6.620
  Name = 
  4 active torsions:
  status: ('A' for Active; 'I' for Inactive)
    1  A    between atoms: C_4  and  C_16
    2  A    between atoms: C_8  and  C_9
    3  A    between atoms: C_8  and  N_13
    4  A    between atoms: C_18  and  C_20
                            x       y       z     vdW  Elec       q    Type
                         _______ _______ _______ _____ _____    ______ ____

>  <TORSDO>
F 4

$$$$
=
 OpenBabel11042411223D

 25 27  0  0  1  0  0  0  0  0999 V2000
  190.5550  176.3160  141.0870 N   0  0  0  0  0  0  0  0  0  0  0  0
  189.3430  177.8020  139.6690 C   0  0  0  0  0  0  0  0  0  0  0  0
  188.4380  178.0380  140.7030 C   0  0  0  0  0  3  0  0  0  0  0  0
  190.4110  176.9300  139.8830 C   0  0  0  0  0  3  0  0  0  0  0  0
  188.5870  177.3950  141.9400 C   0  0  0  0  0  0  0  0  0  0  0  0
  189.6800  176.5300  142.1060 C   0  0  0  0  0  3  0  0  0  0  0  0
  187.0040  177.9440  145.3690 C   0  0  0  0  0  3  0  0  0  0  0  0
  189.3140  177.2090  144.9100 C   0  0  0  0  0  1  0  0  0  0  0  0
  185.4070  178.3420  143.6220 C   0  0  0  0  0  3  0  0  0  0  0  0
  185.7130  178.3060  144.9840 C   0  0  0  0  0  0  0  0  0  0  0  0
  186.3560  178.0390  142.6990 N   0  0  0  0  0  0  0  0  0  0  0  0
  187.6320  177.6940  143.0400 C   0  0  0  0  0  0  0  0  0  0  0  0
  187.9740  177.6350  144.4140 C   0  0  0  0  0  0  0  0  0  0  0  0
  184.6950  178.6330  145.9950 C   0  0  0  0  0  0  0  0  0  0  0  0
  183.4330  179.0650  145.6040 O   0  0  0  0  0  0  0  0  0  0  0  0
  184.9570  178.5230  147.2230 O   0  0  0  0  0  1  0  0  0  0  0  0
  189.1980  178.5100  138.3630 C   0  0  0  0  0  2  0  0  0  0  0  0
  186.7310  175.1800  137.0480 C   0  0  0  0  0  3  0  0  0  0  0  0
  185.4190  175.3800  136.8670 C   0  0  0  0  0  3  0  0  0  0  0  0
  187.7900  178.6480  138.0190 N   0  0  0  0  0  2  0  0  0  0  0  0
  187.0300  177.6100  137.3940 C   0  0  0  0  0  0  0  0  0  0  0  0
  185.7510  177.7760  137.2150 N   0  0  0  0  0  0  0  0  0  0  0  0
  183.5420  176.9100  136.9520 N   0  0  0  0  0  1  0  0  0  0  0  0
  187.6910  176.3350  136.9260 C   0  0  0  0  0  2  0  0  0  0  0  0
  184.9270  176.7660  136.5440 C   0  0  2  0  0  3  0  0  0  0  0  0
  1  6  1  0  0  0  0
  2  4  1  0  0  0  0
  2  3  2  0  0  0  0
  3  5  1  0  0  0  0
  4  1  2  0  0  0  0
  5  6  2  0  0  0  0
  5 12  1  0  0  0  0
  9 10  2  0  0  0  0
 10  7  1  0  0  0  0
 10 14  1  0  0  0  0
 11 12  2  0  0  0  0
 11  9  1  0  0  0  0
 12 13  1  0  0  0  0
 13  8  1  0  0  0  0
 13  7  2  0  0  0  0
 14 16  1  0  0  0  0
 15 14  2  0  0  0  0
 17  2  1  0  0  0  0
 19 18  2  0  0  0  0
 20 17  1  0  0  0  0
 21 20  1  0  0  0  0
 22 21  2  0  0  0  0
 24 18  1  0  0  0  0
 24 21  1  0  0  0  0
 25 19  1  0  0  0  0
 25 23  1  1  0  0  0
 25 22  1  0  0  0  0
M  END
>  <MODEL>
7

>  <REMARK>
 VINA RESULT:      -8.5      3.358      5.451
  Name = 
  4 active torsions:
  status: ('A' for Active; 'I' for Inactive)
    1  A    between atoms: C_4  and  C_16
    2  A    between atoms: C_8  and  C_9
    3  A    between atoms: C_8  and  N_13
    4  A    between atoms: C_18  and  C_20
                            x       y       z     vdW  Elec       q    Type
                         _______ _______ _______ _____ _____    ______ ____

>  <TORSDO>
F 4

$$$$
=
 OpenBabel11042411223D

 25 27  0  0  1  0  0  0  0  0999 V2000
  186.8310  178.5830  139.4510 N   0  0  0  0  0  0  0  0  0  0  0  0
  187.7890  178.2220  141.6050 C   0  0  0  0  0  0  0  0  0  0  0  0
  186.5260  178.3640  142.1800 C   0  0  0  0  0  3  0  0  0  0  0  0
  187.9230  178.3330  140.2210 C   0  0  0  0  0  3  0  0  0  0  0  0
  185.4050  178.6300  141.3830 C   0  0  0  0  0  0  0  0  0  0  0  0
  185.5930  178.7280  139.9950 C   0  0  0  0  0  3  0  0  0  0  0  0
  182.5630  179.0210  143.9000 C   0  0  0  0  0  3  0  0  0  0  0  0
  184.9800  178.9750  144.3970 C   0  0  0  0  0  1  0  0  0  0  0  0
  181.6980  178.7380  141.6780 C   0  0  0  0  0  3  0  0  0  0  0  0
  181.4670  178.9350  143.0410 C   0  0  0  0  0  0  0  0  0  0  0  0
  182.9690  178.6440  141.2070 N   0  0  0  0  0  0  0  0  0  0  0  0
  184.0640  178.7370  142.0160 C   0  0  0  0  0  0  0  0  0  0  0  0
  183.8650  178.9240  143.4070 C   0  0  0  0  0  0  0  0  0  0  0  0
  180.0970  179.0400  143.5660 C   0  0  0  0  0  0  0  0  0  0  0  0
  179.5350  177.9830  144.2730 O   0  0  0  0  0  1  0  0  0  0  0  0
  179.4210  180.0880  143.3820 O   0  0  0  0  0  0  0  0  0  0  0  0
  188.9750  177.9100  142.4550 C   0  0  0  0  0  2  0  0  0  0  0  0
  191.6250  176.6420  145.6600 C   0  0  0  0  0  3  0  0  0  0  0  0
  191.2640  176.8770  146.9280 C   0  0  0  0  0  3  0  0  0  0  0  0
  188.6230  178.0050  143.8660 N   0  0  0  0  0  2  0  0  0  0  0  0
  189.3970  177.4050  144.9080 C   0  0  0  0  0  0  0  0  0  0  0  0
  189.0710  177.6260  146.1500 N   0  0  0  0  0  0  0  0  0  0  0  0
  189.6330  177.8010  148.4640 N   0  0  0  0  0  1  0  0  0  0  0  0
  190.5720  176.5110  144.5900 C   0  0  0  0  0  2  0  0  0  0  0  0
  189.8000  177.0060  147.2610 C   0  0  2  0  0  3  0  0  0  0  0  0
  1  6  2  0  0  0  0
  1  4  1  0  0  0  0
  2  3  1  0  0  0  0
  2 17  1  0  0  0  0
  4  2  2  0  0  0  0
  5 12  1  0  0  0  0
  5  3  2  0  0  0  0
  6  5  1  0  0  0  0
  9 10  1  0  0  0  0
 10 14  1  0  0  0  0
 10  7  2  0  0  0  0
 11  9  2  0  0  0  0
 11 12  1  0  0  0  0
 12 13  2  0  0  0  0
 13  7  1  0  0  0  0
 13  8  1  0  0  0  0
 14 15  1  0  0  0  0
 16 14  2  0  0  0  0
 17 20  1  0  0  0  0
 18 19  2  0  0  0  0
 19 25  1  0  0  0  0
 20 21  1  0  0  0  0
 21 22  2  0  0  0  0
 22 25  1  0  0  0  0
 24 21  1  0  0  0  0
 24 18  1  0  0  0  0
 25 23  1  1  0  0  0
M  END
>  <MODEL>
8

>  <REMARK>
 VINA RESULT:      -8.5      4.238      8.304
  Name = 
  4 active torsions:
  status: ('A' for Active; 'I' for Inactive)
    1  A    between atoms: C_4  and  C_16
    2  A    between atoms: C_8  and  C_9
    3  A    between atoms: C_8  and  N_13
    4  A    between atoms: C_18  and  C_20
                            x       y       z     vdW  Elec       q    Type
                         _______ _______ _______ _____ _____    ______ ____

>  <TORSDO>
F 4

$$$$
=
 OpenBabel11042411223D

 25 27  0  0  1  0  0  0  0  0999 V2000
  186.9320  178.2470  141.8480 N   0  0  0  0  0  0  0  0  0  0  0  0
  185.3760  178.3120  143.6550 C   0  0  0  0  0  0  0  0  0  0  0  0
  186.3990  177.9630  144.5360 C   0  0  0  0  0  3  0  0  0  0  0  0
  185.6660  178.4550  142.2980 C   0  0  0  0  0  3  0  0  0  0  0  0
  187.7010  177.7410  144.0660 C   0  0  0  0  0  0  0  0  0  0  0  0
  187.9400  177.9010  142.6930 C   0  0  0  0  0  3  0  0  0  0  0  0
  189.6810  177.0600  147.2570 C   0  0  0  0  0  3  0  0  0  0  0  0
  187.3220  177.7690  147.1060 C   0  0  0  0  0  1  0  0  0  0  0  0
  191.0690  176.7790  145.3180 C   0  0  0  0  0  3  0  0  0  0  0  0
  190.9230  176.7430  146.7060 C   0  0  0  0  0  0  0  0  0  0  0  0
  190.0140  177.1070  144.5280 N   0  0  0  0  0  0  0  0  0  0  0  0
  188.7810  177.4090  145.0310 C   0  0  0  0  0  0  0  0  0  0  0  0
  188.6020  177.3950  146.4370 C   0  0  0  0  0  0  0  0  0  0  0  0
  192.0560  176.3890  147.5750 C   0  0  0  0  0  0  0  0  0  0  0  0
  192.7900  175.2320  147.3320 O   0  0  0  0  0  0  0  0  0  0  0  0
  192.3740  177.1280  148.5450 O   0  0  0  0  0  1  0  0  0  0  0  0
  183.9990  178.5760  144.1640 C   0  0  0  0  0  2  0  0  0  0  0  0
  179.6670  178.9020  144.3570 C   0  0  0  0  0  3  0  0  0  0  0  0
  179.0330  179.6340  143.4320 C   0  0  0  0  0  3  0  0  0  0  0  0
  183.2030  179.2410  143.1420 N   0  0  0  0  0  2  0  0  0  0  0  0
  181.7750  179.1740  143.0930 C   0  0  0  0  0  0  0  0  0  0  0  0
  181.1340  179.8840  142.2090 N   0  0  0  0  0  0  0  0  0  0  0  0
  179.1840  181.0460  141.4690 N   0  0  0  0  0  1  0  0  0  0  0  0
  181.0040  178.2840  144.0390 C   0  0  0  0  0  2  0  0  0  0  0  0
  179.6740  179.8260  142.0830 C   0  0  2  0  0  3  0  0  0  0  0  0
  1  4  2  0  0  0  0
  1  6  1  0  0  0  0
  2 17  1  0  0  0  0
  2  3  2  0  0  0  0
  4  2  1  0  0  0  0
  5  3  1  0  0  0  0
  5 12  1  0  0  0  0
  6  5  2  0  0  0  0
  9 10  2  0  0  0  0
 10  7  1  0  0  0  0
 10 14  1  0  0  0  0
 11 12  2  0  0  0  0
 11  9  1  0  0  0  0
 12 13  1  0  0  0  0
 13  8  1  0  0  0  0
 13  7  2  0  0  0  0
 14 16  1  0  0  0  0
 15 14  2  0  0  0  0
 19 18  2  0  0  0  0
 20 17  1  0  0  0  0
 21 20  1  0  0  0  0
 21 24  1  0  0  0  0
 22 21  2  0  0  0  0
 24 18  1  0  0  0  0
 25 23  1  1  0  0  0
 25 22  1  0  0  0  0
 25 19  1  0  0  0  0
M  END
>  <MODEL>
9

>  <REMARK>
 VINA RESULT:      -8.5      2.653      4.422
  Name = 
  4 active torsions:
  status: ('A' for Active; 'I' for Inactive)
    1  A    between atoms: C_4  and  C_16
    2  A    between atoms: C_8  and  C_9
    3  A    between atoms: C_8  and  N_13
    4  A    between atoms: C_18  and  C_20
                            x       y       z     vdW  Elec       q    Type
                         _______ _______ _______ _____ _____    ______ ____

>  <TORSDO>
F 4

$$$$
