=
 OpenBabel11042410323D

 35 39  0  0  1  0  0  0  0  0999 V2000
  185.9960  177.7990  145.8550 C   0  0  0  0  0  2  0  0  0  0  0  0
  187.6050  177.0280  144.2540 C   0  0  1  0  0  3  0  0  0  0  0  0
  186.0820  178.7260  137.4960 S   0  0  0  0  0  0  0  0  0  0  0  0
  188.0360  176.9620  141.8180 C   0  0  0  0  0  3  0  0  0  0  0  0
  189.6920  178.4720  141.5910 C   0  0  0  0  0  3  0  0  0  0  0  0
  189.6590  177.9620  138.6250 C   0  0  0  0  0  3  0  0  0  0  0  0
  184.1800  179.9090  143.3650 C   0  0  0  0  0  1  0  0  0  0  0  0
  185.0850  178.3720  138.9430 C   0  0  0  0  0  0  0  0  0  0  0  0
  188.1730  177.1590  135.4110 O   0  0  0  0  0  0  0  0  0  0  0  0
  183.5510  177.8340  141.2200 C   0  0  0  0  0  3  0  0  0  0  0  0
  189.3000  177.5540  147.6240 N   0  0  0  0  0  1  0  0  0  0  0  0
  187.0760  177.1860  137.5390 C   0  0  2  0  0  3  0  0  0  0  0  0
  185.4940  178.8410  140.1950 C   0  0  0  0  0  3  0  0  0  0  0  0
  188.5400  176.7550  145.4500 C   0  0  0  0  0  2  0  0  0  0  0  0
  187.5310  176.9020  138.9000 N   0  0  0  0  0  2  0  0  0  0  0  0
  189.4960  177.8490  137.2060 N   0  0  0  0  0  0  0  0  0  0  0  0
  186.5660  178.0390  144.5300 N   0  0  1  0  0  0  0  0  0  0  0  0
  188.8510  177.6060  140.9080 C   0  0  0  0  0  0  0  0  0  0  0  0
  185.2260  179.0320  142.6990 C   0  0  2  0  0  0  0  0  0  0  0  0
  183.1320  177.3720  139.9670 C   0  0  0  0  0  3  0  0  0  0  0  0
  188.7150  177.4970  139.4500 C   0  0  2  0  0  3  0  0  0  0  0  0
  188.4580  177.8720  146.4860 C   0  0  1  0  0  3  0  0  0  0  0  0
  189.3360  178.3050  142.9190 C   0  0  0  0  0  0  0  0  0  0  0  0
  184.7370  178.5770  141.3450 C   0  0  0  0  0  0  0  0  0  0  0  0
  188.3600  177.3830  143.0510 N   0  0  0  0  0  0  0  0  0  0  0  0
  185.4860  177.8050  143.5780 C   0  0  0  0  0  2  0  0  0  0  0  0
  186.3890  179.7780  142.5590 F   0  0  0  0  0  0  0  0  0  0  0  0
  188.2680  177.3670  136.6490 C   0  0  0  0  0  0  0  0  0  0  0  0
  183.8990  177.6400  138.8280 C   0  0  0  0  0  3  0  0  0  0  0  0
  187.0200  178.1010  146.9540 C   0  0  0  0  0  2  0  0  0  0  0  0
  189.8750  179.0150  143.9940 O   0  0  0  0  0  0  0  0  0  0  0  0
  191.2660  178.9970  144.2920 C   0  0  0  0  0  2  0  0  0  0  0  0
  191.9440  177.2640  145.8020 O   0  0  0  0  0  1  0  0  0  0  0  0
  191.9140  176.7000  143.5840 O   0  0  0  0  0  0  0  0  0  0  0  0
  191.7220  177.6110  144.6130 C   0  0  0  0  0  0  0  0  0  0  0  0
  1 30  1  0  0  0  0
  2 17  1  0  0  0  0
  2 14  1  1  0  0  0
  3 12  1  0  0  0  0
  3  8  1  0  0  0  0
  4 25  1  0  0  0  0
  5 23  2  0  0  0  0
  8 13  1  0  0  0  0
  9 28  2  0  0  0  0
 10 24  1  0  0  0  0
 12 28  1  6  0  0  0
 12 15  1  0  0  0  0
 13 24  2  0  0  0  0
 14 22  1  0  0  0  0
 15 21  1  0  0  0  0
 16  6  2  0  0  0  0
 17 26  1  6  0  0  0
 17  1  1  0  0  0  0
 18  5  1  0  0  0  0
 18  4  2  0  0  0  0
 19  7  1  1  0  0  0
 19 26  1  0  0  0  0
 20 10  2  0  0  0  0
 21  6  1  6  0  0  0
 21 18  1  0  0  0  0
 22 30  1  0  0  0  0
 22 11  1  1  0  0  0
 23 25  1  0  0  0  0
 23 31  1  0  0  0  0
 24 19  1  0  0  0  0
 25  2  1  0  0  0  0
 27 19  1  0  0  0  0
 28 16  1  0  0  0  0
 29  8  2  0  0  0  0
 29 20  1  0  0  0  0
 31 32  1  0  0  0  0
 32 35  1  0  0  0  0
 34 35  2  0  0  0  0
 35 33  1  0  0  0  0
M  END
>  <MODEL>
1

>  <REMARK>
 VINA RESULT:      -7.4      0.000      0.000
  Name = 
  3 active torsions:
  status: ('A' for Active; 'I' for Inactive)
    1  A    between atoms: C_1  and  C_15
    2  A    between atoms: C_1  and  O_34
    3  A    between atoms: C_27  and  O_34
                            x       y       z     vdW  Elec       q    Type
                         _______ _______ _______ _____ _____    ______ ____

>  <TORSDO>
F 3

$$$$
=
 OpenBabel11042410323D

 35 39  0  0  1  0  0  0  0  0999 V2000
  192.5690  176.6660  141.2640 C   0  0  0  0  0  2  0  0  0  0  0  0
  190.1880  176.5700  141.0070 C   0  0  1  0  0  3  0  0  0  0  0  0
  186.5180  179.1550  146.5500 S   0  0  0  0  0  0  0  0  0  0  0  0
  188.0860  177.0580  142.2190 C   0  0  0  0  0  3  0  0  0  0  0  0
  187.3440  178.9000  141.1540 C   0  0  0  0  0  3  0  0  0  0  0  0
  185.0010  178.9650  143.0420 C   0  0  0  0  0  3  0  0  0  0  0  0
  192.3870  178.7760  144.3400 C   0  0  0  0  0  1  0  0  0  0  0  0
  188.1010  178.3300  146.3830 C   0  0  0  0  0  0  0  0  0  0  0  0
  183.2620  178.4890  146.1930 O   0  0  0  0  0  0  0  0  0  0  0  0
  190.5770  177.0590  146.0960 C   0  0  0  0  0  3  0  0  0  0  0  0
  191.8400  176.7950  137.5820 N   0  0  0  0  0  1  0  0  0  0  0  0
  185.5210  177.8800  145.6880 C   0  0  2  0  0  3  0  0  0  0  0  0
  188.9240  178.6300  145.2940 C   0  0  0  0  0  3  0  0  0  0  0  0
  190.4440  176.2800  139.5140 C   0  0  0  0  0  2  0  0  0  0  0  0
  186.1880  177.4470  144.4600 N   0  0  0  0  0  2  0  0  0  0  0  0
  184.0050  179.0900  144.0640 N   0  0  0  0  0  2  0  0  0  0  0  0
  191.3010  177.2680  141.6780 N   0  0  1  0  0  0  0  0  0  0  0  0
  187.0960  178.0210  142.1980 C   0  0  0  0  0  0  0  0  0  0  0  0
  191.0140  178.2820  143.9190 C   0  0  2  0  0  0  0  0  0  0  0  0
  189.7610  176.7650  147.1940 C   0  0  0  0  0  3  0  0  0  0  0  0
  186.0550  178.1630  143.2240 C   0  0  0  0  0  0  0  0  0  0  0  0
  191.5820  177.1370  138.9690 C   0  0  1  0  0  3  0  0  0  0  0  0
  188.5060  178.4130  140.5770 C   0  0  0  0  0  0  0  0  0  0  0  0
  190.1660  177.9990  145.1360 C   0  0  0  0  0  0  0  0  0  0  0  0
  188.9330  177.2970  141.2050 N   0  0  0  0  0  0  0  0  0  0  0  0
  191.1720  176.9950  143.1050 C   0  0  0  0  0  2  0  0  0  0  0  0
  190.4200  179.2700  143.1440 F   0  0  0  0  0  0  0  0  0  0  0  0
  184.1900  178.4740  145.3420 C   0  0  0  0  0  0  0  0  0  0  0  0
  188.5230  177.4000  147.3380 C   0  0  0  0  0  3  0  0  0  0  0  0
  192.8610  176.9640  139.7910 C   0  0  0  0  0  2  0  0  0  0  0  0
  189.1860  179.0040  139.5110 O   0  0  0  0  0  0  0  0  0  0  0  0
  188.6720  178.9910  138.1840 C   0  0  0  0  0  2  0  0  0  0  0  0
  187.6400  176.8400  137.9540 O   0  0  0  0  0  0  0  0  0  0  0  0
  186.2110  178.6200  138.1180 O   0  0  0  0  0  1  0  0  0  0  0  0
  187.4900  178.0830  138.0830 C   0  0  0  0  0  0  0  0  0  0  0  0
  2 14  1  6  0  0  0
  2 25  1  0  0  0  0
  2 17  1  0  0  0  0
  5 18  1  0  0  0  0
  6 21  2  0  0  0  0
  6 16  1  0  0  0  0
  8  3  1  0  0  0  0
  8 29  1  0  0  0  0
 10 20  1  0  0  0  0
 12 15  1  6  0  0  0
 12  3  1  0  0  0  0
 13  8  2  0  0  0  0
 16 28  1  0  0  0  0
 17  1  1  6  0  0  0
 17 26  1  0  0  0  0
 18  4  2  0  0  0  0
 18 21  1  0  0  0  0
 19  7  1  1  0  0  0
 19 24  1  0  0  0  0
 20 29  2  0  0  0  0
 21 15  1  0  0  0  0
 22 11  1  6  0  0  0
 22 14  1  0  0  0  0
 22 30  1  0  0  0  0
 23  5  2  0  0  0  0
 23 25  1  0  0  0  0
 24 13  1  0  0  0  0
 24 10  2  0  0  0  0
 25  4  1  0  0  0  0
 26 19  1  0  0  0  0
 27 19  1  0  0  0  0
 28 12  1  0  0  0  0
 28  9  2  0  0  0  0
 30  1  1  0  0  0  0
 31 23  1  0  0  0  0
 32 31  1  0  0  0  0
 33 35  2  0  0  0  0
 35 34  1  0  0  0  0
 35 32  1  0  0  0  0
M  END
>  <MODEL>
2

>  <REMARK>
 VINA RESULT:      -6.7      3.046      7.243
  Name = 
  3 active torsions:
  status: ('A' for Active; 'I' for Inactive)
    1  A    between atoms: C_1  and  C_15
    2  A    between atoms: C_1  and  O_34
    3  A    between atoms: C_27  and  O_34
                            x       y       z     vdW  Elec       q    Type
                         _______ _______ _______ _____ _____    ______ ____

>  <TORSDO>
F 3

$$$$
=
 OpenBabel11042410323D

 35 39  0  0  1  0  0  0  0  0999 V2000
  190.9130  177.1180  146.5300 C   0  0  0  0  0  2  0  0  0  0  0  0
  189.2870  178.3520  145.2740 C   0  0  1  0  0  3  0  0  0  0  0  0
  189.1780  176.8390  138.3050 S   0  0  0  0  0  0  0  0  0  0  0  0
  188.4740  178.6910  142.9620 C   0  0  0  0  0  3  0  0  0  0  0  0
  186.4900  177.6250  142.9980 C   0  0  0  0  0  3  0  0  0  0  0  0
  186.1360  178.3240  140.0920 C   0  0  0  0  0  3  0  0  0  0  0  0
  191.7160  174.8310  143.6890 C   0  0  0  0  0  1  0  0  0  0  0  0
  190.4630  176.8490  139.5550 C   0  0  0  0  0  0  0  0  0  0  0  0
  187.1980  178.9910  136.6850 O   0  0  0  0  0  0  0  0  0  0  0  0
  192.4480  176.8530  141.5260 C   0  0  0  0  0  3  0  0  0  0  0  0
  188.1180  177.9910  148.8810 N   0  0  0  0  0  1  0  0  0  0  0  0
  188.6040  178.5600  138.5740 C   0  0  2  0  0  3  0  0  0  0  0  0
  190.1740  176.3980  140.8460 C   0  0  0  0  0  3  0  0  0  0  0  0
  188.6630  178.7470  146.6290 C   0  0  0  0  0  2  0  0  0  0  0  0
  188.4710  178.8420  140.0040 N   0  0  0  0  0  2  0  0  0  0  0  0
  186.0770  178.4990  138.6710 N   0  0  0  0  0  0  0  0  0  0  0  0
  190.0840  177.1120  145.3250 N   0  0  1  0  0  0  0  0  0  0  0  0
  187.3850  178.3200  142.1980 C   0  0  0  0  0  0  0  0  0  0  0  0
  190.8130  175.9710  143.2520 C   0  0  2  0  0  0  0  0  0  0  0  0
  192.7440  177.2950  140.2320 C   0  0  0  0  0  3  0  0  0  0  0  0
  187.2910  178.4990  140.7430 C   0  0  2  0  0  3  0  0  0  0  0  0
  188.6510  177.5710  147.6000 C   0  0  1  0  0  3  0  0  0  0  0  0
  187.0980  177.6090  144.2430 C   0  0  0  0  0  0  0  0  0  0  0  0
  191.1580  176.3970  141.8440 C   0  0  0  0  0  0  0  0  0  0  0  0
  188.2740  178.2690  144.2210 N   0  0  0  0  0  0  0  0  0  0  0  0
  191.0090  177.1580  144.1990 C   0  0  0  0  0  2  0  0  0  0  0  0
  189.4990  175.5250  143.3060 F   0  0  0  0  0  0  0  0  0  0  0  0
  187.2700  178.7230  137.9130 C   0  0  0  0  0  0  0  0  0  0  0  0
  191.7520  177.2930  139.2460 C   0  0  0  0  0  3  0  0  0  0  0  0
  190.0510  176.9830  147.7890 C   0  0  0  0  0  2  0  0  0  0  0  0
  186.5970  176.9670  145.3770 O   0  0  0  0  0  0  0  0  0  0  0  0
  185.2930  177.2310  145.8830 C   0  0  0  0  0  2  0  0  0  0  0  0
  185.5130  179.3510  146.9780 O   0  0  0  0  0  1  0  0  0  0  0  0
  184.3170  179.3550  145.0270 O   0  0  0  0  0  0  0  0  0  0  0  0
  185.0580  178.7010  146.0010 C   0  0  0  0  0  0  0  0  0  0  0  0
  1 30  1  0  0  0  0
  2 17  1  0  0  0  0
  2 14  1  1  0  0  0
  3 12  1  0  0  0  0
  3  8  1  0  0  0  0
  4 25  1  0  0  0  0
  5 23  2  0  0  0  0
  8 13  1  0  0  0  0
  9 28  2  0  0  0  0
 10 24  1  0  0  0  0
 12 28  1  6  0  0  0
 12 15  1  0  0  0  0
 13 24  2  0  0  0  0
 14 22  1  0  0  0  0
 15 21  1  0  0  0  0
 16  6  2  0  0  0  0
 17 26  1  6  0  0  0
 17  1  1  0  0  0  0
 18  4  2  0  0  0  0
 18  5  1  0  0  0  0
 19 27  1  0  0  0  0
 19  7  1  1  0  0  0
 19 26  1  0  0  0  0
 20 10  2  0  0  0  0
 21  6  1  6  0  0  0
 21 18  1  0  0  0  0
 22 30  1  0  0  0  0
 22 11  1  1  0  0  0
 23 31  1  0  0  0  0
 24 19  1  0  0  0  0
 25 23  1  0  0  0  0
 25  2  1  0  0  0  0
 28 16  1  0  0  0  0
 29  8  2  0  0  0  0
 29 20  1  0  0  0  0
 31 32  1  0  0  0  0
 32 35  1  0  0  0  0
 34 35  2  0  0  0  0
 35 33  1  0  0  0  0
M  END
>  <MODEL>
3

>  <REMARK>
 VINA RESULT:      -6.6      2.576      5.097
  Name = 
  3 active torsions:
  status: ('A' for Active; 'I' for Inactive)
    1  A    between atoms: C_1  and  C_15
    2  A    between atoms: C_1  and  O_34
    3  A    between atoms: C_27  and  O_34
                            x       y       z     vdW  Elec       q    Type
                         _______ _______ _______ _____ _____    ______ ____

>  <TORSDO>
F 3

$$$$
=
 OpenBabel11042410323D

 35 39  0  0  1  0  0  0  0  0999 V2000
  191.7940  177.5780  142.1470 C   0  0  0  0  0  2  0  0  0  0  0  0
  189.6760  178.5600  142.6860 C   0  0  1  0  0  3  0  0  0  0  0  0
  184.7290  177.8790  137.5930 S   0  0  0  0  0  0  0  0  0  0  0  0
  187.4330  178.9770  141.7280 C   0  0  0  0  0  3  0  0  0  0  0  0
  186.1560  177.5030  142.8550 C   0  0  0  0  0  3  0  0  0  0  0  0
  183.7820  178.4390  141.2600 C   0  0  0  0  0  3  0  0  0  0  0  0
  190.4890  175.8680  139.0930 C   0  0  0  0  0  1  0  0  0  0  0  0
  186.5150  178.0260  137.5790 C   0  0  0  0  0  0  0  0  0  0  0  0
  182.0370  179.7140  138.3430 O   0  0  0  0  0  0  0  0  0  0  0  0
  189.3050  178.2400  137.5820 C   0  0  0  0  0  3  0  0  0  0  0  0
  191.4670  177.5340  145.8870 N   0  0  0  0  0  1  0  0  0  0  0  0
  184.3970  179.3880  138.5810 C   0  0  2  0  0  3  0  0  0  0  0  0
  187.2690  177.3760  138.5600 C   0  0  0  0  0  3  0  0  0  0  0  0
  190.1810  178.6480  144.1410 C   0  0  0  0  0  2  0  0  0  0  0  0
  185.3060  179.4660  139.7250 N   0  0  0  0  0  2  0  0  0  0  0  0
  182.7130  178.7600  140.3620 N   0  0  0  0  0  0  0  0  0  0  0  0
  190.3570  177.5280  141.8810 N   0  0  1  0  0  0  0  0  0  0  0  0
  186.1560  178.4660  141.8570 C   0  0  0  0  0  0  0  0  0  0  0  0
  189.4650  176.8250  139.6800 C   0  0  2  0  0  0  0  0  0  0  0  0
  188.5530  178.8820  136.5920 C   0  0  0  0  0  3  0  0  0  0  0  0
  185.0380  178.7870  140.9610 C   0  0  2  0  0  3  0  0  0  0  0  0
  190.9520  177.3930  144.5380 C   0  0  1  0  0  3  0  0  0  0  0  0
  187.4700  177.4770  143.2950 C   0  0  0  0  0  0  0  0  0  0  0  0
  188.6680  177.4760  138.5750 C   0  0  0  0  0  0  0  0  0  0  0  0
  188.2240  178.3780  142.6320 N   0  0  0  0  0  0  0  0  0  0  0  0
  190.1920  177.9070  140.4820 C   0  0  0  0  0  2  0  0  0  0  0  0
  188.6220  176.0970  140.5100 F   0  0  0  0  0  0  0  0  0  0  0  0
  182.9840  179.3280  139.0770 C   0  0  0  0  0  0  0  0  0  0  0  0
  187.1590  178.7760  136.5900 C   0  0  0  0  0  3  0  0  0  0  0  0
  192.1040  177.1100  143.5720 C   0  0  0  0  0  2  0  0  0  0  0  0
  187.9790  176.6140  144.2670 O   0  0  0  0  0  0  0  0  0  0  0  0
  187.3450  176.4370  145.5280 C   0  0  0  0  0  2  0  0  0  0  0  0
  188.4090  177.8780  147.1200 O   0  0  0  0  0  1  0  0  0  0  0  0
  186.4260  178.6310  146.2610 O   0  0  0  0  0  0  0  0  0  0  0  0
  187.4360  177.6830  146.3460 C   0  0  0  0  0  0  0  0  0  0  0  0
  1 30  1  0  0  0  0
  2 14  1  1  0  0  0
  4 18  2  0  0  0  0
  4 25  1  0  0  0  0
  5 23  2  0  0  0  0
  8  3  1  0  0  0  0
  8 13  1  0  0  0  0
  9 28  2  0  0  0  0
 10 24  1  0  0  0  0
 12  3  1  1  0  0  0
 12 28  1  0  0  0  0
 12 15  1  0  0  0  0
 13 24  2  0  0  0  0
 14 22  1  0  0  0  0
 15 21  1  0  0  0  0
 16  6  2  0  0  0  0
 17 26  1  6  0  0  0
 17  1  1  0  0  0  0
 17  2  1  0  0  0  0
 18  5  1  0  0  0  0
 19  7  1  6  0  0  0
 19 26  1  0  0  0  0
 19 27  1  0  0  0  0
 20 10  2  0  0  0  0
 21  6  1  6  0  0  0
 21 18  1  0  0  0  0
 22 11  1  1  0  0  0
 23 31  1  0  0  0  0
 24 19  1  0  0  0  0
 25  2  1  0  0  0  0
 25 23  1  0  0  0  0
 28 16  1  0  0  0  0
 29 20  1  0  0  0  0
 29  8  2  0  0  0  0
 30 22  1  0  0  0  0
 31 32  1  0  0  0  0
 32 35  1  0  0  0  0
 34 35  2  0  0  0  0
 35 33  1  0  0  0  0
M  END
>  <MODEL>
4

>  <REMARK>
 VINA RESULT:      -6.5      2.491      4.852
  Name = 
  3 active torsions:
  status: ('A' for Active; 'I' for Inactive)
    1  A    between atoms: C_1  and  C_15
    2  A    between atoms: C_1  and  O_34
    3  A    between atoms: C_27  and  O_34
                            x       y       z     vdW  Elec       q    Type
                         _______ _______ _______ _____ _____    ______ ____

>  <TORSDO>
F 3

$$$$
=
 OpenBabel11042410323D

 35 39  0  0  1  0  0  0  0  0999 V2000
  185.9530  177.8780  144.4180 C   0  0  0  0  0  2  0  0  0  0  0  0
  187.8850  176.7700  143.5320 C   0  0  1  0  0  3  0  0  0  0  0  0
  188.9910  177.8830  136.5740 S   0  0  0  0  0  0  0  0  0  0  0  0
  189.1020  176.3950  141.4100 C   0  0  0  0  0  3  0  0  0  0  0  0
  190.9300  177.6840  141.6800 C   0  0  0  0  0  3  0  0  0  0  0  0
  191.8320  176.8650  138.9280 C   0  0  0  0  0  3  0  0  0  0  0  0
  185.3980  179.8900  141.3210 C   0  0  0  0  0  1  0  0  0  0  0  0
  187.5240  177.7960  137.6020 C   0  0  0  0  0  0  0  0  0  0  0  0
  191.4260  175.8840  135.4560 O   0  0  0  0  0  0  0  0  0  0  0  0
  185.2510  177.6750  139.2280 C   0  0  0  0  0  3  0  0  0  0  0  0
  188.3960  177.4710  147.2410 N   0  0  0  0  0  1  0  0  0  0  0  0
  189.6880  176.2580  137.0600 C   0  0  2  0  0  3  0  0  0  0  0  0
  187.5460  178.3510  138.8840 C   0  0  0  0  0  3  0  0  0  0  0  0
  188.3140  176.5290  144.9940 C   0  0  0  0  0  2  0  0  0  0  0  0
  189.6120  176.0760  138.5100 N   0  0  0  0  0  2  0  0  0  0  0  0
  192.1450  176.6160  137.5520 N   0  0  0  0  0  0  0  0  0  0  0  0
  186.9660  177.9110  143.3620 N   0  0  1  0  0  0  0  0  0  0  0  0
  190.2580  176.8460  140.8030 C   0  0  0  0  0  0  0  0  0  0  0  0
  186.4750  178.8390  141.1190 C   0  0  2  0  0  0  0  0  0  0  0  0
  185.2220  177.1290  137.9400 C   0  0  0  0  0  3  0  0  0  0  0  0
  190.6100  176.5950  139.3990 C   0  0  2  0  0  3  0  0  0  0  0  0
  188.0410  177.7520  145.8630 C   0  0  1  0  0  3  0  0  0  0  0  0
  190.1260  177.7010  142.8080 C   0  0  0  0  0  0  0  0  0  0  0  0
  186.4150  178.2960  139.7110 C   0  0  0  0  0  0  0  0  0  0  0  0
  189.0440  176.9090  142.6490 N   0  0  0  0  0  0  0  0  0  0  0  0
  186.2500  177.6930  142.1100 C   0  0  0  0  0  2  0  0  0  0  0  0
  187.7080  179.4360  141.3470 F   0  0  0  0  0  0  0  0  0  0  0  0
  191.1240  176.2130  136.6330 C   0  0  0  0  0  0  0  0  0  0  0  0
  186.3580  177.1890  137.1260 C   0  0  0  0  0  3  0  0  0  0  0  0
  186.5760  178.1840  145.7830 C   0  0  0  0  0  2  0  0  0  0  0  0
  190.3610  178.4610  143.9550 O   0  0  0  0  0  0  0  0  0  0  0  0
  191.5910  178.3930  144.6690 C   0  0  0  0  0  2  0  0  0  0  0  0
  191.7330  177.0540  146.6510 O   0  0  0  0  0  1  0  0  0  0  0  0
  191.8180  175.9140  144.6680 O   0  0  0  0  0  0  0  0  0  0  0  0
  191.7120  177.0930  145.3930 C   0  0  0  0  0  0  0  0  0  0  0  0
  1 30  1  0  0  0  0
  2 14  1  1  0  0  0
  3  8  1  0  0  0  0
  4 25  1  0  0  0  0
  5 23  2  0  0  0  0
  8 13  1  0  0  0  0
  9 28  2  0  0  0  0
 10 24  1  0  0  0  0
 12  3  1  1  0  0  0
 12 15  1  0  0  0  0
 13 24  2  0  0  0  0
 14 22  1  0  0  0  0
 15 21  1  0  0  0  0
 16  6  2  0  0  0  0
 17 26  1  6  0  0  0
 17  2  1  0  0  0  0
 17  1  1  0  0  0  0
 18  4  2  0  0  0  0
 18  5  1  0  0  0  0
 19  7  1  1  0  0  0
 19 27  1  0  0  0  0
 19 26  1  0  0  0  0
 20 10  2  0  0  0  0
 21  6  1  6  0  0  0
 21 18  1  0  0  0  0
 22 11  1  1  0  0  0
 23 31  1  0  0  0  0
 24 19  1  0  0  0  0
 25 23  1  0  0  0  0
 25  2  1  0  0  0  0
 28 12  1  0  0  0  0
 28 16  1  0  0  0  0
 29  8  2  0  0  0  0
 29 20  1  0  0  0  0
 30 22  1  0  0  0  0
 31 32  1  0  0  0  0
 32 35  1  0  0  0  0
 34 35  2  0  0  0  0
 35 33  1  0  0  0  0
M  END
>  <MODEL>
5

>  <REMARK>
 VINA RESULT:      -6.3      1.642      2.033
  Name = 
  3 active torsions:
  status: ('A' for Active; 'I' for Inactive)
    1  A    between atoms: C_1  and  C_15
    2  A    between atoms: C_1  and  O_34
    3  A    between atoms: C_27  and  O_34
                            x       y       z     vdW  Elec       q    Type
                         _______ _______ _______ _____ _____    ______ ____

>  <TORSDO>
F 3

$$$$
=
 OpenBabel11042410323D

 35 39  0  0  1  0  0  0  0  0999 V2000
  179.4680  179.9050  139.0050 C   0  0  0  0  0  2  0  0  0  0  0  0
  181.7610  180.1100  138.3400 C   0  0  1  0  0  3  0  0  0  0  0  0
  186.4410  177.5010  143.0480 S   0  0  0  0  0  0  0  0  0  0  0  0
  184.0600  179.6710  139.1450 C   0  0  0  0  0  3  0  0  0  0  0  0
  184.6680  177.8990  137.8940 C   0  0  0  0  0  3  0  0  0  0  0  0
  187.3080  177.8700  139.3380 C   0  0  0  0  0  3  0  0  0  0  0  0
  180.2650  177.7040  141.9160 C   0  0  0  0  0  1  0  0  0  0  0  0
  184.8250  178.2630  143.1940 C   0  0  0  0  0  0  0  0  0  0  0  0
  189.5570  178.3140  142.1530 O   0  0  0  0  0  0  0  0  0  0  0  0
  182.2940  179.4370  143.3950 C   0  0  0  0  0  3  0  0  0  0  0  0
  179.5400  179.9280  135.2510 N   0  0  0  0  0  1  0  0  0  0  0  0
  187.2240  178.8440  142.0760 C   0  0  2  0  0  3  0  0  0  0  0  0
  183.8340  177.9640  142.2540 C   0  0  0  0  0  3  0  0  0  0  0  0
  181.2350  180.4380  136.9280 C   0  0  0  0  0  2  0  0  0  0  0  0
  186.3360  179.2890  141.0020 N   0  0  0  0  0  2  0  0  0  0  0  0
  188.4730  177.7530  140.1640 N   0  0  0  0  0  2  0  0  0  0  0  0
  180.8090  179.3440  139.1670 N   0  0  1  0  0  0  0  0  0  0  0  0
  185.0650  178.7520  138.9130 C   0  0  0  0  0  0  0  0  0  0  0  0
  181.5230  178.2690  141.2800 C   0  0  2  0  0  0  0  0  0  0  0  0
  183.2790  179.7290  144.3440 C   0  0  0  0  0  3  0  0  0  0  0  0
  186.2750  178.6200  139.7340 C   0  0  0  0  0  0  0  0  0  0  0  0
  180.0500  179.5520  136.5560 C   0  0  1  0  0  3  0  0  0  0  0  0
  183.4060  178.3550  137.5490 C   0  0  0  0  0  0  0  0  0  0  0  0
  182.5620  178.5480  142.3410 C   0  0  0  0  0  0  0  0  0  0  0  0
  183.0560  179.4300  138.2860 N   0  0  0  0  0  0  0  0  0  0  0  0
  181.1780  179.5740  140.5590 C   0  0  0  0  0  2  0  0  0  0  0  0
  182.0070  177.3330  140.3750 F   0  0  0  0  0  0  0  0  0  0  0  0
  188.4940  178.3190  141.4790 C   0  0  0  0  0  0  0  0  0  0  0  0
  184.5450  179.1420  144.2440 C   0  0  0  0  0  3  0  0  0  0  0  0
  178.9310  179.6440  137.5950 C   0  0  0  0  0  2  0  0  0  0  0  0
  182.5700  177.7710  136.5950 O   0  0  0  0  0  0  0  0  0  0  0  0
  182.4570  176.3600  136.4510 C   0  0  0  0  0  2  0  0  0  0  0  0
  180.4610  176.2090  137.7680 O   0  0  0  0  0  0  0  0  0  0  0  0
  182.1410  174.7630  138.3330 O   0  0  0  0  0  1  0  0  0  0  0  0
  181.6220  175.7800  137.5450 C   0  0  0  0  0  0  0  0  0  0  0  0
  2 14  1  6  0  0  0
  2 17  1  0  0  0  0
  3  8  1  0  0  0  0
  5 18  1  0  0  0  0
  6 21  2  0  0  0  0
  6 16  1  0  0  0  0
  8 29  1  0  0  0  0
 10 20  1  0  0  0  0
 12 15  1  6  0  0  0
 12  3  1  0  0  0  0
 13 24  1  0  0  0  0
 13  8  2  0  0  0  0
 16 28  1  0  0  0  0
 17  1  1  1  0  0  0
 17 26  1  0  0  0  0
 18  4  2  0  0  0  0
 18 21  1  0  0  0  0
 19  7  1  1  0  0  0
 19 24  1  0  0  0  0
 21 15  1  0  0  0  0
 22 11  1  6  0  0  0
 22 14  1  0  0  0  0
 22 30  1  0  0  0  0
 23  5  2  0  0  0  0
 23 25  1  0  0  0  0
 24 10  2  0  0  0  0
 25  2  1  0  0  0  0
 25  4  1  0  0  0  0
 26 19  1  0  0  0  0
 27 19  1  0  0  0  0
 28 12  1  0  0  0  0
 28  9  2  0  0  0  0
 29 20  2  0  0  0  0
 30  1  1  0  0  0  0
 31 23  1  0  0  0  0
 32 31  1  0  0  0  0
 32 35  1  0  0  0  0
 35 33  2  0  0  0  0
 35 34  1  0  0  0  0
M  END
>  <MODEL>
6

>  <REMARK>
 VINA RESULT:      -6.2      4.031      8.037
  Name = 
  3 active torsions:
  status: ('A' for Active; 'I' for Inactive)
    1  A    between atoms: C_1  and  C_15
    2  A    between atoms: C_1  and  O_34
    3  A    between atoms: C_27  and  O_34
                            x       y       z     vdW  Elec       q    Type
                         _______ _______ _______ _____ _____    ______ ____

>  <TORSDO>
F 3

$$$$
=
 OpenBabel11042410323D

 35 39  0  0  1  0  0  0  0  0999 V2000
  186.1300  179.0460  139.6580 C   0  0  0  0  0  2  0  0  0  0  0  0
  188.3560  178.8930  140.5350 C   0  0  1  0  0  3  0  0  0  0  0  0
  188.7060  176.7530  147.3300 S   0  0  0  0  0  0  0  0  0  0  0  0
  189.5860  178.3840  142.6210 C   0  0  0  0  0  3  0  0  0  0  0  0
  190.4630  176.3580  142.1700 C   0  0  0  0  0  3  0  0  0  0  0  0
  191.6590  176.3350  144.9310 C   0  0  0  0  0  3  0  0  0  0  0  0
  184.5970  177.3570  142.6160 C   0  0  0  0  0  1  0  0  0  0  0  0
  187.5050  177.6860  146.3810 C   0  0  0  0  0  0  0  0  0  0  0  0
  191.8280  177.0690  148.4830 O   0  0  0  0  0  0  0  0  0  0  0  0
  185.6370  179.1240  144.8760 C   0  0  0  0  0  3  0  0  0  0  0  0
  188.4230  178.3620  136.7640 N   0  0  0  0  0  1  0  0  0  0  0  0
  190.1550  177.8060  146.9370 C   0  0  2  0  0  3  0  0  0  0  0  0
  187.2330  177.3180  145.0600 C   0  0  0  0  0  3  0  0  0  0  0  0
  188.8480  179.0030  139.0770 C   0  0  0  0  0  2  0  0  0  0  0  0
  190.1860  178.1290  145.5100 N   0  0  0  0  0  2  0  0  0  0  0  0
  192.0550  176.2590  146.3060 N   0  0  0  0  0  2  0  0  0  0  0  0
  186.9730  178.3930  140.6600 N   0  0  1  0  0  0  0  0  0  0  0  0
  190.3320  177.3430  143.1380 C   0  0  0  0  0  0  0  0  0  0  0  0
  186.0670  177.6660  142.8470 C   0  0  2  0  0  0  0  0  0  0  0  0
  185.8980  179.4880  146.2010 C   0  0  0  0  0  3  0  0  0  0  0  0
  190.7620  177.2450  144.5390 C   0  0  0  0  0  0  0  0  0  0  0  0
  187.9730  178.1860  138.1320 C   0  0  1  0  0  3  0  0  0  0  0  0
  189.7700  176.8660  141.0820 C   0  0  0  0  0  0  0  0  0  0  0  0
  186.3010  178.0320  144.2930 C   0  0  0  0  0  0  0  0  0  0  0  0
  189.2670  178.0890  141.3510 N   0  0  0  0  0  0  0  0  0  0  0  0
  186.4790  178.8410  141.9570 C   0  0  0  0  0  2  0  0  0  0  0  0
  186.8010  176.5340  142.5170 F   0  0  0  0  0  0  0  0  0  0  0  0
  191.3990  177.0540  147.2990 C   0  0  0  0  0  0  0  0  0  0  0  0
  186.8330  178.7690  146.9550 C   0  0  0  0  0  3  0  0  0  0  0  0
  186.4990  178.5810  138.2460 C   0  0  0  0  0  2  0  0  0  0  0  0
  189.5720  176.2010  139.8710 O   0  0  0  0  0  0  0  0  0  0  0  0
  190.5990  176.0860  138.8930 C   0  0  0  0  0  2  0  0  0  0  0  0
  191.0790  174.1310  137.5940 O   0  0  0  0  0  1  0  0  0  0  0  0
  189.0230  175.0750  137.2530 O   0  0  0  0  0  0  0  0  0  0  0  0
  190.2570  175.0380  137.8850 C   0  0  0  0  0  0  0  0  0  0  0  0
  2 14  1  6  0  0  0
  2 17  1  0  0  0  0
  2 25  1  0  0  0  0
  4 18  2  0  0  0  0
  5 18  1  0  0  0  0
  6 16  1  0  0  0  0
  8 29  1  0  0  0  0
  8  3  1  0  0  0  0
 10 20  1  0  0  0  0
 12 15  1  6  0  0  0
 12 28  1  0  0  0  0
 12  3  1  0  0  0  0
 13  8  2  0  0  0  0
 16 28  1  0  0  0  0
 17  1  1  6  0  0  0
 17 26  1  0  0  0  0
 18 21  1  0  0  0  0
 19  7  1  6  0  0  0
 19 24  1  0  0  0  0
 20 29  2  0  0  0  0
 21  6  2  0  0  0  0
 21 15  1  0  0  0  0
 22 11  1  6  0  0  0
 22 30  1  0  0  0  0
 22 14  1  0  0  0  0
 23 25  1  0  0  0  0
 23  5  2  0  0  0  0
 24 10  2  0  0  0  0
 24 13  1  0  0  0  0
 25  4  1  0  0  0  0
 26 19  1  0  0  0  0
 27 19  1  0  0  0  0
 28  9  2  0  0  0  0
 30  1  1  0  0  0  0
 31 23  1  0  0  0  0
 32 31  1  0  0  0  0
 33 35  1  0  0  0  0
 34 35  2  0  0  0  0
 35 32  1  0  0  0  0
M  END
>  <MODEL>
7

>  <REMARK>
 VINA RESULT:      -6.1      2.781      6.899
  Name = 
  3 active torsions:
  status: ('A' for Active; 'I' for Inactive)
    1  A    between atoms: C_1  and  C_15
    2  A    between atoms: C_1  and  O_34
    3  A    between atoms: C_27  and  O_34
                            x       y       z     vdW  Elec       q    Type
                         _______ _______ _______ _____ _____    ______ ____

>  <TORSDO>
F 3

$$$$
=
 OpenBabel11042410323D

 35 39  0  0  1  0  0  0  0  0999 V2000
  179.3900  177.3350  140.6090 C   0  0  0  0  0  2  0  0  0  0  0  0
  181.7360  177.8240  140.5940 C   0  0  1  0  0  3  0  0  0  0  0  0
  185.2390  175.2950  134.9190 S   0  0  0  0  0  0  0  0  0  0  0  0
  183.7940  177.4100  139.2840 C   0  0  0  0  0  3  0  0  0  0  0  0
  184.1640  179.4210  138.3380 C   0  0  0  0  0  3  0  0  0  0  0  0
  186.5680  178.2530  136.9530 C   0  0  0  0  0  3  0  0  0  0  0  0
  179.3970  176.0540  137.1000 C   0  0  0  0  0  1  0  0  0  0  0  0
  183.8050  174.7430  135.8420 C   0  0  0  0  0  0  0  0  0  0  0  0
  188.5350  175.6670  135.3340 O   0  0  0  0  0  0  0  0  0  0  0  0
  181.5590  173.9100  137.2870 C   0  0  0  0  0  3  0  0  0  0  0  0
  179.8800  180.5030  142.5660 N   0  0  0  0  0  1  0  0  0  0  0  0
  186.3810  175.4150  136.3490 C   0  0  2  0  0  3  0  0  0  0  0  0
  182.8850  175.6820  136.3150 C   0  0  0  0  0  3  0  0  0  0  0  0
  181.4470  178.8370  141.7210 C   0  0  0  0  0  2  0  0  0  0  0  0
  185.7260  176.0750  137.4790 N   0  0  0  0  0  2  0  0  0  0  0  0
  187.5860  177.6320  136.1590 N   0  0  0  0  0  0  0  0  0  0  0  0
  180.5630  177.5170  139.7540 N   0  0  1  0  0  0  0  0  0  0  0  0
  184.6110  178.1100  138.4180 C   0  0  0  0  0  0  0  0  0  0  0  0
  180.8060  176.3100  137.6050 C   0  0  2  0  0  0  0  0  0  0  0  0
  182.4720  172.9660  136.8050 C   0  0  0  0  0  3  0  0  0  0  0  0
  185.6710  177.5030  137.6020 C   0  0  2  0  0  3  0  0  0  0  0  0
  180.1550  179.6050  141.4600 C   0  0  1  0  0  3  0  0  0  0  0  0
  183.0670  179.4510  139.1840 C   0  0  0  0  0  0  0  0  0  0  0  0
  181.7560  175.2800  137.0430 C   0  0  0  0  0  0  0  0  0  0  0  0
  182.8640  178.2500  139.7650 N   0  0  0  0  0  0  0  0  0  0  0  0
  180.8150  176.2220  139.1340 C   0  0  0  0  0  2  0  0  0  0  0  0
  181.1860  177.5820  137.1960 F   0  0  0  0  0  0  0  0  0  0  0  0
  187.5760  176.2190  135.9340 C   0  0  0  0  0  0  0  0  0  0  0  0
  183.5960  173.3810  136.0830 C   0  0  0  0  0  3  0  0  0  0  0  0
  178.9700  178.6600  141.2520 C   0  0  0  0  0  2  0  0  0  0  0  0
  182.2410  180.5570  139.3930 O   0  0  0  0  0  0  0  0  0  0  0  0
  181.8960  181.4530  138.3430 C   0  0  0  0  0  2  0  0  0  0  0  0
  179.7980  180.3270  138.0770 O   0  0  0  0  0  1  0  0  0  0  0  0
  180.8060  181.0300  136.1460 O   0  0  0  0  0  0  0  0  0  0  0  0
  180.7700  180.9070  137.5280 C   0  0  0  0  0  0  0  0  0  0  0  0
  1 30  1  0  0  0  0
  2 14  1  1  0  0  0
  3  8  1  0  0  0  0
  4 25  1  0  0  0  0
  5 18  1  0  0  0  0
  5 23  2  0  0  0  0
  8 29  2  0  0  0  0
  8 13  1  0  0  0  0
  9 28  2  0  0  0  0
 12  3  1  6  0  0  0
 12 15  1  0  0  0  0
 13 24  2  0  0  0  0
 15 21  1  0  0  0  0
 16  6  2  0  0  0  0
 17 26  1  1  0  0  0
 17  2  1  0  0  0  0
 17  1  1  0  0  0  0
 18  4  2  0  0  0  0
 19  7  1  6  0  0  0
 19 26  1  0  0  0  0
 20 10  2  0  0  0  0
 21  6  1  6  0  0  0
 21 18  1  0  0  0  0
 22 14  1  0  0  0  0
 22 11  1  1  0  0  0
 23 31  1  0  0  0  0
 23 25  1  0  0  0  0
 24 10  1  0  0  0  0
 24 19  1  0  0  0  0
 25  2  1  0  0  0  0
 27 19  1  0  0  0  0
 28 16  1  0  0  0  0
 28 12  1  0  0  0  0
 29 20  1  0  0  0  0
 30 22  1  0  0  0  0
 32 31  1  0  0  0  0
 34 35  2  0  0  0  0
 35 33  1  0  0  0  0
 35 32  1  0  0  0  0
M  END
>  <MODEL>
8

>  <REMARK>
 VINA RESULT:      -5.3      5.860      7.640
  Name = 
  3 active torsions:
  status: ('A' for Active; 'I' for Inactive)
    1  A    between atoms: C_1  and  C_15
    2  A    between atoms: C_1  and  O_34
    3  A    between atoms: C_27  and  O_34
                            x       y       z     vdW  Elec       q    Type
                         _______ _______ _______ _____ _____    ______ ____

>  <TORSDO>
F 3

$$$$
