=
 OpenBabel11032419263D

 30 33  0  0  1  0  0  0  0  0999 V2000
  190.0060  177.2770  141.1440 N   0  0  0  0  0  0  0  0  0  0  0  0
  188.7660  177.9500  141.5330 C   0  0  1  0  0  3  0  0  0  0  0  0
  188.0820  177.2470  142.6480 C   0  0  1  0  0  3  0  0  0  0  0  0
  188.8870  178.3750  142.8710 O   0  0  0  0  0  0  0  0  0  0  0  0
  186.6880  177.6580  142.7360 N   0  0  0  0  0  2  0  0  0  0  0  0
  184.7220  178.5570  146.3750 C   0  0  0  0  0  3  0  0  0  0  0  0
  184.1030  178.8690  145.1610 C   0  0  0  0  0  3  0  0  0  0  0  0
  184.7450  178.5740  143.9540 C   0  0  0  0  0  3  0  0  0  0  0  0
  186.6220  177.6570  145.1740 C   0  0  0  0  0  3  0  0  0  0  0  0
  185.9810  177.9510  146.3820 C   0  0  0  0  0  3  0  0  0  0  0  0
  186.0080  177.9650  143.9560 C   0  0  0  0  0  0  0  0  0  0  0  0
  190.9960  177.7410  142.1200 C   0  0  0  0  0  2  0  0  0  0  0  0
  191.8050  176.5710  142.6550 C   0  0  0  0  0  2  0  0  0  0  0  0
  191.1970  176.0530  143.9460 C   0  0  0  0  0  2  0  0  0  0  0  0
  191.4910  177.0150  145.0850 C   0  0  2  0  0  3  0  0  0  0  0  0
  190.6210  176.7470  146.9110 C   0  0  0  0  0  2  0  0  0  0  0  0
  191.9130  176.2450  146.3130 C   0  0  0  0  0  2  0  0  0  0  0  0
  190.2480  177.4650  145.7000 N   0  0  0  0  0  2  0  0  0  0  0  0
  190.3940  177.7320  139.7930 C   0  0  1  0  0  3  0  0  0  0  0  0
  192.0350  174.5950  137.3710 C   0  0  0  0  0  0  0  0  0  0  0  0
  192.3780  176.5620  138.7320 C   0  0  0  0  0  3  0  0  0  0  0  0
  190.9950  176.6330  138.9520 C   0  0  0  0  0  0  0  0  0  0  0  0
  190.6520  174.6920  137.6160 C   0  0  0  0  0  0  0  0  0  0  0  0
  190.1760  175.7020  138.3950 N   0  0  0  0  0  0  0  0  0  0  0  0
  192.6120  173.5120  136.5230 C   0  0  0  0  0  1  0  0  0  0  0  0
  192.8920  175.5390  137.9380 C   0  0  0  0  0  3  0  0  0  0  0  0
  189.7210  173.7460  137.0570 C   0  0  0  0  0  0  0  0  0  0  0  0
  188.9730  172.9860  136.6080 N   0  0  0  0  0  0  0  0  0  0  0  0
  189.2330  178.2820  139.0710 C   0  0  0  0  0  0  0  0  0  0  0  0
  188.3160  178.7160  138.5140 N   0  0  0  0  0  0  0  0  0  0  0  0
  1 12  1  0  0  0  0
  2  1  1  1  0  0  0
  2  3  1  0  0  0  0
  2  4  1  0  0  0  0
  3  5  1  6  0  0  0
  3  4  1  0  0  0  0
  5 11  1  0  0  0  0
  6 10  1  0  0  0  0
  7  6  2  0  0  0  0
  8 11  2  0  0  0  0
  8  7  1  0  0  0  0
  9 10  2  0  0  0  0
 11  9  1  0  0  0  0
 12 13  1  0  0  0  0
 13 14  1  0  0  0  0
 15 14  1  6  0  0  0
 15 18  1  0  0  0  0
 15 17  1  0  0  0  0
 17 16  1  0  0  0  0
 18 16  1  0  0  0  0
 19 29  1  6  0  0  0
 19  1  1  0  0  0  0
 20 23  2  0  0  0  0
 20 26  1  0  0  0  0
 21 22  1  0  0  0  0
 22 19  1  0  0  0  0
 23 24  1  0  0  0  0
 24 22  2  0  0  0  0
 25 20  1  0  0  0  0
 26 21  2  0  0  0  0
 27 23  1  0  0  0  0
 28 27  3  0  0  0  0
 30 29  3  0  0  0  0
M  END
>  <MODEL>
1

>  <REMARK>
 VINA RESULT:      -7.4      0.000      0.000
  Name = 
  11 active torsions:
  status: ('A' for Active; 'I' for Inactive)
    1  A    between atoms: C_1  and  C_11
    2  A    between atoms: C_1  and  N_20
    3  A    between atoms: C_3  and  C_30
    4  A    between atoms: C_8  and  C_30
    5  A    between atoms: C_10  and  C_14
    6  A    between atoms: C_11  and  C_24
    7  A    between atoms: C_12  and  N_20
    8  A    between atoms: C_17  and  C_24
    9  A    between atoms: C_19  and  N_22
   10  A    between atoms: N_20  and  C_30
   11  A    between atoms: N_22  and  C_26
                            x       y       z     vdW  Elec       q    Type
                         _______ _______ _______ _____ _____    ______ ____

>  <TORSDO>
F 11

$$$$
=
 OpenBabel11032419263D

 30 33  0  0  1  0  0  0  0  0999 V2000
  189.3930  176.5490  141.8750 N   0  0  0  0  0  0  0  0  0  0  0  0
  188.7600  177.2700  142.9790 C   0  0  1  0  0  3  0  0  0  0  0  0
  187.2870  177.0800  142.9910 C   0  0  1  0  0  3  0  0  0  0  0  0
  188.1330  176.3340  143.8260 O   0  0  0  0  0  0  0  0  0  0  0  0
  186.6430  178.1070  143.7980 N   0  0  0  0  0  2  0  0  0  0  0  0
  182.5050  178.9850  143.6410 C   0  0  0  0  0  3  0  0  0  0  0  0
  183.1740  179.0280  144.8680 C   0  0  0  0  0  3  0  0  0  0  0  0
  184.5410  178.7420  144.9280 C   0  0  0  0  0  3  0  0  0  0  0  0
  184.5710  178.3680  142.5380 C   0  0  0  0  0  3  0  0  0  0  0  0
  183.2040  178.6550  142.4770 C   0  0  0  0  0  3  0  0  0  0  0  0
  185.2460  178.4100  143.7630 C   0  0  0  0  0  0  0  0  0  0  0  0
  190.5410  175.8760  142.4880 C   0  0  0  0  0  2  0  0  0  0  0  0
  191.2600  176.8140  143.4440 C   0  0  0  0  0  2  0  0  0  0  0  0
  191.6810  176.0720  144.6980 C   0  0  0  0  0  2  0  0  0  0  0  0
  191.6300  177.0030  145.8990 C   0  0  2  0  0  3  0  0  0  0  0  0
  190.2880  176.6750  147.4010 C   0  0  0  0  0  2  0  0  0  0  0  0
  191.7040  176.2010  147.1760 C   0  0  0  0  0  2  0  0  0  0  0  0
  190.2570  177.4250  146.1530 N   0  0  0  0  0  2  0  0  0  0  0  0
  189.8710  177.5270  140.8760 C   0  0  1  0  0  3  0  0  0  0  0  0
  192.5600  175.8060  138.0110 C   0  0  0  0  0  0  0  0  0  0  0  0
  192.1710  177.3580  139.8230 C   0  0  0  0  0  3  0  0  0  0  0  0
  190.8370  176.9310  139.8830 C   0  0  0  0  0  0  0  0  0  0  0  0
  191.2170  175.3960  138.1030 C   0  0  0  0  0  0  0  0  0  0  0  0
  190.4000  175.9670  139.0290 N   0  0  0  0  0  0  0  0  0  0  0  0
  193.4990  175.2180  137.0130 C   0  0  0  0  0  1  0  0  0  0  0  0
  193.0280  176.7910  138.8820 C   0  0  0  0  0  3  0  0  0  0  0  0
  190.6790  174.3840  137.2300 C   0  0  0  0  0  0  0  0  0  0  0  0
  190.2470  173.5710  136.5290 N   0  0  0  0  0  0  0  0  0  0  0  0
  188.7410  178.1070  140.1270 C   0  0  0  0  0  0  0  0  0  0  0  0
  187.8530  178.5710  139.5470 N   0  0  0  0  0  0  0  0  0  0  0  0
  1 12  1  0  0  0  0
  2  1  1  6  0  0  0
  2  3  1  0  0  0  0
  2  4  1  0  0  0  0
  3  5  1  1  0  0  0
  3  4  1  0  0  0  0
  6  7  1  0  0  0  0
  7  8  2  0  0  0  0
  9 11  2  0  0  0  0
 10  9  1  0  0  0  0
 10  6  2  0  0  0  0
 11  5  1  0  0  0  0
 11  8  1  0  0  0  0
 12 13  1  0  0  0  0
 13 14  1  0  0  0  0
 15 14  1  6  0  0  0
 15 18  1  0  0  0  0
 15 17  1  0  0  0  0
 17 16  1  0  0  0  0
 18 16  1  0  0  0  0
 19 29  1  6  0  0  0
 19  1  1  0  0  0  0
 20 23  2  0  0  0  0
 20 26  1  0  0  0  0
 21 22  1  0  0  0  0
 22 19  1  0  0  0  0
 23 24  1  0  0  0  0
 24 22  2  0  0  0  0
 25 20  1  0  0  0  0
 26 21  2  0  0  0  0
 27 23  1  0  0  0  0
 28 27  3  0  0  0  0
 30 29  3  0  0  0  0
M  END
>  <MODEL>
2

>  <REMARK>
 VINA RESULT:      -7.4      1.228      1.736
  Name = 
  11 active torsions:
  status: ('A' for Active; 'I' for Inactive)
    1  A    between atoms: C_1  and  C_11
    2  A    between atoms: C_1  and  N_20
    3  A    between atoms: C_3  and  C_30
    4  A    between atoms: C_8  and  C_30
    5  A    between atoms: C_10  and  C_14
    6  A    between atoms: C_11  and  C_24
    7  A    between atoms: C_12  and  N_20
    8  A    between atoms: C_17  and  C_24
    9  A    between atoms: C_19  and  N_22
   10  A    between atoms: N_20  and  C_30
   11  A    between atoms: N_22  and  C_26
                            x       y       z     vdW  Elec       q    Type
                         _______ _______ _______ _____ _____    ______ ____

>  <TORSDO>
F 11

$$$$
=
 OpenBabel11032419263D

 30 33  0  0  1  0  0  0  0  0999 V2000
  189.9100  177.2840  140.9510 N   0  0  0  0  0  0  0  0  0  0  0  0
  188.6860  177.9980  141.3180 C   0  0  1  0  0  3  0  0  0  0  0  0
  188.0280  177.3950  142.5050 C   0  0  1  0  0  3  0  0  0  0  0  0
  188.8480  178.5290  142.6130 O   0  0  0  0  0  0  0  0  0  0  0  0
  186.6410  177.8260  142.5970 N   0  0  0  0  0  2  0  0  0  0  0  0
  184.6350  178.5450  146.2550 C   0  0  0  0  0  3  0  0  0  0  0  0
  184.0030  178.8590  145.0470 C   0  0  0  0  0  3  0  0  0  0  0  0
  184.6580  178.6220  143.8350 C   0  0  0  0  0  3  0  0  0  0  0  0
  186.5740  177.7610  145.0350 C   0  0  0  0  0  3  0  0  0  0  0  0
  185.9190  177.9960  146.2480 C   0  0  0  0  0  3  0  0  0  0  0  0
  185.9470  178.0720  143.8230 C   0  0  0  0  0  0  0  0  0  0  0  0
  190.9020  177.7310  141.9320 C   0  0  0  0  0  2  0  0  0  0  0  0
  191.6870  176.5470  142.4730 C   0  0  0  0  0  2  0  0  0  0  0  0
  191.1000  176.0800  143.7920 C   0  0  0  0  0  2  0  0  0  0  0  0
  191.4370  177.0720  144.8940 C   0  0  2  0  0  3  0  0  0  0  0  0
  190.5760  176.8980  146.7360 C   0  0  0  0  0  2  0  0  0  0  0  0
  191.8460  176.3330  146.1450 C   0  0  0  0  0  2  0  0  0  0  0  0
  190.2140  177.5840  145.5040 N   0  0  0  0  0  2  0  0  0  0  0  0
  190.3260  177.7100  139.6000 C   0  0  1  0  0  3  0  0  0  0  0  0
  191.7490  174.4540  137.1960 C   0  0  0  0  0  0  0  0  0  0  0  0
  189.8940  175.7250  138.0830 C   0  0  0  0  0  3  0  0  0  0  0  0
  190.8030  176.5640  138.7420 C   0  0  0  0  0  0  0  0  0  0  0  0
  192.6340  175.3180  137.8680 C   0  0  0  0  0  0  0  0  0  0  0  0
  192.1380  176.3410  138.6160 N   0  0  0  0  0  0  0  0  0  0  0  0
  192.2360  173.3150  136.3650 C   0  0  0  0  0  1  0  0  0  0  0  0
  190.3750  174.6690  137.3100 C   0  0  0  0  0  3  0  0  0  0  0  0
  194.0610  175.1440  137.7860 C   0  0  0  0  0  0  0  0  0  0  0  0
  195.2080  175.0040  137.7200 N   0  0  0  0  0  0  0  0  0  0  0  0
  189.2170  178.3800  138.8960 C   0  0  0  0  0  0  0  0  0  0  0  0
  188.3540  178.9160  138.3410 N   0  0  0  0  0  0  0  0  0  0  0  0
  1 12  1  0  0  0  0
  2  1  1  1  0  0  0
  2  3  1  0  0  0  0
  2  4  1  0  0  0  0
  3  5  1  6  0  0  0
  3  4  1  0  0  0  0
  5 11  1  0  0  0  0
  7  6  2  0  0  0  0
  8  7  1  0  0  0  0
  9 10  2  0  0  0  0
 10  6  1  0  0  0  0
 11  8  2  0  0  0  0
 11  9  1  0  0  0  0
 12 13  1  0  0  0  0
 13 14  1  0  0  0  0
 15 14  1  6  0  0  0
 15 18  1  0  0  0  0
 15 17  1  0  0  0  0
 17 16  1  0  0  0  0
 18 16  1  0  0  0  0
 19 29  1  6  0  0  0
 19  1  1  0  0  0  0
 20 26  2  0  0  0  0
 20 23  1  0  0  0  0
 21 22  2  0  0  0  0
 22 19  1  0  0  0  0
 23 24  2  0  0  0  0
 24 22  1  0  0  0  0
 25 20  1  0  0  0  0
 26 21  1  0  0  0  0
 27 23  1  0  0  0  0
 28 27  3  0  0  0  0
 30 29  3  0  0  0  0
M  END
>  <MODEL>
3

>  <REMARK>
 VINA RESULT:      -7.4      1.090      1.735
  Name = 
  11 active torsions:
  status: ('A' for Active; 'I' for Inactive)
    1  A    between atoms: C_1  and  C_11
    2  A    between atoms: C_1  and  N_20
    3  A    between atoms: C_3  and  C_30
    4  A    between atoms: C_8  and  C_30
    5  A    between atoms: C_10  and  C_14
    6  A    between atoms: C_11  and  C_24
    7  A    between atoms: C_12  and  N_20
    8  A    between atoms: C_17  and  C_24
    9  A    between atoms: C_19  and  N_22
   10  A    between atoms: N_20  and  C_30
   11  A    between atoms: N_22  and  C_26
                            x       y       z     vdW  Elec       q    Type
                         _______ _______ _______ _____ _____    ______ ____

>  <TORSDO>
F 11

$$$$
=
 OpenBabel11032419263D

 30 33  0  0  1  0  0  0  0  0999 V2000
  189.7650  177.2100  140.6750 N   0  0  0  0  0  0  0  0  0  0  0  0
  190.2210  177.5120  142.0330 C   0  0  1  0  0  3  0  0  0  0  0  0
  189.8670  176.4320  142.9880 C   0  0  1  0  0  3  0  0  0  0  0  0
  191.1490  176.5270  142.4250 O   0  0  0  0  0  0  0  0  0  0  0  0
  189.9360  176.9160  144.3600 N   0  0  0  0  0  2  0  0  0  0  0  0
  186.6040  177.8940  146.7800 C   0  0  0  0  0  3  0  0  0  0  0  0
  186.4050  177.5340  145.4440 C   0  0  0  0  0  3  0  0  0  0  0  0
  187.5000  177.2080  144.6380 C   0  0  0  0  0  3  0  0  0  0  0  0
  188.9920  177.6010  146.5020 C   0  0  0  0  0  3  0  0  0  0  0  0
  187.8970  177.9270  147.3090 C   0  0  0  0  0  3  0  0  0  0  0  0
  188.7990  177.2400  145.1640 C   0  0  0  0  0  0  0  0  0  0  0  0
  190.9970  177.1350  139.8850 C   0  0  0  0  0  2  0  0  0  0  0  0
  190.9950  175.8890  139.0150 C   0  0  0  0  0  2  0  0  0  0  0  0
  191.4560  176.2240  137.6080 C   0  0  0  0  0  2  0  0  0  0  0  0
  191.3200  175.0060  136.7090 C   0  0  2  0  0  3  0  0  0  0  0  0
  189.5000  174.1220  136.4380 C   0  0  0  0  0  2  0  0  0  0  0  0
  190.2170  175.2290  135.7030 C   0  0  0  0  0  2  0  0  0  0  0  0
  190.5830  173.9510  137.3970 N   0  0  0  0  0  2  0  0  0  0  0  0
  188.9350  178.3300  140.1890 C   0  0  1  0  0  3  0  0  0  0  0  0
  187.6610  177.8230  136.1240 C   0  0  0  0  0  0  0  0  0  0  0  0
  189.0060  179.0070  137.7460 C   0  0  0  0  0  3  0  0  0  0  0  0
  188.5080  178.1660  138.7510 C   0  0  0  0  0  0  0  0  0  0  0  0
  187.1850  176.9930  137.1560 C   0  0  0  0  0  0  0  0  0  0  0  0
  187.6200  177.1870  138.4310 N   0  0  0  0  0  0  0  0  0  0  0  0
  187.2170  177.6580  134.7090 C   0  0  0  0  0  1  0  0  0  0  0  0
  188.5770  178.8290  136.4320 C   0  0  0  0  0  3  0  0  0  0  0  0
  186.2400  175.9380  136.8960 C   0  0  0  0  0  0  0  0  0  0  0  0
  185.4800  175.0900  136.6880 N   0  0  0  0  0  0  0  0  0  0  0  0
  187.7220  178.4820  141.0140 C   0  0  0  0  0  0  0  0  0  0  0  0
  186.7700  178.6130  141.6590 N   0  0  0  0  0  0  0  0  0  0  0  0
  2  1  1  6  0  0  0
  2  4  1  0  0  0  0
  2  3  1  0  0  0  0
  3  5  1  1  0  0  0
  4  3  1  0  0  0  0
  5 11  1  0  0  0  0
  6 10  1  0  0  0  0
  7  6  2  0  0  0  0
  8 11  2  0  0  0  0
  8  7  1  0  0  0  0
  9 10  2  0  0  0  0
 11  9  1  0  0  0  0
 12  1  1  0  0  0  0
 13 12  1  0  0  0  0
 14 13  1  0  0  0  0
 15 18  1  0  0  0  0
 15 14  1  1  0  0  0
 16 18  1  0  0  0  0
 17 16  1  0  0  0  0
 17 15  1  0  0  0  0
 19  1  1  0  0  0  0
 19 29  1  1  0  0  0
 20 26  2  0  0  0  0
 20 23  1  0  0  0  0
 21 22  2  0  0  0  0
 22 19  1  0  0  0  0
 23 24  2  0  0  0  0
 24 22  1  0  0  0  0
 25 20  1  0  0  0  0
 26 21  1  0  0  0  0
 27 23  1  0  0  0  0
 28 27  3  0  0  0  0
 29 30  3  0  0  0  0
M  END
>  <MODEL>
4

>  <REMARK>
 VINA RESULT:      -6.9      2.157      4.974
  Name = 
  11 active torsions:
  status: ('A' for Active; 'I' for Inactive)
    1  A    between atoms: C_1  and  C_11
    2  A    between atoms: C_1  and  N_20
    3  A    between atoms: C_3  and  C_30
    4  A    between atoms: C_8  and  C_30
    5  A    between atoms: C_10  and  C_14
    6  A    between atoms: C_11  and  C_24
    7  A    between atoms: C_12  and  N_20
    8  A    between atoms: C_17  and  C_24
    9  A    between atoms: C_19  and  N_22
   10  A    between atoms: N_20  and  C_30
   11  A    between atoms: N_22  and  C_26
                            x       y       z     vdW  Elec       q    Type
                         _______ _______ _______ _____ _____    ______ ____

>  <TORSDO>
F 11

$$$$
=
 OpenBabel11032419263D

 30 33  0  0  1  0  0  0  0  0999 V2000
  189.9450  176.6680  141.5370 N   0  0  0  0  0  0  0  0  0  0  0  0
  188.8140  177.5870  141.4100 C   0  0  1  0  0  3  0  0  0  0  0  0
  187.9080  177.5140  142.5850 C   0  0  1  0  0  3  0  0  0  0  0  0
  188.8760  178.5220  142.4630 O   0  0  0  0  0  0  0  0  0  0  0  0
  186.6090  178.0890  142.2690 N   0  0  0  0  0  2  0  0  0  0  0  0
  183.5850  178.9930  145.0890 C   0  0  0  0  0  3  0  0  0  0  0  0
  184.8950  178.7740  145.5270 C   0  0  0  0  0  3  0  0  0  0  0  0
  185.8990  178.4770  144.6020 C   0  0  0  0  0  3  0  0  0  0  0  0
  184.2880  178.6160  142.8030 C   0  0  0  0  0  3  0  0  0  0  0  0
  183.2820  178.9150  143.7270 C   0  0  0  0  0  3  0  0  0  0  0  0
  185.6000  178.3970  143.2350 C   0  0  0  0  0  0  0  0  0  0  0  0
  190.9100  177.3880  142.3720 C   0  0  0  0  0  2  0  0  0  0  0  0
  191.2900  176.5540  143.5840 C   0  0  0  0  0  2  0  0  0  0  0  0
  191.1580  177.3760  144.8540 C   0  0  0  0  0  2  0  0  0  0  0  0
  190.2940  176.6400  145.8650 C   0  0  2  0  0  3  0  0  0  0  0  0
  189.7110  177.5630  147.5890 C   0  0  0  0  0  2  0  0  0  0  0  0
  189.0870  177.4760  146.2160 C   0  0  0  0  0  2  0  0  0  0  0  0
  190.8640  176.7630  147.2020 N   0  0  0  0  0  2  0  0  0  0  0  0
  190.5260  176.4380  140.1980 C   0  0  1  0  0  3  0  0  0  0  0  0
  188.0390  177.9300  137.0390 C   0  0  0  0  0  0  0  0  0  0  0  0
  189.8180  178.3010  138.6310 C   0  0  0  0  0  3  0  0  0  0  0  0
  189.6690  176.9820  139.0830 C   0  0  0  0  0  0  0  0  0  0  0  0
  187.9190  176.6110  137.5120 C   0  0  0  0  0  0  0  0  0  0  0  0
  188.7320  176.1780  138.5140 N   0  0  0  0  0  0  0  0  0  0  0  0
  187.1720  178.4600  135.9460 C   0  0  0  0  0  1  0  0  0  0  0  0
  188.9980  178.7700  137.6070 C   0  0  0  0  0  3  0  0  0  0  0  0
  186.9470  175.7010  136.9620 C   0  0  0  0  0  0  0  0  0  0  0  0
  186.1660  174.9690  136.5210 N   0  0  0  0  0  0  0  0  0  0  0  0
  191.8630  177.0510  140.0930 C   0  0  0  0  0  0  0  0  0  0  0  0
  192.9130  177.5340  140.0220 N   0  0  0  0  0  0  0  0  0  0  0  0
  1 12  1  0  0  0  0
  2  1  1  1  0  0  0
  2  4  1  0  0  0  0
  2  3  1  0  0  0  0
  3  5  1  6  0  0  0
  4  3  1  0  0  0  0
  5 11  1  0  0  0  0
  6  7  1  0  0  0  0
  8  7  2  0  0  0  0
  9 11  2  0  0  0  0
  9 10  1  0  0  0  0
 10  6  2  0  0  0  0
 11  8  1  0  0  0  0
 12 13  1  0  0  0  0
 13 14  1  0  0  0  0
 15 14  1  6  0  0  0
 15 17  1  0  0  0  0
 15 18  1  0  0  0  0
 17 16  1  0  0  0  0
 18 16  1  0  0  0  0
 19 29  1  1  0  0  0
 19  1  1  0  0  0  0
 20 23  2  0  0  0  0
 20 26  1  0  0  0  0
 21 22  1  0  0  0  0
 22 19  1  0  0  0  0
 23 24  1  0  0  0  0
 24 22  2  0  0  0  0
 25 20  1  0  0  0  0
 26 21  2  0  0  0  0
 27 23  1  0  0  0  0
 28 27  3  0  0  0  0
 30 29  3  0  0  0  0
M  END
>  <MODEL>
5

>  <REMARK>
 VINA RESULT:      -6.6      1.933      2.873
  Name = 
  11 active torsions:
  status: ('A' for Active; 'I' for Inactive)
    1  A    between atoms: C_1  and  C_11
    2  A    between atoms: C_1  and  N_20
    3  A    between atoms: C_3  and  C_30
    4  A    between atoms: C_8  and  C_30
    5  A    between atoms: C_10  and  C_14
    6  A    between atoms: C_11  and  C_24
    7  A    between atoms: C_12  and  N_20
    8  A    between atoms: C_17  and  C_24
    9  A    between atoms: C_19  and  N_22
   10  A    between atoms: N_20  and  C_30
   11  A    between atoms: N_22  and  C_26
                            x       y       z     vdW  Elec       q    Type
                         _______ _______ _______ _____ _____    ______ ____

>  <TORSDO>
F 11

$$$$
=
 OpenBabel11032419263D

 30 33  0  0  1  0  0  0  0  0999 V2000
  189.1060  177.3530  140.3090 N   0  0  0  0  0  0  0  0  0  0  0  0
  188.1580  178.4590  140.4470 C   0  0  1  0  0  3  0  0  0  0  0  0
  187.1530  178.1970  141.5080 C   0  0  1  0  0  3  0  0  0  0  0  0
  188.2820  178.9960  141.7440 O   0  0  0  0  0  0  0  0  0  0  0  0
  186.0000  179.0720  141.3500 N   0  0  0  0  0  2  0  0  0  0  0  0
  182.5510  178.9470  143.8010 C   0  0  0  0  0  3  0  0  0  0  0  0
  182.4390  178.6630  142.4360 C   0  0  0  0  0  3  0  0  0  0  0  0
  183.5740  178.7010  141.6210 C   0  0  0  0  0  3  0  0  0  0  0  0
  184.9310  179.3060  143.5300 C   0  0  0  0  0  3  0  0  0  0  0  0
  183.7960  179.2680  144.3480 C   0  0  0  0  0  3  0  0  0  0  0  0
  184.8250  179.0220  142.1640 C   0  0  0  0  0  0  0  0  0  0  0  0
  190.0910  177.5800  141.3700 C   0  0  0  0  0  2  0  0  0  0  0  0
  190.3880  176.2840  142.1070 C   0  0  0  0  0  2  0  0  0  0  0  0
  189.6060  176.2220  143.4070 C   0  0  0  0  0  2  0  0  0  0  0  0
  190.0550  177.3350  144.3400 C   0  0  2  0  0  3  0  0  0  0  0  0
  190.8430  176.8910  146.1690 C   0  0  0  0  0  2  0  0  0  0  0  0
  191.4670  177.0770  144.8060 C   0  0  0  0  0  2  0  0  0  0  0  0
  189.4960  177.1340  145.6720 N   0  0  0  0  0  2  0  0  0  0  0  0
  189.7690  177.4510  138.9930 C   0  0  1  0  0  3  0  0  0  0  0  0
  189.2360  173.9410  136.5850 C   0  0  0  0  0  0  0  0  0  0  0  0
  190.6850  175.3490  137.9120 C   0  0  0  0  0  3  0  0  0  0  0  0
  189.6040  176.2070  138.1560 C   0  0  0  0  0  0  0  0  0  0  0  0
  188.1710  174.8200  136.8550 C   0  0  0  0  0  0  0  0  0  0  0  0
  188.3840  175.9200  137.6270 N   0  0  0  0  0  0  0  0  0  0  0  0
  189.0620  172.7220  135.7420 C   0  0  0  0  0  1  0  0  0  0  0  0
  190.4940  174.2160  137.1230 C   0  0  0  0  0  3  0  0  0  0  0  0
  186.8520  174.5860  136.3260 C   0  0  0  0  0  0  0  0  0  0  0  0
  185.7920  174.3980  135.9020 N   0  0  0  0  0  0  0  0  0  0  0  0
  189.2430  178.5950  138.2250 C   0  0  0  0  0  0  0  0  0  0  0  0
  188.8270  179.4850  137.6130 N   0  0  0  0  0  0  0  0  0  0  0  0
  1 12  1  0  0  0  0
  2  1  1  1  0  0  0
  2  3  1  0  0  0  0
  2  4  1  0  0  0  0
  3  5  1  6  0  0  0
  3  4  1  0  0  0  0
  5 11  1  0  0  0  0
  6 10  1  0  0  0  0
  7  6  2  0  0  0  0
  8 11  2  0  0  0  0
  8  7  1  0  0  0  0
  9 10  2  0  0  0  0
 11  9  1  0  0  0  0
 12 13  1  0  0  0  0
 13 14  1  0  0  0  0
 15 14  1  6  0  0  0
 15 17  1  0  0  0  0
 15 18  1  0  0  0  0
 17 16  1  0  0  0  0
 18 16  1  0  0  0  0
 19 29  1  6  0  0  0
 19  1  1  0  0  0  0
 20 23  2  0  0  0  0
 20 26  1  0  0  0  0
 21 22  1  0  0  0  0
 22 19  1  0  0  0  0
 23 24  1  0  0  0  0
 24 22  2  0  0  0  0
 25 20  1  0  0  0  0
 26 21  2  0  0  0  0
 27 23  1  0  0  0  0
 28 27  3  0  0  0  0
 30 29  3  0  0  0  0
M  END
>  <MODEL>
6

>  <REMARK>
 VINA RESULT:      -6.6      1.723      2.271
  Name = 
  11 active torsions:
  status: ('A' for Active; 'I' for Inactive)
    1  A    between atoms: C_1  and  C_11
    2  A    between atoms: C_1  and  N_20
    3  A    between atoms: C_3  and  C_30
    4  A    between atoms: C_8  and  C_30
    5  A    between atoms: C_10  and  C_14
    6  A    between atoms: C_11  and  C_24
    7  A    between atoms: C_12  and  N_20
    8  A    between atoms: C_17  and  C_24
    9  A    between atoms: C_19  and  N_22
   10  A    between atoms: N_20  and  C_30
   11  A    between atoms: N_22  and  C_26
                            x       y       z     vdW  Elec       q    Type
                         _______ _______ _______ _____ _____    ______ ____

>  <TORSDO>
F 11

$$$$
=
 OpenBabel11032419263D

 30 33  0  0  1  0  0  0  0  0999 V2000
  188.7520  177.1990  141.8050 N   0  0  0  0  0  0  0  0  0  0  0  0
  188.6430  178.2570  140.8000 C   0  0  1  0  0  3  0  0  0  0  0  0
  187.6650  177.9120  139.7370 C   0  0  1  0  0  3  0  0  0  0  0  0
  187.3230  178.7510  140.8090 O   0  0  0  0  0  0  0  0  0  0  0  0
  187.8740  178.7420  138.5580 N   0  0  0  0  0  2  0  0  0  0  0  0
  188.0980  177.2770  134.5940 C   0  0  0  0  0  3  0  0  0  0  0  0
  189.2760  177.5450  135.2980 C   0  0  0  0  0  3  0  0  0  0  0  0
  189.2100  178.0270  136.6090 C   0  0  0  0  0  3  0  0  0  0  0  0
  186.7930  177.9750  136.5110 C   0  0  0  0  0  3  0  0  0  0  0  0
  186.8570  177.4920  135.2000 C   0  0  0  0  0  3  0  0  0  0  0  0
  187.9680  178.2440  137.2210 C   0  0  0  0  0  0  0  0  0  0  0  0
  188.1270  177.7670  143.0020 C   0  0  0  0  0  2  0  0  0  0  0  0
  187.5310  176.6650  143.8640 C   0  0  0  0  0  2  0  0  0  0  0  0
  186.8460  177.2580  145.0820 C   0  0  0  0  0  2  0  0  0  0  0  0
  187.8510  178.0300  145.9220 C   0  0  2  0  0  3  0  0  0  0  0  0
  188.4720  177.2960  147.7220 C   0  0  0  0  0  2  0  0  0  0  0  0
  188.9950  177.1280  146.3150 C   0  0  0  0  0  2  0  0  0  0  0  0
  187.3740  178.1530  147.2940 N   0  0  0  0  0  2  0  0  0  0  0  0
  190.1810  176.9370  142.0710 C   0  0  1  0  0  3  0  0  0  0  0  0
  192.4490  176.5390  138.4520 C   0  0  0  0  0  0  0  0  0  0  0  0
  192.2060  177.5030  140.6550 C   0  0  0  0  0  3  0  0  0  0  0  0
  191.0000  176.8060  140.8110 C   0  0  0  0  0  0  0  0  0  0  0  0
  191.2370  175.8500  138.6430 C   0  0  0  0  0  0  0  0  0  0  0  0
  190.5520  176.0030  139.8090 N   0  0  0  0  0  0  0  0  0  0  0  0
  193.2400  176.4130  137.1930 C   0  0  0  0  0  1  0  0  0  0  0  0
  192.9270  177.3650  139.4700 C   0  0  0  0  0  3  0  0  0  0  0  0
  190.6960  174.9840  137.6270 C   0  0  0  0  0  0  0  0  0  0  0  0
  190.2620  174.2890  136.8110 N   0  0  0  0  0  0  0  0  0  0  0  0
  190.7680  178.0110  142.8920 C   0  0  0  0  0  0  0  0  0  0  0  0
  191.2250  178.8630  143.5290 N   0  0  0  0  0  0  0  0  0  0  0  0
  1 19  1  0  0  0  0
  1 12  1  0  0  0  0
  2  4  1  0  0  0  0
  2  1  1  1  0  0  0
  3  5  1  6  0  0  0
  3  2  1  0  0  0  0
  3  4  1  0  0  0  0
  6 10  2  0  0  0  0
  6  7  1  0  0  0  0
  7  8  2  0  0  0  0
  8 11  1  0  0  0  0
  9 11  2  0  0  0  0
 10  9  1  0  0  0  0
 11  5  1  0  0  0  0
 12 13  1  0  0  0  0
 13 14  1  0  0  0  0
 15 14  1  6  0  0  0
 15 17  1  0  0  0  0
 15 18  1  0  0  0  0
 17 16  1  0  0  0  0
 18 16  1  0  0  0  0
 19 29  1  1  0  0  0
 20 23  2  0  0  0  0
 20 26  1  0  0  0  0
 21 22  1  0  0  0  0
 22 19  1  0  0  0  0
 23 24  1  0  0  0  0
 24 22  2  0  0  0  0
 25 20  1  0  0  0  0
 26 21  2  0  0  0  0
 27 23  1  0  0  0  0
 28 27  3  0  0  0  0
 29 30  3  0  0  0  0
M  END
>  <MODEL>
7

>  <REMARK>
 VINA RESULT:      -6.5      2.189      5.255
  Name = 
  11 active torsions:
  status: ('A' for Active; 'I' for Inactive)
    1  A    between atoms: C_1  and  C_11
    2  A    between atoms: C_1  and  N_20
    3  A    between atoms: C_3  and  C_30
    4  A    between atoms: C_8  and  C_30
    5  A    between atoms: C_10  and  C_14
    6  A    between atoms: C_11  and  C_24
    7  A    between atoms: C_12  and  N_20
    8  A    between atoms: C_17  and  C_24
    9  A    between atoms: C_19  and  N_22
   10  A    between atoms: N_20  and  C_30
   11  A    between atoms: N_22  and  C_26
                            x       y       z     vdW  Elec       q    Type
                         _______ _______ _______ _____ _____    ______ ____

>  <TORSDO>
F 11

$$$$
=
 OpenBabel11032419263D

 30 33  0  0  1  0  0  0  0  0999 V2000
  182.8770  179.1110  140.0870 N   0  0  0  0  0  0  0  0  0  0  0  0
  181.7790  179.6340  139.2720 C   0  0  1  0  0  3  0  0  0  0  0  0
  182.0940  180.9730  138.7130 C   0  0  1  0  0  3  0  0  0  0  0  0
  182.2400  179.8030  137.9520 O   0  0  0  0  0  0  0  0  0  0  0  0
  180.8790  181.6480  138.2800 N   0  0  0  0  0  2  0  0  0  0  0  0
  180.7210  184.5120  135.1670 C   0  0  0  0  0  3  0  0  0  0  0  0
  180.3250  183.1950  134.9140 C   0  0  0  0  0  3  0  0  0  0  0  0
  180.3730  182.2430  135.9380 C   0  0  0  0  0  3  0  0  0  0  0  0
  181.2110  183.9230  137.4640 C   0  0  0  0  0  3  0  0  0  0  0  0
  181.1630  184.8760  136.4420 C   0  0  0  0  0  3  0  0  0  0  0  0
  180.8150  182.6040  137.2180 C   0  0  0  0  0  0  0  0  0  0  0  0
  183.5140  178.1020  139.2360 C   0  0  0  0  0  2  0  0  0  0  0  0
  184.9480  178.4980  138.9260 C   0  0  0  0  0  2  0  0  0  0  0  0
  185.4580  177.7350  137.7170 C   0  0  0  0  0  2  0  0  0  0  0  0
  186.9100  178.0950  137.4470 C   0  0  2  0  0  3  0  0  0  0  0  0
  188.4080  177.2030  138.5080 C   0  0  0  0  0  2  0  0  0  0  0  0
  187.7170  176.8400  137.2150 C   0  0  0  0  0  2  0  0  0  0  0  0
  187.5970  178.3970  138.6980 N   0  0  0  0  0  2  0  0  0  0  0  0
  182.3140  178.4600  141.2870 C   0  0  1  0  0  3  0  0  0  0  0  0
  184.9780  178.6820  144.6420 C   0  0  0  0  0  0  0  0  0  0  0  0
  182.7710  179.0220  143.7170 C   0  0  0  0  0  3  0  0  0  0  0  0
  183.2300  178.5390  142.4830 C   0  0  0  0  0  0  0  0  0  0  0  0
  185.4040  178.1970  143.3910 C   0  0  0  0  0  0  0  0  0  0  0  0
  184.5240  178.1410  142.3560 N   0  0  0  0  0  0  0  0  0  0  0  0
  185.9000  178.7690  145.8120 C   0  0  0  0  0  1  0  0  0  0  0  0
  183.6530  179.0910  144.7940 C   0  0  0  0  0  3  0  0  0  0  0  0
  186.7600  177.7600  143.1770 C   0  0  0  0  0  0  0  0  0  0  0  0
  187.8490  177.4090  143.0040 N   0  0  0  0  0  0  0  0  0  0  0  0
  181.0220  179.0660  141.6570 C   0  0  0  0  0  0  0  0  0  0  0  0
  180.0120  179.5530  141.9460 N   0  0  0  0  0  0  0  0  0  0  0  0
  1 19  1  0  0  0  0
  2  1  1  1  0  0  0
  3  5  1  6  0  0  0
  3  2  1  0  0  0  0
  4  3  1  0  0  0  0
  4  2  1  0  0  0  0
  6 10  1  0  0  0  0
  7  6  2  0  0  0  0
  7  8  1  0  0  0  0
  8 11  2  0  0  0  0
 10  9  2  0  0  0  0
 11  9  1  0  0  0  0
 11  5  1  0  0  0  0
 12  1  1  0  0  0  0
 13 12  1  0  0  0  0
 14 13  1  0  0  0  0
 15 14  1  1  0  0  0
 15 18  1  0  0  0  0
 16 18  1  0  0  0  0
 17 15  1  0  0  0  0
 17 16  1  0  0  0  0
 19 29  1  1  0  0  0
 19 22  1  0  0  0  0
 20 26  1  0  0  0  0
 20 25  1  0  0  0  0
 21 26  2  0  0  0  0
 22 21  1  0  0  0  0
 23 20  2  0  0  0  0
 24 22  2  0  0  0  0
 24 23  1  0  0  0  0
 27 23  1  0  0  0  0
 28 27  3  0  0  0  0
 29 30  3  0  0  0  0
M  END
>  <MODEL>
8

>  <REMARK>
 VINA RESULT:      -6.5      5.834      9.551
  Name = 
  11 active torsions:
  status: ('A' for Active; 'I' for Inactive)
    1  A    between atoms: C_1  and  C_11
    2  A    between atoms: C_1  and  N_20
    3  A    between atoms: C_3  and  C_30
    4  A    between atoms: C_8  and  C_30
    5  A    between atoms: C_10  and  C_14
    6  A    between atoms: C_11  and  C_24
    7  A    between atoms: C_12  and  N_20
    8  A    between atoms: C_17  and  C_24
    9  A    between atoms: C_19  and  N_22
   10  A    between atoms: N_20  and  C_30
   11  A    between atoms: N_22  and  C_26
                            x       y       z     vdW  Elec       q    Type
                         _______ _______ _______ _____ _____    ______ ____

>  <TORSDO>
F 11

$$$$
=
 OpenBabel11032419263D

 30 33  0  0  1  0  0  0  0  0999 V2000
  188.6090  178.0170  141.5770 N   0  0  0  0  0  0  0  0  0  0  0  0
  189.1190  178.2340  140.2220 C   0  0  1  0  0  3  0  0  0  0  0  0
  188.6940  177.1560  139.2920 C   0  0  1  0  0  3  0  0  0  0  0  0
  188.0230  178.3880  139.3500 O   0  0  0  0  0  0  0  0  0  0  0  0
  189.5300  177.1490  138.0990 N   0  0  0  0  0  2  0  0  0  0  0  0
  192.5040  174.2540  137.2690 C   0  0  0  0  0  3  0  0  0  0  0  0
  191.1600  173.9520  137.0260 C   0  0  0  0  0  3  0  0  0  0  0  0
  190.1720  174.9040  137.2960 C   0  0  0  0  0  3  0  0  0  0  0  0
  191.8680  176.4560  138.0510 C   0  0  0  0  0  3  0  0  0  0  0  0
  192.8570  175.5050  137.7800 C   0  0  0  0  0  3  0  0  0  0  0  0
  190.5220  176.1610  137.8100 C   0  0  0  0  0  0  0  0  0  0  0  0
  187.5280  178.9940  141.7210 C   0  0  0  0  0  2  0  0  0  0  0  0
  186.1770  178.2970  141.7250 C   0  0  0  0  0  2  0  0  0  0  0  0
  185.1260  179.1800  142.3710 C   0  0  0  0  0  2  0  0  0  0  0  0
  184.2070  178.3440  143.2470 C   0  0  2  0  0  3  0  0  0  0  0  0
  183.2310  179.1950  144.8240 C   0  0  0  0  0  2  0  0  0  0  0  0
  182.8620  179.0170  143.3710 C   0  0  0  0  0  2  0  0  0  0  0  0
  184.5260  178.5510  144.6550 N   0  0  0  0  0  2  0  0  0  0  0  0
  189.6820  178.3210  142.5460 C   0  0  1  0  0  3  0  0  0  0  0  0
  188.7840  177.1280  146.5670 C   0  0  0  0  0  0  0  0  0  0  0  0
  188.0130  177.8670  144.3990 C   0  0  0  0  0  3  0  0  0  0  0  0
  189.3410  177.8970  143.9530 C   0  0  0  0  0  0  0  0  0  0  0  0
  190.1060  177.1630  146.0850 C   0  0  0  0  0  0  0  0  0  0  0  0
  190.3440  177.5440  144.8010 N   0  0  0  0  0  0  0  0  0  0  0  0
  188.4650  176.7220  147.9670 C   0  0  0  0  0  1  0  0  0  0  0  0
  187.7410  177.4810  145.7110 C   0  0  0  0  0  3  0  0  0  0  0  0
  191.2220  176.8080  146.9240 C   0  0  0  0  0  0  0  0  0  0  0  0
  192.1180  176.5230  147.5980 N   0  0  0  0  0  0  0  0  0  0  0  0
  190.9420  177.6610  142.1590 C   0  0  0  0  0  0  0  0  0  0  0  0
  191.9290  177.1330  141.8610 N   0  0  0  0  0  0  0  0  0  0  0  0
  1 12  1  0  0  0  0
  1 19  1  0  0  0  0
  2  1  1  1  0  0  0
  3  5  1  6  0  0  0
  3  4  1  0  0  0  0
  3  2  1  0  0  0  0
  4  2  1  0  0  0  0
  6 10  1  0  0  0  0
  7  6  2  0  0  0  0
  7  8  1  0  0  0  0
  8 11  2  0  0  0  0
 10  9  2  0  0  0  0
 11  9  1  0  0  0  0
 11  5  1  0  0  0  0
 12 13  1  0  0  0  0
 13 14  1  0  0  0  0
 15 14  1  6  0  0  0
 15 17  1  0  0  0  0
 15 18  1  0  0  0  0
 17 16  1  0  0  0  0
 18 16  1  0  0  0  0
 19 29  1  6  0  0  0
 19 22  1  0  0  0  0
 20 25  1  0  0  0  0
 21 26  1  0  0  0  0
 22 21  2  0  0  0  0
 22 24  1  0  0  0  0
 23 20  1  0  0  0  0
 23 27  1  0  0  0  0
 24 23  2  0  0  0  0
 26 20  2  0  0  0  0
 27 28  3  0  0  0  0
 30 29  3  0  0  0  0
M  END
>  <MODEL>
9

>  <REMARK>
 VINA RESULT:      -6.5      1.747      8.016
  Name = 
  11 active torsions:
  status: ('A' for Active; 'I' for Inactive)
    1  A    between atoms: C_1  and  C_11
    2  A    between atoms: C_1  and  N_20
    3  A    between atoms: C_3  and  C_30
    4  A    between atoms: C_8  and  C_30
    5  A    between atoms: C_10  and  C_14
    6  A    between atoms: C_11  and  C_24
    7  A    between atoms: C_12  and  N_20
    8  A    between atoms: C_17  and  C_24
    9  A    between atoms: C_19  and  N_22
   10  A    between atoms: N_20  and  C_30
   11  A    between atoms: N_22  and  C_26
                            x       y       z     vdW  Elec       q    Type
                         _______ _______ _______ _____ _____    ______ ____

>  <TORSDO>
F 11

$$$$
