=
 OpenBabel11032420313D

 33 36  0  0  1  0  0  0  0  0999 V2000
  188.6850  177.5880  144.8710 C   0  0  0  0  0  0  0  0  0  0  0  0
  188.7740  177.8390  146.3500 C   0  0  0  0  0  2  0  0  0  0  0  0
  190.8810  176.6220  146.7900 C   0  0  0  0  0  0  0  0  0  0  0  0
  189.5810  176.7850  147.0260 C   0  0  0  0  0  3  0  0  0  0  0  0
  189.7830  177.6920  144.0820 C   0  0  0  0  0  0  0  0  0  0  0  0
  191.5760  175.6750  147.5290 O   0  0  0  0  0  1  0  0  0  0  0  0
  191.6240  177.4290  145.8050 C   0  0  0  0  0  3  0  0  0  0  0  0
  191.1450  177.9010  144.6460 C   0  0  0  0  0  3  0  0  0  0  0  0
  188.7090  178.2700  140.4710 C   0  0  0  0  0  3  0  0  0  0  0  0
  190.5540  176.7340  141.9000 C   0  0  0  0  0  3  0  0  0  0  0  0
  189.5580  177.3900  139.7920 C   0  0  0  0  0  0  0  0  0  0  0  0
  190.4830  176.6260  140.5090 C   0  0  0  0  0  3  0  0  0  0  0  0
  188.7850  178.3800  141.8610 C   0  0  0  0  0  3  0  0  0  0  0  0
  189.6970  177.6020  142.5960 C   0  0  0  0  0  0  0  0  0  0  0  0
  189.4480  177.2250  138.3150 C   0  0  0  0  0  2  0  0  0  0  0  0
  189.6570  175.8370  137.9410 N   0  0  0  0  0  2  0  0  0  0  0  0
  190.8630  175.7910  137.2270 N   0  0  0  0  0  2  0  0  0  0  0  0
  192.9170  174.6580  137.7230 C   0  0  2  0  0  3  0  0  0  0  0  0
  192.4040  174.2910  136.4040 C   0  0  2  0  0  3  0  0  0  0  0  0
  191.4490  174.5430  137.4950 N   0  0  0  0  0  0  0  0  0  0  0  0
  192.5490  172.7980  136.2050 C   0  0  0  0  0  1  0  0  0  0  0  0
  193.9650  176.6420  136.5810 O   0  0  0  0  0  0  0  0  0  0  0  0
  193.4840  176.7090  138.8220 O   0  0  0  0  0  1  0  0  0  0  0  0
  193.4500  176.0670  137.7390 C   0  0  0  0  0  0  0  0  0  0  0  0
  187.4130  177.2340  144.3030 N   0  0  0  0  0  2  0  0  0  0  0  0
  185.4470  177.6380  145.7520 C   0  0  0  0  0  2  0  0  0  0  0  0
  185.3480  177.9150  143.1490 C   0  0  0  0  0  2  0  0  0  0  0  0
  184.4420  178.6850  146.1330 C   0  0  0  0  0  2  0  0  0  0  0  0
  183.6020  178.3580  141.5890 N   0  0  0  0  0  1  0  0  0  0  0  0
  183.3560  179.2350  143.9040 C   0  0  0  0  0  3  0  0  0  0  0  0
  183.7380  179.0890  145.1290 C   0  0  0  0  0  2  0  0  0  0  0  0
  184.1480  178.4940  142.8950 C   0  0  0  0  0  0  0  0  0  0  0  0
  186.1760  177.9970  144.4340 C   0  0  2  0  0  3  0  0  0  0  0  0
  1  2  1  0  0  0  0
  2  4  1  0  0  0  0
  3  4  2  0  0  0  0
  3  6  1  0  0  0  0
  5  8  1  0  0  0  0
  5  1  2  0  0  0  0
  7  3  1  0  0  0  0
  8  7  2  0  0  0  0
  9 13  1  0  0  0  0
 10 14  1  0  0  0  0
 11  9  2  0  0  0  0
 11 12  1  0  0  0  0
 12 10  2  0  0  0  0
 13 14  2  0  0  0  0
 14  5  1  0  0  0  0
 15 11  1  0  0  0  0
 16 15  1  0  0  0  0
 17 20  1  0  0  0  0
 17 16  1  0  0  0  0
 18 24  1  6  0  0  0
 19 21  1  1  0  0  0
 19 20  1  0  0  0  0
 19 18  1  0  0  0  0
 20 18  1  0  0  0  0
 22 24  2  0  0  0  0
 24 23  1  0  0  0  0
 25  1  1  0  0  0  0
 26 28  1  0  0  0  0
 27 33  1  0  0  0  0
 29 32  1  0  0  0  0
 30 31  1  0  0  0  0
 31 28  1  0  0  0  0
 32 27  1  0  0  0  0
 32 30  2  0  0  0  0
 33 25  1  6  0  0  0
 33 26  1  0  0  0  0
M  END
>  <MODEL>
1

>  <REMARK>
 VINA RESULT:      -9.2      0.000      0.000
  Name = 
  8 active torsions:
  status: ('A' for Active; 'I' for Inactive)
    1  A    between atoms: C_3  and  C_29
    2  A    between atoms: C_4  and  N_27
    3  A    between atoms: C_7  and  C_9
    4  A    between atoms: C_7  and  N_20
    5  A    between atoms: N_17  and  N_21
    6  A    between atoms: N_20  and  N_21
    7  A    between atoms: C_22  and  C_32
    8  A    between atoms: N_27  and  C_30
                            x       y       z     vdW  Elec       q    Type
                         _______ _______ _______ _____ _____    ______ ____

>  <TORSDO>
F 8

$$$$
=
 OpenBabel11032420313D

 33 36  0  0  1  0  0  0  0  0999 V2000
  188.7600  177.5250  145.0100 C   0  0  0  0  0  0  0  0  0  0  0  0
  188.8280  177.7790  146.4890 C   0  0  0  0  0  2  0  0  0  0  0  0
  190.9170  176.5440  146.9650 C   0  0  0  0  0  0  0  0  0  0  0  0
  189.6140  176.7190  147.1800 C   0  0  0  0  0  3  0  0  0  0  0  0
  189.8700  177.6170  144.2370 C   0  0  0  0  0  0  0  0  0  0  0  0
  191.5910  175.5930  147.7160 O   0  0  0  0  0  1  0  0  0  0  0  0
  191.6820  177.3420  145.9890 C   0  0  0  0  0  3  0  0  0  0  0  0
  191.2250  177.8150  144.8210 C   0  0  0  0  0  3  0  0  0  0  0  0
  190.5070  176.5200  140.6430 C   0  0  0  0  0  3  0  0  0  0  0  0
  188.9580  178.3830  142.0340 C   0  0  0  0  0  3  0  0  0  0  0  0
  189.6690  177.3910  139.9420 C   0  0  0  0  0  0  0  0  0  0  0  0
  188.8910  178.3190  140.6400 C   0  0  0  0  0  3  0  0  0  0  0  0
  190.5680  176.5810  142.0380 C   0  0  0  0  0  3  0  0  0  0  0  0
  189.8070  177.5240  142.7510 C   0  0  0  0  0  0  0  0  0  0  0  0
  189.6370  177.3700  138.4520 C   0  0  0  0  0  2  0  0  0  0  0  0
  189.0230  176.1440  137.9740 N   0  0  0  0  0  2  0  0  0  0  0  0
  187.6950  176.4580  137.6510 N   0  0  0  0  0  2  0  0  0  0  0  0
  186.5990  178.4840  136.9830 C   0  0  2  0  0  3  0  0  0  0  0  0
  186.5200  177.4600  135.9420 C   0  0  2  0  0  3  0  0  0  0  0  0
  187.7370  177.5470  136.7640 N   0  0  0  0  0  0  0  0  0  0  0  0
  186.7850  178.0910  134.5940 C   0  0  0  0  0  1  0  0  0  0  0  0
  184.5710  177.3800  137.9870 O   0  0  0  0  0  0  0  0  0  0  0  0
  185.9870  178.6200  139.2950 O   0  0  0  0  0  1  0  0  0  0  0  0
  185.7170  178.1490  138.1580 C   0  0  0  0  0  0  0  0  0  0  0  0
  187.4940  177.1810  144.4220 N   0  0  0  0  0  2  0  0  0  0  0  0
  185.5140  177.5860  145.8540 C   0  0  0  0  0  2  0  0  0  0  0  0
  185.4430  177.8750  143.2510 C   0  0  0  0  0  2  0  0  0  0  0  0
  184.5090  178.6360  146.2290 C   0  0  0  0  0  2  0  0  0  0  0  0
  183.7140  178.3310  141.6750 N   0  0  0  0  0  1  0  0  0  0  0  0
  183.4490  179.2000  143.9910 C   0  0  0  0  0  3  0  0  0  0  0  0
  183.8180  179.0470  145.2190 C   0  0  0  0  0  2  0  0  0  0  0  0
  184.2480  178.4600  142.9870 C   0  0  0  0  0  0  0  0  0  0  0  0
  186.2580  177.9490  144.5440 C   0  0  2  0  0  3  0  0  0  0  0  0
  1  2  1  0  0  0  0
  2  4  1  0  0  0  0
  3  4  2  0  0  0  0
  3  6  1  0  0  0  0
  5  8  1  0  0  0  0
  5  1  2  0  0  0  0
  7  3  1  0  0  0  0
  8  7  2  0  0  0  0
  9 13  1  0  0  0  0
 10 14  1  0  0  0  0
 11 12  1  0  0  0  0
 11  9  2  0  0  0  0
 12 10  2  0  0  0  0
 13 14  2  0  0  0  0
 14  5  1  0  0  0  0
 15 11  1  0  0  0  0
 16 15  1  0  0  0  0
 17 16  1  0  0  0  0
 18 24  1  1  0  0  0
 19 21  1  6  0  0  0
 19 20  1  0  0  0  0
 19 18  1  0  0  0  0
 20 18  1  0  0  0  0
 20 17  1  0  0  0  0
 22 24  2  0  0  0  0
 24 23  1  0  0  0  0
 25  1  1  0  0  0  0
 26 28  1  0  0  0  0
 27 33  1  0  0  0  0
 29 32  1  0  0  0  0
 30 31  1  0  0  0  0
 31 28  1  0  0  0  0
 32 27  1  0  0  0  0
 32 30  2  0  0  0  0
 33 25  1  6  0  0  0
 33 26  1  0  0  0  0
M  END
>  <MODEL>
2

>  <REMARK>
 VINA RESULT:      -9.2      2.693      3.641
  Name = 
  8 active torsions:
  status: ('A' for Active; 'I' for Inactive)
    1  A    between atoms: C_3  and  C_29
    2  A    between atoms: C_4  and  N_27
    3  A    between atoms: C_7  and  C_9
    4  A    between atoms: C_7  and  N_20
    5  A    between atoms: N_17  and  N_21
    6  A    between atoms: N_20  and  N_21
    7  A    between atoms: C_22  and  C_32
    8  A    between atoms: N_27  and  C_30
                            x       y       z     vdW  Elec       q    Type
                         _______ _______ _______ _____ _____    ______ ____

>  <TORSDO>
F 8

$$$$
=
 OpenBabel11032420313D

 33 36  0  0  1  0  0  0  0  0999 V2000
  185.4750  179.0040  141.0150 C   0  0  0  0  0  0  0  0  0  0  0  0
  184.7680  179.3400  139.7340 C   0  0  0  0  0  2  0  0  0  0  0  0
  183.2870  177.3630  139.6180 C   0  0  0  0  0  0  0  0  0  0  0  0
  184.2430  178.1130  139.0720 C   0  0  0  0  0  3  0  0  0  0  0  0
  184.7900  178.5260  142.0830 C   0  0  0  0  0  0  0  0  0  0  0  0
  182.7930  176.2870  138.8940 O   0  0  0  0  0  1  0  0  0  0  0  0
  182.7030  177.6470  140.9420 C   0  0  0  0  0  3  0  0  0  0  0  0
  183.3490  178.1610  141.9980 C   0  0  0  0  0  3  0  0  0  0  0  0
  185.7380  178.9490  145.7500 C   0  0  0  0  0  3  0  0  0  0  0  0
  186.3850  177.3090  143.5830 C   0  0  0  0  0  3  0  0  0  0  0  0
  186.6920  177.9380  145.9010 C   0  0  0  0  0  0  0  0  0  0  0  0
  187.0100  177.1160  144.8170 C   0  0  0  0  0  3  0  0  0  0  0  0
  185.1100  179.1370  144.5160 C   0  0  0  0  0  3  0  0  0  0  0  0
  185.4360  178.3310  143.4120 C   0  0  0  0  0  0  0  0  0  0  0  0
  187.4060  177.7640  147.1970 C   0  0  0  0  0  2  0  0  0  0  0  0
  188.8230  178.0450  147.0390 N   0  0  0  0  0  2  0  0  0  0  0  0
  189.4820  176.8070  147.0520 N   0  0  0  0  0  2  0  0  0  0  0  0
  191.6140  176.3500  146.0550 C   0  0  2  0  0  3  0  0  0  0  0  0
  191.2210  177.7460  145.8710 C   0  0  2  0  0  3  0  0  0  0  0  0
  190.1830  176.7040  145.8390 N   0  0  0  0  0  0  0  0  0  0  0  0
  191.5370  178.1750  144.4550 C   0  0  0  0  0  1  0  0  0  0  0  0
  192.3580  177.0980  148.3410 O   0  0  0  0  0  1  0  0  0  0  0  0
  192.0270  174.8740  147.8960 O   0  0  0  0  0  0  0  0  0  0  0  0
  191.9900  176.0640  147.4860 C   0  0  0  0  0  0  0  0  0  0  0  0
  186.8970  179.1990  141.0940 N   0  0  0  0  0  2  0  0  0  0  0  0
  189.0550  178.1530  141.7110 C   0  0  0  0  0  2  0  0  0  0  0  0
  188.3360  178.5150  139.2180 C   0  0  0  0  0  2  0  0  0  0  0  0
  189.8670  176.9030  141.5360 C   0  0  0  0  0  2  0  0  0  0  0  0
  189.4150  178.2080  137.1140 N   0  0  0  0  0  1  0  0  0  0  0  0
  190.1130  176.7590  139.0130 C   0  0  0  0  0  3  0  0  0  0  0  0
  190.1420  176.6560  140.3000 C   0  0  0  0  0  2  0  0  0  0  0  0
  189.2510  177.8390  138.4780 C   0  0  0  0  0  0  0  0  0  0  0  0
  187.9170  178.2460  140.6640 C   0  0  2  0  0  3  0  0  0  0  0  0
  1 25  1  0  0  0  0
  1  5  2  0  0  0  0
  2  1  1  0  0  0  0
  3  7  1  0  0  0  0
  4  3  2  0  0  0  0
  4  2  1  0  0  0  0
  5 14  1  0  0  0  0
  6  3  1  0  0  0  0
  7  8  2  0  0  0  0
  8  5  1  0  0  0  0
  9 11  1  0  0  0  0
 10 12  1  0  0  0  0
 11 15  1  0  0  0  0
 12 11  2  0  0  0  0
 13  9  2  0  0  0  0
 14 10  2  0  0  0  0
 14 13  1  0  0  0  0
 16 17  1  0  0  0  0
 16 15  1  0  0  0  0
 18 24  1  1  0  0  0
 19 21  1  6  0  0  0
 19 18  1  0  0  0  0
 20 19  1  0  0  0  0
 20 18  1  0  0  0  0
 20 17  1  0  0  0  0
 24 23  2  0  0  0  0
 24 22  1  0  0  0  0
 27 33  1  0  0  0  0
 28 26  1  0  0  0  0
 29 32  1  0  0  0  0
 30 31  1  0  0  0  0
 31 28  1  0  0  0  0
 32 30  2  0  0  0  0
 32 27  1  0  0  0  0
 33 25  1  1  0  0  0
 33 26  1  0  0  0  0
M  END
>  <MODEL>
3

>  <REMARK>
 VINA RESULT:      -9.1      3.394      8.079
  Name = 
  8 active torsions:
  status: ('A' for Active; 'I' for Inactive)
    1  A    between atoms: C_3  and  C_29
    2  A    between atoms: C_4  and  N_27
    3  A    between atoms: C_7  and  C_9
    4  A    between atoms: C_7  and  N_20
    5  A    between atoms: N_17  and  N_21
    6  A    between atoms: N_20  and  N_21
    7  A    between atoms: C_22  and  C_32
    8  A    between atoms: N_27  and  C_30
                            x       y       z     vdW  Elec       q    Type
                         _______ _______ _______ _____ _____    ______ ____

>  <TORSDO>
F 8

$$$$
=
 OpenBabel11032420313D

 33 36  0  0  1  0  0  0  0  0999 V2000
  188.7410  177.4900  144.9810 C   0  0  0  0  0  0  0  0  0  0  0  0
  188.8680  177.6940  146.4640 C   0  0  0  0  0  2  0  0  0  0  0  0
  191.0150  176.5140  146.8000 C   0  0  0  0  0  0  0  0  0  0  0  0
  189.7200  176.6370  147.0790 C   0  0  0  0  0  3  0  0  0  0  0  0
  189.8110  177.6470  144.1630 C   0  0  0  0  0  0  0  0  0  0  0  0
  191.7540  175.5590  147.4840 O   0  0  0  0  0  1  0  0  0  0  0  0
  191.7090  177.3710  145.8210 C   0  0  0  0  0  3  0  0  0  0  0  0
  191.1840  177.8690  144.6930 C   0  0  0  0  0  3  0  0  0  0  0  0
  190.3050  176.6890  140.5070 C   0  0  0  0  0  3  0  0  0  0  0  0
  188.7840  178.4690  142.0320 C   0  0  0  0  0  3  0  0  0  0  0  0
  189.4190  177.5670  139.8760 C   0  0  0  0  0  0  0  0  0  0  0  0
  188.6560  178.4530  140.6410 C   0  0  0  0  0  3  0  0  0  0  0  0
  190.4280  176.7030  141.8990 C   0  0  0  0  0  3  0  0  0  0  0  0
  189.6820  177.6040  142.6790 C   0  0  0  0  0  0  0  0  0  0  0  0
  189.3200  177.5970  138.3890 C   0  0  0  0  0  2  0  0  0  0  0  0
  188.5450  178.7460  137.9540 N   0  0  0  0  0  2  0  0  0  0  0  0
  187.5920  178.2660  137.0440 N   0  0  0  0  0  2  0  0  0  0  0  0
  186.1690  176.3370  137.0990 C   0  0  2  0  0  3  0  0  0  0  0  0
  185.3970  177.5730  136.9790 C   0  0  2  0  0  3  0  0  0  0  0  0
  186.6240  177.5760  137.7910 N   0  0  0  0  0  0  0  0  0  0  0  0
  184.1950  177.5070  137.8950 C   0  0  0  0  0  1  0  0  0  0  0  0
  186.4400  176.4930  134.6000 O   0  0  0  0  0  0  0  0  0  0  0  0
  187.9110  175.2610  135.8550 O   0  0  0  0  0  1  0  0  0  0  0  0
  186.9030  176.0160  135.8220 C   0  0  0  0  0  0  0  0  0  0  0  0
  187.4600  177.1250  144.4390 N   0  0  0  0  0  2  0  0  0  0  0  0
  185.4650  177.6400  145.8120 C   0  0  0  0  0  2  0  0  0  0  0  0
  185.4520  177.8220  143.1980 C   0  0  0  0  0  2  0  0  0  0  0  0
  184.4810  178.7290  146.1230 C   0  0  0  0  0  2  0  0  0  0  0  0
  183.7660  178.2560  141.5700 N   0  0  0  0  0  1  0  0  0  0  0  0
  183.4800  179.2270  143.8430 C   0  0  0  0  0  3  0  0  0  0  0  0
  183.8210  179.1160  145.0830 C   0  0  0  0  0  2  0  0  0  0  0  0
  184.2780  178.4260  142.8860 C   0  0  0  0  0  0  0  0  0  0  0  0
  186.2430  177.9280  144.5040 C   0  0  2  0  0  3  0  0  0  0  0  0
  1  2  1  0  0  0  0
  2  4  1  0  0  0  0
  3  4  2  0  0  0  0
  3  6  1  0  0  0  0
  5  8  1  0  0  0  0
  5  1  2  0  0  0  0
  7  3  1  0  0  0  0
  8  7  2  0  0  0  0
  9 13  1  0  0  0  0
 10 14  1  0  0  0  0
 11  9  2  0  0  0  0
 11 12  1  0  0  0  0
 12 10  2  0  0  0  0
 13 14  2  0  0  0  0
 14  5  1  0  0  0  0
 15 11  1  0  0  0  0
 16 15  1  0  0  0  0
 17 20  1  0  0  0  0
 17 16  1  0  0  0  0
 18 24  1  6  0  0  0
 18 20  1  0  0  0  0
 19 18  1  0  0  0  0
 19 20  1  0  0  0  0
 19 21  1  1  0  0  0
 22 24  2  0  0  0  0
 24 23  1  0  0  0  0
 25  1  1  0  0  0  0
 26 28  1  0  0  0  0
 27 33  1  0  0  0  0
 29 32  1  0  0  0  0
 30 31  1  0  0  0  0
 31 28  1  0  0  0  0
 32 27  1  0  0  0  0
 32 30  2  0  0  0  0
 33 25  1  6  0  0  0
 33 26  1  0  0  0  0
M  END
>  <MODEL>
4

>  <REMARK>
 VINA RESULT:      -9.0      2.650      3.635
  Name = 
  8 active torsions:
  status: ('A' for Active; 'I' for Inactive)
    1  A    between atoms: C_3  and  C_29
    2  A    between atoms: C_4  and  N_27
    3  A    between atoms: C_7  and  C_9
    4  A    between atoms: C_7  and  N_20
    5  A    between atoms: N_17  and  N_21
    6  A    between atoms: N_20  and  N_21
    7  A    between atoms: C_22  and  C_32
    8  A    between atoms: N_27  and  C_30
                            x       y       z     vdW  Elec       q    Type
                         _______ _______ _______ _____ _____    ______ ____

>  <TORSDO>
F 8

$$$$
=
 OpenBabel11032420313D

 33 36  0  0  1  0  0  0  0  0999 V2000
  188.3210  177.6510  144.7990 C   0  0  0  0  0  0  0  0  0  0  0  0
  189.5670  177.0510  145.3850 C   0  0  0  0  0  2  0  0  0  0  0  0
  189.2700  177.8240  147.7150 C   0  0  0  0  0  0  0  0  0  0  0  0
  190.0000  177.7940  146.6020 C   0  0  0  0  0  3  0  0  0  0  0  0
  187.1390  177.5830  145.4590 C   0  0  0  0  0  0  0  0  0  0  0  0
  189.7880  178.4650  148.8310 O   0  0  0  0  0  1  0  0  0  0  0  0
  187.9510  177.1740  147.8260 C   0  0  0  0  0  3  0  0  0  0  0  0
  187.0400  177.0590  146.8500 C   0  0  0  0  0  3  0  0  0  0  0  0
  184.4100  178.2980  142.8970 C   0  0  0  0  0  3  0  0  0  0  0  0
  184.8680  178.6230  145.6330 C   0  0  0  0  0  3  0  0  0  0  0  0
  183.4370  178.9020  143.6990 C   0  0  0  0  0  0  0  0  0  0  0  0
  183.6670  179.0590  145.0680 C   0  0  0  0  0  3  0  0  0  0  0  0
  185.6090  177.8580  143.4640 C   0  0  0  0  0  3  0  0  0  0  0  0
  185.8610  178.0290  144.8370 C   0  0  0  0  0  0  0  0  0  0  0  0
  182.1790  179.4230  143.0940 C   0  0  0  0  0  2  0  0  0  0  0  0
  181.6430  178.4720  142.1360 N   0  0  0  0  0  2  0  0  0  0  0  0
  181.7920  179.0520  140.8680 N   0  0  0  0  0  2  0  0  0  0  0  0
  183.1310  178.3290  139.0150 C   0  0  2  0  0  3  0  0  0  0  0  0
  181.7380  178.5360  138.6240 C   0  0  2  0  0  3  0  0  0  0  0  0
  182.0300  178.0030  139.9640 N   0  0  0  0  0  0  0  0  0  0  0  0
  181.2930  177.4030  137.7250 C   0  0  0  0  0  1  0  0  0  0  0  0
  183.3070  180.8310  138.8010 O   0  0  0  0  0  0  0  0  0  0  0  0
  184.9350  179.6400  139.8890 O   0  0  0  0  0  1  0  0  0  0  0  0
  183.8330  179.6360  139.2800 C   0  0  0  0  0  0  0  0  0  0  0  0
  188.4010  178.3030  143.5200 N   0  0  0  0  0  2  0  0  0  0  0  0
  190.6560  178.1730  142.5070 C   0  0  0  0  0  2  0  0  0  0  0  0
  188.4740  178.2530  141.0600 C   0  0  0  0  0  2  0  0  0  0  0  0
  191.5070  177.3400  141.5930 C   0  0  0  0  0  2  0  0  0  0  0  0
  188.0330  178.4140  138.7230 N   0  0  0  0  0  1  0  0  0  0  0  0
  190.1530  177.3310  139.4440 C   0  0  0  0  0  3  0  0  0  0  0  0
  191.0080  177.2330  140.4070 C   0  0  0  0  0  2  0  0  0  0  0  0
  188.8750  177.9960  139.7900 C   0  0  0  0  0  0  0  0  0  0  0  0
  189.1530  177.8270  142.3630 C   0  0  2  0  0  3  0  0  0  0  0  0
  1  2  1  0  0  0  0
  1  5  2  0  0  0  0
  2  4  1  0  0  0  0
  3  7  1  0  0  0  0
  3  6  1  0  0  0  0
  4  3  2  0  0  0  0
  5  8  1  0  0  0  0
  8  7  2  0  0  0  0
  9 13  2  0  0  0  0
  9 11  1  0  0  0  0
 11 12  2  0  0  0  0
 12 10  1  0  0  0  0
 13 14  1  0  0  0  0
 14  5  1  0  0  0  0
 14 10  2  0  0  0  0
 15 11  1  0  0  0  0
 16 15  1  0  0  0  0
 17 16  1  0  0  0  0
 18 24  1  1  0  0  0
 18 20  1  0  0  0  0
 19 21  1  6  0  0  0
 19 18  1  0  0  0  0
 19 20  1  0  0  0  0
 20 17  1  0  0  0  0
 22 24  2  0  0  0  0
 24 23  1  0  0  0  0
 25  1  1  0  0  0  0
 27 33  1  0  0  0  0
 28 26  1  0  0  0  0
 29 32  1  0  0  0  0
 30 32  2  0  0  0  0
 30 31  1  0  0  0  0
 31 28  1  0  0  0  0
 32 27  1  0  0  0  0
 33 26  1  0  0  0  0
 33 25  1  1  0  0  0
M  END
>  <MODEL>
5

>  <REMARK>
 VINA RESULT:      -8.9      3.366      7.305
  Name = 
  8 active torsions:
  status: ('A' for Active; 'I' for Inactive)
    1  A    between atoms: C_3  and  C_29
    2  A    between atoms: C_4  and  N_27
    3  A    between atoms: C_7  and  C_9
    4  A    between atoms: C_7  and  N_20
    5  A    between atoms: N_17  and  N_21
    6  A    between atoms: N_20  and  N_21
    7  A    between atoms: C_22  and  C_32
    8  A    between atoms: N_27  and  C_30
                            x       y       z     vdW  Elec       q    Type
                         _______ _______ _______ _____ _____    ______ ____

>  <TORSDO>
F 8

$$$$
=
 OpenBabel11032420313D

 33 36  0  0  1  0  0  0  0  0999 V2000
  188.7940  177.6030  143.9080 C   0  0  0  0  0  0  0  0  0  0  0  0
  188.9160  177.9300  145.3690 C   0  0  0  0  0  2  0  0  0  0  0  0
  191.2450  177.1680  145.7080 C   0  0  0  0  0  0  0  0  0  0  0  0
  189.9540  177.0830  146.0230 C   0  0  0  0  0  3  0  0  0  0  0  0
  189.8010  177.8860  143.0450 C   0  0  0  0  0  0  0  0  0  0  0  0
  192.1550  176.4070  146.4280 O   0  0  0  0  0  1  0  0  0  0  0  0
  191.7550  178.0610  144.6520 C   0  0  0  0  0  3  0  0  0  0  0  0
  191.1260  178.3800  143.5120 C   0  0  0  0  0  3  0  0  0  0  0  0
  190.1980  176.5840  139.4860 C   0  0  0  0  0  3  0  0  0  0  0  0
  188.7840  178.5620  140.8590 C   0  0  0  0  0  3  0  0  0  0  0  0
  189.3450  177.4420  138.7870 C   0  0  0  0  0  0  0  0  0  0  0  0
  188.6350  178.4280  139.4770 C   0  0  0  0  0  3  0  0  0  0  0  0
  190.3420  176.7160  140.8690 C   0  0  0  0  0  3  0  0  0  0  0  0
  189.6490  177.7170  141.5720 C   0  0  0  0  0  0  0  0  0  0  0  0
  189.2260  177.3450  137.3040 C   0  0  0  0  0  2  0  0  0  0  0  0
  188.5140  176.1350  136.9300 N   0  0  0  0  0  2  0  0  0  0  0  0
  187.3060  176.5440  136.3470 N   0  0  0  0  0  2  0  0  0  0  0  0
  184.9560  176.5100  136.8250 C   0  0  2  0  0  3  0  0  0  0  0  0
  185.5620  177.7890  137.1920 C   0  0  2  0  0  3  0  0  0  0  0  0
  186.3430  176.5550  137.3700 N   0  0  0  0  0  0  0  0  0  0  0  0
  185.0240  178.2350  138.5330 C   0  0  0  0  0  1  0  0  0  0  0  0
  184.9180  175.0830  134.7510 O   0  0  0  0  0  1  0  0  0  0  0  0
  184.8010  177.3670  134.5940 O   0  0  0  0  0  0  0  0  0  0  0  0
  184.8660  176.3470  135.3300 C   0  0  0  0  0  0  0  0  0  0  0  0
  187.5860  176.9840  143.4340 N   0  0  0  0  0  2  0  0  0  0  0  0
  185.7840  178.3750  142.4620 C   0  0  0  0  0  2  0  0  0  0  0  0
  186.0810  178.0760  145.0470 C   0  0  0  0  0  2  0  0  0  0  0  0
  184.2930  178.5350  142.4190 C   0  0  0  0  0  2  0  0  0  0  0  0
  185.0390  179.0370  146.9630 N   0  0  0  0  0  1  0  0  0  0  0  0
  183.7080  178.8620  144.8680 C   0  0  0  0  0  3  0  0  0  0  0  0
  183.7810  178.7520  143.5840 C   0  0  0  0  0  2  0  0  0  0  0  0
  184.9740  178.6280  145.6020 C   0  0  0  0  0  0  0  0  0  0  0  0
  186.2300  177.4810  143.6450 C   0  0  2  0  0  3  0  0  0  0  0  0
  1  2  1  0  0  0  0
  2  4  1  0  0  0  0
  3  4  2  0  0  0  0
  3  6  1  0  0  0  0
  5  8  1  0  0  0  0
  5  1  2  0  0  0  0
  7  3  1  0  0  0  0
  8  7  2  0  0  0  0
  9 13  1  0  0  0  0
 10 14  1  0  0  0  0
 11 12  1  0  0  0  0
 11  9  2  0  0  0  0
 12 10  2  0  0  0  0
 13 14  2  0  0  0  0
 14  5  1  0  0  0  0
 15 11  1  0  0  0  0
 16 15  1  0  0  0  0
 17 16  1  0  0  0  0
 17 20  1  0  0  0  0
 18 24  1  6  0  0  0
 18 19  1  0  0  0  0
 18 20  1  0  0  0  0
 19 20  1  0  0  0  0
 19 21  1  1  0  0  0
 22 24  1  0  0  0  0
 23 24  2  0  0  0  0
 25  1  1  0  0  0  0
 26 33  1  0  0  0  0
 27 32  1  0  0  0  0
 28 26  1  0  0  0  0
 28 31  1  0  0  0  0
 30 32  2  0  0  0  0
 31 30  1  0  0  0  0
 32 29  1  0  0  0  0
 33 25  1  6  0  0  0
 33 27  1  0  0  0  0
M  END
>  <MODEL>
6

>  <REMARK>
 VINA RESULT:      -8.8      3.109      4.413
  Name = 
  8 active torsions:
  status: ('A' for Active; 'I' for Inactive)
    1  A    between atoms: C_3  and  C_29
    2  A    between atoms: C_4  and  N_27
    3  A    between atoms: C_7  and  C_9
    4  A    between atoms: C_7  and  N_20
    5  A    between atoms: N_17  and  N_21
    6  A    between atoms: N_20  and  N_21
    7  A    between atoms: C_22  and  C_32
    8  A    between atoms: N_27  and  C_30
                            x       y       z     vdW  Elec       q    Type
                         _______ _______ _______ _____ _____    ______ ____

>  <TORSDO>
F 8

$$$$
=
 OpenBabel11032420313D

 33 36  0  0  1  0  0  0  0  0999 V2000
  185.6210  178.9240  140.9400 C   0  0  0  0  0  0  0  0  0  0  0  0
  184.9430  179.2950  139.6510 C   0  0  0  0  0  2  0  0  0  0  0  0
  183.3270  177.4260  139.5490 C   0  0  0  0  0  0  0  0  0  0  0  0
  184.3360  178.1010  139.0000 C   0  0  0  0  0  3  0  0  0  0  0  0
  184.9000  178.5050  142.0090 C   0  0  0  0  0  0  0  0  0  0  0  0
  182.7620  176.3800  138.8340 O   0  0  0  0  0  1  0  0  0  0  0  0
  182.7600  177.7640  140.8680 C   0  0  0  0  0  3  0  0  0  0  0  0
  183.4370  178.2420  141.9210 C   0  0  0  0  0  3  0  0  0  0  0  0
  187.2030  177.2260  144.7620 C   0  0  0  0  0  3  0  0  0  0  0  0
  185.0080  178.9300  144.4750 C   0  0  0  0  0  3  0  0  0  0  0  0
  186.6680  177.8680  145.8830 C   0  0  0  0  0  0  0  0  0  0  0  0
  185.5730  178.7230  145.7360 C   0  0  0  0  0  3  0  0  0  0  0  0
  186.6400  177.4380  143.5010 C   0  0  0  0  0  3  0  0  0  0  0  0
  185.5250  178.2790  143.3430 C   0  0  0  0  0  0  0  0  0  0  0  0
  187.2260  177.6070  147.2390 C   0  0  0  0  0  2  0  0  0  0  0  0
  188.6210  178.0070  147.3010 N   0  0  0  0  0  2  0  0  0  0  0  0
  189.3720  176.9200  146.8290 N   0  0  0  0  0  2  0  0  0  0  0  0
  191.6790  177.1540  146.2190 C   0  0  2  0  0  3  0  0  0  0  0  0
  191.4290  175.8870  146.9040 C   0  0  2  0  0  3  0  0  0  0  0  0
  190.6780  177.0820  147.3200 N   0  0  0  0  0  0  0  0  0  0  0  0
  192.5380  175.6250  147.8990 C   0  0  0  0  0  1  0  0  0  0  0  0
  191.0310  175.9840  144.0860 O   0  0  0  0  0  0  0  0  0  0  0  0
  190.7200  178.2440  144.3140 O   0  0  0  0  0  1  0  0  0  0  0  0
  191.0960  177.1580  144.8290 C   0  0  0  0  0  0  0  0  0  0  0  0
  187.0530  179.0190  141.0220 N   0  0  0  0  0  2  0  0  0  0  0  0
  189.2770  177.9450  141.2000 C   0  0  0  0  0  2  0  0  0  0  0  0
  188.2310  178.6280  138.8970 C   0  0  0  0  0  2  0  0  0  0  0  0
  190.0620  176.7490  140.7500 C   0  0  0  0  0  2  0  0  0  0  0  0
  189.0210  178.6350  136.6490 N   0  0  0  0  0  1  0  0  0  0  0  0
  189.9700  176.9560  138.2200 C   0  0  0  0  0  3  0  0  0  0  0  0
  190.1710  176.6790  139.4660 C   0  0  0  0  0  2  0  0  0  0  0  0
  189.0420  178.0800  137.9580 C   0  0  0  0  0  0  0  0  0  0  0  0
  188.0090  178.1560  140.3360 C   0  0  2  0  0  3  0  0  0  0  0  0
  1 25  1  0  0  0  0
  1  5  2  0  0  0  0
  2  1  1  0  0  0  0
  3  7  1  0  0  0  0
  4  3  2  0  0  0  0
  4  2  1  0  0  0  0
  5 14  1  0  0  0  0
  6  3  1  0  0  0  0
  7  8  2  0  0  0  0
  8  5  1  0  0  0  0
  9 11  1  0  0  0  0
 10 12  1  0  0  0  0
 11 15  1  0  0  0  0
 12 11  2  0  0  0  0
 13  9  2  0  0  0  0
 14 13  1  0  0  0  0
 14 10  2  0  0  0  0
 15 16  1  0  0  0  0
 17 16  1  0  0  0  0
 17 20  1  0  0  0  0
 18 24  1  6  0  0  0
 18 19  1  0  0  0  0
 18 20  1  0  0  0  0
 19 20  1  0  0  0  0
 19 21  1  1  0  0  0
 22 24  2  0  0  0  0
 23 24  1  0  0  0  0
 27 33  1  0  0  0  0
 28 26  1  0  0  0  0
 29 32  1  0  0  0  0
 30 31  1  0  0  0  0
 31 28  1  0  0  0  0
 32 30  2  0  0  0  0
 32 27  1  0  0  0  0
 33 25  1  1  0  0  0
 33 26  1  0  0  0  0
M  END
>  <MODEL>
7

>  <REMARK>
 VINA RESULT:      -8.8      2.960      8.051
  Name = 
  8 active torsions:
  status: ('A' for Active; 'I' for Inactive)
    1  A    between atoms: C_3  and  C_29
    2  A    between atoms: C_4  and  N_27
    3  A    between atoms: C_7  and  C_9
    4  A    between atoms: C_7  and  N_20
    5  A    between atoms: N_17  and  N_21
    6  A    between atoms: N_20  and  N_21
    7  A    between atoms: C_22  and  C_32
    8  A    between atoms: N_27  and  C_30
                            x       y       z     vdW  Elec       q    Type
                         _______ _______ _______ _____ _____    ______ ____

>  <TORSDO>
F 8

$$$$
=
 OpenBabel11032420313D

 33 36  0  0  1  0  0  0  0  0999 V2000
  188.7350  177.5710  143.9460 C   0  0  0  0  0  0  0  0  0  0  0  0
  188.8480  177.8920  145.4090 C   0  0  0  0  0  2  0  0  0  0  0  0
  191.1620  177.0990  145.7680 C   0  0  0  0  0  0  0  0  0  0  0  0
  189.8670  177.0300  146.0700 C   0  0  0  0  0  3  0  0  0  0  0  0
  189.7540  177.8440  143.0940 C   0  0  0  0  0  0  0  0  0  0  0  0
  192.0550  176.3240  146.4940 O   0  0  0  0  0  1  0  0  0  0  0  0
  191.6940  177.9890  144.7190 C   0  0  0  0  0  3  0  0  0  0  0  0
  191.0800  178.3190  143.5750 C   0  0  0  0  0  3  0  0  0  0  0  0
  188.5530  178.2530  139.5000 C   0  0  0  0  0  3  0  0  0  0  0  0
  190.4370  176.7720  140.9360 C   0  0  0  0  0  3  0  0  0  0  0  0
  189.3700  177.3320  138.8360 C   0  0  0  0  0  0  0  0  0  0  0  0
  190.3150  176.5970  139.5550 C   0  0  0  0  0  3  0  0  0  0  0  0
  188.6810  178.4310  140.8800 C   0  0  0  0  0  3  0  0  0  0  0  0
  189.6130  177.6810  141.6190 C   0  0  0  0  0  0  0  0  0  0  0  0
  189.2050  177.0960  137.3740 C   0  0  0  0  0  2  0  0  0  0  0  0
  187.8860  176.5570  137.0910 N   0  0  0  0  0  2  0  0  0  0  0  0
  188.0750  175.4570  136.2430 N   0  0  0  0  0  2  0  0  0  0  0  0
  188.2220  173.1840  136.9940 C   0  0  2  0  0  3  0  0  0  0  0  0
  187.3880  173.3040  135.8000 C   0  0  2  0  0  3  0  0  0  0  0  0
  187.3600  174.3830  136.7990 N   0  0  0  0  0  0  0  0  0  0  0  0
  186.1530  172.4450  135.9610 C   0  0  0  0  0  1  0  0  0  0  0  0
  190.1720  173.1250  135.4020 O   0  0  0  0  0  0  0  0  0  0  0  0
  190.4730  173.7520  137.5860 O   0  0  0  0  0  1  0  0  0  0  0  0
  189.6810  173.3910  136.6760 C   0  0  0  0  0  0  0  0  0  0  0  0
  187.5230  176.9690  143.4600 N   0  0  0  0  0  2  0  0  0  0  0  0
  185.7740  178.4180  142.4730 C   0  0  0  0  0  2  0  0  0  0  0  0
  186.0020  178.0590  145.0580 C   0  0  0  0  0  2  0  0  0  0  0  0
  184.2880  178.6100  142.3980 C   0  0  0  0  0  2  0  0  0  0  0  0
  184.9330  179.0030  146.9690 N   0  0  0  0  0  1  0  0  0  0  0  0
  183.6510  178.8980  144.8400 C   0  0  0  0  0  3  0  0  0  0  0  0
  183.7530  178.8130  143.5550 C   0  0  0  0  0  2  0  0  0  0  0  0
  184.8930  178.6240  145.5980 C   0  0  0  0  0  0  0  0  0  0  0  0
  186.1730  177.4910  143.6480 C   0  0  2  0  0  3  0  0  0  0  0  0
  1  2  1  0  0  0  0
  2  4  1  0  0  0  0
  3  4  2  0  0  0  0
  3  6  1  0  0  0  0
  5  8  1  0  0  0  0
  5  1  2  0  0  0  0
  7  3  1  0  0  0  0
  8  7  2  0  0  0  0
  9 13  1  0  0  0  0
 10 14  1  0  0  0  0
 11  9  2  0  0  0  0
 11 12  1  0  0  0  0
 12 10  2  0  0  0  0
 13 14  2  0  0  0  0
 14  5  1  0  0  0  0
 15 11  1  0  0  0  0
 16 15  1  0  0  0  0
 17 20  1  0  0  0  0
 17 16  1  0  0  0  0
 18 24  1  6  0  0  0
 19 21  1  1  0  0  0
 19 20  1  0  0  0  0
 19 18  1  0  0  0  0
 20 18  1  0  0  0  0
 22 24  2  0  0  0  0
 24 23  1  0  0  0  0
 25  1  1  0  0  0  0
 26 33  1  0  0  0  0
 27 32  1  0  0  0  0
 28 26  1  0  0  0  0
 28 31  1  0  0  0  0
 30 32  2  0  0  0  0
 31 30  1  0  0  0  0
 32 29  1  0  0  0  0
 33 25  1  6  0  0  0
 33 27  1  0  0  0  0
M  END
>  <MODEL>
8

>  <REMARK>
 VINA RESULT:      -8.8      2.401      2.929
  Name = 
  8 active torsions:
  status: ('A' for Active; 'I' for Inactive)
    1  A    between atoms: C_3  and  C_29
    2  A    between atoms: C_4  and  N_27
    3  A    between atoms: C_7  and  C_9
    4  A    between atoms: C_7  and  N_20
    5  A    between atoms: N_17  and  N_21
    6  A    between atoms: N_20  and  N_21
    7  A    between atoms: C_22  and  C_32
    8  A    between atoms: N_27  and  C_30
                            x       y       z     vdW  Elec       q    Type
                         _______ _______ _______ _____ _____    ______ ____

>  <TORSDO>
F 8

$$$$
=
 OpenBabel11032420313D

 33 36  0  0  1  0  0  0  0  0999 V2000
  189.6820  177.2970  144.5630 C   0  0  0  0  0  0  0  0  0  0  0  0
  190.9680  176.5600  144.8090 C   0  0  0  0  0  2  0  0  0  0  0  0
  191.1700  177.0010  147.2340 C   0  0  0  0  0  0  0  0  0  0  0  0
  191.6750  177.0980  146.0050 C   0  0  0  0  0  3  0  0  0  0  0  0
  188.6430  177.1880  145.4270 C   0  0  0  0  0  0  0  0  0  0  0  0
  191.9340  177.4480  148.3020 O   0  0  0  0  0  1  0  0  0  0  0  0
  189.8510  176.4040  147.5140 C   0  0  0  0  0  3  0  0  0  0  0  0
  188.7680  176.4740  146.7270 C   0  0  0  0  0  3  0  0  0  0  0  0
  185.4110  178.1330  143.6420 C   0  0  0  0  0  3  0  0  0  0  0  0
  186.6640  178.5670  146.1010 C   0  0  0  0  0  3  0  0  0  0  0  0
  184.7900  178.9280  144.6090 C   0  0  0  0  0  0  0  0  0  0  0  0
  185.4160  179.1390  145.8400 C   0  0  0  0  0  3  0  0  0  0  0  0
  186.6570  177.5570  143.9050 C   0  0  0  0  0  3  0  0  0  0  0  0
  187.3070  177.7790  145.1320 C   0  0  0  0  0  0  0  0  0  0  0  0
  183.4880  179.5910  144.3180 C   0  0  0  0  0  2  0  0  0  0  0  0
  182.4070  178.6210  144.3440 N   0  0  0  0  0  2  0  0  0  0  0  0
  181.4940  179.0100  143.3530 N   0  0  0  0  0  2  0  0  0  0  0  0
  181.3110  179.3960  140.9930 C   0  0  2  0  0  3  0  0  0  0  0  0
  181.5400  177.9840  141.2920 C   0  0  2  0  0  3  0  0  0  0  0  0
  182.1880  179.0030  142.1320 N   0  0  0  0  0  0  0  0  0  0  0  0
  182.5550  177.4210  140.3210 C   0  0  0  0  0  1  0  0  0  0  0  0
  179.6810  181.1190  141.8360 O   0  0  0  0  0  1  0  0  0  0  0  0
  178.9770  178.9920  141.3490 O   0  0  0  0  0  0  0  0  0  0  0  0
  179.9200  179.8270  141.3810 C   0  0  0  0  0  0  0  0  0  0  0  0
  189.5690  178.1220  143.3910 N   0  0  0  0  0  2  0  0  0  0  0  0
  191.1780  177.8780  141.5250 C   0  0  0  0  0  2  0  0  0  0  0  0
  188.6160  178.2530  141.1260 C   0  0  0  0  0  2  0  0  0  0  0  0
  191.4800  177.0470  140.3130 C   0  0  0  0  0  2  0  0  0  0  0  0
  187.2720  178.6280  139.1930 N   0  0  0  0  0  1  0  0  0  0  0  0
  189.3690  177.3160  138.9270 C   0  0  0  0  0  3  0  0  0  0  0  0
  190.5290  177.0740  139.4410 C   0  0  0  0  0  2  0  0  0  0  0  0
  188.4280  178.0590  139.7960 C   0  0  0  0  0  0  0  0  0  0  0  0
  189.7210  177.6730  142.0110 C   0  0  2  0  0  3  0  0  0  0  0  0
  1  2  1  0  0  0  0
  1  5  2  0  0  0  0
  2  4  1  0  0  0  0
  3  7  1  0  0  0  0
  3  6  1  0  0  0  0
  4  3  2  0  0  0  0
  5  8  1  0  0  0  0
  8  7  2  0  0  0  0
  9 13  2  0  0  0  0
  9 11  1  0  0  0  0
 11 12  2  0  0  0  0
 12 10  1  0  0  0  0
 13 14  1  0  0  0  0
 14  5  1  0  0  0  0
 14 10  2  0  0  0  0
 15 16  1  0  0  0  0
 15 11  1  0  0  0  0
 17 16  1  0  0  0  0
 18 19  1  0  0  0  0
 18 24  1  1  0  0  0
 18 20  1  0  0  0  0
 19 21  1  6  0  0  0
 19 20  1  0  0  0  0
 20 17  1  0  0  0  0
 23 24  2  0  0  0  0
 24 22  1  0  0  0  0
 25  1  1  0  0  0  0
 26 33  1  0  0  0  0
 27 33  1  0  0  0  0
 28 26  1  0  0  0  0
 29 32  1  0  0  0  0
 30 31  1  0  0  0  0
 30 32  2  0  0  0  0
 31 28  1  0  0  0  0
 32 27  1  0  0  0  0
 33 25  1  1  0  0  0
M  END
>  <MODEL>
9

>  <REMARK>
 VINA RESULT:      -8.7      3.993      8.142
  Name = 
  8 active torsions:
  status: ('A' for Active; 'I' for Inactive)
    1  A    between atoms: C_3  and  C_29
    2  A    between atoms: C_4  and  N_27
    3  A    between atoms: C_7  and  C_9
    4  A    between atoms: C_7  and  N_20
    5  A    between atoms: N_17  and  N_21
    6  A    between atoms: N_20  and  N_21
    7  A    between atoms: C_22  and  C_32
    8  A    between atoms: N_27  and  C_30
                            x       y       z     vdW  Elec       q    Type
                         _______ _______ _______ _____ _____    ______ ____

>  <TORSDO>
F 8

$$$$
