=
 OpenBabel11042413103D

 32 36  0  0  1  0  0  0  0  0999 V2000
  189.3330  175.6790  135.1440 N   0  0  0  0  0  0  0  0  0  0  0  0
  189.8140  177.5380  138.0530 C   0  0  0  0  0  3  0  0  0  0  0  0
  187.3860  177.8660  138.5160 C   0  0  0  0  0  0  0  0  0  0  0  0
  189.6370  177.6500  136.5790 C   0  0  0  0  0  2  0  0  0  0  0  0
  186.7100  175.3320  135.9160 C   0  0  0  0  0  3  0  0  0  0  0  0
  188.8040  176.5200  136.0740 C   0  0  0  0  0  0  0  0  0  0  0  0
  188.8060  177.6410  138.9220 C   0  0  0  0  0  0  0  0  0  0  0  0
  187.4710  176.3500  136.4960 C   0  0  0  0  0  0  0  0  0  0  0  0
  188.6070  174.6710  134.5940 C   0  0  0  0  0  3  0  0  0  0  0  0
  187.2770  174.4820  134.9670 C   0  0  0  0  0  3  0  0  0  0  0  0
  186.8140  177.2330  137.4800 C   0  0  0  0  0  3  0  0  0  0  0  0
  189.4040  177.3860  141.4850 C   0  0  0  0  0  0  0  0  0  0  0  0
  189.1220  177.5110  140.3200 C   0  0  0  0  0  0  0  0  0  0  0  0
  190.9620  176.7880  147.4030 C   0  0  0  0  0  3  0  0  0  0  0  0
  189.4860  177.2170  145.0780 C   0  0  0  0  0  0  0  0  0  0  0  0
  191.3070  176.8160  143.4080 S   0  0  0  0  0  0  0  0  0  0  0  0
  189.5970  177.1240  147.4810 C   0  0  0  0  0  3  0  0  0  0  0  0
  190.8300  176.8850  145.0150 C   0  0  0  0  0  0  0  0  0  0  0  0
  189.7550  177.2180  142.8650 C   0  0  0  0  0  0  0  0  0  0  0  0
  188.8780  177.4070  143.8810 N   0  0  0  0  0  0  0  0  0  0  0  0
  188.8470  177.3430  146.3120 C   0  0  0  0  0  3  0  0  0  0  0  0
  191.5950  176.6650  146.1560 C   0  0  0  0  0  3  0  0  0  0  0  0
  186.5240  178.6720  139.3260 N   0  0  0  0  0  2  0  0  0  0  0  0
  185.1460  178.3190  139.6290 C   0  0  0  0  0  2  0  0  0  0  0  0
  185.4200  178.3650  142.0330 C   0  0  2  0  0  3  0  0  0  0  0  0
  185.8780  179.6640  141.5200 N   0  0  0  0  0  2  0  0  0  0  0  0
  184.7190  178.9890  140.9180 C   0  0  1  0  0  3  0  0  0  0  0  0
  184.6380  178.5820  143.3140 C   0  0  0  0  0  2  0  0  0  0  0  0
  185.5500  178.4490  144.5220 C   0  0  0  0  0  2  0  0  0  0  0  0
  185.5260  179.2060  146.7830 O   0  0  0  0  0  1  0  0  0  0  0  0
  183.4730  179.0180  145.7810 O   0  0  0  0  0  0  0  0  0  0  0  0
  184.8560  178.9020  145.7610 C   0  0  0  0  0  0  0  0  0  0  0  0
  1  6  1  0  0  0  0
  2  7  2  0  0  0  0
  3  7  1  0  0  0  0
  3 23  1  0  0  0  0
  4  2  1  0  0  0  0
  5  8  1  0  0  0  0
  6  8  2  0  0  0  0
  6  4  1  0  0  0  0
  7 13  1  0  0  0  0
  8 11  1  0  0  0  0
  9 10  1  0  0  0  0
  9  1  2  0  0  0  0
 10  5  2  0  0  0  0
 11  3  2  0  0  0  0
 12 19  1  0  0  0  0
 13 12  3  0  0  0  0
 14 17  1  0  0  0  0
 15 21  1  0  0  0  0
 16 18  1  0  0  0  0
 18 15  2  0  0  0  0
 18 22  1  0  0  0  0
 19 16  1  0  0  0  0
 19 20  2  0  0  0  0
 20 15  1  0  0  0  0
 21 17  2  0  0  0  0
 22 14  2  0  0  0  0
 23 24  1  0  0  0  0
 25 28  1  1  0  0  0
 26 25  1  0  0  0  0
 27 24  1  6  0  0  0
 27 26  1  0  0  0  0
 27 25  1  0  0  0  0
 28 29  1  0  0  0  0
 29 32  1  0  0  0  0
 32 31  2  0  0  0  0
 32 30  1  0  0  0  0
M  END
>  <MODEL>
1

>  <REMARK>
 VINA RESULT:      -8.7      0.000      0.000
  Name = 
  8 active torsions:
  status: ('A' for Active; 'I' for Inactive)
    1  A    between atoms: C_7  and  C_19
    2  A    between atoms: C_7  and  C_23
    3  A    between atoms: C_8  and  C_21
    4  A    between atoms: C_9  and  N_17
    5  A    between atoms: C_13  and  C_18
    6  A    between atoms: N_17  and  C_27
    7  A    between atoms: C_23  and  C_30
    8  A    between atoms: C_27  and  C_29
                            x       y       z     vdW  Elec       q    Type
                         _______ _______ _______ _____ _____    ______ ____

>  <TORSDO>
F 8

$$$$
=
 OpenBabel11042413103D

 32 36  0  0  1  0  0  0  0  0999 V2000
  191.3240  174.5830  136.9730 N   0  0  0  0  0  0  0  0  0  0  0  0
  190.8460  176.9430  139.4930 C   0  0  0  0  0  3  0  0  0  0  0  0
  188.4350  177.3290  138.9870 C   0  0  0  0  0  0  0  0  0  0  0  0
  191.2100  176.7850  138.0570 C   0  0  0  0  0  2  0  0  0  0  0  0
  188.5820  174.3590  136.7970 C   0  0  0  0  0  3  0  0  0  0  0  0
  190.5480  175.5750  137.4900 C   0  0  0  0  0  0  0  0  0  0  0  0
  189.6030  177.1940  139.9090 C   0  0  0  0  0  0  0  0  0  0  0  0
  189.1440  175.4720  137.4270 C   0  0  0  0  0  0  0  0  0  0  0  0
  190.7840  173.4850  136.3810 C   0  0  0  0  0  3  0  0  0  0  0  0
  189.3990  173.3560  136.2780 C   0  0  0  0  0  3  0  0  0  0  0  0
  188.2330  176.5140  137.9410 C   0  0  0  0  0  3  0  0  0  0  0  0
  189.2270  177.4080  142.5180 C   0  0  0  0  0  0  0  0  0  0  0  0
  189.3940  177.3230  141.3270 C   0  0  0  0  0  0  0  0  0  0  0  0
  188.4520  177.8590  148.6010 C   0  0  0  0  0  3  0  0  0  0  0  0
  187.9640  177.8570  145.8570 C   0  0  0  0  0  0  0  0  0  0  0  0
  190.2530  177.2110  145.0770 S   0  0  0  0  0  0  0  0  0  0  0  0
  187.1720  178.1770  148.1070 C   0  0  0  0  0  3  0  0  0  0  0  0
  189.2190  177.5450  146.3550 C   0  0  0  0  0  0  0  0  0  0  0  0
  189.0330  177.4840  143.9360 C   0  0  0  0  0  0  0  0  0  0  0  0
  187.8530  177.8270  144.5050 N   0  0  0  0  0  0  0  0  0  0  0  0
  186.9200  178.1790  146.7240 C   0  0  0  0  0  3  0  0  0  0  0  0
  189.4960  177.5370  147.7180 C   0  0  0  0  0  3  0  0  0  0  0  0
  187.3890  178.2620  139.2810 N   0  0  0  0  0  2  0  0  0  0  0  0
  186.1730  178.3780  138.4910 C   0  0  0  0  0  2  0  0  0  0  0  0
  185.3260  179.0260  140.6630 C   0  0  2  0  0  3  0  0  0  0  0  0
  184.5520  179.7670  139.6570 N   0  0  0  0  0  2  0  0  0  0  0  0
  184.9680  178.3800  139.4060 C   0  0  1  0  0  3  0  0  0  0  0  0
  184.3940  178.5560  141.7620 C   0  0  0  0  0  2  0  0  0  0  0  0
  184.8210  179.1340  143.1020 C   0  0  0  0  0  2  0  0  0  0  0  0
  183.8650  179.1350  145.2870 O   0  0  0  0  0  1  0  0  0  0  0  0
  182.3760  179.3360  143.5560 O   0  0  0  0  0  0  0  0  0  0  0  0
  183.6670  179.1910  144.0450 C   0  0  0  0  0  0  0  0  0  0  0  0
  1  6  1  0  0  0  0
  2  7  2  0  0  0  0
  3 23  1  0  0  0  0
  3  7  1  0  0  0  0
  4  2  1  0  0  0  0
  5  8  1  0  0  0  0
  6  4  1  0  0  0  0
  7 13  1  0  0  0  0
  8  6  2  0  0  0  0
  8 11  1  0  0  0  0
  9  1  2  0  0  0  0
 10  9  1  0  0  0  0
 10  5  2  0  0  0  0
 11  3  2  0  0  0  0
 12 19  1  0  0  0  0
 13 12  3  0  0  0  0
 15 18  2  0  0  0  0
 15 21  1  0  0  0  0
 16 18  1  0  0  0  0
 17 14  1  0  0  0  0
 18 22  1  0  0  0  0
 19 20  2  0  0  0  0
 19 16  1  0  0  0  0
 20 15  1  0  0  0  0
 21 17  2  0  0  0  0
 22 14  2  0  0  0  0
 24 23  1  0  0  0  0
 25 28  1  1  0  0  0
 26 25  1  0  0  0  0
 27 24  1  6  0  0  0
 27 26  1  0  0  0  0
 27 25  1  0  0  0  0
 28 29  1  0  0  0  0
 29 32  1  0  0  0  0
 31 32  2  0  0  0  0
 32 30  1  0  0  0  0
M  END
>  <MODEL>
2

>  <REMARK>
 VINA RESULT:      -8.7      1.650      2.069
  Name = 
  8 active torsions:
  status: ('A' for Active; 'I' for Inactive)
    1  A    between atoms: C_7  and  C_19
    2  A    between atoms: C_7  and  C_23
    3  A    between atoms: C_8  and  C_21
    4  A    between atoms: C_9  and  N_17
    5  A    between atoms: C_13  and  C_18
    6  A    between atoms: N_17  and  C_27
    7  A    between atoms: C_23  and  C_30
    8  A    between atoms: C_27  and  C_29
                            x       y       z     vdW  Elec       q    Type
                         _______ _______ _______ _____ _____    ______ ____

>  <TORSDO>
F 8

$$$$
=
 OpenBabel11042413103D

 32 36  0  0  1  0  0  0  0  0999 V2000
  180.1320  179.8290  139.5220 N   0  0  0  0  0  0  0  0  0  0  0  0
  182.5940  177.9130  141.0770 C   0  0  0  0  0  3  0  0  0  0  0  0
  184.4840  178.8580  139.7540 C   0  0  0  0  0  0  0  0  0  0  0  0
  181.6560  177.9440  139.9200 C   0  0  0  0  0  2  0  0  0  0  0  0
  182.1420  181.4460  138.5500 C   0  0  0  0  0  3  0  0  0  0  0  0
  181.4060  179.3530  139.4980 C   0  0  0  0  0  0  0  0  0  0  0  0
  183.8630  178.3160  141.0000 C   0  0  0  0  0  0  0  0  0  0  0  0
  182.4520  180.1680  139.0220 C   0  0  0  0  0  0  0  0  0  0  0  0
  179.8260  181.0800  139.0880 C   0  0  0  0  0  3  0  0  0  0  0  0
  180.8280  181.9120  138.5880 C   0  0  0  0  0  3  0  0  0  0  0  0
  183.8560  179.7190  138.9400 C   0  0  0  0  0  3  0  0  0  0  0  0
  185.3420  178.1670  143.1880 C   0  0  0  0  0  0  0  0  0  0  0  0
  184.6570  178.2320  142.1980 C   0  0  0  0  0  0  0  0  0  0  0  0
  188.8610  177.7310  148.2110 C   0  0  0  0  0  3  0  0  0  0  0  0
  187.9750  177.5950  145.5720 C   0  0  0  0  0  0  0  0  0  0  0  0
  185.6980  178.5820  145.8980 S   0  0  0  0  0  0  0  0  0  0  0  0
  189.6960  177.2020  147.2090 C   0  0  0  0  0  3  0  0  0  0  0  0
  187.1630  178.1150  146.5680 C   0  0  0  0  0  0  0  0  0  0  0  0
  186.1780  178.0920  144.3500 C   0  0  0  0  0  0  0  0  0  0  0  0
  187.4310  177.5770  144.3300 N   0  0  0  0  0  0  0  0  0  0  0  0
  189.2550  177.1290  145.8760 C   0  0  0  0  0  3  0  0  0  0  0  0
  187.5750  178.1970  147.8940 C   0  0  0  0  0  3  0  0  0  0  0  0
  185.8580  178.5830  139.4550 N   0  0  0  0  0  2  0  0  0  0  0  0
  186.3120  178.0690  138.1730 C   0  0  0  0  0  2  0  0  0  0  0  0
  188.3730  177.3500  139.2170 C   0  0  2  0  0  3  0  0  0  0  0  0
  188.3450  176.7680  137.8680 N   0  0  0  0  0  2  0  0  0  0  0  0
  187.8240  178.1210  138.1090 C   0  0  1  0  0  3  0  0  0  0  0  0
  189.7780  177.8290  139.5250 C   0  0  0  0  0  2  0  0  0  0  0  0
  190.5510  176.7570  140.2770 C   0  0  0  0  0  2  0  0  0  0  0  0
  190.1080  177.9560  142.2910 O   0  0  0  0  0  0  0  0  0  0  0  0
  190.1700  175.6730  142.4920 O   0  0  0  0  0  1  0  0  0  0  0  0
  190.2750  176.8360  141.7410 C   0  0  0  0  0  0  0  0  0  0  0  0
  3  7  1  0  0  0  0
  4  2  1  0  0  0  0
  5 10  2  0  0  0  0
  5  8  1  0  0  0  0
  6  1  1  0  0  0  0
  6  4  1  0  0  0  0
  7  2  2  0  0  0  0
  7 13  1  0  0  0  0
  8  6  2  0  0  0  0
  9  1  2  0  0  0  0
 10  9  1  0  0  0  0
 11  8  1  0  0  0  0
 11  3  2  0  0  0  0
 12 19  1  0  0  0  0
 13 12  3  0  0  0  0
 15 21  2  0  0  0  0
 15 18  1  0  0  0  0
 16 18  1  0  0  0  0
 17 14  2  0  0  0  0
 18 22  2  0  0  0  0
 19 16  1  0  0  0  0
 20 19  2  0  0  0  0
 20 15  1  0  0  0  0
 21 17  1  0  0  0  0
 22 14  1  0  0  0  0
 23  3  1  0  0  0  0
 24 23  1  0  0  0  0
 25 28  1  6  0  0  0
 26 27  1  0  0  0  0
 26 25  1  0  0  0  0
 27 24  1  1  0  0  0
 27 25  1  0  0  0  0
 28 29  1  0  0  0  0
 29 32  1  0  0  0  0
 32 30  2  0  0  0  0
 32 31  1  0  0  0  0
M  END
>  <MODEL>
3

>  <REMARK>
 VINA RESULT:      -8.5      3.216      6.159
  Name = 
  8 active torsions:
  status: ('A' for Active; 'I' for Inactive)
    1  A    between atoms: C_7  and  C_19
    2  A    between atoms: C_7  and  C_23
    3  A    between atoms: C_8  and  C_21
    4  A    between atoms: C_9  and  N_17
    5  A    between atoms: C_13  and  C_18
    6  A    between atoms: N_17  and  C_27
    7  A    between atoms: C_23  and  C_30
    8  A    between atoms: C_27  and  C_29
                            x       y       z     vdW  Elec       q    Type
                         _______ _______ _______ _____ _____    ______ ____

>  <TORSDO>
F 8

$$$$
=
 OpenBabel11042413103D

 32 36  0  0  1  0  0  0  0  0999 V2000
  186.6090  176.3660  134.9570 N   0  0  0  0  0  0  0  0  0  0  0  0
  187.9710  178.0630  137.6810 C   0  0  0  0  0  3  0  0  0  0  0  0
  185.7790  178.5380  138.7700 C   0  0  0  0  0  0  0  0  0  0  0  0
  187.4260  178.2490  136.3070 C   0  0  0  0  0  2  0  0  0  0  0  0
  184.2570  176.1690  136.3810 C   0  0  0  0  0  3  0  0  0  0  0  0
  186.4060  177.2020  136.0120 C   0  0  0  0  0  0  0  0  0  0  0  0
  187.2340  178.1990  138.7850 C   0  0  0  0  0  0  0  0  0  0  0  0
  185.2190  177.1060  136.7640 C   0  0  0  0  0  0  0  0  0  0  0  0
  185.6900  175.4340  134.5940 C   0  0  0  0  0  3  0  0  0  0  0  0
  184.4910  175.3220  135.2980 C   0  0  0  0  0  3  0  0  0  0  0  0
  184.9110  177.9910  137.9060 C   0  0  0  0  0  3  0  0  0  0  0  0
  188.4380  177.7890  141.1030 C   0  0  0  0  0  0  0  0  0  0  0  0
  187.8900  177.9890  140.0480 C   0  0  0  0  0  0  0  0  0  0  0  0
  191.2530  176.7880  146.4770 C   0  0  0  0  0  3  0  0  0  0  0  0
  189.3010  177.3470  144.5680 C   0  0  0  0  0  0  0  0  0  0  0  0
  190.7210  177.1340  142.5180 S   0  0  0  0  0  0  0  0  0  0  0  0
  189.9320  177.0730  146.8750 C   0  0  0  0  0  3  0  0  0  0  0  0
  190.6040  177.0650  144.1890 C   0  0  0  0  0  0  0  0  0  0  0  0
  189.0820  177.5260  142.3560 C   0  0  0  0  0  0  0  0  0  0  0  0
  188.4450  177.6080  143.5490 N   0  0  0  0  0  0  0  0  0  0  0  0
  188.9440  177.3570  145.9170 C   0  0  0  0  0  3  0  0  0  0  0  0
  191.6020  176.7820  145.1170 C   0  0  0  0  0  3  0  0  0  0  0  0
  185.2210  179.3680  139.7950 N   0  0  0  0  0  2  0  0  0  0  0  0
  183.8550  179.2400  140.2760 C   0  0  0  0  0  2  0  0  0  0  0  0
  183.8930  179.1250  142.6920 C   0  0  2  0  0  3  0  0  0  0  0  0
  182.5990  178.5830  142.2530 N   0  0  0  0  0  2  0  0  0  0  0  0
  183.8210  178.3220  141.4790 C   0  0  1  0  0  3  0  0  0  0  0  0
  184.4260  178.2810  143.8330 C   0  0  0  0  0  2  0  0  0  0  0  0
  184.1050  178.9310  145.1690 C   0  0  0  0  0  2  0  0  0  0  0  0
  185.5920  177.5570  146.4300 O   0  0  0  0  0  0  0  0  0  0  0  0
  185.8640  179.8170  146.7010 O   0  0  0  0  0  1  0  0  0  0  0  0
  185.2180  178.7240  146.1390 C   0  0  0  0  0  0  0  0  0  0  0  0
  1  6  1  0  0  0  0
  2  7  2  0  0  0  0
  3  7  1  0  0  0  0
  3 23  1  0  0  0  0
  4  2  1  0  0  0  0
  5  8  1  0  0  0  0
  6  4  1  0  0  0  0
  6  8  2  0  0  0  0
  7 13  1  0  0  0  0
  8 11  1  0  0  0  0
  9  1  2  0  0  0  0
  9 10  1  0  0  0  0
 10  5  2  0  0  0  0
 11  3  2  0  0  0  0
 12 19  1  0  0  0  0
 13 12  3  0  0  0  0
 14 17  1  0  0  0  0
 15 21  1  0  0  0  0
 16 18  1  0  0  0  0
 18 15  2  0  0  0  0
 18 22  1  0  0  0  0
 19 16  1  0  0  0  0
 19 20  2  0  0  0  0
 20 15  1  0  0  0  0
 21 17  2  0  0  0  0
 22 14  2  0  0  0  0
 23 24  1  0  0  0  0
 25 28  1  1  0  0  0
 26 25  1  0  0  0  0
 27 24  1  6  0  0  0
 27 26  1  0  0  0  0
 27 25  1  0  0  0  0
 28 29  1  0  0  0  0
 29 32  1  0  0  0  0
 32 30  2  0  0  0  0
 32 31  1  0  0  0  0
M  END
>  <MODEL>
4

>  <REMARK>
 VINA RESULT:      -7.8      1.492      1.848
  Name = 
  8 active torsions:
  status: ('A' for Active; 'I' for Inactive)
    1  A    between atoms: C_7  and  C_19
    2  A    between atoms: C_7  and  C_23
    3  A    between atoms: C_8  and  C_21
    4  A    between atoms: C_9  and  N_17
    5  A    between atoms: C_13  and  C_18
    6  A    between atoms: N_17  and  C_27
    7  A    between atoms: C_23  and  C_30
    8  A    between atoms: C_27  and  C_29
                            x       y       z     vdW  Elec       q    Type
                         _______ _______ _______ _____ _____    ______ ____

>  <TORSDO>
F 8

$$$$
=
 OpenBabel11042413103D

 32 36  0  0  1  0  0  0  0  0999 V2000
  184.1590  178.7010  146.1360 N   0  0  0  0  0  0  0  0  0  0  0  0
  182.8990  178.6960  142.8870 C   0  0  0  0  0  3  0  0  0  0  0  0
  185.1280  178.8390  141.7790 C   0  0  0  0  0  0  0  0  0  0  0  0
  183.3040  179.5860  144.0100 C   0  0  0  0  0  2  0  0  0  0  0  0
  186.6340  178.1180  145.0730 C   0  0  0  0  0  3  0  0  0  0  0  0
  184.3800  178.9400  144.8150 C   0  0  0  0  0  0  0  0  0  0  0  0
  183.7140  178.3670  141.8830 C   0  0  0  0  0  0  0  0  0  0  0  0
  185.6320  178.6330  144.2470 C   0  0  0  0  0  0  0  0  0  0  0  0
  185.1200  178.1770  146.9410 C   0  0  0  0  0  3  0  0  0  0  0  0
  186.3810  177.8800  146.4240 C   0  0  0  0  0  3  0  0  0  0  0  0
  185.9620  178.8840  142.8290 C   0  0  0  0  0  3  0  0  0  0  0  0
  182.7440  176.7530  140.0270 C   0  0  0  0  0  0  0  0  0  0  0  0
  183.1910  177.4970  140.8640 C   0  0  0  0  0  0  0  0  0  0  0  0
  180.4060  172.9910  135.7620 C   0  0  0  0  0  3  0  0  0  0  0  0
  182.2010  174.4570  137.3110 C   0  0  0  0  0  0  0  0  0  0  0  0
  180.5590  175.5020  138.8850 S   0  0  0  0  0  0  0  0  0  0  0  0
  181.7850  172.9470  135.4820 C   0  0  0  0  0  3  0  0  0  0  0  0
  180.8400  174.4910  137.5760 C   0  0  0  0  0  0  0  0  0  0  0  0
  182.2070  175.8510  139.0510 C   0  0  0  0  0  0  0  0  0  0  0  0
  182.9710  175.2160  138.1300 N   0  0  0  0  0  0  0  0  0  0  0  0
  182.6960  173.6850  136.2590 C   0  0  0  0  0  3  0  0  0  0  0  0
  179.9190  173.7720  136.8220 C   0  0  0  0  0  3  0  0  0  0  0  0
  185.6990  179.1280  140.4980 N   0  0  0  0  0  2  0  0  0  0  0  0
  186.6700  178.2680  139.8400 C   0  0  0  0  0  2  0  0  0  0  0  0
  188.9510  177.4940  140.0680 C   0  0  2  0  0  3  0  0  0  0  0  0
  188.9710  178.6350  139.1430 N   0  0  0  0  0  2  0  0  0  0  0  0
  188.0660  178.6280  140.3000 C   0  0  1  0  0  3  0  0  0  0  0  0
  190.1480  177.5820  140.9950 C   0  0  0  0  0  2  0  0  0  0  0  0
  189.7010  177.5320  142.4470 C   0  0  0  0  0  2  0  0  0  0  0  0
  190.1930  175.2310  142.8360 O   0  0  0  0  0  0  0  0  0  0  0  0
  188.0230  175.8580  143.2280 O   0  0  0  0  0  1  0  0  0  0  0  0
  189.3240  176.1430  142.8360 C   0  0  0  0  0  0  0  0  0  0  0  0
  1  9  1  0  0  0  0
  2  4  1  0  0  0  0
  3  7  1  0  0  0  0
  3 11  2  0  0  0  0
  4  6  1  0  0  0  0
  5 10  1  0  0  0  0
  6  1  2  0  0  0  0
  7  2  2  0  0  0  0
  8  6  1  0  0  0  0
  8  5  2  0  0  0  0
 10  9  2  0  0  0  0
 11  8  1  0  0  0  0
 12 13  3  0  0  0  0
 13  7  1  0  0  0  0
 14 22  1  0  0  0  0
 15 18  1  0  0  0  0
 15 20  1  0  0  0  0
 16 19  1  0  0  0  0
 17 14  2  0  0  0  0
 17 21  1  0  0  0  0
 18 16  1  0  0  0  0
 19 12  1  0  0  0  0
 20 19  2  0  0  0  0
 21 15  2  0  0  0  0
 22 18  2  0  0  0  0
 23  3  1  0  0  0  0
 24 23  1  0  0  0  0
 25 27  1  0  0  0  0
 25 28  1  1  0  0  0
 26 25  1  0  0  0  0
 26 27  1  0  0  0  0
 27 24  1  6  0  0  0
 28 29  1  0  0  0  0
 29 32  1  0  0  0  0
 30 32  2  0  0  0  0
 32 31  1  0  0  0  0
M  END
>  <MODEL>
5

>  <REMARK>
 VINA RESULT:      -7.7      4.100      9.264
  Name = 
  8 active torsions:
  status: ('A' for Active; 'I' for Inactive)
    1  A    between atoms: C_7  and  C_19
    2  A    between atoms: C_7  and  C_23
    3  A    between atoms: C_8  and  C_21
    4  A    between atoms: C_9  and  N_17
    5  A    between atoms: C_13  and  C_18
    6  A    between atoms: N_17  and  C_27
    7  A    between atoms: C_23  and  C_30
    8  A    between atoms: C_27  and  C_29
                            x       y       z     vdW  Elec       q    Type
                         _______ _______ _______ _____ _____    ______ ____

>  <TORSDO>
F 8

$$$$
=
 OpenBabel11042413103D

 32 36  0  0  1  0  0  0  0  0999 V2000
  191.6810  177.1410  146.1680 N   0  0  0  0  0  0  0  0  0  0  0  0
  189.7510  178.8710  143.8370 C   0  0  0  0  0  3  0  0  0  0  0  0
  190.4570  177.4870  141.8870 C   0  0  0  0  0  0  0  0  0  0  0  0
  191.0980  178.8200  144.4710 C   0  0  0  0  0  2  0  0  0  0  0  0
  191.9530  175.1290  144.3040 C   0  0  0  0  0  3  0  0  0  0  0  0
  191.4290  177.4180  144.8600 C   0  0  0  0  0  0  0  0  0  0  0  0
  189.4660  178.2800  142.6760 C   0  0  0  0  0  0  0  0  0  0  0  0
  191.5450  176.4000  143.8930 C   0  0  0  0  0  0  0  0  0  0  0  0
  192.0530  175.9010  146.5800 C   0  0  0  0  0  3  0  0  0  0  0  0
  192.2010  174.8710  145.6520 C   0  0  0  0  0  3  0  0  0  0  0  0
  191.3150  176.6230  142.4510 C   0  0  0  0  0  3  0  0  0  0  0  0
  186.9890  178.5320  141.7840 C   0  0  0  0  0  0  0  0  0  0  0  0
  188.1220  178.4110  142.1790 C   0  0  0  0  0  0  0  0  0  0  0  0
  181.1720  179.3000  139.9470 C   0  0  0  0  0  3  0  0  0  0  0  0
  183.9580  179.2890  139.9990 C   0  0  0  0  0  0  0  0  0  0  0  0
  184.2790  178.2530  142.2550 S   0  0  0  0  0  0  0  0  0  0  0  0
  181.9040  179.8070  138.8560 C   0  0  0  0  0  3  0  0  0  0  0  0
  183.2260  178.7920  141.0660 C   0  0  0  0  0  0  0  0  0  0  0  0
  185.6350  178.6850  141.3380 C   0  0  0  0  0  0  0  0  0  0  0  0
  185.3060  179.2340  140.1450 N   0  0  0  0  0  0  0  0  0  0  0  0
  183.3100  179.8050  138.8770 C   0  0  0  0  0  3  0  0  0  0  0  0
  181.8350  178.7840  141.0710 C   0  0  0  0  0  3  0  0  0  0  0  0
  190.4260  177.5130  140.4560 N   0  0  0  0  0  2  0  0  0  0  0  0
  190.7370  176.3600  139.6260 C   0  0  0  0  0  2  0  0  0  0  0  0
  192.2140  175.5150  137.9060 C   0  0  2  0  0  3  0  0  0  0  0  0
  191.4760  176.6450  137.3260 N   0  0  0  0  0  2  0  0  0  0  0  0
  191.9140  176.6790  138.7280 C   0  0  1  0  0  3  0  0  0  0  0  0
  193.6580  175.5730  137.4460 C   0  0  0  0  0  2  0  0  0  0  0  0
  194.2990  174.1970  137.5340 C   0  0  0  0  0  2  0  0  0  0  0  0
  195.7100  173.0040  139.0410 O   0  0  0  0  0  0  0  0  0  0  0  0
  195.5140  175.2520  139.4400 O   0  0  0  0  0  1  0  0  0  0  0  0
  195.2040  174.1100  138.7160 C   0  0  0  0  0  0  0  0  0  0  0  0
  1  9  1  0  0  0  0
  2  4  1  0  0  0  0
  3 11  2  0  0  0  0
  3  7  1  0  0  0  0
  4  6  1  0  0  0  0
  5 10  1  0  0  0  0
  6  1  2  0  0  0  0
  7  2  2  0  0  0  0
  8  5  2  0  0  0  0
  8  6  1  0  0  0  0
 10  9  2  0  0  0  0
 11  8  1  0  0  0  0
 12 13  3  0  0  0  0
 13  7  1  0  0  0  0
 14 22  1  0  0  0  0
 15 20  1  0  0  0  0
 15 18  1  0  0  0  0
 17 21  1  0  0  0  0
 17 14  2  0  0  0  0
 18 22  2  0  0  0  0
 18 16  1  0  0  0  0
 19 12  1  0  0  0  0
 19 16  1  0  0  0  0
 20 19  2  0  0  0  0
 21 15  2  0  0  0  0
 23  3  1  0  0  0  0
 24 23  1  0  0  0  0
 25 28  1  6  0  0  0
 25 27  1  0  0  0  0
 26 25  1  0  0  0  0
 26 27  1  0  0  0  0
 27 24  1  1  0  0  0
 28 29  1  0  0  0  0
 29 32  1  0  0  0  0
 32 30  2  0  0  0  0
 32 31  1  0  0  0  0
M  END
>  <MODEL>
6

>  <REMARK>
 VINA RESULT:      -7.5      4.671      9.229
  Name = 
  8 active torsions:
  status: ('A' for Active; 'I' for Inactive)
    1  A    between atoms: C_7  and  C_19
    2  A    between atoms: C_7  and  C_23
    3  A    between atoms: C_8  and  C_21
    4  A    between atoms: C_9  and  N_17
    5  A    between atoms: C_13  and  C_18
    6  A    between atoms: N_17  and  C_27
    7  A    between atoms: C_23  and  C_30
    8  A    between atoms: C_27  and  C_29
                            x       y       z     vdW  Elec       q    Type
                         _______ _______ _______ _____ _____    ______ ____

>  <TORSDO>
F 8

$$$$
=
 OpenBabel11042413103D

 32 36  0  0  1  0  0  0  0  0999 V2000
  191.6820  177.2340  146.1270 N   0  0  0  0  0  0  0  0  0  0  0  0
  189.7410  178.8750  143.7420 C   0  0  0  0  0  3  0  0  0  0  0  0
  190.3570  177.3540  141.8640 C   0  0  0  0  0  0  0  0  0  0  0  0
  191.1020  178.8220  144.3450 C   0  0  0  0  0  2  0  0  0  0  0  0
  191.8490  175.1050  144.3840 C   0  0  0  0  0  3  0  0  0  0  0  0
  191.4040  177.4380  144.8100 C   0  0  0  0  0  0  0  0  0  0  0  0
  189.4090  178.2220  142.6260 C   0  0  0  0  0  0  0  0  0  0  0  0
  191.4660  176.3600  143.9050 C   0  0  0  0  0  0  0  0  0  0  0  0
  192.0300  176.0110  146.6050 C   0  0  0  0  0  3  0  0  0  0  0  0
  192.1250  174.9220  145.7390 C   0  0  0  0  0  3  0  0  0  0  0  0
  191.2050  176.5020  142.4590 C   0  0  0  0  0  3  0  0  0  0  0  0
  186.9280  178.5040  141.7560 C   0  0  0  0  0  0  0  0  0  0  0  0
  188.0570  178.3630  142.1560 C   0  0  0  0  0  0  0  0  0  0  0  0
  181.1770  179.4450  139.7930 C   0  0  0  0  0  3  0  0  0  0  0  0
  183.9610  179.3770  139.9170 C   0  0  0  0  0  0  0  0  0  0  0  0
  184.2010  178.2630  142.1470 S   0  0  0  0  0  0  0  0  0  0  0  0
  181.9480  179.9720  138.7390 C   0  0  0  0  0  3  0  0  0  0  0  0
  183.1910  178.8610  140.9490 C   0  0  0  0  0  0  0  0  0  0  0  0
  185.5890  178.6970  141.2800 C   0  0  0  0  0  0  0  0  0  0  0  0
  185.3030  179.2910  140.0970 N   0  0  0  0  0  0  0  0  0  0  0  0
  183.3520  179.9420  138.7960 C   0  0  0  0  0  3  0  0  0  0  0  0
  181.8000  178.8800  140.9170 C   0  0  0  0  0  3  0  0  0  0  0  0
  190.2890  177.2940  140.4350 N   0  0  0  0  0  2  0  0  0  0  0  0
  191.2590  176.5850  139.6160 C   0  0  0  0  0  2  0  0  0  0  0  0
  190.7220  176.8720  137.2740 C   0  0  2  0  0  3  0  0  0  0  0  0
  191.5660  175.6730  137.3810 N   0  0  0  0  0  2  0  0  0  0  0  0
  190.5660  175.9780  138.4140 C   0  0  1  0  0  3  0  0  0  0  0  0
  189.6170  176.6150  136.2690 C   0  0  0  0  0  2  0  0  0  0  0  0
  188.8870  177.9080  135.9410 C   0  0  0  0  0  2  0  0  0  0  0  0
  188.8940  179.7910  137.4050 O   0  0  0  0  0  0  0  0  0  0  0  0
  187.6390  178.0040  138.0990 O   0  0  0  0  0  1  0  0  0  0  0  0
  188.4860  178.6200  137.1890 C   0  0  0  0  0  0  0  0  0  0  0  0
  1  9  1  0  0  0  0
  2  4  1  0  0  0  0
  3 11  2  0  0  0  0
  3  7  1  0  0  0  0
  4  6  1  0  0  0  0
  5 10  1  0  0  0  0
  6  1  2  0  0  0  0
  7  2  2  0  0  0  0
  8  5  2  0  0  0  0
  8  6  1  0  0  0  0
 10  9  2  0  0  0  0
 11  8  1  0  0  0  0
 12 13  3  0  0  0  0
 13  7  1  0  0  0  0
 14 22  1  0  0  0  0
 15 20  1  0  0  0  0
 15 18  1  0  0  0  0
 17 21  1  0  0  0  0
 17 14  2  0  0  0  0
 18 16  1  0  0  0  0
 19 12  1  0  0  0  0
 19 16  1  0  0  0  0
 20 19  2  0  0  0  0
 21 15  2  0  0  0  0
 22 18  2  0  0  0  0
 23  3  1  0  0  0  0
 24 23  1  0  0  0  0
 25 28  1  6  0  0  0
 25 26  1  0  0  0  0
 25 27  1  0  0  0  0
 26 27  1  0  0  0  0
 27 24  1  1  0  0  0
 29 28  1  0  0  0  0
 29 32  1  0  0  0  0
 32 30  2  0  0  0  0
 32 31  1  0  0  0  0
M  END
>  <MODEL>
7

>  <REMARK>
 VINA RESULT:      -7.4      3.366      8.468
  Name = 
  8 active torsions:
  status: ('A' for Active; 'I' for Inactive)
    1  A    between atoms: C_7  and  C_19
    2  A    between atoms: C_7  and  C_23
    3  A    between atoms: C_8  and  C_21
    4  A    between atoms: C_9  and  N_17
    5  A    between atoms: C_13  and  C_18
    6  A    between atoms: N_17  and  C_27
    7  A    between atoms: C_23  and  C_30
    8  A    between atoms: C_27  and  C_29
                            x       y       z     vdW  Elec       q    Type
                         _______ _______ _______ _____ _____    ______ ____

>  <TORSDO>
F 8

$$$$
=
 OpenBabel11042413103D

 32 36  0  0  1  0  0  0  0  0999 V2000
  180.5680  177.9740  137.9340 N   0  0  0  0  0  0  0  0  0  0  0  0
  183.4170  179.3460  139.4020 C   0  0  0  0  0  3  0  0  0  0  0  0
  182.6550  178.9900  141.7490 C   0  0  0  0  0  0  0  0  0  0  0  0
  182.0470  179.6730  138.9160 C   0  0  0  0  0  2  0  0  0  0  0  0
  179.9550  176.8720  140.3850 C   0  0  0  0  0  3  0  0  0  0  0  0
  181.1570  178.4840  139.0510 C   0  0  0  0  0  0  0  0  0  0  0  0
  183.6900  179.0470  140.6740 C   0  0  0  0  0  0  0  0  0  0  0  0
  180.8720  177.9240  140.3120 C   0  0  0  0  0  0  0  0  0  0  0  0
  179.6950  176.9350  137.9950 C   0  0  0  0  0  3  0  0  0  0  0  0
  179.3680  176.3670  139.2250 C   0  0  0  0  0  3  0  0  0  0  0  0
  181.4480  178.4330  141.5720 C   0  0  0  0  0  3  0  0  0  0  0  0
  186.1990  178.4960  141.3020 C   0  0  0  0  0  0  0  0  0  0  0  0
  185.0590  178.7510  141.0030 C   0  0  0  0  0  0  0  0  0  0  0  0
  192.0180  177.3100  142.8960 C   0  0  0  0  0  3  0  0  0  0  0  0
  189.3080  177.9490  143.0280 C   0  0  0  0  0  0  0  0  0  0  0  0
  188.7690  177.7690  140.5900 S   0  0  0  0  0  0  0  0  0  0  0  0
  191.4180  177.6040  144.1350 C   0  0  0  0  0  3  0  0  0  0  0  0
  189.9110  177.6570  141.8140 C   0  0  0  0  0  0  0  0  0  0  0  0
  187.5470  178.1900  141.6830 C   0  0  0  0  0  0  0  0  0  0  0  0
  187.9880  178.2500  142.9620 N   0  0  0  0  0  0  0  0  0  0  0  0
  190.0520  177.9290  144.2080 C   0  0  0  0  0  3  0  0  0  0  0  0
  191.2600  177.3340  141.7140 C   0  0  0  0  0  3  0  0  0  0  0  0
  182.9760  179.4070  143.0810 N   0  0  0  0  0  2  0  0  0  0  0  0
  182.9380  178.5170  144.2310 C   0  0  0  0  0  2  0  0  0  0  0  0
  185.1770  178.2690  145.1140 C   0  0  2  0  0  3  0  0  0  0  0  0
  185.0600  179.6450  144.6110 N   0  0  0  0  0  2  0  0  0  0  0  0
  183.9240  178.9940  145.2770 C   0  0  1  0  0  3  0  0  0  0  0  0
  185.9470  178.2800  146.4200 C   0  0  0  0  0  2  0  0  0  0  0  0
  187.2030  177.4320  146.3030 C   0  0  0  0  0  2  0  0  0  0  0  0
  189.1400  176.9460  147.6080 O   0  0  0  0  0  0  0  0  0  0  0  0
  187.7400  178.5430  148.4710 O   0  0  0  0  0  1  0  0  0  0  0  0
  188.0780  177.6140  147.4960 C   0  0  0  0  0  0  0  0  0  0  0  0
  1  9  2  0  0  0  0
  1  6  1  0  0  0  0
  2  7  2  0  0  0  0
  3 23  1  0  0  0  0
  4  6  1  0  0  0  0
  4  2  1  0  0  0  0
  6  8  2  0  0  0  0
  7 13  1  0  0  0  0
  7  3  1  0  0  0  0
  8  5  1  0  0  0  0
  8 11  1  0  0  0  0
  9 10  1  0  0  0  0
 10  5  2  0  0  0  0
 11  3  2  0  0  0  0
 12 19  1  0  0  0  0
 13 12  3  0  0  0  0
 14 17  1  0  0  0  0
 15 21  1  0  0  0  0
 16 19  1  0  0  0  0
 16 18  1  0  0  0  0
 17 21  2  0  0  0  0
 18 15  2  0  0  0  0
 19 20  2  0  0  0  0
 20 15  1  0  0  0  0
 22 18  1  0  0  0  0
 22 14  2  0  0  0  0
 23 24  1  0  0  0  0
 25 27  1  0  0  0  0
 25 28  1  1  0  0  0
 26 25  1  0  0  0  0
 26 27  1  0  0  0  0
 27 24  1  6  0  0  0
 29 28  1  0  0  0  0
 29 32  1  0  0  0  0
 32 30  2  0  0  0  0
 32 31  1  0  0  0  0
M  END
>  <MODEL>
8

>  <REMARK>
 VINA RESULT:      -7.4      3.877      5.592
  Name = 
  8 active torsions:
  status: ('A' for Active; 'I' for Inactive)
    1  A    between atoms: C_7  and  C_19
    2  A    between atoms: C_7  and  C_23
    3  A    between atoms: C_8  and  C_21
    4  A    between atoms: C_9  and  N_17
    5  A    between atoms: C_13  and  C_18
    6  A    between atoms: N_17  and  C_27
    7  A    between atoms: C_23  and  C_30
    8  A    between atoms: C_27  and  C_29
                            x       y       z     vdW  Elec       q    Type
                         _______ _______ _______ _____ _____    ______ ____

>  <TORSDO>
F 8

$$$$
=
 OpenBabel11042413103D

 32 36  0  0  1  0  0  0  0  0999 V2000
  179.4980  181.2220  139.7980 N   0  0  0  0  0  0  0  0  0  0  0  0
  181.5110  178.8200  141.3240 C   0  0  0  0  0  3  0  0  0  0  0  0
  183.1270  178.6460  139.4340 C   0  0  0  0  0  0  0  0  0  0  0  0
  180.3410  179.0000  140.4200 C   0  0  0  0  0  2  0  0  0  0  0  0
  181.5520  181.6690  138.0150 C   0  0  0  0  0  3  0  0  0  0  0  0
  180.4690  180.2780  139.6620 C   0  0  0  0  0  0  0  0  0  0  0  0
  182.7590  178.6550  140.8820 C   0  0  0  0  0  0  0  0  0  0  0  0
  181.5370  180.4930  138.7690 C   0  0  0  0  0  0  0  0  0  0  0  0
  179.5190  182.3800  139.0860 C   0  0  0  0  0  3  0  0  0  0  0  0
  180.5470  182.6220  138.1750 C   0  0  0  0  0  3  0  0  0  0  0  0
  182.6160  179.5100  138.5450 C   0  0  0  0  0  3  0  0  0  0  0  0
  184.6480  178.3400  142.7050 C   0  0  0  0  0  0  0  0  0  0  0  0
  183.7940  178.4930  141.8680 C   0  0  0  0  0  0  0  0  0  0  0  0
  188.8790  177.3720  147.0610 C   0  0  0  0  0  3  0  0  0  0  0  0
  187.6210  177.5750  144.5820 C   0  0  0  0  0  0  0  0  0  0  0  0
  185.3830  178.3720  145.3700 S   0  0  0  0  0  0  0  0  0  0  0  0
  189.5760  177.0430  145.8820 C   0  0  0  0  0  3  0  0  0  0  0  0
  186.9460  177.8960  145.7490 C   0  0  0  0  0  0  0  0  0  0  0  0
  185.6480  178.1430  143.7140 C   0  0  0  0  0  0  0  0  0  0  0  0
  186.9010  177.7080  143.4400 N   0  0  0  0  0  0  0  0  0  0  0  0
  188.9470  177.1420  144.6290 C   0  0  0  0  0  3  0  0  0  0  0  0
  187.5450  177.8050  147.0020 C   0  0  0  0  0  3  0  0  0  0  0  0
  184.1730  177.7890  138.9610 N   0  0  0  0  0  2  0  0  0  0  0  0
  183.9590  176.7160  138.0030 C   0  0  0  0  0  2  0  0  0  0  0  0
  186.2380  176.8800  137.2050 C   0  0  2  0  0  3  0  0  0  0  0  0
  185.6300  175.7160  136.5460 N   0  0  0  0  0  2  0  0  0  0  0  0
  184.8420  176.9310  136.7910 C   0  0  1  0  0  3  0  0  0  0  0  0
  187.0950  177.6300  136.2040 C   0  0  0  0  0  2  0  0  0  0  0  0
  187.7280  178.8490  136.8560 C   0  0  0  0  0  2  0  0  0  0  0  0
  189.8440  177.8990  137.4140 O   0  0  0  0  0  0  0  0  0  0  0  0
  188.6140  178.6840  139.1820 O   0  0  0  0  0  1  0  0  0  0  0  0
  188.7840  178.4410  137.8270 C   0  0  0  0  0  0  0  0  0  0  0  0
  3  7  1  0  0  0  0
  4  2  1  0  0  0  0
  5 10  2  0  0  0  0
  5  8  1  0  0  0  0
  6  1  1  0  0  0  0
  6  4  1  0  0  0  0
  7  2  2  0  0  0  0
  7 13  1  0  0  0  0
  8  6  2  0  0  0  0
  9  1  2  0  0  0  0
 10  9  1  0  0  0  0
 11  8  1  0  0  0  0
 11  3  2  0  0  0  0
 12 19  1  0  0  0  0
 13 12  3  0  0  0  0
 15 21  2  0  0  0  0
 15 18  1  0  0  0  0
 16 18  1  0  0  0  0
 17 14  2  0  0  0  0
 18 22  2  0  0  0  0
 19 16  1  0  0  0  0
 20 19  2  0  0  0  0
 20 15  1  0  0  0  0
 21 17  1  0  0  0  0
 22 14  1  0  0  0  0
 23  3  1  0  0  0  0
 24 23  1  0  0  0  0
 25 28  1  6  0  0  0
 26 27  1  0  0  0  0
 26 25  1  0  0  0  0
 27 25  1  0  0  0  0
 27 24  1  1  0  0  0
 28 29  1  0  0  0  0
 29 32  1  0  0  0  0
 30 32  2  0  0  0  0
 32 31  1  0  0  0  0
M  END
>  <MODEL>
9

>  <REMARK>
 VINA RESULT:      -7.4      4.010      7.019
  Name = 
  8 active torsions:
  status: ('A' for Active; 'I' for Inactive)
    1  A    between atoms: C_7  and  C_19
    2  A    between atoms: C_7  and  C_23
    3  A    between atoms: C_8  and  C_21
    4  A    between atoms: C_9  and  N_17
    5  A    between atoms: C_13  and  C_18
    6  A    between atoms: N_17  and  C_27
    7  A    between atoms: C_23  and  C_30
    8  A    between atoms: C_27  and  C_29
                            x       y       z     vdW  Elec       q    Type
                         _______ _______ _______ _____ _____    ______ ____

>  <TORSDO>
F 8

$$$$
