=
 OpenBabel11032419283D

 36 38  0  0  1  0  0  0  0  0999 V2000
  186.6550  178.2960  141.3570 O   0  0  0  0  0  0  0  0  0  0  0  0
  186.0980  177.9880  143.6390 C   0  0  0  0  0  0  0  0  0  0  0  0
  185.7600  178.3470  142.2430 C   0  0  0  0  0  0  0  0  0  0  0  0
  183.3590  178.4720  142.9970 C   0  0  1  0  0  3  0  0  0  0  0  0
  184.3640  178.8210  141.8770 C   0  0  2  0  0  3  0  0  0  0  0  0
  183.9110  178.8790  144.3630 C   0  0  0  0  0  2  0  0  0  0  0  0
  185.2190  178.1990  144.6220 C   0  0  0  0  0  3  0  0  0  0  0  0
  183.0790  179.1740  139.9090 C   0  0  0  0  0  2  0  0  0  0  0  0
  184.4710  179.0430  139.5180 C   0  0  1  0  0  3  0  0  0  0  0  0
  183.9410  178.2090  140.6140 N   0  0  1  0  0  0  0  0  0  0  0  0
  184.5710  178.2000  138.2650 C   0  0  0  0  0  2  0  0  0  0  0  0
  186.0090  178.1640  137.7920 C   0  0  0  0  0  2  0  0  0  0  0  0
  186.1710  177.1010  136.8190 N   0  0  0  0  0  2  0  0  0  0  0  0
  187.4670  176.4920  137.0780 C   0  0  0  0  0  2  0  0  0  0  0  0
  188.5870  177.5190  136.9430 C   0  0  2  0  0  3  0  0  0  0  0  0
  188.9670  177.6370  135.6040 O   0  0  0  0  0  1  0  0  0  0  0  0
  189.7960  177.1480  137.7900 C   0  0  0  0  0  2  0  0  0  0  0  0
  189.0930  179.1010  138.9830 O   0  0  0  0  0  1  0  0  0  0  0  0
  189.7920  177.8990  139.1120 C   0  0  0  0  0  2  0  0  0  0  0  0
  182.0280  179.1720  142.7730 C   0  0  0  0  0  2  0  0  0  0  0  0
  181.1210  178.8890  143.8780 N   0  0  0  0  0  2  0  0  0  0  0  0
  179.7700  178.4320  143.7320 C   0  0  0  0  0  0  0  0  0  0  0  0
  179.0250  178.4240  144.7450 O   0  0  0  0  0  0  0  0  0  0  0  0
  179.2310  177.9930  142.4760 N   0  0  0  0  0  2  0  0  0  0  0  0
  180.0150  177.6510  141.3000 C   0  0  0  0  0  2  0  0  0  0  0  0
  179.5950  176.3590  140.7880 N   0  0  0  0  0  1  0  0  0  0  0  0
  187.4140  177.3590  143.9690 C   0  0  0  0  0  2  0  0  0  0  0  0
  189.3890  177.4930  147.2030 C   0  0  0  0  0  0  0  0  0  0  0  0
  188.4220  177.9670  148.0970 C   0  0  0  0  0  3  0  0  0  0  0  0
  189.0590  177.2880  145.8590 C   0  0  0  0  0  3  0  0  0  0  0  0
  186.8000  178.0510  146.3000 C   0  0  0  0  0  3  0  0  0  0  0  0
  187.1290  178.2480  147.6450 C   0  0  0  0  0  3  0  0  0  0  0  0
  187.7640  177.5710  145.4050 C   0  0  0  0  0  0  0  0  0  0  0  0
  190.7590  177.1730  147.6890 C   0  0  0  0  0  2  0  0  0  0  0  0
  191.6210  176.8600  146.5610 N   0  0  0  0  0  2  0  0  0  0  0  0
  192.2690  175.5990  146.8670 C   0  0  0  0  0  1  0  0  0  0  0  0
  1  3  2  0  0  0  0
  2 27  1  0  0  0  0
  2  7  2  0  0  0  0
  3  2  1  0  0  0  0
  4 20  1  6  0  0  0
  4  6  1  0  0  0  0
  5  3  1  1  0  0  0
  5  4  1  0  0  0  0
  6  7  1  0  0  0  0
  9 11  1  6  0  0  0
  9  8  1  0  0  0  0
  9 10  1  0  0  0  0
 10  8  1  1  0  0  0
 10  5  1  0  0  0  0
 12 11  1  0  0  0  0
 13 14  1  0  0  0  0
 13 12  1  0  0  0  0
 15 16  1  6  0  0  0
 15 14  1  0  0  0  0
 15 17  1  0  0  0  0
 17 19  1  0  0  0  0
 18 19  1  0  0  0  0
 20 21  1  0  0  0  0
 22 21  1  0  0  0  0
 22 23  2  0  0  0  0
 24 22  1  0  0  0  0
 25 24  1  0  0  0  0
 26 25  1  0  0  0  0
 27 33  1  0  0  0  0
 28 34  1  0  0  0  0
 28 29  1  0  0  0  0
 30 28  2  0  0  0  0
 31 32  1  0  0  0  0
 32 29  2  0  0  0  0
 33 30  1  0  0  0  0
 33 31  2  0  0  0  0
 35 36  1  0  0  0  0
 35 34  1  0  0  0  0
M  END
>  <MODEL>
1

>  <REMARK>
 VINA RESULT:      -8.1      0.000      0.000
  Name = 
  15 active torsions:
  status: ('A' for Active; 'I' for Inactive)
    1  A    between atoms: N_1  and  C_24
    2  A    between atoms: N_1  and  C_29
    3  A    between atoms: C_3  and  C_20
    4  A    between atoms: C_4  and  C_24
    5  A    between atoms: C_4  and  C_27
    6  A    between atoms: N_5  and  C_7
    7  A    between atoms: C_6  and  C_32
    8  A    between atoms: C_7  and  C_23
    9  A    between atoms: N_10  and  C_32
   10  A    between atoms: C_14  and  C_27
   11  A    between atoms: C_16  and  C_29
   12  A    between atoms: C_16  and  C_33
   13  A    between atoms: C_20  and  C_35
   14  A    between atoms: N_22  and  C_31
   15  A    between atoms: C_25  and  N_34
                            x       y       z     vdW  Elec       q    Type
                         _______ _______ _______ _____ _____    ______ ____

>  <TORSDO>
F 15

$$$$
=
 OpenBabel11032419283D

 36 38  0  0  1  0  0  0  0  0999 V2000
  187.5430  178.0450  140.4830 O   0  0  0  0  0  0  0  0  0  0  0  0
  185.8260  178.5570  142.0340 C   0  0  0  0  0  0  0  0  0  0  0  0
  187.1750  178.0530  141.6890 C   0  0  0  0  0  0  0  0  0  0  0  0
  187.6160  177.9260  144.1670 C   0  0  1  0  0  3  0  0  0  0  0  0
  188.0980  177.5010  142.7620 C   0  0  2  0  0  3  0  0  0  0  0  0
  186.1170  177.6730  144.3220 C   0  0  0  0  0  2  0  0  0  0  0  0
  185.3500  178.4160  143.2730 C   0  0  0  0  0  3  0  0  0  0  0  0
  190.3890  176.9990  143.1510 C   0  0  0  0  0  2  0  0  0  0  0  0
  190.1570  176.9570  141.7180 C   0  0  1  0  0  3  0  0  0  0  0  0
  189.4680  177.9720  142.5370 N   0  0  1  0  0  0  0  0  0  0  0  0
  191.3140  177.6120  140.9950 C   0  0  0  0  0  2  0  0  0  0  0  0
  191.3920  177.0840  139.5780 C   0  0  0  0  0  2  0  0  0  0  0  0
  190.4060  176.0350  139.3990 N   0  0  0  0  0  2  0  0  0  0  0  0
  190.1690  175.9250  137.9680 C   0  0  0  0  0  2  0  0  0  0  0  0
  188.7850  176.4520  137.6030 C   0  0  2  0  0  3  0  0  0  0  0  0
  187.9450  175.3900  137.2620 O   0  0  0  0  0  1  0  0  0  0  0  0
  188.8470  177.4490  136.4540 C   0  0  0  0  0  2  0  0  0  0  0  0
  189.0100  179.3820  137.8580 O   0  0  0  0  0  1  0  0  0  0  0  0
  188.2440  178.7860  136.8540 C   0  0  0  0  0  2  0  0  0  0  0  0
  188.3610  177.1650  145.2530 C   0  0  0  0  0  2  0  0  0  0  0  0
  188.0420  177.7210  146.5610 N   0  0  0  0  0  2  0  0  0  0  0  0
  188.8460  177.5610  147.7370 C   0  0  0  0  0  0  0  0  0  0  0  0
  188.3640  177.9050  148.8460 O   0  0  0  0  0  0  0  0  0  0  0  0
  190.1740  177.0160  147.7010 N   0  0  0  0  0  2  0  0  0  0  0  0
  190.9830  176.8580  146.5030 C   0  0  0  0  0  2  0  0  0  0  0  0
  192.2370  176.2080  146.8400 N   0  0  0  0  0  1  0  0  0  0  0  0
  184.9890  179.2570  141.0120 C   0  0  0  0  0  2  0  0  0  0  0  0
  181.3170  178.3150  141.1370 C   0  0  0  0  0  0  0  0  0  0  0  0
  181.3020  177.1610  140.3440 C   0  0  0  0  0  3  0  0  0  0  0  0
  182.5210  178.9940  141.3610 C   0  0  0  0  0  3  0  0  0  0  0  0
  183.6870  177.3770  139.9820 C   0  0  0  0  0  3  0  0  0  0  0  0
  182.4870  176.6940  139.7650 C   0  0  0  0  0  3  0  0  0  0  0  0
  183.7070  178.5280  140.7800 C   0  0  0  0  0  0  0  0  0  0  0  0
  180.0610  178.7990  141.7710 C   0  0  0  0  0  2  0  0  0  0  0  0
  179.6000  177.8320  142.7530 N   0  0  0  0  0  2  0  0  0  0  0  0
  179.9070  178.3830  144.0590 C   0  0  0  0  0  1  0  0  0  0  0  0
  1  3  2  0  0  0  0
  2  7  2  0  0  0  0
  3  2  1  0  0  0  0
  4  6  1  0  0  0  0
  4 20  1  1  0  0  0
  5  3  1  6  0  0  0
  5  4  1  0  0  0  0
  7  6  1  0  0  0  0
  9 11  1  6  0  0  0
  9 10  1  0  0  0  0
  9  8  1  0  0  0  0
 10  5  1  0  0  0  0
 10  8  1  1  0  0  0
 12 11  1  0  0  0  0
 13 12  1  0  0  0  0
 14 13  1  0  0  0  0
 15 16  1  6  0  0  0
 15 14  1  0  0  0  0
 17 19  1  0  0  0  0
 17 15  1  0  0  0  0
 19 18  1  0  0  0  0
 20 21  1  0  0  0  0
 21 22  1  0  0  0  0
 22 23  2  0  0  0  0
 24 22  1  0  0  0  0
 25 26  1  0  0  0  0
 25 24  1  0  0  0  0
 27  2  1  0  0  0  0
 28 30  1  0  0  0  0
 28 34  1  0  0  0  0
 29 28  2  0  0  0  0
 31 33  1  0  0  0  0
 32 31  2  0  0  0  0
 32 29  1  0  0  0  0
 33 27  1  0  0  0  0
 33 30  2  0  0  0  0
 34 35  1  0  0  0  0
 35 36  1  0  0  0  0
M  END
>  <MODEL>
2

>  <REMARK>
 VINA RESULT:      -8.1      2.443      7.630
  Name = 
  15 active torsions:
  status: ('A' for Active; 'I' for Inactive)
    1  A    between atoms: N_1  and  C_24
    2  A    between atoms: N_1  and  C_29
    3  A    between atoms: C_3  and  C_20
    4  A    between atoms: C_4  and  C_24
    5  A    between atoms: C_4  and  C_27
    6  A    between atoms: N_5  and  C_7
    7  A    between atoms: C_6  and  C_32
    8  A    between atoms: C_7  and  C_23
    9  A    between atoms: N_10  and  C_32
   10  A    between atoms: C_14  and  C_27
   11  A    between atoms: C_16  and  C_29
   12  A    between atoms: C_16  and  C_33
   13  A    between atoms: C_20  and  C_35
   14  A    between atoms: N_22  and  C_31
   15  A    between atoms: C_25  and  N_34
                            x       y       z     vdW  Elec       q    Type
                         _______ _______ _______ _____ _____    ______ ____

>  <TORSDO>
F 15

$$$$
=
 OpenBabel11032419283D

 36 38  0  0  1  0  0  0  0  0999 V2000
  187.3610  177.8770  140.7450 O   0  0  0  0  0  0  0  0  0  0  0  0
  185.7560  178.5860  142.3370 C   0  0  0  0  0  0  0  0  0  0  0  0
  187.0420  177.9560  141.9620 C   0  0  0  0  0  0  0  0  0  0  0  0
  187.5670  177.8740  144.4250 C   0  0  1  0  0  3  0  0  0  0  0  0
  187.9570  177.3630  143.0200 C   0  0  2  0  0  3  0  0  0  0  0  0
  186.0600  177.7560  144.6430 C   0  0  0  0  0  2  0  0  0  0  0  0
  185.3170  178.5270  143.5960 C   0  0  0  0  0  3  0  0  0  0  0  0
  190.2010  176.6000  143.2050 C   0  0  0  0  0  2  0  0  0  0  0  0
  189.8730  176.6920  141.7940 C   0  0  1  0  0  3  0  0  0  0  0  0
  189.3510  177.7070  142.7290 N   0  0  1  0  0  0  0  0  0  0  0  0
  191.0440  177.2780  141.0360 C   0  0  0  0  0  2  0  0  0  0  0  0
  190.8740  177.0110  139.5550 C   0  0  0  0  0  2  0  0  0  0  0  0
  189.9440  177.9710  138.9940 N   0  0  0  0  0  2  0  0  0  0  0  0
  189.5200  177.4400  137.7070 C   0  0  0  0  0  2  0  0  0  0  0  0
  189.0460  178.5590  136.7860 C   0  0  2  0  0  3  0  0  0  0  0  0
  189.0240  179.7710  137.4790 O   0  0  0  0  0  1  0  0  0  0  0  0
  187.6650  178.2700  136.2140 C   0  0  0  0  0  2  0  0  0  0  0  0
  186.0140  178.7210  137.8880 O   0  0  0  0  0  1  0  0  0  0  0  0
  186.7390  177.6970  137.2760 C   0  0  0  0  0  2  0  0  0  0  0  0
  188.2870  177.0880  145.5100 C   0  0  0  0  0  2  0  0  0  0  0  0
  188.0120  177.6720  146.8160 N   0  0  0  0  0  2  0  0  0  0  0  0
  188.9040  177.6260  147.9380 C   0  0  0  0  0  0  0  0  0  0  0  0
  188.4710  177.9790  149.0650 O   0  0  0  0  0  0  0  0  0  0  0  0
  190.2660  177.1860  147.8290 N   0  0  0  0  0  2  0  0  0  0  0  0
  191.0040  177.0410  146.5840 C   0  0  0  0  0  2  0  0  0  0  0  0
  192.1950  176.2430  146.8090 N   0  0  0  0  0  1  0  0  0  0  0  0
  184.9410  179.3210  141.3220 C   0  0  0  0  0  2  0  0  0  0  0  0
  182.5980  176.7580  139.7970 C   0  0  0  0  0  0  0  0  0  0  0  0
  181.3700  177.1480  140.3430 C   0  0  0  0  0  3  0  0  0  0  0  0
  183.7620  177.4700  140.1110 C   0  0  0  0  0  3  0  0  0  0  0  0
  182.4690  178.9490  141.5320 C   0  0  0  0  0  3  0  0  0  0  0  0
  181.3070  178.2420  141.2120 C   0  0  0  0  0  3  0  0  0  0  0  0
  183.6990  178.5650  140.9820 C   0  0  0  0  0  0  0  0  0  0  0  0
  182.6630  175.6070  138.8560 C   0  0  0  0  0  2  0  0  0  0  0  0
  183.6950  175.8420  137.8600 N   0  0  0  0  0  2  0  0  0  0  0  0
  183.0260  176.3460  136.6750 C   0  0  0  0  0  1  0  0  0  0  0  0
  1  3  2  0  0  0  0
  2  7  2  0  0  0  0
  3  2  1  0  0  0  0
  4  6  1  0  0  0  0
  4 20  1  1  0  0  0
  5  3  1  6  0  0  0
  5  4  1  0  0  0  0
  7  6  1  0  0  0  0
  9 11  1  6  0  0  0
  9 10  1  0  0  0  0
  9  8  1  0  0  0  0
 10  5  1  0  0  0  0
 10  8  1  1  0  0  0
 12 11  1  0  0  0  0
 13 12  1  0  0  0  0
 14 13  1  0  0  0  0
 15 16  1  1  0  0  0
 15 14  1  0  0  0  0
 17 15  1  0  0  0  0
 17 19  1  0  0  0  0
 19 18  1  0  0  0  0
 20 21  1  0  0  0  0
 21 22  1  0  0  0  0
 22 23  2  0  0  0  0
 24 22  1  0  0  0  0
 25 26  1  0  0  0  0
 25 24  1  0  0  0  0
 27  2  1  0  0  0  0
 28 30  2  0  0  0  0
 28 29  1  0  0  0  0
 29 32  2  0  0  0  0
 30 33  1  0  0  0  0
 32 31  1  0  0  0  0
 33 27  1  0  0  0  0
 33 31  2  0  0  0  0
 34 28  1  0  0  0  0
 35 34  1  0  0  0  0
 36 35  1  0  0  0  0
M  END
>  <MODEL>
3

>  <REMARK>
 VINA RESULT:      -8.0      2.869      7.582
  Name = 
  15 active torsions:
  status: ('A' for Active; 'I' for Inactive)
    1  A    between atoms: N_1  and  C_24
    2  A    between atoms: N_1  and  C_29
    3  A    between atoms: C_3  and  C_20
    4  A    between atoms: C_4  and  C_24
    5  A    between atoms: C_4  and  C_27
    6  A    between atoms: N_5  and  C_7
    7  A    between atoms: C_6  and  C_32
    8  A    between atoms: C_7  and  C_23
    9  A    between atoms: N_10  and  C_32
   10  A    between atoms: C_14  and  C_27
   11  A    between atoms: C_16  and  C_29
   12  A    between atoms: C_16  and  C_33
   13  A    between atoms: C_20  and  C_35
   14  A    between atoms: N_22  and  C_31
   15  A    between atoms: C_25  and  N_34
                            x       y       z     vdW  Elec       q    Type
                         _______ _______ _______ _____ _____    ______ ____

>  <TORSDO>
F 15

$$$$
=
 OpenBabel11032419283D

 36 38  0  0  1  0  0  0  0  0999 V2000
  185.6920  178.9010  141.4650 O   0  0  0  0  0  0  0  0  0  0  0  0
  185.1360  178.9620  143.7670 C   0  0  0  0  0  0  0  0  0  0  0  0
  186.0130  178.5750  142.6390 C   0  0  0  0  0  0  0  0  0  0  0  0
  187.6590  177.7710  144.3710 C   0  0  1  0  0  3  0  0  0  0  0  0
  187.2680  177.7510  142.8760 C   0  0  2  0  0  3  0  0  0  0  0  0
  186.4430  177.4820  145.2500 C   0  0  0  0  0  2  0  0  0  0  0  0
  185.3610  178.4840  144.9930 C   0  0  0  0  0  3  0  0  0  0  0  0
  189.2470  177.1360  141.7120 C   0  0  0  0  0  2  0  0  0  0  0  0
  188.2850  177.6210  140.7380 C   0  0  1  0  0  3  0  0  0  0  0  0
  188.3690  178.2690  142.0610 N   0  0  1  0  0  0  0  0  0  0  0  0
  188.9880  178.4920  139.7190 C   0  0  0  0  0  2  0  0  0  0  0  0
  189.5580  177.6240  138.6160 C   0  0  0  0  0  2  0  0  0  0  0  0
  188.4880  176.8650  137.9980 N   0  0  0  0  0  2  0  0  0  0  0  0
  188.3160  177.4010  136.6570 C   0  0  0  0  0  2  0  0  0  0  0  0
  187.0560  178.2560  136.5710 C   0  0  2  0  0  3  0  0  0  0  0  0
  187.3770  179.6010  136.7680 O   0  0  0  0  0  1  0  0  0  0  0  0
  186.0110  177.8230  137.5900 C   0  0  0  0  0  2  0  0  0  0  0  0
  185.0630  175.6750  137.1140 O   0  0  0  0  0  1  0  0  0  0  0  0
  184.8840  177.0470  136.9250 C   0  0  0  0  0  2  0  0  0  0  0  0
  188.7390  176.7420  144.6650 C   0  0  0  0  0  2  0  0  0  0  0  0
  189.1980  176.8790  146.0410 N   0  0  0  0  0  2  0  0  0  0  0  0
  190.5720  176.9400  146.4430 C   0  0  0  0  0  0  0  0  0  0  0  0
  190.8450  176.8470  147.6680 O   0  0  0  0  0  0  0  0  0  0  0  0
  191.6490  177.0940  145.5060 N   0  0  0  0  0  2  0  0  0  0  0  0
  191.5030  177.5160  144.1220 C   0  0  0  0  0  2  0  0  0  0  0  0
  191.5180  178.9660  144.0470 N   0  0  0  0  0  1  0  0  0  0  0  0
  184.0020  179.9150  143.5610 C   0  0  0  0  0  2  0  0  0  0  0  0
  181.3230  178.1120  141.5730 C   0  0  0  0  0  0  0  0  0  0  0  0
  180.3870  177.8210  142.5740 C   0  0  0  0  0  3  0  0  0  0  0  0
  182.4980  178.8010  141.8940 C   0  0  0  0  0  3  0  0  0  0  0  0
  181.8100  178.8890  144.2170 C   0  0  0  0  0  3  0  0  0  0  0  0
  180.6330  178.2080  143.8950 C   0  0  0  0  0  3  0  0  0  0  0  0
  182.7450  179.1870  143.2180 C   0  0  0  0  0  0  0  0  0  0  0  0
  181.0520  177.7190  140.1640 C   0  0  0  0  0  2  0  0  0  0  0  0
  182.2990  177.3720  139.5020 N   0  0  0  0  0  2  0  0  0  0  0  0
  182.3810  175.9230  139.4970 C   0  0  0  0  0  1  0  0  0  0  0  0
  1  3  2  0  0  0  0
  2  7  2  0  0  0  0
  3  2  1  0  0  0  0
  4 20  1  6  0  0  0
  4  6  1  0  0  0  0
  5  3  1  1  0  0  0
  5  4  1  0  0  0  0
  7  6  1  0  0  0  0
  9 11  1  6  0  0  0
  9  8  1  0  0  0  0
  9 10  1  0  0  0  0
 10  8  1  1  0  0  0
 10  5  1  0  0  0  0
 12 11  1  0  0  0  0
 13 12  1  0  0  0  0
 14 13  1  0  0  0  0
 15 14  1  0  0  0  0
 15 16  1  1  0  0  0
 15 17  1  0  0  0  0
 19 18  1  0  0  0  0
 19 17  1  0  0  0  0
 20 21  1  0  0  0  0
 21 22  1  0  0  0  0
 22 23  2  0  0  0  0
 24 22  1  0  0  0  0
 25 24  1  0  0  0  0
 26 25  1  0  0  0  0
 27  2  1  0  0  0  0
 28 30  2  0  0  0  0
 28 29  1  0  0  0  0
 29 32  2  0  0  0  0
 30 33  1  0  0  0  0
 32 31  1  0  0  0  0
 33 27  1  0  0  0  0
 33 31  2  0  0  0  0
 34 28  1  0  0  0  0
 35 34  1  0  0  0  0
 36 35  1  0  0  0  0
M  END
>  <MODEL>
4

>  <REMARK>
 VINA RESULT:      -7.9      2.376      7.379
  Name = 
  15 active torsions:
  status: ('A' for Active; 'I' for Inactive)
    1  A    between atoms: N_1  and  C_24
    2  A    between atoms: N_1  and  C_29
    3  A    between atoms: C_3  and  C_20
    4  A    between atoms: C_4  and  C_24
    5  A    between atoms: C_4  and  C_27
    6  A    between atoms: N_5  and  C_7
    7  A    between atoms: C_6  and  C_32
    8  A    between atoms: C_7  and  C_23
    9  A    between atoms: N_10  and  C_32
   10  A    between atoms: C_14  and  C_27
   11  A    between atoms: C_16  and  C_29
   12  A    between atoms: C_16  and  C_33
   13  A    between atoms: C_20  and  C_35
   14  A    between atoms: N_22  and  C_31
   15  A    between atoms: C_25  and  N_34
                            x       y       z     vdW  Elec       q    Type
                         _______ _______ _______ _____ _____    ______ ____

>  <TORSDO>
F 15

$$$$
=
 OpenBabel11032419283D

 36 38  0  0  1  0  0  0  0  0999 V2000
  185.5180  178.8920  141.5390 O   0  0  0  0  0  0  0  0  0  0  0  0
  185.0590  178.9660  143.8630 C   0  0  0  0  0  0  0  0  0  0  0  0
  185.8900  178.5760  142.7010 C   0  0  0  0  0  0  0  0  0  0  0  0
  187.6120  177.7930  144.3670 C   0  0  1  0  0  3  0  0  0  0  0  0
  187.1580  177.7600  142.8900 C   0  0  2  0  0  3  0  0  0  0  0  0
  186.4360  177.5030  145.2990 C   0  0  0  0  0  2  0  0  0  0  0  0
  185.3380  178.4980  145.0810 C   0  0  0  0  0  3  0  0  0  0  0  0
  189.0560  177.1390  141.6010 C   0  0  0  0  0  2  0  0  0  0  0  0
  188.0510  177.6650  140.6950 C   0  0  1  0  0  3  0  0  0  0  0  0
  188.2220  178.2780  142.0260 N   0  0  1  0  0  0  0  0  0  0  0  0
  188.7100  178.5480  139.6590 C   0  0  0  0  0  2  0  0  0  0  0  0
  188.2470  178.1410  138.2760 C   0  0  0  0  0  2  0  0  0  0  0  0
  189.3900  177.7280  137.4850 N   0  0  0  0  0  2  0  0  0  0  0  0
  189.4590  176.2780  137.5760 C   0  0  0  0  0  2  0  0  0  0  0  0
  190.9080  175.8060  137.6470 C   0  0  2  0  0  3  0  0  0  0  0  0
  190.9560  174.4710  138.0520 O   0  0  0  0  0  1  0  0  0  0  0  0
  191.7330  176.6620  138.5990 C   0  0  0  0  0  2  0  0  0  0  0  0
  193.9350  176.9380  139.4980 O   0  0  0  0  0  1  0  0  0  0  0  0
  193.2200  176.3940  138.4290 C   0  0  0  0  0  2  0  0  0  0  0  0
  188.7090  176.7710  144.6230 C   0  0  0  0  0  2  0  0  0  0  0  0
  189.1950  176.8920  145.9910 N   0  0  0  0  0  2  0  0  0  0  0  0
  190.5770  176.9590  146.3660 C   0  0  0  0  0  0  0  0  0  0  0  0
  190.8760  176.8500  147.5830 O   0  0  0  0  0  0  0  0  0  0  0  0
  191.6330  177.1360  145.4100 N   0  0  0  0  0  2  0  0  0  0  0  0
  191.4550  177.5780  144.0350 C   0  0  0  0  0  2  0  0  0  0  0  0
  191.4650  179.0290  143.9810 N   0  0  0  0  0  1  0  0  0  0  0  0
  183.9120  179.9110  143.6980 C   0  0  0  0  0  2  0  0  0  0  0  0
  181.2410  178.1880  141.6300 C   0  0  0  0  0  0  0  0  0  0  0  0
  180.3260  177.8120  142.6210 C   0  0  0  0  0  3  0  0  0  0  0  0
  182.4070  178.8790  141.9800 C   0  0  0  0  0  3  0  0  0  0  0  0
  181.7510  178.7980  144.3130 C   0  0  0  0  0  3  0  0  0  0  0  0
  180.5830  178.1150  143.9620 C   0  0  0  0  0  3  0  0  0  0  0  0
  182.6650  179.1810  143.3230 C   0  0  0  0  0  0  0  0  0  0  0  0
  180.9570  177.8840  140.2010 C   0  0  0  0  0  2  0  0  0  0  0  0
  181.9000  178.5920  139.3510 N   0  0  0  0  0  2  0  0  0  0  0  0
  181.1280  179.5370  138.5660 C   0  0  0  0  0  1  0  0  0  0  0  0
  1  3  2  0  0  0  0
  2  7  2  0  0  0  0
  3  2  1  0  0  0  0
  4 20  1  6  0  0  0
  4  6  1  0  0  0  0
  5  3  1  1  0  0  0
  5  4  1  0  0  0  0
  7  6  1  0  0  0  0
  9 11  1  6  0  0  0
  9  8  1  0  0  0  0
  9 10  1  0  0  0  0
 10  8  1  1  0  0  0
 10  5  1  0  0  0  0
 12 11  1  0  0  0  0
 13 14  1  0  0  0  0
 13 12  1  0  0  0  0
 14 15  1  0  0  0  0
 15 16  1  1  0  0  0
 15 17  1  0  0  0  0
 19 17  1  0  0  0  0
 19 18  1  0  0  0  0
 20 21  1  0  0  0  0
 21 22  1  0  0  0  0
 22 23  2  0  0  0  0
 24 22  1  0  0  0  0
 25 24  1  0  0  0  0
 26 25  1  0  0  0  0
 27  2  1  0  0  0  0
 28 30  2  0  0  0  0
 28 29  1  0  0  0  0
 29 32  2  0  0  0  0
 30 33  1  0  0  0  0
 32 31  1  0  0  0  0
 33 27  1  0  0  0  0
 33 31  2  0  0  0  0
 34 28  1  0  0  0  0
 35 34  1  0  0  0  0
 36 35  1  0  0  0  0
M  END
>  <MODEL>
5

>  <REMARK>
 VINA RESULT:      -7.8      2.616      7.468
  Name = 
  15 active torsions:
  status: ('A' for Active; 'I' for Inactive)
    1  A    between atoms: N_1  and  C_24
    2  A    between atoms: N_1  and  C_29
    3  A    between atoms: C_3  and  C_20
    4  A    between atoms: C_4  and  C_24
    5  A    between atoms: C_4  and  C_27
    6  A    between atoms: N_5  and  C_7
    7  A    between atoms: C_6  and  C_32
    8  A    between atoms: C_7  and  C_23
    9  A    between atoms: N_10  and  C_32
   10  A    between atoms: C_14  and  C_27
   11  A    between atoms: C_16  and  C_29
   12  A    between atoms: C_16  and  C_33
   13  A    between atoms: C_20  and  C_35
   14  A    between atoms: N_22  and  C_31
   15  A    between atoms: C_25  and  N_34
                            x       y       z     vdW  Elec       q    Type
                         _______ _______ _______ _____ _____    ______ ____

>  <TORSDO>
F 15

$$$$
=
 OpenBabel11032419283D

 36 38  0  0  1  0  0  0  0  0999 V2000
  184.1620  178.1450  143.3650 O   0  0  0  0  0  0  0  0  0  0  0  0
  186.3920  177.9420  144.1400 C   0  0  0  0  0  0  0  0  0  0  0  0
  185.3860  178.0980  143.0650 C   0  0  0  0  0  0  0  0  0  0  0  0
  187.3200  178.4380  141.4860 C   0  0  1  0  0  3  0  0  0  0  0  0
  185.8070  178.1530  141.6060 C   0  0  2  0  0  3  0  0  0  0  0  0
  188.1160  177.5290  142.4200 C   0  0  0  0  0  2  0  0  0  0  0  0
  187.6730  177.7170  143.8380 C   0  0  0  0  0  3  0  0  0  0  0  0
  185.1220  178.9040  139.4570 C   0  0  0  0  0  2  0  0  0  0  0  0
  183.9340  178.5160  140.1960 C   0  0  1  0  0  3  0  0  0  0  0  0
  185.0430  179.1860  140.9020 N   0  0  1  0  0  0  0  0  0  0  0  0
  182.8300  179.5210  139.9500 C   0  0  0  0  0  2  0  0  0  0  0  0
  181.5350  178.7900  139.6620 C   0  0  0  0  0  2  0  0  0  0  0  0
  180.4410  179.7420  139.6280 N   0  0  0  0  0  2  0  0  0  0  0  0
  180.0360  179.9620  141.0080 C   0  0  0  0  0  2  0  0  0  0  0  0
  180.1630  178.6790  141.8230 C   0  0  2  0  0  3  0  0  0  0  0  0
  178.9320  178.0230  141.8750 O   0  0  0  0  0  1  0  0  0  0  0  0
  180.6580  178.9570  143.2360 C   0  0  0  0  0  2  0  0  0  0  0  0
  178.9310  179.3200  144.8540 O   0  0  0  0  0  1  0  0  0  0  0  0
  179.7340  178.3370  144.2730 C   0  0  0  0  0  2  0  0  0  0  0  0
  187.8040  178.2270  140.0600 C   0  0  0  0  0  2  0  0  0  0  0  0
  189.0270  177.4360  140.0590 N   0  0  0  0  0  2  0  0  0  0  0  0
  189.6040  176.8210  138.8990 C   0  0  0  0  0  0  0  0  0  0  0  0
  190.5380  175.9940  139.0590 O   0  0  0  0  0  0  0  0  0  0  0  0
  189.1520  177.1020  137.5660 N   0  0  0  0  0  2  0  0  0  0  0  0
  188.3170  178.2300  137.1840 C   0  0  0  0  0  2  0  0  0  0  0  0
  189.0950  179.4550  137.2290 N   0  0  0  0  0  1  0  0  0  0  0  0
  185.9990  178.0630  145.5770 C   0  0  0  0  0  2  0  0  0  0  0  0
  189.5210  177.3660  146.7970 C   0  0  0  0  0  0  0  0  0  0  0  0
  189.4240  177.7320  148.1450 C   0  0  0  0  0  3  0  0  0  0  0  0
  188.4030  177.4670  145.9620 C   0  0  0  0  0  3  0  0  0  0  0  0
  187.0970  178.3210  147.8170 C   0  0  0  0  0  3  0  0  0  0  0  0
  188.2120  178.2120  148.6530 C   0  0  0  0  0  3  0  0  0  0  0  0
  187.1900  177.9480  146.4700 C   0  0  0  0  0  0  0  0  0  0  0  0
  190.8040  176.8360  146.2610 C   0  0  0  0  0  2  0  0  0  0  0  0
  191.0810  177.4350  144.9660 N   0  0  0  0  0  2  0  0  0  0  0  0
  191.4310  176.3490  144.0690 C   0  0  0  0  0  1  0  0  0  0  0  0
  2 27  1  0  0  0  0
  3  1  2  0  0  0  0
  3  2  1  0  0  0  0
  4 20  1  6  0  0  0
  4  5  1  0  0  0  0
  4  6  1  0  0  0  0
  5  3  1  1  0  0  0
  6  7  1  0  0  0  0
  7  2  2  0  0  0  0
  8  9  1  0  0  0  0
  9 11  1  6  0  0  0
  9 10  1  0  0  0  0
 10  8  1  6  0  0  0
 10  5  1  0  0  0  0
 12 11  1  0  0  0  0
 13 12  1  0  0  0  0
 13 14  1  0  0  0  0
 14 15  1  0  0  0  0
 15 16  1  1  0  0  0
 15 17  1  0  0  0  0
 17 19  1  0  0  0  0
 19 18  1  0  0  0  0
 21 20  1  0  0  0  0
 22 23  2  0  0  0  0
 22 21  1  0  0  0  0
 24 22  1  0  0  0  0
 25 26  1  0  0  0  0
 25 24  1  0  0  0  0
 27 33  1  0  0  0  0
 28 29  1  0  0  0  0
 29 32  2  0  0  0  0
 30 33  1  0  0  0  0
 30 28  2  0  0  0  0
 31 32  1  0  0  0  0
 33 31  2  0  0  0  0
 34 28  1  0  0  0  0
 35 34  1  0  0  0  0
 36 35  1  0  0  0  0
M  END
>  <MODEL>
6

>  <REMARK>
 VINA RESULT:      -7.7      1.972      6.696
  Name = 
  15 active torsions:
  status: ('A' for Active; 'I' for Inactive)
    1  A    between atoms: N_1  and  C_24
    2  A    between atoms: N_1  and  C_29
    3  A    between atoms: C_3  and  C_20
    4  A    between atoms: C_4  and  C_24
    5  A    between atoms: C_4  and  C_27
    6  A    between atoms: N_5  and  C_7
    7  A    between atoms: C_6  and  C_32
    8  A    between atoms: C_7  and  C_23
    9  A    between atoms: N_10  and  C_32
   10  A    between atoms: C_14  and  C_27
   11  A    between atoms: C_16  and  C_29
   12  A    between atoms: C_16  and  C_33
   13  A    between atoms: C_20  and  C_35
   14  A    between atoms: N_22  and  C_31
   15  A    between atoms: C_25  and  N_34
                            x       y       z     vdW  Elec       q    Type
                         _______ _______ _______ _____ _____    ______ ____

>  <TORSDO>
F 15

$$$$
=
 OpenBabel11032419283D

 36 38  0  0  1  0  0  0  0  0999 V2000
  184.1330  178.2970  143.0190 O   0  0  0  0  0  0  0  0  0  0  0  0
  186.3100  178.0590  143.9230 C   0  0  0  0  0  0  0  0  0  0  0  0
  185.3710  178.2300  142.7910 C   0  0  0  0  0  0  0  0  0  0  0  0
  187.4000  178.5380  141.3280 C   0  0  1  0  0  3  0  0  0  0  0  0
  185.8770  178.2770  141.3590 C   0  0  2  0  0  3  0  0  0  0  0  0
  188.1250  177.6160  142.3070 C   0  0  0  0  0  2  0  0  0  0  0  0
  187.6030  177.8130  143.6960 C   0  0  0  0  0  3  0  0  0  0  0  0
  185.2850  179.0060  139.1760 C   0  0  0  0  0  2  0  0  0  0  0  0
  184.0620  178.6760  139.8860 C   0  0  1  0  0  3  0  0  0  0  0  0
  185.1720  179.3220  140.6120 N   0  0  1  0  0  0  0  0  0  0  0  0
  183.0020  179.7140  139.5860 C   0  0  0  0  0  2  0  0  0  0  0  0
  181.6880  179.2920  140.2090 C   0  0  0  0  0  2  0  0  0  0  0  0
  180.9860  178.4050  139.3020 N   0  0  0  0  0  2  0  0  0  0  0  0
  180.4710  177.3070  140.1070 C   0  0  0  0  0  2  0  0  0  0  0  0
  180.7590  175.9650  139.4430 C   0  0  2  0  0  3  0  0  0  0  0  0
  180.0390  174.9520  140.0810 O   0  0  0  0  0  1  0  0  0  0  0  0
  182.2450  175.6320  139.4680 C   0  0  0  0  0  2  0  0  0  0  0  0
  183.8060  174.5990  137.9740 O   0  0  0  0  0  1  0  0  0  0  0  0
  182.8210  175.5850  138.0610 C   0  0  0  0  0  2  0  0  0  0  0  0
  187.9620  178.3170  139.9320 C   0  0  0  0  0  2  0  0  0  0  0  0
  189.0740  177.3780  139.9840 N   0  0  0  0  0  2  0  0  0  0  0  0
  189.8100  176.9160  138.8440 C   0  0  0  0  0  0  0  0  0  0  0  0
  190.6040  175.9510  138.9910 O   0  0  0  0  0  0  0  0  0  0  0  0
  189.6690  177.5010  137.5400 N   0  0  0  0  0  2  0  0  0  0  0  0
  189.0470  178.7850  137.2600 C   0  0  0  0  0  2  0  0  0  0  0  0
  187.8700  178.5910  136.4330 N   0  0  0  0  0  1  0  0  0  0  0  0
  185.8360  178.1880  145.3350 C   0  0  0  0  0  2  0  0  0  0  0  0
  189.2520  177.4100  146.7870 C   0  0  0  0  0  0  0  0  0  0  0  0
  189.1120  177.8930  148.0940 C   0  0  0  0  0  3  0  0  0  0  0  0
  188.1810  177.5000  145.8900 C   0  0  0  0  0  3  0  0  0  0  0  0
  186.8400  178.5740  147.6000 C   0  0  0  0  0  3  0  0  0  0  0  0
  187.9070  178.4770  148.4990 C   0  0  0  0  0  3  0  0  0  0  0  0
  186.9750  178.0860  146.2940 C   0  0  0  0  0  0  0  0  0  0  0  0
  190.5260  176.7710  146.3630 C   0  0  0  0  0  2  0  0  0  0  0  0
  191.3310  176.4540  147.5310 N   0  0  0  0  0  2  0  0  0  0  0  0
  192.4310  175.6270  147.0700 C   0  0  0  0  0  1  0  0  0  0  0  0
  2 27  1  0  0  0  0
  3  1  2  0  0  0  0
  3  2  1  0  0  0  0
  4 20  1  6  0  0  0
  4  5  1  0  0  0  0
  4  6  1  0  0  0  0
  5  3  1  1  0  0  0
  6  7  1  0  0  0  0
  7  2  2  0  0  0  0
  8  9  1  0  0  0  0
  9 11  1  6  0  0  0
  9 10  1  0  0  0  0
 10  8  1  6  0  0  0
 10  5  1  0  0  0  0
 11 12  1  0  0  0  0
 13 14  1  0  0  0  0
 13 12  1  0  0  0  0
 15 17  1  0  0  0  0
 15 16  1  1  0  0  0
 15 14  1  0  0  0  0
 18 19  1  0  0  0  0
 19 17  1  0  0  0  0
 20 21  1  0  0  0  0
 22 23  2  0  0  0  0
 22 21  1  0  0  0  0
 24 22  1  0  0  0  0
 25 24  1  0  0  0  0
 26 25  1  0  0  0  0
 27 33  1  0  0  0  0
 28 29  1  0  0  0  0
 29 32  2  0  0  0  0
 30 33  1  0  0  0  0
 30 28  2  0  0  0  0
 31 32  1  0  0  0  0
 33 31  2  0  0  0  0
 34 28  1  0  0  0  0
 34 35  1  0  0  0  0
 36 35  1  0  0  0  0
M  END
>  <MODEL>
7

>  <REMARK>
 VINA RESULT:      -7.6      2.319      6.020
  Name = 
  15 active torsions:
  status: ('A' for Active; 'I' for Inactive)
    1  A    between atoms: N_1  and  C_24
    2  A    between atoms: N_1  and  C_29
    3  A    between atoms: C_3  and  C_20
    4  A    between atoms: C_4  and  C_24
    5  A    between atoms: C_4  and  C_27
    6  A    between atoms: N_5  and  C_7
    7  A    between atoms: C_6  and  C_32
    8  A    between atoms: C_7  and  C_23
    9  A    between atoms: N_10  and  C_32
   10  A    between atoms: C_14  and  C_27
   11  A    between atoms: C_16  and  C_29
   12  A    between atoms: C_16  and  C_33
   13  A    between atoms: C_20  and  C_35
   14  A    between atoms: N_22  and  C_31
   15  A    between atoms: C_25  and  N_34
                            x       y       z     vdW  Elec       q    Type
                         _______ _______ _______ _____ _____    ______ ____

>  <TORSDO>
F 15

$$$$
=
 OpenBabel11032419283D

 36 38  0  0  1  0  0  0  0  0999 V2000
  187.6600  178.7540  140.1490 O   0  0  0  0  0  0  0  0  0  0  0  0
  189.8050  177.7540  140.2610 C   0  0  0  0  0  0  0  0  0  0  0  0
  188.5140  178.1610  140.8610 C   0  0  0  0  0  0  0  0  0  0  0  0
  189.2220  176.8860  142.9160 C   0  0  1  0  0  3  0  0  0  0  0  0
  188.2290  177.9160  142.3330 C   0  0  2  0  0  3  0  0  0  0  0  0
  190.6550  177.2340  142.5200 C   0  0  0  0  0  2  0  0  0  0  0  0
  190.7890  177.2830  141.0300 C   0  0  0  0  0  3  0  0  0  0  0  0
  186.3880  177.8740  143.8360 C   0  0  0  0  0  2  0  0  0  0  0  0
  185.9910  178.6290  142.6620 C   0  0  1  0  0  3  0  0  0  0  0  0
  186.8530  177.4420  142.5050 N   0  0  1  0  0  0  0  0  0  0  0  0
  184.5750  178.2620  142.2740 C   0  0  0  0  0  2  0  0  0  0  0  0
  183.6020  178.8980  143.2450 C   0  0  0  0  0  2  0  0  0  0  0  0
  182.3200  179.0820  142.5930 N   0  0  0  0  0  2  0  0  0  0  0  0
  182.3240  178.2280  141.4150 C   0  0  0  0  0  2  0  0  0  0  0  0
  181.4130  178.7930  140.3310 C   0  0  2  0  0  3  0  0  0  0  0  0
  180.9430  177.7610  139.5160 O   0  0  0  0  0  1  0  0  0  0  0  0
  182.1290  179.8340  139.4800 C   0  0  0  0  0  2  0  0  0  0  0  0
  184.4870  180.1350  139.1940 O   0  0  0  0  0  1  0  0  0  0  0  0
  183.4230  179.2780  138.9060 C   0  0  0  0  0  2  0  0  0  0  0  0
  189.1260  176.8350  144.4340 C   0  0  0  0  0  2  0  0  0  0  0  0
  190.4280  176.5210  145.0060 N   0  0  0  0  0  2  0  0  0  0  0  0
  190.8190  176.8060  146.3560 C   0  0  0  0  0  0  0  0  0  0  0  0
  192.0310  176.6810  146.6700 O   0  0  0  0  0  0  0  0  0  0  0  0
  189.8880  177.2360  147.3600 N   0  0  0  0  0  2  0  0  0  0  0  0
  188.4400  177.1390  147.2570 C   0  0  0  0  0  2  0  0  0  0  0  0
  187.8240  177.7200  148.4370 N   0  0  0  0  0  1  0  0  0  0  0  0
  190.0190  177.8350  138.7830 C   0  0  0  0  0  2  0  0  0  0  0  0
  187.9990  175.0640  137.1640 C   0  0  0  0  0  0  0  0  0  0  0  0
  188.9990  174.1280  136.8730 C   0  0  0  0  0  3  0  0  0  0  0  0
  188.3300  176.2700  137.7930 C   0  0  0  0  0  3  0  0  0  0  0  0
  190.6640  175.6110  137.8200 C   0  0  0  0  0  3  0  0  0  0  0  0
  190.3300  174.4040  137.1990 C   0  0  0  0  0  3  0  0  0  0  0  0
  189.6640  176.5460  138.1190 C   0  0  0  0  0  0  0  0  0  0  0  0
  186.5790  174.7630  136.8370 C   0  0  0  0  0  2  0  0  0  0  0  0
  186.2400  173.4270  137.3000 N   0  0  0  0  0  2  0  0  0  0  0  0
  185.1310  172.9700  136.4830 C   0  0  0  0  0  1  0  0  0  0  0  0
  1  3  2  0  0  0  0
  2  3  1  0  0  0  0
  2  7  2  0  0  0  0
  4 20  1  1  0  0  0
  5  3  1  6  0  0  0
  5 10  1  0  0  0  0
  5  4  1  0  0  0  0
  6  4  1  0  0  0  0
  7  6  1  0  0  0  0
  9 11  1  6  0  0  0
  9  8  1  0  0  0  0
 10  9  1  0  0  0  0
 10  8  1  1  0  0  0
 11 12  1  0  0  0  0
 13 12  1  0  0  0  0
 14 13  1  0  0  0  0
 15 16  1  6  0  0  0
 15 14  1  0  0  0  0
 17 15  1  0  0  0  0
 19 18  1  0  0  0  0
 19 17  1  0  0  0  0
 20 21  1  0  0  0  0
 21 22  1  0  0  0  0
 22 23  2  0  0  0  0
 22 24  1  0  0  0  0
 25 24  1  0  0  0  0
 25 26  1  0  0  0  0
 27  2  1  0  0  0  0
 28 30  1  0  0  0  0
 29 28  2  0  0  0  0
 29 32  1  0  0  0  0
 30 33  2  0  0  0  0
 31 33  1  0  0  0  0
 32 31  2  0  0  0  0
 33 27  1  0  0  0  0
 34 28  1  0  0  0  0
 34 35  1  0  0  0  0
 36 35  1  0  0  0  0
M  END
>  <MODEL>
8

>  <REMARK>
 VINA RESULT:      -7.6      2.662      8.450
  Name = 
  15 active torsions:
  status: ('A' for Active; 'I' for Inactive)
    1  A    between atoms: N_1  and  C_24
    2  A    between atoms: N_1  and  C_29
    3  A    between atoms: C_3  and  C_20
    4  A    between atoms: C_4  and  C_24
    5  A    between atoms: C_4  and  C_27
    6  A    between atoms: N_5  and  C_7
    7  A    between atoms: C_6  and  C_32
    8  A    between atoms: C_7  and  C_23
    9  A    between atoms: N_10  and  C_32
   10  A    between atoms: C_14  and  C_27
   11  A    between atoms: C_16  and  C_29
   12  A    between atoms: C_16  and  C_33
   13  A    between atoms: C_20  and  C_35
   14  A    between atoms: N_22  and  C_31
   15  A    between atoms: C_25  and  N_34
                            x       y       z     vdW  Elec       q    Type
                         _______ _______ _______ _____ _____    ______ ____

>  <TORSDO>
F 15

$$$$
=
 OpenBabel11032419283D

 36 38  0  0  1  0  0  0  0  0999 V2000
  186.8250  178.7150  140.5320 O   0  0  0  0  0  0  0  0  0  0  0  0
  189.0320  177.8690  140.3560 C   0  0  0  0  0  0  0  0  0  0  0  0
  187.8230  178.2300  141.1310 C   0  0  0  0  0  0  0  0  0  0  0  0
  188.9360  177.1470  143.1160 C   0  0  1  0  0  3  0  0  0  0  0  0
  187.7890  178.0670  142.6410 C   0  0  2  0  0  3  0  0  0  0  0  0
  190.2600  177.5620  142.4760 C   0  0  0  0  0  2  0  0  0  0  0  0
  190.1560  177.5190  140.9830 C   0  0  0  0  0  3  0  0  0  0  0  0
  186.3370  177.7740  144.5000 C   0  0  0  0  0  2  0  0  0  0  0  0
  185.6710  178.6380  143.5430 C   0  0  1  0  0  3  0  0  0  0  0  0
  186.4960  177.5160  143.0570 N   0  0  1  0  0  0  0  0  0  0  0  0
  184.2100  178.2540  143.4390 C   0  0  0  0  0  2  0  0  0  0  0  0
  183.5610  179.0270  142.3110 C   0  0  0  0  0  2  0  0  0  0  0  0
  183.6150  178.2410  141.0930 N   0  0  0  0  0  2  0  0  0  0  0  0
  182.5200  178.6990  140.2520 C   0  0  0  0  0  2  0  0  0  0  0  0
  183.0390  179.1960  138.9070 C   0  0  2  0  0  3  0  0  0  0  0  0
  184.0600  180.1280  139.1040 O   0  0  0  0  0  1  0  0  0  0  0  0
  181.9290  179.8200  138.0710 C   0  0  0  0  0  2  0  0  0  0  0  0
  180.7330  181.5600  139.2000 O   0  0  0  0  0  1  0  0  0  0  0  0
  181.8080  181.3110  138.3440 C   0  0  0  0  0  2  0  0  0  0  0  0
  189.0810  177.1940  144.6290 C   0  0  0  0  0  2  0  0  0  0  0  0
  190.4120  176.7470  145.0170 N   0  0  0  0  0  2  0  0  0  0  0  0
  190.9330  176.7890  146.3520 C   0  0  0  0  0  0  0  0  0  0  0  0
  192.1600  176.5750  146.5260 O   0  0  0  0  0  0  0  0  0  0  0  0
  190.1150  177.0760  147.4960 N   0  0  0  0  0  2  0  0  0  0  0  0
  188.6600  177.0440  147.5160 C   0  0  0  0  0  2  0  0  0  0  0  0
  188.1580  178.1010  148.3760 N   0  0  0  0  0  1  0  0  0  0  0  0
  189.0070  177.8640  138.8610 C   0  0  0  0  0  2  0  0  0  0  0  0
  191.9370  175.6640  137.8830 C   0  0  0  0  0  0  0  0  0  0  0  0
  191.2810  174.5770  137.2930 C   0  0  0  0  0  3  0  0  0  0  0  0
  191.1960  176.7390  138.3880 C   0  0  0  0  0  3  0  0  0  0  0  0
  189.1430  175.6290  137.7310 C   0  0  0  0  0  3  0  0  0  0  0  0
  189.8840  174.5590  137.2200 C   0  0  0  0  0  3  0  0  0  0  0  0
  189.7980  176.7200  138.3160 C   0  0  0  0  0  0  0  0  0  0  0  0
  193.4240  175.6930  137.9430 C   0  0  0  0  0  2  0  0  0  0  0  0
  193.9300  176.7520  137.0860 N   0  0  0  0  0  2  0  0  0  0  0  0
  194.3060  176.1310  135.8300 C   0  0  0  0  0  1  0  0  0  0  0  0
  1  3  2  0  0  0  0
  2  7  2  0  0  0  0
  2  3  1  0  0  0  0
  4 20  1  1  0  0  0
  5  3  1  6  0  0  0
  5 10  1  0  0  0  0
  5  4  1  0  0  0  0
  6  4  1  0  0  0  0
  7  6  1  0  0  0  0
  9 11  1  1  0  0  0
  9  8  1  0  0  0  0
 10  9  1  0  0  0  0
 10  8  1  1  0  0  0
 12 11  1  0  0  0  0
 13 12  1  0  0  0  0
 14 13  1  0  0  0  0
 15 16  1  1  0  0  0
 15 14  1  0  0  0  0
 17 19  1  0  0  0  0
 17 15  1  0  0  0  0
 19 18  1  0  0  0  0
 20 21  1  0  0  0  0
 21 22  1  0  0  0  0
 22 23  2  0  0  0  0
 22 24  1  0  0  0  0
 24 25  1  0  0  0  0
 25 26  1  0  0  0  0
 27  2  1  0  0  0  0
 28 34  1  0  0  0  0
 28 30  1  0  0  0  0
 29 28  2  0  0  0  0
 31 33  1  0  0  0  0
 32 29  1  0  0  0  0
 32 31  2  0  0  0  0
 33 30  2  0  0  0  0
 33 27  1  0  0  0  0
 35 34  1  0  0  0  0
 36 35  1  0  0  0  0
M  END
>  <MODEL>
9

>  <REMARK>
 VINA RESULT:      -7.6      3.060      8.187
  Name = 
  15 active torsions:
  status: ('A' for Active; 'I' for Inactive)
    1  A    between atoms: N_1  and  C_24
    2  A    between atoms: N_1  and  C_29
    3  A    between atoms: C_3  and  C_20
    4  A    between atoms: C_4  and  C_24
    5  A    between atoms: C_4  and  C_27
    6  A    between atoms: N_5  and  C_7
    7  A    between atoms: C_6  and  C_32
    8  A    between atoms: C_7  and  C_23
    9  A    between atoms: N_10  and  C_32
   10  A    between atoms: C_14  and  C_27
   11  A    between atoms: C_16  and  C_29
   12  A    between atoms: C_16  and  C_33
   13  A    between atoms: C_20  and  C_35
   14  A    between atoms: N_22  and  C_31
   15  A    between atoms: C_25  and  N_34
                            x       y       z     vdW  Elec       q    Type
                         _______ _______ _______ _____ _____    ______ ____

>  <TORSDO>
F 15

$$$$
