=
 OpenBabel11042411033D

 39 42  0  0  1  0  0  0  0  0999 V2000
  185.7670  178.7660  141.9890 C   0  0  2  0  0  3  0  0  0  0  0  0
  185.9480  178.5670  144.5920 C   0  0  0  0  0  0  0  0  0  0  0  0
  183.8660  179.3770  145.0930 N   0  0  0  0  0  0  0  0  0  0  0  0
  187.8920  177.7650  145.8880 C   0  0  0  0  0  3  0  0  0  0  0  0
  185.2820  178.8710  143.4140 C   0  0  0  0  0  0  0  0  0  0  0  0
  187.2300  178.0670  144.7100 C   0  0  0  0  0  3  0  0  0  0  0  0
  185.0030  178.9040  145.6350 C   0  0  0  0  0  0  0  0  0  0  0  0
  184.0310  179.3600  143.7520 C   0  0  0  0  0  3  0  0  0  0  0  0
  185.1610  178.7820  146.9690 N   0  0  0  0  0  0  0  0  0  0  0  0
  188.4330  177.4520  148.2470 C   0  0  0  0  0  1  0  0  0  0  0  0
  187.4610  177.8780  147.2080 C   0  0  0  0  0  0  0  0  0  0  0  0
  186.2280  178.3380  147.6760 C   0  0  0  0  0  3  0  0  0  0  0  0
  183.6260  177.9760  140.9160 N   0  0  0  0  0  2  0  0  0  0  0  0
  184.7380  178.8690  140.9000 C   0  0  0  0  0  0  0  0  0  0  0  0
  184.8260  179.7530  140.0060 O   0  0  0  0  0  0  0  0  0  0  0  0
  182.5920  178.0100  139.8930 C   0  0  0  0  0  2  0  0  0  0  0  0
  183.0070  176.6550  136.6600 C   0  0  0  0  0  3  0  0  0  0  0  0
  182.8570  175.6280  139.8430 F   0  0  0  0  0  0  0  0  0  0  0  0
  181.3830  176.5810  138.2610 C   0  0  0  0  0  0  0  0  0  0  0  0
  182.6380  176.7410  139.0480 C   0  0  1  0  0  0  0  0  0  0  0  0
  181.7130  176.5090  136.8560 C   0  0  0  0  0  0  0  0  0  0  0  0
  183.7240  176.8450  137.9640 C   0  0  0  0  0  2  0  0  0  0  0  0
  180.7950  176.3110  135.8330 O   0  0  0  0  0  1  0  0  0  0  0  0
  180.1900  176.3010  138.7690 C   0  0  0  0  0  2  0  0  0  0  0  0
  186.7650  177.7140  141.7740 N   0  0  0  0  0  2  0  0  0  0  0  0
  187.9080  178.3350  139.7160 C   0  0  0  0  0  2  0  0  0  0  0  0
  189.1800  177.3530  141.5370 C   0  0  2  0  0  3  0  0  0  0  0  0
  189.9220  177.1070  140.2190 C   0  0  1  0  0  3  0  0  0  0  0  0
  187.9980  178.2690  141.2280 C   0  0  2  0  0  3  0  0  0  0  0  0
  189.3140  178.0630  139.2110 C   0  0  1  0  0  3  0  0  0  0  0  0
  191.2940  177.3260  140.3210 O   0  0  0  0  0  1  0  0  0  0  0  0
  189.3070  177.4970  137.8170 C   0  0  0  0  0  0  0  0  0  0  0  0
  189.4290  178.2570  136.8200 O   0  0  0  0  0  0  0  0  0  0  0  0
  189.0820  176.1060  137.6090 N   0  0  0  0  0  1  0  0  0  0  0  0
  190.0350  177.8640  142.6200 N   0  0  0  0  0  2  0  0  0  0  0  0
  190.4940  176.7810  143.4890 C   0  0  0  0  0  2  0  0  0  0  0  0
  191.6800  177.2020  144.2220 N   0  0  0  0  0  0  0  0  0  0  0  0
  191.4940  176.8090  145.6110 C   0  0  0  0  0  1  0  0  0  0  0  0
  191.6810  178.6540  144.1990 C   0  0  0  0  0  1  0  0  0  0  0  0
  1 14  1  6  0  0  0
  1  5  1  0  0  0  0
  2  6  2  0  0  0  0
  2  7  1  0  0  0  0
  3  7  2  0  0  0  0
  4 11  2  0  0  0  0
  5  8  2  0  0  0  0
  5  2  1  0  0  0  0
  6  4  1  0  0  0  0
  7  9  1  0  0  0  0
  8  3  1  0  0  0  0
  9 12  2  0  0  0  0
 11 12  1  0  0  0  0
 11 10  1  0  0  0  0
 14 13  1  0  0  0  0
 15 14  2  0  0  0  0
 16 13  1  0  0  0  0
 17 21  2  0  0  0  0
 17 22  1  0  0  0  0
 19 24  2  0  0  0  0
 19 20  1  0  0  0  0
 20 18  1  1  0  0  0
 20 16  1  0  0  0  0
 21 19  1  0  0  0  0
 22 20  1  0  0  0  0
 23 21  1  0  0  0  0
 25  1  1  0  0  0  0
 26 29  1  0  0  0  0
 27 35  1  1  0  0  0
 28 31  1  1  0  0  0
 28 27  1  0  0  0  0
 29 27  1  0  0  0  0
 29 25  1  1  0  0  0
 30 32  1  6  0  0  0
 30 26  1  0  0  0  0
 30 28  1  0  0  0  0
 33 32  2  0  0  0  0
 34 32  1  0  0  0  0
 35 36  1  0  0  0  0
 36 37  1  0  0  0  0
 37 38  1  0  0  0  0
 39 37  1  0  0  0  0
M  END
>  <MODEL>
1

>  <REMARK>
 VINA RESULT:      -8.9      0.000      0.000
  Name = 
  10 active torsions:
  status: ('A' for Active; 'I' for Inactive)
    1  A    between atoms: C_4  and  N_9
    2  A    between atoms: C_4  and  N_18
    3  A    between atoms: C_7  and  N_18
    4  A    between atoms: N_8  and  C_37
    5  A    between atoms: C_10  and  C_37
    6  A    between atoms: C_12  and  C_16
    7  A    between atoms: C_16  and  C_19
    8  A    between atoms: C_16  and  N_27
    9  A    between atoms: C_23  and  C_34
   10  A    between atoms: N_27  and  C_32
                            x       y       z     vdW  Elec       q    Type
                         _______ _______ _______ _____ _____    ______ ____

>  <TORSDO>
F 10

$$$$
=
 OpenBabel11042411033D

 39 42  0  0  1  0  0  0  0  0999 V2000
  185.8750  178.7190  141.9360 C   0  0  2  0  0  3  0  0  0  0  0  0
  185.9880  178.5290  144.5430 C   0  0  0  0  0  0  0  0  0  0  0  0
  183.8850  179.3150  144.9860 N   0  0  0  0  0  0  0  0  0  0  0  0
  187.9060  177.7530  145.8920 C   0  0  0  0  0  3  0  0  0  0  0  0
  185.3510  178.8220  143.3470 C   0  0  0  0  0  0  0  0  0  0  0  0
  187.2730  178.0440  144.6960 C   0  0  0  0  0  3  0  0  0  0  0  0
  185.0130  178.8570  145.5590 C   0  0  0  0  0  0  0  0  0  0  0  0
  184.0850  179.2970  143.6500 C   0  0  0  0  0  3  0  0  0  0  0  0
  185.1360  178.7400  146.8980 N   0  0  0  0  0  0  0  0  0  0  0  0
  188.3880  177.4510  148.2660 C   0  0  0  0  0  1  0  0  0  0  0  0
  187.4390  177.8630  147.2000 C   0  0  0  0  0  0  0  0  0  0  0  0
  186.1890  178.3100  147.6340 C   0  0  0  0  0  3  0  0  0  0  0  0
  183.8880  177.7800  140.6980 N   0  0  0  0  0  2  0  0  0  0  0  0
  184.8730  178.8040  140.8190 C   0  0  0  0  0  0  0  0  0  0  0  0
  184.8710  179.7800  140.0220 O   0  0  0  0  0  0  0  0  0  0  0  0
  182.8880  177.7890  139.6400 C   0  0  0  0  0  2  0  0  0  0  0  0
  179.3730  177.9290  139.3550 C   0  0  0  0  0  3  0  0  0  0  0  0
  181.8060  179.0810  141.3460 F   0  0  0  0  0  0  0  0  0  0  0  0
  181.0870  179.4160  139.1200 C   0  0  0  0  0  0  0  0  0  0  0  0
  181.6040  178.4500  140.1290 C   0  0  1  0  0  0  0  0  0  0  0  0
  179.7440  179.0370  138.7470 C   0  0  0  0  0  0  0  0  0  0  0  0
  180.4690  177.4190  140.2440 C   0  0  0  0  0  2  0  0  0  0  0  0
  178.9340  179.7410  137.8640 O   0  0  0  0  0  1  0  0  0  0  0  0
  181.6590  180.5690  138.8000 C   0  0  0  0  0  2  0  0  0  0  0  0
  186.8930  177.6820  141.7500 N   0  0  0  0  0  2  0  0  0  0  0  0
  187.9570  178.2740  139.6410 C   0  0  0  0  0  2  0  0  0  0  0  0
  189.3020  177.3380  141.4340 C   0  0  2  0  0  3  0  0  0  0  0  0
  189.9980  177.0730  140.0950 C   0  0  1  0  0  3  0  0  0  0  0  0
  188.1010  178.2370  141.1500 C   0  0  2  0  0  3  0  0  0  0  0  0
  189.3450  178.0050  139.0910 C   0  0  1  0  0  3  0  0  0  0  0  0
  191.3710  177.3070  140.1440 O   0  0  0  0  0  1  0  0  0  0  0  0
  189.2950  177.4120  137.7100 C   0  0  0  0  0  0  0  0  0  0  0  0
  189.5390  176.1880  137.5320 O   0  0  0  0  0  0  0  0  0  0  0  0
  189.0490  178.2440  136.5800 N   0  0  0  0  0  1  0  0  0  0  0  0
  190.1900  177.8770  142.4760 N   0  0  0  0  0  2  0  0  0  0  0  0
  190.7850  176.8050  143.2720 C   0  0  0  0  0  2  0  0  0  0  0  0
  191.7790  177.3560  144.1830 N   0  0  0  0  0  0  0  0  0  0  0  0
  191.4280  176.9180  145.5260 C   0  0  0  0  0  1  0  0  0  0  0  0
  191.6020  178.7960  144.1590 C   0  0  0  0  0  1  0  0  0  0  0  0
  1 14  1  6  0  0  0
  1  5  1  0  0  0  0
  2  6  2  0  0  0  0
  2  7  1  0  0  0  0
  3  7  2  0  0  0  0
  4 11  2  0  0  0  0
  5  8  2  0  0  0  0
  5  2  1  0  0  0  0
  6  4  1  0  0  0  0
  7  9  1  0  0  0  0
  8  3  1  0  0  0  0
  9 12  2  0  0  0  0
 11 12  1  0  0  0  0
 11 10  1  0  0  0  0
 13 14  1  0  0  0  0
 15 14  2  0  0  0  0
 16 20  1  0  0  0  0
 16 13  1  0  0  0  0
 17 22  1  0  0  0  0
 19 20  1  0  0  0  0
 20 22  1  0  0  0  0
 20 18  1  1  0  0  0
 21 19  1  0  0  0  0
 21 17  2  0  0  0  0
 23 21  1  0  0  0  0
 24 19  2  0  0  0  0
 25  1  1  0  0  0  0
 26 29  1  0  0  0  0
 27 35  1  1  0  0  0
 28 31  1  1  0  0  0
 28 27  1  0  0  0  0
 29 27  1  0  0  0  0
 29 25  1  1  0  0  0
 30 32  1  6  0  0  0
 30 26  1  0  0  0  0
 30 28  1  0  0  0  0
 33 32  2  0  0  0  0
 34 32  1  0  0  0  0
 35 36  1  0  0  0  0
 36 37  1  0  0  0  0
 37 38  1  0  0  0  0
 39 37  1  0  0  0  0
M  END
>  <MODEL>
2

>  <REMARK>
 VINA RESULT:      -8.8      1.448      1.843
  Name = 
  10 active torsions:
  status: ('A' for Active; 'I' for Inactive)
    1  A    between atoms: C_4  and  N_9
    2  A    between atoms: C_4  and  N_18
    3  A    between atoms: C_7  and  N_18
    4  A    between atoms: N_8  and  C_37
    5  A    between atoms: C_10  and  C_37
    6  A    between atoms: C_12  and  C_16
    7  A    between atoms: C_16  and  C_19
    8  A    between atoms: C_16  and  N_27
    9  A    between atoms: C_23  and  C_34
   10  A    between atoms: N_27  and  C_32
                            x       y       z     vdW  Elec       q    Type
                         _______ _______ _______ _____ _____    ______ ____

>  <TORSDO>
F 10

$$$$
=
 OpenBabel11042411033D

 39 42  0  0  1  0  0  0  0  0999 V2000
  188.3670  177.9660  140.0120 C   0  0  2  0  0  3  0  0  0  0  0  0
  185.8190  178.3960  139.6000 C   0  0  0  0  0  0  0  0  0  0  0  0
  185.3670  179.4170  141.5980 N   0  0  0  0  0  0  0  0  0  0  0  0
  184.5100  177.7590  137.6050 C   0  0  0  0  0  3  0  0  0  0  0  0
  186.9860  178.4740  140.3450 C   0  0  0  0  0  0  0  0  0  0  0  0
  185.6770  177.8360  138.3450 C   0  0  0  0  0  3  0  0  0  0  0  0
  184.8150  179.0130  140.4400 C   0  0  0  0  0  0  0  0  0  0  0  0
  186.6780  179.0930  141.5460 C   0  0  0  0  0  3  0  0  0  0  0  0
  183.5070  179.2010  140.1690 N   0  0  0  0  0  0  0  0  0  0  0  0
  182.1900  177.9690  136.8730 C   0  0  0  0  0  1  0  0  0  0  0  0
  183.2270  178.2070  137.9110 C   0  0  0  0  0  0  0  0  0  0  0  0
  182.7930  178.8530  139.0710 C   0  0  0  0  0  3  0  0  0  0  0  0
  188.5880  176.8090  142.2420 N   0  0  0  0  0  2  0  0  0  0  0  0
  189.2160  177.4790  141.1510 C   0  0  0  0  0  0  0  0  0  0  0  0
  190.4680  177.6200  141.1330 O   0  0  0  0  0  0  0  0  0  0  0  0
  189.3420  176.3140  143.3840 C   0  0  0  0  0  2  0  0  0  0  0  0
  190.1850  177.0400  146.7330 C   0  0  0  0  0  3  0  0  0  0  0  0
  189.4680  178.6550  143.8890 F   0  0  0  0  0  0  0  0  0  0  0  0
  188.3260  177.2780  145.4340 C   0  0  0  0  0  0  0  0  0  0  0  0
  189.4460  177.3910  144.4580 C   0  0  1  0  0  0  0  0  0  0  0  0
  188.8700  177.1030  146.7600 C   0  0  0  0  0  0  0  0  0  0  0  0
  190.6950  177.1760  145.3290 C   0  0  0  0  0  2  0  0  0  0  0  0
  188.1160  177.0120  147.9240 O   0  0  0  0  0  1  0  0  0  0  0  0
  187.0520  177.5430  145.1720 C   0  0  0  0  0  2  0  0  0  0  0  0
  189.0860  178.7880  139.0350 N   0  0  0  0  0  2  0  0  0  0  0  0
  188.6560  178.4070  136.6680 C   0  0  0  0  0  2  0  0  0  0  0  0
  189.1700  176.5180  138.1060 C   0  0  2  0  0  3  0  0  0  0  0  0
  188.3830  176.0210  136.8890 C   0  0  1  0  0  3  0  0  0  0  0  0
  189.4780  177.9960  137.8750 C   0  0  2  0  0  3  0  0  0  0  0  0
  188.4480  177.1380  135.8640 C   0  0  1  0  0  3  0  0  0  0  0  0
  188.9030  174.8460  136.3510 O   0  0  0  0  0  1  0  0  0  0  0  0
  187.2070  177.2100  135.0170 C   0  0  0  0  0  0  0  0  0  0  0  0
  186.7850  178.3210  134.5970 O   0  0  0  0  0  0  0  0  0  0  0  0
  186.4510  176.0320  134.7500 N   0  0  0  0  0  1  0  0  0  0  0  0
  190.3690  175.7230  138.4110 N   0  0  0  0  0  2  0  0  0  0  0  0
  191.5870  176.4260  138.0120 C   0  0  0  0  0  2  0  0  0  0  0  0
  192.2210  175.7300  136.9010 N   0  0  0  0  0  0  0  0  0  0  0  0
  192.3160  174.3250  137.2640 C   0  0  0  0  0  1  0  0  0  0  0  0
  193.5810  176.2320  136.8260 C   0  0  0  0  0  1  0  0  0  0  0  0
  1 25  1  1  0  0  0
  1  5  1  0  0  0  0
  1 14  1  0  0  0  0
  2  5  1  0  0  0  0
  2  7  1  0  0  0  0
  4 11  2  0  0  0  0
  4  6  1  0  0  0  0
  5  8  2  0  0  0  0
  6  2  2  0  0  0  0
  7  3  2  0  0  0  0
  8  3  1  0  0  0  0
  9  7  1  0  0  0  0
 10 11  1  0  0  0  0
 11 12  1  0  0  0  0
 12  9  2  0  0  0  0
 13 16  1  0  0  0  0
 14 13  1  0  0  0  0
 15 14  2  0  0  0  0
 16 20  1  0  0  0  0
 17 21  2  0  0  0  0
 19 21  1  0  0  0  0
 20 18  1  6  0  0  0
 20 22  1  0  0  0  0
 20 19  1  0  0  0  0
 21 23  1  0  0  0  0
 22 17  1  0  0  0  0
 24 19  2  0  0  0  0
 26 29  1  0  0  0  0
 27 35  1  6  0  0  0
 28 31  1  6  0  0  0
 28 27  1  0  0  0  0
 29 27  1  0  0  0  0
 29 25  1  1  0  0  0
 30 32  1  1  0  0  0
 30 26  1  0  0  0  0
 30 28  1  0  0  0  0
 33 32  2  0  0  0  0
 34 32  1  0  0  0  0
 36 35  1  0  0  0  0
 37 38  1  0  0  0  0
 37 36  1  0  0  0  0
 39 37  1  0  0  0  0
M  END
>  <MODEL>
3

>  <REMARK>
 VINA RESULT:      -8.6      2.827      7.368
  Name = 
  10 active torsions:
  status: ('A' for Active; 'I' for Inactive)
    1  A    between atoms: C_4  and  N_9
    2  A    between atoms: C_4  and  N_18
    3  A    between atoms: C_7  and  N_18
    4  A    between atoms: N_8  and  C_37
    5  A    between atoms: C_10  and  C_37
    6  A    between atoms: C_12  and  C_16
    7  A    between atoms: C_16  and  C_19
    8  A    between atoms: C_16  and  N_27
    9  A    between atoms: C_23  and  C_34
   10  A    between atoms: N_27  and  C_32
                            x       y       z     vdW  Elec       q    Type
                         _______ _______ _______ _____ _____    ______ ____

>  <TORSDO>
F 10

$$$$
=
 OpenBabel11042411033D

 39 42  0  0  1  0  0  0  0  0999 V2000
  185.6000  178.7740  141.1540 C   0  0  2  0  0  3  0  0  0  0  0  0
  185.3810  178.5810  143.7540 C   0  0  0  0  0  0  0  0  0  0  0  0
  183.1360  179.0080  143.8920 N   0  0  0  0  0  0  0  0  0  0  0  0
  187.1940  178.1180  145.3660 C   0  0  0  0  0  3  0  0  0  0  0  0
  184.8760  178.7770  142.4780 C   0  0  0  0  0  0  0  0  0  0  0  0
  186.6940  178.3120  144.0900 C   0  0  0  0  0  3  0  0  0  0  0  0
  184.2330  178.7360  144.6220 C   0  0  0  0  0  0  0  0  0  0  0  0
  183.5200  179.0350  142.5970 C   0  0  0  0  0  3  0  0  0  0  0  0
  184.1870  178.6290  145.9660 N   0  0  0  0  0  0  0  0  0  0  0  0
  187.3850  177.8780  147.7880 C   0  0  0  0  0  1  0  0  0  0  0  0
  186.5380  178.1390  146.5950 C   0  0  0  0  0  0  0  0  0  0  0  0
  185.1840  178.3710  146.8460 C   0  0  0  0  0  3  0  0  0  0  0  0
  184.2080  177.8320  139.2730 N   0  0  0  0  0  2  0  0  0  0  0  0
  184.7740  178.9740  139.9150 C   0  0  0  0  0  0  0  0  0  0  0  0
  184.5480  180.1280  139.4650 O   0  0  0  0  0  0  0  0  0  0  0  0
  183.4020  177.9440  138.0660 C   0  0  0  0  0  2  0  0  0  0  0  0
  184.7200  174.6930  137.6770 C   0  0  0  0  0  3  0  0  0  0  0  0
  183.0960  177.0060  135.8810 F   0  0  0  0  0  0  0  0  0  0  0  0
  185.2290  176.7650  136.8690 C   0  0  0  0  0  0  0  0  0  0  0  0
  183.7570  176.8310  137.0870 C   0  0  1  0  0  0  0  0  0  0  0  0
  185.7000  175.4450  137.2190 C   0  0  0  0  0  0  0  0  0  0  0  0
  183.4260  175.4520  137.6820 C   0  0  0  0  0  2  0  0  0  0  0  0
  187.0130  175.0090  137.0950 O   0  0  0  0  0  1  0  0  0  0  0  0
  185.9510  177.6750  136.2280 C   0  0  0  0  0  2  0  0  0  0  0  0
  186.6200  177.7290  141.0330 N   0  0  0  0  0  2  0  0  0  0  0  0
  188.0250  178.2470  139.1130 C   0  0  0  0  0  2  0  0  0  0  0  0
  189.0550  177.4550  141.1660 C   0  0  2  0  0  3  0  0  0  0  0  0
  189.9840  177.1450  139.9880 C   0  0  1  0  0  3  0  0  0  0  0  0
  187.9000  178.2950  140.6230 C   0  0  2  0  0  3  0  0  0  0  0  0
  189.4960  177.9990  138.8330 C   0  0  1  0  0  3  0  0  0  0  0  0
  191.3200  177.4300  140.2630 O   0  0  0  0  0  1  0  0  0  0  0  0
  189.7060  177.3330  137.5000 C   0  0  0  0  0  0  0  0  0  0  0  0
  190.1920  176.1720  137.4380 O   0  0  0  0  0  0  0  0  0  0  0  0
  189.4340  178.0390  136.2940 N   0  0  0  0  0  1  0  0  0  0  0  0
  189.7290  178.0790  142.3140 N   0  0  0  0  0  2  0  0  0  0  0  0
  190.0800  177.0850  143.3280 C   0  0  0  0  0  2  0  0  0  0  0  0
  191.3580  177.4270  143.9370 N   0  0  0  0  0  0  0  0  0  0  0  0
  191.3100  176.9860  145.3230 C   0  0  0  0  0  1  0  0  0  0  0  0
  191.4230  178.8770  143.9650 C   0  0  0  0  0  1  0  0  0  0  0  0
  1 14  1  6  0  0  0
  1  5  1  0  0  0  0
  2  6  2  0  0  0  0
  2  7  1  0  0  0  0
  3  7  2  0  0  0  0
  4 11  2  0  0  0  0
  5  8  2  0  0  0  0
  5  2  1  0  0  0  0
  6  4  1  0  0  0  0
  7  9  1  0  0  0  0
  8  3  1  0  0  0  0
  9 12  2  0  0  0  0
 11 12  1  0  0  0  0
 11 10  1  0  0  0  0
 13 14  1  0  0  0  0
 15 14  2  0  0  0  0
 16 13  1  0  0  0  0
 17 22  1  0  0  0  0
 19 20  1  0  0  0  0
 19 21  1  0  0  0  0
 20 18  1  6  0  0  0
 20 22  1  0  0  0  0
 20 16  1  0  0  0  0
 21 17  2  0  0  0  0
 23 21  1  0  0  0  0
 24 19  2  0  0  0  0
 25  1  1  0  0  0  0
 26 29  1  0  0  0  0
 27 35  1  1  0  0  0
 28 31  1  1  0  0  0
 28 27  1  0  0  0  0
 29 25  1  6  0  0  0
 29 27  1  0  0  0  0
 30 32  1  6  0  0  0
 30 26  1  0  0  0  0
 30 28  1  0  0  0  0
 33 32  2  0  0  0  0
 34 32  1  0  0  0  0
 35 36  1  0  0  0  0
 36 37  1  0  0  0  0
 37 39  1  0  0  0  0
 37 38  1  0  0  0  0
M  END
>  <MODEL>
4

>  <REMARK>
 VINA RESULT:      -8.5      1.765      2.202
  Name = 
  10 active torsions:
  status: ('A' for Active; 'I' for Inactive)
    1  A    between atoms: C_4  and  N_9
    2  A    between atoms: C_4  and  N_18
    3  A    between atoms: C_7  and  N_18
    4  A    between atoms: N_8  and  C_37
    5  A    between atoms: C_10  and  C_37
    6  A    between atoms: C_12  and  C_16
    7  A    between atoms: C_16  and  C_19
    8  A    between atoms: C_16  and  N_27
    9  A    between atoms: C_23  and  C_34
   10  A    between atoms: N_27  and  C_32
                            x       y       z     vdW  Elec       q    Type
                         _______ _______ _______ _____ _____    ______ ____

>  <TORSDO>
F 10

$$$$
=
 OpenBabel11042411033D

 39 42  0  0  1  0  0  0  0  0999 V2000
  184.4620  178.4720  141.9230 C   0  0  2  0  0  3  0  0  0  0  0  0
  185.2820  178.3540  144.4050 C   0  0  0  0  0  0  0  0  0  0  0  0
  183.4700  179.3750  145.3610 N   0  0  0  0  0  0  0  0  0  0  0  0
  187.4190  177.4220  145.2190 C   0  0  0  0  0  3  0  0  0  0  0  0
  184.3660  178.6750  143.4150 C   0  0  0  0  0  0  0  0  0  0  0  0
  186.5070  177.7400  144.2280 C   0  0  0  0  0  3  0  0  0  0  0  0
  184.6650  178.8170  145.6290 C   0  0  0  0  0  0  0  0  0  0  0  0
  183.2850  179.2920  144.0260 C   0  0  0  0  0  3  0  0  0  0  0  0
  185.1460  178.7300  146.8860 N   0  0  0  0  0  0  0  0  0  0  0  0
  188.5160  177.1460  147.3820 C   0  0  0  0  0  1  0  0  0  0  0  0
  187.3490  177.6230  146.5960 C   0  0  0  0  0  0  0  0  0  0  0  0
  186.3180  178.2140  147.3290 C   0  0  0  0  0  3  0  0  0  0  0  0
  186.9810  178.3580  141.9030 N   0  0  0  0  0  2  0  0  0  0  0  0
  185.7770  178.7830  141.2670 C   0  0  0  0  0  0  0  0  0  0  0  0
  185.8240  179.3740  140.1560 O   0  0  0  0  0  0  0  0  0  0  0  0
  188.2930  178.6280  141.3330 C   0  0  0  0  0  2  0  0  0  0  0  0
  191.5650  177.8760  142.4230 C   0  0  0  0  0  3  0  0  0  0  0  0
  188.6090  176.3550  142.0270 F   0  0  0  0  0  0  0  0  0  0  0  0
  190.2700  177.2970  140.6360 C   0  0  0  0  0  0  0  0  0  0  0  0
  189.2770  177.5300  141.7220 C   0  0  1  0  0  0  0  0  0  0  0  0
  191.6010  177.4980  141.1620 C   0  0  0  0  0  0  0  0  0  0  0  0
  190.1490  177.9720  142.9090 C   0  0  0  0  0  2  0  0  0  0  0  0
  192.7760  177.3190  140.4430 O   0  0  0  0  0  1  0  0  0  0  0  0
  190.0020  176.7560  139.4550 C   0  0  0  0  0  2  0  0  0  0  0  0
  183.2920  178.9470  141.1790 N   0  0  0  0  0  2  0  0  0  0  0  0
  183.0560  176.7490  140.1590 C   0  0  0  0  0  2  0  0  0  0  0  0
  181.2170  178.3300  140.0250 C   0  0  2  0  0  3  0  0  0  0  0  0
  181.1000  177.3280  138.8720 C   0  0  1  0  0  3  0  0  0  0  0  0
  182.3580  177.8570  140.9230 C   0  0  2  0  0  3  0  0  0  0  0  0
  182.0030  176.1640  139.2360 C   0  0  1  0  0  3  0  0  0  0  0  0
  179.7950  176.8790  138.6760 O   0  0  0  0  0  1  0  0  0  0  0  0
  182.6190  175.5180  138.0240 C   0  0  0  0  0  0  0  0  0  0  0  0
  182.0010  174.6150  137.4000 O   0  0  0  0  0  0  0  0  0  0  0  0
  183.9400  175.8650  137.6190 N   0  0  0  0  0  1  0  0  0  0  0  0
  179.9610  178.5500  140.7590 N   0  0  0  0  0  2  0  0  0  0  0  0
  179.9990  177.9150  142.0760 C   0  0  0  0  0  2  0  0  0  0  0  0
  179.2060  178.6870  143.0220 N   0  0  0  0  0  0  0  0  0  0  0  0
  179.5230  180.0920  142.8110 C   0  0  0  0  0  1  0  0  0  0  0  0
  179.6990  178.3450  144.3440 C   0  0  0  0  0  1  0  0  0  0  0  0
  1 25  1  6  0  0  0
  1  5  1  0  0  0  0
  2  7  1  0  0  0  0
  3  7  2  0  0  0  0
  4 11  2  0  0  0  0
  5  8  2  0  0  0  0
  5  2  1  0  0  0  0
  6  2  2  0  0  0  0
  6  4  1  0  0  0  0
  7  9  1  0  0  0  0
  8  3  1  0  0  0  0
  9 12  2  0  0  0  0
 11 12  1  0  0  0  0
 11 10  1  0  0  0  0
 14 13  1  0  0  0  0
 14  1  1  0  0  0  0
 15 14  2  0  0  0  0
 16 20  1  0  0  0  0
 16 13  1  0  0  0  0
 17 22  1  0  0  0  0
 19 21  1  0  0  0  0
 19 20  1  0  0  0  0
 20 18  1  1  0  0  0
 20 22  1  0  0  0  0
 21 17  2  0  0  0  0
 23 21  1  0  0  0  0
 24 19  2  0  0  0  0
 26 29  1  0  0  0  0
 27 35  1  1  0  0  0
 27 29  1  0  0  0  0
 28 31  1  1  0  0  0
 28 30  1  0  0  0  0
 28 27  1  0  0  0  0
 29 25  1  6  0  0  0
 30 32  1  6  0  0  0
 30 26  1  0  0  0  0
 33 32  2  0  0  0  0
 34 32  1  0  0  0  0
 35 36  1  0  0  0  0
 36 37  1  0  0  0  0
 37 39  1  0  0  0  0
 38 37  1  0  0  0  0
M  END
>  <MODEL>
5

>  <REMARK>
 VINA RESULT:      -8.5      2.225      7.207
  Name = 
  10 active torsions:
  status: ('A' for Active; 'I' for Inactive)
    1  A    between atoms: C_4  and  N_9
    2  A    between atoms: C_4  and  N_18
    3  A    between atoms: C_7  and  N_18
    4  A    between atoms: N_8  and  C_37
    5  A    between atoms: C_10  and  C_37
    6  A    between atoms: C_12  and  C_16
    7  A    between atoms: C_16  and  C_19
    8  A    between atoms: C_16  and  N_27
    9  A    between atoms: C_23  and  C_34
   10  A    between atoms: N_27  and  C_32
                            x       y       z     vdW  Elec       q    Type
                         _______ _______ _______ _____ _____    ______ ____

>  <TORSDO>
F 10

$$$$
=
 OpenBabel11042411033D

 39 42  0  0  1  0  0  0  0  0999 V2000
  190.0010  177.2440  140.7360 C   0  0  2  0  0  3  0  0  0  0  0  0
  191.6030  176.5960  138.7710 C   0  0  0  0  0  0  0  0  0  0  0  0
  193.5510  177.3180  139.7320 N   0  0  0  0  0  0  0  0  0  0  0  0
  190.9680  175.5710  136.6160 C   0  0  0  0  0  3  0  0  0  0  0  0
  191.3280  177.1030  140.0320 C   0  0  0  0  0  0  0  0  0  0  0  0
  190.6900  176.0760  137.8740 C   0  0  0  0  0  3  0  0  0  0  0  0
  193.0340  176.7510  138.6260 C   0  0  0  0  0  0  0  0  0  0  0  0
  192.5250  177.5330  140.5830 C   0  0  0  0  0  3  0  0  0  0  0  0
  193.8060  176.3990  137.5770 N   0  0  0  0  0  0  0  0  0  0  0  0
  192.1300  174.8490  134.5940 C   0  0  0  0  0  1  0  0  0  0  0  0
  192.1860  175.4550  135.9490 C   0  0  0  0  0  0  0  0  0  0  0  0
  193.4540  175.8330  136.3970 C   0  0  0  0  0  3  0  0  0  0  0  0
  188.9080  177.1380  143.0060 N   0  0  0  0  0  2  0  0  0  0  0  0
  189.8680  176.6110  142.0920 C   0  0  0  0  0  0  0  0  0  0  0  0
  190.5590  175.6080  142.4100 O   0  0  0  0  0  0  0  0  0  0  0  0
  188.7250  176.5840  144.3400 C   0  0  0  0  0  2  0  0  0  0  0  0
  189.8880  177.0970  147.6320 C   0  0  0  0  0  3  0  0  0  0  0  0
  189.3760  178.8410  144.8210 F   0  0  0  0  0  0  0  0  0  0  0  0
  188.0530  177.7330  146.4360 C   0  0  0  0  0  0  0  0  0  0  0  0
  189.1160  177.6090  145.3990 C   0  0  1  0  0  0  0  0  0  0  0  0
  188.6200  177.4390  147.7310 C   0  0  0  0  0  0  0  0  0  0  0  0
  190.3370  177.1270  146.2010 C   0  0  0  0  0  2  0  0  0  0  0  0
  187.9300  177.5050  148.9350 O   0  0  0  0  0  1  0  0  0  0  0  0
  186.8530  178.2640  146.2420 C   0  0  0  0  0  2  0  0  0  0  0  0
  188.8390  177.0480  139.8650 N   0  0  0  0  0  2  0  0  0  0  0  0
  187.2660  178.3980  141.1420 C   0  0  0  0  0  2  0  0  0  0  0  0
  186.9290  178.1140  138.7530 C   0  0  2  0  0  3  0  0  0  0  0  0
  185.5870  178.4520  139.4120 C   0  0  1  0  0  3  0  0  0  0  0  0
  188.0060  178.2440  139.8280 C   0  0  2  0  0  3  0  0  0  0  0  0
  185.9210  179.0030  140.7850 C   0  0  1  0  0  3  0  0  0  0  0  0
  184.8480  179.3850  138.6870 O   0  0  0  0  0  1  0  0  0  0  0  0
  184.8690  178.6690  141.8070 C   0  0  0  0  0  0  0  0  0  0  0  0
  183.8520  178.0000  141.4790 O   0  0  0  0  0  0  0  0  0  0  0  0
  184.9710  179.1740  143.1350 N   0  0  0  0  0  1  0  0  0  0  0  0
  187.2210  178.9030  137.5480 N   0  0  0  0  0  2  0  0  0  0  0  0
  187.8450  178.0800  136.5120 C   0  0  0  0  0  2  0  0  0  0  0  0
  186.9750  176.9610  136.1760 N   0  0  0  0  0  0  0  0  0  0  0  0
  187.7230  176.0790  135.2930 C   0  0  0  0  0  1  0  0  0  0  0  0
  185.8880  177.5120  135.3880 C   0  0  0  0  0  1  0  0  0  0  0  0
  1 25  1  6  0  0  0
  1 14  1  0  0  0  0
  2  5  1  0  0  0  0
  3  8  1  0  0  0  0
  4  6  1  0  0  0  0
  5  8  2  0  0  0  0
  5  1  1  0  0  0  0
  6  2  2  0  0  0  0
  7  2  1  0  0  0  0
  7  3  2  0  0  0  0
  9  7  1  0  0  0  0
 10 11  1  0  0  0  0
 11 12  1  0  0  0  0
 11  4  2  0  0  0  0
 12  9  2  0  0  0  0
 13 16  1  0  0  0  0
 14 15  2  0  0  0  0
 14 13  1  0  0  0  0
 16 20  1  0  0  0  0
 17 21  2  0  0  0  0
 19 21  1  0  0  0  0
 20 18  1  6  0  0  0
 20 22  1  0  0  0  0
 20 19  1  0  0  0  0
 21 23  1  0  0  0  0
 22 17  1  0  0  0  0
 24 19  2  0  0  0  0
 27 35  1  6  0  0  0
 27 28  1  0  0  0  0
 27 29  1  0  0  0  0
 28 31  1  6  0  0  0
 28 30  1  0  0  0  0
 29 25  1  1  0  0  0
 29 26  1  0  0  0  0
 30 26  1  0  0  0  0
 30 32  1  1  0  0  0
 32 34  1  0  0  0  0
 33 32  2  0  0  0  0
 36 35  1  0  0  0  0
 37 36  1  0  0  0  0
 38 37  1  0  0  0  0
 39 37  1  0  0  0  0
M  END
>  <MODEL>
6

>  <REMARK>
 VINA RESULT:      -8.3      3.216      9.131
  Name = 
  10 active torsions:
  status: ('A' for Active; 'I' for Inactive)
    1  A    between atoms: C_4  and  N_9
    2  A    between atoms: C_4  and  N_18
    3  A    between atoms: C_7  and  N_18
    4  A    between atoms: N_8  and  C_37
    5  A    between atoms: C_10  and  C_37
    6  A    between atoms: C_12  and  C_16
    7  A    between atoms: C_16  and  C_19
    8  A    between atoms: C_16  and  N_27
    9  A    between atoms: C_23  and  C_34
   10  A    between atoms: N_27  and  C_32
                            x       y       z     vdW  Elec       q    Type
                         _______ _______ _______ _____ _____    ______ ____

>  <TORSDO>
F 10

$$$$
=
 OpenBabel11042411033D

 39 42  0  0  1  0  0  0  0  0999 V2000
  186.6320  177.7010  142.3770 C   0  0  2  0  0  3  0  0  0  0  0  0
  184.0910  178.2600  142.1010 C   0  0  0  0  0  0  0  0  0  0  0  0
  183.8430  179.4590  144.0350 N   0  0  0  0  0  0  0  0  0  0  0  0
  182.6090  177.5570  140.2540 C   0  0  0  0  0  3  0  0  0  0  0  0
  185.3100  178.3200  142.7580 C   0  0  0  0  0  0  0  0  0  0  0  0
  183.8280  177.6160  140.9070 C   0  0  0  0  0  3  0  0  0  0  0  0
  183.1870  179.0030  142.9520 C   0  0  0  0  0  0  0  0  0  0  0  0
  185.1250  179.0480  143.9230 C   0  0  0  0  0  3  0  0  0  0  0  0
  181.8760  179.2530  142.7540 N   0  0  0  0  0  0  0  0  0  0  0  0
  180.2600  177.8580  139.6630 C   0  0  0  0  0  1  0  0  0  0  0  0
  181.3790  178.1080  140.6070 C   0  0  0  0  0  0  0  0  0  0  0  0
  181.0680  178.8680  141.7370 C   0  0  0  0  0  3  0  0  0  0  0  0
  187.5950  177.6640  144.7080 N   0  0  0  0  0  2  0  0  0  0  0  0
  187.4040  177.0010  143.4590 C   0  0  0  0  0  0  0  0  0  0  0  0
  187.8460  175.8340  143.2900 O   0  0  0  0  0  0  0  0  0  0  0  0
  188.3370  177.0540  145.8010 C   0  0  0  0  0  2  0  0  0  0  0  0
  191.7740  176.2520  145.8360 C   0  0  0  0  0  3  0  0  0  0  0  0
  189.7960  178.9280  145.4680 F   0  0  0  0  0  0  0  0  0  0  0  0
  190.3600  177.4160  147.1950 C   0  0  0  0  0  0  0  0  0  0  0  0
  189.7620  177.5940  145.8420 C   0  0  1  0  0  0  0  0  0  0  0  0
  191.5670  176.6310  147.0800 C   0  0  0  0  0  0  0  0  0  0  0  0
  190.6870  176.7630  144.9370 C   0  0  0  0  0  2  0  0  0  0  0  0
  192.4110  176.3110  148.1350 O   0  0  0  0  0  1  0  0  0  0  0  0
  189.9900  178.0720  148.2870 C   0  0  0  0  0  2  0  0  0  0  0  0
  187.4540  178.5380  141.4990 N   0  0  0  0  0  2  0  0  0  0  0  0
  189.2660  177.1340  140.6810 C   0  0  0  0  0  2  0  0  0  0  0  0
  188.1990  178.7060  139.1670 C   0  0  2  0  0  3  0  0  0  0  0  0
  189.6100  178.3990  138.6570 C   0  0  1  0  0  3  0  0  0  0  0  0
  187.9340  177.7780  140.3510 C   0  0  2  0  0  3  0  0  0  0  0  0
  190.0570  177.1450  139.3850 C   0  0  1  0  0  3  0  0  0  0  0  0
  189.6550  178.1940  137.2790 O   0  0  0  0  0  1  0  0  0  0  0  0
  191.5400  177.1270  139.6360 C   0  0  0  0  0  0  0  0  0  0  0  0
  192.0060  177.5360  140.7330 O   0  0  0  0  0  0  0  0  0  0  0  0
  192.4370  176.7240  138.6060 N   0  0  0  0  0  1  0  0  0  0  0  0
  187.1570  178.6280  138.1330 N   0  0  0  0  0  2  0  0  0  0  0  0
  186.3980  177.3820  138.2360 C   0  0  0  0  0  2  0  0  0  0  0  0
  186.4790  176.6450  136.9830 N   0  0  0  0  0  0  0  0  0  0  0  0
  185.1690  176.0610  136.7360 C   0  0  0  0  0  1  0  0  0  0  0  0
  187.3890  175.5390  137.2180 C   0  0  0  0  0  1  0  0  0  0  0  0
  1 25  1  1  0  0  0
  1  5  1  0  0  0  0
  1 14  1  0  0  0  0
  2  5  1  0  0  0  0
  2  7  1  0  0  0  0
  4 11  2  0  0  0  0
  4  6  1  0  0  0  0
  5  8  2  0  0  0  0
  6  2  2  0  0  0  0
  7  3  2  0  0  0  0
  8  3  1  0  0  0  0
  9  7  1  0  0  0  0
 10 11  1  0  0  0  0
 11 12  1  0  0  0  0
 12  9  2  0  0  0  0
 13 16  1  0  0  0  0
 14 13  1  0  0  0  0
 15 14  2  0  0  0  0
 16 20  1  0  0  0  0
 17 21  2  0  0  0  0
 19 24  2  0  0  0  0
 20 18  1  6  0  0  0
 20 19  1  0  0  0  0
 21 19  1  0  0  0  0
 21 23  1  0  0  0  0
 22 17  1  0  0  0  0
 22 20  1  0  0  0  0
 27 35  1  6  0  0  0
 27 29  1  0  0  0  0
 28 31  1  6  0  0  0
 28 27  1  0  0  0  0
 28 30  1  0  0  0  0
 29 26  1  0  0  0  0
 29 25  1  1  0  0  0
 30 32  1  1  0  0  0
 30 26  1  0  0  0  0
 32 33  2  0  0  0  0
 34 32  1  0  0  0  0
 35 36  1  0  0  0  0
 37 39  1  0  0  0  0
 37 36  1  0  0  0  0
 38 37  1  0  0  0  0
M  END
>  <MODEL>
7

>  <REMARK>
 VINA RESULT:      -8.3      2.935      7.658
  Name = 
  10 active torsions:
  status: ('A' for Active; 'I' for Inactive)
    1  A    between atoms: C_4  and  N_9
    2  A    between atoms: C_4  and  N_18
    3  A    between atoms: C_7  and  N_18
    4  A    between atoms: N_8  and  C_37
    5  A    between atoms: C_10  and  C_37
    6  A    between atoms: C_12  and  C_16
    7  A    between atoms: C_16  and  C_19
    8  A    between atoms: C_16  and  N_27
    9  A    between atoms: C_23  and  C_34
   10  A    between atoms: N_27  and  C_32
                            x       y       z     vdW  Elec       q    Type
                         _______ _______ _______ _____ _____    ______ ____

>  <TORSDO>
F 10

$$$$
=
 OpenBabel11042411033D

 39 42  0  0  1  0  0  0  0  0999 V2000
  184.2970  178.4580  141.6520 C   0  0  2  0  0  3  0  0  0  0  0  0
  185.1970  178.3640  144.1070 C   0  0  0  0  0  0  0  0  0  0  0  0
  183.3890  179.3370  145.1190 N   0  0  0  0  0  0  0  0  0  0  0  0
  187.3820  177.4890  144.8550 C   0  0  0  0  0  3  0  0  0  0  0  0
  184.2420  178.6600  143.1460 C   0  0  0  0  0  0  0  0  0  0  0  0
  186.4310  177.7820  143.8920 C   0  0  0  0  0  3  0  0  0  0  0  0
  184.6060  178.8110  145.3500 C   0  0  0  0  0  0  0  0  0  0  0  0
  183.1660  179.2490  143.7900 C   0  0  0  0  0  3  0  0  0  0  0  0
  185.1280  178.7380  146.5920 N   0  0  0  0  0  0  0  0  0  0  0  0
  188.5520  177.2440  146.9830 C   0  0  0  0  0  1  0  0  0  0  0  0
  187.3490  177.6890  146.2330 C   0  0  0  0  0  0  0  0  0  0  0  0
  186.3260  178.2540  146.9980 C   0  0  0  0  0  3  0  0  0  0  0  0
  185.9780  178.0150  139.8240 N   0  0  0  0  0  2  0  0  0  0  0  0
  185.5880  178.7880  140.9580 C   0  0  0  0  0  0  0  0  0  0  0  0
  186.3010  179.7540  141.3390 O   0  0  0  0  0  0  0  0  0  0  0  0
  187.2170  178.2690  139.1040 C   0  0  0  0  0  2  0  0  0  0  0  0
  186.0120  175.8780  136.8040 C   0  0  0  0  0  3  0  0  0  0  0  0
  187.2170  179.0020  136.8210 F   0  0  0  0  0  0  0  0  0  0  0  0
  188.0360  176.8280  137.2550 C   0  0  0  0  0  0  0  0  0  0  0  0
  187.0630  177.8910  137.6340 C   0  0  1  0  0  0  0  0  0  0  0  0
  187.3140  175.6870  136.7450 C   0  0  0  0  0  0  0  0  0  0  0  0
  185.6990  177.2270  137.3800 C   0  0  0  0  0  2  0  0  0  0  0  0
  187.9010  174.5290  136.2510 O   0  0  0  0  0  1  0  0  0  0  0  0
  189.3500  176.9900  137.1640 C   0  0  0  0  0  2  0  0  0  0  0  0
  183.1000  178.9170  140.9430 N   0  0  0  0  0  2  0  0  0  0  0  0
  182.8530  176.7390  139.8810 C   0  0  0  0  0  2  0  0  0  0  0  0
  180.9770  178.2820  139.8890 C   0  0  2  0  0  3  0  0  0  0  0  0
  180.8170  177.3060  138.7190 C   0  0  1  0  0  3  0  0  0  0  0  0
  182.1760  177.8130  140.7100 C   0  0  2  0  0  3  0  0  0  0  0  0
  181.7630  176.1540  139.0020 C   0  0  1  0  0  3  0  0  0  0  0  0
  179.5130  176.8330  138.5840 O   0  0  0  0  0  1  0  0  0  0  0  0
  182.3240  175.5520  137.7430 C   0  0  0  0  0  0  0  0  0  0  0  0
  183.0040  174.4920  137.7910 O   0  0  0  0  0  0  0  0  0  0  0  0
  182.1590  176.2170  136.4940 N   0  0  0  0  0  1  0  0  0  0  0  0
  179.7600  178.4560  140.6960 N   0  0  0  0  0  2  0  0  0  0  0  0
  179.9880  178.0720  142.0890 C   0  0  0  0  0  2  0  0  0  0  0  0
  179.2360  178.9480  142.9760 N   0  0  0  0  0  0  0  0  0  0  0  0
  179.6890  180.3090  142.7300 C   0  0  0  0  0  1  0  0  0  0  0  0
  179.6460  178.6130  144.3270 C   0  0  0  0  0  1  0  0  0  0  0  0
  1 25  1  6  0  0  0
  1  5  1  0  0  0  0
  2  7  1  0  0  0  0
  3  7  2  0  0  0  0
  4 11  2  0  0  0  0
  5  8  2  0  0  0  0
  5  2  1  0  0  0  0
  6  2  2  0  0  0  0
  6  4  1  0  0  0  0
  7  9  1  0  0  0  0
  8  3  1  0  0  0  0
  9 12  2  0  0  0  0
 11 10  1  0  0  0  0
 11 12  1  0  0  0  0
 13 14  1  0  0  0  0
 14 15  2  0  0  0  0
 14  1  1  0  0  0  0
 16 13  1  0  0  0  0
 17 22  1  0  0  0  0
 19 20  1  0  0  0  0
 20 18  1  6  0  0  0
 20 16  1  0  0  0  0
 21 17  2  0  0  0  0
 21 19  1  0  0  0  0
 22 20  1  0  0  0  0
 23 21  1  0  0  0  0
 24 19  2  0  0  0  0
 26 29  1  0  0  0  0
 27 35  1  1  0  0  0
 27 29  1  0  0  0  0
 28 31  1  1  0  0  0
 28 30  1  0  0  0  0
 28 27  1  0  0  0  0
 29 25  1  6  0  0  0
 30 32  1  6  0  0  0
 30 26  1  0  0  0  0
 32 33  2  0  0  0  0
 34 32  1  0  0  0  0
 35 36  1  0  0  0  0
 36 37  1  0  0  0  0
 37 39  1  0  0  0  0
 38 37  1  0  0  0  0
M  END
>  <MODEL>
8

>  <REMARK>
 VINA RESULT:      -8.2      2.752      6.451
  Name = 
  10 active torsions:
  status: ('A' for Active; 'I' for Inactive)
    1  A    between atoms: C_4  and  N_9
    2  A    between atoms: C_4  and  N_18
    3  A    between atoms: C_7  and  N_18
    4  A    between atoms: N_8  and  C_37
    5  A    between atoms: C_10  and  C_37
    6  A    between atoms: C_12  and  C_16
    7  A    between atoms: C_16  and  C_19
    8  A    between atoms: C_16  and  N_27
    9  A    between atoms: C_23  and  C_34
   10  A    between atoms: N_27  and  C_32
                            x       y       z     vdW  Elec       q    Type
                         _______ _______ _______ _____ _____    ______ ____

>  <TORSDO>
F 10

$$$$
=
 OpenBabel11042411033D

 39 42  0  0  1  0  0  0  0  0999 V2000
  187.5140  178.6780  141.4340 C   0  0  2  0  0  3  0  0  0  0  0  0
  188.9280  177.7080  139.4580 C   0  0  0  0  0  0  0  0  0  0  0  0
  187.2850  177.7680  137.8650 N   0  0  0  0  0  0  0  0  0  0  0  0
  191.2860  176.9770  139.5390 C   0  0  0  0  0  3  0  0  0  0  0  0
  187.7720  178.2310  140.0160 C   0  0  0  0  0  0  0  0  0  0  0  0
  190.1340  177.5000  140.1000 C   0  0  0  0  0  3  0  0  0  0  0  0
  188.5700  177.4310  138.0840 C   0  0  0  0  0  0  0  0  0  0  0  0
  186.7990  178.2500  139.0290 C   0  0  0  0  0  3  0  0  0  0  0  0
  189.3500  176.9220  137.1080 N   0  0  0  0  0  0  0  0  0  0  0  0
  192.8990  176.0400  137.9650 C   0  0  0  0  0  1  0  0  0  0  0  0
  191.5280  176.5430  138.2370 C   0  0  0  0  0  0  0  0  0  0  0  0
  190.6450  176.5260  137.1560 C   0  0  0  0  0  3  0  0  0  0  0  0
  188.5110  178.1840  143.6980 N   0  0  0  0  0  2  0  0  0  0  0  0
  187.8390  177.7070  142.5330 C   0  0  0  0  0  0  0  0  0  0  0  0
  187.4930  176.4980  142.4550 O   0  0  0  0  0  0  0  0  0  0  0  0
  188.8660  177.3040  144.8010 C   0  0  0  0  0  2  0  0  0  0  0  0
  192.0560  175.9090  145.3810 C   0  0  0  0  0  3  0  0  0  0  0  0
  190.5990  178.9170  145.1790 F   0  0  0  0  0  0  0  0  0  0  0  0
  190.5270  177.0530  146.6290 C   0  0  0  0  0  0  0  0  0  0  0  0
  190.3000  177.5660  145.2490 C   0  0  1  0  0  0  0  0  0  0  0  0
  191.6100  176.0980  146.6060 C   0  0  0  0  0  0  0  0  0  0  0  0
  191.2940  176.7540  144.4030 C   0  0  0  0  0  2  0  0  0  0  0  0
  192.1280  175.4540  147.7230 O   0  0  0  0  0  1  0  0  0  0  0  0
  189.9990  177.5650  147.7340 C   0  0  0  0  0  2  0  0  0  0  0  0
  186.2450  179.3870  141.6150 N   0  0  0  0  0  2  0  0  0  0  0  0
  184.0870  178.3570  141.1540 C   0  0  0  0  0  2  0  0  0  0  0  0
  184.5990  179.0930  143.4110 C   0  0  2  0  0  3  0  0  0  0  0  0
  183.0780  179.0510  143.2310 C   0  0  1  0  0  3  0  0  0  0  0  0
  185.2210  178.4960  142.1500 C   0  0  2  0  0  3  0  0  0  0  0  0
  182.8260  178.2210  141.9870 C   0  0  1  0  0  3  0  0  0  0  0  0
  182.4190  178.4900  144.3240 O   0  0  0  0  0  1  0  0  0  0  0  0
  181.6060  178.6770  141.2330 C   0  0  0  0  0  0  0  0  0  0  0  0
  180.8220  179.5220  141.7420 O   0  0  0  0  0  0  0  0  0  0  0  0
  181.2840  178.0990  139.9720 N   0  0  0  0  0  1  0  0  0  0  0  0
  185.0750  178.4490  144.6460 N   0  0  0  0  0  2  0  0  0  0  0  0
  185.6830  179.4240  145.5510 C   0  0  0  0  0  2  0  0  0  0  0  0
  185.4110  179.0550  146.9330 N   0  0  0  0  0  0  0  0  0  0  0  0
  186.6700  178.6290  147.5260 C   0  0  0  0  0  1  0  0  0  0  0  0
  184.5590  177.8810  146.8830 C   0  0  0  0  0  1  0  0  0  0  0  0
  1 25  1  6  0  0  0
  1 14  1  0  0  0  0
  2  5  1  0  0  0  0
  2  6  2  0  0  0  0
  3  7  2  0  0  0  0
  3  8  1  0  0  0  0
  4  6  1  0  0  0  0
  5  1  1  0  0  0  0
  7  2  1  0  0  0  0
  8  5  2  0  0  0  0
  9 12  2  0  0  0  0
  9  7  1  0  0  0  0
 10 11  1  0  0  0  0
 11  4  2  0  0  0  0
 12 11  1  0  0  0  0
 13 16  1  0  0  0  0
 14 13  1  0  0  0  0
 15 14  2  0  0  0  0
 16 20  1  0  0  0  0
 17 21  2  0  0  0  0
 19 24  2  0  0  0  0
 20 18  1  6  0  0  0
 20 19  1  0  0  0  0
 21 19  1  0  0  0  0
 21 23  1  0  0  0  0
 22 20  1  0  0  0  0
 22 17  1  0  0  0  0
 26 30  1  0  0  0  0
 26 29  1  0  0  0  0
 27 35  1  1  0  0  0
 28 27  1  0  0  0  0
 28 31  1  1  0  0  0
 29 25  1  6  0  0  0
 29 27  1  0  0  0  0
 30 32  1  6  0  0  0
 30 28  1  0  0  0  0
 32 33  2  0  0  0  0
 34 32  1  0  0  0  0
 35 36  1  0  0  0  0
 36 37  1  0  0  0  0
 37 38  1  0  0  0  0
 39 37  1  0  0  0  0
M  END
>  <MODEL>
9

>  <REMARK>
 VINA RESULT:      -8.0      3.096      8.589
  Name = 
  10 active torsions:
  status: ('A' for Active; 'I' for Inactive)
    1  A    between atoms: C_4  and  N_9
    2  A    between atoms: C_4  and  N_18
    3  A    between atoms: C_7  and  N_18
    4  A    between atoms: N_8  and  C_37
    5  A    between atoms: C_10  and  C_37
    6  A    between atoms: C_12  and  C_16
    7  A    between atoms: C_16  and  C_19
    8  A    between atoms: C_16  and  N_27
    9  A    between atoms: C_23  and  C_34
   10  A    between atoms: N_27  and  C_32
                            x       y       z     vdW  Elec       q    Type
                         _______ _______ _______ _____ _____    ______ ____

>  <TORSDO>
F 10

$$$$
