=
 OpenBabel11042410483D

 49 52  0  0  1  0  0  0  0  0999 V2000
  180.6310  174.4630  137.1120 C   0  0  2  0  0  3  0  0  0  0  0  0
  180.4310  175.8880  136.6170 C   0  0  0  0  0  2  0  0  0  0  0  0
  182.3790  175.8390  138.0390 C   0  0  2  0  0  3  0  0  0  0  0  0
  182.0800  174.3930  137.6160 C   0  0  2  0  0  3  0  0  0  0  0  0
  181.4380  176.6710  137.3040 N   0  0  0  0  0  0  0  0  0  0  0  0
  180.6610  179.7990  139.2260 C   0  0  0  0  0  0  0  0  0  0  0  0
  180.6340  177.4430  139.9330 N   0  0  0  0  0  1  0  0  0  0  0  0
  181.4120  179.0170  136.6380 C   0  0  0  0  0  3  0  0  0  0  0  0
  180.8800  180.7710  138.2310 C   0  0  0  0  0  0  0  0  0  0  0  0
  181.2100  178.0470  137.6230 C   0  0  0  0  0  0  0  0  0  0  0  0
  181.2490  180.3680  136.9390 C   0  0  0  0  0  3  0  0  0  0  0  0
  180.8340  178.4350  138.9230 C   0  0  0  0  0  0  0  0  0  0  0  0
  180.2700  180.2050  140.5590 C   0  0  0  0  0  0  0  0  0  0  0  0
  179.9610  180.5320  141.6270 N   0  0  0  0  0  0  0  0  0  0  0  0
  180.7210  182.1620  138.5400 N   0  0  0  0  0  2  0  0  0  0  0  0
  180.1090  183.1300  137.6370 C   0  0  0  0  0  2  0  0  0  0  0  0
  181.3820  183.9120  135.8060 F   0  0  0  0  0  0  0  0  0  0  0  0
  182.3210  183.9880  137.8530 F   0  0  0  0  0  0  0  0  0  0  0  0
  181.1410  184.1330  137.1480 C   0  0  0  0  0  0  0  0  0  0  0  0
  180.6660  185.4190  137.3160 F   0  0  0  0  0  0  0  0  0  0  0  0
  184.1310  176.8520  136.4760 C   0  0  0  0  0  2  0  0  0  0  0  0
  185.1580  178.3060  138.1120 C   0  0  2  0  0  3  0  0  0  0  0  0
  184.2360  177.3430  138.8470 C   0  0  0  0  0  2  0  0  0  0  0  0
  185.2890  177.7970  136.6900 C   0  0  0  0  0  2  0  0  0  0  0  0
  183.8430  176.2730  137.8480 C   0  0  1  0  0  3  0  0  0  0  0  0
  186.5660  178.5370  139.9550 N   0  0  0  0  0  0  0  0  0  0  0  0
  186.4540  178.3230  138.7340 N   0  0  0  0  0  0  0  0  0  0  0  0
  187.8640  178.5500  140.5840 C   0  0  0  0  0  2  0  0  0  0  0  0
  188.8950  177.8230  142.7550 C   0  0  0  0  0  3  0  0  0  0  0  0
  186.5070  178.1630  142.6430 C   0  0  0  0  0  3  0  0  0  0  0  0
  187.7570  178.1780  142.0260 C   0  0  0  0  0  0  0  0  0  0  0  0
  188.7700  177.4540  144.1020 C   0  0  0  0  0  0  0  0  0  0  0  0
  186.4140  177.7950  143.9840 C   0  0  0  0  0  3  0  0  0  0  0  0
  187.5330  177.4520  144.6770 N   0  0  0  0  0  0  0  0  0  0  0  0
  189.9240  177.0790  144.8740 N   0  0  0  0  0  0  0  0  0  0  0  0
  191.1850  176.7610  144.2060 C   0  0  0  0  0  1  0  0  0  0  0  0
  190.8820  176.8010  147.0840 C   0  0  0  0  0  2  0  0  0  0  0  0
  189.8250  177.0160  146.3050 C   0  0  0  0  0  3  0  0  0  0  0  0
  180.2680  173.4060  136.0510 C   0  0  2  0  0  3  0  0  0  0  0  0
  179.3420  173.9420  134.9590 C   0  0  0  0  0  1  0  0  0  0  0  0
  179.7980  172.1920  136.6070 O   0  0  0  0  0  0  0  0  0  0  0  0
  180.0000  171.1520  135.6840 C   0  0  0  0  0  2  0  0  0  0  0  0
  178.9310  170.2560  135.7520 O   0  0  0  0  0  1  0  0  0  0  0  0
  182.9380  173.9740  136.5860 O   0  0  0  0  0  0  0  0  0  0  0  0
  183.2220  171.7220  136.3060 O   0  0  0  0  0  1  0  0  0  0  0  0
  183.5790  172.8300  137.0780 C   0  0  1  0  0  3  0  0  0  0  0  0
  185.0580  173.0200  137.0340 C   0  0  0  0  0  0  0  0  0  0  0  0
  185.8100  172.8530  138.1890 O   0  0  0  0  0  1  0  0  0  0  0  0
  185.6280  173.3500  135.9610 O   0  0  0  0  0  0  0  0  0  0  0  0
  1 39  1  6  0  0  0
  1  4  1  0  0  0  0
  2  1  1  0  0  0  0
  2  5  1  0  0  0  0
  3  5  1  6  0  0  0
  4 44  1  6  0  0  0
  4  3  1  0  0  0  0
  5 10  1  0  0  0  0
  6 13  1  0  0  0  0
  8 11  2  0  0  0  0
  8 10  1  0  0  0  0
  9 15  1  0  0  0  0
  9  6  2  0  0  0  0
 10 12  2  0  0  0  0
 11  9  1  0  0  0  0
 12  6  1  0  0  0  0
 12  7  1  0  0  0  0
 13 14  3  0  0  0  0
 16 15  1  0  0  0  0
 17 19  1  0  0  0  0
 19 20  1  0  0  0  0
 19 16  1  0  0  0  0
 19 18  1  0  0  0  0
 21 24  1  0  0  0  0
 22 27  1  1  0  0  0
 22 23  1  0  0  0  0
 24 22  1  0  0  0  0
 25 21  1  6  0  0  0
 25  3  1  0  0  0  0
 25 23  1  0  0  0  0
 26 28  1  0  0  0  0
 27 26  2  0  0  0  0
 28 31  1  0  0  0  0
 29 32  1  0  0  0  0
 30 33  2  0  0  0  0
 31 30  1  0  0  0  0
 31 29  2  0  0  0  0
 32 34  2  0  0  0  0
 32 35  1  0  0  0  0
 33 34  1  0  0  0  0
 35 38  1  0  0  0  0
 36 35  1  0  0  0  0
 38 37  2  0  0  0  0
 39 40  1  6  0  0  0
 39 41  1  0  0  0  0
 42 43  1  0  0  0  0
 42 41  1  0  0  0  0
 44 46  1  0  0  0  0
 46 45  1  6  0  0  0
 47 46  1  0  0  0  0
 47 48  1  0  0  0  0
 49 47  2  0  0  0  0
M  END
>  <MODEL>
1

>  <REMARK>
 VINA RESULT:      -6.3      0.000      0.000
  Name = 
  17 active torsions:
  status: ('A' for Active; 'I' for Inactive)
    1  A    between atoms: C_2  and  N_48
    2  A    between atoms: C_5  and  O_6
    3  A    between atoms: C_5  and  C_7
    4  A    between atoms: O_6  and  C_25
    5  A    between atoms: N_9  and  C_13
    6  A    between atoms: N_9  and  C_31
    7  A    between atoms: C_12  and  C_20
    8  A    between atoms: C_14  and  C_45
    9  A    between atoms: C_15  and  O_32
   10  A    between atoms: N_21  and  C_46
   11  A    between atoms: N_23  and  C_40
   12  A    between atoms: C_24  and  C_44
   13  A    between atoms: C_27  and  C_49
   14  A    between atoms: C_29  and  C_46
   15  A    between atoms: O_32  and  C_44
   16  A    between atoms: C_38  and  N_42
   17  A    between atoms: N_42  and  C_49
                            x       y       z     vdW  Elec       q    Type
                         _______ _______ _______ _____ _____    ______ ____

>  <TORSDO>
F 17

$$$$
=
 OpenBabel11042410483D

 49 52  0  0  1  0  0  0  0  0999 V2000
  182.3260  178.1970  137.2770 C   0  0  2  0  0  3  0  0  0  0  0  0
  183.2990  177.1030  136.8610 C   0  0  0  0  0  2  0  0  0  0  0  0
  184.3400  178.4380  138.5800 C   0  0  2  0  0  3  0  0  0  0  0  0
  182.8300  178.7130  138.6340 C   0  0  2  0  0  3  0  0  0  0  0  0
  184.5170  177.3820  137.5940 N   0  0  0  0  0  0  0  0  0  0  0  0
  187.4570  175.3690  136.4190 C   0  0  0  0  0  0  0  0  0  0  0  0
  185.3740  174.6590  137.5160 N   0  0  0  0  0  1  0  0  0  0  0  0
  186.6160  178.0420  136.5410 C   0  0  0  0  0  3  0  0  0  0  0  0
  188.2710  176.3890  135.8900 C   0  0  0  0  0  0  0  0  0  0  0  0
  185.7960  177.0340  137.0560 C   0  0  0  0  0  0  0  0  0  0  0  0
  187.8420  177.7230  135.9620 C   0  0  0  0  0  3  0  0  0  0  0  0
  186.2140  175.6910  136.9960 C   0  0  0  0  0  0  0  0  0  0  0  0
  187.8960  173.9910  136.3580 C   0  0  0  0  0  0  0  0  0  0  0  0
  188.2470  172.8870  136.3120 N   0  0  0  0  0  0  0  0  0  0  0  0
  189.5300  176.0630  135.2870 N   0  0  0  0  0  2  0  0  0  0  0  0
  190.7970  176.6740  135.6700 C   0  0  0  0  0  2  0  0  0  0  0  0
  192.5180  176.5040  137.2800 F   0  0  0  0  0  0  0  0  0  0  0  0
  190.8730  174.9660  137.3290 F   0  0  0  0  0  0  0  0  0  0  0  0
  191.1660  176.2960  137.0960 C   0  0  0  0  0  0  0  0  0  0  0  0
  190.4620  177.0800  137.9890 F   0  0  0  0  0  0  0  0  0  0  0  0
  186.4900  178.2410  139.9490 C   0  0  0  0  0  2  0  0  0  0  0  0
  185.6480  179.3120  141.9470 C   0  0  2  0  0  3  0  0  0  0  0  0
  184.4670  179.0260  141.0300 C   0  0  0  0  0  2  0  0  0  0  0  0
  186.8410  178.5650  141.3830 C   0  0  0  0  0  2  0  0  0  0  0  0
  184.9790  178.1060  139.9400 C   0  0  1  0  0  3  0  0  0  0  0  0
  186.2550  178.2600  143.9370 N   0  0  0  0  0  0  0  0  0  0  0  0
  185.3710  178.8340  143.2750 N   0  0  0  0  0  0  0  0  0  0  0  0
  185.9830  177.7840  145.2710 C   0  0  0  0  0  2  0  0  0  0  0  0
  188.4520  177.4010  145.5180 C   0  0  0  0  0  3  0  0  0  0  0  0
  187.1710  178.0920  147.4440 C   0  0  0  0  0  3  0  0  0  0  0  0
  187.2310  177.7660  146.0900 C   0  0  0  0  0  0  0  0  0  0  0  0
  189.6080  177.3680  146.3100 C   0  0  0  0  0  0  0  0  0  0  0  0
  188.3370  178.0530  148.2060 C   0  0  0  0  0  3  0  0  0  0  0  0
  189.5170  177.6960  147.6310 N   0  0  0  0  0  0  0  0  0  0  0  0
  190.8780  176.9910  145.7470 N   0  0  0  0  0  0  0  0  0  0  0  0
  191.8550  176.2650  146.5570 C   0  0  0  0  0  1  0  0  0  0  0  0
  191.5690  178.5560  144.0290 C   0  0  0  0  0  2  0  0  0  0  0  0
  191.1750  177.3360  144.3850 C   0  0  0  0  0  3  0  0  0  0  0  0
  180.8600  177.7260  137.2730 C   0  0  2  0  0  3  0  0  0  0  0  0
  180.7140  176.2100  137.1310 C   0  0  0  0  0  1  0  0  0  0  0  0
  180.0460  178.4320  136.3550 O   0  0  0  0  0  0  0  0  0  0  0  0
  180.6200  179.6890  136.0990 C   0  0  0  0  0  2  0  0  0  0  0  0
  179.7590  180.6930  136.5480 O   0  0  0  0  0  1  0  0  0  0  0  0
  182.2190  178.0070  139.6840 O   0  0  0  0  0  0  0  0  0  0  0  0
  181.1970  180.0530  139.6220 O   0  0  0  0  0  1  0  0  0  0  0  0
  181.5470  178.9750  140.4400 C   0  0  1  0  0  3  0  0  0  0  0  0
  180.3190  178.3820  141.0460 C   0  0  0  0  0  0  0  0  0  0  0  0
  179.6150  179.0900  142.0120 O   0  0  0  0  0  1  0  0  0  0  0  0
  179.9260  177.2370  140.7020 O   0  0  0  0  0  0  0  0  0  0  0  0
  1 39  1  1  0  0  0
  1  4  1  0  0  0  0
  2  1  1  0  0  0  0
  2  5  1  0  0  0  0
  3  5  1  6  0  0  0
  3  4  1  0  0  0  0
  3 25  1  0  0  0  0
  4 44  1  1  0  0  0
  6 12  1  0  0  0  0
  8 10  1  0  0  0  0
  9 11  1  0  0  0  0
  9  6  2  0  0  0  0
 10  5  1  0  0  0  0
 11  8  2  0  0  0  0
 12 10  2  0  0  0  0
 12  7  1  0  0  0  0
 13  6  1  0  0  0  0
 14 13  3  0  0  0  0
 15 16  1  0  0  0  0
 15  9  1  0  0  0  0
 16 19  1  0  0  0  0
 19 17  1  0  0  0  0
 19 18  1  0  0  0  0
 19 20  1  0  0  0  0
 21 24  1  0  0  0  0
 22 27  1  1  0  0  0
 23 22  1  0  0  0  0
 24 22  1  0  0  0  0
 25 21  1  6  0  0  0
 25 23  1  0  0  0  0
 26 28  1  0  0  0  0
 27 26  2  0  0  0  0
 28 31  1  0  0  0  0
 29 31  2  0  0  0  0
 29 32  1  0  0  0  0
 30 33  2  0  0  0  0
 31 30  1  0  0  0  0
 32 34  2  0  0  0  0
 34 33  1  0  0  0  0
 35 32  1  0  0  0  0
 35 36  1  0  0  0  0
 37 38  2  0  0  0  0
 38 35  1  0  0  0  0
 39 40  1  6  0  0  0
 41 39  1  0  0  0  0
 42 41  1  0  0  0  0
 42 43  1  0  0  0  0
 44 46  1  0  0  0  0
 46 45  1  6  0  0  0
 46 47  1  0  0  0  0
 47 48  1  0  0  0  0
 49 47  2  0  0  0  0
M  END
>  <MODEL>
2

>  <REMARK>
 VINA RESULT:      -6.0      4.464      7.174
  Name = 
  17 active torsions:
  status: ('A' for Active; 'I' for Inactive)
    1  A    between atoms: C_2  and  N_48
    2  A    between atoms: C_5  and  O_6
    3  A    between atoms: C_5  and  C_7
    4  A    between atoms: O_6  and  C_25
    5  A    between atoms: N_9  and  C_13
    6  A    between atoms: N_9  and  C_31
    7  A    between atoms: C_12  and  C_20
    8  A    between atoms: C_14  and  C_45
    9  A    between atoms: C_15  and  O_32
   10  A    between atoms: N_21  and  C_46
   11  A    between atoms: N_23  and  C_40
   12  A    between atoms: C_24  and  C_44
   13  A    between atoms: C_27  and  C_49
   14  A    between atoms: C_29  and  C_46
   15  A    between atoms: O_32  and  C_44
   16  A    between atoms: C_38  and  N_42
   17  A    between atoms: N_42  and  C_49
                            x       y       z     vdW  Elec       q    Type
                         _______ _______ _______ _____ _____    ______ ____

>  <TORSDO>
F 17

$$$$
=
 OpenBabel11042410483D

 49 52  0  0  1  0  0  0  0  0999 V2000
  189.9380  177.4700  142.3350 C   0  0  2  0  0  3  0  0  0  0  0  0
  188.4900  177.0530  142.5500 C   0  0  0  0  0  2  0  0  0  0  0  0
  188.5940  178.4840  140.6100 C   0  0  2  0  0  3  0  0  0  0  0  0
  190.0180  177.9800  140.8880 C   0  0  2  0  0  3  0  0  0  0  0  0
  187.7340  177.7890  141.5580 N   0  0  0  0  0  0  0  0  0  0  0  0
  184.5730  178.7440  143.3400 C   0  0  0  0  0  0  0  0  0  0  0  0
  186.7440  178.0040  144.2280 N   0  0  0  0  0  1  0  0  0  0  0  0
  185.5520  178.4880  140.7230 C   0  0  0  0  0  3  0  0  0  0  0  0
  183.7480  179.0630  142.2440 C   0  0  0  0  0  0  0  0  0  0  0  0
  186.3810  178.1820  141.8050 C   0  0  0  0  0  0  0  0  0  0  0  0
  184.2460  178.9260  140.9410 C   0  0  0  0  0  3  0  0  0  0  0  0
  185.8940  178.3100  143.1200 C   0  0  0  0  0  0  0  0  0  0  0  0
  184.0640  178.8730  144.6880 C   0  0  0  0  0  0  0  0  0  0  0  0
  183.6600  178.9760  145.7710 N   0  0  0  0  0  0  0  0  0  0  0  0
  182.4080  179.5200  142.4650 N   0  0  0  0  0  2  0  0  0  0  0  0
  181.2280  178.8880  141.8870 C   0  0  0  0  0  2  0  0  0  0  0  0
  179.1990  177.8210  142.4600 F   0  0  0  0  0  0  0  0  0  0  0  0
  179.5500  179.9050  143.2400 F   0  0  0  0  0  0  0  0  0  0  0  0
  180.1510  178.6960  142.9430 C   0  0  0  0  0  0  0  0  0  0  0  0
  180.7070  178.1710  144.0930 F   0  0  0  0  0  0  0  0  0  0  0  0
  189.0300  179.0310  138.1510 C   0  0  0  0  0  2  0  0  0  0  0  0
  188.5660  176.8220  137.2870 C   0  0  2  0  0  3  0  0  0  0  0  0
  188.1010  176.8700  138.7350 C   0  0  0  0  0  2  0  0  0  0  0  0
  188.8720  178.2470  136.8700 C   0  0  0  0  0  2  0  0  0  0  0  0
  188.1320  178.3270  139.1510 C   0  0  1  0  0  3  0  0  0  0  0  0
  186.5960  177.0260  136.0580 N   0  0  0  0  0  0  0  0  0  0  0  0
  187.5230  176.2940  136.4490 N   0  0  0  0  0  0  0  0  0  0  0  0
  185.5500  176.5030  135.2130 C   0  0  0  0  0  2  0  0  0  0  0  0
  183.6590  176.5440  136.8630 C   0  0  0  0  0  3  0  0  0  0  0  0
  184.3970  174.4240  135.9730 C   0  0  0  0  0  3  0  0  0  0  0  0
  184.5080  175.8130  136.0280 C   0  0  0  0  0  0  0  0  0  0  0  0
  182.7010  175.8740  137.6380 C   0  0  0  0  0  0  0  0  0  0  0  0
  183.4330  173.7860  136.7530 C   0  0  0  0  0  3  0  0  0  0  0  0
  182.6160  174.5150  137.5600 N   0  0  0  0  0  0  0  0  0  0  0  0
  181.8180  176.6020  138.5110 N   0  0  0  0  0  0  0  0  0  0  0  0
  181.4270  177.9720  138.1850 C   0  0  0  0  0  1  0  0  0  0  0  0
  180.0300  175.7970  139.9360 C   0  0  0  0  0  2  0  0  0  0  0  0
  181.3280  175.9710  139.7040 C   0  0  0  0  0  3  0  0  0  0  0  0
  190.9390  176.3500  142.6780 C   0  0  2  0  0  3  0  0  0  0  0  0
  190.2690  175.0900  143.2250 C   0  0  0  0  0  1  0  0  0  0  0  0
  192.0110  176.7860  143.4930 O   0  0  0  0  0  0  0  0  0  0  0  0
  191.5340  177.7240  144.4240 C   0  0  0  0  0  2  0  0  0  0  0  0
  191.8110  177.2770  145.7170 O   0  0  0  0  0  1  0  0  0  0  0  0
  190.3680  176.9340  140.0180 O   0  0  0  0  0  0  0  0  0  0  0  0
  192.5550  177.5240  140.3420 O   0  0  0  0  0  1  0  0  0  0  0  0
  191.5470  177.3530  139.3890 C   0  0  1  0  0  3  0  0  0  0  0  0
  191.9730  176.3380  138.3820 C   0  0  0  0  0  0  0  0  0  0  0  0
  191.3650  175.0890  138.3630 O   0  0  0  0  0  1  0  0  0  0  0  0
  192.8920  176.5970  137.5630 O   0  0  0  0  0  0  0  0  0  0  0  0
  1  2  1  0  0  0  0
  1 39  1  6  0  0  0
  3  4  1  0  0  0  0
  3  5  1  1  0  0  0
  4 44  1  6  0  0  0
  4  1  1  0  0  0  0
  5 10  1  0  0  0  0
  5  2  1  0  0  0  0
  6 13  1  0  0  0  0
  8 11  2  0  0  0  0
  8 10  1  0  0  0  0
  9 15  1  0  0  0  0
  9  6  2  0  0  0  0
 10 12  2  0  0  0  0
 11  9  1  0  0  0  0
 12  6  1  0  0  0  0
 12  7  1  0  0  0  0
 13 14  3  0  0  0  0
 16 15  1  0  0  0  0
 16 19  1  0  0  0  0
 17 19  1  0  0  0  0
 19 18  1  0  0  0  0
 19 20  1  0  0  0  0
 22 27  1  6  0  0  0
 22 23  1  0  0  0  0
 23 25  1  0  0  0  0
 24 22  1  0  0  0  0
 24 21  1  0  0  0  0
 25 21  1  6  0  0  0
 25  3  1  0  0  0  0
 26 27  2  0  0  0  0
 28 31  1  0  0  0  0
 28 26  1  0  0  0  0
 29 32  1  0  0  0  0
 30 31  1  0  0  0  0
 30 33  2  0  0  0  0
 31 29  2  0  0  0  0
 32 35  1  0  0  0  0
 33 34  1  0  0  0  0
 34 32  2  0  0  0  0
 35 38  1  0  0  0  0
 36 35  1  0  0  0  0
 38 37  2  0  0  0  0
 39 40  1  1  0  0  0
 39 41  1  0  0  0  0
 41 42  1  0  0  0  0
 42 43  1  0  0  0  0
 46 44  1  0  0  0  0
 46 45  1  1  0  0  0
 47 46  1  0  0  0  0
 48 47  1  0  0  0  0
 49 47  2  0  0  0  0
M  END
>  <MODEL>
3

>  <REMARK>
 VINA RESULT:      -5.6      4.593      8.847
  Name = 
  17 active torsions:
  status: ('A' for Active; 'I' for Inactive)
    1  A    between atoms: C_2  and  N_48
    2  A    between atoms: C_5  and  O_6
    3  A    between atoms: C_5  and  C_7
    4  A    between atoms: O_6  and  C_25
    5  A    between atoms: N_9  and  C_13
    6  A    between atoms: N_9  and  C_31
    7  A    between atoms: C_12  and  C_20
    8  A    between atoms: C_14  and  C_45
    9  A    between atoms: C_15  and  O_32
   10  A    between atoms: N_21  and  C_46
   11  A    between atoms: N_23  and  C_40
   12  A    between atoms: C_24  and  C_44
   13  A    between atoms: C_27  and  C_49
   14  A    between atoms: C_29  and  C_46
   15  A    between atoms: O_32  and  C_44
   16  A    between atoms: C_38  and  N_42
   17  A    between atoms: N_42  and  C_49
                            x       y       z     vdW  Elec       q    Type
                         _______ _______ _______ _____ _____    ______ ____

>  <TORSDO>
F 17

$$$$
=
 OpenBabel11042410483D

 49 52  0  0  1  0  0  0  0  0999 V2000
  190.1680  177.5140  144.1170 C   0  0  2  0  0  3  0  0  0  0  0  0
  189.8710  178.3030  142.8500 C   0  0  0  0  0  2  0  0  0  0  0  0
  187.9150  177.0110  143.4230 C   0  0  2  0  0  3  0  0  0  0  0  0
  188.8030  177.0840  144.6740 C   0  0  2  0  0  3  0  0  0  0  0  0
  188.5560  177.8620  142.4310 N   0  0  0  0  0  0  0  0  0  0  0  0
  188.5630  177.1090  138.7550 C   0  0  0  0  0  0  0  0  0  0  0  0
  190.1630  176.4830  140.5140 N   0  0  0  0  0  1  0  0  0  0  0  0
  187.0190  178.4930  140.6450 C   0  0  0  0  0  3  0  0  0  0  0  0
  187.3730  177.7520  138.3600 C   0  0  0  0  0  0  0  0  0  0  0  0
  188.1910  177.8470  141.0480 C   0  0  0  0  0  0  0  0  0  0  0  0
  186.6130  178.4450  139.3130 C   0  0  0  0  0  3  0  0  0  0  0  0
  188.9680  177.1510  140.1020 C   0  0  0  0  0  0  0  0  0  0  0  0
  189.3590  176.4000  137.7760 C   0  0  0  0  0  0  0  0  0  0  0  0
  189.9990  175.8310  136.9950 N   0  0  0  0  0  0  0  0  0  0  0  0
  186.9490  177.6990  136.9920 N   0  0  0  0  0  2  0  0  0  0  0  0
  185.7410  177.0200  136.5400 C   0  0  0  0  0  2  0  0  0  0  0  0
  187.1450  175.4930  135.4100 F   0  0  0  0  0  0  0  0  0  0  0  0
  184.9550  174.9890  135.5710 F   0  0  0  0  0  0  0  0  0  0  0  0
  186.0320  175.5620  136.2230 C   0  0  0  0  0  0  0  0  0  0  0  0
  186.2790  174.8650  137.3890 F   0  0  0  0  0  0  0  0  0  0  0  0
  185.9390  176.9980  145.0460 C   0  0  0  0  0  2  0  0  0  0  0  0
  185.1780  179.2440  144.5760 C   0  0  2  0  0  3  0  0  0  0  0  0
  186.2050  178.8630  143.5200 C   0  0  0  0  0  2  0  0  0  0  0  0
  184.8270  177.9780  145.3330 C   0  0  0  0  0  2  0  0  0  0  0  0
  186.4390  177.3720  143.6630 C   0  0  1  0  0  3  0  0  0  0  0  0
  182.9830  179.0570  143.8140 N   0  0  0  0  0  0  0  0  0  0  0  0
  183.9940  179.7700  143.9500 N   0  0  0  0  0  0  0  0  0  0  0  0
  181.7920  179.5810  143.1920 C   0  0  0  0  0  2  0  0  0  0  0  0
  182.0990  178.3390  141.0320 C   0  0  0  0  0  3  0  0  0  0  0  0
  180.0150  178.1170  142.2290 C   0  0  0  0  0  3  0  0  0  0  0  0
  181.2970  178.6540  142.1320 C   0  0  0  0  0  0  0  0  0  0  0  0
  181.6080  177.4850  140.0350 C   0  0  0  0  0  0  0  0  0  0  0  0
  179.5540  177.2680  141.2240 C   0  0  0  0  0  3  0  0  0  0  0  0
  180.3490  176.9740  140.1600 N   0  0  0  0  0  0  0  0  0  0  0  0
  182.4110  177.1490  138.8890 N   0  0  0  0  0  0  0  0  0  0  0  0
  182.9910  175.8130  138.7630 C   0  0  0  0  0  1  0  0  0  0  0  0
  181.9240  178.1830  136.7510 C   0  0  0  0  0  2  0  0  0  0  0  0
  182.6370  178.1380  137.8730 C   0  0  0  0  0  3  0  0  0  0  0  0
  191.0530  178.2900  145.1100 C   0  0  2  0  0  3  0  0  0  0  0  0
  191.7610  179.4890  144.4770 C   0  0  0  0  0  1  0  0  0  0  0  0
  191.9420  177.4630  145.8360 O   0  0  0  0  0  0  0  0  0  0  0  0
  191.8700  176.1520  145.3330 C   0  0  0  0  0  2  0  0  0  0  0  0
  192.2860  175.2530  146.3170 O   0  0  0  0  0  1  0  0  0  0  0  0
  188.3230  178.0390  145.5860 O   0  0  0  0  0  0  0  0  0  0  0  0
  189.1580  176.5080  147.0670 O   0  0  0  0  0  1  0  0  0  0  0  0
  188.0680  177.3310  146.7670 C   0  0  1  0  0  3  0  0  0  0  0  0
  187.8330  178.2850  147.8890 C   0  0  0  0  0  0  0  0  0  0  0  0
  186.7500  179.1530  147.8410 O   0  0  0  0  0  0  0  0  0  0  0  0
  188.6200  178.3230  148.8710 O   0  0  0  0  0  1  0  0  0  0  0  0
  1  4  1  0  0  0  0
  1 39  1  1  0  0  0
  2  1  1  0  0  0  0
  3  5  1  6  0  0  0
  3 25  1  0  0  0  0
  3  4  1  0  0  0  0
  4 44  1  1  0  0  0
  5  2  1  0  0  0  0
  6 12  1  0  0  0  0
  8 10  1  0  0  0  0
  9  6  2  0  0  0  0
  9 11  1  0  0  0  0
 10  5  1  0  0  0  0
 11  8  2  0  0  0  0
 12  7  1  0  0  0  0
 12 10  2  0  0  0  0
 13  6  1  0  0  0  0
 14 13  3  0  0  0  0
 15  9  1  0  0  0  0
 16 15  1  0  0  0  0
 17 19  1  0  0  0  0
 18 19  1  0  0  0  0
 19 16  1  0  0  0  0
 19 20  1  0  0  0  0
 21 24  1  0  0  0  0
 22 27  1  6  0  0  0
 22 24  1  0  0  0  0
 23 22  1  0  0  0  0
 25 23  1  1  0  0  0
 25 21  1  0  0  0  0
 26 27  2  0  0  0  0
 28 26  1  0  0  0  0
 29 31  1  0  0  0  0
 31 30  2  0  0  0  0
 31 28  1  0  0  0  0
 32 34  1  0  0  0  0
 32 29  2  0  0  0  0
 33 30  1  0  0  0  0
 34 33  2  0  0  0  0
 35 32  1  0  0  0  0
 36 35  1  0  0  0  0
 37 38  2  0  0  0  0
 38 35  1  0  0  0  0
 39 40  1  6  0  0  0
 39 41  1  0  0  0  0
 42 41  1  0  0  0  0
 42 43  1  0  0  0  0
 44 46  1  0  0  0  0
 46 45  1  1  0  0  0
 46 47  1  0  0  0  0
 47 49  1  0  0  0  0
 48 47  2  0  0  0  0
M  END
>  <MODEL>
4

>  <REMARK>
 VINA RESULT:      -5.6      5.659     10.332
  Name = 
  17 active torsions:
  status: ('A' for Active; 'I' for Inactive)
    1  A    between atoms: C_2  and  N_48
    2  A    between atoms: C_5  and  O_6
    3  A    between atoms: C_5  and  C_7
    4  A    between atoms: O_6  and  C_25
    5  A    between atoms: N_9  and  C_13
    6  A    between atoms: N_9  and  C_31
    7  A    between atoms: C_12  and  C_20
    8  A    between atoms: C_14  and  C_45
    9  A    between atoms: C_15  and  O_32
   10  A    between atoms: N_21  and  C_46
   11  A    between atoms: N_23  and  C_40
   12  A    between atoms: C_24  and  C_44
   13  A    between atoms: C_27  and  C_49
   14  A    between atoms: C_29  and  C_46
   15  A    between atoms: O_32  and  C_44
   16  A    between atoms: C_38  and  N_42
   17  A    between atoms: N_42  and  C_49
                            x       y       z     vdW  Elec       q    Type
                         _______ _______ _______ _____ _____    ______ ____

>  <TORSDO>
F 17

$$$$
=
 OpenBabel11042410483D

 49 52  0  0  1  0  0  0  0  0999 V2000
  190.4250  177.6240  139.8140 C   0  0  2  0  0  3  0  0  0  0  0  0
  190.6050  176.8760  141.1280 C   0  0  0  0  0  2  0  0  0  0  0  0
  188.5830  178.1860  141.2640 C   0  0  2  0  0  3  0  0  0  0  0  0
  188.9530  178.0610  139.7790 C   0  0  2  0  0  3  0  0  0  0  0  0
  189.5360  177.3520  141.9820 N   0  0  0  0  0  0  0  0  0  0  0  0
  190.8200  176.7100  145.4490 C   0  0  0  0  0  0  0  0  0  0  0  0
  191.4200  175.6630  143.3060 N   0  0  0  0  0  1  0  0  0  0  0  0
  188.9450  178.3330  144.1360 C   0  0  0  0  0  3  0  0  0  0  0  0
  190.0650  177.6480  146.1790 C   0  0  0  0  0  0  0  0  0  0  0  0
  189.7000  177.4140  143.4020 C   0  0  0  0  0  0  0  0  0  0  0  0
  189.1260  178.4500  145.5130 C   0  0  0  0  0  3  0  0  0  0  0  0
  190.6420  176.5980  144.0570 C   0  0  0  0  0  0  0  0  0  0  0  0
  191.7830  175.8720  146.1300 C   0  0  0  0  0  0  0  0  0  0  0  0
  192.5580  175.2030  146.6750 N   0  0  0  0  0  0  0  0  0  0  0  0
  190.2540  177.7760  147.5940 N   0  0  0  0  0  2  0  0  0  0  0  0
  189.3100  178.4430  148.4840 C   0  0  0  0  0  2  0  0  0  0  0  0
  187.0620  178.2960  147.7730 F   0  0  0  0  0  0  0  0  0  0  0  0
  187.5520  177.6210  149.8650 F   0  0  0  0  0  0  0  0  0  0  0  0
  188.0050  177.6670  148.5600 C   0  0  0  0  0  0  0  0  0  0  0  0
  188.1940  176.3800  148.0990 F   0  0  0  0  0  0  0  0  0  0  0  0
  186.8880  177.4880  143.0470 C   0  0  0  0  0  2  0  0  0  0  0  0
  185.1410  179.0230  142.3860 C   0  0  2  0  0  3  0  0  0  0  0  0
  186.2010  179.0150  141.2950 C   0  0  0  0  0  2  0  0  0  0  0  0
  185.4510  177.8640  143.3150 C   0  0  0  0  0  2  0  0  0  0  0  0
  187.1180  177.8450  141.5900 C   0  0  1  0  0  3  0  0  0  0  0  0
  183.6750  178.0650  140.8470 N   0  0  0  0  0  0  0  0  0  0  0  0
  183.8360  178.8360  141.8110 N   0  0  0  0  0  0  0  0  0  0  0  0
  182.3670  177.8710  140.2710 C   0  0  0  0  0  2  0  0  0  0  0  0
  183.0620  176.3260  138.4180 C   0  0  0  0  0  3  0  0  0  0  0  0
  182.0030  178.4240  137.8640 C   0  0  0  0  0  3  0  0  0  0  0  0
  182.4740  177.5270  138.8220 C   0  0  0  0  0  0  0  0  0  0  0  0
  183.1740  176.0320  137.0510 C   0  0  0  0  0  0  0  0  0  0  0  0
  182.1250  178.1030  136.5130 C   0  0  0  0  0  3  0  0  0  0  0  0
  182.7010  176.9300  136.1390 N   0  0  0  0  0  0  0  0  0  0  0  0
  183.7800  174.8050  136.6080 N   0  0  0  0  0  0  0  0  0  0  0  0
  183.9740  174.5540  135.1810 C   0  0  0  0  0  1  0  0  0  0  0  0
  184.5410  172.5930  137.2430 C   0  0  0  0  0  2  0  0  0  0  0  0
  184.1910  173.8310  137.5800 C   0  0  0  0  0  3  0  0  0  0  0  0
  190.8810  176.8030  138.5930 C   0  0  2  0  0  3  0  0  0  0  0  0
  192.3490  176.3800  138.6660 C   0  0  0  0  0  1  0  0  0  0  0  0
  190.5580  177.4100  137.3560 O   0  0  0  0  0  0  0  0  0  0  0  0
  190.9900  176.5810  136.3060 C   0  0  0  0  0  2  0  0  0  0  0  0
  189.9540  175.7210  135.9370 O   0  0  0  0  0  1  0  0  0  0  0  0
  188.1680  177.0900  139.1360 O   0  0  0  0  0  0  0  0  0  0  0  0
  187.9510  178.9990  137.8950 O   0  0  0  0  0  1  0  0  0  0  0  0
  187.3330  177.8020  138.2670 C   0  0  1  0  0  3  0  0  0  0  0  0
  187.0490  176.9830  137.0520 C   0  0  0  0  0  0  0  0  0  0  0  0
  186.9260  177.6030  135.8160 O   0  0  0  0  0  0  0  0  0  0  0  0
  186.9010  175.7370  137.1430 O   0  0  0  0  0  1  0  0  0  0  0  0
  1 39  1  6  0  0  0
  1  2  1  0  0  0  0
  2  5  1  0  0  0  0
  3 25  1  0  0  0  0
  3  5  1  1  0  0  0
  4 44  1  1  0  0  0
  4  1  1  0  0  0  0
  4  3  1  0  0  0  0
  5 10  1  0  0  0  0
  6 13  1  0  0  0  0
  6  9  1  0  0  0  0
  7 12  1  0  0  0  0
  8 11  1  0  0  0  0
  9 15  1  0  0  0  0
 10 12  1  0  0  0  0
 10  8  2  0  0  0  0
 11  9  2  0  0  0  0
 12  6  2  0  0  0  0
 13 14  3  0  0  0  0
 15 16  1  0  0  0  0
 16 19  1  0  0  0  0
 17 19  1  0  0  0  0
 19 18  1  0  0  0  0
 20 19  1  0  0  0  0
 21 24  1  0  0  0  0
 22 27  1  6  0  0  0
 22 24  1  0  0  0  0
 23 22  1  0  0  0  0
 25 23  1  1  0  0  0
 25 21  1  0  0  0  0
 26 27  2  0  0  0  0
 28 26  1  0  0  0  0
 29 31  1  0  0  0  0
 30 31  2  0  0  0  0
 31 28  1  0  0  0  0
 32 29  2  0  0  0  0
 33 30  1  0  0  0  0
 34 33  2  0  0  0  0
 34 32  1  0  0  0  0
 35 32  1  0  0  0  0
 35 38  1  0  0  0  0
 36 35  1  0  0  0  0
 37 38  2  0  0  0  0
 39 40  1  1  0  0  0
 41 39  1  0  0  0  0
 42 41  1  0  0  0  0
 43 42  1  0  0  0  0
 46 45  1  6  0  0  0
 46 44  1  0  0  0  0
 47 49  1  0  0  0  0
 47 46  1  0  0  0  0
 48 47  2  0  0  0  0
M  END
>  <MODEL>
5

>  <REMARK>
 VINA RESULT:      -5.5      4.720     10.284
  Name = 
  17 active torsions:
  status: ('A' for Active; 'I' for Inactive)
    1  A    between atoms: C_2  and  N_48
    2  A    between atoms: C_5  and  O_6
    3  A    between atoms: C_5  and  C_7
    4  A    between atoms: O_6  and  C_25
    5  A    between atoms: N_9  and  C_13
    6  A    between atoms: N_9  and  C_31
    7  A    between atoms: C_12  and  C_20
    8  A    between atoms: C_14  and  C_45
    9  A    between atoms: C_15  and  O_32
   10  A    between atoms: N_21  and  C_46
   11  A    between atoms: N_23  and  C_40
   12  A    between atoms: C_24  and  C_44
   13  A    between atoms: C_27  and  C_49
   14  A    between atoms: C_29  and  C_46
   15  A    between atoms: O_32  and  C_44
   16  A    between atoms: C_38  and  N_42
   17  A    between atoms: N_42  and  C_49
                            x       y       z     vdW  Elec       q    Type
                         _______ _______ _______ _____ _____    ______ ____

>  <TORSDO>
F 17

$$$$
=
 OpenBabel11042410483D

 49 52  0  0  1  0  0  0  0  0999 V2000
  187.6400  177.5570  138.2970 C   0  0  2  0  0  3  0  0  0  0  0  0
  186.5490  178.5320  137.8750 C   0  0  0  0  0  2  0  0  0  0  0  0
  186.1450  177.8730  140.1610 C   0  0  2  0  0  3  0  0  0  0  0  0
  187.6040  177.5250  139.8320 C   0  0  2  0  0  3  0  0  0  0  0  0
  185.6320  178.5790  138.9960 N   0  0  0  0  0  0  0  0  0  0  0  0
  181.9640  178.0380  138.4200 C   0  0  0  0  0  0  0  0  0  0  0  0
  183.8220  176.4290  138.4910 N   0  0  0  0  0  1  0  0  0  0  0  0
  183.7630  180.1420  138.8770 C   0  0  0  0  0  3  0  0  0  0  0  0
  181.4920  179.3620  138.5180 C   0  0  0  0  0  0  0  0  0  0  0  0
  184.2380  178.8300  138.7950 C   0  0  0  0  0  0  0  0  0  0  0  0
  182.4020  180.4060  138.7400 C   0  0  0  0  0  3  0  0  0  0  0  0
  183.3380  177.7720  138.5670 C   0  0  0  0  0  0  0  0  0  0  0  0
  181.0340  176.9560  138.1810 C   0  0  0  0  0  0  0  0  0  0  0  0
  180.2890  176.0890  137.9860 N   0  0  0  0  0  0  0  0  0  0  0  0
  180.0920  179.6350  138.3840 N   0  0  0  0  0  2  0  0  0  0  0  0
  179.5360  180.5900  137.4320 C   0  0  0  0  0  2  0  0  0  0  0  0
  179.4190  178.7690  135.9320 F   0  0  0  0  0  0  0  0  0  0  0  0
  181.0660  180.2770  135.6320 F   0  0  0  0  0  0  0  0  0  0  0  0
  179.7460  180.1090  136.0050 C   0  0  0  0  0  0  0  0  0  0  0  0
  178.9360  180.8200  135.1430 F   0  0  0  0  0  0  0  0  0  0  0  0
  184.5890  179.3090  141.5940 C   0  0  0  0  0  2  0  0  0  0  0  0
  185.0710  178.2250  143.7010 C   0  0  2  0  0  3  0  0  0  0  0  0
  186.0950  177.7510  142.6800 C   0  0  0  0  0  2  0  0  0  0  0  0
  184.3330  179.3960  143.0800 C   0  0  0  0  0  2  0  0  0  0  0  0
  185.9520  178.6560  141.4720 C   0  0  1  0  0  3  0  0  0  0  0  0
  186.3050  177.8400  145.6410 N   0  0  0  0  0  0  0  0  0  0  0  0
  185.7330  178.6610  144.9010 N   0  0  0  0  0  0  0  0  0  0  0  0
  186.9750  178.2730  146.8420 C   0  0  0  0  0  2  0  0  0  0  0  0
  189.0850  177.6560  145.6310 C   0  0  0  0  0  3  0  0  0  0  0  0
  189.0540  177.5960  148.0450 C   0  0  0  0  0  3  0  0  0  0  0  0
  188.4030  177.8410  146.8370 C   0  0  0  0  0  0  0  0  0  0  0  0
  190.4200  177.2270  145.6470 C   0  0  0  0  0  0  0  0  0  0  0  0
  190.3830  177.1740  148.0290 C   0  0  0  0  0  3  0  0  0  0  0  0
  191.0300  176.9990  146.8460 N   0  0  0  0  0  0  0  0  0  0  0  0
  191.1440  177.0240  144.4200 N   0  0  0  0  0  0  0  0  0  0  0  0
  191.3500  175.6720  143.9030 C   0  0  0  0  0  1  0  0  0  0  0  0
  191.3020  179.4070  144.0040 C   0  0  0  0  0  2  0  0  0  0  0  0
  191.6620  178.1610  143.7110 C   0  0  0  0  0  3  0  0  0  0  0  0
  189.0150  177.9010  137.6930 C   0  0  2  0  0  3  0  0  0  0  0  0
  189.0080  179.1940  136.8770 C   0  0  0  0  0  1  0  0  0  0  0  0
  189.6030  176.8240  136.9880 O   0  0  0  0  0  0  0  0  0  0  0  0
  188.5910  175.9710  136.5160 C   0  0  0  0  0  2  0  0  0  0  0  0
  188.9090  175.5430  135.2250 O   0  0  0  0  0  1  0  0  0  0  0  0
  188.4890  178.4780  140.3630 O   0  0  0  0  0  0  0  0  0  0  0  0
  188.5950  176.7300  141.8350 O   0  0  0  0  0  1  0  0  0  0  0  0
  189.3180  177.7680  141.2400 C   0  0  1  0  0  3  0  0  0  0  0  0
  190.4820  177.2080  140.4940 C   0  0  0  0  0  0  0  0  0  0  0  0
  191.5550  178.0290  140.1720 O   0  0  0  0  0  1  0  0  0  0  0  0
  190.4910  176.0010  140.1370 O   0  0  0  0  0  0  0  0  0  0  0  0
  1 39  1  1  0  0  0
  1  4  1  0  0  0  0
  2  1  1  0  0  0  0
  2  5  1  0  0  0  0
  3  5  1  6  0  0  0
  3 25  1  0  0  0  0
  4  3  1  0  0  0  0
  4 44  1  1  0  0  0
  6  9  2  0  0  0  0
  6 12  1  0  0  0  0
  7 12  1  0  0  0  0
  9 11  1  0  0  0  0
 10  8  1  0  0  0  0
 10  5  1  0  0  0  0
 11  8  2  0  0  0  0
 12 10  2  0  0  0  0
 13  6  1  0  0  0  0
 14 13  3  0  0  0  0
 15  9  1  0  0  0  0
 16 15  1  0  0  0  0
 17 19  1  0  0  0  0
 18 19  1  0  0  0  0
 19 16  1  0  0  0  0
 20 19  1  0  0  0  0
 21 24  1  0  0  0  0
 22 27  1  1  0  0  0
 23 22  1  0  0  0  0
 24 22  1  0  0  0  0
 25 21  1  6  0  0  0
 25 23  1  0  0  0  0
 26 28  1  0  0  0  0
 27 26  2  0  0  0  0
 29 32  2  0  0  0  0
 29 31  1  0  0  0  0
 31 28  1  0  0  0  0
 31 30  2  0  0  0  0
 32 34  1  0  0  0  0
 33 30  1  0  0  0  0
 34 33  2  0  0  0  0
 35 32  1  0  0  0  0
 36 35  1  0  0  0  0
 38 37  2  0  0  0  0
 38 35  1  0  0  0  0
 39 40  1  6  0  0  0
 41 39  1  0  0  0  0
 42 41  1  0  0  0  0
 43 42  1  0  0  0  0
 44 46  1  0  0  0  0
 46 45  1  6  0  0  0
 47 46  1  0  0  0  0
 48 47  1  0  0  0  0
 49 47  2  0  0  0  0
M  END
>  <MODEL>
6

>  <REMARK>
 VINA RESULT:      -5.4      3.701      6.050
  Name = 
  17 active torsions:
  status: ('A' for Active; 'I' for Inactive)
    1  A    between atoms: C_2  and  N_48
    2  A    between atoms: C_5  and  O_6
    3  A    between atoms: C_5  and  C_7
    4  A    between atoms: O_6  and  C_25
    5  A    between atoms: N_9  and  C_13
    6  A    between atoms: N_9  and  C_31
    7  A    between atoms: C_12  and  C_20
    8  A    between atoms: C_14  and  C_45
    9  A    between atoms: C_15  and  O_32
   10  A    between atoms: N_21  and  C_46
   11  A    between atoms: N_23  and  C_40
   12  A    between atoms: C_24  and  C_44
   13  A    between atoms: C_27  and  C_49
   14  A    between atoms: C_29  and  C_46
   15  A    between atoms: O_32  and  C_44
   16  A    between atoms: C_38  and  N_42
   17  A    between atoms: N_42  and  C_49
                            x       y       z     vdW  Elec       q    Type
                         _______ _______ _______ _____ _____    ______ ____

>  <TORSDO>
F 17

$$$$
=
 OpenBabel11042410483D

 49 52  0  0  1  0  0  0  0  0999 V2000
  190.3970  173.8840  135.4070 C   0  0  2  0  0  3  0  0  0  0  0  0
  189.3690  174.7640  134.7110 C   0  0  0  0  0  2  0  0  0  0  0  0
  189.2220  175.1490  137.0870 C   0  0  2  0  0  3  0  0  0  0  0  0
  190.5750  174.4760  136.8120 C   0  0  2  0  0  3  0  0  0  0  0  0
  188.6290  175.3990  135.7820 N   0  0  0  0  0  0  0  0  0  0  0  0
  184.8800  175.2980  135.8960 C   0  0  0  0  0  0  0  0  0  0  0  0
  186.5430  173.6240  136.5890 N   0  0  0  0  0  1  0  0  0  0  0  0
  186.9430  177.0120  135.0720 C   0  0  0  0  0  3  0  0  0  0  0  0
  184.5740  176.5650  135.3620 C   0  0  0  0  0  0  0  0  0  0  0  0
  187.2560  175.7620  135.6130 C   0  0  0  0  0  0  0  0  0  0  0  0
  185.6130  177.4110  134.9480 C   0  0  0  0  0  3  0  0  0  0  0  0
  186.2240  174.8990  136.0290 C   0  0  0  0  0  0  0  0  0  0  0  0
  183.8140  174.4150  136.3170 C   0  0  0  0  0  0  0  0  0  0  0  0
  182.9610  173.7050  136.6540 N   0  0  0  0  0  0  0  0  0  0  0  0
  183.2080  176.9810  135.2400 N   0  0  0  0  0  2  0  0  0  0  0  0
  182.4720  177.6750  136.2910 C   0  0  0  0  0  2  0  0  0  0  0  0
  180.2640  178.1810  136.9620 F   0  0  0  0  0  0  0  0  0  0  0  0
  180.9050  176.0210  136.9890 F   0  0  0  0  0  0  0  0  0  0  0  0
  181.0200  177.2230  136.3160 C   0  0  0  0  0  0  0  0  0  0  0  0
  180.5510  177.0690  135.0270 F   0  0  0  0  0  0  0  0  0  0  0  0
  189.6250  177.6730  137.1860 C   0  0  0  0  0  2  0  0  0  0  0  0
  187.7990  178.1880  138.6850 C   0  0  2  0  0  3  0  0  0  0  0  0
  187.9840  176.6780  138.6680 C   0  0  0  0  0  2  0  0  0  0  0  0
  189.0020  178.7920  137.9860 C   0  0  0  0  0  2  0  0  0  0  0  0
  189.3010  176.4120  137.9640 C   0  0  1  0  0  3  0  0  0  0  0  0
  187.7450  177.8630  140.9930 N   0  0  0  0  0  0  0  0  0  0  0  0
  187.7470  178.6650  140.0410 N   0  0  0  0  0  0  0  0  0  0  0  0
  187.6980  178.3370  142.3540 C   0  0  0  0  0  2  0  0  0  0  0  0
  188.9200  177.7010  144.4520 C   0  0  0  0  0  3  0  0  0  0  0  0
  190.1620  177.9390  142.3960 C   0  0  0  0  0  3  0  0  0  0  0  0
  188.9500  177.9770  143.0830 C   0  0  0  0  0  0  0  0  0  0  0  0
  190.1110  177.3870  145.1240 C   0  0  0  0  0  0  0  0  0  0  0  0
  191.3290  177.6210  143.0890 C   0  0  0  0  0  3  0  0  0  0  0  0
  191.2800  177.3560  144.4220 N   0  0  0  0  0  0  0  0  0  0  0  0
  190.1090  177.1040  146.5350 N   0  0  0  0  0  0  0  0  0  0  0  0
  191.2450  176.4190  147.1490 C   0  0  0  0  0  1  0  0  0  0  0  0
  189.1140  178.1980  148.4560 C   0  0  0  0  0  2  0  0  0  0  0  0
  188.9820  177.4990  147.3320 C   0  0  0  0  0  3  0  0  0  0  0  0
  191.7020  173.7370  134.6010 C   0  0  2  0  0  3  0  0  0  0  0  0
  192.4110  172.4040  134.8400 C   0  0  0  0  0  1  0  0  0  0  0  0
  192.5750  174.8430  134.7410 O   0  0  0  0  0  0  0  0  0  0  0  0
  193.9030  174.4060  134.5940 C   0  0  0  0  0  2  0  0  0  0  0  0
  194.7550  175.2670  135.2890 O   0  0  0  0  0  1  0  0  0  0  0  0
  191.6220  175.4120  136.8220 O   0  0  0  0  0  0  0  0  0  0  0  0
  193.2330  174.2230  137.9290 O   0  0  0  0  0  1  0  0  0  0  0  0
  192.2720  175.2310  138.0490 C   0  0  1  0  0  3  0  0  0  0  0  0
  192.9270  176.5040  138.4680 C   0  0  0  0  0  0  0  0  0  0  0  0
  193.8890  177.0860  137.6530 O   0  0  0  0  0  0  0  0  0  0  0  0
  192.6280  177.0450  139.5650 O   0  0  0  0  0  1  0  0  0  0  0  0
  1 39  1  6  0  0  0
  1  4  1  0  0  0  0
  2  1  1  0  0  0  0
  2  5  1  0  0  0  0
  3  5  1  6  0  0  0
  3 25  1  0  0  0  0
  4 44  1  6  0  0  0
  4  3  1  0  0  0  0
  6 12  1  0  0  0  0
  6 13  1  0  0  0  0
  8 10  1  0  0  0  0
  9  6  2  0  0  0  0
 10  5  1  0  0  0  0
 10 12  2  0  0  0  0
 11  8  2  0  0  0  0
 11  9  1  0  0  0  0
 12  7  1  0  0  0  0
 13 14  3  0  0  0  0
 15  9  1  0  0  0  0
 15 16  1  0  0  0  0
 16 19  1  0  0  0  0
 19 17  1  0  0  0  0
 19 18  1  0  0  0  0
 20 19  1  0  0  0  0
 21 24  1  0  0  0  0
 22 27  1  1  0  0  0
 23 22  1  0  0  0  0
 24 22  1  0  0  0  0
 25 21  1  6  0  0  0
 25 23  1  0  0  0  0
 26 28  1  0  0  0  0
 27 26  2  0  0  0  0
 28 31  1  0  0  0  0
 29 32  1  0  0  0  0
 30 31  1  0  0  0  0
 30 33  2  0  0  0  0
 31 29  2  0  0  0  0
 32 35  1  0  0  0  0
 33 34  1  0  0  0  0
 34 32  2  0  0  0  0
 35 36  1  0  0  0  0
 35 38  1  0  0  0  0
 38 37  2  0  0  0  0
 39 41  1  0  0  0  0
 39 40  1  1  0  0  0
 42 41  1  0  0  0  0
 42 43  1  0  0  0  0
 44 46  1  0  0  0  0
 46 45  1  6  0  0  0
 46 47  1  0  0  0  0
 47 49  1  0  0  0  0
 48 47  2  0  0  0  0
M  END
>  <MODEL>
7

>  <REMARK>
 VINA RESULT:      -5.3      4.866      7.532
  Name = 
  17 active torsions:
  status: ('A' for Active; 'I' for Inactive)
    1  A    between atoms: C_2  and  N_48
    2  A    between atoms: C_5  and  O_6
    3  A    between atoms: C_5  and  C_7
    4  A    between atoms: O_6  and  C_25
    5  A    between atoms: N_9  and  C_13
    6  A    between atoms: N_9  and  C_31
    7  A    between atoms: C_12  and  C_20
    8  A    between atoms: C_14  and  C_45
    9  A    between atoms: C_15  and  O_32
   10  A    between atoms: N_21  and  C_46
   11  A    between atoms: N_23  and  C_40
   12  A    between atoms: C_24  and  C_44
   13  A    between atoms: C_27  and  C_49
   14  A    between atoms: C_29  and  C_46
   15  A    between atoms: O_32  and  C_44
   16  A    between atoms: C_38  and  N_42
   17  A    between atoms: N_42  and  C_49
                            x       y       z     vdW  Elec       q    Type
                         _______ _______ _______ _____ _____    ______ ____

>  <TORSDO>
F 17

$$$$
=
 OpenBabel11042410483D

 49 52  0  0  1  0  0  0  0  0999 V2000
  185.0440  179.1910  142.7220 C   0  0  2  0  0  3  0  0  0  0  0  0
  183.7320  178.8220  142.0440 C   0  0  0  0  0  2  0  0  0  0  0  0
  185.4460  178.9870  140.3540 C   0  0  2  0  0  3  0  0  0  0  0  0
  186.1490  178.8470  141.7120 C   0  0  2  0  0  3  0  0  0  0  0  0
  184.0240  178.8340  140.6250 N   0  0  0  0  0  0  0  0  0  0  0  0
  180.9950  178.6200  138.4210 C   0  0  0  0  0  0  0  0  0  0  0  0
  182.0040  176.9450  139.9130 N   0  0  0  0  0  1  0  0  0  0  0  0
  183.0110  180.4480  139.1030 C   0  0  0  0  0  3  0  0  0  0  0  0
  180.9900  179.9150  137.8660 C   0  0  0  0  0  0  0  0  0  0  0  0
  183.0150  179.1700  139.6690 C   0  0  0  0  0  0  0  0  0  0  0  0
  182.0070  180.8180  138.2100 C   0  0  0  0  0  3  0  0  0  0  0  0
  182.0050  178.2500  139.3290 C   0  0  0  0  0  0  0  0  0  0  0  0
  179.9560  177.6790  138.0650 C   0  0  0  0  0  0  0  0  0  0  0  0
  179.1240  176.9240  137.7750 N   0  0  0  0  0  0  0  0  0  0  0  0
  179.9550  180.3000  136.9530 N   0  0  0  0  0  2  0  0  0  0  0  0
  179.2710  181.5880  136.9950 C   0  0  0  0  0  2  0  0  0  0  0  0
  179.1500  181.7290  134.6400 F   0  0  0  0  0  0  0  0  0  0  0  0
  180.9600  182.6050  135.6570 F   0  0  0  0  0  0  0  0  0  0  0  0
  179.5950  182.4080  135.7570 C   0  0  0  0  0  0  0  0  0  0  0  0
  178.9630  183.6330  135.8240 F   0  0  0  0  0  0  0  0  0  0  0  0
  185.0180  177.8940  138.0830 C   0  0  0  0  0  2  0  0  0  0  0  0
  187.2550  178.1810  137.2100 C   0  0  2  0  0  3  0  0  0  0  0  0
  187.2850  178.4950  138.6980 C   0  0  0  0  0  2  0  0  0  0  0  0
  185.9110  177.5410  136.9160 C   0  0  0  0  0  2  0  0  0  0  0  0
  185.9590  178.0280  139.2660 C   0  0  1  0  0  3  0  0  0  0  0  0
  188.3500  176.1320  137.4110 N   0  0  0  0  0  0  0  0  0  0  0  0
  188.3050  177.2560  136.8770 N   0  0  0  0  0  0  0  0  0  0  0  0
  189.3980  175.2000  137.0770 C   0  0  0  0  0  2  0  0  0  0  0  0
  191.8770  175.4690  136.7910 C   0  0  0  0  0  3  0  0  0  0  0  0
  190.8120  176.3950  138.7500 C   0  0  0  0  0  3  0  0  0  0  0  0
  190.7230  175.7040  137.5430 C   0  0  0  0  0  0  0  0  0  0  0  0
  193.1160  175.9310  137.2570 C   0  0  0  0  0  0  0  0  0  0  0  0
  192.0570  176.8450  139.1870 C   0  0  0  0  0  3  0  0  0  0  0  0
  193.1700  176.6060  138.4420 N   0  0  0  0  0  0  0  0  0  0  0  0
  194.3210  175.6970  136.5060 N   0  0  0  0  0  0  0  0  0  0  0  0
  194.5700  176.4320  135.2670 C   0  0  0  0  0  1  0  0  0  0  0  0
  196.3120  174.3380  136.2540 C   0  0  0  0  0  2  0  0  0  0  0  0
  195.2740  174.7350  136.9840 C   0  0  0  0  0  3  0  0  0  0  0  0
  185.2080  178.5310  144.1040 C   0  0  2  0  0  3  0  0  0  0  0  0
  184.0010  178.7410  145.0190 C   0  0  0  0  0  1  0  0  0  0  0  0
  186.4290  178.8570  144.7410 O   0  0  0  0  0  0  0  0  0  0  0  0
  186.3530  178.5010  146.0990 C   0  0  0  0  0  2  0  0  0  0  0  0
  187.4870  177.7670  146.4510 O   0  0  0  0  0  1  0  0  0  0  0  0
  186.6100  177.5360  141.9170 O   0  0  0  0  0  0  0  0  0  0  0  0
  188.4250  178.9200  142.0680 O   0  0  0  0  0  1  0  0  0  0  0  0
  188.0040  177.6110  141.8140 C   0  0  1  0  0  3  0  0  0  0  0  0
  188.6350  176.6800  142.7950 C   0  0  0  0  0  0  0  0  0  0  0  0
  190.0130  176.5080  142.7940 O   0  0  0  0  0  0  0  0  0  0  0  0
  187.9260  176.0340  143.6100 O   0  0  0  0  0  1  0  0  0  0  0  0
  1 39  1  1  0  0  0
  2  1  1  0  0  0  0
  3  5  1  1  0  0  0
  3  4  1  0  0  0  0
  4 44  1  1  0  0  0
  4  1  1  0  0  0  0
  5  2  1  0  0  0  0
  6 12  1  0  0  0  0
  8 10  1  0  0  0  0
  9 11  1  0  0  0  0
  9  6  2  0  0  0  0
 10  5  1  0  0  0  0
 11  8  2  0  0  0  0
 12 10  2  0  0  0  0
 12  7  1  0  0  0  0
 13  6  1  0  0  0  0
 14 13  3  0  0  0  0
 15 16  1  0  0  0  0
 15  9  1  0  0  0  0
 17 19  1  0  0  0  0
 18 19  1  0  0  0  0
 19 20  1  0  0  0  0
 19 16  1  0  0  0  0
 22 27  1  1  0  0  0
 22 23  1  0  0  0  0
 23 25  1  0  0  0  0
 24 22  1  0  0  0  0
 24 21  1  0  0  0  0
 25 21  1  6  0  0  0
 25  3  1  0  0  0  0
 27 26  2  0  0  0  0
 28 26  1  0  0  0  0
 28 31  1  0  0  0  0
 29 32  2  0  0  0  0
 29 31  1  0  0  0  0
 30 33  1  0  0  0  0
 31 30  2  0  0  0  0
 32 34  1  0  0  0  0
 34 33  2  0  0  0  0
 35 38  1  0  0  0  0
 35 32  1  0  0  0  0
 36 35  1  0  0  0  0
 37 38  2  0  0  0  0
 39 41  1  0  0  0  0
 39 40  1  1  0  0  0
 41 42  1  0  0  0  0
 42 43  1  0  0  0  0
 46 44  1  0  0  0  0
 46 45  1  1  0  0  0
 46 47  1  0  0  0  0
 47 49  1  0  0  0  0
 48 47  2  0  0  0  0
M  END
>  <MODEL>
8

>  <REMARK>
 VINA RESULT:      -5.3      4.600      7.098
  Name = 
  17 active torsions:
  status: ('A' for Active; 'I' for Inactive)
    1  A    between atoms: C_2  and  N_48
    2  A    between atoms: C_5  and  O_6
    3  A    between atoms: C_5  and  C_7
    4  A    between atoms: O_6  and  C_25
    5  A    between atoms: N_9  and  C_13
    6  A    between atoms: N_9  and  C_31
    7  A    between atoms: C_12  and  C_20
    8  A    between atoms: C_14  and  C_45
    9  A    between atoms: C_15  and  O_32
   10  A    between atoms: N_21  and  C_46
   11  A    between atoms: N_23  and  C_40
   12  A    between atoms: C_24  and  C_44
   13  A    between atoms: C_27  and  C_49
   14  A    between atoms: C_29  and  C_46
   15  A    between atoms: O_32  and  C_44
   16  A    between atoms: C_38  and  N_42
   17  A    between atoms: N_42  and  C_49
                            x       y       z     vdW  Elec       q    Type
                         _______ _______ _______ _____ _____    ______ ____

>  <TORSDO>
F 17

$$$$
=
 OpenBabel11042410483D

 49 52  0  0  1  0  0  0  0  0999 V2000
  190.3000  176.5110  142.0740 C   0  0  2  0  0  3  0  0  0  0  0  0
  191.4550  176.8510  141.1420 C   0  0  0  0  0  2  0  0  0  0  0  0
  189.4600  176.5640  139.8160 C   0  0  2  0  0  3  0  0  0  0  0  0
  189.0190  176.7800  141.2710 C   0  0  2  0  0  3  0  0  0  0  0  0
  190.9040  176.7480  139.8070 N   0  0  0  0  0  0  0  0  0  0  0  0
  192.1820  174.9300  136.7830 C   0  0  0  0  0  0  0  0  0  0  0  0
  190.2280  174.4800  138.2080 N   0  0  0  0  0  1  0  0  0  0  0  0
  192.8520  177.1310  138.3890 C   0  0  0  0  0  3  0  0  0  0  0  0
  193.3080  175.7160  136.4690 C   0  0  0  0  0  0  0  0  0  0  0  0
  191.7250  176.3650  138.7000 C   0  0  0  0  0  0  0  0  0  0  0  0
  193.6360  176.8100  137.2830 C   0  0  0  0  0  3  0  0  0  0  0  0
  191.3850  175.2600  137.8950 C   0  0  0  0  0  0  0  0  0  0  0  0
  191.8410  173.7940  135.9540 C   0  0  0  0  0  0  0  0  0  0  0  0
  191.5700  172.8850  135.2870 N   0  0  0  0  0  0  0  0  0  0  0  0
  194.1130  175.3920  135.3280 N   0  0  0  0  0  2  0  0  0  0  0  0
  195.5600  175.2180  135.3760 C   0  0  0  0  0  2  0  0  0  0  0  0
  195.1110  172.9590  135.9060 F   0  0  0  0  0  0  0  0  0  0  0  0
  195.7540  174.3260  137.5770 F   0  0  0  0  0  0  0  0  0  0  0  0
  195.9270  174.0220  136.2400 C   0  0  0  0  0  0  0  0  0  0  0  0
  197.2440  173.6690  136.0210 F   0  0  0  0  0  0  0  0  0  0  0  0
  189.5600  178.6270  138.3090 C   0  0  0  0  0  2  0  0  0  0  0  0
  188.5550  177.6010  136.3640 C   0  0  2  0  0  3  0  0  0  0  0  0
  188.3640  176.6620  137.5460 C   0  0  0  0  0  2  0  0  0  0  0  0
  189.0430  178.9240  136.9210 C   0  0  0  0  0  2  0  0  0  0  0  0
  188.7330  177.4490  138.7880 C   0  0  1  0  0  3  0  0  0  0  0  0
  186.4550  176.8930  135.6410 N   0  0  0  0  0  0  0  0  0  0  0  0
  187.3040  177.8020  135.6830 N   0  0  0  0  0  0  0  0  0  0  0  0
  185.1970  177.0920  134.9650 C   0  0  0  0  0  2  0  0  0  0  0  0
  184.0650  177.7210  137.1150 C   0  0  0  0  0  3  0  0  0  0  0  0
  182.9900  176.1410  135.6400 C   0  0  0  0  0  3  0  0  0  0  0  0
  184.0580  176.9910  135.9240 C   0  0  0  0  0  0  0  0  0  0  0  0
  182.9970  177.5950  138.0150 C   0  0  0  0  0  0  0  0  0  0  0  0
  181.9410  176.0370  136.5520 C   0  0  0  0  0  3  0  0  0  0  0  0
  181.9660  176.7560  137.7060 N   0  0  0  0  0  0  0  0  0  0  0  0
  182.9810  178.3310  139.2500 N   0  0  0  0  0  0  0  0  0  0  0  0
  182.9550  177.6230  140.5290 C   0  0  0  0  0  1  0  0  0  0  0  0
  181.9950  180.4730  138.6860 C   0  0  0  0  0  2  0  0  0  0  0  0
  182.9900  179.7670  139.2150 C   0  0  0  0  0  3  0  0  0  0  0  0
  190.3820  177.2530  143.4220 C   0  0  2  0  0  3  0  0  0  0  0  0
  191.3950  178.3990  143.4180 C   0  0  0  0  0  1  0  0  0  0  0  0
  190.5530  176.3890  144.5290 O   0  0  0  0  0  0  0  0  0  0  0  0
  191.0050  177.1330  145.6320 C   0  0  0  0  0  2  0  0  0  0  0  0
  192.0480  176.4480  146.2580 O   0  0  0  0  0  1  0  0  0  0  0  0
  188.5760  178.0960  141.4810 O   0  0  0  0  0  0  0  0  0  0  0  0
  187.3210  178.2470  143.3880 O   0  0  0  0  0  1  0  0  0  0  0  0
  187.2880  177.9740  142.0170 C   0  0  1  0  0  3  0  0  0  0  0  0
  186.3640  178.9260  141.3360 C   0  0  0  0  0  0  0  0  0  0  0  0
  185.5290  179.7380  142.0930 O   0  0  0  0  0  1  0  0  0  0  0  0
  186.3200  178.9860  140.0800 O   0  0  0  0  0  0  0  0  0  0  0  0
  1 39  1  1  0  0  0
  2  1  1  0  0  0  0
  3  5  1  1  0  0  0
  3  4  1  0  0  0  0
  4 44  1  6  0  0  0
  4  1  1  0  0  0  0
  5  2  1  0  0  0  0
  6 12  1  0  0  0  0
  8 10  1  0  0  0  0
  9  6  2  0  0  0  0
  9 11  1  0  0  0  0
 10  5  1  0  0  0  0
 11  8  2  0  0  0  0
 12  7  1  0  0  0  0
 12 10  2  0  0  0  0
 13  6  1  0  0  0  0
 14 13  3  0  0  0  0
 15 16  1  0  0  0  0
 15  9  1  0  0  0  0
 16 19  1  0  0  0  0
 17 19  1  0  0  0  0
 19 18  1  0  0  0  0
 20 19  1  0  0  0  0
 21 25  1  0  0  0  0
 22 27  1  1  0  0  0
 22 24  1  0  0  0  0
 22 23  1  0  0  0  0
 24 21  1  0  0  0  0
 25 23  1  6  0  0  0
 25  3  1  0  0  0  0
 26 27  2  0  0  0  0
 28 26  1  0  0  0  0
 28 31  1  0  0  0  0
 29 32  1  0  0  0  0
 30 31  1  0  0  0  0
 30 33  2  0  0  0  0
 31 29  2  0  0  0  0
 32 35  1  0  0  0  0
 33 34  1  0  0  0  0
 34 32  2  0  0  0  0
 35 36  1  0  0  0  0
 37 38  2  0  0  0  0
 38 35  1  0  0  0  0
 39 40  1  6  0  0  0
 39 41  1  0  0  0  0
 41 42  1  0  0  0  0
 42 43  1  0  0  0  0
 44 46  1  0  0  0  0
 46 45  1  1  0  0  0
 47 46  1  0  0  0  0
 47 48  1  0  0  0  0
 49 47  2  0  0  0  0
M  END
>  <MODEL>
9

>  <REMARK>
 VINA RESULT:      -5.2      6.550     11.405
  Name = 
  17 active torsions:
  status: ('A' for Active; 'I' for Inactive)
    1  A    between atoms: C_2  and  N_48
    2  A    between atoms: C_5  and  O_6
    3  A    between atoms: C_5  and  C_7
    4  A    between atoms: O_6  and  C_25
    5  A    between atoms: N_9  and  C_13
    6  A    between atoms: N_9  and  C_31
    7  A    between atoms: C_12  and  C_20
    8  A    between atoms: C_14  and  C_45
    9  A    between atoms: C_15  and  O_32
   10  A    between atoms: N_21  and  C_46
   11  A    between atoms: N_23  and  C_40
   12  A    between atoms: C_24  and  C_44
   13  A    between atoms: C_27  and  C_49
   14  A    between atoms: C_29  and  C_46
   15  A    between atoms: O_32  and  C_44
   16  A    between atoms: C_38  and  N_42
   17  A    between atoms: N_42  and  C_49
                            x       y       z     vdW  Elec       q    Type
                         _______ _______ _______ _____ _____    ______ ____

>  <TORSDO>
F 17

$$$$
