=
 OpenBabel11042412363D

 41 46  0  0  1  0  0  0  0  0999 V2000
  191.2010  176.3600  138.3880 C   0  0  0  0  0  0  0  0  0  0  0  0
  189.4230  177.9210  138.4320 C   0  0  0  0  0  3  0  0  0  0  0  0
  189.2890  177.7520  139.8150 C   0  0  0  0  0  0  0  0  0  0  0  0
  191.0870  176.1830  139.7320 N   0  0  0  0  0  0  0  0  0  0  0  0
  190.0530  176.6410  141.8580 N   0  0  0  0  0  0  0  0  0  0  0  0
  190.3700  177.2290  137.7500 N   0  0  0  0  0  0  0  0  0  0  0  0
  190.1540  176.8590  140.4530 C   0  0  0  0  0  0  0  0  0  0  0  0
  189.4240  176.8870  143.1880 C   0  0  2  0  0  3  0  0  0  0  0  0
  190.4480  175.9650  143.1280 C   0  0  0  0  0  2  0  0  0  0  0  0
  191.1460  173.6630  136.6670 C   0  0  0  0  0  2  0  0  0  0  0  0
  192.9240  173.1890  135.2810 N   0  0  0  0  0  0  0  0  0  0  0  0
  192.2220  175.6170  137.6320 C   0  0  0  0  0  0  0  0  0  0  0  0
  193.2280  176.1980  136.9650 C   0  0  0  0  0  3  0  0  0  0  0  0
  194.6820  173.9120  136.7320 N   0  0  0  0  0  2  0  0  0  0  0  0
  192.1860  174.1320  137.3530 C   0  0  2  0  0  3  0  0  0  0  0  0
  191.6370  173.0880  135.4000 C   0  0  0  0  0  3  0  0  0  0  0  0
  193.8520  175.0700  136.4320 N   0  0  0  0  0  0  0  0  0  0  0  0
  193.3700  173.7180  136.5460 C   0  0  2  0  0  0  0  0  0  0  0  0
  188.3190  178.4400  140.5540 O   0  0  0  0  0  0  0  0  0  0  0  0
  184.6630  179.0750  141.0450 C   0  0  0  0  0  2  0  0  0  0  0  0
  185.0210  178.4770  138.7690 C   0  0  0  0  0  2  0  0  0  0  0  0
  186.5380  178.5620  138.9210 C   0  0  0  0  0  2  0  0  0  0  0  0
  186.1610  179.1840  141.3150 C   0  0  0  0  0  2  0  0  0  0  0  0
  186.9210  178.2600  140.3680 C   0  0  0  0  0  3  0  0  0  0  0  0
  184.3770  179.4460  139.6580 N   0  0  0  0  0  0  0  0  0  0  0  0
  182.2610  177.9190  138.3980 C   0  0  0  0  0  1  0  0  0  0  0  0
  181.9800  179.1710  140.7530 O   0  0  0  0  0  0  0  0  0  0  0  0
  182.1570  180.5730  138.7560 O   0  0  0  0  0  0  0  0  0  0  0  0
  182.6610  179.3220  139.4210 S   0  0  0  0  0  0  0  0  0  0  0  0
  188.0780  176.1900  143.2150 C   0  0  0  0  0  2  0  0  0  0  0  0
  187.0760  176.9970  144.0250 C   0  0  0  0  0  2  0  0  0  0  0  0
  187.7420  177.9520  144.8120 O   0  0  0  0  0  0  0  0  0  0  0  0
  187.2880  177.8600  146.1490 C   0  0  1  0  0  3  0  0  0  0  0  0
  188.1890  176.6050  148.0290 O   0  0  0  0  0  1  0  0  0  0  0  0
  188.4260  177.6790  147.1660 C   0  0  1  0  0  3  0  0  0  0  0  0
  189.7930  177.5600  146.4930 C   0  0  0  0  0  2  0  0  0  0  0  0
  190.8290  176.8440  147.3500 C   0  0  0  0  0  2  0  0  0  0  0  0
  192.0080  176.6670  146.6270 O   0  0  0  0  0  1  0  0  0  0  0  0
  186.3790  178.9480  146.5060 N   0  0  0  0  0  2  0  0  0  0  0  0
  184.1720  178.7800  145.5210 C   0  0  0  0  0  1  0  0  0  0  0  0
  185.0610  178.3660  146.6750 C   0  0  0  0  0  2  0  0  0  0  0  0
  1  4  2  0  0  0  0
  2  3  1  0  0  0  0
  3  7  2  0  0  0  0
  3 19  1  0  0  0  0
  4  7  1  0  0  0  0
  5  9  1  0  0  0  0
  5  8  1  0  0  0  0
  6  1  1  0  0  0  0
  6  2  2  0  0  0  0
  7  5  1  0  0  0  0
  8 30  1  6  0  0  0
  9  8  1  0  0  0  0
 11 16  2  0  0  0  0
 12  1  1  0  0  0  0
 13 12  2  0  0  0  0
 15 10  1  6  0  0  0
 15 12  1  0  0  0  0
 16 10  1  0  0  0  0
 17 18  1  0  0  0  0
 17 14  1  0  0  0  0
 17 13  1  0  0  0  0
 18 11  1  6  0  0  0
 18 14  1  0  0  0  0
 18 15  1  0  0  0  0
 20 23  1  0  0  0  0
 21 22  1  0  0  0  0
 21 25  1  0  0  0  0
 22 24  1  0  0  0  0
 24 19  1  0  0  0  0
 24 23  1  0  0  0  0
 25 20  1  0  0  0  0
 26 29  1  0  0  0  0
 28 29  2  0  0  0  0
 29 25  1  0  0  0  0
 29 27  2  0  0  0  0
 30 31  1  0  0  0  0
 31 32  1  0  0  0  0
 33 32  1  6  0  0  0
 33 39  1  0  0  0  0
 33 35  1  0  0  0  0
 35 34  1  6  0  0  0
 36 35  1  0  0  0  0
 36 37  1  0  0  0  0
 38 37  1  0  0  0  0
 39 41  1  0  0  0  0
 40 41  1  0  0  0  0
M  END
>  <MODEL>
1

>  <REMARK>
 VINA RESULT:      -7.8      0.000      0.000
  Name = 
  13 active torsions:
  status: ('A' for Active; 'I' for Inactive)
    1  A    between atoms: O_2  and  C_11
    2  A    between atoms: O_2  and  C_35
    3  A    between atoms: C_3  and  N_21
    4  A    between atoms: C_3  and  O_23
    5  A    between atoms: C_3  and  C_27
    6  A    between atoms: C_5  and  C_6
    7  A    between atoms: C_14  and  C_19
    8  A    between atoms: C_15  and  O_23
    9  A    between atoms: C_15  and  C_37
   10  A    between atoms: C_19  and  C_27
   11  A    between atoms: N_21  and  C_30
   12  A    between atoms: S_34  and  N_40
   13  A    between atoms: C_37  and  C_38
                            x       y       z     vdW  Elec       q    Type
                         _______ _______ _______ _____ _____    ______ ____

>  <TORSDO>
F 13

$$$$
=
 OpenBabel11042412363D

 41 46  0  0  1  0  0  0  0  0999 V2000
  183.8440  178.7550  141.6070 C   0  0  0  0  0  0  0  0  0  0  0  0
  185.4170  179.3150  139.9300 C   0  0  0  0  0  3  0  0  0  0  0  0
  186.4230  178.6390  140.6280 C   0  0  0  0  0  0  0  0  0  0  0  0
  184.8080  178.0920  142.2990 N   0  0  0  0  0  0  0  0  0  0  0  0
  187.0740  177.3290  142.5910 N   0  0  0  0  0  0  0  0  0  0  0  0
  184.1550  179.3590  140.4270 N   0  0  0  0  0  0  0  0  0  0  0  0
  186.0840  178.0210  141.8350 C   0  0  0  0  0  0  0  0  0  0  0  0
  188.4710  176.8560  142.8140 C   0  0  2  0  0  3  0  0  0  0  0  0
  187.5370  176.5640  143.7850 C   0  0  0  0  0  2  0  0  0  0  0  0
  181.0430  177.5900  140.5910 C   0  0  0  0  0  2  0  0  0  0  0  0
  179.2550  177.5590  142.0440 N   0  0  0  0  0  0  0  0  0  0  0  0
  182.4690  178.8140  142.1310 C   0  0  0  0  0  0  0  0  0  0  0  0
  182.1670  178.8110  143.4360 C   0  0  0  0  0  3  0  0  0  0  0  0
  179.6190  179.6880  143.0690 N   0  0  0  0  0  2  0  0  0  0  0  0
  181.2160  178.7080  141.2940 C   0  0  2  0  0  3  0  0  0  0  0  0
  179.8260  176.9100  141.0770 C   0  0  0  0  0  3  0  0  0  0  0  0
  180.7740  178.8530  143.3640 N   0  0  0  0  0  0  0  0  0  0  0  0
  179.9990  178.7890  142.1520 C   0  0  2  0  0  0  0  0  0  0  0  0
  187.7400  178.5780  140.1550 O   0  0  0  0  0  0  0  0  0  0  0  0
  188.7570  177.1230  136.8590 C   0  0  0  0  0  2  0  0  0  0  0  0
  190.1340  176.1760  138.5530 C   0  0  0  0  0  2  0  0  0  0  0  0
  189.6180  177.1520  139.6060 C   0  0  0  0  0  2  0  0  0  0  0  0
  188.1650  178.1450  137.8260 C   0  0  0  0  0  2  0  0  0  0  0  0
  188.1980  177.5850  139.2450 C   0  0  0  0  0  3  0  0  0  0  0  0
  190.1370  176.8180  137.2370 N   0  0  0  0  0  0  0  0  0  0  0  0
  189.7450  175.6270  134.6250 C   0  0  0  0  0  1  0  0  0  0  0  0
  192.1610  176.0550  135.7070 O   0  0  0  0  0  0  0  0  0  0  0  0
  190.7800  174.3040  136.7120 O   0  0  0  0  0  0  0  0  0  0  0  0
  190.7590  175.6710  136.0900 S   0  0  0  0  0  0  0  0  0  0  0  0
  189.3170  178.0450  143.2250 C   0  0  0  0  0  2  0  0  0  0  0  0
  190.0020  177.7770  144.5550 C   0  0  0  0  0  2  0  0  0  0  0  0
  189.4130  178.5480  145.5720 O   0  0  0  0  0  0  0  0  0  0  0  0
  189.4190  177.8150  146.7820 C   0  0  1  0  0  3  0  0  0  0  0  0
  187.9250  177.8920  148.7020 O   0  0  0  0  0  1  0  0  0  0  0  0
  188.0110  177.5620  147.3460 C   0  0  1  0  0  3  0  0  0  0  0  0
  186.9250  178.2640  146.5320 C   0  0  0  0  0  2  0  0  0  0  0  0
  185.7270  178.6950  147.3680 C   0  0  0  0  0  2  0  0  0  0  0  0
  184.5750  178.7040  146.5840 O   0  0  0  0  0  1  0  0  0  0  0  0
  190.2190  176.5950  146.6920 N   0  0  0  0  0  2  0  0  0  0  0  0
  192.1880  175.5120  147.5950 C   0  0  0  0  0  1  0  0  0  0  0  0
  191.4170  176.8090  147.4820 C   0  0  0  0  0  2  0  0  0  0  0  0
  1 12  1  0  0  0  0
  1  4  2  0  0  0  0
  2  6  2  0  0  0  0
  2  3  1  0  0  0  0
  3  7  2  0  0  0  0
  5  8  1  0  0  0  0
  5  9  1  0  0  0  0
  6  1  1  0  0  0  0
  7  4  1  0  0  0  0
  7  5  1  0  0  0  0
  8 30  1  1  0  0  0
  8  9  1  0  0  0  0
 10 16  1  0  0  0  0
 12 13  2  0  0  0  0
 14 17  1  0  0  0  0
 15 10  1  1  0  0  0
 15 12  1  0  0  0  0
 15 18  1  0  0  0  0
 16 11  2  0  0  0  0
 17 13  1  0  0  0  0
 18 11  1  6  0  0  0
 18 14  1  0  0  0  0
 18 17  1  0  0  0  0
 19  3  1  0  0  0  0
 20 25  1  0  0  0  0
 20 23  1  0  0  0  0
 21 22  1  0  0  0  0
 23 24  1  0  0  0  0
 24 22  1  0  0  0  0
 24 19  1  0  0  0  0
 25 21  1  0  0  0  0
 26 29  1  0  0  0  0
 27 29  2  0  0  0  0
 29 28  2  0  0  0  0
 29 25  1  0  0  0  0
 30 31  1  0  0  0  0
 31 32  1  0  0  0  0
 33 32  1  6  0  0  0
 33 35  1  0  0  0  0
 35 34  1  1  0  0  0
 36 35  1  0  0  0  0
 36 37  1  0  0  0  0
 38 37  1  0  0  0  0
 39 33  1  0  0  0  0
 39 41  1  0  0  0  0
 41 40  1  0  0  0  0
M  END
>  <MODEL>
2

>  <REMARK>
 VINA RESULT:      -7.5      3.237      8.368
  Name = 
  13 active torsions:
  status: ('A' for Active; 'I' for Inactive)
    1  A    between atoms: O_2  and  C_11
    2  A    between atoms: O_2  and  C_35
    3  A    between atoms: C_3  and  N_21
    4  A    between atoms: C_3  and  O_23
    5  A    between atoms: C_3  and  C_27
    6  A    between atoms: C_5  and  C_6
    7  A    between atoms: C_14  and  C_19
    8  A    between atoms: C_15  and  O_23
    9  A    between atoms: C_15  and  C_37
   10  A    between atoms: C_19  and  C_27
   11  A    between atoms: N_21  and  C_30
   12  A    between atoms: S_34  and  N_40
   13  A    between atoms: C_37  and  C_38
                            x       y       z     vdW  Elec       q    Type
                         _______ _______ _______ _____ _____    ______ ____

>  <TORSDO>
F 13

$$$$
=
 OpenBabel11042412363D

 41 46  0  0  1  0  0  0  0  0999 V2000
  183.7910  178.7620  141.9190 C   0  0  0  0  0  0  0  0  0  0  0  0
  185.5380  179.3040  140.4180 C   0  0  0  0  0  3  0  0  0  0  0  0
  186.4690  178.6760  141.2520 C   0  0  0  0  0  0  0  0  0  0  0  0
  184.6810  178.1460  142.7420 N   0  0  0  0  0  0  0  0  0  0  0  0
  186.9120  177.4480  143.3220 N   0  0  0  0  0  0  0  0  0  0  0  0
  184.2260  179.3340  140.7620 N   0  0  0  0  0  0  0  0  0  0  0  0
  186.0030  178.0910  142.4320 C   0  0  0  0  0  0  0  0  0  0  0  0
  188.2820  177.0170  143.7220 C   0  0  2  0  0  3  0  0  0  0  0  0
  187.2470  176.7340  144.5890 C   0  0  0  0  0  2  0  0  0  0  0  0
  181.1370  177.6090  140.5540 C   0  0  0  0  0  2  0  0  0  0  0  0
  179.1900  177.5400  141.7820 N   0  0  0  0  0  0  0  0  0  0  0  0
  182.3640  178.8040  142.2770 C   0  0  0  0  0  0  0  0  0  0  0  0
  181.9080  178.7720  143.5370 C   0  0  0  0  0  3  0  0  0  0  0  0
  179.4160  179.6480  142.8880 N   0  0  0  0  0  2  0  0  0  0  0  0
  181.2190  178.7120  141.2950 C   0  0  2  0  0  3  0  0  0  0  0  0
  179.8760  176.9140  140.8770 C   0  0  0  0  0  3  0  0  0  0  0  0
  180.5330  178.8110  143.3000 N   0  0  0  0  0  0  0  0  0  0  0  0
  179.9080  178.7700  142.0040 C   0  0  2  0  0  0  0  0  0  0  0  0
  187.8330  178.6320  140.9370 O   0  0  0  0  0  0  0  0  0  0  0  0
  189.0920  177.0640  137.7790 C   0  0  0  0  0  2  0  0  0  0  0  0
  190.4940  176.3690  139.5710 C   0  0  0  0  0  2  0  0  0  0  0  0
  189.8540  177.3600  140.5400 C   0  0  0  0  0  2  0  0  0  0  0  0
  188.3740  178.0870  138.6570 C   0  0  0  0  0  2  0  0  0  0  0  0
  188.4120  177.6290  140.1120 C   0  0  0  0  0  3  0  0  0  0  0  0
  190.4810  176.9180  138.2140 N   0  0  0  0  0  0  0  0  0  0  0  0
  190.2600  175.4790  135.7090 C   0  0  0  0  0  1  0  0  0  0  0  0
  192.5980  176.2750  136.7560 O   0  0  0  0  0  0  0  0  0  0  0  0
  191.4190  174.4620  137.9010 O   0  0  0  0  0  0  0  0  0  0  0  0
  191.2450  175.7620  137.1670 S   0  0  0  0  0  0  0  0  0  0  0  0
  189.0510  178.2390  144.1870 C   0  0  0  0  0  2  0  0  0  0  0  0
  190.3990  177.8350  144.7590 C   0  0  0  0  0  2  0  0  0  0  0  0
  190.3900  177.9520  146.1600 O   0  0  0  0  0  0  0  0  0  0  0  0
  190.1490  176.6830  146.7370 C   0  0  1  0  0  3  0  0  0  0  0  0
  192.2950  175.6410  146.2560 O   0  0  0  0  0  1  0  0  0  0  0  0
  191.4210  176.0130  147.2820 C   0  0  1  0  0  3  0  0  0  0  0  0
  192.1280  176.8730  148.3300 C   0  0  0  0  0  2  0  0  0  0  0  0
  193.2590  176.1460  149.0450 C   0  0  0  0  0  2  0  0  0  0  0  0
  194.0030  177.0490  149.8030 O   0  0  0  0  0  1  0  0  0  0  0  0
  189.0630  176.7120  147.7140 N   0  0  0  0  0  2  0  0  0  0  0  0
  187.2180  178.2760  147.8420 C   0  0  0  0  0  1  0  0  0  0  0  0
  188.7190  178.1040  147.9320 C   0  0  0  0  0  2  0  0  0  0  0  0
  1 12  1  0  0  0  0
  1  4  2  0  0  0  0
  2  6  2  0  0  0  0
  2  3  1  0  0  0  0
  3  7  2  0  0  0  0
  5  8  1  0  0  0  0
  5  9  1  0  0  0  0
  6  1  1  0  0  0  0
  7  4  1  0  0  0  0
  7  5  1  0  0  0  0
  8 30  1  1  0  0  0
  8  9  1  0  0  0  0
 10 16  1  0  0  0  0
 12 13  2  0  0  0  0
 14 17  1  0  0  0  0
 15 10  1  1  0  0  0
 15 18  1  0  0  0  0
 15 12  1  0  0  0  0
 16 11  2  0  0  0  0
 17 13  1  0  0  0  0
 18 11  1  6  0  0  0
 18 14  1  0  0  0  0
 18 17  1  0  0  0  0
 19  3  1  0  0  0  0
 20 25  1  0  0  0  0
 20 23  1  0  0  0  0
 21 22  1  0  0  0  0
 23 24  1  0  0  0  0
 24 22  1  0  0  0  0
 24 19  1  0  0  0  0
 25 21  1  0  0  0  0
 26 29  1  0  0  0  0
 27 29  2  0  0  0  0
 29 28  2  0  0  0  0
 29 25  1  0  0  0  0
 30 31  1  0  0  0  0
 31 32  1  0  0  0  0
 33 32  1  1  0  0  0
 33 35  1  0  0  0  0
 33 39  1  0  0  0  0
 35 34  1  6  0  0  0
 35 36  1  0  0  0  0
 36 37  1  0  0  0  0
 37 38  1  0  0  0  0
 39 41  1  0  0  0  0
 40 41  1  0  0  0  0
M  END
>  <MODEL>
3

>  <REMARK>
 VINA RESULT:      -7.4      3.215      8.247
  Name = 
  13 active torsions:
  status: ('A' for Active; 'I' for Inactive)
    1  A    between atoms: O_2  and  C_11
    2  A    between atoms: O_2  and  C_35
    3  A    between atoms: C_3  and  N_21
    4  A    between atoms: C_3  and  O_23
    5  A    between atoms: C_3  and  C_27
    6  A    between atoms: C_5  and  C_6
    7  A    between atoms: C_14  and  C_19
    8  A    between atoms: C_15  and  O_23
    9  A    between atoms: C_15  and  C_37
   10  A    between atoms: C_19  and  C_27
   11  A    between atoms: N_21  and  C_30
   12  A    between atoms: S_34  and  N_40
   13  A    between atoms: C_37  and  C_38
                            x       y       z     vdW  Elec       q    Type
                         _______ _______ _______ _____ _____    ______ ____

>  <TORSDO>
F 13

$$$$
=
 OpenBabel11042412363D

 41 46  0  0  1  0  0  0  0  0999 V2000
  189.1080  177.1530  137.2440 C   0  0  0  0  0  0  0  0  0  0  0  0
  186.9780  178.1100  137.6290 C   0  0  0  0  0  3  0  0  0  0  0  0
  187.2680  178.2450  138.9910 C   0  0  0  0  0  0  0  0  0  0  0  0
  189.4090  177.2780  138.5640 N   0  0  0  0  0  0  0  0  0  0  0  0
  188.8610  177.9180  140.8200 N   0  0  0  0  0  0  0  0  0  0  0  0
  187.8960  177.5730  136.7860 N   0  0  0  0  0  0  0  0  0  0  0  0
  188.5190  177.8130  139.4410 C   0  0  0  0  0  0  0  0  0  0  0  0
  188.5480  178.2850  142.2320 C   0  0  2  0  0  3  0  0  0  0  0  0
  189.7740  177.7050  141.9810 C   0  0  0  0  0  2  0  0  0  0  0  0
  190.6900  174.3740  137.1600 C   0  0  0  0  0  2  0  0  0  0  0  0
  191.7640  173.7600  135.2170 N   0  0  0  0  0  0  0  0  0  0  0  0
  190.0920  176.5730  136.3160 C   0  0  0  0  0  0  0  0  0  0  0  0
  190.0820  176.7780  134.9920 C   0  0  0  0  0  3  0  0  0  0  0  0
  192.6320  175.9060  134.6200 N   0  0  0  0  0  2  0  0  0  0  0  0
  191.1300  175.5380  136.6870 C   0  0  2  0  0  3  0  0  0  0  0  0
  191.1000  173.3020  136.2330 C   0  0  0  0  0  3  0  0  0  0  0  0
  191.1790  176.0000  134.6170 N   0  0  0  0  0  0  0  0  0  0  0  0
  191.9480  175.1610  135.4990 C   0  0  2  0  0  0  0  0  0  0  0  0
  186.3450  178.7860  139.8940 O   0  0  0  0  0  0  0  0  0  0  0  0
  182.9110  178.2430  141.2840 C   0  0  0  0  0  2  0  0  0  0  0  0
  182.7000  179.2050  139.1180 C   0  0  0  0  0  2  0  0  0  0  0  0
  184.1970  179.4900  139.0290 C   0  0  0  0  0  2  0  0  0  0  0  0
  184.4210  178.4720  141.3050 C   0  0  0  0  0  2  0  0  0  0  0  0
  184.9580  178.4720  139.8770 C   0  0  0  0  0  3  0  0  0  0  0  0
  182.2560  179.2980  140.5100 N   0  0  0  0  0  0  0  0  0  0  0  0
  179.6440  180.4870  140.9040 C   0  0  0  0  0  1  0  0  0  0  0  0
  180.1060  178.4620  139.2070 O   0  0  0  0  0  0  0  0  0  0  0  0
  180.2420  177.9700  141.5990 O   0  0  0  0  0  0  0  0  0  0  0  0
  180.5470  178.9940  140.5430 S   0  0  0  0  0  0  0  0  0  0  0  0
  187.5760  177.2630  142.7870 C   0  0  0  0  0  2  0  0  0  0  0  0
  187.9790  176.8540  144.1940 C   0  0  0  0  0  2  0  0  0  0  0  0
  187.9030  177.9560  145.0630 O   0  0  0  0  0  0  0  0  0  0  0  0
  187.7470  177.4970  146.3920 C   0  0  1  0  0  3  0  0  0  0  0  0
  188.5740  178.2620  148.5490 O   0  0  0  0  0  1  0  0  0  0  0  0
  188.9600  177.8020  147.2860 C   0  0  1  0  0  3  0  0  0  0  0  0
  189.9150  176.6140  147.3950 C   0  0  0  0  0  2  0  0  0  0  0  0
  191.2830  176.8800  146.7810 C   0  0  0  0  0  2  0  0  0  0  0  0
  191.1810  176.9390  145.3920 O   0  0  0  0  0  1  0  0  0  0  0  0
  186.4830  177.9300  146.9870 N   0  0  0  0  0  2  0  0  0  0  0  0
  184.6070  178.7010  145.6630 C   0  0  0  0  0  1  0  0  0  0  0  0
  185.9880  179.0330  146.1860 C   0  0  0  0  0  2  0  0  0  0  0  0
  1  4  2  0  0  0  0
  2  3  1  0  0  0  0
  3  7  2  0  0  0  0
  3 19  1  0  0  0  0
  4  7  1  0  0  0  0
  5  9  1  0  0  0  0
  5  8  1  0  0  0  0
  6  1  1  0  0  0  0
  6  2  2  0  0  0  0
  7  5  1  0  0  0  0
  8 30  1  1  0  0  0
  9  8  1  0  0  0  0
 11 18  1  0  0  0  0
 11 16  2  0  0  0  0
 12 15  1  0  0  0  0
 12  1  1  0  0  0  0
 13 12  2  0  0  0  0
 15 10  1  6  0  0  0
 16 10  1  0  0  0  0
 17 14  1  0  0  0  0
 17 13  1  0  0  0  0
 17 18  1  0  0  0  0
 18 14  1  1  0  0  0
 18 15  1  0  0  0  0
 20 23  1  0  0  0  0
 21 25  1  0  0  0  0
 22 21  1  0  0  0  0
 22 24  1  0  0  0  0
 24 19  1  0  0  0  0
 24 23  1  0  0  0  0
 25 29  1  0  0  0  0
 25 20  1  0  0  0  0
 27 29  2  0  0  0  0
 29 26  1  0  0  0  0
 29 28  2  0  0  0  0
 30 31  1  0  0  0  0
 31 32  1  0  0  0  0
 33 32  1  6  0  0  0
 33 39  1  0  0  0  0
 33 35  1  0  0  0  0
 35 36  1  0  0  0  0
 35 34  1  1  0  0  0
 37 36  1  0  0  0  0
 38 37  1  0  0  0  0
 40 41  1  0  0  0  0
 41 39  1  0  0  0  0
M  END
>  <MODEL>
4

>  <REMARK>
 VINA RESULT:      -7.4      1.838      2.227
  Name = 
  13 active torsions:
  status: ('A' for Active; 'I' for Inactive)
    1  A    between atoms: O_2  and  C_11
    2  A    between atoms: O_2  and  C_35
    3  A    between atoms: C_3  and  N_21
    4  A    between atoms: C_3  and  O_23
    5  A    between atoms: C_3  and  C_27
    6  A    between atoms: C_5  and  C_6
    7  A    between atoms: C_14  and  C_19
    8  A    between atoms: C_15  and  O_23
    9  A    between atoms: C_15  and  C_37
   10  A    between atoms: C_19  and  C_27
   11  A    between atoms: N_21  and  C_30
   12  A    between atoms: S_34  and  N_40
   13  A    between atoms: C_37  and  C_38
                            x       y       z     vdW  Elec       q    Type
                         _______ _______ _______ _____ _____    ______ ____

>  <TORSDO>
F 13

$$$$
=
 OpenBabel11042412363D

 41 46  0  0  1  0  0  0  0  0999 V2000
  186.6770  178.3290  138.8970 C   0  0  0  0  0  0  0  0  0  0  0  0
  188.7690  178.4230  137.7950 C   0  0  0  0  0  3  0  0  0  0  0  0
  189.3980  177.8580  138.9100 C   0  0  0  0  0  0  0  0  0  0  0  0
  187.2700  177.7780  139.9890 N   0  0  0  0  0  0  0  0  0  0  0  0
  189.2000  176.9700  141.1820 N   0  0  0  0  0  0  0  0  0  0  0  0
  187.4300  178.6450  137.8070 N   0  0  0  0  0  0  0  0  0  0  0  0
  188.6080  177.5370  140.0170 C   0  0  0  0  0  0  0  0  0  0  0  0
  190.3760  176.4790  141.9570 C   0  0  2  0  0  3  0  0  0  0  0  0
  189.1470  176.4570  142.5820 C   0  0  0  0  0  2  0  0  0  0  0  0
  184.1700  176.7420  137.7000 C   0  0  0  0  0  2  0  0  0  0  0  0
  182.0500  177.3200  138.3920 N   0  0  0  0  0  0  0  0  0  0  0  0
  185.2260  178.5770  138.8930 C   0  0  0  0  0  0  0  0  0  0  0  0
  184.5650  179.1600  139.9020 C   0  0  0  0  0  3  0  0  0  0  0  0
  182.3440  179.6930  138.4250 N   0  0  0  0  0  2  0  0  0  0  0  0
  184.2600  178.0620  137.8510 C   0  0  2  0  0  3  0  0  0  0  0  0
  182.7970  176.3210  138.0390 C   0  0  0  0  0  3  0  0  0  0  0  0
  183.2640  179.1200  139.3970 N   0  0  0  0  0  0  0  0  0  0  0  0
  182.8660  178.4870  138.1660 C   0  0  2  0  0  0  0  0  0  0  0  0
  190.7780  177.6220  138.9410 O   0  0  0  0  0  0  0  0  0  0  0  0
  193.6150  175.6360  137.5190 C   0  0  0  0  0  2  0  0  0  0  0  0
  191.6100  174.3850  137.2400 C   0  0  0  0  0  2  0  0  0  0  0  0
  190.8140  175.3460  138.1180 C   0  0  0  0  0  2  0  0  0  0  0  0
  192.9210  176.6660  138.4070 C   0  0  0  0  0  2  0  0  0  0  0  0
  191.4400  176.7370  138.0460 C   0  0  0  0  0  3  0  0  0  0  0  0
  192.9980  174.3210  137.7010 N   0  0  0  0  0  0  0  0  0  0  0  0
  194.6660  174.0400  135.3490 C   0  0  0  0  0  1  0  0  0  0  0  0
  194.8650  172.4520  137.5010 O   0  0  0  0  0  0  0  0  0  0  0  0
  192.8660  172.2070  136.1130 O   0  0  0  0  0  0  0  0  0  0  0  0
  193.8440  173.1950  136.6850 S   0  0  0  0  0  0  0  0  0  0  0  0
  191.1850  177.6790  142.4100 C   0  0  0  0  0  2  0  0  0  0  0  0
  191.5830  177.5340  143.8690 C   0  0  0  0  0  2  0  0  0  0  0  0
  190.6110  178.1170  144.7000 O   0  0  0  0  0  0  0  0  0  0  0  0
  190.7610  177.6240  146.0180 C   0  0  1  0  0  3  0  0  0  0  0  0
  189.2910  178.1730  147.8780 O   0  0  0  0  0  1  0  0  0  0  0  0
  189.4210  177.3830  146.7320 C   0  0  1  0  0  3  0  0  0  0  0  0
  188.2250  177.5580  145.7980 C   0  0  0  0  0  2  0  0  0  0  0  0
  186.9440  177.9520  146.5220 C   0  0  0  0  0  2  0  0  0  0  0  0
  186.0650  178.5720  145.6360 O   0  0  0  0  0  1  0  0  0  0  0  0
  191.6520  176.4680  146.0830 N   0  0  0  0  0  2  0  0  0  0  0  0
  192.7950  175.6970  148.0750 C   0  0  0  0  0  1  0  0  0  0  0  0
  191.4590  175.8500  147.3810 C   0  0  0  0  0  2  0  0  0  0  0  0
  1  4  2  0  0  0  0
  2  6  2  0  0  0  0
  2  3  1  0  0  0  0
  3 19  1  0  0  0  0
  3  7  2  0  0  0  0
  4  7  1  0  0  0  0
  5  8  1  0  0  0  0
  5  9  1  0  0  0  0
  6  1  1  0  0  0  0
  7  5  1  0  0  0  0
  8 30  1  1  0  0  0
  8  9  1  0  0  0  0
 10 16  1  0  0  0  0
 12  1  1  0  0  0  0
 12 13  2  0  0  0  0
 14 17  1  0  0  0  0
 15 10  1  1  0  0  0
 15 18  1  0  0  0  0
 15 12  1  0  0  0  0
 16 11  2  0  0  0  0
 17 13  1  0  0  0  0
 18 11  1  1  0  0  0
 18 14  1  0  0  0  0
 18 17  1  0  0  0  0
 20 25  1  0  0  0  0
 20 23  1  0  0  0  0
 21 25  1  0  0  0  0
 21 22  1  0  0  0  0
 24 22  1  0  0  0  0
 24 23  1  0  0  0  0
 24 19  1  0  0  0  0
 26 29  1  0  0  0  0
 28 29  2  0  0  0  0
 29 27  2  0  0  0  0
 29 25  1  0  0  0  0
 30 31  1  0  0  0  0
 31 32  1  0  0  0  0
 33 32  1  6  0  0  0
 33 39  1  0  0  0  0
 33 35  1  0  0  0  0
 35 34  1  1  0  0  0
 36 37  1  0  0  0  0
 36 35  1  0  0  0  0
 38 37  1  0  0  0  0
 39 41  1  0  0  0  0
 41 40  1  0  0  0  0
M  END
>  <MODEL>
5

>  <REMARK>
 VINA RESULT:      -7.1      3.383      7.818
  Name = 
  13 active torsions:
  status: ('A' for Active; 'I' for Inactive)
    1  A    between atoms: O_2  and  C_11
    2  A    between atoms: O_2  and  C_35
    3  A    between atoms: C_3  and  N_21
    4  A    between atoms: C_3  and  O_23
    5  A    between atoms: C_3  and  C_27
    6  A    between atoms: C_5  and  C_6
    7  A    between atoms: C_14  and  C_19
    8  A    between atoms: C_15  and  O_23
    9  A    between atoms: C_15  and  C_37
   10  A    between atoms: C_19  and  C_27
   11  A    between atoms: N_21  and  C_30
   12  A    between atoms: S_34  and  N_40
   13  A    between atoms: C_37  and  C_38
                            x       y       z     vdW  Elec       q    Type
                         _______ _______ _______ _____ _____    ______ ____

>  <TORSDO>
F 13

$$$$
=
 OpenBabel11042412363D

 41 46  0  0  1  0  0  0  0  0999 V2000
  186.7120  178.3290  139.0690 C   0  0  0  0  0  0  0  0  0  0  0  0
  188.8610  178.4510  138.0860 C   0  0  0  0  0  3  0  0  0  0  0  0
  189.4260  177.8320  139.2070 C   0  0  0  0  0  0  0  0  0  0  0  0
  187.2420  177.7250  140.1660 N   0  0  0  0  0  0  0  0  0  0  0  0
  189.0990  176.8470  141.4230 N   0  0  0  0  0  0  0  0  0  0  0  0
  187.5250  178.6850  138.0370 N   0  0  0  0  0  0  0  0  0  0  0  0
  188.5750  177.4700  140.2540 C   0  0  0  0  0  0  0  0  0  0  0  0
  190.2280  176.3110  142.2370 C   0  0  2  0  0  3  0  0  0  0  0  0
  188.9670  176.2730  142.7940 C   0  0  0  0  0  2  0  0  0  0  0  0
  184.2410  176.7390  137.8050 C   0  0  0  0  0  2  0  0  0  0  0  0
  182.1000  177.3540  138.3940 N   0  0  0  0  0  0  0  0  0  0  0  0
  185.2660  178.5910  138.9990 C   0  0  0  0  0  0  0  0  0  0  0  0
  184.5690  179.2030  139.9660 C   0  0  0  0  0  3  0  0  0  0  0  0
  182.4170  179.7240  138.3860 N   0  0  0  0  0  2  0  0  0  0  0  0
  184.3390  178.0610  137.9290 C   0  0  2  0  0  3  0  0  0  0  0  0
  182.8500  176.3390  138.0950 C   0  0  0  0  0  3  0  0  0  0  0  0
  183.2910  179.1640  139.4080 N   0  0  0  0  0  0  0  0  0  0  0  0
  182.9370  178.5070  138.1770 C   0  0  2  0  0  0  0  0  0  0  0  0
  190.8000  177.5820  139.3010 O   0  0  0  0  0  0  0  0  0  0  0  0
  193.7480  175.8220  137.8070 C   0  0  0  0  0  2  0  0  0  0  0  0
  191.8070  174.5020  137.4120 C   0  0  0  0  0  2  0  0  0  0  0  0
  190.9540  175.3680  138.3350 C   0  0  0  0  0  2  0  0  0  0  0  0
  192.9920  176.7600  138.7460 C   0  0  0  0  0  2  0  0  0  0  0  0
  191.5160  176.7880  138.3630 C   0  0  0  0  0  3  0  0  0  0  0  0
  193.1890  174.4720  137.8930 N   0  0  0  0  0  0  0  0  0  0  0  0
  195.1300  172.3250  137.7430 C   0  0  0  0  0  1  0  0  0  0  0  0
  193.1580  172.6650  135.9560 O   0  0  0  0  0  0  0  0  0  0  0  0
  194.9730  174.3050  135.9440 O   0  0  0  0  0  0  0  0  0  0  0  0
  194.1010  173.4530  136.8230 S   0  0  0  0  0  0  0  0  0  0  0  0
  191.0210  177.4820  142.7850 C   0  0  0  0  0  2  0  0  0  0  0  0
  190.1060  178.4460  143.5230 C   0  0  0  0  0  2  0  0  0  0  0  0
  190.4950  178.5530  144.8700 O   0  0  0  0  0  0  0  0  0  0  0  0
  189.6730  177.7220  145.6650 C   0  0  1  0  0  3  0  0  0  0  0  0
  189.5730  176.3310  147.6600 O   0  0  0  0  0  1  0  0  0  0  0  0
  190.4340  177.0270  146.8060 C   0  0  1  0  0  3  0  0  0  0  0  0
  191.5550  176.1240  146.2900 C   0  0  0  0  0  2  0  0  0  0  0  0
  192.4770  175.6160  147.3910 C   0  0  0  0  0  2  0  0  0  0  0  0
  192.6190  176.5850  148.3820 O   0  0  0  0  0  1  0  0  0  0  0  0
  188.4670  178.4070  146.1260 N   0  0  0  0  0  2  0  0  0  0  0  0
  186.0470  178.3030  146.0750 C   0  0  0  0  0  1  0  0  0  0  0  0
  187.3340  177.7420  145.5100 C   0  0  0  0  0  2  0  0  0  0  0  0
  1  4  2  0  0  0  0
  2  3  1  0  0  0  0
  3 19  1  0  0  0  0
  3  7  2  0  0  0  0
  4  7  1  0  0  0  0
  5  8  1  0  0  0  0
  5  9  1  0  0  0  0
  6  2  2  0  0  0  0
  6  1  1  0  0  0  0
  7  5  1  0  0  0  0
  8 30  1  1  0  0  0
  8  9  1  0  0  0  0
 10 16  1  0  0  0  0
 12  1  1  0  0  0  0
 12 13  2  0  0  0  0
 14 17  1  0  0  0  0
 15 10  1  1  0  0  0
 15 18  1  0  0  0  0
 15 12  1  0  0  0  0
 16 11  2  0  0  0  0
 17 13  1  0  0  0  0
 18 14  1  6  0  0  0
 18 11  1  0  0  0  0
 18 17  1  0  0  0  0
 20 25  1  0  0  0  0
 20 23  1  0  0  0  0
 21 25  1  0  0  0  0
 21 22  1  0  0  0  0
 22 24  1  0  0  0  0
 24 23  1  0  0  0  0
 24 19  1  0  0  0  0
 27 29  2  0  0  0  0
 28 29  2  0  0  0  0
 29 26  1  0  0  0  0
 29 25  1  0  0  0  0
 30 31  1  0  0  0  0
 31 32  1  0  0  0  0
 33 32  1  1  0  0  0
 33 39  1  0  0  0  0
 33 35  1  0  0  0  0
 35 34  1  6  0  0  0
 36 35  1  0  0  0  0
 36 37  1  0  0  0  0
 37 38  1  0  0  0  0
 41 40  1  0  0  0  0
 41 39  1  0  0  0  0
M  END
>  <MODEL>
6

>  <REMARK>
 VINA RESULT:      -7.0      3.296      7.469
  Name = 
  13 active torsions:
  status: ('A' for Active; 'I' for Inactive)
    1  A    between atoms: O_2  and  C_11
    2  A    between atoms: O_2  and  C_35
    3  A    between atoms: C_3  and  N_21
    4  A    between atoms: C_3  and  O_23
    5  A    between atoms: C_3  and  C_27
    6  A    between atoms: C_5  and  C_6
    7  A    between atoms: C_14  and  C_19
    8  A    between atoms: C_15  and  O_23
    9  A    between atoms: C_15  and  C_37
   10  A    between atoms: C_19  and  C_27
   11  A    between atoms: N_21  and  C_30
   12  A    between atoms: S_34  and  N_40
   13  A    between atoms: C_37  and  C_38
                            x       y       z     vdW  Elec       q    Type
                         _______ _______ _______ _____ _____    ______ ____

>  <TORSDO>
F 13

$$$$
=
 OpenBabel11042412363D

 41 46  0  0  1  0  0  0  0  0999 V2000
  192.7250  176.5540  138.3450 C   0  0  0  0  0  0  0  0  0  0  0  0
  192.1010  177.4510  140.4440 C   0  0  0  0  0  3  0  0  0  0  0  0
  190.7480  177.3200  140.1150 C   0  0  0  0  0  0  0  0  0  0  0  0
  191.4140  176.4170  138.0080 N   0  0  0  0  0  0  0  0  0  0  0  0
  189.0620  176.6410  138.4750 N   0  0  0  0  0  0  0  0  0  0  0  0
  193.0570  177.0670  139.5610 N   0  0  0  0  0  0  0  0  0  0  0  0
  190.4250  176.7860  138.8640 C   0  0  0  0  0  0  0  0  0  0  0  0
  187.5990  176.7830  138.7230 C   0  0  2  0  0  3  0  0  0  0  0  0
  187.9920  176.2830  137.4990 C   0  0  0  0  0  2  0  0  0  0  0  0
  194.1740  173.7700  137.7300 C   0  0  0  0  0  2  0  0  0  0  0  0
  195.4220  173.5630  135.8040 N   0  0  0  0  0  0  0  0  0  0  0  0
  193.7750  176.1440  137.3990 C   0  0  0  0  0  0  0  0  0  0  0  0
  193.9190  176.6600  136.1720 C   0  0  0  0  0  3  0  0  0  0  0  0
  196.4500  175.7220  135.8380 N   0  0  0  0  0  2  0  0  0  0  0  0
  194.7170  174.9790  137.6010 C   0  0  2  0  0  3  0  0  0  0  0  0
  194.6320  172.9240  136.6100 C   0  0  0  0  0  3  0  0  0  0  0  0
  195.0130  175.9190  135.7210 N   0  0  0  0  0  0  0  0  0  0  0  0
  195.6410  174.8400  136.4380 C   0  0  2  0  0  0  0  0  0  0  0  0
  189.7300  177.7120  140.9940 O   0  0  0  0  0  0  0  0  0  0  0  0
  190.1250  178.1730  144.6880 C   0  0  0  0  0  2  0  0  0  0  0  0
  188.2530  176.7540  144.3050 C   0  0  0  0  0  2  0  0  0  0  0  0
  188.2780  177.0220  142.8030 C   0  0  0  0  0  2  0  0  0  0  0  0
  190.2500  178.5090  143.2040 C   0  0  0  0  0  2  0  0  0  0  0  0
  189.7050  177.3540  142.3690 C   0  0  0  0  0  3  0  0  0  0  0  0
  188.7220  177.9370  145.0300 N   0  0  0  0  0  0  0  0  0  0  0  0
  189.9010  176.4060  147.1890 C   0  0  0  0  0  1  0  0  0  0  0  0
  188.8430  178.8490  147.5150 O   0  0  0  0  0  0  0  0  0  0  0  0
  187.2940  177.0110  147.0580 O   0  0  0  0  0  0  0  0  0  0  0  0
  188.6440  177.5830  146.7280 S   0  0  0  0  0  0  0  0  0  0  0  0
  187.2350  178.2500  138.6100 C   0  0  0  0  0  2  0  0  0  0  0  0
  185.7450  178.4120  138.3570 C   0  0  0  0  0  2  0  0  0  0  0  0
  185.1930  179.3290  139.2690 O   0  0  0  0  0  0  0  0  0  0  0  0
  184.4410  178.6300  140.2420 C   0  0  1  0  0  3  0  0  0  0  0  0
  185.9710  179.7520  141.7670 O   0  0  0  0  0  1  0  0  0  0  0  0
  185.0540  178.7030  141.6510 C   0  0  1  0  0  3  0  0  0  0  0  0
  183.9880  178.7720  142.7440 C   0  0  0  0  0  2  0  0  0  0  0  0
  184.4510  179.5110  143.9930 C   0  0  0  0  0  2  0  0  0  0  0  0
  184.2730  178.7080  145.1180 O   0  0  0  0  0  1  0  0  0  0  0  0
  183.0260  178.9940  140.2220 N   0  0  0  0  0  2  0  0  0  0  0  0
  181.7600  178.8020  138.1660 C   0  0  0  0  0  1  0  0  0  0  0  0
  182.3550  178.0570  139.3410 C   0  0  0  0  0  2  0  0  0  0  0  0
  1  6  1  0  0  0  0
  3  2  1  0  0  0  0
  3 19  1  0  0  0  0
  4  1  2  0  0  0  0
  4  7  1  0  0  0  0
  5  8  1  0  0  0  0
  5  7  1  0  0  0  0
  6  2  2  0  0  0  0
  7  3  2  0  0  0  0
  8 30  1  6  0  0  0
  9  5  1  0  0  0  0
  9  8  1  0  0  0  0
 11 16  2  0  0  0  0
 12 15  1  0  0  0  0
 12  1  1  0  0  0  0
 13 12  2  0  0  0  0
 14 18  1  0  0  0  0
 15 10  1  6  0  0  0
 16 10  1  0  0  0  0
 17 14  1  0  0  0  0
 17 13  1  0  0  0  0
 17 18  1  0  0  0  0
 18 11  1  6  0  0  0
 18 15  1  0  0  0  0
 19 24  1  0  0  0  0
 20 25  1  0  0  0  0
 21 25  1  0  0  0  0
 22 21  1  0  0  0  0
 23 20  1  0  0  0  0
 24 22  1  0  0  0  0
 24 23  1  0  0  0  0
 25 29  1  0  0  0  0
 29 28  2  0  0  0  0
 29 26  1  0  0  0  0
 29 27  2  0  0  0  0
 31 30  1  0  0  0  0
 31 32  1  0  0  0  0
 33 32  1  6  0  0  0
 33 35  1  0  0  0  0
 35 34  1  6  0  0  0
 35 36  1  0  0  0  0
 36 37  1  0  0  0  0
 37 38  1  0  0  0  0
 39 33  1  0  0  0  0
 40 41  1  0  0  0  0
 41 39  1  0  0  0  0
M  END
>  <MODEL>
7

>  <REMARK>
 VINA RESULT:      -6.9      2.495      5.790
  Name = 
  13 active torsions:
  status: ('A' for Active; 'I' for Inactive)
    1  A    between atoms: O_2  and  C_11
    2  A    between atoms: O_2  and  C_35
    3  A    between atoms: C_3  and  N_21
    4  A    between atoms: C_3  and  O_23
    5  A    between atoms: C_3  and  C_27
    6  A    between atoms: C_5  and  C_6
    7  A    between atoms: C_14  and  C_19
    8  A    between atoms: C_15  and  O_23
    9  A    between atoms: C_15  and  C_37
   10  A    between atoms: C_19  and  C_27
   11  A    between atoms: N_21  and  C_30
   12  A    between atoms: S_34  and  N_40
   13  A    between atoms: C_37  and  C_38
                            x       y       z     vdW  Elec       q    Type
                         _______ _______ _______ _____ _____    ______ ____

>  <TORSDO>
F 13

$$$$
=
 OpenBabel11042412363D

 41 46  0  0  1  0  0  0  0  0999 V2000
  183.4090  178.3840  140.9600 C   0  0  0  0  0  0  0  0  0  0  0  0
  185.2480  179.0440  139.6250 C   0  0  0  0  0  3  0  0  0  0  0  0
  186.1400  178.5920  140.6040 C   0  0  0  0  0  0  0  0  0  0  0  0
  184.2610  177.9360  141.9220 N   0  0  0  0  0  0  0  0  0  0  0  0
  186.4720  177.5610  142.7990 N   0  0  0  0  0  0  0  0  0  0  0  0
  183.9100  178.9320  139.8190 N   0  0  0  0  0  0  0  0  0  0  0  0
  185.6080  178.0280  141.7660 C   0  0  0  0  0  0  0  0  0  0  0  0
  187.8250  177.3310  143.3810 C   0  0  2  0  0  3  0  0  0  0  0  0
  186.7340  176.9750  144.1460 C   0  0  0  0  0  2  0  0  0  0  0  0
  181.3720  179.5570  143.1300 C   0  0  0  0  0  2  0  0  0  0  0  0
  179.1110  179.4690  142.7000 N   0  0  0  0  0  0  0  0  0  0  0  0
  181.9540  178.2700  141.1530 C   0  0  0  0  0  0  0  0  0  0  0  0
  181.0710  178.1890  140.1490 C   0  0  0  0  0  3  0  0  0  0  0  0
  179.0410  177.2890  141.7200 N   0  0  0  0  0  2  0  0  0  0  0  0
  181.2420  178.4030  142.4800 C   0  0  2  0  0  3  0  0  0  0  0  0
  180.0420  180.1850  143.2500 C   0  0  0  0  0  3  0  0  0  0  0  0
  179.8810  178.1270  140.8760 N   0  0  0  0  0  0  0  0  0  0  0  0
  179.7690  178.2490  142.3060 C   0  0  2  0  0  0  0  0  0  0  0  0
  187.5270  178.6980  140.4470 O   0  0  0  0  0  0  0  0  0  0  0  0
  189.3080  176.9240  137.6730 C   0  0  0  0  0  2  0  0  0  0  0  0
  190.6070  176.7090  139.6550 C   0  0  0  0  0  2  0  0  0  0  0  0
  189.7380  177.7130  140.4080 C   0  0  0  0  0  2  0  0  0  0  0  0
  188.3680  177.9340  138.3260 C   0  0  0  0  0  2  0  0  0  0  0  0
  188.3240  177.6930  139.8320 C   0  0  0  0  0  3  0  0  0  0  0  0
  190.6530  177.0570  138.2340 N   0  0  0  0  0  0  0  0  0  0  0  0
  191.4340  175.9490  135.6730 C   0  0  0  0  0  1  0  0  0  0  0  0
  193.1150  176.2070  137.7470 O   0  0  0  0  0  0  0  0  0  0  0  0
  191.3530  174.5210  137.9390 O   0  0  0  0  0  0  0  0  0  0  0  0
  191.6760  175.9010  137.4380 S   0  0  0  0  0  0  0  0  0  0  0  0
  188.3850  178.6650  143.8330 C   0  0  0  0  0  2  0  0  0  0  0  0
  189.8270  178.5130  144.2860 C   0  0  0  0  0  2  0  0  0  0  0  0
  189.9030  178.5440  145.6890 O   0  0  0  0  0  0  0  0  0  0  0  0
  190.1300  177.2360  146.1770 C   0  0  1  0  0  3  0  0  0  0  0  0
  192.2030  176.4130  147.1520 O   0  0  0  0  0  1  0  0  0  0  0  0
  191.5690  176.7450  145.9500 C   0  0  1  0  0  3  0  0  0  0  0  0
  191.6380  175.5920  144.9490 C   0  0  0  0  0  2  0  0  0  0  0  0
  191.4850  176.0390  143.5010 C   0  0  0  0  0  2  0  0  0  0  0  0
  190.5600  175.2290  142.8450 O   0  0  0  0  0  1  0  0  0  0  0  0
  189.6890  177.0720  147.5610 N   0  0  0  0  0  2  0  0  0  0  0  0
  187.9310  177.7300  149.0920 C   0  0  0  0  0  1  0  0  0  0  0  0
  188.6440  178.0510  147.7960 C   0  0  0  0  0  2  0  0  0  0  0  0
  1 12  1  0  0  0  0
  1  4  2  0  0  0  0
  2  6  2  0  0  0  0
  2  3  1  0  0  0  0
  3  7  2  0  0  0  0
  5  8  1  0  0  0  0
  5  9  1  0  0  0  0
  6  1  1  0  0  0  0
  7  4  1  0  0  0  0
  7  5  1  0  0  0  0
  8 30  1  1  0  0  0
  8  9  1  0  0  0  0
 10 16  1  0  0  0  0
 11 16  2  0  0  0  0
 12 15  1  0  0  0  0
 13 17  1  0  0  0  0
 13 12  2  0  0  0  0
 15 10  1  6  0  0  0
 17 14  1  0  0  0  0
 17 18  1  0  0  0  0
 18 14  1  1  0  0  0
 18 15  1  0  0  0  0
 18 11  1  0  0  0  0
 19  3  1  0  0  0  0
 20 25  1  0  0  0  0
 20 23  1  0  0  0  0
 21 22  1  0  0  0  0
 23 24  1  0  0  0  0
 24 22  1  0  0  0  0
 24 19  1  0  0  0  0
 25 21  1  0  0  0  0
 26 29  1  0  0  0  0
 29 27  2  0  0  0  0
 29 28  2  0  0  0  0
 29 25  1  0  0  0  0
 30 31  1  0  0  0  0
 31 32  1  0  0  0  0
 33 32  1  1  0  0  0
 33 39  1  0  0  0  0
 35 33  1  0  0  0  0
 35 34  1  1  0  0  0
 36 35  1  0  0  0  0
 37 36  1  0  0  0  0
 38 37  1  0  0  0  0
 39 41  1  0  0  0  0
 41 40  1  0  0  0  0
M  END
>  <MODEL>
8

>  <REMARK>
 VINA RESULT:      -6.8      3.316      8.455
  Name = 
  13 active torsions:
  status: ('A' for Active; 'I' for Inactive)
    1  A    between atoms: O_2  and  C_11
    2  A    between atoms: O_2  and  C_35
    3  A    between atoms: C_3  and  N_21
    4  A    between atoms: C_3  and  O_23
    5  A    between atoms: C_3  and  C_27
    6  A    between atoms: C_5  and  C_6
    7  A    between atoms: C_14  and  C_19
    8  A    between atoms: C_15  and  O_23
    9  A    between atoms: C_15  and  C_37
   10  A    between atoms: C_19  and  C_27
   11  A    between atoms: N_21  and  C_30
   12  A    between atoms: S_34  and  N_40
   13  A    between atoms: C_37  and  C_38
                            x       y       z     vdW  Elec       q    Type
                         _______ _______ _______ _____ _____    ______ ____

>  <TORSDO>
F 13

$$$$
=
 OpenBabel11042412363D

 41 46  0  0  1  0  0  0  0  0999 V2000
  185.3080  178.5770  139.7680 C   0  0  0  0  0  0  0  0  0  0  0  0
  186.6180  178.6360  141.7370 C   0  0  0  0  0  3  0  0  0  0  0  0
  187.7770  178.3970  140.9910 C   0  0  0  0  0  0  0  0  0  0  0  0
  186.4240  178.3460  139.0250 N   0  0  0  0  0  0  0  0  0  0  0  0
  188.7960  177.9990  138.8020 N   0  0  0  0  0  0  0  0  0  0  0  0
  185.4140  178.7230  141.1170 N   0  0  0  0  0  0  0  0  0  0  0  0
  187.6490  178.2550  139.6070 C   0  0  0  0  0  0  0  0  0  0  0  0
  190.2590  177.7620  138.6290 C   0  0  2  0  0  3  0  0  0  0  0  0
  189.4670  177.7110  137.5010 C   0  0  0  0  0  2  0  0  0  0  0  0
  182.8890  176.5240  139.3570 C   0  0  0  0  0  2  0  0  0  0  0  0
  180.8450  177.3320  138.6680 N   0  0  0  0  0  0  0  0  0  0  0  0
  183.9940  178.6740  139.1110 C   0  0  0  0  0  0  0  0  0  0  0  0
  183.2490  179.7870  139.0920 C   0  0  0  0  0  3  0  0  0  0  0  0
  181.6350  178.9310  137.0760 N   0  0  0  0  0  2  0  0  0  0  0  0
  183.2270  177.5090  138.5280 C   0  0  2  0  0  3  0  0  0  0  0  0
  181.4170  176.4410  139.4170 C   0  0  0  0  0  3  0  0  0  0  0  0
  182.1380  179.3250  138.3840 N   0  0  0  0  0  0  0  0  0  0  0  0
  181.9270  177.9660  137.9580 C   0  0  2  0  0  0  0  0  0  0  0  0
  189.0370  178.2910  141.5940 O   0  0  0  0  0  0  0  0  0  0  0  0
  190.5250  177.8170  144.9960 C   0  0  0  0  0  2  0  0  0  0  0  0
  188.2440  177.1440  145.0750 C   0  0  0  0  0  2  0  0  0  0  0  0
  187.9650  177.7030  143.6830 C   0  0  0  0  0  2  0  0  0  0  0  0
  190.3650  178.4060  143.5970 C   0  0  0  0  0  2  0  0  0  0  0  0
  189.2490  177.6740  142.8570 C   0  0  0  0  0  3  0  0  0  0  0  0
  189.2710  177.9470  145.7400 N   0  0  0  0  0  0  0  0  0  0  0  0
  191.1070  176.4700  147.4260 C   0  0  0  0  0  1  0  0  0  0  0  0
  189.4670  178.3820  148.3460 O   0  0  0  0  0  0  0  0  0  0  0  0
  188.4410  176.2820  147.6230 O   0  0  0  0  0  0  0  0  0  0  0  0
  189.5230  177.2810  147.3230 S   0  0  0  0  0  0  0  0  0  0  0  0
  190.5770  176.3640  139.1220 C   0  0  0  0  0  2  0  0  0  0  0  0
  190.4430  175.3570  137.9920 C   0  0  0  0  0  2  0  0  0  0  0  0
  191.6310  174.6180  137.8540 O   0  0  0  0  0  0  0  0  0  0  0  0
  192.3550  175.0960  136.7360 C   0  0  1  0  0  3  0  0  0  0  0  0
  193.9590  176.8750  137.1680 O   0  0  0  0  0  1  0  0  0  0  0  0
  193.8030  175.4890  137.0740 C   0  0  1  0  0  3  0  0  0  0  0  0
  194.3180  174.7850  138.3290 C   0  0  0  0  0  2  0  0  0  0  0  0
  195.5410  173.9140  138.0750 C   0  0  0  0  0  2  0  0  0  0  0  0
  195.3800  172.6730  138.6900 O   0  0  0  0  0  1  0  0  0  0  0  0
  192.2670  174.1960  135.5880 N   0  0  0  0  0  2  0  0  0  0  0  0
  193.4980  172.1100  135.5210 C   0  0  0  0  0  1  0  0  0  0  0  0
  192.3050  172.8400  136.1020 C   0  0  0  0  0  2  0  0  0  0  0  0
  1  6  1  0  0  0  0
  3 19  1  0  0  0  0
  3  2  1  0  0  0  0
  4  7  1  0  0  0  0
  4  1  2  0  0  0  0
  5  7  1  0  0  0  0
  6  2  2  0  0  0  0
  7  3  2  0  0  0  0
  8  5  1  0  0  0  0
  8 30  1  1  0  0  0
  9  8  1  0  0  0  0
  9  5  1  0  0  0  0
 10 16  1  0  0  0  0
 11 16  2  0  0  0  0
 12  1  1  0  0  0  0
 13 12  2  0  0  0  0
 14 17  1  0  0  0  0
 15 12  1  0  0  0  0
 15 10  1  1  0  0  0
 17 13  1  0  0  0  0
 18 14  1  6  0  0  0
 18 17  1  0  0  0  0
 18 15  1  0  0  0  0
 18 11  1  0  0  0  0
 19 24  1  0  0  0  0
 20 25  1  0  0  0  0
 21 25  1  0  0  0  0
 22 21  1  0  0  0  0
 23 20  1  0  0  0  0
 24 23  1  0  0  0  0
 24 22  1  0  0  0  0
 25 29  1  0  0  0  0
 29 26  1  0  0  0  0
 29 28  2  0  0  0  0
 29 27  2  0  0  0  0
 31 30  1  0  0  0  0
 32 31  1  0  0  0  0
 33 39  1  6  0  0  0
 33 35  1  0  0  0  0
 33 32  1  0  0  0  0
 35 34  1  1  0  0  0
 35 36  1  0  0  0  0
 37 36  1  0  0  0  0
 37 38  1  0  0  0  0
 39 41  1  0  0  0  0
 40 41  1  0  0  0  0
M  END
>  <MODEL>
9

>  <REMARK>
 VINA RESULT:      -6.8      3.135      9.386
  Name = 
  13 active torsions:
  status: ('A' for Active; 'I' for Inactive)
    1  A    between atoms: O_2  and  C_11
    2  A    between atoms: O_2  and  C_35
    3  A    between atoms: C_3  and  N_21
    4  A    between atoms: C_3  and  O_23
    5  A    between atoms: C_3  and  C_27
    6  A    between atoms: C_5  and  C_6
    7  A    between atoms: C_14  and  C_19
    8  A    between atoms: C_15  and  O_23
    9  A    between atoms: C_15  and  C_37
   10  A    between atoms: C_19  and  C_27
   11  A    between atoms: N_21  and  C_30
   12  A    between atoms: S_34  and  N_40
   13  A    between atoms: C_37  and  C_38
                            x       y       z     vdW  Elec       q    Type
                         _______ _______ _______ _____ _____    ______ ____

>  <TORSDO>
F 13

$$$$
