=
 OpenBabel11042412263D

 26 29  0  0  1  0  0  0  0  0999 V2000
  186.5920  177.1350  143.5270 O   0  0  0  0  0  1  0  0  0  0  0  0
  189.4420  177.1720  145.6210 C   0  0  0  0  0  0  0  0  0  0  0  0
  185.7230  179.1440  146.6420 C   0  0  0  0  0  2  0  0  0  0  0  0
  189.6460  176.9210  147.0110 C   0  0  0  0  0  3  0  0  0  0  0  0
  187.1920  177.7170  145.6940 C   0  0  2  0  0  3  0  0  0  0  0  0
  186.4800  178.1840  144.5260 C   0  0  2  0  0  3  0  0  0  0  0  0
  187.1040  178.6110  146.8190 C   0  0  2  0  0  3  0  0  0  0  0  0
  188.8120  177.1860  148.0680 C   0  0  0  0  0  2  0  0  0  0  0  0
  185.1020  178.4810  145.2330 C   0  0  2  0  0  3  0  0  0  0  0  0
  188.4190  177.6540  145.1050 C   0  0  0  0  0  2  0  0  0  0  0  0
  187.4180  177.7600  148.0780 C   0  0  0  0  0  2  0  0  0  0  0  0
  184.3630  179.4590  144.3940 N   0  0  0  0  0  2  0  0  0  0  0  0
  183.8720  178.8330  142.2420 O   0  0  0  0  0  1  0  0  0  0  0  0
  182.0160  179.0060  143.7230 C   0  0  0  0  0  1  0  0  0  0  0  0
  183.4930  178.6320  143.5940 C   0  0  2  0  0  3  0  0  0  0  0  0
  190.6730  177.0340  144.7480 C   0  0  0  0  0  2  0  0  0  0  0  0
  191.7700  177.0970  142.5170 N   0  0  0  0  0  2  0  0  0  0  0  0
  190.4670  177.7710  142.3110 C   0  0  2  0  0  3  0  0  0  0  0  0
  190.5520  176.5630  143.2320 C   0  0  2  0  0  3  0  0  0  0  0  0
  188.7920  177.9230  140.4370 N   0  0  0  0  0  0  0  0  0  0  0  0
  190.9140  176.8890  139.9190 C   0  0  0  0  0  3  0  0  0  0  0  0
  189.1910  177.2500  138.1920 C   0  0  0  0  0  3  0  0  0  0  0  0
  187.0780  178.3310  138.7880 N   0  0  0  0  0  1  0  0  0  0  0  0
  188.4040  177.8120  139.1660 C   0  0  0  0  0  0  0  0  0  0  0  0
  190.4870  176.7620  138.6020 C   0  0  0  0  0  3  0  0  0  0  0  0
  190.0690  177.4960  140.8660 C   0  0  0  0  0  0  0  0  0  0  0  0
  2  4  2  0  0  0  0
  4  8  1  0  0  0  0
  5 10  1  6  0  0  0
  5  7  1  0  0  0  0
  6  1  1  6  0  0  0
  6  9  1  0  0  0  0
  6  5  1  0  0  0  0
  7  3  1  1  0  0  0
  7 11  1  0  0  0  0
  8 11  1  0  0  0  0
  9 12  1  6  0  0  0
  9  3  1  0  0  0  0
 10  2  1  0  0  0  0
 13 15  1  0  0  0  0
 15 14  1  6  0  0  0
 15 12  1  0  0  0  0
 16  2  1  0  0  0  0
 17 19  1  0  0  0  0
 18 26  1  6  0  0  0
 18 17  1  0  0  0  0
 18 19  1  0  0  0  0
 19 16  1  1  0  0  0
 20 26  1  0  0  0  0
 21 26  2  0  0  0  0
 22 25  2  0  0  0  0
 22 24  1  0  0  0  0
 23 24  1  0  0  0  0
 24 20  2  0  0  0  0
 25 21  1  0  0  0  0
M  END
>  <MODEL>
1

>  <REMARK>
 VINA RESULT:      -8.9      0.000      0.000
  Name = 
  5 active torsions:
  status: ('A' for Active; 'I' for Inactive)
    1  A    between atoms: C_2  and  C_26
    2  A    between atoms: C_3  and  C_18
    3  A    between atoms: C_5  and  C_18
    4  A    between atoms: N_7  and  C_13
    5  A    between atoms: N_7  and  C_21
                            x       y       z     vdW  Elec       q    Type
                         _______ _______ _______ _____ _____    ______ ____

>  <TORSDO>
F 5

$$$$
=
 OpenBabel11042412263D

 26 29  0  0  1  0  0  0  0  0999 V2000
  188.4750  178.2720  143.6090 O   0  0  0  0  0  1  0  0  0  0  0  0
  186.8200  178.1940  146.7330 C   0  0  0  0  0  0  0  0  0  0  0  0
  190.7220  176.4350  146.0720 C   0  0  0  0  0  2  0  0  0  0  0  0
  187.2240  178.4930  148.0700 C   0  0  0  0  0  3  0  0  0  0  0  0
  188.9070  177.7540  145.8310 C   0  0  2  0  0  3  0  0  0  0  0  0
  189.0700  177.2720  144.4780 C   0  0  2  0  0  3  0  0  0  0  0  0
  189.5260  176.9120  146.8220 C   0  0  2  0  0  3  0  0  0  0  0  0
  188.4470  178.3100  148.6630 C   0  0  0  0  0  2  0  0  0  0  0  0
  190.6320  177.0660  144.5220 C   0  0  2  0  0  3  0  0  0  0  0  0
  187.5450  177.7380  145.8320 C   0  0  0  0  0  2  0  0  0  0  0  0
  189.7390  177.7990  148.0770 C   0  0  0  0  0  2  0  0  0  0  0  0
  190.9910  176.0880  143.4620 N   0  0  0  0  0  2  0  0  0  0  0  0
  191.9000  178.1570  143.0660 O   0  0  0  0  0  1  0  0  0  0  0  0
  190.8190  177.1250  141.2130 C   0  0  0  0  0  1  0  0  0  0  0  0
  191.6590  176.8930  142.4690 C   0  0  2  0  0  3  0  0  0  0  0  0
  185.3270  178.2400  146.4790 C   0  0  0  0  0  2  0  0  0  0  0  0
  184.7760  179.5630  144.4470 N   0  0  0  0  0  2  0  0  0  0  0  0
  183.4800  178.9940  144.8850 C   0  0  2  0  0  3  0  0  0  0  0  0
  184.7450  178.1580  145.0000 C   0  0  2  0  0  3  0  0  0  0  0  0
  181.2480  178.7070  143.7560 N   0  0  0  0  0  0  0  0  0  0  0  0
  183.1920  178.7600  142.3230 C   0  0  0  0  0  3  0  0  0  0  0  0
  180.9070  178.6170  141.4050 C   0  0  0  0  0  3  0  0  0  0  0  0
  178.9860  178.5970  142.9200 N   0  0  0  0  0  1  0  0  0  0  0  0
  180.4420  178.6370  142.6950 C   0  0  0  0  0  0  0  0  0  0  0  0
  182.3410  178.6670  141.2280 C   0  0  0  0  0  3  0  0  0  0  0  0
  182.6510  178.8000  143.6210 C   0  0  0  0  0  0  0  0  0  0  0  0
  2  4  2  0  0  0  0
  4  8  1  0  0  0  0
  5 10  1  1  0  0  0
  5  7  1  0  0  0  0
  6  1  1  6  0  0  0
  6  9  1  0  0  0  0
  6  5  1  0  0  0  0
  7  3  1  6  0  0  0
  7 11  1  0  0  0  0
  9 12  1  6  0  0  0
  9  3  1  0  0  0  0
 10  2  1  0  0  0  0
 11  8  1  0  0  0  0
 15 14  1  6  0  0  0
 15 13  1  0  0  0  0
 15 12  1  0  0  0  0
 16  2  1  0  0  0  0
 17 18  1  0  0  0  0
 17 19  1  0  0  0  0
 18 26  1  6  0  0  0
 18 19  1  0  0  0  0
 19 16  1  1  0  0  0
 21 26  2  0  0  0  0
 22 24  1  0  0  0  0
 24 23  1  0  0  0  0
 24 20  2  0  0  0  0
 25 22  2  0  0  0  0
 25 21  1  0  0  0  0
 26 20  1  0  0  0  0
M  END
>  <MODEL>
2

>  <REMARK>
 VINA RESULT:      -8.6      2.253      6.515
  Name = 
  5 active torsions:
  status: ('A' for Active; 'I' for Inactive)
    1  A    between atoms: C_2  and  C_26
    2  A    between atoms: C_3  and  C_18
    3  A    between atoms: C_5  and  C_18
    4  A    between atoms: N_7  and  C_13
    5  A    between atoms: N_7  and  C_21
                            x       y       z     vdW  Elec       q    Type
                         _______ _______ _______ _____ _____    ______ ____

>  <TORSDO>
F 5

$$$$
=
 OpenBabel11042412263D

 26 29  0  0  1  0  0  0  0  0999 V2000
  188.6040  178.3500  143.0840 O   0  0  0  0  0  1  0  0  0  0  0  0
  185.0760  178.4740  143.3030 C   0  0  0  0  0  0  0  0  0  0  0  0
  187.6060  177.1050  146.5400 C   0  0  0  0  0  2  0  0  0  0  0  0
  184.1670  178.9820  144.2790 C   0  0  0  0  0  3  0  0  0  0  0  0
  186.9190  178.1660  144.6710 C   0  0  2  0  0  3  0  0  0  0  0  0
  188.1310  177.5410  144.1940 C   0  0  2  0  0  3  0  0  0  0  0  0
  186.3630  177.5320  145.8380 C   0  0  2  0  0  3  0  0  0  0  0  0
  184.2970  179.0160  145.6440 C   0  0  0  0  0  2  0  0  0  0  0  0
  188.9050  177.5230  145.5670 C   0  0  2  0  0  3  0  0  0  0  0  0
  186.2010  177.9950  143.5270 C   0  0  0  0  0  2  0  0  0  0  0  0
  185.4500  178.5870  146.5160 C   0  0  0  0  0  2  0  0  0  0  0  0
  189.9490  176.4680  145.4860 N   0  0  0  0  0  2  0  0  0  0  0  0
  191.8410  177.7550  145.3190 O   0  0  0  0  0  1  0  0  0  0  0  0
  191.9440  175.9520  146.8700 C   0  0  0  0  0  1  0  0  0  0  0  0
  191.0490  177.0190  146.2380 C   0  0  2  0  0  3  0  0  0  0  0  0
  184.5090  178.3170  141.9060 C   0  0  0  0  0  2  0  0  0  0  0  0
  184.6290  179.5810  139.7690 N   0  0  0  0  0  2  0  0  0  0  0  0
  184.6800  178.1570  139.3630 C   0  0  2  0  0  3  0  0  0  0  0  0
  185.4040  178.6070  140.6220 C   0  0  2  0  0  3  0  0  0  0  0  0
  186.7610  178.7600  138.0810 N   0  0  0  0  0  0  0  0  0  0  0  0
  185.1240  177.4110  136.9250 C   0  0  0  0  0  3  0  0  0  0  0  0
  187.2840  177.9980  135.8900 C   0  0  0  0  0  3  0  0  0  0  0  0
  188.9050  179.3440  137.1360 N   0  0  0  0  0  1  0  0  0  0  0  0
  187.5910  178.6810  137.0400 C   0  0  0  0  0  0  0  0  0  0  0  0
  185.9910  177.3560  135.8400 C   0  0  0  0  0  3  0  0  0  0  0  0
  185.5070  178.1080  138.0840 C   0  0  0  0  0  0  0  0  0  0  0  0
  2 10  1  0  0  0  0
  2  4  2  0  0  0  0
  4  8  1  0  0  0  0
  5 10  1  6  0  0  0
  5  7  1  0  0  0  0
  6  1  1  6  0  0  0
  6  5  1  0  0  0  0
  6  9  1  0  0  0  0
  7 11  1  1  0  0  0
  7  3  1  0  0  0  0
  8 11  1  0  0  0  0
  9 12  1  6  0  0  0
  9  3  1  0  0  0  0
 12 15  1  0  0  0  0
 13 15  1  0  0  0  0
 15 14  1  6  0  0  0
 16  2  1  0  0  0  0
 17 19  1  0  0  0  0
 18 26  1  6  0  0  0
 18 17  1  0  0  0  0
 18 19  1  0  0  0  0
 19 16  1  1  0  0  0
 20 26  1  0  0  0  0
 21 26  2  0  0  0  0
 22 24  1  0  0  0  0
 24 23  1  0  0  0  0
 24 20  2  0  0  0  0
 25 22  2  0  0  0  0
 25 21  1  0  0  0  0
M  END
>  <MODEL>
3

>  <REMARK>
 VINA RESULT:      -8.6      2.618      5.453
  Name = 
  5 active torsions:
  status: ('A' for Active; 'I' for Inactive)
    1  A    between atoms: C_2  and  C_26
    2  A    between atoms: C_3  and  C_18
    3  A    between atoms: C_5  and  C_18
    4  A    between atoms: N_7  and  C_13
    5  A    between atoms: N_7  and  C_21
                            x       y       z     vdW  Elec       q    Type
                         _______ _______ _______ _____ _____    ______ ____

>  <TORSDO>
F 5

$$$$
=
 OpenBabel11042412263D

 26 29  0  0  1  0  0  0  0  0999 V2000
  188.5170  178.4180  143.4400 O   0  0  0  0  0  1  0  0  0  0  0  0
  186.4610  178.4280  146.3170 C   0  0  0  0  0  0  0  0  0  0  0  0
  190.3400  176.5040  146.1790 C   0  0  0  0  0  2  0  0  0  0  0  0
  186.6960  178.7180  147.6950 C   0  0  0  0  0  3  0  0  0  0  0  0
  188.6290  177.8960  145.6990 C   0  0  2  0  0  3  0  0  0  0  0  0
  188.9490  177.4000  144.3810 C   0  0  2  0  0  3  0  0  0  0  0  0
  189.0750  177.0350  146.7640 C   0  0  2  0  0  3  0  0  0  0  0  0
  187.8210  178.4880  148.4450 C   0  0  0  0  0  2  0  0  0  0  0  0
  190.4820  177.1290  144.6310 C   0  0  2  0  0  3  0  0  0  0  0  0
  187.2800  177.9360  145.5200 C   0  0  0  0  0  2  0  0  0  0  0  0
  189.1570  177.9210  148.0360 C   0  0  0  0  0  2  0  0  0  0  0  0
  190.9370  176.1310  143.6280 N   0  0  0  0  0  2  0  0  0  0  0  0
  191.9940  178.1490  143.3570 O   0  0  0  0  0  1  0  0  0  0  0  0
  191.0520  177.1970  141.3890 C   0  0  0  0  0  1  0  0  0  0  0  0
  191.7460  176.9060  142.7200 C   0  0  2  0  0  3  0  0  0  0  0  0
  185.0180  178.5350  145.8670 C   0  0  0  0  0  2  0  0  0  0  0  0
  183.1580  178.9940  144.2820 N   0  0  0  0  0  2  0  0  0  0  0  0
  184.0930  178.1340  143.5210 C   0  0  2  0  0  3  0  0  0  0  0  0
  184.6440  179.1900  144.4660 C   0  0  2  0  0  3  0  0  0  0  0  0
  185.1160  178.5570  141.2590 N   0  0  0  0  0  0  0  0  0  0  0  0
  182.7240  178.8470  141.4430 C   0  0  0  0  0  3  0  0  0  0  0  0
  183.8980  179.0860  139.2870 C   0  0  0  0  0  3  0  0  0  0  0  0
  186.3190  178.7480  139.1750 N   0  0  0  0  0  1  0  0  0  0  0  0
  185.0650  178.8020  139.9490 C   0  0  0  0  0  0  0  0  0  0  0  0
  182.6910  179.1200  140.0810 C   0  0  0  0  0  3  0  0  0  0  0  0
  183.9510  178.5390  142.0580 C   0  0  0  0  0  0  0  0  0  0  0  0
  2  4  2  0  0  0  0
  4  8  1  0  0  0  0
  5 10  1  6  0  0  0
  5  7  1  0  0  0  0
  6  1  1  6  0  0  0
  6  9  1  0  0  0  0
  6  5  1  0  0  0  0
  7  3  1  6  0  0  0
  7 11  1  0  0  0  0
  9 12  1  6  0  0  0
  9  3  1  0  0  0  0
 10  2  1  0  0  0  0
 11  8  1  0  0  0  0
 15 14  1  6  0  0  0
 15 13  1  0  0  0  0
 15 12  1  0  0  0  0
 16  2  1  0  0  0  0
 17 19  1  0  0  0  0
 18 26  1  6  0  0  0
 18 17  1  0  0  0  0
 18 19  1  0  0  0  0
 19 16  1  1  0  0  0
 20 26  1  0  0  0  0
 21 26  2  0  0  0  0
 22 24  1  0  0  0  0
 22 25  2  0  0  0  0
 23 24  1  0  0  0  0
 24 20  2  0  0  0  0
 25 21  1  0  0  0  0
M  END
>  <MODEL>
4

>  <REMARK>
 VINA RESULT:      -8.6      2.109      5.685
  Name = 
  5 active torsions:
  status: ('A' for Active; 'I' for Inactive)
    1  A    between atoms: C_2  and  C_26
    2  A    between atoms: C_3  and  C_18
    3  A    between atoms: C_5  and  C_18
    4  A    between atoms: N_7  and  C_13
    5  A    between atoms: N_7  and  C_21
                            x       y       z     vdW  Elec       q    Type
                         _______ _______ _______ _____ _____    ______ ____

>  <TORSDO>
F 5

$$$$
=
 OpenBabel11042412263D

 26 29  0  0  1  0  0  0  0  0999 V2000
  187.9970  178.6220  141.7820 O   0  0  0  0  0  1  0  0  0  0  0  0
  187.2620  177.9270  145.1710 C   0  0  0  0  0  0  0  0  0  0  0  0
  190.5610  176.1040  143.0370 C   0  0  0  0  0  2  0  0  0  0  0  0
  188.0510  177.8740  146.3590 C   0  0  0  0  0  3  0  0  0  0  0  0
  188.9440  177.5670  143.6210 C   0  0  2  0  0  3  0  0  0  0  0  0
  188.6650  177.4060  142.2120 C   0  0  2  0  0  3  0  0  0  0  0  0
  189.6900  176.4740  144.1890 C   0  0  2  0  0  3  0  0  0  0  0  0
  189.3540  177.4710  146.5130 C   0  0  0  0  0  2  0  0  0  0  0  0
  190.1380  177.0870  141.7470 C   0  0  2  0  0  3  0  0  0  0  0  0
  187.6460  177.6460  144.0220 C   0  0  0  0  0  2  0  0  0  0  0  0
  190.3550  177.0230  145.4790 C   0  0  0  0  0  2  0  0  0  0  0  0
  190.0580  176.3640  140.4510 N   0  0  0  0  0  2  0  0  0  0  0  0
  189.7690  177.9920  138.8610 O   0  0  0  0  0  1  0  0  0  0  0  0
  191.5590  176.4710  138.4770 C   0  0  0  0  0  1  0  0  0  0  0  0
  190.7580  177.2300  139.5350 C   0  0  2  0  0  3  0  0  0  0  0  0
  185.7770  178.1360  145.3860 C   0  0  0  0  0  2  0  0  0  0  0  0
  184.5650  179.7000  143.8800 N   0  0  0  0  0  2  0  0  0  0  0  0
  183.4960  178.9380  144.5650 C   0  0  2  0  0  3  0  0  0  0  0  0
  184.7760  178.2300  144.1510 C   0  0  2  0  0  3  0  0  0  0  0  0
  182.6230  178.9290  142.2020 N   0  0  0  0  0  0  0  0  0  0  0  0
  180.9900  178.6790  143.9660 C   0  0  0  0  0  3  0  0  0  0  0  0
  180.3560  178.5660  141.5860 C   0  0  0  0  0  3  0  0  0  0  0  0
  182.0710  178.7990  139.8560 N   0  0  0  0  0  1  0  0  0  0  0  0
  181.6760  178.7700  141.2760 C   0  0  0  0  0  0  0  0  0  0  0  0
  180.0130  178.5360  142.9890 C   0  0  0  0  0  3  0  0  0  0  0  0
  182.3310  178.8620  143.5840 C   0  0  0  0  0  0  0  0  0  0  0  0
  2 16  1  0  0  0  0
  2  4  2  0  0  0  0
  4  8  1  0  0  0  0
  5 10  1  1  0  0  0
  5  7  1  0  0  0  0
  6  1  1  6  0  0  0
  6  5  1  0  0  0  0
  7  3  1  6  0  0  0
  7 11  1  0  0  0  0
  9 12  1  6  0  0  0
  9  6  1  0  0  0  0
  9  3  1  0  0  0  0
 10  2  1  0  0  0  0
 11  8  1  0  0  0  0
 13 15  1  0  0  0  0
 15 14  1  6  0  0  0
 15 12  1  0  0  0  0
 17 19  1  0  0  0  0
 17 18  1  0  0  0  0
 18 26  1  6  0  0  0
 19 18  1  0  0  0  0
 19 16  1  1  0  0  0
 20 26  1  0  0  0  0
 22 25  2  0  0  0  0
 23 24  1  0  0  0  0
 24 22  1  0  0  0  0
 24 20  2  0  0  0  0
 25 21  1  0  0  0  0
 26 21  2  0  0  0  0
M  END
>  <MODEL>
5

>  <REMARK>
 VINA RESULT:      -8.3      2.113      6.700
  Name = 
  5 active torsions:
  status: ('A' for Active; 'I' for Inactive)
    1  A    between atoms: C_2  and  C_26
    2  A    between atoms: C_3  and  C_18
    3  A    between atoms: C_5  and  C_18
    4  A    between atoms: N_7  and  C_13
    5  A    between atoms: N_7  and  C_21
                            x       y       z     vdW  Elec       q    Type
                         _______ _______ _______ _____ _____    ______ ____

>  <TORSDO>
F 5

$$$$
=
 OpenBabel11042412263D

 26 29  0  0  1  0  0  0  0  0999 V2000
  187.6480  176.8420  143.0590 O   0  0  0  0  0  1  0  0  0  0  0  0
  185.2480  178.3640  145.1630 C   0  0  0  0  0  0  0  0  0  0  0  0
  185.6740  179.3300  140.9630 C   0  0  0  0  0  2  0  0  0  0  0  0
  183.8480  178.6160  145.0400 C   0  0  0  0  0  3  0  0  0  0  0  0
  185.7700  178.1990  142.9130 C   0  0  2  0  0  3  0  0  0  0  0  0
  187.1320  178.0560  142.4520 C   0  0  2  0  0  3  0  0  0  0  0  0
  185.0780  179.3190  142.3290 C   0  0  2  0  0  3  0  0  0  0  0  0
  183.1220  178.9200  143.9170 C   0  0  0  0  0  2  0  0  0  0  0  0
  186.8320  178.1200  140.9060 C   0  0  2  0  0  3  0  0  0  0  0  0
  186.0730  178.3360  144.2340 C   0  0  0  0  0  2  0  0  0  0  0  0
  183.5630  179.0220  142.4790 C   0  0  0  0  0  2  0  0  0  0  0  0
  188.0840  178.5300  140.2170 N   0  0  0  0  0  2  0  0  0  0  0  0
  187.7980  176.8370  138.6940 O   0  0  0  0  0  1  0  0  0  0  0  0
  188.8880  178.7920  137.8830 C   0  0  0  0  0  1  0  0  0  0  0  0
  187.8150  178.2500  138.8280 C   0  0  2  0  0  3  0  0  0  0  0  0
  185.7830  178.3500  146.5810 C   0  0  0  0  0  2  0  0  0  0  0  0
  187.8770  178.3130  147.9220 N   0  0  0  0  0  2  0  0  0  0  0  0
  188.3310  178.1850  146.5170 C   0  0  2  0  0  3  0  0  0  0  0  0
  187.0600  177.4800  146.9650 C   0  0  2  0  0  3  0  0  0  0  0  0
  190.0970  176.8280  145.3420 N   0  0  0  0  0  0  0  0  0  0  0  0
  190.3730  177.1450  147.7220 C   0  0  0  0  0  3  0  0  0  0  0  0
  192.0580  175.9590  146.3670 C   0  0  0  0  0  3  0  0  0  0  0  0
  191.7220  175.7030  143.9560 N   0  0  0  0  0  1  0  0  0  0  0  0
  191.2620  176.1830  145.2720 C   0  0  0  0  0  0  0  0  0  0  0  0
  191.5750  176.4530  147.6360 C   0  0  0  0  0  3  0  0  0  0  0  0
  189.6130  177.3620  146.5580 C   0  0  0  0  0  0  0  0  0  0  0  0
  2 16  1  0  0  0  0
  4  2  2  0  0  0  0
  5 10  1  1  0  0  0
  6  5  1  0  0  0  0
  6  1  1  6  0  0  0
  7  3  1  6  0  0  0
  7 11  1  0  0  0  0
  7  5  1  0  0  0  0
  8  4  1  0  0  0  0
  9 12  1  6  0  0  0
  9  3  1  0  0  0  0
  9  6  1  0  0  0  0
 10  2  1  0  0  0  0
 11  8  1  0  0  0  0
 13 15  1  0  0  0  0
 15 14  1  6  0  0  0
 15 12  1  0  0  0  0
 18 26  1  1  0  0  0
 18 19  1  0  0  0  0
 18 17  1  0  0  0  0
 19 16  1  6  0  0  0
 19 17  1  0  0  0  0
 20 26  1  0  0  0  0
 22 25  2  0  0  0  0
 23 24  1  0  0  0  0
 24 20  2  0  0  0  0
 24 22  1  0  0  0  0
 25 21  1  0  0  0  0
 26 21  2  0  0  0  0
M  END
>  <MODEL>
6

>  <REMARK>
 VINA RESULT:      -8.0      2.165      6.066
  Name = 
  5 active torsions:
  status: ('A' for Active; 'I' for Inactive)
    1  A    between atoms: C_2  and  C_26
    2  A    between atoms: C_3  and  C_18
    3  A    between atoms: C_5  and  C_18
    4  A    between atoms: N_7  and  C_13
    5  A    between atoms: N_7  and  C_21
                            x       y       z     vdW  Elec       q    Type
                         _______ _______ _______ _____ _____    ______ ____

>  <TORSDO>
F 5

$$$$
=
 OpenBabel11042412263D

 26 29  0  0  1  0  0  0  0  0999 V2000
  188.4790  178.6880  139.9320 O   0  0  0  0  0  1  0  0  0  0  0  0
  191.6570  177.3790  140.7660 C   0  0  0  0  0  0  0  0  0  0  0  0
  189.3860  176.0770  137.3150 C   0  0  0  0  0  2  0  0  0  0  0  0
  192.8520  177.1440  140.0210 C   0  0  0  0  0  3  0  0  0  0  0  0
  190.1440  177.3570  139.0130 C   0  0  2  0  0  3  0  0  0  0  0  0
  188.7180  177.4390  139.2310 C   0  0  2  0  0  3  0  0  0  0  0  0
  190.5450  176.2070  138.2440 C   0  0  2  0  0  3  0  0  0  0  0  0
  192.9900  176.7650  138.7100 C   0  0  0  0  0  2  0  0  0  0  0  0
  188.2710  177.2580  137.7290 C   0  0  2  0  0  3  0  0  0  0  0  0
  190.4950  177.3190  140.3280 C   0  0  0  0  0  2  0  0  0  0  0  0
  191.9400  176.5420  137.6520 C   0  0  0  0  0  2  0  0  0  0  0  0
  186.8660  176.7730  137.7290 N   0  0  0  0  0  2  0  0  0  0  0  0
  187.0490  178.9330  136.9780 O   0  0  0  0  0  1  0  0  0  0  0  0
  185.2230  178.4920  138.4390 C   0  0  0  0  0  1  0  0  0  0  0  0
  186.1070  177.9310  137.3260 C   0  0  2  0  0  3  0  0  0  0  0  0
  191.8380  177.4960  142.2660 C   0  0  0  0  0  2  0  0  0  0  0  0
  191.1530  177.9210  144.6180 N   0  0  0  0  0  2  0  0  0  0  0  0
  190.2030  176.8930  144.1330 C   0  0  2  0  0  3  0  0  0  0  0  0
  190.6510  178.0050  143.1970 C   0  0  2  0  0  3  0  0  0  0  0  0
  188.9770  177.4080  146.2710 N   0  0  0  0  0  0  0  0  0  0  0  0
  187.6290  177.1270  144.2860 C   0  0  0  0  0  3  0  0  0  0  0  0
  186.6330  177.7620  146.4510 C   0  0  0  0  0  3  0  0  0  0  0  0
  188.0680  178.0570  148.4110 N   0  0  0  0  0  1  0  0  0  0  0  0
  187.8960  177.7220  146.9860 C   0  0  0  0  0  0  0  0  0  0  0  0
  186.5100  177.4360  145.0480 C   0  0  0  0  0  3  0  0  0  0  0  0
  188.9000  177.1250  144.8890 C   0  0  0  0  0  0  0  0  0  0  0  0
  2 16  1  0  0  0  0
  3  9  1  0  0  0  0
  4  2  2  0  0  0  0
  5  6  1  0  0  0  0
  5 10  1  1  0  0  0
  6  1  1  6  0  0  0
  7  3  1  6  0  0  0
  7  5  1  0  0  0  0
  8  4  1  0  0  0  0
  9 12  1  1  0  0  0
  9  6  1  0  0  0  0
 10  2  1  0  0  0  0
 11  7  1  0  0  0  0
 11  8  1  0  0  0  0
 13 15  1  0  0  0  0
 15 12  1  0  0  0  0
 15 14  1  1  0  0  0
 18 17  1  0  0  0  0
 18 26  1  1  0  0  0
 19 16  1  6  0  0  0
 19 18  1  0  0  0  0
 19 17  1  0  0  0  0
 20 24  1  0  0  0  0
 21 26  1  0  0  0  0
 21 25  2  0  0  0  0
 22 24  2  0  0  0  0
 24 23  1  0  0  0  0
 25 22  1  0  0  0  0
 26 20  2  0  0  0  0
M  END
>  <MODEL>
7

>  <REMARK>
 VINA RESULT:      -8.0      2.537      7.059
  Name = 
  5 active torsions:
  status: ('A' for Active; 'I' for Inactive)
    1  A    between atoms: C_2  and  C_26
    2  A    between atoms: C_3  and  C_18
    3  A    between atoms: C_5  and  C_18
    4  A    between atoms: N_7  and  C_13
    5  A    between atoms: N_7  and  C_21
                            x       y       z     vdW  Elec       q    Type
                         _______ _______ _______ _____ _____    ______ ____

>  <TORSDO>
F 5

$$$$
=
 OpenBabel11042412263D

 26 29  0  0  1  0  0  0  0  0999 V2000
  187.1760  176.7770  143.8520 O   0  0  0  0  0  1  0  0  0  0  0  0
  190.6250  177.4750  144.2080 C   0  0  0  0  0  0  0  0  0  0  0  0
  187.8160  177.6500  147.5010 C   0  0  0  0  0  2  0  0  0  0  0  0
  191.6250  177.0510  145.1330 C   0  0  0  0  0  3  0  0  0  0  0  0
  188.7550  177.1030  145.5230 C   0  0  2  0  0  3  0  0  0  0  0  0
  187.4290  177.4860  145.0940 C   0  0  2  0  0  3  0  0  0  0  0  0
  189.1310  177.6560  146.7980 C   0  0  2  0  0  3  0  0  0  0  0  0
  191.4990  176.7660  146.4700 C   0  0  0  0  0  2  0  0  0  0  0  0
  186.6660  177.0940  146.4170 C   0  0  2  0  0  3  0  0  0  0  0  0
  189.4150  177.6260  144.4520 C   0  0  0  0  0  2  0  0  0  0  0  0
  190.2710  176.7570  147.3440 C   0  0  0  0  0  2  0  0  0  0  0  0
  185.3950  177.8650  146.4530 N   0  0  0  0  0  2  0  0  0  0  0  0
  185.6800  180.1260  146.7140 O   0  0  0  0  0  1  0  0  0  0  0  0
  184.7130  179.4320  144.6530 C   0  0  0  0  0  1  0  0  0  0  0  0
  185.7170  179.0840  145.7530 C   0  0  2  0  0  3  0  0  0  0  0  0
  191.1430  177.9880  142.8800 C   0  0  0  0  0  2  0  0  0  0  0  0
  190.1850  176.3310  141.2930 N   0  0  0  0  0  2  0  0  0  0  0  0
  191.1260  177.1310  140.4750 C   0  0  2  0  0  3  0  0  0  0  0  0
  190.2920  177.8150  141.5460 C   0  0  2  0  0  3  0  0  0  0  0  0
  189.4600  177.9940  138.7950 N   0  0  0  0  0  0  0  0  0  0  0  0
  191.0860  176.3960  137.9930 C   0  0  0  0  0  3  0  0  0  0  0  0
  189.4530  177.4570  136.4780 C   0  0  0  0  0  3  0  0  0  0  0  0
  187.8570  179.0890  137.3600 N   0  0  0  0  0  1  0  0  0  0  0  0
  188.9660  178.1390  137.5640 C   0  0  0  0  0  0  0  0  0  0  0  0
  190.5460  176.5440  136.7200 C   0  0  0  0  0  3  0  0  0  0  0  0
  190.5560  177.1420  139.0610 C   0  0  0  0  0  0  0  0  0  0  0  0
  2 10  1  0  0  0  0
  2  4  2  0  0  0  0
  4  8  1  0  0  0  0
  5 10  1  6  0  0  0
  5  7  1  0  0  0  0
  6  1  1  6  0  0  0
  6  5  1  0  0  0  0
  6  9  1  0  0  0  0
  7 11  1  1  0  0  0
  7  3  1  0  0  0  0
  8 11  1  0  0  0  0
  9 12  1  1  0  0  0
  9  3  1  0  0  0  0
 15 14  1  6  0  0  0
 15 12  1  0  0  0  0
 15 13  1  0  0  0  0
 16  2  1  0  0  0  0
 17 19  1  0  0  0  0
 18 26  1  6  0  0  0
 18 17  1  0  0  0  0
 18 19  1  0  0  0  0
 19 16  1  1  0  0  0
 20 26  1  0  0  0  0
 21 26  2  0  0  0  0
 22 25  2  0  0  0  0
 22 24  1  0  0  0  0
 23 24  1  0  0  0  0
 24 20  2  0  0  0  0
 25 21  1  0  0  0  0
M  END
>  <MODEL>
8

>  <REMARK>
 VINA RESULT:      -8.0      1.602      2.383
  Name = 
  5 active torsions:
  status: ('A' for Active; 'I' for Inactive)
    1  A    between atoms: C_2  and  C_26
    2  A    between atoms: C_3  and  C_18
    3  A    between atoms: C_5  and  C_18
    4  A    between atoms: N_7  and  C_13
    5  A    between atoms: N_7  and  C_21
                            x       y       z     vdW  Elec       q    Type
                         _______ _______ _______ _____ _____    ______ ____

>  <TORSDO>
F 5

$$$$
=
 OpenBabel11042412263D

 26 29  0  0  1  0  0  0  0  0999 V2000
  188.2970  176.9060  148.0410 O   0  0  0  0  0  1  0  0  0  0  0  0
  186.7930  177.8900  144.9960 C   0  0  0  0  0  0  0  0  0  0  0  0
  191.0570  177.2740  145.4450 C   0  0  0  0  0  2  0  0  0  0  0  0
  186.9070  177.4350  143.6470 C   0  0  0  0  0  3  0  0  0  0  0  0
  188.8310  177.1330  145.7930 C   0  0  2  0  0  3  0  0  0  0  0  0
  189.2930  177.4390  147.1270 C   0  0  2  0  0  3  0  0  0  0  0  0
  189.7560  177.5210  144.7600 C   0  0  2  0  0  3  0  0  0  0  0  0
  188.0080  176.9390  142.9950 C   0  0  0  0  0  2  0  0  0  0  0  0
  190.7180  176.7740  147.0080 C   0  0  2  0  0  3  0  0  0  0  0  0
  187.6930  177.8770  145.8540 C   0  0  0  0  0  2  0  0  0  0  0  0
  189.3980  176.6700  143.5120 C   0  0  0  0  0  2  0  0  0  0  0  0
  191.5960  177.3960  148.0330 N   0  0  0  0  0  2  0  0  0  0  0  0
  193.5190  176.8350  149.1500 O   0  0  0  0  0  1  0  0  0  0  0  0
  192.8200  175.3150  147.4570 C   0  0  0  0  0  1  0  0  0  0  0  0
  192.3600  176.2860  148.5450 C   0  0  2  0  0  3  0  0  0  0  0  0
  185.5230  178.6500  145.3190 C   0  0  0  0  0  2  0  0  0  0  0  0
  183.2160  179.0300  144.4710 N   0  0  0  0  0  2  0  0  0  0  0  0
  183.8950  178.2830  143.3860 C   0  0  2  0  0  3  0  0  0  0  0  0
  184.6630  179.3360  144.1680 C   0  0  2  0  0  3  0  0  0  0  0  0
  184.0980  179.1470  141.0290 N   0  0  0  0  0  0  0  0  0  0  0  0
  181.8620  178.7370  141.8490 C   0  0  0  0  0  3  0  0  0  0  0  0
  182.2800  179.4600  139.5290 C   0  0  0  0  0  3  0  0  0  0  0  0
  184.5750  179.8270  138.7630 N   0  0  0  0  0  1  0  0  0  0  0  0
  183.6190  179.4660  139.8260 C   0  0  0  0  0  0  0  0  0  0  0  0
  181.3780  179.0920  140.5960 C   0  0  0  0  0  3  0  0  0  0  0  0
  183.2490  178.7410  142.0840 C   0  0  0  0  0  0  0  0  0  0  0  0
  2 16  1  0  0  0  0
  2 10  1  0  0  0  0
  3  9  1  0  0  0  0
  4  2  2  0  0  0  0
  5 10  1  6  0  0  0
  5  6  1  0  0  0  0
  6  1  1  1  0  0  0
  7 11  1  6  0  0  0
  7  3  1  0  0  0  0
  7  5  1  0  0  0  0
  8 11  1  0  0  0  0
  8  4  1  0  0  0  0
  9  6  1  0  0  0  0
  9 12  1  1  0  0  0
 12 15  1  0  0  0  0
 15 14  1  6  0  0  0
 15 13  1  0  0  0  0
 18 26  1  6  0  0  0
 18 19  1  0  0  0  0
 18 17  1  0  0  0  0
 19 17  1  0  0  0  0
 19 16  1  1  0  0  0
 20 26  1  0  0  0  0
 21 26  2  0  0  0  0
 22 24  1  0  0  0  0
 22 25  2  0  0  0  0
 23 24  1  0  0  0  0
 24 20  2  0  0  0  0
 25 21  1  0  0  0  0
M  END
>  <MODEL>
9

>  <REMARK>
 VINA RESULT:      -7.9      3.135      6.836
  Name = 
  5 active torsions:
  status: ('A' for Active; 'I' for Inactive)
    1  A    between atoms: C_2  and  C_26
    2  A    between atoms: C_3  and  C_18
    3  A    between atoms: C_5  and  C_18
    4  A    between atoms: N_7  and  C_13
    5  A    between atoms: N_7  and  C_21
                            x       y       z     vdW  Elec       q    Type
                         _______ _______ _______ _____ _____    ______ ____

>  <TORSDO>
F 5

$$$$
