=
 OpenBabel11042411123D

 54 61  0  0  1  0  0  0  0  0999 V2000
  180.0900  179.5840  141.8480 N   0  0  0  0  0  0  0  0  0  0  0  0
  182.0240  178.9820  140.5360 C   0  0  0  0  0  0  0  0  0  0  0  0
  188.7010  177.7770  142.9250 C   0  0  2  0  0  3  0  0  0  0  0  0
  180.8740  179.5420  143.0180 N   0  0  0  0  0  2  0  0  0  0  0  0
  186.6660  177.4010  136.6000 C   0  0  0  0  0  2  0  0  0  0  0  0
  187.4690  178.6330  143.2900 C   0  0  0  0  0  2  0  0  0  0  0  0
  182.5920  178.6050  139.3080 C   0  0  0  0  0  3  0  0  0  0  0  0
  183.9620  178.3440  139.2010 C   0  0  0  0  0  0  0  0  0  0  0  0
  186.0280  178.2600  137.7190 C   0  0  2  0  0  3  0  0  0  0  0  0
  184.9980  178.5920  142.7960 C   0  0  0  0  0  0  0  0  0  0  0  0
  188.5080  176.7400  138.3020 C   0  0  2  0  0  3  0  0  0  0  0  0
  188.1780  177.1570  136.8270 C   0  0  2  0  0  3  0  0  0  0  0  0
  190.1440  176.8540  140.6550 S   0  0  0  0  0  0  0  0  0  0  0  0
  186.8280  178.0580  139.0070 C   0  0  2  0  0  3  0  0  0  0  0  0
  180.5690  179.3120  140.6750 C   0  0  0  0  0  0  0  0  0  0  0  0
  185.1130  178.7530  145.3330 C   0  0  0  0  0  1  0  0  0  0  0  0
  182.2680  179.2720  142.9380 C   0  0  0  0  0  0  0  0  0  0  0  0
  184.7800  178.4590  140.3330 C   0  0  0  0  0  0  0  0  0  0  0  0
  187.3400  176.7500  139.0960 O   0  0  0  0  0  0  0  0  0  0  0  0
  183.0410  179.2360  144.0980 C   0  0  0  0  0  3  0  0  0  0  0  0
  184.5400  177.8900  137.8820 C   0  0  0  0  0  2  0  0  0  0  0  0
  188.5970  177.4040  141.4450 C   0  0  0  0  0  2  0  0  0  0  0  0
  186.2890  178.0450  142.7320 O   0  0  0  0  0  0  0  0  0  0  0  0
  189.6750  177.5050  138.9880 C   0  0  0  0  0  2  0  0  0  0  0  0
  179.6830  179.4580  139.5530 N   0  0  0  0  0  2  0  0  0  0  0  0
  184.2180  178.6910  141.6030 C   0  0  0  0  0  0  0  0  0  0  0  0
  186.1610  178.4210  140.1960 O   0  0  0  0  0  0  0  0  0  0  0  0
  184.3990  178.9090  144.0320 C   0  0  0  0  0  0  0  0  0  0  0  0
  182.8390  178.9950  141.6900 C   0  0  0  0  0  0  0  0  0  0  0  0
  180.0920  180.5370  137.4970 C   0  0  0  0  0  0  0  0  0  0  0  0
  180.6220  180.4930  136.1170 C   0  0  0  0  0  3  0  0  0  0  0  0
  180.1100  179.4570  138.2170 N   0  0  0  0  0  0  0  0  0  0  0  0
  180.5180  182.9580  135.9940 C   0  0  0  0  0  2  0  0  0  0  0  0
  180.7870  181.6120  135.4010 C   0  0  0  0  0  3  0  0  0  0  0  0
  179.6500  181.8610  138.0850 C   0  0  0  0  0  2  0  0  0  0  0  0
  179.3370  182.8730  136.9740 C   0  0  0  0  0  2  0  0  0  0  0  0
  189.0430  178.2260  136.2340 C   0  0  0  0  0  0  0  0  0  0  0  0
  189.1910  179.3410  136.8170 O   0  0  0  0  0  0  0  0  0  0  0  0
  189.7560  177.9360  135.0620 O   0  0  0  0  0  0  0  0  0  0  0  0
  189.1440  175.7510  134.5940 O   0  0  0  0  0  1  0  0  0  0  0  0
  190.2250  176.6200  134.7510 C   0  0  2  0  0  3  0  0  0  0  0  0
  191.2650  174.6320  135.7620 N   0  0  0  0  0  1  0  0  0  0  0  0
  191.1610  176.0860  135.8350 C   0  0  0  0  0  2  0  0  0  0  0  0
  188.6820  176.5080  143.7690 C   0  0  0  0  0  2  0  0  0  0  0  0
  188.7510  177.0720  146.2760 C   0  0  0  0  0  0  0  0  0  0  0  0
  191.6160  177.8690  148.3700 O   0  0  0  0  0  0  0  0  0  0  0  0
  187.4880  177.1280  146.2900 O   0  0  0  0  0  0  0  0  0  0  0  0
  190.9420  177.3900  147.4150 C   0  0  0  0  0  0  0  0  0  0  0  0
  188.8090  177.9010  148.6430 C   0  0  0  0  0  1  0  0  0  0  0  0
  191.6590  176.7400  146.2590 C   0  0  2  0  0  3  0  0  0  0  0  0
  189.5030  177.4340  147.4480 N   0  0  0  0  0  0  0  0  0  0  0  0
  189.4570  176.6880  145.0380 C   0  0  0  0  0  0  0  0  0  0  0  0
  190.7960  176.5770  145.0310 C   0  0  0  0  0  3  0  0  0  0  0  0
  192.2180  175.3920  146.6860 C   0  0  0  0  0  1  0  0  0  0  0  0
  1  4  1  0  0  0  0
  2 15  1  0  0  0  0
  2 29  1  0  0  0  0
  3  6  1  0  0  0  0
  3 44  1  1  0  0  0
  5 12  1  0  0  0  0
  7  2  2  0  0  0  0
  8  7  1  0  0  0  0
  8 18  2  0  0  0  0
  9  5  1  6  0  0  0
  9 21  1  0  0  0  0
  9 14  1  0  0  0  0
 10 28  1  0  0  0  0
 11 24  1  1  0  0  0
 11 19  1  0  0  0  0
 12 37  1  1  0  0  0
 12 11  1  0  0  0  0
 13 22  1  0  0  0  0
 14 19  1  1  0  0  0
 14 27  1  0  0  0  0
 15  1  2  0  0  0  0
 17  4  1  0  0  0  0
 17 20  1  0  0  0  0
 18 26  1  0  0  0  0
 21  8  1  0  0  0  0
 22  3  1  0  0  0  0
 23 10  1  0  0  0  0
 23  6  1  0  0  0  0
 24 13  1  0  0  0  0
 25 15  1  0  0  0  0
 26 29  1  0  0  0  0
 26 10  2  0  0  0  0
 27 18  1  0  0  0  0
 28 20  2  0  0  0  0
 28 16  1  0  0  0  0
 29 17  2  0  0  0  0
 30 35  1  0  0  0  0
 30 32  2  0  0  0  0
 31 30  1  0  0  0  0
 32 25  1  0  0  0  0
 33 36  1  0  0  0  0
 34 33  1  0  0  0  0
 34 31  2  0  0  0  0
 36 35  1  0  0  0  0
 37 38  2  0  0  0  0
 39 37  1  0  0  0  0
 41 40  1  1  0  0  0
 41 39  1  0  0  0  0
 41 43  1  0  0  0  0
 42 43  1  0  0  0  0
 44 52  1  0  0  0  0
 45 47  2  0  0  0  0
 45 51  1  0  0  0  0
 48 51  1  0  0  0  0
 48 46  2  0  0  0  0
 50 54  1  1  0  0  0
 50 48  1  0  0  0  0
 51 49  1  0  0  0  0
 52 45  1  0  0  0  0
 53 52  2  0  0  0  0
 53 50  1  0  0  0  0
M  END
>  <MODEL>
1

>  <REMARK>
 VINA RESULT:     -10.0      0.000      0.000
  Name = 
  7 active torsions:
  status: ('A' for Active; 'I' for Inactive)
    1  A    between atoms: C_4  and  C_45
    2  A    between atoms: C_10  and  C_15
    3  A    between atoms: N_11  and  N_46
    4  A    between atoms: C_14  and  C_23
    5  A    between atoms: C_14  and  O_42
    6  A    between atoms: C_15  and  O_42
    7  A    between atoms: C_45  and  C_47
                            x       y       z     vdW  Elec       q    Type
                         _______ _______ _______ _____ _____    ______ ____

>  <TORSDO>
F 7

$$$$
=
 OpenBabel11042411123D

 54 61  0  0  1  0  0  0  0  0999 V2000
  186.6520  178.1340  147.9070 N   0  0  0  0  0  0  0  0  0  0  0  0
  187.6300  177.8510  145.7200 C   0  0  0  0  0  0  0  0  0  0  0  0
  184.3540  178.5910  139.3580 C   0  0  2  0  0  3  0  0  0  0  0  0
  185.4160  178.4530  147.3110 N   0  0  0  0  0  2  0  0  0  0  0  0
  190.7460  177.0100  140.3220 C   0  0  0  0  0  2  0  0  0  0  0  0
  184.0130  178.1680  140.8040 C   0  0  0  0  0  2  0  0  0  0  0  0
  188.7580  177.6450  144.9080 C   0  0  0  0  0  3  0  0  0  0  0  0
  188.6410  177.5920  143.5150 C   0  0  0  0  0  0  0  0  0  0  0  0
  189.5790  176.7500  141.3060 C   0  0  2  0  0  3  0  0  0  0  0  0
  185.0230  178.4820  143.0910 C   0  0  0  0  0  0  0  0  0  0  0  0
  188.9880  177.8930  138.6330 C   0  0  2  0  0  3  0  0  0  0  0  0
  190.2850  177.0380  138.8450 C   0  0  2  0  0  3  0  0  0  0  0  0
  186.4260  178.3420  137.4250 S   0  0  0  0  0  0  0  0  0  0  0  0
  188.2830  177.2550  140.6710 C   0  0  2  0  0  3  0  0  0  0  0  0
  187.7150  177.8680  147.2150 C   0  0  0  0  0  0  0  0  0  0  0  0
  182.6090  179.2350  143.3790 C   0  0  0  0  0  1  0  0  0  0  0  0
  185.2710  178.4150  145.8960 C   0  0  0  0  0  0  0  0  0  0  0  0
  187.3810  177.7480  142.9200 C   0  0  0  0  0  0  0  0  0  0  0  0
  188.5100  178.3870  139.8660 O   0  0  0  0  0  0  0  0  0  0  0  0
  184.0450  178.7270  145.3100 C   0  0  0  0  0  3  0  0  0  0  0  0
  189.8750  177.4210  142.6620 C   0  0  0  0  0  2  0  0  0  0  0  0
  185.8600  178.4130  139.1570 C   0  0  0  0  0  2  0  0  0  0  0  0
  184.9750  178.7200  141.7090 O   0  0  0  0  0  0  0  0  0  0  0  0
  187.8550  177.2300  137.8020 C   0  0  0  0  0  2  0  0  0  0  0  0
  188.8950  177.4900  147.9420 N   0  0  0  0  0  2  0  0  0  0  0  0
  186.2600  178.1010  143.6950 C   0  0  0  0  0  0  0  0  0  0  0  0
  187.2170  177.4780  141.5680 O   0  0  0  0  0  0  0  0  0  0  0  0
  183.9130  178.7510  143.9180 C   0  0  0  0  0  0  0  0  0  0  0  0
  186.3840  178.1090  145.1040 C   0  0  0  0  0  0  0  0  0  0  0  0
  191.1840  176.9280  147.9430 C   0  0  0  0  0  0  0  0  0  0  0  0
  192.3330  176.2550  147.2970 C   0  0  0  0  0  3  0  0  0  0  0  0
  190.0330  176.9270  147.3450 N   0  0  0  0  0  0  0  0  0  0  0  0
  193.6410  176.4810  149.3800 C   0  0  0  0  0  2  0  0  0  0  0  0
  193.4890  176.0770  147.9480 C   0  0  0  0  0  3  0  0  0  0  0  0
  191.3420  177.5010  149.3350 C   0  0  0  0  0  2  0  0  0  0  0  0
  192.8220  177.7510  149.6580 C   0  0  0  0  0  2  0  0  0  0  0  0
  190.2960  175.6870  138.2000 C   0  0  0  0  0  0  0  0  0  0  0  0
  189.3130  175.2870  137.5080 O   0  0  0  0  0  0  0  0  0  0  0  0
  191.4560  174.9050  138.3050 O   0  0  0  0  0  0  0  0  0  0  0  0
  193.1900  173.6880  137.3670 O   0  0  0  0  0  1  0  0  0  0  0  0
  192.4620  174.8770  137.2880 C   0  0  2  0  0  3  0  0  0  0  0  0
  194.7640  175.6990  136.9990 N   0  0  0  0  0  1  0  0  0  0  0  0
  193.4110  176.0700  137.4010 C   0  0  0  0  0  2  0  0  0  0  0  0
  183.9900  180.0600  139.1790 C   0  0  0  0  0  2  0  0  0  0  0  0
  182.1140  181.5470  138.2420 C   0  0  0  0  0  0  0  0  0  0  0  0
  178.9310  180.5730  136.7750 O   0  0  0  0  0  0  0  0  0  0  0  0
  182.7060  182.5660  138.6990 O   0  0  0  0  0  0  0  0  0  0  0  0
  180.1370  180.5040  137.1450 C   0  0  0  0  0  0  0  0  0  0  0  0
  180.1590  182.9780  137.5890 C   0  0  0  0  0  1  0  0  0  0  0  0
  180.8720  179.1920  137.0250 C   0  0  2  0  0  3  0  0  0  0  0  0
  180.8130  181.6750  137.6400 N   0  0  0  0  0  0  0  0  0  0  0  0
  182.7350  180.2140  138.3770 C   0  0  0  0  0  0  0  0  0  0  0  0
  182.1360  179.1340  137.8480 C   0  0  0  0  0  3  0  0  0  0  0  0
  181.1850  178.9040  135.5650 C   0  0  0  0  0  1  0  0  0  0  0  0
  2 15  1  0  0  0  0
  3 44  1  1  0  0  0
  3  6  1  0  0  0  0
  4  1  1  0  0  0  0
  6 23  1  0  0  0  0
  7  2  2  0  0  0  0
  8  7  1  0  0  0  0
  9  5  1  6  0  0  0
  9 21  1  0  0  0  0
 10 26  2  0  0  0  0
 10 28  1  0  0  0  0
 11 24  1  1  0  0  0
 11 12  1  0  0  0  0
 11 19  1  0  0  0  0
 12 37  1  1  0  0  0
 12  5  1  0  0  0  0
 13 24  1  0  0  0  0
 13 22  1  0  0  0  0
 14 19  1  1  0  0  0
 14  9  1  0  0  0  0
 14 27  1  0  0  0  0
 15  1  2  0  0  0  0
 15 25  1  0  0  0  0
 16 28  1  0  0  0  0
 17  4  1  0  0  0  0
 18  8  2  0  0  0  0
 18 26  1  0  0  0  0
 20 17  1  0  0  0  0
 21  8  1  0  0  0  0
 22  3  1  0  0  0  0
 23 10  1  0  0  0  0
 26 29  1  0  0  0  0
 27 18  1  0  0  0  0
 28 20  2  0  0  0  0
 29  2  1  0  0  0  0
 29 17  2  0  0  0  0
 30 35  1  0  0  0  0
 31 30  1  0  0  0  0
 31 34  2  0  0  0  0
 32 25  1  0  0  0  0
 32 30  2  0  0  0  0
 33 36  1  0  0  0  0
 34 33  1  0  0  0  0
 35 36  1  0  0  0  0
 37 39  1  0  0  0  0
 38 37  2  0  0  0  0
 41 40  1  1  0  0  0
 41 43  1  0  0  0  0
 41 39  1  0  0  0  0
 42 43  1  0  0  0  0
 45 52  1  0  0  0  0
 45 47  2  0  0  0  0
 46 48  2  0  0  0  0
 48 51  1  0  0  0  0
 49 51  1  0  0  0  0
 50 54  1  6  0  0  0
 50 48  1  0  0  0  0
 50 53  1  0  0  0  0
 51 45  1  0  0  0  0
 52 44  1  0  0  0  0
 53 52  2  0  0  0  0
M  END
>  <MODEL>
2

>  <REMARK>
 VINA RESULT:      -8.9      2.490      9.648
  Name = 
  7 active torsions:
  status: ('A' for Active; 'I' for Inactive)
    1  A    between atoms: C_4  and  C_45
    2  A    between atoms: C_10  and  C_15
    3  A    between atoms: N_11  and  N_46
    4  A    between atoms: C_14  and  C_23
    5  A    between atoms: C_14  and  O_42
    6  A    between atoms: C_15  and  O_42
    7  A    between atoms: C_45  and  C_47
                            x       y       z     vdW  Elec       q    Type
                         _______ _______ _______ _____ _____    ______ ____

>  <TORSDO>
F 7

$$$$
=
 OpenBabel11042411123D

 54 61  0  0  1  0  0  0  0  0999 V2000
  186.4040  178.2480  147.6740 N   0  0  0  0  0  0  0  0  0  0  0  0
  187.3910  177.9640  145.4910 C   0  0  0  0  0  0  0  0  0  0  0  0
  184.1490  178.7360  139.1160 C   0  0  2  0  0  3  0  0  0  0  0  0
  185.1730  178.5760  147.0730 N   0  0  0  0  0  2  0  0  0  0  0  0
  190.5270  177.1160  140.1060 C   0  0  0  0  0  2  0  0  0  0  0  0
  183.7980  178.3120  140.5590 C   0  0  0  0  0  2  0  0  0  0  0  0
  188.5210  177.7530  144.6840 C   0  0  0  0  0  3  0  0  0  0  0  0
  188.4100  177.7040  143.2900 C   0  0  0  0  0  0  0  0  0  0  0  0
  189.3540  176.8600  141.0830 C   0  0  2  0  0  3  0  0  0  0  0  0
  184.8000  178.6150  142.8520 C   0  0  0  0  0  0  0  0  0  0  0  0
  188.7810  178.0130  138.4100 C   0  0  2  0  0  3  0  0  0  0  0  0
  190.0730  177.1490  138.6270 C   0  0  2  0  0  3  0  0  0  0  0  0
  186.2280  178.4800  137.1920 S   0  0  0  0  0  0  0  0  0  0  0  0
  188.0640  177.3750  140.4430 C   0  0  2  0  0  3  0  0  0  0  0  0
  187.4680  177.9770  146.9870 C   0  0  0  0  0  0  0  0  0  0  0  0
  182.3890  179.3810  143.1290 C   0  0  0  0  0  1  0  0  0  0  0  0
  185.0340  178.5410  145.6580 C   0  0  0  0  0  0  0  0  0  0  0  0
  187.1540  177.8680  142.6900 C   0  0  0  0  0  0  0  0  0  0  0  0
  188.3010  178.5070  139.6430 O   0  0  0  0  0  0  0  0  0  0  0  0
  183.8130  178.8610  145.0670 C   0  0  0  0  0  3  0  0  0  0  0  0
  189.6470  177.5270  142.4430 C   0  0  0  0  0  2  0  0  0  0  0  0
  185.6540  178.5500  138.9210 C   0  0  0  0  0  2  0  0  0  0  0  0
  184.7590  178.8560  141.4700 O   0  0  0  0  0  0  0  0  0  0  0  0
  187.6490  177.3580  137.5730 C   0  0  0  0  0  2  0  0  0  0  0  0
  188.6430  177.5910  147.7180 N   0  0  0  0  0  2  0  0  0  0  0  0
  186.0310  178.2260  143.4600 C   0  0  0  0  0  0  0  0  0  0  0  0
  186.9950  177.6020  141.3370 O   0  0  0  0  0  0  0  0  0  0  0  0
  183.6870  178.8890  143.6740 C   0  0  0  0  0  0  0  0  0  0  0  0
  186.1490  178.2300  144.8700 C   0  0  0  0  0  0  0  0  0  0  0  0
  190.9100  176.9450  147.7590 C   0  0  0  0  0  0  0  0  0  0  0  0
  192.0560  176.2700  147.1110 C   0  0  0  0  0  3  0  0  0  0  0  0
  189.7800  177.0220  147.1250 N   0  0  0  0  0  0  0  0  0  0  0  0
  193.2980  176.3210  149.2460 C   0  0  0  0  0  2  0  0  0  0  0  0
  193.1810  176.0100  147.7880 C   0  0  0  0  0  3  0  0  0  0  0  0
  191.0390  177.4270  149.1880 C   0  0  0  0  0  2  0  0  0  0  0  0
  192.5150  177.6020  149.5740 C   0  0  0  0  0  2  0  0  0  0  0  0
  190.0790  175.8000  137.9790 C   0  0  0  0  0  0  0  0  0  0  0  0
  190.9040  174.9080  138.3380 O   0  0  0  0  0  0  0  0  0  0  0  0
  189.0950  175.5130  137.0210 O   0  0  0  0  0  0  0  0  0  0  0  0
  189.2150  174.3860  135.0010 O   0  0  0  0  0  1  0  0  0  0  0  0
  188.9980  174.2410  136.3730 C   0  0  2  0  0  3  0  0  0  0  0  0
  187.7910  172.2530  137.1780 N   0  0  0  0  0  1  0  0  0  0  0  0
  187.6360  173.5900  136.6130 C   0  0  0  0  0  2  0  0  0  0  0  0
  183.7940  180.2080  138.9380 C   0  0  0  0  0  2  0  0  0  0  0  0
  181.8790  179.3480  137.4540 C   0  0  0  0  0  0  0  0  0  0  0  0
  178.9310  181.1120  136.2620 O   0  0  0  0  0  0  0  0  0  0  0  0
  182.5320  178.2860  137.2420 O   0  0  0  0  0  0  0  0  0  0  0  0
  179.9190  180.8110  136.9890 C   0  0  0  0  0  0  0  0  0  0  0  0
  180.1580  178.6190  135.7810 C   0  0  0  0  0  1  0  0  0  0  0  0
  180.3090  181.7260  138.1210 C   0  0  2  0  0  3  0  0  0  0  0  0
  180.6430  179.5870  136.7580 N   0  0  0  0  0  0  0  0  0  0  0  0
  182.4160  180.3700  138.3740 C   0  0  0  0  0  0  0  0  0  0  0  0
  181.7040  181.4760  138.6430 C   0  0  0  0  0  3  0  0  0  0  0  0
  179.3000  181.6110  139.2540 C   0  0  0  0  0  1  0  0  0  0  0  0
  2 15  1  0  0  0  0
  3 44  1  1  0  0  0
  3  6  1  0  0  0  0
  4  1  1  0  0  0  0
  6 23  1  0  0  0  0
  7  2  2  0  0  0  0
  8  7  1  0  0  0  0
  9  5  1  6  0  0  0
  9 21  1  0  0  0  0
 10 26  2  0  0  0  0
 10 28  1  0  0  0  0
 11 24  1  1  0  0  0
 11 12  1  0  0  0  0
 11 19  1  0  0  0  0
 12 37  1  1  0  0  0
 12  5  1  0  0  0  0
 13 24  1  0  0  0  0
 13 22  1  0  0  0  0
 14 19  1  1  0  0  0
 14  9  1  0  0  0  0
 14 27  1  0  0  0  0
 15  1  2  0  0  0  0
 15 25  1  0  0  0  0
 16 28  1  0  0  0  0
 17  4  1  0  0  0  0
 18  8  2  0  0  0  0
 18 26  1  0  0  0  0
 20 17  1  0  0  0  0
 21  8  1  0  0  0  0
 22  3  1  0  0  0  0
 23 10  1  0  0  0  0
 26 29  1  0  0  0  0
 27 18  1  0  0  0  0
 28 20  2  0  0  0  0
 29  2  1  0  0  0  0
 29 17  2  0  0  0  0
 30 35  1  0  0  0  0
 31 30  1  0  0  0  0
 31 34  2  0  0  0  0
 32 25  1  0  0  0  0
 32 30  2  0  0  0  0
 33 36  1  0  0  0  0
 34 33  1  0  0  0  0
 35 36  1  0  0  0  0
 37 38  2  0  0  0  0
 39 37  1  0  0  0  0
 41 40  1  6  0  0  0
 41 43  1  0  0  0  0
 41 39  1  0  0  0  0
 43 42  1  0  0  0  0
 45 52  1  0  0  0  0
 46 48  2  0  0  0  0
 47 45  2  0  0  0  0
 48 50  1  0  0  0  0
 49 51  1  0  0  0  0
 50 53  1  0  0  0  0
 50 54  1  1  0  0  0
 51 48  1  0  0  0  0
 51 45  1  0  0  0  0
 52 53  2  0  0  0  0
 52 44  1  0  0  0  0
M  END
>  <MODEL>
3

>  <REMARK>
 VINA RESULT:      -8.2      2.511      9.600
  Name = 
  7 active torsions:
  status: ('A' for Active; 'I' for Inactive)
    1  A    between atoms: C_4  and  C_45
    2  A    between atoms: C_10  and  C_15
    3  A    between atoms: N_11  and  N_46
    4  A    between atoms: C_14  and  C_23
    5  A    between atoms: C_14  and  O_42
    6  A    between atoms: C_15  and  O_42
    7  A    between atoms: C_45  and  C_47
                            x       y       z     vdW  Elec       q    Type
                         _______ _______ _______ _____ _____    ______ ____

>  <TORSDO>
F 7

$$$$
=
 OpenBabel11042411123D

 54 61  0  0  1  0  0  0  0  0999 V2000
  191.4650  177.5760  142.0250 N   0  0  0  0  0  0  0  0  0  0  0  0
  189.1020  177.7850  141.5870 C   0  0  0  0  0  0  0  0  0  0  0  0
  185.8360  177.6760  135.1790 C   0  0  2  0  0  3  0  0  0  0  0  0
  191.7070  177.4450  140.6440 N   0  0  0  0  0  2  0  0  0  0  0  0
  182.8570  178.3460  141.0920 C   0  0  0  0  0  2  0  0  0  0  0  0
  187.1880  178.1000  135.7910 C   0  0  0  0  0  2  0  0  0  0  0  0
  187.7790  177.8580  142.0550 C   0  0  0  0  0  3  0  0  0  0  0  0
  186.7060  177.9660  141.1630 C   0  0  0  0  0  0  0  0  0  0  0  0
  184.3160  178.7350  140.7520 C   0  0  2  0  0  3  0  0  0  0  0  0
  188.4910  177.5890  137.8870 C   0  0  0  0  0  0  0  0  0  0  0  0
  182.5400  177.7570  138.5860 C   0  0  2  0  0  3  0  0  0  0  0  0
  181.9190  178.4230  139.8640 C   0  0  2  0  0  3  0  0  0  0  0  0
  183.0530  177.6940  135.7660 S   0  0  0  0  0  0  0  0  0  0  0  0
  184.5720  178.4280  139.2750 C   0  0  2  0  0  3  0  0  0  0  0  0
  190.2740  177.7150  142.5170 C   0  0  0  0  0  0  0  0  0  0  0  0
  190.1570  177.1630  136.0100 C   0  0  0  0  0  1  0  0  0  0  0  0
  190.6340  177.5430  139.7150 C   0  0  0  0  0  0  0  0  0  0  0  0
  186.9540  177.9990  139.7840 C   0  0  0  0  0  0  0  0  0  0  0  0
  183.8490  177.2980  138.8500 O   0  0  0  0  0  0  0  0  0  0  0  0
  190.8790  177.4160  138.3480 C   0  0  0  0  0  3  0  0  0  0  0  0
  185.2910  177.9920  141.6880 C   0  0  0  0  0  2  0  0  0  0  0  0
  184.7950  177.6530  136.3000 C   0  0  0  0  0  2  0  0  0  0  0  0
  187.4040  177.3980  137.0200 O   0  0  0  0  0  0  0  0  0  0  0  0
  182.4770  178.5920  137.2770 C   0  0  0  0  0  2  0  0  0  0  0  0
  190.1670  177.9090  143.9360 N   0  0  0  0  0  2  0  0  0  0  0  0
  188.2510  177.7810  139.2820 C   0  0  0  0  0  0  0  0  0  0  0  0
  185.9310  178.3270  138.9050 O   0  0  0  0  0  0  0  0  0  0  0  0
  189.8200  177.4490  137.4350 C   0  0  0  0  0  0  0  0  0  0  0  0
  189.3300  177.7160  140.1940 C   0  0  0  0  0  0  0  0  0  0  0  0
  188.7440  178.0070  145.8130 C   0  0  0  0  0  0  0  0  0  0  0  0
  187.5260  178.5380  146.4640 C   0  0  0  0  0  3  0  0  0  0  0  0
  188.9940  178.3280  144.5810 N   0  0  0  0  0  0  0  0  0  0  0  0
  188.3380  177.7290  148.6520 C   0  0  0  0  0  2  0  0  0  0  0  0
  187.3160  178.3800  147.7760 C   0  0  0  0  0  3  0  0  0  0  0  0
  189.7310  177.1970  146.6250 C   0  0  0  0  0  2  0  0  0  0  0  0
  189.0600  176.6140  147.8770 C   0  0  0  0  0  2  0  0  0  0  0  0
  181.3100  179.7770  139.6720 C   0  0  0  0  0  0  0  0  0  0  0  0
  182.0110  180.7570  139.2800 O   0  0  0  0  0  0  0  0  0  0  0  0
  179.9260  179.9200  139.8520 O   0  0  0  0  0  0  0  0  0  0  0  0
  180.0470  180.5380  142.0810 O   0  0  0  0  0  1  0  0  0  0  0  0
  179.3040  179.8270  141.1370 C   0  0  2  0  0  3  0  0  0  0  0  0
  179.4030  178.2460  143.0210 N   0  0  0  0  0  1  0  0  0  0  0  0
  179.1560  178.3740  141.5880 C   0  0  0  0  0  2  0  0  0  0  0  0
  185.9810  176.2750  134.5950 C   0  0  0  0  0  2  0  0  0  0  0  0
  185.4230  174.5290  136.3970 C   0  0  0  0  0  0  0  0  0  0  0  0
  182.6330  172.2000  136.5490 O   0  0  0  0  0  0  0  0  0  0  0  0
  186.5440  174.7440  136.9410 O   0  0  0  0  0  0  0  0  0  0  0  0
  183.3080  173.2240  136.2450 C   0  0  0  0  0  0  0  0  0  0  0  0
  185.0180  172.6330  137.9900 C   0  0  0  0  0  1  0  0  0  0  0  0
  182.7580  174.1970  135.2330 C   0  0  2  0  0  3  0  0  0  0  0  0
  184.5720  173.4770  136.8870 N   0  0  0  0  0  0  0  0  0  0  0  0
  185.0110  175.3220  135.2220 C   0  0  0  0  0  0  0  0  0  0  0  0
  183.8000  175.1340  134.6720 C   0  0  0  0  0  3  0  0  0  0  0  0
  181.6160  174.9940  135.8460 C   0  0  0  0  0  1  0  0  0  0  0  0
  1 15  2  0  0  0  0
  2  7  1  0  0  0  0
  2 15  1  0  0  0  0
  3 44  1  1  0  0  0
  3  6  1  0  0  0  0
  3 22  1  0  0  0  0
  4  1  1  0  0  0  0
  6 23  1  0  0  0  0
  8 21  1  0  0  0  0
  8  7  2  0  0  0  0
  9  5  1  1  0  0  0
  9 21  1  0  0  0  0
 10 26  1  0  0  0  0
 11 24  1  6  0  0  0
 11 19  1  0  0  0  0
 11 12  1  0  0  0  0
 12 37  1  6  0  0  0
 12  5  1  0  0  0  0
 13 22  1  0  0  0  0
 13 24  1  0  0  0  0
 14 19  1  1  0  0  0
 14  9  1  0  0  0  0
 15 25  1  0  0  0  0
 16 28  1  0  0  0  0
 17 29  1  0  0  0  0
 17  4  1  0  0  0  0
 18  8  1  0  0  0  0
 20 17  2  0  0  0  0
 23 10  1  0  0  0  0
 25 32  1  0  0  0  0
 26 18  2  0  0  0  0
 26 29  1  0  0  0  0
 27 14  1  0  0  0  0
 27 18  1  0  0  0  0
 28 10  2  0  0  0  0
 28 20  1  0  0  0  0
 29  2  2  0  0  0  0
 30 31  1  0  0  0  0
 30 35  1  0  0  0  0
 31 34  2  0  0  0  0
 32 30  2  0  0  0  0
 34 33  1  0  0  0  0
 35 36  1  0  0  0  0
 36 33  1  0  0  0  0
 37 39  1  0  0  0  0
 38 37  2  0  0  0  0
 39 41  1  0  0  0  0
 41 43  1  0  0  0  0
 41 40  1  1  0  0  0
 43 42  1  0  0  0  0
 44 52  1  0  0  0  0
 45 51  1  0  0  0  0
 45 47  2  0  0  0  0
 48 46  2  0  0  0  0
 48 51  1  0  0  0  0
 50 54  1  1  0  0  0
 50 48  1  0  0  0  0
 51 49  1  0  0  0  0
 52 45  1  0  0  0  0
 53 52  2  0  0  0  0
 53 50  1  0  0  0  0
M  END
>  <MODEL>
4

>  <REMARK>
 VINA RESULT:      -7.4      3.316     10.238
  Name = 
  7 active torsions:
  status: ('A' for Active; 'I' for Inactive)
    1  A    between atoms: C_4  and  C_45
    2  A    between atoms: C_10  and  C_15
    3  A    between atoms: N_11  and  N_46
    4  A    between atoms: C_14  and  C_23
    5  A    between atoms: C_14  and  O_42
    6  A    between atoms: C_15  and  O_42
    7  A    between atoms: C_45  and  C_47
                            x       y       z     vdW  Elec       q    Type
                         _______ _______ _______ _____ _____    ______ ____

>  <TORSDO>
F 7

$$$$
=
 OpenBabel11042411123D

 54 61  0  0  1  0  0  0  0  0999 V2000
  191.1910  177.5820  141.9380 N   0  0  0  0  0  0  0  0  0  0  0  0
  188.8260  177.8400  141.5380 C   0  0  0  0  0  0  0  0  0  0  0  0
  185.4570  177.8040  135.1820 C   0  0  2  0  0  3  0  0  0  0  0  0
  191.4090  177.4470  140.5530 N   0  0  0  0  0  2  0  0  0  0  0  0
  182.5870  178.5300  141.1430 C   0  0  0  0  0  2  0  0  0  0  0  0
  186.8270  178.2000  135.7740 C   0  0  0  0  0  2  0  0  0  0  0  0
  187.5120  177.9400  142.0260 C   0  0  0  0  0  3  0  0  0  0  0  0
  186.4280  178.0710  141.1520 C   0  0  0  0  0  0  0  0  0  0  0  0
  184.0490  178.8890  140.7790 C   0  0  2  0  0  3  0  0  0  0  0  0
  188.1530  177.6600  137.8480 C   0  0  0  0  0  0  0  0  0  0  0  0
  182.2180  177.9510  138.6420 C   0  0  2  0  0  3  0  0  0  0  0  0
  181.6310  178.6270  139.9300 C   0  0  2  0  0  3  0  0  0  0  0  0
  182.6850  177.8800  135.8140 S   0  0  0  0  0  0  0  0  0  0  0  0
  184.2740  178.5780  139.2990 C   0  0  2  0  0  3  0  0  0  0  0  0
  190.0110  177.7450  142.4490 C   0  0  0  0  0  0  0  0  0  0  0  0
  189.7790  177.2010  135.9450 C   0  0  0  0  0  1  0  0  0  0  0  0
  190.3230  177.5680  139.6410 C   0  0  0  0  0  0  0  0  0  0  0  0
  186.6550  178.1000  139.7690 C   0  0  0  0  0  0  0  0  0  0  0  0
  183.5210  177.4640  138.8850 O   0  0  0  0  0  0  0  0  0  0  0  0
  190.5430  177.4380  138.2710 C   0  0  0  0  0  3  0  0  0  0  0  0
  185.0220  178.1250  141.6990 C   0  0  0  0  0  2  0  0  0  0  0  0
  184.4340  177.8020  136.3200 C   0  0  0  0  0  2  0  0  0  0  0  0
  187.0480  177.4920  136.9980 O   0  0  0  0  0  0  0  0  0  0  0  0
  182.1510  178.7880  137.3350 C   0  0  0  0  0  2  0  0  0  0  0  0
  189.9310  177.9400  143.8700 N   0  0  0  0  0  2  0  0  0  0  0  0
  187.9390  177.8550  139.2460 C   0  0  0  0  0  0  0  0  0  0  0  0
  185.6240  178.4490  138.9070 O   0  0  0  0  0  0  0  0  0  0  0  0
  189.4700  177.4940  137.3750 C   0  0  0  0  0  0  0  0  0  0  0  0
  189.0310  177.7680  140.1420 C   0  0  0  0  0  0  0  0  0  0  0  0
  188.5010  178.0020  145.7430 C   0  0  0  0  0  0  0  0  0  0  0  0
  187.3090  178.5590  146.4190 C   0  0  0  0  0  3  0  0  0  0  0  0
  188.7770  178.3830  144.5330 N   0  0  0  0  0  0  0  0  0  0  0  0
  188.0600  177.5780  148.5580 C   0  0  0  0  0  2  0  0  0  0  0  0
  187.0800  178.3350  147.7190 C   0  0  0  0  0  3  0  0  0  0  0  0
  189.4370  177.0930  146.5100 C   0  0  0  0  0  2  0  0  0  0  0  0
  188.7270  176.4750  147.7210 C   0  0  0  0  0  2  0  0  0  0  0  0
  181.0480  179.9940  139.7480 C   0  0  0  0  0  0  0  0  0  0  0  0
  179.9280  180.2970  140.2570 O   0  0  0  0  0  0  0  0  0  0  0  0
  181.8080  180.9620  139.0740 O   0  0  0  0  0  0  0  0  0  0  0  0
  180.4600  181.6750  137.3300 O   0  0  0  0  0  1  0  0  0  0  0  0
  181.2160  182.0930  138.4270 C   0  0  2  0  0  3  0  0  0  0  0  0
  181.6690  184.1650  137.1790 N   0  0  0  0  0  1  0  0  0  0  0  0
  182.2730  183.0980  137.9710 C   0  0  0  0  0  2  0  0  0  0  0  0
  185.5640  176.4020  134.5960 C   0  0  0  0  0  2  0  0  0  0  0  0
  185.3900  174.5820  136.4030 C   0  0  0  0  0  0  0  0  0  0  0  0
  182.6800  172.2450  137.0530 O   0  0  0  0  0  0  0  0  0  0  0  0
  186.6030  174.7760  136.7030 O   0  0  0  0  0  0  0  0  0  0  0  0
  183.2820  173.2810  136.6540 C   0  0  0  0  0  0  0  0  0  0  0  0
  185.3210  172.6210  137.9670 C   0  0  0  0  0  1  0  0  0  0  0  0
  182.5360  174.2940  135.8230 C   0  0  2  0  0  3  0  0  0  0  0  0
  184.6560  173.5090  137.0200 N   0  0  0  0  0  0  0  0  0  0  0  0
  184.7430  175.4220  135.3770 C   0  0  0  0  0  0  0  0  0  0  0  0
  183.4410  175.2550  135.0910 C   0  0  0  0  0  3  0  0  0  0  0  0
  181.5560  175.0630  136.6970 C   0  0  0  0  0  1  0  0  0  0  0  0
  1 15  2  0  0  0  0
  2  7  1  0  0  0  0
  2 15  1  0  0  0  0
  3 44  1  1  0  0  0
  3  6  1  0  0  0  0
  3 22  1  0  0  0  0
  4  1  1  0  0  0  0
  6 23  1  0  0  0  0
  8 21  1  0  0  0  0
  8  7  2  0  0  0  0
  9  5  1  1  0  0  0
  9 21  1  0  0  0  0
 10 26  1  0  0  0  0
 11 24  1  6  0  0  0
 11 19  1  0  0  0  0
 11 12  1  0  0  0  0
 12 37  1  6  0  0  0
 12  5  1  0  0  0  0
 13 22  1  0  0  0  0
 13 24  1  0  0  0  0
 14 19  1  1  0  0  0
 14  9  1  0  0  0  0
 15 25  1  0  0  0  0
 16 28  1  0  0  0  0
 17 29  1  0  0  0  0
 17  4  1  0  0  0  0
 18  8  1  0  0  0  0
 20 17  2  0  0  0  0
 23 10  1  0  0  0  0
 25 32  1  0  0  0  0
 26 18  2  0  0  0  0
 26 29  1  0  0  0  0
 27 14  1  0  0  0  0
 27 18  1  0  0  0  0
 28 10  2  0  0  0  0
 28 20  1  0  0  0  0
 29  2  2  0  0  0  0
 30 31  1  0  0  0  0
 30 35  1  0  0  0  0
 31 34  2  0  0  0  0
 32 30  2  0  0  0  0
 34 33  1  0  0  0  0
 35 36  1  0  0  0  0
 36 33  1  0  0  0  0
 37 38  2  0  0  0  0
 39 37  1  0  0  0  0
 41 40  1  6  0  0  0
 41 39  1  0  0  0  0
 42 43  1  0  0  0  0
 43 41  1  0  0  0  0
 44 52  1  0  0  0  0
 45 47  2  0  0  0  0
 45 51  1  0  0  0  0
 48 51  1  0  0  0  0
 48 46  2  0  0  0  0
 50 48  1  0  0  0  0
 50 54  1  1  0  0  0
 51 49  1  0  0  0  0
 52 45  1  0  0  0  0
 53 52  2  0  0  0  0
 53 50  1  0  0  0  0
M  END
>  <MODEL>
5

>  <REMARK>
 VINA RESULT:      -7.2      3.451      9.997
  Name = 
  7 active torsions:
  status: ('A' for Active; 'I' for Inactive)
    1  A    between atoms: C_4  and  C_45
    2  A    between atoms: C_10  and  C_15
    3  A    between atoms: N_11  and  N_46
    4  A    between atoms: C_14  and  C_23
    5  A    between atoms: C_14  and  O_42
    6  A    between atoms: C_15  and  O_42
    7  A    between atoms: C_45  and  C_47
                            x       y       z     vdW  Elec       q    Type
                         _______ _______ _______ _____ _____    ______ ____

>  <TORSDO>
F 7

$$$$
=
 OpenBabel11042411123D

 54 61  0  0  1  0  0  0  0  0999 V2000
  183.1630  177.7470  136.3060 N   0  0  0  0  0  0  0  0  0  0  0  0
  184.7940  178.0170  138.0630 C   0  0  0  0  0  0  0  0  0  0  0  0
  191.5650  175.5880  138.1290 C   0  0  2  0  0  3  0  0  0  0  0  0
  184.1100  177.0400  135.5390 N   0  0  0  0  0  2  0  0  0  0  0  0
  188.5990  179.0800  142.9560 C   0  0  0  0  0  2  0  0  0  0  0  0
  190.1900  175.1950  137.5430 C   0  0  0  0  0  2  0  0  0  0  0  0
  185.1810  178.5860  139.2880 C   0  0  0  0  0  3  0  0  0  0  0  0
  186.4420  178.3260  139.8350 C   0  0  0  0  0  0  0  0  0  0  0  0
  187.8960  178.1730  141.9170 C   0  0  2  0  0  3  0  0  0  0  0  0
  188.0080  176.3580  137.0540 C   0  0  0  0  0  0  0  0  0  0  0  0
  190.8600  178.2900  141.9610 C   0  0  2  0  0  3  0  0  0  0  0  0
  190.0470  178.6250  143.2590 C   0  0  2  0  0  3  0  0  0  0  0  0
  192.7190  176.6790  140.4880 S   0  0  0  0  0  0  0  0  0  0  0  0
  188.9610  177.5510  141.0120 C   0  0  2  0  0  3  0  0  0  0  0  0
  183.4350  178.2390  137.4730 C   0  0  0  0  0  0  0  0  0  0  0  0
  188.6000  175.2150  134.8590 C   0  0  0  0  0  1  0  0  0  0  0  0
  185.4020  176.7680  136.0670 C   0  0  0  0  0  0  0  0  0  0  0  0
  187.3330  177.4880  139.1510 C   0  0  0  0  0  0  0  0  0  0  0  0
  190.0460  178.4250  140.8150 O   0  0  0  0  0  0  0  0  0  0  0  0
  186.3350  176.0640  135.3060 C   0  0  0  0  0  3  0  0  0  0  0  0
  186.8530  178.9890  141.1270 C   0  0  0  0  0  2  0  0  0  0  0  0
  191.3230  176.5030  139.3300 C   0  0  0  0  0  2  0  0  0  0  0  0
  189.3500  176.3520  137.4650 O   0  0  0  0  0  0  0  0  0  0  0  0
  191.6320  176.9420  141.9620 C   0  0  0  0  0  2  0  0  0  0  0  0
  182.3620  178.8790  138.1830 N   0  0  0  0  0  2  0  0  0  0  0  0
  187.0320  177.0230  137.8560 C   0  0  0  0  0  0  0  0  0  0  0  0
  188.4890  177.0460  139.7810 O   0  0  0  0  0  0  0  0  0  0  0  0
  187.6270  175.8480  135.7960 C   0  0  0  0  0  0  0  0  0  0  0  0
  185.7380  177.2580  137.3350 C   0  0  0  0  0  0  0  0  0  0  0  0
  181.4760  178.9000  140.3680 C   0  0  0  0  0  0  0  0  0  0  0  0
  181.6270  179.2280  141.8020 C   0  0  0  0  0  3  0  0  0  0  0  0
  182.4220  179.2250  139.5420 N   0  0  0  0  0  0  0  0  0  0  0  0
  179.6620  177.8280  142.3330 C   0  0  0  0  0  2  0  0  0  0  0  0
  180.7660  178.7620  142.7150 C   0  0  0  0  0  3  0  0  0  0  0  0
  180.2800  178.0930  139.9080 C   0  0  0  0  0  2  0  0  0  0  0  0
  179.1380  178.1790  140.9310 C   0  0  0  0  0  2  0  0  0  0  0  0
  190.1290  177.6190  144.3660 C   0  0  0  0  0  0  0  0  0  0  0  0
  191.2320  177.3620  144.9320 O   0  0  0  0  0  0  0  0  0  0  0  0
  188.9410  177.0290  144.8220 O   0  0  0  0  0  0  0  0  0  0  0  0
  188.6440  176.4610  147.0480 O   0  0  0  0  0  1  0  0  0  0  0  0
  188.3240  177.3950  146.0600 C   0  0  2  0  0  3  0  0  0  0  0  0
  186.3110  178.7230  146.5480 N   0  0  0  0  0  1  0  0  0  0  0  0
  186.8060  177.5000  145.9240 C   0  0  0  0  0  2  0  0  0  0  0  0
  192.3510  176.3450  137.0660 C   0  0  0  0  0  2  0  0  0  0  0  0
  194.6580  176.3820  135.9330 C   0  0  0  0  0  0  0  0  0  0  0  0
  197.1510  173.7420  135.7170 O   0  0  0  0  0  0  0  0  0  0  0  0
  194.3790  177.5030  135.4190 O   0  0  0  0  0  0  0  0  0  0  0  0
  196.1770  174.4210  136.1490 C   0  0  0  0  0  0  0  0  0  0  0  0
  196.7790  176.3020  134.5950 C   0  0  0  0  0  1  0  0  0  0  0  0
  195.3540  173.8850  137.2930 C   0  0  2  0  0  3  0  0  0  0  0  0
  195.8790  175.7080  135.5770 N   0  0  0  0  0  0  0  0  0  0  0  0
  193.7040  175.7370  136.8560 C   0  0  0  0  0  0  0  0  0  0  0  0
  194.0180  174.5710  137.4450 C   0  0  0  0  0  3  0  0  0  0  0  0
  196.1420  173.9840  138.5910 C   0  0  0  0  0  1  0  0  0  0  0  0
  1 15  2  0  0  0  0
  2  7  1  0  0  0  0
  3 44  1  6  0  0  0
  3 22  1  0  0  0  0
  4 17  1  0  0  0  0
  4  1  1  0  0  0  0
  5 12  1  0  0  0  0
  6  3  1  0  0  0  0
  7  8  2  0  0  0  0
  8 21  1  0  0  0  0
  9 21  1  6  0  0  0
  9  5  1  0  0  0  0
 10 23  1  0  0  0  0
 10 26  1  0  0  0  0
 11 24  1  1  0  0  0
 11 12  1  0  0  0  0
 12 37  1  1  0  0  0
 13 24  1  0  0  0  0
 14 27  1  6  0  0  0
 14  9  1  0  0  0  0
 15  2  1  0  0  0  0
 15 25  1  0  0  0  0
 16 28  1  0  0  0  0
 17 29  1  0  0  0  0
 18 27  1  0  0  0  0
 18  8  1  0  0  0  0
 19 14  1  0  0  0  0
 19 11  1  0  0  0  0
 20 28  1  0  0  0  0
 20 17  2  0  0  0  0
 22 13  1  0  0  0  0
 23  6  1  0  0  0  0
 25 32  1  0  0  0  0
 26 18  2  0  0  0  0
 28 10  2  0  0  0  0
 29 26  1  0  0  0  0
 29  2  2  0  0  0  0
 30 31  1  0  0  0  0
 31 34  2  0  0  0  0
 32 30  2  0  0  0  0
 33 34  1  0  0  0  0
 35 30  1  0  0  0  0
 35 36  1  0  0  0  0
 36 33  1  0  0  0  0
 37 39  1  0  0  0  0
 37 38  2  0  0  0  0
 39 41  1  0  0  0  0
 41 40  1  1  0  0  0
 43 41  1  0  0  0  0
 43 42  1  0  0  0  0
 45 52  1  0  0  0  0
 46 48  2  0  0  0  0
 47 45  2  0  0  0  0
 48 50  1  0  0  0  0
 49 51  1  0  0  0  0
 50 53  1  0  0  0  0
 50 54  1  1  0  0  0
 51 45  1  0  0  0  0
 51 48  1  0  0  0  0
 52 44  1  0  0  0  0
 52 53  2  0  0  0  0
M  END
>  <MODEL>
6

>  <REMARK>
 VINA RESULT:      -7.1      2.963      8.149
  Name = 
  7 active torsions:
  status: ('A' for Active; 'I' for Inactive)
    1  A    between atoms: C_4  and  C_45
    2  A    between atoms: C_10  and  C_15
    3  A    between atoms: N_11  and  N_46
    4  A    between atoms: C_14  and  C_23
    5  A    between atoms: C_14  and  O_42
    6  A    between atoms: C_15  and  O_42
    7  A    between atoms: C_45  and  C_47
                            x       y       z     vdW  Elec       q    Type
                         _______ _______ _______ _____ _____    ______ ____

>  <TORSDO>
F 7

$$$$
