=
 OpenBabel11032420133D

 36 38  0  0  1  0  0  0  0  0999 V2000
  187.4260  177.7820  144.0530 C   0  0  0  0  0  0  0  0  0  0  0  0
  187.5140  177.9470  142.7030 N   0  0  0  0  0  0  0  0  0  0  0  0
  188.6290  177.5880  142.0140 C   0  0  0  0  0  0  0  0  0  0  0  0
  189.6850  177.0380  142.6690 N   0  0  0  0  0  0  0  0  0  0  0  0
  188.5110  177.2140  144.7340 C   0  0  0  0  0  3  0  0  0  0  0  0
  189.6460  176.8450  144.0150 C   0  0  0  0  0  0  0  0  0  0  0  0
  184.8960  178.7250  146.7150 N   0  0  0  0  0  2  0  0  0  0  0  0
  187.0810  178.1890  146.9130 O   0  0  0  0  0  0  0  0  0  0  0  0
  186.1780  178.1890  144.7600 C   0  0  0  0  0  0  0  0  0  0  0  0
  185.0230  178.4080  144.0000 C   0  0  0  0  0  3  0  0  0  0  0  0
  186.0850  178.3610  146.1600 C   0  0  0  0  0  0  0  0  0  0  0  0
  183.8060  178.9260  145.9720 N   0  0  0  0  0  0  0  0  0  0  0  0
  183.8340  178.7790  144.6240 C   0  0  0  0  0  0  0  0  0  0  0  0
  182.6410  178.9840  143.8520 C   0  0  0  0  0  0  0  0  0  0  0  0
  181.6470  179.1620  143.1950 C   0  0  0  0  0  0  0  0  0  0  0  0
  180.4510  179.3820  142.3820 C   0  0  0  0  0  2  0  0  0  0  0  0
  180.3750  177.6090  140.8700 C   0  0  0  0  0  1  0  0  0  0  0  0
  179.8050  178.1110  142.1120 N   0  0  0  0  0  2  0  0  0  0  0  0
  188.6800  177.7600  140.5380 C   0  0  0  0  0  2  0  0  0  0  0  0
  189.9970  177.2360  140.0040 C   0  0  0  0  0  2  0  0  0  0  0  0
  189.9160  177.1080  138.4990 C   0  0  0  0  0  2  0  0  0  0  0  0
  188.9500  178.1440  137.9570 C   0  0  0  0  0  2  0  0  0  0  0  0
  187.0830  176.6740  137.5110 O   0  0  0  0  0  0  0  0  0  0  0  0
  186.5810  177.8610  136.9860 N   0  0  0  0  0  0  0  0  0  0  0  0
  187.9880  177.5110  136.9470 C   0  0  1  0  0  0  0  0  0  0  0  0
  184.7690  179.6370  139.7120 O   0  0  0  0  0  1  0  0  0  0  0  0
  186.3170  178.7030  138.0790 N   0  0  0  0  0  2  0  0  0  0  0  0
  185.0200  178.7520  138.6710 C   0  0  0  0  0  0  0  0  0  0  0  0
  184.0960  178.0090  138.2460 O   0  0  0  0  0  0  0  0  0  0  0  0
  189.2640  177.6990  134.9750 O   0  0  0  0  0  0  0  0  0  0  0  0
  188.4690  177.0330  135.6170 C   0  0  0  0  0  3  0  0  0  0  0  0
  190.7270  176.2730  144.6890 O   0  0  0  0  0  0  0  0  0  0  0  0
  191.5840  177.0420  145.5200 C   0  0  0  0  0  2  0  0  0  0  0  0
  190.4260  176.7010  147.5730 O   0  0  0  0  0  0  0  0  0  0  0  0
  191.4930  176.5540  146.9240 C   0  0  0  0  0  0  0  0  0  0  0  0
  192.6020  175.8930  147.5200 N   0  0  0  0  0  1  0  0  0  0  0  0
  1  5  2  0  0  0  0
  1  9  1  0  0  0  0
  2  1  1  0  0  0  0
  3  4  1  0  0  0  0
  3  2  2  0  0  0  0
  4  6  2  0  0  0  0
  6 32  1  0  0  0  0
  6  5  1  0  0  0  0
  9 11  1  0  0  0  0
 10 13  1  0  0  0  0
 10  9  2  0  0  0  0
 11  7  1  0  0  0  0
 11  8  2  0  0  0  0
 12  7  1  0  0  0  0
 13 12  2  0  0  0  0
 14 13  1  0  0  0  0
 15 14  3  0  0  0  0
 16 15  1  0  0  0  0
 17 18  1  0  0  0  0
 18 16  1  0  0  0  0
 19  3  1  0  0  0  0
 20 19  1  0  0  0  0
 21 20  1  0  0  0  0
 22 21  1  0  0  0  0
 24 23  1  0  0  0  0
 24 27  1  0  0  0  0
 25 31  1  6  0  0  0
 25 24  1  0  0  0  0
 25 23  1  0  0  0  0
 25 22  1  0  0  0  0
 27 28  1  0  0  0  0
 28 26  1  0  0  0  0
 29 28  2  0  0  0  0
 30 31  2  0  0  0  0
 32 33  1  0  0  0  0
 33 35  1  0  0  0  0
 35 36  1  0  0  0  0
 35 34  2  0  0  0  0
M  END
>  <MODEL>
1

>  <REMARK>
 VINA RESULT:      -8.3      0.000      0.000
  Name = 
  14 active torsions:
  status: ('A' for Active; 'I' for Inactive)
    1  A    between atoms: C_4  and  C_7
    2  A    between atoms: C_8  and  C_12
    3  A    between atoms: C_8  and  O_33
    4  A    between atoms: C_9  and  C_18
    5  A    between atoms: C_9  and  C_27
    6  A    between atoms: C_11  and  C_35
    7  A    between atoms: C_15  and  C_21
    8  A    between atoms: N_16  and  N_23
    9  A    between atoms: C_18  and  C_29
   10  A    between atoms: C_19  and  N_31
   11  A    between atoms: C_19  and  C_34
   12  A    between atoms: C_21  and  C_29
   13  A    between atoms: C_24  and  C_27
   14  A    between atoms: O_33  and  C_36
                            x       y       z     vdW  Elec       q    Type
                         _______ _______ _______ _____ _____    ______ ____

>  <TORSDO>
F 14

$$$$
=
 OpenBabel11032420133D

 36 38  0  0  1  0  0  0  0  0999 V2000
  184.6160  178.5490  143.1910 C   0  0  0  0  0  0  0  0  0  0  0  0
  185.3480  178.6790  142.0500 N   0  0  0  0  0  0  0  0  0  0  0  0
  184.7550  178.7780  140.8310 C   0  0  0  0  0  0  0  0  0  0  0  0
  183.4000  178.7610  140.7320 N   0  0  0  0  0  0  0  0  0  0  0  0
  183.2180  178.5320  143.0960 C   0  0  0  0  0  3  0  0  0  0  0  0
  182.6210  178.6400  141.8410 C   0  0  0  0  0  0  0  0  0  0  0  0
  185.4420  178.6410  146.8910 N   0  0  0  0  0  2  0  0  0  0  0  0
  183.5130  179.1290  145.8210 O   0  0  0  0  0  0  0  0  0  0  0  0
  185.3160  178.4480  144.5030 C   0  0  0  0  0  0  0  0  0  0  0  0
  186.6540  178.0320  144.5140 C   0  0  0  0  0  3  0  0  0  0  0  0
  184.7140  178.7540  145.7450 C   0  0  0  0  0  0  0  0  0  0  0  0
  186.7160  178.2450  146.8780 N   0  0  0  0  0  0  0  0  0  0  0  0
  187.3470  177.9350  145.7180 C   0  0  0  0  0  0  0  0  0  0  0  0
  188.7240  177.5300  145.7340 C   0  0  0  0  0  0  0  0  0  0  0  0
  189.8770  177.1820  145.7570 C   0  0  0  0  0  0  0  0  0  0  0  0
  191.2730  176.7460  145.7990 C   0  0  0  0  0  2  0  0  0  0  0  0
  192.2730  175.6180  147.5770 C   0  0  0  0  0  1  0  0  0  0  0  0
  191.7990  176.9230  147.1390 N   0  0  0  0  0  2  0  0  0  0  0  0
  185.5860  178.9450  139.6090 C   0  0  0  0  0  2  0  0  0  0  0  0
  184.9950  178.1380  138.4720 C   0  0  0  0  0  2  0  0  0  0  0  0
  186.0220  177.9950  137.3700 C   0  0  0  0  0  2  0  0  0  0  0  0
  187.2110  177.2110  137.8880 C   0  0  0  0  0  2  0  0  0  0  0  0
  188.6690  179.1140  138.2040 O   0  0  0  0  0  0  0  0  0  0  0  0
  189.5300  178.0900  138.5860 N   0  0  0  0  0  0  0  0  0  0  0  0
  188.5220  177.9320  137.5560 C   0  0  1  0  0  0  0  0  0  0  0  0
  189.4590  176.6940  142.0390 O   0  0  0  0  0  1  0  0  0  0  0  0
  189.0530  177.6040  139.8150 N   0  0  0  0  0  2  0  0  0  0  0  0
  189.9540  177.2280  140.8560 C   0  0  0  0  0  0  0  0  0  0  0  0
  191.1970  177.3630  140.7030 O   0  0  0  0  0  0  0  0  0  0  0  0
  188.9260  176.9960  135.4320 O   0  0  0  0  0  0  0  0  0  0  0  0
  189.0530  177.9660  136.1610 C   0  0  0  0  0  3  0  0  0  0  0  0
  181.2290  178.6290  141.7420 O   0  0  0  0  0  0  0  0  0  0  0  0
  180.5550  179.1020  140.5850 C   0  0  0  0  0  2  0  0  0  0  0  0
  180.0630  181.3170  139.8600 O   0  0  0  0  0  0  0  0  0  0  0  0
  180.0840  180.4960  140.8120 C   0  0  0  0  0  0  0  0  0  0  0  0
  179.6270  180.8910  142.1000 N   0  0  0  0  0  1  0  0  0  0  0  0
  1  9  1  0  0  0  0
  2  1  1  0  0  0  0
  3  2  2  0  0  0  0
  4  3  1  0  0  0  0
  4  6  2  0  0  0  0
  5  1  2  0  0  0  0
  6  5  1  0  0  0  0
  9 10  2  0  0  0  0
  9 11  1  0  0  0  0
 10 13  1  0  0  0  0
 11  8  2  0  0  0  0
 11  7  1  0  0  0  0
 12  7  1  0  0  0  0
 13 14  1  0  0  0  0
 13 12  2  0  0  0  0
 14 15  3  0  0  0  0
 15 16  1  0  0  0  0
 16 18  1  0  0  0  0
 18 17  1  0  0  0  0
 19  3  1  0  0  0  0
 20 19  1  0  0  0  0
 21 22  1  0  0  0  0
 21 20  1  0  0  0  0
 23 24  1  0  0  0  0
 24 27  1  0  0  0  0
 25 31  1  6  0  0  0
 25 22  1  0  0  0  0
 25 23  1  0  0  0  0
 25 24  1  0  0  0  0
 27 28  1  0  0  0  0
 28 26  1  0  0  0  0
 29 28  2  0  0  0  0
 30 31  2  0  0  0  0
 32  6  1  0  0  0  0
 33 35  1  0  0  0  0
 33 32  1  0  0  0  0
 34 35  2  0  0  0  0
 35 36  1  0  0  0  0
M  END
>  <MODEL>
2

>  <REMARK>
 VINA RESULT:      -8.1      2.275      7.267
  Name = 
  14 active torsions:
  status: ('A' for Active; 'I' for Inactive)
    1  A    between atoms: C_4  and  C_7
    2  A    between atoms: C_8  and  C_12
    3  A    between atoms: C_8  and  O_33
    4  A    between atoms: C_9  and  C_18
    5  A    between atoms: C_9  and  C_27
    6  A    between atoms: C_11  and  C_35
    7  A    between atoms: C_15  and  C_21
    8  A    between atoms: N_16  and  N_23
    9  A    between atoms: C_18  and  C_29
   10  A    between atoms: C_19  and  N_31
   11  A    between atoms: C_19  and  C_34
   12  A    between atoms: C_21  and  C_29
   13  A    between atoms: C_24  and  C_27
   14  A    between atoms: O_33  and  C_36
                            x       y       z     vdW  Elec       q    Type
                         _______ _______ _______ _____ _____    ______ ____

>  <TORSDO>
F 14

$$$$
=
 OpenBabel11032420133D

 36 38  0  0  1  0  0  0  0  0999 V2000
  184.6280  178.8740  142.5030 C   0  0  0  0  0  0  0  0  0  0  0  0
  185.4030  178.9480  143.6220 N   0  0  0  0  0  0  0  0  0  0  0  0
  184.8560  179.0180  144.8630 C   0  0  0  0  0  0  0  0  0  0  0  0
  183.5050  179.0040  145.0120 N   0  0  0  0  0  0  0  0  0  0  0  0
  183.2350  178.8570  142.6500 C   0  0  0  0  0  3  0  0  0  0  0  0
  182.6860  178.9240  143.9290 C   0  0  0  0  0  0  0  0  0  0  0  0
  185.3080  178.9990  138.7750 N   0  0  0  0  0  2  0  0  0  0  0  0
  183.4330  179.5090  139.9270 O   0  0  0  0  0  0  0  0  0  0  0  0
  185.2790  178.7940  141.1650 C   0  0  0  0  0  0  0  0  0  0  0  0
  186.6120  178.3700  141.0970 C   0  0  0  0  0  3  0  0  0  0  0  0
  184.6300  179.1140  139.9500 C   0  0  0  0  0  0  0  0  0  0  0  0
  186.5780  178.5900  138.7330 N   0  0  0  0  0  0  0  0  0  0  0  0
  187.2540  178.2710  139.8640 C   0  0  0  0  0  0  0  0  0  0  0  0
  188.6130  177.8170  139.7860 C   0  0  0  0  0  0  0  0  0  0  0  0
  189.7520  177.4330  139.7080 C   0  0  0  0  0  0  0  0  0  0  0  0
  191.1330  176.9630  139.5940 C   0  0  0  0  0  2  0  0  0  0  0  0
  193.3350  177.2880  140.2870 C   0  0  0  0  0  1  0  0  0  0  0  0
  191.9510  177.6050  140.6060 N   0  0  0  0  0  2  0  0  0  0  0  0
  185.7340  179.0720  146.0620 C   0  0  0  0  0  2  0  0  0  0  0  0
  186.5230  177.7840  146.1790 C   0  0  0  0  0  2  0  0  0  0  0  0
  187.9570  178.1040  146.5390 C   0  0  0  0  0  2  0  0  0  0  0  0
  188.8420  176.9270  146.1780 C   0  0  0  0  0  2  0  0  0  0  0  0
  190.3340  178.4240  145.0030 O   0  0  0  0  0  0  0  0  0  0  0  0
  191.1230  177.2780  145.0330 N   0  0  0  0  0  0  0  0  0  0  0  0
  189.6770  177.2400  144.9320 C   0  0  1  0  0  0  0  0  0  0  0  0
  192.5000  175.7280  148.1280 O   0  0  0  0  0  1  0  0  0  0  0  0
  191.5240  177.1020  146.3680 N   0  0  0  0  0  2  0  0  0  0  0  0
  192.1670  175.9000  146.7900 C   0  0  0  0  0  0  0  0  0  0  0  0
  192.4210  174.9880  145.9600 O   0  0  0  0  0  0  0  0  0  0  0  0
  188.2380  176.1630  143.4090 O   0  0  0  0  0  0  0  0  0  0  0  0
  189.1610  176.9460  143.5620 C   0  0  0  0  0  3  0  0  0  0  0  0
  181.2980  178.9020  144.0800 O   0  0  0  0  0  0  0  0  0  0  0  0
  180.4350  178.5000  143.0260 C   0  0  0  0  0  2  0  0  0  0  0  0
  179.9140  180.8160  142.8360 O   0  0  0  0  0  0  0  0  0  0  0  0
  179.9770  179.6960  142.2670 C   0  0  0  0  0  0  0  0  0  0  0  0
  179.6420  179.5790  140.8900 N   0  0  0  0  0  1  0  0  0  0  0  0
  1  5  2  0  0  0  0
  1  2  1  0  0  0  0
  2  3  2  0  0  0  0
  3  4  1  0  0  0  0
  3 19  1  0  0  0  0
  5  6  1  0  0  0  0
  6 32  1  0  0  0  0
  6  4  2  0  0  0  0
  7 11  1  0  0  0  0
  8 11  2  0  0  0  0
  9  1  1  0  0  0  0
 10  9  2  0  0  0  0
 11  9  1  0  0  0  0
 12  7  1  0  0  0  0
 12 13  2  0  0  0  0
 13 10  1  0  0  0  0
 14 13  1  0  0  0  0
 15 14  3  0  0  0  0
 16 15  1  0  0  0  0
 16 18  1  0  0  0  0
 17 18  1  0  0  0  0
 19 20  1  0  0  0  0
 20 21  1  0  0  0  0
 22 21  1  0  0  0  0
 23 24  1  0  0  0  0
 24 27  1  0  0  0  0
 25 31  1  6  0  0  0
 25 23  1  0  0  0  0
 25 24  1  0  0  0  0
 25 22  1  0  0  0  0
 27 28  1  0  0  0  0
 28 26  1  0  0  0  0
 29 28  2  0  0  0  0
 30 31  2  0  0  0  0
 33 32  1  0  0  0  0
 35 34  2  0  0  0  0
 35 33  1  0  0  0  0
 36 35  1  0  0  0  0
M  END
>  <MODEL>
3

>  <REMARK>
 VINA RESULT:      -8.0      2.431      8.994
  Name = 
  14 active torsions:
  status: ('A' for Active; 'I' for Inactive)
    1  A    between atoms: C_4  and  C_7
    2  A    between atoms: C_8  and  C_12
    3  A    between atoms: C_8  and  O_33
    4  A    between atoms: C_9  and  C_18
    5  A    between atoms: C_9  and  C_27
    6  A    between atoms: C_11  and  C_35
    7  A    between atoms: C_15  and  C_21
    8  A    between atoms: N_16  and  N_23
    9  A    between atoms: C_18  and  C_29
   10  A    between atoms: C_19  and  N_31
   11  A    between atoms: C_19  and  C_34
   12  A    between atoms: C_21  and  C_29
   13  A    between atoms: C_24  and  C_27
   14  A    between atoms: O_33  and  C_36
                            x       y       z     vdW  Elec       q    Type
                         _______ _______ _______ _____ _____    ______ ____

>  <TORSDO>
F 14

$$$$
=
 OpenBabel11032420133D

 36 38  0  0  1  0  0  0  0  0999 V2000
  187.7490  177.8060  144.6580 C   0  0  0  0  0  0  0  0  0  0  0  0
  187.8530  177.6000  143.3150 N   0  0  0  0  0  0  0  0  0  0  0  0
  189.0350  177.2630  142.7360 C   0  0  0  0  0  0  0  0  0  0  0  0
  190.1470  177.1110  143.5010 N   0  0  0  0  0  0  0  0  0  0  0  0
  188.8930  177.6490  145.4530 C   0  0  0  0  0  3  0  0  0  0  0  0
  190.0980  177.2980  144.8480 C   0  0  0  0  0  0  0  0  0  0  0  0
  184.9400  178.6240  147.0690 N   0  0  0  0  0  2  0  0  0  0  0  0
  187.1030  178.1180  147.4780 O   0  0  0  0  0  0  0  0  0  0  0  0
  186.4280  178.1700  145.2440 C   0  0  0  0  0  0  0  0  0  0  0  0
  185.3530  178.3930  144.3740 C   0  0  0  0  0  3  0  0  0  0  0  0
  186.1870  178.2980  146.6310 C   0  0  0  0  0  0  0  0  0  0  0  0
  183.9290  178.8300  146.2230 N   0  0  0  0  0  0  0  0  0  0  0  0
  184.0990  178.7250  144.8820 C   0  0  0  0  0  0  0  0  0  0  0  0
  182.9890  178.9350  143.9970 C   0  0  0  0  0  0  0  0  0  0  0  0
  182.0480  179.1100  143.2650 C   0  0  0  0  0  0  0  0  0  0  0  0
  180.8950  179.3250  142.3900 C   0  0  0  0  0  2  0  0  0  0  0  0
  179.2410  180.8420  141.7600 C   0  0  0  0  0  1  0  0  0  0  0  0
  180.1550  180.4900  142.8370 N   0  0  0  0  0  2  0  0  0  0  0  0
  189.1040  177.0220  141.2700 C   0  0  0  0  0  2  0  0  0  0  0  0
  188.5280  178.2100  140.5260 C   0  0  0  0  0  2  0  0  0  0  0  0
  189.1450  178.2870  139.1470 C   0  0  0  0  0  2  0  0  0  0  0  0
  188.8940  176.9870  138.4080 C   0  0  0  0  0  2  0  0  0  0  0  0
  188.4810  176.9540  136.0260 O   0  0  0  0  0  0  0  0  0  0  0  0
  187.4930  176.0710  136.4510 N   0  0  0  0  0  0  0  0  0  0  0  0
  187.9290  177.2070  137.2390 C   0  0  1  0  0  0  0  0  0  0  0  0
  188.1910  172.4890  137.1980 O   0  0  0  0  0  1  0  0  0  0  0  0
  188.1530  174.9030  136.8690 N   0  0  0  0  0  2  0  0  0  0  0  0
  187.5430  173.6220  136.7220 C   0  0  0  0  0  0  0  0  0  0  0  0
  186.4130  173.5130  136.1750 O   0  0  0  0  0  0  0  0  0  0  0  0
  187.3310  179.4220  136.7030 O   0  0  0  0  0  0  0  0  0  0  0  0
  186.9930  178.3690  137.2180 C   0  0  0  0  0  3  0  0  0  0  0  0
  191.2380  177.1340  145.6370 O   0  0  0  0  0  0  0  0  0  0  0  0
  191.1590  176.7180  146.9920 C   0  0  0  0  0  2  0  0  0  0  0  0
  192.6010  174.8930  146.4830 O   0  0  0  0  0  0  0  0  0  0  0  0
  192.2840  175.7940  147.3010 C   0  0  0  0  0  0  0  0  0  0  0  0
  193.0230  175.9510  148.5060 N   0  0  0  0  0  1  0  0  0  0  0  0
  1  9  1  0  0  0  0
  1  5  2  0  0  0  0
  2  1  1  0  0  0  0
  3  2  2  0  0  0  0
  3  4  1  0  0  0  0
  4  6  2  0  0  0  0
  6  5  1  0  0  0  0
  6 32  1  0  0  0  0
  9 11  1  0  0  0  0
 10 13  1  0  0  0  0
 10  9  2  0  0  0  0
 11  7  1  0  0  0  0
 11  8  2  0  0  0  0
 12  7  1  0  0  0  0
 13 12  2  0  0  0  0
 14 13  1  0  0  0  0
 15 14  3  0  0  0  0
 16 18  1  0  0  0  0
 16 15  1  0  0  0  0
 17 18  1  0  0  0  0
 19  3  1  0  0  0  0
 20 19  1  0  0  0  0
 21 20  1  0  0  0  0
 22 21  1  0  0  0  0
 23 24  1  0  0  0  0
 23 25  1  0  0  0  0
 24 27  1  0  0  0  0
 24 25  1  0  0  0  0
 25 31  1  1  0  0  0
 25 22  1  0  0  0  0
 28 27  1  0  0  0  0
 28 26  1  0  0  0  0
 29 28  2  0  0  0  0
 30 31  2  0  0  0  0
 32 33  1  0  0  0  0
 33 35  1  0  0  0  0
 34 35  2  0  0  0  0
 35 36  1  0  0  0  0
M  END
>  <MODEL>
4

>  <REMARK>
 VINA RESULT:      -7.9      1.723      2.527
  Name = 
  14 active torsions:
  status: ('A' for Active; 'I' for Inactive)
    1  A    between atoms: C_4  and  C_7
    2  A    between atoms: C_8  and  C_12
    3  A    between atoms: C_8  and  O_33
    4  A    between atoms: C_9  and  C_18
    5  A    between atoms: C_9  and  C_27
    6  A    between atoms: C_11  and  C_35
    7  A    between atoms: C_15  and  C_21
    8  A    between atoms: N_16  and  N_23
    9  A    between atoms: C_18  and  C_29
   10  A    between atoms: C_19  and  N_31
   11  A    between atoms: C_19  and  C_34
   12  A    between atoms: C_21  and  C_29
   13  A    between atoms: C_24  and  C_27
   14  A    between atoms: O_33  and  C_36
                            x       y       z     vdW  Elec       q    Type
                         _______ _______ _______ _____ _____    ______ ____

>  <TORSDO>
F 14

$$$$
=
 OpenBabel11032420133D

 36 38  0  0  1  0  0  0  0  0999 V2000
  187.5820  177.8000  144.3770 C   0  0  0  0  0  0  0  0  0  0  0  0
  187.7850  177.6860  143.0340 N   0  0  0  0  0  0  0  0  0  0  0  0
  188.9850  177.3020  142.5270 C   0  0  0  0  0  0  0  0  0  0  0  0
  190.0150  177.0080  143.3630 N   0  0  0  0  0  0  0  0  0  0  0  0
  188.6390  177.4970  145.2460 C   0  0  0  0  0  3  0  0  0  0  0  0
  189.8640  177.0990  144.7120 C   0  0  0  0  0  0  0  0  0  0  0  0
  184.7100  178.8810  146.6040 N   0  0  0  0  0  2  0  0  0  0  0  0
  186.8650  178.4460  147.1230 O   0  0  0  0  0  0  0  0  0  0  0  0
  186.2450  178.2210  144.8830 C   0  0  0  0  0  0  0  0  0  0  0  0
  185.1900  178.3290  143.9670 C   0  0  0  0  0  3  0  0  0  0  0  0
  185.9690  178.5140  146.2390 C   0  0  0  0  0  0  0  0  0  0  0  0
  183.7190  178.9750  145.7160 N   0  0  0  0  0  0  0  0  0  0  0  0
  183.9230  178.7100  144.4010 C   0  0  0  0  0  0  0  0  0  0  0  0
  182.8330  178.8020  143.4710 C   0  0  0  0  0  0  0  0  0  0  0  0
  181.9240  178.8690  142.6840 C   0  0  0  0  0  0  0  0  0  0  0  0
  180.8260  178.9350  141.7190 C   0  0  0  0  0  2  0  0  0  0  0  0
  179.4890  180.6830  142.4870 C   0  0  0  0  0  1  0  0  0  0  0  0
  179.5860  179.2330  142.4120 N   0  0  0  0  0  2  0  0  0  0  0  0
  189.1620  177.1650  141.0560 C   0  0  0  0  0  2  0  0  0  0  0  0
  190.6330  177.0130  140.7280 C   0  0  0  0  0  2  0  0  0  0  0  0
  190.8090  176.9470  139.2260 C   0  0  0  0  0  2  0  0  0  0  0  0
  192.2790  176.7680  138.8980 C   0  0  0  0  0  2  0  0  0  0  0  0
  193.3360  176.1270  136.8210 O   0  0  0  0  0  0  0  0  0  0  0  0
  193.7400  175.0680  137.6290 N   0  0  0  0  0  0  0  0  0  0  0  0
  192.4620  175.7360  137.7810 C   0  0  1  0  0  0  0  0  0  0  0  0
  196.4180  175.2730  140.2100 O   0  0  0  0  0  1  0  0  0  0  0  0
  194.6760  175.5920  138.5360 N   0  0  0  0  0  2  0  0  0  0  0  0
  195.5430  174.7330  139.2750 C   0  0  0  0  0  0  0  0  0  0  0  0
  195.5100  173.4870  139.0960 O   0  0  0  0  0  0  0  0  0  0  0  0
  190.9710  175.1160  136.0650 O   0  0  0  0  0  0  0  0  0  0  0  0
  191.3000  174.9780  137.2320 C   0  0  0  0  0  3  0  0  0  0  0  0
  190.9170  176.7900  145.5740 O   0  0  0  0  0  0  0  0  0  0  0  0
  190.7500  176.7610  146.9840 C   0  0  0  0  0  2  0  0  0  0  0  0
  192.4690  177.0580  148.6060 O   0  0  0  0  0  0  0  0  0  0  0  0
  192.0350  176.3860  147.6350 C   0  0  0  0  0  0  0  0  0  0  0  0
  192.7560  175.2480  147.1810 N   0  0  0  0  0  1  0  0  0  0  0  0
  1  9  1  0  0  0  0
  1  5  2  0  0  0  0
  2  1  1  0  0  0  0
  3  2  2  0  0  0  0
  3  4  1  0  0  0  0
  4  6  2  0  0  0  0
  6  5  1  0  0  0  0
  6 32  1  0  0  0  0
  9 11  1  0  0  0  0
 10 13  1  0  0  0  0
 10  9  2  0  0  0  0
 11  7  1  0  0  0  0
 11  8  2  0  0  0  0
 12  7  1  0  0  0  0
 13 12  2  0  0  0  0
 14 13  1  0  0  0  0
 15 14  3  0  0  0  0
 16 18  1  0  0  0  0
 16 15  1  0  0  0  0
 18 17  1  0  0  0  0
 19  3  1  0  0  0  0
 20 19  1  0  0  0  0
 21 20  1  0  0  0  0
 22 21  1  0  0  0  0
 23 24  1  0  0  0  0
 23 25  1  0  0  0  0
 24 25  1  0  0  0  0
 24 27  1  0  0  0  0
 25 31  1  6  0  0  0
 25 22  1  0  0  0  0
 27 28  1  0  0  0  0
 28 26  1  0  0  0  0
 29 28  2  0  0  0  0
 30 31  2  0  0  0  0
 32 33  1  0  0  0  0
 33 35  1  0  0  0  0
 35 34  2  0  0  0  0
 36 35  1  0  0  0  0
M  END
>  <MODEL>
5

>  <REMARK>
 VINA RESULT:      -7.7      2.975      4.437
  Name = 
  14 active torsions:
  status: ('A' for Active; 'I' for Inactive)
    1  A    between atoms: C_4  and  C_7
    2  A    between atoms: C_8  and  C_12
    3  A    between atoms: C_8  and  O_33
    4  A    between atoms: C_9  and  C_18
    5  A    between atoms: C_9  and  C_27
    6  A    between atoms: C_11  and  C_35
    7  A    between atoms: C_15  and  C_21
    8  A    between atoms: N_16  and  N_23
    9  A    between atoms: C_18  and  C_29
   10  A    between atoms: C_19  and  N_31
   11  A    between atoms: C_19  and  C_34
   12  A    between atoms: C_21  and  C_29
   13  A    between atoms: C_24  and  C_27
   14  A    between atoms: O_33  and  C_36
                            x       y       z     vdW  Elec       q    Type
                         _______ _______ _______ _____ _____    ______ ____

>  <TORSDO>
F 14

$$$$
=
 OpenBabel11032420133D

 36 38  0  0  1  0  0  0  0  0999 V2000
  187.0690  177.7780  143.2660 C   0  0  0  0  0  0  0  0  0  0  0  0
  187.2380  178.3260  142.0290 N   0  0  0  0  0  0  0  0  0  0  0  0
  188.2690  177.9580  141.2240 C   0  0  0  0  0  0  0  0  0  0  0  0
  189.1540  177.0150  141.6410 N   0  0  0  0  0  0  0  0  0  0  0  0
  187.9770  176.8030  143.7010 C   0  0  0  0  0  3  0  0  0  0  0  0
  189.0270  176.4310  142.8630 C   0  0  0  0  0  0  0  0  0  0  0  0
  184.8870  178.8150  146.1880 N   0  0  0  0  0  2  0  0  0  0  0  0
  187.0790  178.2740  146.1330 O   0  0  0  0  0  0  0  0  0  0  0  0
  185.9190  178.2130  144.1080 C   0  0  0  0  0  0  0  0  0  0  0  0
  184.6790  178.4150  143.4890 C   0  0  0  0  0  3  0  0  0  0  0  0
  185.9990  178.4290  145.5030 C   0  0  0  0  0  0  0  0  0  0  0  0
  183.7140  179.0000  145.5780 N   0  0  0  0  0  0  0  0  0  0  0  0
  183.5760  178.8110  144.2420 C   0  0  0  0  0  0  0  0  0  0  0  0
  182.2980  178.9990  143.6180 C   0  0  0  0  0  0  0  0  0  0  0  0
  181.2280  179.1710  143.0910 C   0  0  0  0  0  0  0  0  0  0  0  0
  179.9330  179.3960  142.4490 C   0  0  0  0  0  2  0  0  0  0  0  0
  180.4810  180.0740  140.2870 C   0  0  0  0  0  1  0  0  0  0  0  0
  180.0150  180.5550  141.5800 N   0  0  0  0  0  2  0  0  0  0  0  0
  188.4080  178.5600  139.8710 C   0  0  0  0  0  2  0  0  0  0  0  0
  187.2660  178.1020  138.9860 C   0  0  0  0  0  2  0  0  0  0  0  0
  187.7860  177.8400  137.5900 C   0  0  0  0  0  2  0  0  0  0  0  0
  189.2920  177.6700  137.6360 C   0  0  0  0  0  2  0  0  0  0  0  0
  190.8120  176.2080  136.4530 O   0  0  0  0  0  0  0  0  0  0  0  0
  190.9130  175.6700  137.7330 N   0  0  0  0  0  0  0  0  0  0  0  0
  189.6910  176.2520  137.2140 C   0  0  1  0  0  0  0  0  0  0  0  0
  193.6850  177.4300  139.4930 O   0  0  0  0  0  1  0  0  0  0  0  0
  191.6120  176.6110  138.5090 N   0  0  0  0  0  2  0  0  0  0  0  0
  193.0260  176.5220  138.6730 C   0  0  0  0  0  0  0  0  0  0  0  0
  193.6800  175.6180  138.0900 O   0  0  0  0  0  0  0  0  0  0  0  0
  188.4140  175.0950  135.6080 O   0  0  0  0  0  0  0  0  0  0  0  0
  188.6630  175.2550  136.7910 C   0  0  0  0  0  3  0  0  0  0  0  0
  189.9300  175.4570  143.2900 O   0  0  0  0  0  0  0  0  0  0  0  0
  191.3140  175.7340  143.4480 C   0  0  0  0  0  2  0  0  0  0  0  0
  191.4970  176.4370  145.7160 O   0  0  0  0  0  0  0  0  0  0  0  0
  191.5030  176.7670  144.5030 C   0  0  0  0  0  0  0  0  0  0  0  0
  191.7220  178.1240  144.1370 N   0  0  0  0  0  1  0  0  0  0  0  0
  1  5  2  0  0  0  0
  1  9  1  0  0  0  0
  2  1  1  0  0  0  0
  3  4  1  0  0  0  0
  3  2  2  0  0  0  0
  4  6  2  0  0  0  0
  6 32  1  0  0  0  0
  6  5  1  0  0  0  0
  9 11  1  0  0  0  0
 10  9  2  0  0  0  0
 10 13  1  0  0  0  0
 11  8  2  0  0  0  0
 11  7  1  0  0  0  0
 12  7  1  0  0  0  0
 13 12  2  0  0  0  0
 14 13  1  0  0  0  0
 15 14  3  0  0  0  0
 16 15  1  0  0  0  0
 17 18  1  0  0  0  0
 18 16  1  0  0  0  0
 19  3  1  0  0  0  0
 20 19  1  0  0  0  0
 21 22  1  0  0  0  0
 21 20  1  0  0  0  0
 23 25  1  0  0  0  0
 23 24  1  0  0  0  0
 24 27  1  0  0  0  0
 25 31  1  6  0  0  0
 25 22  1  0  0  0  0
 25 24  1  0  0  0  0
 27 28  1  0  0  0  0
 28 26  1  0  0  0  0
 29 28  2  0  0  0  0
 30 31  2  0  0  0  0
 32 33  1  0  0  0  0
 33 35  1  0  0  0  0
 35 34  2  0  0  0  0
 36 35  1  0  0  0  0
M  END
>  <MODEL>
6

>  <REMARK>
 VINA RESULT:      -7.7      2.407      3.403
  Name = 
  14 active torsions:
  status: ('A' for Active; 'I' for Inactive)
    1  A    between atoms: C_4  and  C_7
    2  A    between atoms: C_8  and  C_12
    3  A    between atoms: C_8  and  O_33
    4  A    between atoms: C_9  and  C_18
    5  A    between atoms: C_9  and  C_27
    6  A    between atoms: C_11  and  C_35
    7  A    between atoms: C_15  and  C_21
    8  A    between atoms: N_16  and  N_23
    9  A    between atoms: C_18  and  C_29
   10  A    between atoms: C_19  and  N_31
   11  A    between atoms: C_19  and  C_34
   12  A    between atoms: C_21  and  C_29
   13  A    between atoms: C_24  and  C_27
   14  A    between atoms: O_33  and  C_36
                            x       y       z     vdW  Elec       q    Type
                         _______ _______ _______ _____ _____    ______ ____

>  <TORSDO>
F 14

$$$$
=
 OpenBabel11032420133D

 36 38  0  0  1  0  0  0  0  0999 V2000
  185.3160  178.4860  143.2980 C   0  0  0  0  0  0  0  0  0  0  0  0
  184.0050  178.5030  142.9270 N   0  0  0  0  0  0  0  0  0  0  0  0
  183.6360  178.5840  141.6220 C   0  0  0  0  0  0  0  0  0  0  0  0
  184.5830  178.6380  140.6500 N   0  0  0  0  0  0  0  0  0  0  0  0
  186.2990  178.5400  142.3000 C   0  0  0  0  0  3  0  0  0  0  0  0
  185.9070  178.6180  140.9650 C   0  0  0  0  0  0  0  0  0  0  0  0
  185.2020  178.6210  147.0850 N   0  0  0  0  0  2  0  0  0  0  0  0
  183.6100  179.1310  145.5660 O   0  0  0  0  0  0  0  0  0  0  0  0
  185.6670  178.3920  144.7430 C   0  0  0  0  0  0  0  0  0  0  0  0
  186.9500  177.9510  145.0890 C   0  0  0  0  0  3  0  0  0  0  0  0
  184.7840  178.7310  145.7940 C   0  0  0  0  0  0  0  0  0  0  0  0
  186.4310  178.2010  147.3930 N   0  0  0  0  0  0  0  0  0  0  0  0
  187.3220  177.8590  146.4290 C   0  0  0  0  0  0  0  0  0  0  0  0
  188.6420  177.4270  146.7890 C   0  0  0  0  0  0  0  0  0  0  0  0
  189.7560  177.0750  147.0850 C   0  0  0  0  0  0  0  0  0  0  0  0
  191.1150  176.6620  147.4350 C   0  0  0  0  0  2  0  0  0  0  0  0
  191.6570  177.1280  145.2160 C   0  0  0  0  0  1  0  0  0  0  0  0
  191.7780  176.1230  146.2620 N   0  0  0  0  0  2  0  0  0  0  0  0
  182.1950  178.5740  141.2530 C   0  0  0  0  0  2  0  0  0  0  0  0
  182.0360  178.1280  139.8140 C   0  0  0  0  0  2  0  0  0  0  0  0
  181.1890  176.8750  139.7670 C   0  0  0  0  0  2  0  0  0  0  0  0
  182.0440  175.7060  139.3150 C   0  0  0  0  0  2  0  0  0  0  0  0
  181.3850  175.2810  137.0270 O   0  0  0  0  0  0  0  0  0  0  0  0
  182.0260  174.0790  137.3180 N   0  0  0  0  0  0  0  0  0  0  0  0
  181.2840  174.8390  138.3050 C   0  0  1  0  0  0  0  0  0  0  0  0
  185.7160  173.6340  137.5660 O   0  0  0  0  0  1  0  0  0  0  0  0
  183.3980  174.3690  137.4070 N   0  0  0  0  0  2  0  0  0  0  0  0
  184.3690  173.3240  137.4160 C   0  0  0  0  0  0  0  0  0  0  0  0
  184.0140  172.1210  137.3040 O   0  0  0  0  0  0  0  0  0  0  0  0
  179.7350  173.7230  139.6860 O   0  0  0  0  0  0  0  0  0  0  0  0
  179.9340  174.2880  138.6230 C   0  0  0  0  0  3  0  0  0  0  0  0
  186.8820  178.6650  139.9680 O   0  0  0  0  0  0  0  0  0  0  0  0
  188.1890  178.1470  140.1700 C   0  0  0  0  0  2  0  0  0  0  0  0
  188.8600  179.2810  138.1870 O   0  0  0  0  0  0  0  0  0  0  0  0
  188.9750  178.2600  138.9120 C   0  0  0  0  0  0  0  0  0  0  0  0
  189.8810  177.2270  138.5450 N   0  0  0  0  0  1  0  0  0  0  0  0
  1  9  1  0  0  0  0
  2  1  1  0  0  0  0
  3  2  2  0  0  0  0
  4  6  2  0  0  0  0
  4  3  1  0  0  0  0
  5  1  2  0  0  0  0
  6  5  1  0  0  0  0
  7 12  1  0  0  0  0
  8 11  2  0  0  0  0
  9 10  2  0  0  0  0
  9 11  1  0  0  0  0
 10 13  1  0  0  0  0
 11  7  1  0  0  0  0
 13 14  1  0  0  0  0
 13 12  2  0  0  0  0
 14 15  3  0  0  0  0
 15 16  1  0  0  0  0
 17 18  1  0  0  0  0
 18 16  1  0  0  0  0
 19  3  1  0  0  0  0
 20 19  1  0  0  0  0
 21 20  1  0  0  0  0
 22 21  1  0  0  0  0
 23 24  1  0  0  0  0
 23 25  1  0  0  0  0
 24 27  1  0  0  0  0
 24 25  1  0  0  0  0
 25 31  1  1  0  0  0
 25 22  1  0  0  0  0
 27 28  1  0  0  0  0
 28 26  1  0  0  0  0
 29 28  2  0  0  0  0
 31 30  2  0  0  0  0
 32 33  1  0  0  0  0
 32  6  1  0  0  0  0
 34 35  2  0  0  0  0
 35 33  1  0  0  0  0
 36 35  1  0  0  0  0
M  END
>  <MODEL>
7

>  <REMARK>
 VINA RESULT:      -7.6      3.062      7.105
  Name = 
  14 active torsions:
  status: ('A' for Active; 'I' for Inactive)
    1  A    between atoms: C_4  and  C_7
    2  A    between atoms: C_8  and  C_12
    3  A    between atoms: C_8  and  O_33
    4  A    between atoms: C_9  and  C_18
    5  A    between atoms: C_9  and  C_27
    6  A    between atoms: C_11  and  C_35
    7  A    between atoms: C_15  and  C_21
    8  A    between atoms: N_16  and  N_23
    9  A    between atoms: C_18  and  C_29
   10  A    between atoms: C_19  and  N_31
   11  A    between atoms: C_19  and  C_34
   12  A    between atoms: C_21  and  C_29
   13  A    between atoms: C_24  and  C_27
   14  A    between atoms: O_33  and  C_36
                            x       y       z     vdW  Elec       q    Type
                         _______ _______ _______ _____ _____    ______ ____

>  <TORSDO>
F 14

$$$$
=
 OpenBabel11032420133D

 36 38  0  0  1  0  0  0  0  0999 V2000
  189.2980  177.3290  139.8300 C   0  0  0  0  0  0  0  0  0  0  0  0
  189.7150  176.7790  141.0050 N   0  0  0  0  0  0  0  0  0  0  0  0
  189.1150  177.0830  142.1860 C   0  0  0  0  0  0  0  0  0  0  0  0
  188.0650  177.9450  142.2120 N   0  0  0  0  0  0  0  0  0  0  0  0
  188.2140  178.2180  139.8500 C   0  0  0  0  0  3  0  0  0  0  0  0
  187.6040  178.5170  141.0670 C   0  0  0  0  0  0  0  0  0  0  0  0
  190.1660  176.8270  136.1740 N   0  0  0  0  0  2  0  0  0  0  0  0
  188.3580  177.7990  137.1160 O   0  0  0  0  0  0  0  0  0  0  0  0
  189.9880  176.9590  138.5620 C   0  0  0  0  0  0  0  0  0  0  0  0
  191.2270  176.3110  138.6430 C   0  0  0  0  0  3  0  0  0  0  0  0
  189.4640  177.2150  137.2740 C   0  0  0  0  0  0  0  0  0  0  0  0
  191.3450  176.2080  136.2740 N   0  0  0  0  0  0  0  0  0  0  0  0
  191.8990  175.9380  137.4810 C   0  0  0  0  0  0  0  0  0  0  0  0
  193.1590  175.2550  137.5580 C   0  0  0  0  0  0  0  0  0  0  0  0
  194.2230  174.6930  137.6260 C   0  0  0  0  0  0  0  0  0  0  0  0
  195.5220  174.0260  137.7150 C   0  0  0  0  0  2  0  0  0  0  0  0
  195.9720  174.8770  139.8380 C   0  0  0  0  0  1  0  0  0  0  0  0
  195.7790  173.6430  139.0900 N   0  0  0  0  0  2  0  0  0  0  0  0
  189.5810  176.4430  143.4450 C   0  0  0  0  0  2  0  0  0  0  0  0
  190.9290  175.7880  143.2190 C   0  0  0  0  0  2  0  0  0  0  0  0
  191.7150  175.7980  144.5120 C   0  0  0  0  0  2  0  0  0  0  0  0
  191.2240  176.9310  145.3920 C   0  0  0  0  0  2  0  0  0  0  0  0
  190.9970  177.5440  147.7200 O   0  0  0  0  0  0  0  0  0  0  0  0
  190.0220  176.5540  147.6390 N   0  0  0  0  0  0  0  0  0  0  0  0
  191.2490  176.5200  146.8680 C   0  0  1  0  0  0  0  0  0  0  0  0
  186.8400  178.2480  146.7020 O   0  0  0  0  0  0  0  0  0  0  0  0
  188.9740  177.0860  146.8680 N   0  0  0  0  0  2  0  0  0  0  0  0
  187.8930  177.7850  147.4810 C   0  0  0  0  0  0  0  0  0  0  0  0
  187.8790  177.9720  148.7270 O   0  0  0  0  0  1  0  0  0  0  0  0
  193.1510  175.9690  148.1440 O   0  0  0  0  0  0  0  0  0  0  0  0
  192.2800  175.5730  147.3880 C   0  0  0  0  0  3  0  0  0  0  0  0
  186.5210  179.3970  141.0910 O   0  0  0  0  0  0  0  0  0  0  0  0
  185.2380  178.9960  141.5460 C   0  0  0  0  0  2  0  0  0  0  0  0
  183.2150  178.3190  140.4860 O   0  0  0  0  0  0  0  0  0  0  0  0
  184.2810  178.9830  140.4060 C   0  0  0  0  0  0  0  0  0  0  0  0
  184.5560  179.7460  139.2380 N   0  0  0  0  0  1  0  0  0  0  0  0
  1  5  2  0  0  0  0
  1  2  1  0  0  0  0
  2  3  2  0  0  0  0
  3  4  1  0  0  0  0
  3 19  1  0  0  0  0
  5  6  1  0  0  0  0
  6 32  1  0  0  0  0
  6  4  2  0  0  0  0
  7 12  1  0  0  0  0
  7 11  1  0  0  0  0
  8 11  2  0  0  0  0
  9 10  2  0  0  0  0
  9  1  1  0  0  0  0
 11  9  1  0  0  0  0
 12 13  2  0  0  0  0
 13 14  1  0  0  0  0
 13 10  1  0  0  0  0
 14 15  3  0  0  0  0
 15 16  1  0  0  0  0
 16 18  1  0  0  0  0
 18 17  1  0  0  0  0
 20 19  1  0  0  0  0
 20 21  1  0  0  0  0
 21 22  1  0  0  0  0
 24 23  1  0  0  0  0
 25 22  1  6  0  0  0
 25 31  1  0  0  0  0
 25 24  1  0  0  0  0
 25 23  1  0  0  0  0
 26 28  2  0  0  0  0
 27 28  1  0  0  0  0
 27 24  1  0  0  0  0
 28 29  1  0  0  0  0
 31 30  2  0  0  0  0
 32 33  1  0  0  0  0
 35 34  2  0  0  0  0
 35 33  1  0  0  0  0
 36 35  1  0  0  0  0
M  END
>  <MODEL>
8

>  <REMARK>
 VINA RESULT:      -7.5      2.983     10.057
  Name = 
  14 active torsions:
  status: ('A' for Active; 'I' for Inactive)
    1  A    between atoms: C_4  and  C_7
    2  A    between atoms: C_8  and  C_12
    3  A    between atoms: C_8  and  O_33
    4  A    between atoms: C_9  and  C_18
    5  A    between atoms: C_9  and  C_27
    6  A    between atoms: C_11  and  C_35
    7  A    between atoms: C_15  and  C_21
    8  A    between atoms: N_16  and  N_23
    9  A    between atoms: C_18  and  C_29
   10  A    between atoms: C_19  and  N_31
   11  A    between atoms: C_19  and  C_34
   12  A    between atoms: C_21  and  C_29
   13  A    between atoms: C_24  and  C_27
   14  A    between atoms: O_33  and  C_36
                            x       y       z     vdW  Elec       q    Type
                         _______ _______ _______ _____ _____    ______ ____

>  <TORSDO>
F 14

$$$$
=
 OpenBabel11032420133D

 36 38  0  0  1  0  0  0  0  0999 V2000
  188.9080  177.3890  143.6900 C   0  0  0  0  0  0  0  0  0  0  0  0
  187.5760  177.6200  143.8610 N   0  0  0  0  0  0  0  0  0  0  0  0
  187.0000  177.5870  145.0910 C   0  0  0  0  0  0  0  0  0  0  0  0
  187.7580  177.3310  146.1890 N   0  0  0  0  0  0  0  0  0  0  0  0
  189.6960  177.1250  144.8190 C   0  0  0  0  0  3  0  0  0  0  0  0
  189.0940  177.0990  146.0760 C   0  0  0  0  0  0  0  0  0  0  0  0
  191.3130  177.4630  140.7600 N   0  0  0  0  0  2  0  0  0  0  0  0
  191.7270  177.2970  142.9740 O   0  0  0  0  0  0  0  0  0  0  0  0
  189.4910  177.4410  142.3190 C   0  0  0  0  0  0  0  0  0  0  0  0
  188.6180  177.5480  141.2290 C   0  0  0  0  0  3  0  0  0  0  0  0
  190.8780  177.3980  142.0480 C   0  0  0  0  0  0  0  0  0  0  0  0
  190.4640  177.5670  139.7350 N   0  0  0  0  0  0  0  0  0  0  0  0
  189.1230  177.6100  139.9320 C   0  0  0  0  0  0  0  0  0  0  0  0
  188.2360  177.7410  138.8120 C   0  0  0  0  0  0  0  0  0  0  0  0
  187.4810  177.8430  137.8780 C   0  0  0  0  0  0  0  0  0  0  0  0
  186.5510  177.9610  136.7550 C   0  0  0  0  0  2  0  0  0  0  0  0
  185.3130  176.0100  137.0640 C   0  0  0  0  0  1  0  0  0  0  0  0
  185.2470  177.4620  137.1480 N   0  0  0  0  0  2  0  0  0  0  0  0
  185.5480  177.8700  145.2420 C   0  0  0  0  0  2  0  0  0  0  0  0
  185.3010  179.3610  145.1380 C   0  0  0  0  0  2  0  0  0  0  0  0
  184.6460  179.6710  143.8100 C   0  0  0  0  0  2  0  0  0  0  0  0
  184.1100  178.3900  143.2010 C   0  0  0  0  0  2  0  0  0  0  0  0
  183.3810  177.4690  141.0880 O   0  0  0  0  0  0  0  0  0  0  0  0
  182.7100  178.6880  141.0590 N   0  0  0  0  0  0  0  0  0  0  0  0
  184.0100  178.5150  141.6770 C   0  0  1  0  0  0  0  0  0  0  0  0
  179.3700  178.2020  142.6350 O   0  0  0  0  0  1  0  0  0  0  0  0
  181.6940  178.6090  142.0260 N   0  0  0  0  0  2  0  0  0  0  0  0
  180.3700  178.2150  141.6700 C   0  0  0  0  0  0  0  0  0  0  0  0
  180.0980  177.8920  140.4840 O   0  0  0  0  0  0  0  0  0  0  0  0
  184.9450  179.6780  139.8540 O   0  0  0  0  0  0  0  0  0  0  0  0
  185.1530  179.0350  140.8690 C   0  0  0  0  0  3  0  0  0  0  0  0
  189.8760  176.8430  147.2030 O   0  0  0  0  0  0  0  0  0  0  0  0
  191.2570  177.1710  147.2490 C   0  0  0  0  0  2  0  0  0  0  0  0
  192.0940  175.1070  146.4060 O   0  0  0  0  0  0  0  0  0  0  0  0
  192.0660  175.9260  147.3600 C   0  0  0  0  0  0  0  0  0  0  0  0
  192.8330  175.6790  148.5320 N   0  0  0  0  0  1  0  0  0  0  0  0
  1  2  1  0  0  0  0
  1  5  2  0  0  0  0
  2  3  2  0  0  0  0
  3 19  1  0  0  0  0
  3  4  1  0  0  0  0
  5  6  1  0  0  0  0
  6  4  2  0  0  0  0
  6 32  1  0  0  0  0
  7 11  1  0  0  0  0
  9  1  1  0  0  0  0
 10  9  2  0  0  0  0
 11  9  1  0  0  0  0
 11  8  2  0  0  0  0
 12 13  2  0  0  0  0
 12  7  1  0  0  0  0
 13 10  1  0  0  0  0
 14 13  1  0  0  0  0
 15 14  3  0  0  0  0
 16 18  1  0  0  0  0
 16 15  1  0  0  0  0
 17 18  1  0  0  0  0
 20 19  1  0  0  0  0
 21 20  1  0  0  0  0
 22 21  1  0  0  0  0
 23 25  1  0  0  0  0
 24 23  1  0  0  0  0
 24 25  1  0  0  0  0
 24 27  1  0  0  0  0
 25 31  1  6  0  0  0
 25 22  1  0  0  0  0
 28 27  1  0  0  0  0
 28 26  1  0  0  0  0
 29 28  2  0  0  0  0
 30 31  2  0  0  0  0
 32 33  1  0  0  0  0
 33 35  1  0  0  0  0
 34 35  2  0  0  0  0
 35 36  1  0  0  0  0
M  END
>  <MODEL>
9

>  <REMARK>
 VINA RESULT:      -7.5      2.206      5.758
  Name = 
  14 active torsions:
  status: ('A' for Active; 'I' for Inactive)
    1  A    between atoms: C_4  and  C_7
    2  A    between atoms: C_8  and  C_12
    3  A    between atoms: C_8  and  O_33
    4  A    between atoms: C_9  and  C_18
    5  A    between atoms: C_9  and  C_27
    6  A    between atoms: C_11  and  C_35
    7  A    between atoms: C_15  and  C_21
    8  A    between atoms: N_16  and  N_23
    9  A    between atoms: C_18  and  C_29
   10  A    between atoms: C_19  and  N_31
   11  A    between atoms: C_19  and  C_34
   12  A    between atoms: C_21  and  C_29
   13  A    between atoms: C_24  and  C_27
   14  A    between atoms: O_33  and  C_36
                            x       y       z     vdW  Elec       q    Type
                         _______ _______ _______ _____ _____    ______ ____

>  <TORSDO>
F 14

$$$$
