=
 OpenBabel11032419163D

 30 32  0  0  1  0  0  0  0  0999 V2000
  188.1530  178.5970  141.4170 C   0  0  1  0  0  3  0  0  0  0  0  0
  186.9510  178.2320  142.1480 N   0  0  0  0  0  2  0  0  0  0  0  0
  185.8250  178.8860  141.5050 C   0  0  0  0  0  2  0  0  0  0  0  0
  184.5920  178.7140  142.3670 C   0  0  0  0  0  2  0  0  0  0  0  0
  183.7320  178.9400  144.6760 C   0  0  0  0  0  1  0  0  0  0  0  0
  184.8100  179.3840  143.7090 C   0  0  0  0  0  2  0  0  0  0  0  0
  189.3640  177.9450  142.0770 C   0  0  0  0  0  2  0  0  0  0  0  0
  188.9570  177.1230  143.1660 O   0  0  0  0  0  0  0  0  0  0  0  0
  188.8770  177.4260  145.6460 C   0  0  0  0  0  0  0  0  0  0  0  0
  187.5220  177.7920  145.6840 C   0  0  0  0  0  3  0  0  0  0  0  0
  190.8970  176.9690  146.8720 N   0  0  0  0  0  0  0  0  0  0  0  0
  188.9610  177.6590  148.0750 C   0  0  0  0  0  3  0  0  0  0  0  0
  187.6180  178.0410  148.0880 C   0  0  0  0  0  3  0  0  0  0  0  0
  190.8890  176.7150  144.4990 C   0  0  0  0  0  3  0  0  0  0  0  0
  189.5920  177.3450  146.8680 C   0  0  0  0  0  0  0  0  0  0  0  0
  191.5510  176.6550  145.7260 C   0  0  0  0  0  3  0  0  0  0  0  0
  186.8970  178.1020  146.8930 C   0  0  0  0  0  3  0  0  0  0  0  0
  189.5490  177.1030  144.4380 C   0  0  0  0  0  0  0  0  0  0  0  0
  188.0260  178.1650  139.9590 C   0  0  0  0  0  2  0  0  0  0  0  0
  188.8450  178.9530  139.1470 O   0  0  0  0  0  0  0  0  0  0  0  0
  188.6810  178.4320  137.8620 C   0  0  0  0  0  2  0  0  0  0  0  0
  188.3450  176.9550  137.9450 C   0  0  0  0  0  2  0  0  0  0  0  0
  189.3160  176.1810  137.1860 N   0  0  0  0  0  0  0  0  0  0  0  0
  190.4900  175.6340  137.8170 C   0  0  0  0  0  0  0  0  0  0  0  0
  189.0740  175.9730  135.7590 C   0  0  0  0  0  2  0  0  0  0  0  0
  192.7270  174.5110  137.5860 C   0  0  0  0  0  1  0  0  0  0  0  0
  190.6750  175.7820  139.0560 O   0  0  0  0  0  0  0  0  0  0  0  0
  191.4590  174.9400  137.0170 N   0  0  0  0  0  0  0  0  0  0  0  0
  190.3860  175.8110  134.9950 C   0  0  0  0  0  2  0  0  0  0  0  0
  191.1890  174.6690  135.6100 C   0  0  0  0  0  2  0  0  0  0  0  0
  1 19  1  6  0  0  0
  1  7  1  0  0  0  0
  1  2  1  0  0  0  0
  3  2  1  0  0  0  0
  3  4  1  0  0  0  0
  4  6  1  0  0  0  0
  6  5  1  0  0  0  0
  7  8  1  0  0  0  0
  8 18  1  0  0  0  0
  9 10  2  0  0  0  0
  9 15  1  0  0  0  0
 10 17  1  0  0  0  0
 12 13  1  0  0  0  0
 14 16  1  0  0  0  0
 15 11  1  0  0  0  0
 15 12  2  0  0  0  0
 16 11  2  0  0  0  0
 17 13  2  0  0  0  0
 18 14  2  0  0  0  0
 18  9  1  0  0  0  0
 20 19  1  0  0  0  0
 21 22  1  0  0  0  0
 21 20  1  0  0  0  0
 23 24  1  0  0  0  0
 23 22  1  0  0  0  0
 24 27  2  0  0  0  0
 25 23  1  0  0  0  0
 28 26  1  0  0  0  0
 28 24  1  0  0  0  0
 29 30  1  0  0  0  0
 29 25  1  0  0  0  0
 30 28  1  0  0  0  0
M  END
>  <MODEL>
1

>  <REMARK>
 VINA RESULT:      -7.6      0.000      0.000
  Name = 
  12 active torsions:
  status: ('A' for Active; 'I' for Inactive)
    1  A    between atoms: C_3  and  N_19
    2  A    between atoms: C_3  and  C_20
    3  A    between atoms: N_4  and  C_24
    4  A    between atoms: O_5  and  C_13
    5  A    between atoms: O_5  and  C_26
    6  A    between atoms: C_10  and  N_19
    7  A    between atoms: C_10  and  C_22
    8  A    between atoms: C_10  and  C_26
    9  A    between atoms: C_13  and  C_24
   10  A    between atoms: C_18  and  C_20
   11  A    between atoms: C_22  and  O_29
   12  A    between atoms: O_29  and  C_30
                            x       y       z     vdW  Elec       q    Type
                         _______ _______ _______ _____ _____    ______ ____

>  <TORSDO>
F 12

$$$$
=
 OpenBabel11032419163D

 30 32  0  0  1  0  0  0  0  0999 V2000
  189.2550  176.4280  143.9110 C   0  0  1  0  0  3  0  0  0  0  0  0
  189.6110  177.5960  144.6980 N   0  0  0  0  0  2  0  0  0  0  0  0
  190.3990  177.1460  145.8310 C   0  0  0  0  0  2  0  0  0  0  0  0
  189.4750  176.8560  146.9950 C   0  0  0  0  0  2  0  0  0  0  0  0
  188.1580  177.8720  148.8260 C   0  0  0  0  0  1  0  0  0  0  0  0
  189.1980  178.1360  147.7570 C   0  0  0  0  0  2  0  0  0  0  0  0
  187.7810  176.5070  143.5250 C   0  0  0  0  0  2  0  0  0  0  0  0
  187.2890  177.8320  143.6990 O   0  0  0  0  0  0  0  0  0  0  0  0
  184.8580  178.4110  143.7070 C   0  0  0  0  0  0  0  0  0  0  0  0
  184.6970  178.2960  142.3170 C   0  0  0  0  0  3  0  0  0  0  0  0
  183.8370  178.8300  145.8470 N   0  0  0  0  0  0  0  0  0  0  0  0
  182.4880  178.9730  143.8900 C   0  0  0  0  0  3  0  0  0  0  0  0
  182.3560  178.8740  142.5040 C   0  0  0  0  0  3  0  0  0  0  0  0
  186.1580  178.2820  145.7470 C   0  0  0  0  0  3  0  0  0  0  0  0
  183.7260  178.7370  144.4960 C   0  0  0  0  0  0  0  0  0  0  0  0
  185.0180  178.6110  146.4800 C   0  0  0  0  0  3  0  0  0  0  0  0
  183.4580  178.5300  141.7180 C   0  0  0  0  0  3  0  0  0  0  0  0
  186.0990  178.1810  144.3560 C   0  0  0  0  0  0  0  0  0  0  0  0
  190.1400  176.3460  142.6710 C   0  0  0  0  0  2  0  0  0  0  0  0
  190.5430  177.6240  142.2780 O   0  0  0  0  0  0  0  0  0  0  0  0
  190.6580  177.5520  140.8890 C   0  0  0  0  0  2  0  0  0  0  0  0
  189.4440  176.8510  140.3080 C   0  0  0  0  0  2  0  0  0  0  0  0
  189.3630  177.1020  138.8760 N   0  0  0  0  0  0  0  0  0  0  0  0
  190.0310  176.2460  137.9300 C   0  0  0  0  0  0  0  0  0  0  0  0
  188.5860  178.2520  138.4180 C   0  0  0  0  0  2  0  0  0  0  0  0
  190.7760  175.8250  135.5670 C   0  0  0  0  0  1  0  0  0  0  0  0
  190.6680  175.2320  138.3280 O   0  0  0  0  0  0  0  0  0  0  0  0
  189.9870  176.5720  136.5340 N   0  0  0  0  0  0  0  0  0  0  0  0
  189.1310  178.7960  137.1000 C   0  0  0  0  0  2  0  0  0  0  0  0
  189.1560  177.6760  136.0650 C   0  0  0  0  0  2  0  0  0  0  0  0
  1 19  1  6  0  0  0
  1  2  1  0  0  0  0
  2  3  1  0  0  0  0
  3  4  1  0  0  0  0
  4  6  1  0  0  0  0
  6  5  1  0  0  0  0
  7  8  1  0  0  0  0
  7  1  1  0  0  0  0
  8 18  1  0  0  0  0
  9 18  2  0  0  0  0
  9 15  1  0  0  0  0
 10  9  1  0  0  0  0
 11 16  1  0  0  0  0
 12 15  1  0  0  0  0
 13 12  2  0  0  0  0
 14 16  2  0  0  0  0
 15 11  2  0  0  0  0
 17 10  2  0  0  0  0
 17 13  1  0  0  0  0
 18 14  1  0  0  0  0
 20 19  1  0  0  0  0
 21 20  1  0  0  0  0
 22 21  1  0  0  0  0
 23 22  1  0  0  0  0
 24 27  2  0  0  0  0
 24 23  1  0  0  0  0
 25 23  1  0  0  0  0
 26 28  1  0  0  0  0
 28 24  1  0  0  0  0
 29 25  1  0  0  0  0
 30 28  1  0  0  0  0
 30 29  1  0  0  0  0
M  END
>  <MODEL>
2

>  <REMARK>
 VINA RESULT:      -7.6      1.742      4.819
  Name = 
  12 active torsions:
  status: ('A' for Active; 'I' for Inactive)
    1  A    between atoms: C_3  and  N_19
    2  A    between atoms: C_3  and  C_20
    3  A    between atoms: N_4  and  C_24
    4  A    between atoms: O_5  and  C_13
    5  A    between atoms: O_5  and  C_26
    6  A    between atoms: C_10  and  N_19
    7  A    between atoms: C_10  and  C_22
    8  A    between atoms: C_10  and  C_26
    9  A    between atoms: C_13  and  C_24
   10  A    between atoms: C_18  and  C_20
   11  A    between atoms: C_22  and  O_29
   12  A    between atoms: O_29  and  C_30
                            x       y       z     vdW  Elec       q    Type
                         _______ _______ _______ _____ _____    ______ ____

>  <TORSDO>
F 12

$$$$
=
 OpenBabel11032419163D

 30 32  0  0  1  0  0  0  0  0999 V2000
  190.0630  176.5640  142.3970 C   0  0  1  0  0  3  0  0  0  0  0  0
  190.9170  177.3740  143.2500 N   0  0  0  0  0  2  0  0  0  0  0  0
  191.3840  176.5340  144.3370 C   0  0  0  0  0  2  0  0  0  0  0  0
  191.4750  177.3620  145.6020 C   0  0  0  0  0  2  0  0  0  0  0  0
  192.2740  175.6880  147.2380 C   0  0  0  0  0  1  0  0  0  0  0  0
  191.0850  176.5150  146.7960 C   0  0  0  0  0  2  0  0  0  0  0  0
  188.8460  176.1020  143.1930 C   0  0  0  0  0  2  0  0  0  0  0  0
  187.7930  177.0560  143.0940 O   0  0  0  0  0  0  0  0  0  0  0  0
  185.7260  178.0830  144.0530 C   0  0  0  0  0  0  0  0  0  0  0  0
  185.0450  178.1620  142.8270 C   0  0  0  0  0  3  0  0  0  0  0  0
  185.6810  178.4400  146.4330 N   0  0  0  0  0  0  0  0  0  0  0  0
  183.7750  179.0620  145.1480 C   0  0  0  0  0  3  0  0  0  0  0  0
  183.1250  179.1500  143.9160 C   0  0  0  0  0  3  0  0  0  0  0  0
  187.6210  177.4740  145.4330 C   0  0  0  0  0  3  0  0  0  0  0  0
  185.0640  178.5260  145.2260 C   0  0  0  0  0  0  0  0  0  0  0  0
  186.9310  177.9270  146.5580 C   0  0  0  0  0  3  0  0  0  0  0  0
  183.7570  178.6960  142.7570 C   0  0  0  0  0  3  0  0  0  0  0  0
  187.0350  177.5470  144.1680 C   0  0  0  0  0  0  0  0  0  0  0  0
  189.6420  177.3670  141.1710 C   0  0  0  0  0  2  0  0  0  0  0  0
  190.6880  177.4270  140.2470 O   0  0  0  0  0  0  0  0  0  0  0  0
  190.0840  177.2040  139.0080 C   0  0  0  0  0  2  0  0  0  0  0  0
  189.3480  178.4530  138.5620 C   0  0  0  0  0  2  0  0  0  0  0  0
  188.1940  178.0880  137.7520 N   0  0  0  0  0  0  0  0  0  0  0  0
  186.8590  178.1380  138.2910 C   0  0  0  0  0  0  0  0  0  0  0  0
  188.4230  177.6620  136.3730 C   0  0  0  0  0  2  0  0  0  0  0  0
  184.4200  177.5860  138.0410 C   0  0  0  0  0  1  0  0  0  0  0  0
  186.6620  178.5430  139.4700 O   0  0  0  0  0  0  0  0  0  0  0  0
  185.7590  177.6980  137.4830 N   0  0  0  0  0  0  0  0  0  0  0  0
  187.3410  176.6910  135.9080 C   0  0  0  0  0  2  0  0  0  0  0  0
  185.9720  177.3410  136.0850 C   0  0  0  0  0  2  0  0  0  0  0  0
  1 19  1  6  0  0  0
  1  7  1  0  0  0  0
  1  2  1  0  0  0  0
  2  3  1  0  0  0  0
  3  4  1  0  0  0  0
  4  6  1  0  0  0  0
  6  5  1  0  0  0  0
  8  7  1  0  0  0  0
  8 18  1  0  0  0  0
  9 18  2  0  0  0  0
  9 15  1  0  0  0  0
 10  9  1  0  0  0  0
 11 16  1  0  0  0  0
 12 15  1  0  0  0  0
 13 12  2  0  0  0  0
 14 16  2  0  0  0  0
 15 11  2  0  0  0  0
 17 10  2  0  0  0  0
 17 13  1  0  0  0  0
 18 14  1  0  0  0  0
 20 19  1  0  0  0  0
 21 20  1  0  0  0  0
 22 21  1  0  0  0  0
 23 24  1  0  0  0  0
 23 22  1  0  0  0  0
 24 27  2  0  0  0  0
 25 23  1  0  0  0  0
 28 26  1  0  0  0  0
 28 24  1  0  0  0  0
 29 30  1  0  0  0  0
 29 25  1  0  0  0  0
 30 28  1  0  0  0  0
M  END
>  <MODEL>
3

>  <REMARK>
 VINA RESULT:      -7.6      2.273      4.995
  Name = 
  12 active torsions:
  status: ('A' for Active; 'I' for Inactive)
    1  A    between atoms: C_3  and  N_19
    2  A    between atoms: C_3  and  C_20
    3  A    between atoms: N_4  and  C_24
    4  A    between atoms: O_5  and  C_13
    5  A    between atoms: O_5  and  C_26
    6  A    between atoms: C_10  and  N_19
    7  A    between atoms: C_10  and  C_22
    8  A    between atoms: C_10  and  C_26
    9  A    between atoms: C_13  and  C_24
   10  A    between atoms: C_18  and  C_20
   11  A    between atoms: C_22  and  O_29
   12  A    between atoms: O_29  and  C_30
                            x       y       z     vdW  Elec       q    Type
                         _______ _______ _______ _____ _____    ______ ____

>  <TORSDO>
F 12

$$$$
=
 OpenBabel11032419163D

 30 32  0  0  1  0  0  0  0  0999 V2000
  189.9360  176.7990  141.5720 C   0  0  1  0  0  3  0  0  0  0  0  0
  191.0320  176.7120  142.5230 N   0  0  0  0  0  2  0  0  0  0  0  0
  191.2750  178.0460  143.0420 C   0  0  0  0  0  2  0  0  0  0  0  0
  191.5990  177.9520  144.5190 C   0  0  0  0  0  2  0  0  0  0  0  0
  191.6850  176.4300  146.4660 C   0  0  0  0  0  1  0  0  0  0  0  0
  191.5640  176.5030  144.9580 C   0  0  0  0  0  2  0  0  0  0  0  0
  188.8940  177.7850  142.0890 C   0  0  0  0  0  2  0  0  0  0  0  0
  187.7860  177.0900  142.6540 O   0  0  0  0  0  0  0  0  0  0  0  0
  186.9220  177.8390  144.8760 C   0  0  0  0  0  0  0  0  0  0  0  0
  188.0740  177.4690  145.5900 C   0  0  0  0  0  3  0  0  0  0  0  0
  184.7340  178.8420  144.9210 N   0  0  0  0  0  0  0  0  0  0  0  0
  185.9400  178.6380  146.9650 C   0  0  0  0  0  3  0  0  0  0  0  0
  187.0860  178.2440  147.6570 C   0  0  0  0  0  3  0  0  0  0  0  0
  185.6310  178.0890  142.8420 C   0  0  0  0  0  3  0  0  0  0  0  0
  185.8540  178.4470  145.5830 C   0  0  0  0  0  0  0  0  0  0  0  0
  184.6050  178.6780  143.5810 C   0  0  0  0  0  3  0  0  0  0  0  0
  188.1550  177.6650  146.9700 C   0  0  0  0  0  3  0  0  0  0  0  0
  186.7990  177.6580  143.4740 C   0  0  0  0  0  0  0  0  0  0  0  0
  190.4660  177.2310  140.2080 C   0  0  0  0  0  2  0  0  0  0  0  0
  190.8830  176.1170  139.4750 O   0  0  0  0  0  0  0  0  0  0  0  0
  190.0080  176.0560  138.3880 C   0  0  0  0  0  2  0  0  0  0  0  0
  189.5660  177.4560  138.0050 C   0  0  0  0  0  2  0  0  0  0  0  0
  188.2330  177.4140  137.4210 N   0  0  0  0  0  0  0  0  0  0  0  0
  187.0930  177.9390  138.1280 C   0  0  0  0  0  0  0  0  0  0  0  0
  188.0760  176.8190  136.0950 C   0  0  0  0  0  2  0  0  0  0  0  0
  184.5970  178.1850  138.2970 C   0  0  0  0  0  1  0  0  0  0  0  0
  187.2390  178.4870  139.2550 O   0  0  0  0  0  0  0  0  0  0  0  0
  185.7870  177.8100  137.5490 N   0  0  0  0  0  0  0  0  0  0  0  0
  186.6850  176.2130  135.9240 C   0  0  0  0  0  2  0  0  0  0  0  0
  185.6330  177.2820  136.1980 C   0  0  0  0  0  2  0  0  0  0  0  0
  1 19  1  6  0  0  0
  1  7  1  0  0  0  0
  1  2  1  0  0  0  0
  2  3  1  0  0  0  0
  3  4  1  0  0  0  0
  4  6  1  0  0  0  0
  6  5  1  0  0  0  0
  7  8  1  0  0  0  0
  8 18  1  0  0  0  0
  9 15  1  0  0  0  0
  9 10  2  0  0  0  0
 10 17  1  0  0  0  0
 11 15  1  0  0  0  0
 12 13  1  0  0  0  0
 14 18  2  0  0  0  0
 14 16  1  0  0  0  0
 15 12  2  0  0  0  0
 16 11  2  0  0  0  0
 17 13  2  0  0  0  0
 18  9  1  0  0  0  0
 20 19  1  0  0  0  0
 21 20  1  0  0  0  0
 22 21  1  0  0  0  0
 23 22  1  0  0  0  0
 23 24  1  0  0  0  0
 24 27  2  0  0  0  0
 25 23  1  0  0  0  0
 28 24  1  0  0  0  0
 28 26  1  0  0  0  0
 29 25  1  0  0  0  0
 29 30  1  0  0  0  0
 30 28  1  0  0  0  0
M  END
>  <MODEL>
4

>  <REMARK>
 VINA RESULT:      -7.6      2.003      4.706
  Name = 
  12 active torsions:
  status: ('A' for Active; 'I' for Inactive)
    1  A    between atoms: C_3  and  N_19
    2  A    between atoms: C_3  and  C_20
    3  A    between atoms: N_4  and  C_24
    4  A    between atoms: O_5  and  C_13
    5  A    between atoms: O_5  and  C_26
    6  A    between atoms: C_10  and  N_19
    7  A    between atoms: C_10  and  C_22
    8  A    between atoms: C_10  and  C_26
    9  A    between atoms: C_13  and  C_24
   10  A    between atoms: C_18  and  C_20
   11  A    between atoms: C_22  and  O_29
   12  A    between atoms: O_29  and  C_30
                            x       y       z     vdW  Elec       q    Type
                         _______ _______ _______ _____ _____    ______ ____

>  <TORSDO>
F 12

$$$$
=
 OpenBabel11032419163D

 30 32  0  0  1  0  0  0  0  0999 V2000
  189.8010  176.4100  143.3520 C   0  0  1  0  0  3  0  0  0  0  0  0
  190.4210  177.5350  144.0320 N   0  0  0  0  0  2  0  0  0  0  0  0
  191.2440  177.0050  145.1040 C   0  0  0  0  0  2  0  0  0  0  0  0
  190.4940  177.1270  146.4140 C   0  0  0  0  0  2  0  0  0  0  0  0
  192.3720  175.6240  146.9910 C   0  0  0  0  0  1  0  0  0  0  0  0
  191.3520  176.5970  147.5450 C   0  0  0  0  0  2  0  0  0  0  0  0
  188.2940  176.4430  143.5910 C   0  0  0  0  0  2  0  0  0  0  0  0
  187.8720  177.7570  143.9440 O   0  0  0  0  0  0  0  0  0  0  0  0
  185.4680  178.3650  144.2500 C   0  0  0  0  0  0  0  0  0  0  0  0
  185.1610  178.3600  142.8800 C   0  0  0  0  0  3  0  0  0  0  0  0
  184.6830  178.6320  146.5110 N   0  0  0  0  0  0  0  0  0  0  0  0
  183.1420  178.9420  144.7220 C   0  0  0  0  0  3  0  0  0  0  0  0
  182.8650  178.9530  143.3540 C   0  0  0  0  0  3  0  0  0  0  0  0
  186.9690  178.0620  146.1270 C   0  0  0  0  0  3  0  0  0  0  0  0
  184.4300  178.6450  145.1760 C   0  0  0  0  0  0  0  0  0  0  0  0
  185.9180  178.3480  146.9980 C   0  0  0  0  0  3  0  0  0  0  0  0
  183.8720  178.6560  142.4330 C   0  0  0  0  0  3  0  0  0  0  0  0
  186.7640  178.0690  144.7460 C   0  0  0  0  0  0  0  0  0  0  0  0
  190.1180  176.4650  141.8610 C   0  0  0  0  0  2  0  0  0  0  0  0
  189.0420  177.0080  141.1550 O   0  0  0  0  0  0  0  0  0  0  0  0
  189.6100  177.5680  140.0100 C   0  0  0  0  0  2  0  0  0  0  0  0
  191.0560  177.1260  139.8840 C   0  0  0  0  0  2  0  0  0  0  0  0
  191.3010  176.6020  138.5480 N   0  0  0  0  0  0  0  0  0  0  0  0
  192.6400  176.4660  138.0350 C   0  0  0  0  0  0  0  0  0  0  0  0
  190.1500  176.2190  137.7320 C   0  0  0  0  0  2  0  0  0  0  0  0
  194.1560  176.0140  136.0810 C   0  0  0  0  0  1  0  0  0  0  0  0
  193.6320  176.7610  138.7570 O   0  0  0  0  0  0  0  0  0  0  0  0
  192.8330  176.0150  136.6870 N   0  0  0  0  0  0  0  0  0  0  0  0
  190.4520  176.3760  136.2440 C   0  0  0  0  0  2  0  0  0  0  0  0
  191.6940  175.5650  135.8940 C   0  0  0  0  0  2  0  0  0  0  0  0
  1 19  1  6  0  0  0
  1  7  1  0  0  0  0
  1  2  1  0  0  0  0
  2  3  1  0  0  0  0
  3  4  1  0  0  0  0
  4  6  1  0  0  0  0
  5  6  1  0  0  0  0
  7  8  1  0  0  0  0
  8 18  1  0  0  0  0
  9 18  2  0  0  0  0
  9 15  1  0  0  0  0
 10  9  1  0  0  0  0
 11 16  1  0  0  0  0
 12 15  1  0  0  0  0
 13 12  2  0  0  0  0
 14 16  2  0  0  0  0
 15 11  2  0  0  0  0
 17 10  2  0  0  0  0
 17 13  1  0  0  0  0
 18 14  1  0  0  0  0
 20 19  1  0  0  0  0
 21 20  1  0  0  0  0
 22 21  1  0  0  0  0
 23 22  1  0  0  0  0
 24 23  1  0  0  0  0
 24 27  2  0  0  0  0
 25 23  1  0  0  0  0
 26 28  1  0  0  0  0
 28 24  1  0  0  0  0
 29 25  1  0  0  0  0
 30 29  1  0  0  0  0
 30 28  1  0  0  0  0
M  END
>  <MODEL>
5

>  <REMARK>
 VINA RESULT:      -7.5      1.884      4.668
  Name = 
  12 active torsions:
  status: ('A' for Active; 'I' for Inactive)
    1  A    between atoms: C_3  and  N_19
    2  A    between atoms: C_3  and  C_20
    3  A    between atoms: N_4  and  C_24
    4  A    between atoms: O_5  and  C_13
    5  A    between atoms: O_5  and  C_26
    6  A    between atoms: C_10  and  N_19
    7  A    between atoms: C_10  and  C_22
    8  A    between atoms: C_10  and  C_26
    9  A    between atoms: C_13  and  C_24
   10  A    between atoms: C_18  and  C_20
   11  A    between atoms: C_22  and  O_29
   12  A    between atoms: O_29  and  C_30
                            x       y       z     vdW  Elec       q    Type
                         _______ _______ _______ _____ _____    ______ ____

>  <TORSDO>
F 12

$$$$
=
 OpenBabel11032419163D

 30 32  0  0  1  0  0  0  0  0999 V2000
  185.6260  179.0470  141.8230 C   0  0  1  0  0  3  0  0  0  0  0  0
  185.0530  178.2760  142.9140 N   0  0  0  0  0  2  0  0  0  0  0  0
  183.9150  179.0140  143.4300 C   0  0  0  0  0  2  0  0  0  0  0  0
  183.8730  178.8740  144.9370 C   0  0  0  0  0  2  0  0  0  0  0  0
  185.3000  178.4380  146.9100 C   0  0  0  0  0  1  0  0  0  0  0  0
  185.2750  178.9910  145.5000 C   0  0  0  0  0  2  0  0  0  0  0  0
  187.0890  178.6580  141.6420 C   0  0  0  0  0  2  0  0  0  0  0  0
  187.5530  177.9160  142.7670 O   0  0  0  0  0  0  0  0  0  0  0  0
  189.3890  177.4110  144.3850 C   0  0  0  0  0  0  0  0  0  0  0  0
  188.5550  177.3790  145.5150 C   0  0  0  0  0  3  0  0  0  0  0  0
  191.6040  177.1440  143.4820 N   0  0  0  0  0  0  0  0  0  0  0  0
  191.2900  176.8990  145.8300 C   0  0  0  0  0  3  0  0  0  0  0  0
  190.4470  176.8930  146.9420 C   0  0  0  0  0  3  0  0  0  0  0  0
  189.7940  177.6400  142.0080 C   0  0  0  0  0  3  0  0  0  0  0  0
  190.7720  177.1490  144.5560 C   0  0  0  0  0  0  0  0  0  0  0  0
  191.1470  177.3810  142.2270 C   0  0  0  0  0  3  0  0  0  0  0  0
  189.0790  177.1280  146.7840 C   0  0  0  0  0  3  0  0  0  0  0  0
  188.8970  177.6630  143.0780 C   0  0  0  0  0  0  0  0  0  0  0  0
  184.8330  178.8020  140.5430 C   0  0  0  0  0  2  0  0  0  0  0  0
  185.6000  179.1390  139.4260 O   0  0  0  0  0  0  0  0  0  0  0  0
  185.2580  178.1930  138.4570 C   0  0  0  0  0  2  0  0  0  0  0  0
  186.2180  178.2860  137.2860 C   0  0  0  0  0  2  0  0  0  0  0  0
  187.2820  177.3040  137.4360 N   0  0  0  0  0  0  0  0  0  0  0  0
  188.5590  177.6680  137.9950 C   0  0  0  0  0  0  0  0  0  0  0  0
  187.0250  175.9320  136.9990 C   0  0  0  0  0  2  0  0  0  0  0  0
  190.9500  177.0540  138.4670 C   0  0  0  0  0  1  0  0  0  0  0  0
  188.7630  178.8430  138.4070 O   0  0  0  0  0  0  0  0  0  0  0  0
  189.6040  176.6870  138.0560 N   0  0  0  0  0  0  0  0  0  0  0  0
  188.3140  175.2450  136.5540 C   0  0  0  0  0  2  0  0  0  0  0  0
  189.3320  175.3020  137.6880 C   0  0  0  0  0  2  0  0  0  0  0  0
  1 19  1  6  0  0  0
  1  2  1  0  0  0  0
  2  3  1  0  0  0  0
  3  4  1  0  0  0  0
  4  6  1  0  0  0  0
  6  5  1  0  0  0  0
  7  1  1  0  0  0  0
  7  8  1  0  0  0  0
  8 18  1  0  0  0  0
  9 15  1  0  0  0  0
  9 10  2  0  0  0  0
 10 17  1  0  0  0  0
 11 15  1  0  0  0  0
 12 13  1  0  0  0  0
 14 16  1  0  0  0  0
 14 18  2  0  0  0  0
 15 12  2  0  0  0  0
 16 11  2  0  0  0  0
 17 13  2  0  0  0  0
 18  9  1  0  0  0  0
 20 19  1  0  0  0  0
 21 20  1  0  0  0  0
 22 23  1  0  0  0  0
 22 21  1  0  0  0  0
 23 24  1  0  0  0  0
 24 28  1  0  0  0  0
 24 27  2  0  0  0  0
 25 23  1  0  0  0  0
 28 26  1  0  0  0  0
 29 25  1  0  0  0  0
 29 30  1  0  0  0  0
 30 28  1  0  0  0  0
M  END
>  <MODEL>
6

>  <REMARK>
 VINA RESULT:      -7.5      1.744      2.736
  Name = 
  12 active torsions:
  status: ('A' for Active; 'I' for Inactive)
    1  A    between atoms: C_3  and  N_19
    2  A    between atoms: C_3  and  C_20
    3  A    between atoms: N_4  and  C_24
    4  A    between atoms: O_5  and  C_13
    5  A    between atoms: O_5  and  C_26
    6  A    between atoms: C_10  and  N_19
    7  A    between atoms: C_10  and  C_22
    8  A    between atoms: C_10  and  C_26
    9  A    between atoms: C_13  and  C_24
   10  A    between atoms: C_18  and  C_20
   11  A    between atoms: C_22  and  O_29
   12  A    between atoms: O_29  and  C_30
                            x       y       z     vdW  Elec       q    Type
                         _______ _______ _______ _____ _____    ______ ____

>  <TORSDO>
F 12

$$$$
=
 OpenBabel11032419163D

 30 32  0  0  1  0  0  0  0  0999 V2000
  190.7900  176.6460  143.7360 C   0  0  1  0  0  3  0  0  0  0  0  0
  190.6440  177.4980  144.9040 N   0  0  0  0  0  2  0  0  0  0  0  0
  191.5270  176.9890  145.9380 C   0  0  0  0  0  2  0  0  0  0  0  0
  190.6940  176.4560  147.0850 C   0  0  0  0  0  2  0  0  0  0  0  0
  188.4140  177.0140  147.8660 C   0  0  0  0  0  1  0  0  0  0  0  0
  189.8060  177.5590  147.6250 C   0  0  0  0  0  2  0  0  0  0  0  0
  189.4240  176.0950  143.3380 C   0  0  0  0  0  2  0  0  0  0  0  0
  188.3850  176.7980  144.0130 O   0  0  0  0  0  0  0  0  0  0  0  0
  186.2240  178.0520  144.0490 C   0  0  0  0  0  0  0  0  0  0  0  0
  185.9610  177.8110  145.4070 C   0  0  0  0  0  3  0  0  0  0  0  0
  185.5380  179.1140  142.0000 N   0  0  0  0  0  0  0  0  0  0  0  0
  184.1460  179.3290  143.9200 C   0  0  0  0  0  3  0  0  0  0  0  0
  183.8940  179.0600  145.2660 C   0  0  0  0  0  3  0  0  0  0  0  0
  187.5840  177.8860  142.0520 C   0  0  0  0  0  3  0  0  0  0  0  0
  185.3040  178.8380  143.3090 C   0  0  0  0  0  0  0  0  0  0  0  0
  186.6480  178.6600  141.3650 C   0  0  0  0  0  3  0  0  0  0  0  0
  184.8040  178.3060  146.0110 C   0  0  0  0  0  3  0  0  0  0  0  0
  187.3870  177.5680  143.3970 C   0  0  0  0  0  0  0  0  0  0  0  0
  191.4150  177.4360  142.5910 C   0  0  0  0  0  2  0  0  0  0  0  0
  191.0060  176.9140  141.3610 O   0  0  0  0  0  0  0  0  0  0  0  0
  191.8670  177.4900  140.4240 C   0  0  0  0  0  2  0  0  0  0  0  0
  191.6820  176.8180  139.0760 C   0  0  0  0  0  2  0  0  0  0  0  0
  190.2970  176.9400  138.6460 N   0  0  0  0  0  0  0  0  0  0  0  0
  189.6170  175.8450  138.0030 C   0  0  0  0  0  0  0  0  0  0  0  0
  189.6090  178.2090  138.8770 C   0  0  0  0  0  2  0  0  0  0  0  0
  187.6130  175.0060  136.7380 C   0  0  0  0  0  1  0  0  0  0  0  0
  190.2020  174.7390  137.8410 O   0  0  0  0  0  0  0  0  0  0  0  0
  188.2760  176.0320  137.5280 N   0  0  0  0  0  0  0  0  0  0  0  0
  188.5280  178.4500  137.8260 C   0  0  0  0  0  2  0  0  0  0  0  0
  187.5620  177.2700  137.8180 C   0  0  0  0  0  2  0  0  0  0  0  0
  1 19  1  6  0  0  0
  1  2  1  0  0  0  0
  2  3  1  0  0  0  0
  3  4  1  0  0  0  0
  4  6  1  0  0  0  0
  6  5  1  0  0  0  0
  7  1  1  0  0  0  0
  7  8  1  0  0  0  0
  9 10  2  0  0  0  0
 10 17  1  0  0  0  0
 11 15  1  0  0  0  0
 12 13  1  0  0  0  0
 13 17  2  0  0  0  0
 14 18  2  0  0  0  0
 15 12  2  0  0  0  0
 15  9  1  0  0  0  0
 16 11  2  0  0  0  0
 16 14  1  0  0  0  0
 18  8  1  0  0  0  0
 18  9  1  0  0  0  0
 20 19  1  0  0  0  0
 21 20  1  0  0  0  0
 22 21  1  0  0  0  0
 23 25  1  0  0  0  0
 23 22  1  0  0  0  0
 24 23  1  0  0  0  0
 26 28  1  0  0  0  0
 27 24  2  0  0  0  0
 28 30  1  0  0  0  0
 28 24  1  0  0  0  0
 29 25  1  0  0  0  0
 30 29  1  0  0  0  0
M  END
>  <MODEL>
7

>  <REMARK>
 VINA RESULT:      -7.4      1.781      4.677
  Name = 
  12 active torsions:
  status: ('A' for Active; 'I' for Inactive)
    1  A    between atoms: C_3  and  N_19
    2  A    between atoms: C_3  and  C_20
    3  A    between atoms: N_4  and  C_24
    4  A    between atoms: O_5  and  C_13
    5  A    between atoms: O_5  and  C_26
    6  A    between atoms: C_10  and  N_19
    7  A    between atoms: C_10  and  C_22
    8  A    between atoms: C_10  and  C_26
    9  A    between atoms: C_13  and  C_24
   10  A    between atoms: C_18  and  C_20
   11  A    between atoms: C_22  and  O_29
   12  A    between atoms: O_29  and  C_30
                            x       y       z     vdW  Elec       q    Type
                         _______ _______ _______ _____ _____    ______ ____

>  <TORSDO>
F 12

$$$$
=
 OpenBabel11032419163D

 30 32  0  0  1  0  0  0  0  0999 V2000
  188.7730  177.4470  140.9400 C   0  0  1  0  0  3  0  0  0  0  0  0
  190.1210  177.0370  141.2960 N   0  0  0  0  0  2  0  0  0  0  0  0
  190.0700  176.4460  142.6210 C   0  0  0  0  0  2  0  0  0  0  0  0
  191.4230  176.5950  143.2850 C   0  0  0  0  0  2  0  0  0  0  0  0
  191.6530  176.7330  145.7440 C   0  0  0  0  0  1  0  0  0  0  0  0
  191.3030  177.5060  144.4900 C   0  0  0  0  0  2  0  0  0  0  0  0
  188.1610  178.2320  142.0970 C   0  0  0  0  0  2  0  0  0  0  0  0
  187.0110  177.5610  142.6020 O   0  0  0  0  0  0  0  0  0  0  0  0
  186.5830  178.0200  145.0220 C   0  0  0  0  0  0  0  0  0  0  0  0
  187.8420  177.5770  145.4580 C   0  0  0  0  0  3  0  0  0  0  0  0
  184.4540  178.9860  145.5950 N   0  0  0  0  0  0  0  0  0  0  0  0
  186.0150  178.5440  147.3380 C   0  0  0  0  0  3  0  0  0  0  0  0
  187.2640  178.0790  147.7530 C   0  0  0  0  0  3  0  0  0  0  0  0
  184.9410  178.5050  143.3080 C   0  0  0  0  0  3  0  0  0  0  0  0
  185.6710  178.5240  145.9830 C   0  0  0  0  0  0  0  0  0  0  0  0
  184.0770  178.9870  144.2910 C   0  0  0  0  0  3  0  0  0  0  0  0
  188.1800  177.6010  146.8130 C   0  0  0  0  0  3  0  0  0  0  0  0
  186.2010  178.0120  143.6550 C   0  0  0  0  0  0  0  0  0  0  0  0
  188.8050  178.2870  139.6670 C   0  0  0  0  0  2  0  0  0  0  0  0
  188.9960  177.4690  138.5510 O   0  0  0  0  0  0  0  0  0  0  0  0
  187.7130  177.0530  138.1890 C   0  0  0  0  0  2  0  0  0  0  0  0
  186.8760  178.2540  137.7910 C   0  0  0  0  0  2  0  0  0  0  0  0
  185.4630  177.9620  137.9860 N   0  0  0  0  0  0  0  0  0  0  0  0
  184.7240  178.5520  139.0730 C   0  0  0  0  0  0  0  0  0  0  0  0
  184.8090  177.0480  137.0520 C   0  0  0  0  0  2  0  0  0  0  0  0
  182.6190  178.6290  140.4460 C   0  0  0  0  0  1  0  0  0  0  0  0
  185.2820  179.3700  139.8540 O   0  0  0  0  0  0  0  0  0  0  0  0
  183.3530  178.1790  139.2730 N   0  0  0  0  0  0  0  0  0  0  0  0
  183.6540  176.3090  137.7210 C   0  0  0  0  0  2  0  0  0  0  0  0
  182.6760  177.3240  138.3040 C   0  0  0  0  0  2  0  0  0  0  0  0
  1 19  1  6  0  0  0
  1  2  1  0  0  0  0
  1  7  1  0  0  0  0
  2  3  1  0  0  0  0
  3  4  1  0  0  0  0
  4  6  1  0  0  0  0
  6  5  1  0  0  0  0
  7  8  1  0  0  0  0
  8 18  1  0  0  0  0
  9 10  2  0  0  0  0
  9 15  1  0  0  0  0
 10 17  1  0  0  0  0
 11 15  1  0  0  0  0
 12 13  1  0  0  0  0
 14 18  2  0  0  0  0
 14 16  1  0  0  0  0
 15 12  2  0  0  0  0
 16 11  2  0  0  0  0
 17 13  2  0  0  0  0
 18  9  1  0  0  0  0
 20 19  1  0  0  0  0
 21 20  1  0  0  0  0
 22 23  1  0  0  0  0
 22 21  1  0  0  0  0
 23 24  1  0  0  0  0
 24 28  1  0  0  0  0
 24 27  2  0  0  0  0
 25 29  1  0  0  0  0
 25 23  1  0  0  0  0
 28 26  1  0  0  0  0
 29 30  1  0  0  0  0
 30 28  1  0  0  0  0
M  END
>  <MODEL>
8

>  <REMARK>
 VINA RESULT:      -7.3      2.689      5.463
  Name = 
  12 active torsions:
  status: ('A' for Active; 'I' for Inactive)
    1  A    between atoms: C_3  and  N_19
    2  A    between atoms: C_3  and  C_20
    3  A    between atoms: N_4  and  C_24
    4  A    between atoms: O_5  and  C_13
    5  A    between atoms: O_5  and  C_26
    6  A    between atoms: C_10  and  N_19
    7  A    between atoms: C_10  and  C_22
    8  A    between atoms: C_10  and  C_26
    9  A    between atoms: C_13  and  C_24
   10  A    between atoms: C_18  and  C_20
   11  A    between atoms: C_22  and  O_29
   12  A    between atoms: O_29  and  C_30
                            x       y       z     vdW  Elec       q    Type
                         _______ _______ _______ _____ _____    ______ ____

>  <TORSDO>
F 12

$$$$
=
 OpenBabel11032419163D

 30 32  0  0  1  0  0  0  0  0999 V2000
  189.0610  177.5290  140.4990 C   0  0  1  0  0  3  0  0  0  0  0  0
  189.8060  178.1980  139.4460 N   0  0  0  0  0  2  0  0  0  0  0  0
  189.6470  177.4240  138.2290 C   0  0  0  0  0  2  0  0  0  0  0  0
  189.1390  178.3290  137.1260 C   0  0  0  0  0  2  0  0  0  0  0  0
  186.9330  177.2200  137.2790 C   0  0  0  0  0  1  0  0  0  0  0  0
  188.0550  177.6180  136.3420 C   0  0  0  0  0  2  0  0  0  0  0  0
  190.0370  176.9370  141.5110 C   0  0  0  0  0  2  0  0  0  0  0  0
  189.3490  176.5300  142.6900 O   0  0  0  0  0  0  0  0  0  0  0  0
  188.9730  177.1370  145.0850 C   0  0  0  0  0  0  0  0  0  0  0  0
  187.5970  177.3780  144.9390 C   0  0  0  0  0  3  0  0  0  0  0  0
  190.8760  177.0300  146.5550 N   0  0  0  0  0  0  0  0  0  0  0  0
  188.7710  177.6840  147.4570 C   0  0  0  0  0  3  0  0  0  0  0  0
  187.4090  177.9380  147.2840 C   0  0  0  0  0  3  0  0  0  0  0  0
  191.1480  176.4770  144.2500 C   0  0  0  0  0  3  0  0  0  0  0  0
  189.5530  177.2790  146.3710 C   0  0  0  0  0  0  0  0  0  0  0  0
  191.6740  176.6350  145.5320 C   0  0  0  0  0  3  0  0  0  0  0  0
  186.8210  177.7790  146.0280 C   0  0  0  0  0  3  0  0  0  0  0  0
  189.7970  176.7280  144.0050 C   0  0  0  0  0  0  0  0  0  0  0  0
  188.1100  178.5150  141.1700 C   0  0  0  0  0  2  0  0  0  0  0  0
  186.9460  178.6590  140.4110 O   0  0  0  0  0  0  0  0  0  0  0  0
  185.9720  179.0700  141.3240 C   0  0  0  0  0  2  0  0  0  0  0  0
  184.6060  178.5970  140.8650 C   0  0  0  0  0  2  0  0  0  0  0  0
  183.6700  178.6250  141.9800 N   0  0  0  0  0  0  0  0  0  0  0  0
  182.2650  178.8630  141.7670 C   0  0  0  0  0  0  0  0  0  0  0  0
  184.1910  178.4080  143.3280 C   0  0  0  0  0  2  0  0  0  0  0  0
  179.9980  179.3510  142.7390 C   0  0  0  0  0  1  0  0  0  0  0  0
  181.8130  179.0110  140.5980 O   0  0  0  0  0  0  0  0  0  0  0  0
  181.3890  178.9570  142.9000 N   0  0  0  0  0  0  0  0  0  0  0  0
  183.3400  179.1280  144.3700 C   0  0  0  0  0  2  0  0  0  0  0  0
  181.8910  178.6720  144.2400 C   0  0  0  0  0  2  0  0  0  0  0  0
  1 19  1  1  0  0  0
  1  7  1  0  0  0  0
  2  1  1  0  0  0  0
  3  2  1  0  0  0  0
  4  3  1  0  0  0  0
  6  4  1  0  0  0  0
  6  5  1  0  0  0  0
  7  8  1  0  0  0  0
  8 18  1  0  0  0  0
  9 15  1  0  0  0  0
 10  9  2  0  0  0  0
 10 17  1  0  0  0  0
 13 12  1  0  0  0  0
 14 16  1  0  0  0  0
 15 11  1  0  0  0  0
 15 12  2  0  0  0  0
 16 11  2  0  0  0  0
 17 13  2  0  0  0  0
 18 14  2  0  0  0  0
 18  9  1  0  0  0  0
 20 19  1  0  0  0  0
 20 21  1  0  0  0  0
 22 21  1  0  0  0  0
 22 23  1  0  0  0  0
 23 25  1  0  0  0  0
 24 23  1  0  0  0  0
 24 28  1  0  0  0  0
 25 29  1  0  0  0  0
 26 28  1  0  0  0  0
 27 24  2  0  0  0  0
 28 30  1  0  0  0  0
 30 29  1  0  0  0  0
M  END
>  <MODEL>
9

>  <REMARK>
 VINA RESULT:      -7.3      2.283      6.610
  Name = 
  12 active torsions:
  status: ('A' for Active; 'I' for Inactive)
    1  A    between atoms: C_3  and  N_19
    2  A    between atoms: C_3  and  C_20
    3  A    between atoms: N_4  and  C_24
    4  A    between atoms: O_5  and  C_13
    5  A    between atoms: O_5  and  C_26
    6  A    between atoms: C_10  and  N_19
    7  A    between atoms: C_10  and  C_22
    8  A    between atoms: C_10  and  C_26
    9  A    between atoms: C_13  and  C_24
   10  A    between atoms: C_18  and  C_20
   11  A    between atoms: C_22  and  O_29
   12  A    between atoms: O_29  and  C_30
                            x       y       z     vdW  Elec       q    Type
                         _______ _______ _______ _____ _____    ______ ____

>  <TORSDO>
F 12

$$$$
