=
 OpenBabel11032420383D

 45 50  0  0  1  0  0  0  0  0999 V2000
  187.9140  177.9320  141.0440 C   0  0  2  0  0  3  0  0  0  0  0  0
  185.6710  177.8240  142.1850 C   0  0  2  0  0  3  0  0  0  0  0  0
  187.6150  177.3760  143.6440 C   0  0  1  0  0  3  0  0  0  0  0  0
  186.6610  178.4720  143.1380 C   0  0  1  0  0  3  0  0  0  0  0  0
  188.9990  177.4660  143.1130 N   0  0  0  0  0  0  0  0  0  0  0  0
  186.7570  178.7220  141.6320 C   0  0  1  0  0  3  0  0  0  0  0  0
  189.0880  178.1730  141.8820 N   0  0  0  0  0  2  0  0  0  0  0  0
  187.5860  177.2890  145.1690 C   0  0  0  0  0  3  0  0  0  0  0  0
  186.6030  178.4090  147.2390 C   0  0  0  0  0  2  0  0  0  0  0  0
  187.5690  177.5080  147.8500 N   0  0  0  0  0  2  0  0  0  0  0  0
  188.9220  177.7300  145.7640 C   0  0  0  0  0  2  0  0  0  0  0  0
  186.3870  178.0410  145.7740 C   0  0  0  0  0  2  0  0  0  0  0  0
  188.8840  177.8290  147.2980 C   0  0  0  0  0  2  0  0  0  0  0  0
  189.4390  176.2030  142.8780 O   0  0  0  0  0  0  0  0  0  0  0  0
  190.7550  176.3520  142.4340 C   0  0  0  0  0  2  0  0  0  0  0  0
  191.5930  176.6260  143.5130 O   0  0  0  0  0  0  0  0  0  0  0  0
  191.8140  175.3930  144.1350 C   0  0  0  0  0  1  0  0  0  0  0  0
  188.1810  178.4050  139.6300 C   0  0  0  0  0  2  0  0  0  0  0  0
  189.5560  177.9520  139.1660 C   0  0  0  0  0  2  0  0  0  0  0  0
  189.0960  176.3410  137.2810 C   0  0  0  0  0  2  0  0  0  0  0  0
  189.8050  175.0730  136.8610 C   0  0  0  0  0  2  0  0  0  0  0  0
  190.7160  174.6850  137.9450 N   0  0  2  0  0  0  0  0  0  0  0  0
  190.7800  175.7600  138.8700 N   0  0  1  0  0  0  0  0  0  0  0  0
  192.0440  174.5190  137.3580 C   0  0  0  0  0  2  0  0  0  0  0  0
  191.9380  176.5790  138.4970 C   0  0  0  0  0  2  0  0  0  0  0  0
  192.9150  175.6460  137.8520 C   0  0  0  0  0  2  0  0  0  0  0  0
  189.5130  176.4860  138.7160 C   0  0  1  0  0  3  0  0  0  0  0  0
  184.3630  178.5980  142.1900 C   0  0  0  0  0  2  0  0  0  0  0  0
  183.7630  178.6880  140.8210 C   0  0  0  0  0  0  0  0  0  0  0  0
  183.1850  177.6300  140.3210 C   0  0  0  0  0  0  0  0  0  0  0  0
  182.6220  176.5680  139.8280 C   0  0  0  0  0  3  0  0  0  0  0  0
  184.7640  179.8880  139.0270 O   0  0  0  0  0  1  0  0  0  0  0  0
  183.8920  179.8420  140.0400 O   0  0  0  0  0  0  0  0  0  0  0  0
  181.9240  176.6230  138.5180 C   0  0  0  0  0  2  0  0  0  0  0  0
  182.6620  177.5130  137.6270 N   0  0  0  0  0  2  0  0  0  0  0  0
  182.8590  176.7900  136.3690 C   0  0  2  0  0  3  0  0  0  0  0  0
  182.0100  177.3980  135.2930 C   0  0  0  0  0  3  0  0  0  0  0  0
  181.7590  178.5940  135.3100 O   0  0  0  0  0  0  0  0  0  0  0  0
  182.5940  175.2800  136.5220 C   0  0  0  0  0  2  0  0  0  0  0  0
  184.8680  172.2420  137.1030 C   0  0  0  0  0  2  0  0  0  0  0  0
  186.1960  174.0540  137.2080 C   0  0  0  0  0  2  0  0  0  0  0  0
  185.7860  172.9160  137.9220 O   0  0  0  0  0  0  0  0  0  0  0  0
  185.0460  175.0600  137.1440 C   0  0  0  0  0  2  0  0  0  0  0  0
  183.8490  174.4130  136.4440 C   0  0  0  0  0  3  0  0  0  0  0  0
  183.5590  173.0290  137.0310 C   0  0  0  0  0  2  0  0  0  0  0  0
  1 18  1  6  0  0  0
  1  6  1  0  0  0  0
  1  7  1  0  0  0  0
  2 28  1  1  0  0  0
  2  4  1  0  0  0  0
  3  8  1  1  0  0  0
  4  3  1  0  0  0  0
  5  3  1  0  0  0  0
  6  2  1  0  0  0  0
  6  4  1  0  0  0  0
  7  5  1  0  0  0  0
  8 11  1  0  0  0  0
  8 12  1  0  0  0  0
  9 10  1  0  0  0  0
 11 13  1  0  0  0  0
 12  9  1  0  0  0  0
 13 10  1  0  0  0  0
 14  5  1  0  0  0  0
 15 14  1  0  0  0  0
 15 16  1  0  0  0  0
 16 17  1  0  0  0  0
 19 18  1  0  0  0  0
 20 27  1  0  0  0  0
 21 20  1  0  0  0  0
 21 22  1  0  0  0  0
 22 23  1  0  0  0  0
 24 26  1  0  0  0  0
 24 22  1  0  0  0  0
 25 23  1  0  0  0  0
 26 25  1  0  0  0  0
 27 23  1  0  0  0  0
 27 19  1  0  0  0  0
 29 28  1  0  0  0  0
 30 29  2  0  0  0  0
 31 30  2  0  0  0  0
 32 33  1  0  0  0  0
 33 29  1  0  0  0  0
 34 31  1  0  0  0  0
 35 34  1  0  0  0  0
 36 39  1  0  0  0  0
 36 35  1  0  0  0  0
 37 38  2  0  0  0  0
 37 36  1  0  0  0  0
 40 42  1  0  0  0  0
 41 42  1  0  0  0  0
 43 41  1  0  0  0  0
 44 39  1  0  0  0  0
 44 45  1  0  0  0  0
 44 43  1  0  0  0  0
 45 40  1  0  0  0  0
M  END
>  <MODEL>
1

>  <REMARK>
 VINA RESULT:      -7.6      0.000      0.000
  Name = 
  16 active torsions:
  status: ('A' for Active; 'I' for Inactive)
    1  A    between atoms: C_1  and  O_23
    2  A    between atoms: C_1  and  C_28
    3  A    between atoms: C_4  and  CA_5
    4  A    between atoms: CA_5  and  C_21
    5  A    between atoms: CA_5  and  N_45
    6  A    between atoms: C_6  and  C_25
    7  A    between atoms: O_7  and  C_10
    8  A    between atoms: O_7  and  N_34
    9  A    between atoms: C_10  and  O_14
   10  A    between atoms: C_12  and  C_22
   11  A    between atoms: C_17  and  C_28
   12  A    between atoms: C_18  and  C_22
   13  A    between atoms: C_18  and  C_41
   14  A    between atoms: C_21  and  C_29
   15  A    between atoms: C_35  and  C_37
   16  A    between atoms: C_37  and  N_45
                            x       y       z     vdW  Elec       q    Type
                         _______ _______ _______ _____ _____    ______ ____

>  <TORSDO>
F 16

$$$$
=
 OpenBabel11032420383D

 45 50  0  0  1  0  0  0  0  0999 V2000
  187.9030  177.9560  141.0510 C   0  0  2  0  0  3  0  0  0  0  0  0
  185.6430  177.8300  142.1570 C   0  0  2  0  0  3  0  0  0  0  0  0
  187.5690  177.4040  143.6470 C   0  0  1  0  0  3  0  0  0  0  0  0
  186.6130  178.4890  143.1240 C   0  0  1  0  0  3  0  0  0  0  0  0
  188.9600  177.5070  143.1370 N   0  0  0  0  0  0  0  0  0  0  0  0
  186.7290  178.7370  141.6180 C   0  0  1  0  0  3  0  0  0  0  0  0
  189.0620  178.2110  141.9060 N   0  0  0  0  0  2  0  0  0  0  0  0
  187.5170  177.3220  145.1720 C   0  0  0  0  0  3  0  0  0  0  0  0
  186.5100  178.4520  147.2250 C   0  0  0  0  0  2  0  0  0  0  0  0
  187.4620  177.5470  147.8520 N   0  0  0  0  0  2  0  0  0  0  0  0
  188.8470  177.7570  145.7850 C   0  0  0  0  0  2  0  0  0  0  0  0
  186.3130  178.0810  145.7570 C   0  0  0  0  0  2  0  0  0  0  0  0
  188.7870  177.8590  147.3180 C   0  0  0  0  0  2  0  0  0  0  0  0
  189.4160  176.2480  142.9130 O   0  0  0  0  0  0  0  0  0  0  0  0
  190.7190  176.4110  142.4360 C   0  0  0  0  0  2  0  0  0  0  0  0
  191.5840  176.6680  143.4980 O   0  0  0  0  0  0  0  0  0  0  0  0
  191.7910  175.4310  144.1170 C   0  0  0  0  0  1  0  0  0  0  0  0
  188.1870  178.4280  139.6390 C   0  0  0  0  0  2  0  0  0  0  0  0
  189.5620  177.9630  139.1880 C   0  0  0  0  0  2  0  0  0  0  0  0
  189.0870  176.3750  137.2880 C   0  0  0  0  0  2  0  0  0  0  0  0
  189.7850  175.1060  136.8540 C   0  0  0  0  0  2  0  0  0  0  0  0
  190.6960  174.7000  137.9330 N   0  0  2  0  0  0  0  0  0  0  0  0
  190.7700  175.7650  138.8680 N   0  0  1  0  0  0  0  0  0  0  0  0
  192.0210  174.5300  137.3410 C   0  0  0  0  0  2  0  0  0  0  0  0
  191.9330  176.5800  138.5010 C   0  0  0  0  0  2  0  0  0  0  0  0
  192.9020  175.6460  137.8450 C   0  0  0  0  0  2  0  0  0  0  0  0
  189.5070  176.5030  138.7230 C   0  0  1  0  0  3  0  0  0  0  0  0
  184.3280  178.5900  142.1400 C   0  0  0  0  0  2  0  0  0  0  0  0
  183.7460  178.6650  140.7620 C   0  0  0  0  0  0  0  0  0  0  0  0
  183.2350  177.5840  140.2390 C   0  0  0  0  0  0  0  0  0  0  0  0
  182.7400  176.4990  139.7240 C   0  0  0  0  0  3  0  0  0  0  0  0
  184.6930  179.9370  138.9890 O   0  0  0  0  0  1  0  0  0  0  0  0
  183.8220  179.8350  139.9980 O   0  0  0  0  0  0  0  0  0  0  0  0
  182.0620  176.5330  138.4030 C   0  0  0  0  0  2  0  0  0  0  0  0
  180.7440  177.1400  138.5650 N   0  0  0  0  0  2  0  0  0  0  0  0
  180.5200  177.9920  137.3940 C   0  0  2  0  0  3  0  0  0  0  0  0
  180.6470  177.1780  136.1410 C   0  0  0  0  0  3  0  0  0  0  0  0
  179.7310  176.4560  135.7810 O   0  0  0  0  0  0  0  0  0  0  0  0
  181.4580  179.2130  137.3810 C   0  0  0  0  0  2  0  0  0  0  0  0
  180.1180  182.3820  135.6780 C   0  0  0  0  0  2  0  0  0  0  0  0
  180.7510  182.9970  137.7470 C   0  0  0  0  0  2  0  0  0  0  0  0
  180.9420  183.2730  136.3820 O   0  0  0  0  0  0  0  0  0  0  0  0
  181.3880  181.6500  138.0920 C   0  0  0  0  0  2  0  0  0  0  0  0
  180.7370  180.5540  137.2460 C   0  0  0  0  0  3  0  0  0  0  0  0
  180.6840  180.9650  135.7710 C   0  0  0  0  0  2  0  0  0  0  0  0
  1 18  1  6  0  0  0
  1  6  1  0  0  0  0
  1  7  1  0  0  0  0
  2 28  1  1  0  0  0
  2  4  1  0  0  0  0
  3  8  1  1  0  0  0
  4  3  1  0  0  0  0
  5  3  1  0  0  0  0
  6  2  1  0  0  0  0
  6  4  1  0  0  0  0
  7  5  1  0  0  0  0
  8 12  1  0  0  0  0
  8 11  1  0  0  0  0
  9 10  1  0  0  0  0
 11 13  1  0  0  0  0
 12  9  1  0  0  0  0
 13 10  1  0  0  0  0
 14  5  1  0  0  0  0
 15 14  1  0  0  0  0
 15 16  1  0  0  0  0
 16 17  1  0  0  0  0
 19 18  1  0  0  0  0
 20 27  1  0  0  0  0
 21 20  1  0  0  0  0
 21 22  1  0  0  0  0
 22 23  1  0  0  0  0
 24 26  1  0  0  0  0
 24 22  1  0  0  0  0
 25 23  1  0  0  0  0
 26 25  1  0  0  0  0
 27 23  1  0  0  0  0
 27 19  1  0  0  0  0
 29 28  1  0  0  0  0
 30 29  2  0  0  0  0
 31 30  2  0  0  0  0
 32 33  1  0  0  0  0
 33 29  1  0  0  0  0
 34 35  1  0  0  0  0
 34 31  1  0  0  0  0
 36 35  1  0  0  0  0
 37 36  1  0  0  0  0
 38 37  2  0  0  0  0
 39 36  1  0  0  0  0
 40 45  1  0  0  0  0
 40 42  1  0  0  0  0
 41 43  1  0  0  0  0
 42 41  1  0  0  0  0
 44 39  1  0  0  0  0
 44 43  1  0  0  0  0
 45 44  1  0  0  0  0
M  END
>  <MODEL>
2

>  <REMARK>
 VINA RESULT:      -7.5      1.948      3.624
  Name = 
  16 active torsions:
  status: ('A' for Active; 'I' for Inactive)
    1  A    between atoms: C_1  and  O_23
    2  A    between atoms: C_1  and  C_28
    3  A    between atoms: C_4  and  CA_5
    4  A    between atoms: CA_5  and  C_21
    5  A    between atoms: CA_5  and  N_45
    6  A    between atoms: C_6  and  C_25
    7  A    between atoms: O_7  and  C_10
    8  A    between atoms: O_7  and  N_34
    9  A    between atoms: C_10  and  O_14
   10  A    between atoms: C_12  and  C_22
   11  A    between atoms: C_17  and  C_28
   12  A    between atoms: C_18  and  C_22
   13  A    between atoms: C_18  and  C_41
   14  A    between atoms: C_21  and  C_29
   15  A    between atoms: C_35  and  C_37
   16  A    between atoms: C_37  and  N_45
                            x       y       z     vdW  Elec       q    Type
                         _______ _______ _______ _____ _____    ______ ____

>  <TORSDO>
F 16

$$$$
=
 OpenBabel11032420383D

 45 50  0  0  1  0  0  0  0  0999 V2000
  186.8890  178.0030  141.8770 C   0  0  2  0  0  3  0  0  0  0  0  0
  184.9760  178.1880  143.5060 C   0  0  2  0  0  3  0  0  0  0  0  0
  187.1170  177.4280  144.4800 C   0  0  1  0  0  3  0  0  0  0  0  0
  186.2420  178.6620  144.1990 C   0  0  1  0  0  3  0  0  0  0  0  0
  188.3400  177.3340  143.6430 N   0  0  0  0  0  0  0  0  0  0  0  0
  186.0240  178.9360  142.7090 C   0  0  1  0  0  3  0  0  0  0  0  0
  188.2460  178.0520  142.4190 N   0  0  0  0  0  2  0  0  0  0  0  0
  187.4260  177.3080  145.9710 C   0  0  0  0  0  3  0  0  0  0  0  0
  187.1950  178.5430  148.1910 C   0  0  0  0  0  2  0  0  0  0  0  0
  188.0770  177.4520  148.5780 N   0  0  0  0  0  2  0  0  0  0  0  0
  188.9250  177.4580  146.2290 C   0  0  0  0  0  2  0  0  0  0  0  0
  186.5750  178.2650  146.8230 C   0  0  0  0  0  2  0  0  0  0  0  0
  189.2640  177.5200  147.7270 C   0  0  0  0  0  2  0  0  0  0  0  0
  188.5260  176.0270  143.3230 O   0  0  0  0  0  0  0  0  0  0  0  0
  189.7010  176.0000  142.5670 C   0  0  0  0  0  2  0  0  0  0  0  0
  190.5940  175.0790  143.1100 O   0  0  0  0  0  0  0  0  0  0  0  0
  191.5580  175.8430  143.7760 C   0  0  0  0  0  1  0  0  0  0  0  0
  186.8900  178.4690  140.4350 C   0  0  0  0  0  2  0  0  0  0  0  0
  188.3070  178.5070  139.8880 C   0  0  0  0  0  2  0  0  0  0  0  0
  188.6210  178.5850  137.3870 C   0  0  0  0  0  2  0  0  0  0  0  0
  189.3890  177.6780  136.4520 C   0  0  0  0  0  2  0  0  0  0  0  0
  189.7410  176.4590  137.1930 N   0  0  2  0  0  0  0  0  0  0  0  0
  189.4520  176.6820  138.5650 N   0  0  1  0  0  0  0  0  0  0  0  0
  191.1840  176.2740  137.0630 C   0  0  0  0  0  2  0  0  0  0  0  0
  190.6910  177.1490  139.1940 C   0  0  0  0  0  2  0  0  0  0  0  0
  191.8100  176.5410  138.4090 C   0  0  0  0  0  2  0  0  0  0  0  0
  188.3980  177.7060  138.5830 C   0  0  1  0  0  3  0  0  0  0  0  0
  183.8310  179.1400  143.8060 C   0  0  0  0  0  2  0  0  0  0  0  0
  182.6540  178.8960  142.9130 C   0  0  0  0  0  0  0  0  0  0  0  0
  182.8700  178.5700  141.6680 C   0  0  0  0  0  0  0  0  0  0  0  0
  183.0980  178.2580  140.4270 C   0  0  0  0  0  3  0  0  0  0  0  0
  180.6150  180.1230  142.8960 O   0  0  0  0  0  1  0  0  0  0  0  0
  181.3430  179.1000  143.3570 O   0  0  0  0  0  0  0  0  0  0  0  0
  181.9760  177.9080  139.5200 C   0  0  0  0  0  2  0  0  0  0  0  0
  181.9420  176.4600  139.3460 N   0  0  0  0  0  2  0  0  0  0  0  0
  182.6160  176.1650  138.0800 C   0  0  2  0  0  3  0  0  0  0  0  0
  181.7650  176.6180  136.9320 C   0  0  0  0  0  3  0  0  0  0  0  0
  182.2370  177.3330  136.0610 O   0  0  0  0  0  0  0  0  0  0  0  0
  182.9930  174.6770  137.9600 C   0  0  0  0  0  2  0  0  0  0  0  0
  186.3430  173.0640  137.0010 C   0  0  0  0  0  2  0  0  0  0  0  0
  186.5130  175.2410  136.4610 C   0  0  0  0  0  2  0  0  0  0  0  0
  187.1130  174.2170  137.2140 O   0  0  0  0  0  0  0  0  0  0  0  0
  185.1830  175.6370  137.1050 C   0  0  0  0  0  2  0  0  0  0  0  0
  184.2620  174.4160  137.1470 C   0  0  0  0  0  3  0  0  0  0  0  0
  184.9970  173.1980  137.7140 C   0  0  0  0  0  2  0  0  0  0  0  0
  1 18  1  6  0  0  0
  1  7  1  0  0  0  0
  1  6  1  0  0  0  0
  2 28  1  1  0  0  0
  2  4  1  0  0  0  0
  3  8  1  1  0  0  0
  4  3  1  0  0  0  0
  5  3  1  0  0  0  0
  6  2  1  0  0  0  0
  6  4  1  0  0  0  0
  7  5  1  0  0  0  0
  8 11  1  0  0  0  0
  8 12  1  0  0  0  0
  9 10  1  0  0  0  0
 11 13  1  0  0  0  0
 12  9  1  0  0  0  0
 13 10  1  0  0  0  0
 14  5  1  0  0  0  0
 15 16  1  0  0  0  0
 15 14  1  0  0  0  0
 16 17  1  0  0  0  0
 19 18  1  0  0  0  0
 20 27  1  0  0  0  0
 21 22  1  0  0  0  0
 21 20  1  0  0  0  0
 22 23  1  0  0  0  0
 23 27  1  0  0  0  0
 23 25  1  0  0  0  0
 24 22  1  0  0  0  0
 24 26  1  0  0  0  0
 26 25  1  0  0  0  0
 27 19  1  0  0  0  0
 29 33  1  0  0  0  0
 29 28  1  0  0  0  0
 30 29  2  0  0  0  0
 31 30  2  0  0  0  0
 32 33  1  0  0  0  0
 34 31  1  0  0  0  0
 35 34  1  0  0  0  0
 36 35  1  0  0  0  0
 37 36  1  0  0  0  0
 38 37  2  0  0  0  0
 39 36  1  0  0  0  0
 40 42  1  0  0  0  0
 40 45  1  0  0  0  0
 41 43  1  0  0  0  0
 41 42  1  0  0  0  0
 43 44  1  0  0  0  0
 44 45  1  0  0  0  0
 44 39  1  0  0  0  0
M  END
>  <MODEL>
3

>  <REMARK>
 VINA RESULT:      -7.4      1.573      1.846
  Name = 
  16 active torsions:
  status: ('A' for Active; 'I' for Inactive)
    1  A    between atoms: C_1  and  O_23
    2  A    between atoms: C_1  and  C_28
    3  A    between atoms: C_4  and  CA_5
    4  A    between atoms: CA_5  and  C_21
    5  A    between atoms: CA_5  and  N_45
    6  A    between atoms: C_6  and  C_25
    7  A    between atoms: O_7  and  C_10
    8  A    between atoms: O_7  and  N_34
    9  A    between atoms: C_10  and  O_14
   10  A    between atoms: C_12  and  C_22
   11  A    between atoms: C_17  and  C_28
   12  A    between atoms: C_18  and  C_22
   13  A    between atoms: C_18  and  C_41
   14  A    between atoms: C_21  and  C_29
   15  A    between atoms: C_35  and  C_37
   16  A    between atoms: C_37  and  N_45
                            x       y       z     vdW  Elec       q    Type
                         _______ _______ _______ _____ _____    ______ ____

>  <TORSDO>
F 16

$$$$
=
 OpenBabel11032420383D

 45 50  0  0  1  0  0  0  0  0999 V2000
  186.0070  178.4340  141.8540 C   0  0  2  0  0  3  0  0  0  0  0  0
  184.3260  178.3060  143.7260 C   0  0  2  0  0  3  0  0  0  0  0  0
  186.6270  177.6330  144.3300 C   0  0  1  0  0  3  0  0  0  0  0  0
  185.6400  178.8130  144.2970 C   0  0  1  0  0  3  0  0  0  0  0  0
  187.7280  177.7180  143.3370 N   0  0  0  0  0  0  0  0  0  0  0  0
  185.2030  179.2090  142.8850 C   0  0  1  0  0  3  0  0  0  0  0  0
  187.4190  178.5400  142.2180 N   0  0  0  0  0  2  0  0  0  0  0  0
  187.1440  177.3950  145.7480 C   0  0  0  0  0  3  0  0  0  0  0  0
  187.2350  178.4460  148.0700 C   0  0  0  0  0  2  0  0  0  0  0  0
  188.1590  177.3350  148.2390 N   0  0  0  0  0  2  0  0  0  0  0  0
  188.6650  177.5360  145.8020 C   0  0  0  0  0  2  0  0  0  0  0  0
  186.4260  178.2740  146.7870 C   0  0  0  0  0  2  0  0  0  0  0  0
  189.2140  177.4810  147.2370 C   0  0  0  0  0  2  0  0  0  0  0  0
  187.9560  176.4680  142.8590 O   0  0  0  0  0  0  0  0  0  0  0  0
  189.2670  176.4960  142.3770 C   0  0  0  0  0  2  0  0  0  0  0  0
  189.9870  175.4210  142.8950 O   0  0  0  0  0  0  0  0  0  0  0  0
  191.1330  175.9820  143.4670 C   0  0  0  0  0  1  0  0  0  0  0  0
  185.7790  179.0350  140.4820 C   0  0  0  0  0  2  0  0  0  0  0  0
  186.1600  178.0430  139.3950 C   0  0  0  0  0  2  0  0  0  0  0  0
  188.5360  177.2960  139.0010 C   0  0  0  0  0  2  0  0  0  0  0  0
  189.4500  177.4720  137.8090 C   0  0  0  0  0  2  0  0  0  0  0  0
  188.8430  178.4700  136.9180 N   0  0  2  0  0  0  0  0  0  0  0  0
  187.5210  178.7160  137.3730 N   0  0  1  0  0  0  0  0  0  0  0  0
  188.7550  177.8690  135.5900 C   0  0  0  0  0  2  0  0  0  0  0  0
  186.6330  177.8310  136.6130 C   0  0  0  0  0  2  0  0  0  0  0  0
  187.2990  177.6110  135.2910 C   0  0  0  0  0  2  0  0  0  0  0  0
  187.5320  178.3940  138.8070 C   0  0  1  0  0  3  0  0  0  0  0  0
  183.1710  179.1290  144.2710 C   0  0  0  0  0  2  0  0  0  0  0  0
  181.8910  178.8380  143.5510 C   0  0  0  0  0  0  0  0  0  0  0  0
  181.9020  178.7980  142.2470 C   0  0  0  0  0  0  0  0  0  0  0  0
  181.9230  178.7720  140.9480 C   0  0  0  0  0  3  0  0  0  0  0  0
  179.8130  177.7380  143.9130 O   0  0  0  0  0  1  0  0  0  0  0  0
  180.6790  178.7030  144.2380 O   0  0  0  0  0  0  0  0  0  0  0  0
  180.7090  178.3930  140.1810 C   0  0  0  0  0  2  0  0  0  0  0  0
  181.0800  177.4200  139.1590 N   0  0  0  0  0  2  0  0  0  0  0  0
  180.8630  178.0620  137.8600 C   0  0  2  0  0  3  0  0  0  0  0  0
  182.1800  178.3120  137.1890 C   0  0  0  0  0  3  0  0  0  0  0  0
  183.1870  177.7400  137.5780 O   0  0  0  0  0  0  0  0  0  0  0  0
  180.0310  179.3520  137.9860 C   0  0  0  0  0  2  0  0  0  0  0  0
  181.2720  182.9690  137.6470 C   0  0  0  0  0  2  0  0  0  0  0  0
  180.4750  182.3830  135.6270 C   0  0  0  0  0  2  0  0  0  0  0  0
  180.3510  183.3350  136.6540 O   0  0  0  0  0  0  0  0  0  0  0  0
  179.9030  181.0450  136.0970 C   0  0  0  0  0  2  0  0  0  0  0  0
  180.6730  180.5760  137.3340 C   0  0  0  0  0  3  0  0  0  0  0  0
  180.7920  181.7060  138.3610 C   0  0  0  0  0  2  0  0  0  0  0  0
  1 18  1  6  0  0  0
  1  7  1  0  0  0  0
  1  6  1  0  0  0  0
  2 28  1  1  0  0  0
  2  4  1  0  0  0  0
  3  8  1  1  0  0  0
  4  3  1  0  0  0  0
  5  3  1  0  0  0  0
  6  2  1  0  0  0  0
  6  4  1  0  0  0  0
  7  5  1  0  0  0  0
  8 11  1  0  0  0  0
  8 12  1  0  0  0  0
  9 10  1  0  0  0  0
 11 13  1  0  0  0  0
 12  9  1  0  0  0  0
 13 10  1  0  0  0  0
 14  5  1  0  0  0  0
 15 14  1  0  0  0  0
 15 16  1  0  0  0  0
 16 17  1  0  0  0  0
 19 18  1  0  0  0  0
 21 20  1  0  0  0  0
 22 23  1  0  0  0  0
 22 21  1  0  0  0  0
 23 27  1  0  0  0  0
 24 22  1  0  0  0  0
 25 23  1  0  0  0  0
 26 24  1  0  0  0  0
 26 25  1  0  0  0  0
 27 20  1  0  0  0  0
 27 19  1  0  0  0  0
 29 33  1  0  0  0  0
 29 28  1  0  0  0  0
 30 29  2  0  0  0  0
 31 30  2  0  0  0  0
 32 33  1  0  0  0  0
 34 31  1  0  0  0  0
 35 34  1  0  0  0  0
 36 39  1  0  0  0  0
 36 35  1  0  0  0  0
 37 38  2  0  0  0  0
 37 36  1  0  0  0  0
 40 45  1  0  0  0  0
 41 43  1  0  0  0  0
 41 42  1  0  0  0  0
 42 40  1  0  0  0  0
 43 44  1  0  0  0  0
 44 39  1  0  0  0  0
 44 45  1  0  0  0  0
M  END
>  <MODEL>
4

>  <REMARK>
 VINA RESULT:      -7.4      2.851      4.603
  Name = 
  16 active torsions:
  status: ('A' for Active; 'I' for Inactive)
    1  A    between atoms: C_1  and  O_23
    2  A    between atoms: C_1  and  C_28
    3  A    between atoms: C_4  and  CA_5
    4  A    between atoms: CA_5  and  C_21
    5  A    between atoms: CA_5  and  N_45
    6  A    between atoms: C_6  and  C_25
    7  A    between atoms: O_7  and  C_10
    8  A    between atoms: O_7  and  N_34
    9  A    between atoms: C_10  and  O_14
   10  A    between atoms: C_12  and  C_22
   11  A    between atoms: C_17  and  C_28
   12  A    between atoms: C_18  and  C_22
   13  A    between atoms: C_18  and  C_41
   14  A    between atoms: C_21  and  C_29
   15  A    between atoms: C_35  and  C_37
   16  A    between atoms: C_37  and  N_45
                            x       y       z     vdW  Elec       q    Type
                         _______ _______ _______ _____ _____    ______ ____

>  <TORSDO>
F 16

$$$$
=
 OpenBabel11032420383D

 45 50  0  0  1  0  0  0  0  0999 V2000
  188.4670  177.8750  141.3870 C   0  0  2  0  0  3  0  0  0  0  0  0
  186.1650  177.7420  142.4000 C   0  0  2  0  0  3  0  0  0  0  0  0
  188.0300  177.3530  143.9740 C   0  0  1  0  0  3  0  0  0  0  0  0
  187.0880  178.4230  143.3970 C   0  0  1  0  0  3  0  0  0  0  0  0
  189.4410  177.4620  143.5210 N   0  0  0  0  0  0  0  0  0  0  0  0
  187.2640  178.6520  141.8950 C   0  0  1  0  0  3  0  0  0  0  0  0
  189.5870  178.1510  142.2850 N   0  0  0  0  0  2  0  0  0  0  0  0
  187.9160  177.2890  145.4960 C   0  0  0  0  0  3  0  0  0  0  0  0
  186.7200  178.3560  147.4800 C   0  0  0  0  0  2  0  0  0  0  0  0
  187.7190  177.5500  148.1670 N   0  0  0  0  0  2  0  0  0  0  0  0
  189.1730  177.8510  146.1600 C   0  0  0  0  0  2  0  0  0  0  0  0
  186.6240  177.9460  146.0130 C   0  0  0  0  0  2  0  0  0  0  0  0
  189.0330  177.9710  147.6860 C   0  0  0  0  0  2  0  0  0  0  0  0
  189.9160  176.2040  143.3320 O   0  0  0  0  0  0  0  0  0  0  0  0
  191.3070  176.3330  143.3500 C   0  0  0  0  0  2  0  0  0  0  0  0
  191.8660  175.3340  144.1460 O   0  0  0  0  0  0  0  0  0  0  0  0
  191.9320  175.8770  145.4330 C   0  0  0  0  0  1  0  0  0  0  0  0
  188.8050  178.3310  139.9820 C   0  0  0  0  0  2  0  0  0  0  0  0
  188.5570  177.2130  138.9830 C   0  0  0  0  0  2  0  0  0  0  0  0
  188.0220  178.5260  136.8980 C   0  0  0  0  0  2  0  0  0  0  0  0
  187.1300  178.2030  135.7200 C   0  0  0  0  0  2  0  0  0  0  0  0
  186.3030  177.0440  136.0850 N   0  0  2  0  0  0  0  0  0  0  0  0
  186.8110  176.5070  137.2960 N   0  0  1  0  0  0  0  0  0  0  0  0
  186.4810  176.0390  135.0400 C   0  0  0  0  0  2  0  0  0  0  0  0
  187.7470  175.4380  136.9340 C   0  0  0  0  0  2  0  0  0  0  0  0
  187.2660  174.8920  135.6260 C   0  0  0  0  0  2  0  0  0  0  0  0
  187.4820  177.6270  137.9720 C   0  0  1  0  0  3  0  0  0  0  0  0
  184.8450  178.4900  142.3190 C   0  0  0  0  0  2  0  0  0  0  0  0
  184.4070  178.6950  140.9010 C   0  0  0  0  0  0  0  0  0  0  0  0
  183.5900  177.8290  140.3680 C   0  0  0  0  0  0  0  0  0  0  0  0
  182.7860  176.9530  139.8430 C   0  0  0  0  0  3  0  0  0  0  0  0
  184.2280  180.2240  139.0870 O   0  0  0  0  0  1  0  0  0  0  0  0
  184.9240  179.7330  140.1180 O   0  0  0  0  0  0  0  0  0  0  0  0
  182.2400  177.1540  138.4770 C   0  0  0  0  0  2  0  0  0  0  0  0
  180.8470  176.7180  138.4560 N   0  0  0  0  0  2  0  0  0  0  0  0
  180.7930  175.5020  137.6420 C   0  0  2  0  0  3  0  0  0  0  0  0
  180.4620  174.3240  138.5080 C   0  0  0  0  0  3  0  0  0  0  0  0
  179.6290  173.5070  138.1440 O   0  0  0  0  0  0  0  0  0  0  0  0
  182.0930  175.2810  136.8470 C   0  0  0  0  0  2  0  0  0  0  0  0
  184.9160  172.8370  137.7410 C   0  0  0  0  0  2  0  0  0  0  0  0
  183.6640  171.8110  136.1810 C   0  0  0  0  0  2  0  0  0  0  0  0
  184.9720  172.2280  136.4790 O   0  0  0  0  0  0  0  0  0  0  0  0
  182.7900  173.0320  135.8930 C   0  0  0  0  0  2  0  0  0  0  0  0
  182.7760  173.9410  137.1240 C   0  0  0  0  0  3  0  0  0  0  0  0
  184.1980  174.1820  137.6390 C   0  0  0  0  0  2  0  0  0  0  0  0
  1 18  1  6  0  0  0
  1  6  1  0  0  0  0
  1  7  1  0  0  0  0
  2 28  1  1  0  0  0
  2  4  1  0  0  0  0
  3  8  1  1  0  0  0
  4  3  1  0  0  0  0
  5  3  1  0  0  0  0
  6  2  1  0  0  0  0
  6  4  1  0  0  0  0
  7  5  1  0  0  0  0
  8 12  1  0  0  0  0
  8 11  1  0  0  0  0
  9 10  1  0  0  0  0
 11 13  1  0  0  0  0
 12  9  1  0  0  0  0
 13 10  1  0  0  0  0
 14 15  1  0  0  0  0
 14  5  1  0  0  0  0
 15 16  1  0  0  0  0
 16 17  1  0  0  0  0
 19 18  1  0  0  0  0
 20 27  1  0  0  0  0
 21 22  1  0  0  0  0
 21 20  1  0  0  0  0
 22 23  1  0  0  0  0
 23 27  1  0  0  0  0
 24 26  1  0  0  0  0
 24 22  1  0  0  0  0
 25 23  1  0  0  0  0
 26 25  1  0  0  0  0
 27 19  1  0  0  0  0
 29 28  1  0  0  0  0
 30 29  2  0  0  0  0
 31 30  2  0  0  0  0
 32 33  1  0  0  0  0
 33 29  1  0  0  0  0
 34 31  1  0  0  0  0
 35 34  1  0  0  0  0
 36 35  1  0  0  0  0
 36 37  1  0  0  0  0
 38 37  2  0  0  0  0
 39 44  1  0  0  0  0
 39 36  1  0  0  0  0
 41 42  1  0  0  0  0
 42 40  1  0  0  0  0
 43 41  1  0  0  0  0
 43 44  1  0  0  0  0
 44 45  1  0  0  0  0
 45 40  1  0  0  0  0
M  END
>  <MODEL>
5

>  <REMARK>
 VINA RESULT:      -7.3      1.912      2.553
  Name = 
  16 active torsions:
  status: ('A' for Active; 'I' for Inactive)
    1  A    between atoms: C_1  and  O_23
    2  A    between atoms: C_1  and  C_28
    3  A    between atoms: C_4  and  CA_5
    4  A    between atoms: CA_5  and  C_21
    5  A    between atoms: CA_5  and  N_45
    6  A    between atoms: C_6  and  C_25
    7  A    between atoms: O_7  and  C_10
    8  A    between atoms: O_7  and  N_34
    9  A    between atoms: C_10  and  O_14
   10  A    between atoms: C_12  and  C_22
   11  A    between atoms: C_17  and  C_28
   12  A    between atoms: C_18  and  C_22
   13  A    between atoms: C_18  and  C_41
   14  A    between atoms: C_21  and  C_29
   15  A    between atoms: C_35  and  C_37
   16  A    between atoms: C_37  and  N_45
                            x       y       z     vdW  Elec       q    Type
                         _______ _______ _______ _____ _____    ______ ____

>  <TORSDO>
F 16

$$$$
=
 OpenBabel11032420383D

 45 50  0  0  1  0  0  0  0  0999 V2000
  185.1100  178.6230  144.4080 C   0  0  2  0  0  3  0  0  0  0  0  0
  186.5550  178.8230  142.3540 C   0  0  2  0  0  3  0  0  0  0  0  0
  187.6730  177.8570  144.3360 C   0  0  1  0  0  3  0  0  0  0  0  0
  186.8950  177.5170  143.0530 C   0  0  1  0  0  3  0  0  0  0  0  0
  186.9190  177.6280  145.5960 N   0  0  0  0  0  0  0  0  0  0  0  0
  185.4580  178.0430  143.0470 C   0  0  1  0  0  3  0  0  0  0  0  0
  185.5070  177.6480  145.4230 N   0  0  0  0  0  2  0  0  0  0  0  0
  189.0370  177.1700  144.3460 C   0  0  0  0  0  3  0  0  0  0  0  0
  191.5010  177.5580  143.8130 C   0  0  0  0  0  2  0  0  0  0  0  0
  191.4930  176.1190  144.0300 N   0  0  0  0  0  2  0  0  0  0  0  0
  189.1270  176.1270  143.2320 C   0  0  0  0  0  2  0  0  0  0  0  0
  190.1990  178.1770  144.3160 C   0  0  0  0  0  2  0  0  0  0  0  0
  190.5380  175.5350  143.0890 C   0  0  0  0  0  2  0  0  0  0  0  0
  187.2270  178.6330  146.4550 O   0  0  0  0  0  0  0  0  0  0  0  0
  187.3100  178.0260  147.7110 C   0  0  0  0  0  2  0  0  0  0  0  0
  188.3110  177.0550  147.7040 O   0  0  0  0  0  0  0  0  0  0  0  0
  189.4740  177.7170  148.1070 C   0  0  0  0  0  1  0  0  0  0  0  0
  183.6170  178.8700  144.4840 C   0  0  0  0  0  2  0  0  0  0  0  0
  183.0690  179.2520  143.1180 C   0  0  0  0  0  2  0  0  0  0  0  0
  180.5730  179.5960  143.2130 C   0  0  0  0  0  2  0  0  0  0  0  0
  179.4690  179.1300  142.2920 C   0  0  0  0  0  2  0  0  0  0  0  0
  180.0300  178.1130  141.3930 N   0  0  2  0  0  0  0  0  0  0  0  0
  181.4410  178.1200  141.5500 N   0  0  1  0  0  0  0  0  0  0  0  0
  179.7290  178.5290  140.0250 C   0  0  0  0  0  2  0  0  0  0  0  0
  181.9840  179.0060  140.5160 C   0  0  0  0  0  2  0  0  0  0  0  0
  181.0230  178.9440  139.3700 C   0  0  0  0  0  2  0  0  0  0  0  0
  181.6820  178.6330  142.9060 C   0  0  1  0  0  3  0  0  0  0  0  0
  186.4350  178.5950  140.8570 C   0  0  0  0  0  2  0  0  0  0  0  0
  187.7760  178.4250  140.2100 C   0  0  0  0  0  0  0  0  0  0  0  0
  187.8240  178.1640  138.9330 C   0  0  0  0  0  0  0  0  0  0  0  0
  187.8600  177.8930  137.6620 C   0  0  0  0  0  3  0  0  0  0  0  0
  190.0650  177.8490  140.5060 O   0  0  0  0  0  1  0  0  0  0  0  0
  188.9580  178.4470  140.9590 O   0  0  0  0  0  0  0  0  0  0  0  0
  189.1590  177.8100  136.9450 C   0  0  0  0  0  2  0  0  0  0  0  0
  189.1450  176.6370  136.0780 N   0  0  0  0  0  2  0  0  0  0  0  0
  189.0470  175.4630  136.9480 C   0  0  2  0  0  3  0  0  0  0  0  0
  190.4170  174.9320  137.2440 C   0  0  0  0  0  3  0  0  0  0  0  0
  190.9270  175.1200  138.3380 O   0  0  0  0  0  0  0  0  0  0  0  0
  188.1290  174.3780  136.3530 C   0  0  0  0  0  2  0  0  0  0  0  0
  184.9410  172.6370  137.5960 C   0  0  0  0  0  2  0  0  0  0  0  0
  184.3770  174.7780  137.1970 C   0  0  0  0  0  2  0  0  0  0  0  0
  184.0540  173.4490  136.8730 O   0  0  0  0  0  0  0  0  0  0  0  0
  185.7180  175.1480  136.5620 C   0  0  0  0  0  2  0  0  0  0  0  0
  186.8020  174.2070  137.0920 C   0  0  0  0  0  3  0  0  0  0  0  0
  186.3460  172.7480  137.0050 C   0  0  0  0  0  2  0  0  0  0  0  0
  1 18  1  6  0  0  0
  1  7  1  0  0  0  0
  2 28  1  6  0  0  0
  2  6  1  0  0  0  0
  2  4  1  0  0  0  0
  3  8  1  1  0  0  0
  3  5  1  0  0  0  0
  4  3  1  0  0  0  0
  5 14  1  0  0  0  0
  6  4  1  0  0  0  0
  6  1  1  0  0  0  0
  7  5  1  0  0  0  0
  9 10  1  0  0  0  0
  9 12  1  0  0  0  0
 11  8  1  0  0  0  0
 12  8  1  0  0  0  0
 13 11  1  0  0  0  0
 13 10  1  0  0  0  0
 14 15  1  0  0  0  0
 16 15  1  0  0  0  0
 16 17  1  0  0  0  0
 19 18  1  0  0  0  0
 21 20  1  0  0  0  0
 22 23  1  0  0  0  0
 22 21  1  0  0  0  0
 23 27  1  0  0  0  0
 24 22  1  0  0  0  0
 25 23  1  0  0  0  0
 26 24  1  0  0  0  0
 26 25  1  0  0  0  0
 27 19  1  0  0  0  0
 27 20  1  0  0  0  0
 29 28  1  0  0  0  0
 29 33  1  0  0  0  0
 30 29  2  0  0  0  0
 31 30  2  0  0  0  0
 32 33  1  0  0  0  0
 34 31  1  0  0  0  0
 35 34  1  0  0  0  0
 35 36  1  0  0  0  0
 36 37  1  0  0  0  0
 37 38  2  0  0  0  0
 39 36  1  0  0  0  0
 39 44  1  0  0  0  0
 42 41  1  0  0  0  0
 42 40  1  0  0  0  0
 43 44  1  0  0  0  0
 43 41  1  0  0  0  0
 45 44  1  0  0  0  0
 45 40  1  0  0  0  0
M  END
>  <MODEL>
6

>  <REMARK>
 VINA RESULT:      -7.2      2.505      6.618
  Name = 
  16 active torsions:
  status: ('A' for Active; 'I' for Inactive)
    1  A    between atoms: C_1  and  O_23
    2  A    between atoms: C_1  and  C_28
    3  A    between atoms: C_4  and  CA_5
    4  A    between atoms: CA_5  and  C_21
    5  A    between atoms: CA_5  and  N_45
    6  A    between atoms: C_6  and  C_25
    7  A    between atoms: O_7  and  C_10
    8  A    between atoms: O_7  and  N_34
    9  A    between atoms: C_10  and  O_14
   10  A    between atoms: C_12  and  C_22
   11  A    between atoms: C_17  and  C_28
   12  A    between atoms: C_18  and  C_22
   13  A    between atoms: C_18  and  C_41
   14  A    between atoms: C_21  and  C_29
   15  A    between atoms: C_35  and  C_37
   16  A    between atoms: C_37  and  N_45
                            x       y       z     vdW  Elec       q    Type
                         _______ _______ _______ _____ _____    ______ ____

>  <TORSDO>
F 16

$$$$
=
 OpenBabel11032420383D

 45 50  0  0  1  0  0  0  0  0999 V2000
  185.4240  178.5910  141.9140 C   0  0  2  0  0  3  0  0  0  0  0  0
  183.4380  177.7760  140.5970 C   0  0  2  0  0  3  0  0  0  0  0  0
  182.8960  178.8850  142.7380 C   0  0  1  0  0  3  0  0  0  0  0  0
  183.0790  179.1110  141.2280 C   0  0  1  0  0  3  0  0  0  0  0  0
  183.9700  179.4660  143.5850 N   0  0  0  0  0  0  0  0  0  0  0  0
  184.5020  178.8450  140.7330 C   0  0  1  0  0  3  0  0  0  0  0  0
  185.1980  179.6540  142.8930 N   0  0  0  0  0  2  0  0  0  0  0  0
  181.5030  179.3220  143.1910 C   0  0  0  0  0  3  0  0  0  0  0  0
  179.3800  178.4630  144.3120 C   0  0  0  0  0  2  0  0  0  0  0  0
  178.9330  179.7670  143.8460 N   0  0  0  0  0  2  0  0  0  0  0  0
  180.5860  179.5420  141.9890 C   0  0  0  0  0  2  0  0  0  0  0  0
  180.9020  178.3650  144.2340 C   0  0  0  0  0  2  0  0  0  0  0  0
  179.1290  179.8100  142.3970 C   0  0  0  0  0  2  0  0  0  0  0  0
  184.2150  178.5980  144.6000 O   0  0  0  0  0  0  0  0  0  0  0  0
  185.1210  179.2600  145.4340 C   0  0  0  0  0  2  0  0  0  0  0  0
  184.8500  178.9540  146.7660 O   0  0  0  0  0  0  0  0  0  0  0  0
  186.0970  178.7300  147.3570 C   0  0  0  0  0  1  0  0  0  0  0  0
  186.8650  178.6180  141.4440 C   0  0  0  0  0  2  0  0  0  0  0  0
  187.6660  177.5150  142.1140 C   0  0  0  0  0  2  0  0  0  0  0  0
  187.9170  177.0730  144.5840 C   0  0  0  0  0  2  0  0  0  0  0  0
  189.0900  177.2790  145.5170 C   0  0  0  0  0  2  0  0  0  0  0  0
  190.0810  178.1090  144.8200 N   0  0  2  0  0  0  0  0  0  0  0  0
  189.6920  178.2050  143.4590 N   0  0  1  0  0  0  0  0  0  0  0  0
  191.3560  177.3970  144.8730 C   0  0  0  0  0  2  0  0  0  0  0  0
  190.4030  177.1490  142.7320 C   0  0  0  0  0  2  0  0  0  0  0  0
  191.6790  176.9180  143.4790 C   0  0  0  0  0  2  0  0  0  0  0  0
  188.2370  178.0040  143.4500 C   0  0  1  0  0  3  0  0  0  0  0  0
  182.9720  177.7430  139.1510 C   0  0  0  0  0  2  0  0  0  0  0  0
  183.7250  176.7270  138.3470 C   0  0  0  0  0  0  0  0  0  0  0  0
  184.6990  177.1340  137.5800 C   0  0  0  0  0  0  0  0  0  0  0  0
  185.6590  177.5510  136.8100 C   0  0  0  0  0  3  0  0  0  0  0  0
  183.7830  174.5580  137.3710 O   0  0  0  0  0  1  0  0  0  0  0  0
  183.3460  175.3800  138.3310 O   0  0  0  0  0  0  0  0  0  0  0  0
  186.5040  176.5830  136.0650 C   0  0  0  0  0  2  0  0  0  0  0  0
  187.7950  177.2020  135.7830 N   0  0  0  0  0  2  0  0  0  0  0  0
  188.5690  177.1600  137.0260 C   0  0  2  0  0  3  0  0  0  0  0  0
  189.2580  178.4740  137.2410 C   0  0  0  0  0  3  0  0  0  0  0  0
  188.6670  179.3980  137.7790 O   0  0  0  0  0  0  0  0  0  0  0  0
  189.5620  175.9830  137.0480 C   0  0  0  0  0  2  0  0  0  0  0  0
  193.2640  176.0040  136.0280 C   0  0  0  0  0  2  0  0  0  0  0  0
  193.2180  176.3680  138.2470 C   0  0  0  0  0  2  0  0  0  0  0  0
  193.7440  175.5230  137.2550 O   0  0  0  0  0  0  0  0  0  0  0  0
  191.7150  176.1200  138.3870 C   0  0  0  0  0  2  0  0  0  0  0  0
  191.0320  176.4040  137.0480 C   0  0  0  0  0  3  0  0  0  0  0  0
  191.7690  175.7070  135.9020 C   0  0  0  0  0  2  0  0  0  0  0  0
  1 18  1  6  0  0  0
  1  7  1  0  0  0  0
  2 28  1  6  0  0  0
  2  6  1  0  0  0  0
  2  4  1  0  0  0  0
  3  8  1  1  0  0  0
  3  5  1  0  0  0  0
  4  3  1  0  0  0  0
  5 14  1  0  0  0  0
  6  4  1  0  0  0  0
  6  1  1  0  0  0  0
  7  5  1  0  0  0  0
  8 12  1  0  0  0  0
 10  9  1  0  0  0  0
 11 13  1  0  0  0  0
 11  8  1  0  0  0  0
 12  9  1  0  0  0  0
 13 10  1  0  0  0  0
 14 15  1  0  0  0  0
 15 16  1  0  0  0  0
 16 17  1  0  0  0  0
 18 19  1  0  0  0  0
 19 27  1  0  0  0  0
 20 21  1  0  0  0  0
 22 24  1  0  0  0  0
 22 21  1  0  0  0  0
 23 22  1  0  0  0  0
 25 23  1  0  0  0  0
 25 26  1  0  0  0  0
 26 24  1  0  0  0  0
 27 23  1  0  0  0  0
 27 20  1  0  0  0  0
 29 28  1  0  0  0  0
 30 29  2  0  0  0  0
 31 30  2  0  0  0  0
 32 33  1  0  0  0  0
 33 29  1  0  0  0  0
 34 31  1  0  0  0  0
 35 34  1  0  0  0  0
 35 36  1  0  0  0  0
 36 39  1  0  0  0  0
 36 37  1  0  0  0  0
 37 38  2  0  0  0  0
 40 42  1  0  0  0  0
 41 43  1  0  0  0  0
 42 41  1  0  0  0  0
 44 39  1  0  0  0  0
 44 43  1  0  0  0  0
 45 40  1  0  0  0  0
 45 44  1  0  0  0  0
M  END
>  <MODEL>
7

>  <REMARK>
 VINA RESULT:      -7.0      3.086      6.485
  Name = 
  16 active torsions:
  status: ('A' for Active; 'I' for Inactive)
    1  A    between atoms: C_1  and  O_23
    2  A    between atoms: C_1  and  C_28
    3  A    between atoms: C_4  and  CA_5
    4  A    between atoms: CA_5  and  C_21
    5  A    between atoms: CA_5  and  N_45
    6  A    between atoms: C_6  and  C_25
    7  A    between atoms: O_7  and  C_10
    8  A    between atoms: O_7  and  N_34
    9  A    between atoms: C_10  and  O_14
   10  A    between atoms: C_12  and  C_22
   11  A    between atoms: C_17  and  C_28
   12  A    between atoms: C_18  and  C_22
   13  A    between atoms: C_18  and  C_41
   14  A    between atoms: C_21  and  C_29
   15  A    between atoms: C_35  and  C_37
   16  A    between atoms: C_37  and  N_45
                            x       y       z     vdW  Elec       q    Type
                         _______ _______ _______ _____ _____    ______ ____

>  <TORSDO>
F 16

$$$$
=
 OpenBabel11032420383D

 45 50  0  0  1  0  0  0  0  0999 V2000
  186.7500  178.2520  142.3170 C   0  0  2  0  0  3  0  0  0  0  0  0
  189.2530  178.2240  142.0290 C   0  0  2  0  0  3  0  0  0  0  0  0
  188.4460  177.5810  144.2750 C   0  0  1  0  0  3  0  0  0  0  0  0
  188.8580  177.0400  142.8950 C   0  0  1  0  0  3  0  0  0  0  0  0
  186.9910  177.4970  144.5630 N   0  0  0  0  0  0  0  0  0  0  0  0
  187.9490  177.5050  141.7550 C   0  0  1  0  0  3  0  0  0  0  0  0
  186.1840  177.4400  143.3930 N   0  0  0  0  0  2  0  0  0  0  0  0
  189.2910  176.9520  145.3810 C   0  0  0  0  0  3  0  0  0  0  0  0
  190.2870  177.4260  147.6810 C   0  0  0  0  0  2  0  0  0  0  0  0
  190.9530  176.1760  147.3490 N   0  0  0  0  0  2  0  0  0  0  0  0
  190.7530  176.8400  144.9510 C   0  0  0  0  0  2  0  0  0  0  0  0
  189.1200  177.6750  146.7290 C   0  0  0  0  0  2  0  0  0  0  0  0
  191.6730  176.3780  146.0920 C   0  0  0  0  0  2  0  0  0  0  0  0
  186.6340  178.6200  145.2370 O   0  0  0  0  0  0  0  0  0  0  0  0
  185.7520  178.1850  146.2290 C   0  0  0  0  0  2  0  0  0  0  0  0
  184.7870  179.1610  146.4680 O   0  0  0  0  0  0  0  0  0  0  0  0
  183.8380  179.0030  145.4530 C   0  0  0  0  0  1  0  0  0  0  0  0
  185.7220  178.4510  141.2220 C   0  0  0  0  0  2  0  0  0  0  0  0
  184.3350  178.6260  141.8180 C   0  0  0  0  0  2  0  0  0  0  0  0
  183.0790  177.1280  140.2250 C   0  0  0  0  0  2  0  0  0  0  0  0
  181.6270  177.1210  139.8010 C   0  0  0  0  0  2  0  0  0  0  0  0
  181.0200  178.3820  140.2480 N   0  0  2  0  0  0  0  0  0  0  0  0
  181.9400  179.0270  141.1160 N   0  0  1  0  0  0  0  0  0  0  0  0
  179.8320  178.0410  141.0260 C   0  0  0  0  0  2  0  0  0  0  0  0
  181.5850  178.6370  142.4840 C   0  0  0  0  0  2  0  0  0  0  0  0
  180.1120  178.3720  142.4710 C   0  0  0  0  0  2  0  0  0  0  0  0
  183.2660  178.5320  140.7230 C   0  0  1  0  0  3  0  0  0  0  0  0
  190.2690  177.7900  140.9870 C   0  0  0  0  0  2  0  0  0  0  0  0
  189.7190  177.8860  139.5970 C   0  0  0  0  0  0  0  0  0  0  0  0
  189.9700  176.9200  138.7570 C   0  0  0  0  0  0  0  0  0  0  0  0
  190.2360  175.9580  137.9250 C   0  0  0  0  0  3  0  0  0  0  0  0
  189.0550  179.3870  137.8740 O   0  0  0  0  0  1  0  0  0  0  0  0
  189.0280  179.0220  139.1600 O   0  0  0  0  0  0  0  0  0  0  0  0
  189.6380  175.9490  136.5660 C   0  0  0  0  0  2  0  0  0  0  0  0
  188.1850  176.0190  136.6890 N   0  0  0  0  0  2  0  0  0  0  0  0
  187.6460  176.1220  135.3310 C   0  0  2  0  0  3  0  0  0  0  0  0
  187.2030  177.5300  135.0650 C   0  0  0  0  0  3  0  0  0  0  0  0
  186.8040  178.2320  135.9810 O   0  0  0  0  0  0  0  0  0  0  0  0
  186.5130  175.1090  135.0810 C   0  0  0  0  0  2  0  0  0  0  0  0
  184.9320  172.6300  137.5500 C   0  0  0  0  0  2  0  0  0  0  0  0
  183.7070  174.5120  137.6730 C   0  0  0  0  0  2  0  0  0  0  0  0
  183.6280  173.1300  137.4260 O   0  0  0  0  0  0  0  0  0  0  0  0
  184.4120  175.2010  136.5040 C   0  0  0  0  0  2  0  0  0  0  0  0
  185.8190  174.6200  136.3520 C   0  0  0  0  0  3  0  0  0  0  0  0
  185.7800  173.0890  136.3640 C   0  0  0  0  0  2  0  0  0  0  0  0
  1 18  1  6  0  0  0
  1  7  1  0  0  0  0
  2 28  1  6  0  0  0
  2  4  1  0  0  0  0
  3  5  1  0  0  0  0
  3  8  1  1  0  0  0
  4  3  1  0  0  0  0
  5 14  1  0  0  0  0
  6  2  1  0  0  0  0
  6  1  1  0  0  0  0
  6  4  1  0  0  0  0
  7  5  1  0  0  0  0
  8 12  1  0  0  0  0
 10  9  1  0  0  0  0
 11  8  1  0  0  0  0
 11 13  1  0  0  0  0
 12  9  1  0  0  0  0
 13 10  1  0  0  0  0
 14 15  1  0  0  0  0
 15 16  1  0  0  0  0
 17 16  1  0  0  0  0
 18 19  1  0  0  0  0
 20 27  1  0  0  0  0
 21 20  1  0  0  0  0
 21 22  1  0  0  0  0
 22 24  1  0  0  0  0
 22 23  1  0  0  0  0
 23 25  1  0  0  0  0
 24 26  1  0  0  0  0
 26 25  1  0  0  0  0
 27 23  1  0  0  0  0
 27 19  1  0  0  0  0
 29 28  1  0  0  0  0
 30 29  2  0  0  0  0
 31 30  2  0  0  0  0
 32 33  1  0  0  0  0
 33 29  1  0  0  0  0
 34 35  1  0  0  0  0
 34 31  1  0  0  0  0
 36 35  1  0  0  0  0
 37 36  1  0  0  0  0
 37 38  2  0  0  0  0
 39 36  1  0  0  0  0
 39 44  1  0  0  0  0
 42 40  1  0  0  0  0
 42 41  1  0  0  0  0
 43 41  1  0  0  0  0
 44 45  1  0  0  0  0
 44 43  1  0  0  0  0
 45 40  1  0  0  0  0
M  END
>  <MODEL>
8

>  <REMARK>
 VINA RESULT:      -7.0      2.510      6.088
  Name = 
  16 active torsions:
  status: ('A' for Active; 'I' for Inactive)
    1  A    between atoms: C_1  and  O_23
    2  A    between atoms: C_1  and  C_28
    3  A    between atoms: C_4  and  CA_5
    4  A    between atoms: CA_5  and  C_21
    5  A    between atoms: CA_5  and  N_45
    6  A    between atoms: C_6  and  C_25
    7  A    between atoms: O_7  and  C_10
    8  A    between atoms: O_7  and  N_34
    9  A    between atoms: C_10  and  O_14
   10  A    between atoms: C_12  and  C_22
   11  A    between atoms: C_17  and  C_28
   12  A    between atoms: C_18  and  C_22
   13  A    between atoms: C_18  and  C_41
   14  A    between atoms: C_21  and  C_29
   15  A    between atoms: C_35  and  C_37
   16  A    between atoms: C_37  and  N_45
                            x       y       z     vdW  Elec       q    Type
                         _______ _______ _______ _____ _____    ______ ____

>  <TORSDO>
F 16

$$$$
=
 OpenBabel11032420383D

 45 50  0  0  1  0  0  0  0  0999 V2000
  185.0690  178.6780  144.3220 C   0  0  2  0  0  3  0  0  0  0  0  0
  186.6050  178.8510  142.3330 C   0  0  2  0  0  3  0  0  0  0  0  0
  187.6160  177.8590  144.3600 C   0  0  1  0  0  3  0  0  0  0  0  0
  186.8870  177.5370  143.0430 C   0  0  1  0  0  3  0  0  0  0  0  0
  186.8030  177.6430  145.5850 N   0  0  0  0  0  0  0  0  0  0  0  0
  185.4630  178.0920  142.9760 C   0  0  1  0  0  3  0  0  0  0  0  0
  185.4020  177.6930  145.3510 N   0  0  0  0  0  2  0  0  0  0  0  0
  188.9640  177.1430  144.4260 C   0  0  0  0  0  3  0  0  0  0  0  0
  191.4570  177.4860  144.0140 C   0  0  0  0  0  2  0  0  0  0  0  0
  191.4100  176.0450  144.2160 N   0  0  0  0  0  2  0  0  0  0  0  0
  189.0850  176.1100  143.3080 C   0  0  0  0  0  2  0  0  0  0  0  0
  190.1460  178.1270  144.4610 C   0  0  0  0  0  2  0  0  0  0  0  0
  190.4900  175.4890  143.2250 C   0  0  0  0  0  2  0  0  0  0  0  0
  187.0950  178.6410  146.4590 O   0  0  0  0  0  0  0  0  0  0  0  0
  187.1900  178.0160  147.7050 C   0  0  0  0  0  2  0  0  0  0  0  0
  188.2200  178.5910  148.4480 O   0  0  0  0  0  0  0  0  0  0  0  0
  189.3720  177.8780  148.1020 C   0  0  0  0  0  1  0  0  0  0  0  0
  183.5790  178.9560  144.3340 C   0  0  0  0  0  2  0  0  0  0  0  0
  183.0340  179.0040  142.9160 C   0  0  0  0  0  2  0  0  0  0  0  0
  180.6680  179.7500  143.3670 C   0  0  0  0  0  2  0  0  0  0  0  0
  179.3830  179.4960  142.6110 C   0  0  0  0  0  2  0  0  0  0  0  0
  179.6370  178.4270  141.6360 N   0  0  2  0  0  0  0  0  0  0  0  0
  181.0370  178.1990  141.5910 N   0  0  1  0  0  0  0  0  0  0  0  0
  179.2220  178.9250  140.3270 C   0  0  0  0  0  2  0  0  0  0  0  0
  181.5700  179.0130  140.4940 C   0  0  0  0  0  2  0  0  0  0  0  0
  180.4620  179.1410  139.4970 C   0  0  0  0  0  2  0  0  0  0  0  0
  181.5480  178.6270  142.9000 C   0  0  1  0  0  3  0  0  0  0  0  0
  186.5450  178.6280  140.8320 C   0  0  0  0  0  2  0  0  0  0  0  0
  187.9100  178.4590  140.2390 C   0  0  0  0  0  0  0  0  0  0  0  0
  188.0110  178.2180  138.9600 C   0  0  0  0  0  0  0  0  0  0  0  0
  188.0990  177.9680  137.6880 C   0  0  0  0  0  3  0  0  0  0  0  0
  190.1800  177.8580  140.6230 O   0  0  0  0  0  1  0  0  0  0  0  0
  189.0600  178.4600  141.0360 O   0  0  0  0  0  0  0  0  0  0  0  0
  189.4250  177.8880  137.0250 C   0  0  0  0  0  2  0  0  0  0  0  0
  189.3090  177.0510  135.8350 N   0  0  0  0  0  2  0  0  0  0  0  0
  190.2380  175.9320  136.0080 C   0  0  2  0  0  3  0  0  0  0  0  0
  189.4900  174.7130  136.4590 C   0  0  0  0  0  3  0  0  0  0  0  0
  189.6440  174.2810  137.5910 O   0  0  0  0  0  0  0  0  0  0  0  0
  191.3920  176.2820  136.9670 C   0  0  0  0  0  2  0  0  0  0  0  0
  194.9050  174.8830  137.6310 C   0  0  0  0  0  2  0  0  0  0  0  0
  194.8140  175.3440  135.4310 C   0  0  0  0  0  2  0  0  0  0  0  0
  195.5340  175.6090  136.6090 O   0  0  0  0  0  0  0  0  0  0  0  0
  193.4500  176.0310  135.5000 C   0  0  0  0  0  2  0  0  0  0  0  0
  192.6780  175.4990  136.7100 C   0  0  0  0  0  3  0  0  0  0  0  0
  193.5550  175.5190  137.9650 C   0  0  0  0  0  2  0  0  0  0  0  0
  1 18  1  6  0  0  0
  1  7  1  0  0  0  0
  2 28  1  6  0  0  0
  2  6  1  0  0  0  0
  2  4  1  0  0  0  0
  3  8  1  1  0  0  0
  3  5  1  0  0  0  0
  4  3  1  0  0  0  0
  5 14  1  0  0  0  0
  6  4  1  0  0  0  0
  6  1  1  0  0  0  0
  7  5  1  0  0  0  0
  8 12  1  0  0  0  0
  9 10  1  0  0  0  0
  9 12  1  0  0  0  0
 11  8  1  0  0  0  0
 13 11  1  0  0  0  0
 13 10  1  0  0  0  0
 14 15  1  0  0  0  0
 15 16  1  0  0  0  0
 17 16  1  0  0  0  0
 19 18  1  0  0  0  0
 21 20  1  0  0  0  0
 22 21  1  0  0  0  0
 23 22  1  0  0  0  0
 23 27  1  0  0  0  0
 24 22  1  0  0  0  0
 25 23  1  0  0  0  0
 26 24  1  0  0  0  0
 26 25  1  0  0  0  0
 27 19  1  0  0  0  0
 27 20  1  0  0  0  0
 29 28  1  0  0  0  0
 29 33  1  0  0  0  0
 30 29  2  0  0  0  0
 31 30  2  0  0  0  0
 32 33  1  0  0  0  0
 34 31  1  0  0  0  0
 35 36  1  0  0  0  0
 35 34  1  0  0  0  0
 36 37  1  0  0  0  0
 36 39  1  0  0  0  0
 37 38  2  0  0  0  0
 40 45  1  0  0  0  0
 41 43  1  0  0  0  0
 41 42  1  0  0  0  0
 42 40  1  0  0  0  0
 43 44  1  0  0  0  0
 44 39  1  0  0  0  0
 44 45  1  0  0  0  0
M  END
>  <MODEL>
9

>  <REMARK>
 VINA RESULT:      -6.9      3.373      7.626
  Name = 
  16 active torsions:
  status: ('A' for Active; 'I' for Inactive)
    1  A    between atoms: C_1  and  O_23
    2  A    between atoms: C_1  and  C_28
    3  A    between atoms: C_4  and  CA_5
    4  A    between atoms: CA_5  and  C_21
    5  A    between atoms: CA_5  and  N_45
    6  A    between atoms: C_6  and  C_25
    7  A    between atoms: O_7  and  C_10
    8  A    between atoms: O_7  and  N_34
    9  A    between atoms: C_10  and  O_14
   10  A    between atoms: C_12  and  C_22
   11  A    between atoms: C_17  and  C_28
   12  A    between atoms: C_18  and  C_22
   13  A    between atoms: C_18  and  C_41
   14  A    between atoms: C_21  and  C_29
   15  A    between atoms: C_35  and  C_37
   16  A    between atoms: C_37  and  N_45
                            x       y       z     vdW  Elec       q    Type
                         _______ _______ _______ _____ _____    ______ ____

>  <TORSDO>
F 16

$$$$
