=
 OpenBabel11042412463D

 59 66  0  0  1  0  0  0  0  0999 V2000
  189.3290  177.0900  146.1440 C   0  0  0  0  0  0  0  0  0  0  0  0
  190.0600  176.9910  144.9140 N   0  0  0  0  0  2  0  0  0  0  0  0
  189.8670  176.7230  147.2250 O   0  0  0  0  0  0  0  0  0  0  0  0
  187.1880  177.5060  144.9610 C   0  0  0  0  0  3  0  0  0  0  0  0
  187.9370  177.5520  146.1390 C   0  0  0  0  0  0  0  0  0  0  0  0
  185.8960  178.0390  144.9240 C   0  0  0  0  0  0  0  0  0  0  0  0
  187.3790  178.1290  147.2830 C   0  0  0  0  0  3  0  0  0  0  0  0
  185.3240  178.5790  146.0770 C   0  0  0  0  0  3  0  0  0  0  0  0
  186.0740  178.6480  147.2600 C   0  0  0  0  0  3  0  0  0  0  0  0
  185.1560  177.9350  143.7050 N   0  0  0  0  0  2  0  0  0  0  0  0
  184.7900  179.0860  142.8870 C   0  0  1  0  0  3  0  0  0  0  0  0
  185.7290  179.1590  141.7030 C   0  0  0  0  0  1  0  0  0  0  0  0
  182.3060  178.9810  143.1750 N   0  0  0  0  0  0  0  0  0  0  0  0
  181.2750  178.6580  142.4170 N   0  0  0  0  0  0  0  0  0  0  0  0
  183.1150  178.5550  141.1370 N   0  0  0  0  0  2  0  0  0  0  0  0
  183.3990  178.9390  142.3920 C   0  0  0  0  0  0  0  0  0  0  0  0
  181.7730  178.4130  141.1910 C   0  0  0  0  0  0  0  0  0  0  0  0
  180.9710  177.7940  140.1080 C   0  0  0  0  0  2  0  0  0  0  0  0
  181.9140  177.3620  139.0050 C   0  0  0  0  0  2  0  0  0  0  0  0
  180.8880  175.2970  139.6390 O   0  0  0  0  0  1  0  0  0  0  0  0
  181.9300  175.8550  138.8860 C   0  0  1  0  0  3  0  0  0  0  0  0
  181.8330  175.4770  137.3900 C   0  0  2  0  0  3  0  0  0  0  0  0
  182.5440  172.9680  137.0580 C   0  0  0  0  0  0  0  0  0  0  0  0
  181.4830  174.0370  137.2030 C   0  0  1  0  0  0  0  0  0  0  0  0
  180.6550  173.9830  136.0700 O   0  0  0  0  0  1  0  0  0  0  0  0
  182.8440  174.4740  136.8310 C   0  0  2  0  0  0  0  0  0  0  0  0
  182.9270  171.6970  136.9760 C   0  0  0  0  0  2  0  0  0  0  0  0
  184.1120  174.6680  137.6850 C   0  0  0  0  0  2  0  0  0  0  0  0
  185.5860  176.5820  137.1400 C   0  0  0  0  0  1  0  0  0  0  0  0
  185.0920  174.9330  135.4960 O   0  0  0  0  0  1  0  0  0  0  0  0
  185.3170  175.1210  136.8620 C   0  0  2  0  0  3  0  0  0  0  0  0
  191.2980  176.4520  144.8820 O   0  0  0  0  0  0  0  0  0  0  0  0
  191.4550  175.8880  143.6060 C   0  0  0  0  0  2  0  0  0  0  0  0
  191.3270  176.9450  142.5100 C   0  0  0  0  0  2  0  0  0  0  0  0
  189.1600  178.0310  141.8840 C   0  0  0  0  0  2  0  0  0  0  0  0
  189.9410  177.7200  140.6240 C   0  0  1  0  0  3  0  0  0  0  0  0
  189.9990  176.7650  141.7930 C   0  0  1  0  0  3  0  0  0  0  0  0
  187.7190  177.4480  139.5500 F   0  0  0  0  0  0  0  0  0  0  0  0
  189.0800  177.1810  139.4680 C   0  0  1  0  0  3  0  0  0  0  0  0
  189.2640  178.2670  137.1520 C   0  0  0  0  0  1  0  0  0  0  0  0
  189.5930  177.2000  138.0830 N   0  0  0  0  0  0  0  0  0  0  0  0
  189.6560  174.8410  137.3110 C   0  0  0  0  0  3  0  0  0  0  0  0
  192.4160  175.0310  136.8690 C   0  0  0  0  0  0  0  0  0  0  0  0
  190.3640  173.7370  136.8350 C   0  0  0  0  0  3  0  0  0  0  0  0
  191.6990  176.1380  137.3630 C   0  0  0  0  0  3  0  0  0  0  0  0
  191.7400  173.8340  136.6050 C   0  0  0  0  0  3  0  0  0  0  0  0
  190.3210  176.0530  137.5830 C   0  0  0  0  0  0  0  0  0  0  0  0
  193.8600  175.1370  136.5810 C   0  0  0  0  0  0  0  0  0  0  0  0
  194.2440  175.5140  135.4370 O   0  0  0  0  0  0  0  0  0  0  0  0
  194.8260  175.4710  138.8350 O   0  0  0  0  0  1  0  0  0  0  0  0
  195.6690  172.9400  138.9680 O   0  0  0  0  0  1  0  0  0  0  0  0
  196.6490  174.3240  135.6680 C   0  0  0  0  0  2  0  0  0  0  0  0
  194.8900  174.7890  137.6210 C   0  0  1  0  0  0  0  0  0  0  0  0
  198.6350  174.7800  136.9850 N   0  0  0  0  0  0  0  0  0  0  0  0
  197.6400  174.9080  139.1160 O   0  0  0  0  0  0  0  0  0  0  0  0
  195.3750  173.3260  137.6560 C   0  0  1  0  0  3  0  0  0  0  0  0
  196.2870  174.4430  137.1420 C   0  0  1  0  0  0  0  0  0  0  0  0
  197.5410  174.7120  137.8720 C   0  0  0  0  0  0  0  0  0  0  0  0
  198.1760  174.5280  135.6210 C   0  0  0  0  0  3  0  0  0  0  0  0
  1  3  2  0  0  0  0
  2  1  1  0  0  0  0
  4  5  1  0  0  0  0
  5  1  1  0  0  0  0
  5  7  2  0  0  0  0
  6  4  2  0  0  0  0
  6  8  1  0  0  0  0
  8  9  2  0  0  0  0
  9  7  1  0  0  0  0
 10  6  1  0  0  0  0
 11 12  1  6  0  0  0
 11 10  1  0  0  0  0
 14 13  1  0  0  0  0
 15 17  1  0  0  0  0
 15 16  1  0  0  0  0
 16 11  1  0  0  0  0
 16 13  2  0  0  0  0
 17 14  2  0  0  0  0
 18 17  1  0  0  0  0
 19 18  1  0  0  0  0
 21 19  1  0  0  0  0
 21 20  1  1  0  0  0
 22 21  1  1  0  0  0
 23 24  1  0  0  0  0
 24 25  1  6  0  0  0
 24 22  1  0  0  0  0
 26 23  1  0  0  0  0
 26 24  1  0  0  0  0
 26 22  1  0  0  0  0
 26 28  1  1  0  0  0
 27 23  2  0  0  0  0
 30 31  1  0  0  0  0
 31 29  1  6  0  0  0
 31 28  1  0  0  0  0
 32  2  1  0  0  0  0
 33 32  1  0  0  0  0
 34 33  1  0  0  0  0
 36 39  1  6  0  0  0
 36 37  1  0  0  0  0
 36 35  1  0  0  0  0
 37 35  1  0  0  0  0
 37 34  1  1  0  0  0
 39 38  1  6  0  0  0
 40 41  1  0  0  0  0
 41 39  1  0  0  0  0
 42 47  1  0  0  0  0
 43 45  1  0  0  0  0
 44 42  2  0  0  0  0
 45 47  2  0  0  0  0
 46 44  1  0  0  0  0
 46 43  2  0  0  0  0
 47 41  1  0  0  0  0
 48 43  1  0  0  0  0
 48 53  1  0  0  0  0
 49 48  2  0  0  0  0
 53 56  1  0  0  0  0
 53 50  1  1  0  0  0
 54 58  1  0  0  0  0
 56 51  1  1  0  0  0
 57 52  1  6  0  0  0
 57 53  1  0  0  0  0
 57 56  1  0  0  0  0
 57 58  1  0  0  0  0
 58 55  2  0  0  0  0
 59 52  1  0  0  0  0
 59 54  2  0  0  0  0
M  END
>  <MODEL>
1

>  <REMARK>
 VINA RESULT:      -8.8      0.000      0.000
  Name = 
  19 active torsions:
  status: ('A' for Active; 'I' for Inactive)
    1  A    between atoms: C_1  and  C_39
    2  A    between atoms: C_1  and  C_43
    3  A    between atoms: C_3  and  C_57
    4  A    between atoms: N_5  and  C_14
    5  A    between atoms: N_5  and  C_32
    6  A    between atoms: C_12  and  C_13
    7  A    between atoms: C_19  and  C_26
    8  A    between atoms: C_22  and  C_26
    9  A    between atoms: N_23  and  O_51
   10  A    between atoms: C_27  and  C_32
   11  A    between atoms: C_28  and  N_36
   12  A    between atoms: C_28  and  C_44
   13  A    between atoms: N_36  and  C_58
   14  A    between atoms: C_43  and  C_57
   15  A    between atoms: C_46  and  C_49
   16  A    between atoms: C_49  and  C_55
   17  A    between atoms: C_50  and  C_53
   18  A    between atoms: C_50  and  C_56
   19  A    between atoms: O_51  and  C_53
                            x       y       z     vdW  Elec       q    Type
                         _______ _______ _______ _____ _____    ______ ____

>  <TORSDO>
F 19

$$$$
=
 OpenBabel11042412463D

 59 66  0  0  1  0  0  0  0  0999 V2000
  188.3340  177.3790  147.5910 C   0  0  0  0  0  0  0  0  0  0  0  0
  187.0940  177.7540  146.9750 N   0  0  0  0  0  2  0  0  0  0  0  0
  188.4440  177.4060  148.8480 O   0  0  0  0  0  0  0  0  0  0  0  0
  189.4230  177.1520  145.3720 C   0  0  0  0  0  3  0  0  0  0  0  0
  189.4920  177.0270  146.7620 C   0  0  0  0  0  0  0  0  0  0  0  0
  190.4840  176.7240  144.5710 C   0  0  0  0  0  0  0  0  0  0  0  0
  190.6380  176.4770  147.3430 C   0  0  0  0  0  3  0  0  0  0  0  0
  191.6440  176.2110  145.1540 C   0  0  0  0  0  3  0  0  0  0  0  0
  191.7170  176.0640  146.5450 C   0  0  0  0  0  3  0  0  0  0  0  0
  190.3810  176.9080  143.1560 N   0  0  0  0  0  2  0  0  0  0  0  0
  189.7120  178.0490  142.5420 C   0  0  1  0  0  3  0  0  0  0  0  0
  190.6120  179.2600  142.6580 C   0  0  0  0  0  1  0  0  0  0  0  0
  188.2900  178.0370  140.4820 N   0  0  0  0  0  0  0  0  0  0  0  0
  188.3780  177.5220  139.2700 N   0  0  0  0  0  0  0  0  0  0  0  0
  190.2970  177.0650  140.3410 N   0  0  0  0  0  2  0  0  0  0  0  0
  189.4530  177.7770  141.1060 C   0  0  0  0  0  0  0  0  0  0  0  0
  189.5940  176.9480  139.1940 C   0  0  0  0  0  0  0  0  0  0  0  0
  189.9920  176.0580  138.0770 C   0  0  0  0  0  2  0  0  0  0  0  0
  191.3550  175.4810  138.3910 C   0  0  0  0  0  2  0  0  0  0  0  0
  191.4120  175.7230  136.0130 O   0  0  0  0  0  1  0  0  0  0  0  0
  192.1410  175.2630  137.1180 C   0  0  1  0  0  3  0  0  0  0  0  0
  193.5070  175.9750  137.2510 C   0  0  2  0  0  3  0  0  0  0  0  0
  195.2620  174.8440  135.6540 C   0  0  0  0  0  0  0  0  0  0  0  0
  194.2750  175.9470  135.9710 C   0  0  1  0  0  0  0  0  0  0  0  0
  194.9580  177.1730  135.9010 O   0  0  0  0  0  1  0  0  0  0  0  0
  194.7770  175.1370  137.0990 C   0  0  2  0  0  0  0  0  0  0  0  0
  196.0880  174.2090  134.8280 C   0  0  0  0  0  2  0  0  0  0  0  0
  194.3860  173.7280  137.5850 C   0  0  0  0  0  2  0  0  0  0  0  0
  196.1100  174.3560  139.2480 C   0  0  0  0  0  1  0  0  0  0  0  0
  196.1600  172.2150  138.2080 O   0  0  0  0  0  1  0  0  0  0  0  0
  195.3020  173.2070  138.6910 C   0  0  2  0  0  3  0  0  0  0  0  0
  186.0560  178.1980  147.7160 O   0  0  0  0  0  0  0  0  0  0  0  0
  185.1580  178.8030  146.8220 C   0  0  0  0  0  2  0  0  0  0  0  0
  185.3880  178.3230  145.3900 C   0  0  0  0  0  2  0  0  0  0  0  0
  184.6410  179.9680  143.6570 C   0  0  0  0  0  2  0  0  0  0  0  0
  184.6020  178.5740  143.0670 C   0  0  1  0  0  3  0  0  0  0  0  0
  184.2320  178.7820  144.5170 C   0  0  1  0  0  3  0  0  0  0  0  0
  182.1960  178.9280  142.5680 F   0  0  0  0  0  0  0  0  0  0  0  0
  183.3740  178.3010  142.1810 C   0  0  1  0  0  3  0  0  0  0  0  0
  184.4720  179.0000  139.9710 C   0  0  0  0  0  1  0  0  0  0  0  0
  183.5200  178.1920  140.7160 N   0  0  0  0  0  0  0  0  0  0  0  0
  181.2260  177.3180  140.3330 C   0  0  0  0  0  3  0  0  0  0  0  0
  182.1310  175.8250  138.1430 C   0  0  0  0  0  0  0  0  0  0  0  0
  180.3340  176.5210  139.6170 C   0  0  0  0  0  3  0  0  0  0  0  0
  183.0300  176.6200  138.8790 C   0  0  0  0  0  3  0  0  0  0  0  0
  180.7830  175.7830  138.5170 C   0  0  0  0  0  3  0  0  0  0  0  0
  182.5870  177.3710  139.9720 C   0  0  0  0  0  0  0  0  0  0  0  0
  182.5860  175.0770  136.9550 C   0  0  0  0  0  0  0  0  0  0  0  0
  181.7900  174.8930  135.9890 O   0  0  0  0  0  0  0  0  0  0  0  0
  184.4270  173.7600  137.9540 O   0  0  0  0  0  1  0  0  0  0  0  0
  185.3350  173.0070  135.5580 O   0  0  0  0  0  1  0  0  0  0  0  0
  184.7230  176.6660  135.4760 C   0  0  0  0  0  2  0  0  0  0  0  0
  183.9780  174.5150  136.8720 C   0  0  1  0  0  0  0  0  0  0  0  0
  187.0660  176.5880  136.0990 N   0  0  0  0  0  0  0  0  0  0  0  0
  187.0990  174.4770  137.1420 O   0  0  0  0  0  0  0  0  0  0  0  0
  184.4830  174.1140  135.4720 C   0  0  1  0  0  3  0  0  0  0  0  0
  185.0370  175.3530  136.1800 C   0  0  1  0  0  0  0  0  0  0  0  0
  186.4740  175.3790  136.5180 C   0  0  0  0  0  0  0  0  0  0  0  0
  186.0670  177.4180  135.4300 C   0  0  0  0  0  3  0  0  0  0  0  0
  1  3  2  0  0  0  0
  2  1  1  0  0  0  0
  2 32  1  0  0  0  0
  4  5  1  0  0  0  0
  5  7  2  0  0  0  0
  5  1  1  0  0  0  0
  6  8  1  0  0  0  0
  6  4  2  0  0  0  0
  8  9  2  0  0  0  0
  9  7  1  0  0  0  0
 10  6  1  0  0  0  0
 11 12  1  6  0  0  0
 11 10  1  0  0  0  0
 13 16  2  0  0  0  0
 14 13  1  0  0  0  0
 15 16  1  0  0  0  0
 16 11  1  0  0  0  0
 17 14  2  0  0  0  0
 17 15  1  0  0  0  0
 18 19  1  0  0  0  0
 18 17  1  0  0  0  0
 21 20  1  6  0  0  0
 21 19  1  0  0  0  0
 22 21  1  6  0  0  0
 23 24  1  0  0  0  0
 23 26  1  0  0  0  0
 24 25  1  1  0  0  0
 24 26  1  0  0  0  0
 24 22  1  0  0  0  0
 26 22  1  0  0  0  0
 26 28  1  6  0  0  0
 27 23  2  0  0  0  0
 28 31  1  0  0  0  0
 30 31  1  0  0  0  0
 31 29  1  6  0  0  0
 33 32  1  0  0  0  0
 34 33  1  0  0  0  0
 35 37  1  0  0  0  0
 36 39  1  6  0  0  0
 36 35  1  0  0  0  0
 36 37  1  0  0  0  0
 37 34  1  1  0  0  0
 39 38  1  6  0  0  0
 40 41  1  0  0  0  0
 41 39  1  0  0  0  0
 43 46  2  0  0  0  0
 43 45  1  0  0  0  0
 44 42  2  0  0  0  0
 45 47  2  0  0  0  0
 46 44  1  0  0  0  0
 47 42  1  0  0  0  0
 47 41  1  0  0  0  0
 48 43  1  0  0  0  0
 49 48  2  0  0  0  0
 53 48  1  0  0  0  0
 53 50  1  1  0  0  0
 54 58  1  0  0  0  0
 56 51  1  1  0  0  0
 56 57  1  0  0  0  0
 56 53  1  0  0  0  0
 57 52  1  6  0  0  0
 57 58  1  0  0  0  0
 57 53  1  0  0  0  0
 58 55  2  0  0  0  0
 59 52  1  0  0  0  0
 59 54  2  0  0  0  0
M  END
>  <MODEL>
2

>  <REMARK>
 VINA RESULT:      -8.1      2.338      9.163
  Name = 
  19 active torsions:
  status: ('A' for Active; 'I' for Inactive)
    1  A    between atoms: C_1  and  C_39
    2  A    between atoms: C_1  and  C_43
    3  A    between atoms: C_3  and  C_57
    4  A    between atoms: N_5  and  C_14
    5  A    between atoms: N_5  and  C_32
    6  A    between atoms: C_12  and  C_13
    7  A    between atoms: C_19  and  C_26
    8  A    between atoms: C_22  and  C_26
    9  A    between atoms: N_23  and  O_51
   10  A    between atoms: C_27  and  C_32
   11  A    between atoms: C_28  and  N_36
   12  A    between atoms: C_28  and  C_44
   13  A    between atoms: N_36  and  C_58
   14  A    between atoms: C_43  and  C_57
   15  A    between atoms: C_46  and  C_49
   16  A    between atoms: C_49  and  C_55
   17  A    between atoms: C_50  and  C_53
   18  A    between atoms: C_50  and  C_56
   19  A    between atoms: O_51  and  C_53
                            x       y       z     vdW  Elec       q    Type
                         _______ _______ _______ _____ _____    ______ ____

>  <TORSDO>
F 19

$$$$
=
 OpenBabel11042412463D

 59 66  0  0  1  0  0  0  0  0999 V2000
  188.2930  177.5980  147.3700 C   0  0  0  0  0  0  0  0  0  0  0  0
  187.0540  177.7530  146.6640 N   0  0  0  0  0  2  0  0  0  0  0  0
  188.3500  177.8630  148.6020 O   0  0  0  0  0  0  0  0  0  0  0  0
  189.4920  177.0880  145.2580 C   0  0  0  0  0  3  0  0  0  0  0  0
  189.5060  177.1960  146.6510 C   0  0  0  0  0  0  0  0  0  0  0  0
  190.6120  176.6080  144.5750 C   0  0  0  0  0  0  0  0  0  0  0  0
  190.6560  176.8270  147.3540 C   0  0  0  0  0  3  0  0  0  0  0  0
  191.7750  176.2770  145.2740 C   0  0  0  0  0  3  0  0  0  0  0  0
  191.7940  176.3630  146.6720 C   0  0  0  0  0  3  0  0  0  0  0  0
  190.5620  176.5520  143.1460 N   0  0  0  0  0  2  0  0  0  0  0  0
  190.0010  177.6150  142.3210 C   0  0  1  0  0  3  0  0  0  0  0  0
  190.5830  178.9380  142.7700 C   0  0  0  0  0  1  0  0  0  0  0  0
  189.4810  176.9830  139.9550 N   0  0  0  0  0  0  0  0  0  0  0  0
  190.1780  176.7470  138.8600 N   0  0  0  0  0  0  0  0  0  0  0  0
  191.6190  177.3960  140.4530 N   0  0  0  0  0  2  0  0  0  0  0  0
  190.3510  177.3940  140.8950 C   0  0  0  0  0  0  0  0  0  0  0  0
  191.4620  177.0080  139.1700 C   0  0  0  0  0  0  0  0  0  0  0  0
  192.5920  176.6430  138.2810 C   0  0  0  0  0  2  0  0  0  0  0  0
  192.4500  175.1840  137.9050 C   0  0  0  0  0  2  0  0  0  0  0  0
  194.4520  175.8310  136.7690 O   0  0  0  0  0  1  0  0  0  0  0  0
  193.6330  174.7360  137.0770 C   0  0  1  0  0  3  0  0  0  0  0  0
  194.3960  173.6410  137.8570 C   0  0  2  0  0  3  0  0  0  0  0  0
  196.6360  173.0560  136.6120 C   0  0  0  0  0  0  0  0  0  0  0  0
  195.8750  173.7780  137.7030 C   0  0  1  0  0  0  0  0  0  0  0  0
  196.4310  173.4040  138.9380 O   0  0  0  0  0  1  0  0  0  0  0  0
  195.2150  172.6230  137.0610 C   0  0  2  0  0  0  0  0  0  0  0  0
  197.7420  172.8130  135.9150 C   0  0  0  0  0  2  0  0  0  0  0  0
  194.4880  172.4990  135.7080 C   0  0  0  0  0  2  0  0  0  0  0  0
  193.9500  170.2300  136.5420 C   0  0  0  0  0  1  0  0  0  0  0  0
  195.3340  170.5140  134.6260 O   0  0  0  0  0  1  0  0  0  0  0  0
  194.2340  171.0470  135.3040 C   0  0  2  0  0  3  0  0  0  0  0  0
  185.9570  178.2400  147.2820 O   0  0  0  0  0  0  0  0  0  0  0  0
  185.0740  178.6440  146.2690 C   0  0  0  0  0  2  0  0  0  0  0  0
  185.6310  178.3250  144.8830 C   0  0  0  0  0  2  0  0  0  0  0  0
  185.3580  179.5260  142.7030 C   0  0  0  0  0  2  0  0  0  0  0  0
  184.9450  178.0800  142.5270 C   0  0  1  0  0  3  0  0  0  0  0  0
  184.6430  178.7910  143.8260 C   0  0  1  0  0  3  0  0  0  0  0  0
  182.5710  178.6170  142.0400 F   0  0  0  0  0  0  0  0  0  0  0  0
  183.6890  177.8860  141.6590 C   0  0  1  0  0  3  0  0  0  0  0  0
  184.7430  178.5210  139.4080 C   0  0  0  0  0  1  0  0  0  0  0  0
  183.8100  177.7310  140.1950 N   0  0  0  0  0  0  0  0  0  0  0  0
  181.5120  176.8490  139.8630 C   0  0  0  0  0  3  0  0  0  0  0  0
  182.4040  175.2460  137.7460 C   0  0  0  0  0  0  0  0  0  0  0  0
  180.6150  176.0220  139.1890 C   0  0  0  0  0  3  0  0  0  0  0  0
  183.3090  176.0720  138.4400 C   0  0  0  0  0  3  0  0  0  0  0  0
  181.0570  175.2280  138.1260 C   0  0  0  0  0  3  0  0  0  0  0  0
  182.8720  176.8780  139.4960 C   0  0  0  0  0  0  0  0  0  0  0  0
  182.8520  174.4380  136.5950 C   0  0  0  0  0  0  0  0  0  0  0  0
  182.0730  174.2580  135.6160 O   0  0  0  0  0  0  0  0  0  0  0  0
  185.2300  174.5110  135.9140 O   0  0  0  0  0  1  0  0  0  0  0  0
  185.9950  173.0800  138.0350 O   0  0  0  0  0  1  0  0  0  0  0  0
  183.0690  171.4020  136.4900 C   0  0  0  0  0  2  0  0  0  0  0  0
  184.2190  173.8100  136.5680 C   0  0  1  0  0  0  0  0  0  0  0  0
  184.9070  170.2660  135.3890 N   0  0  0  0  0  0  0  0  0  0  0  0
  186.5300  171.9660  135.5350 O   0  0  0  0  0  0  0  0  0  0  0  0
  184.6210  172.9690  137.7950 C   0  0  1  0  0  3  0  0  0  0  0  0
  184.2980  172.2990  136.4580 C   0  0  1  0  0  0  0  0  0  0  0  0
  185.3680  171.5380  135.7820 C   0  0  0  0  0  0  0  0  0  0  0  0
  183.5180  170.0960  135.8080 C   0  0  0  0  0  3  0  0  0  0  0  0
  1  3  2  0  0  0  0
  2 32  1  0  0  0  0
  2  1  1  0  0  0  0
  4  5  1  0  0  0  0
  5  7  2  0  0  0  0
  5  1  1  0  0  0  0
  6  4  2  0  0  0  0
  6  8  1  0  0  0  0
  8  9  2  0  0  0  0
  9  7  1  0  0  0  0
 10  6  1  0  0  0  0
 11 12  1  1  0  0  0
 11 10  1  0  0  0  0
 13 16  2  0  0  0  0
 14 17  2  0  0  0  0
 14 13  1  0  0  0  0
 15 16  1  0  0  0  0
 16 11  1  0  0  0  0
 17 15  1  0  0  0  0
 18 17  1  0  0  0  0
 19 18  1  0  0  0  0
 21 20  1  1  0  0  0
 21 19  1  0  0  0  0
 22 21  1  6  0  0  0
 23 26  1  0  0  0  0
 23 24  1  0  0  0  0
 24 22  1  0  0  0  0
 24 25  1  1  0  0  0
 26 28  1  6  0  0  0
 26 24  1  0  0  0  0
 26 22  1  0  0  0  0
 27 23  2  0  0  0  0
 30 31  1  0  0  0  0
 31 28  1  0  0  0  0
 31 29  1  1  0  0  0
 33 32  1  0  0  0  0
 34 33  1  0  0  0  0
 35 37  1  0  0  0  0
 36 39  1  6  0  0  0
 36 35  1  0  0  0  0
 36 37  1  0  0  0  0
 37 34  1  1  0  0  0
 39 38  1  6  0  0  0
 40 41  1  0  0  0  0
 41 39  1  0  0  0  0
 43 46  2  0  0  0  0
 43 45  1  0  0  0  0
 44 42  2  0  0  0  0
 45 47  2  0  0  0  0
 46 44  1  0  0  0  0
 47 42  1  0  0  0  0
 47 41  1  0  0  0  0
 48 43  1  0  0  0  0
 49 48  2  0  0  0  0
 53 50  1  6  0  0  0
 53 48  1  0  0  0  0
 53 56  1  0  0  0  0
 54 58  1  0  0  0  0
 54 59  2  0  0  0  0
 55 58  2  0  0  0  0
 56 51  1  6  0  0  0
 57 52  1  6  0  0  0
 57 53  1  0  0  0  0
 57 56  1  0  0  0  0
 58 57  1  0  0  0  0
 59 52  1  0  0  0  0
M  END
>  <MODEL>
3

>  <REMARK>
 VINA RESULT:      -7.9      2.352      9.697
  Name = 
  19 active torsions:
  status: ('A' for Active; 'I' for Inactive)
    1  A    between atoms: C_1  and  C_39
    2  A    between atoms: C_1  and  C_43
    3  A    between atoms: C_3  and  C_57
    4  A    between atoms: N_5  and  C_14
    5  A    between atoms: N_5  and  C_32
    6  A    between atoms: C_12  and  C_13
    7  A    between atoms: C_19  and  C_26
    8  A    between atoms: C_22  and  C_26
    9  A    between atoms: N_23  and  O_51
   10  A    between atoms: C_27  and  C_32
   11  A    between atoms: C_28  and  N_36
   12  A    between atoms: C_28  and  C_44
   13  A    between atoms: N_36  and  C_58
   14  A    between atoms: C_43  and  C_57
   15  A    between atoms: C_46  and  C_49
   16  A    between atoms: C_49  and  C_55
   17  A    between atoms: C_50  and  C_53
   18  A    between atoms: C_50  and  C_56
   19  A    between atoms: O_51  and  C_53
                            x       y       z     vdW  Elec       q    Type
                         _______ _______ _______ _____ _____    ______ ____

>  <TORSDO>
F 19

$$$$
=
 OpenBabel11042412463D

 59 66  0  0  1  0  0  0  0  0999 V2000
  189.2740  177.3680  145.8750 C   0  0  0  0  0  0  0  0  0  0  0  0
  189.9270  177.3100  144.6000 N   0  0  0  0  0  2  0  0  0  0  0  0
  189.9000  177.0300  146.9170 O   0  0  0  0  0  0  0  0  0  0  0  0
  187.0430  177.6800  144.8330 C   0  0  0  0  0  3  0  0  0  0  0  0
  187.8620  177.7550  145.9630 C   0  0  0  0  0  0  0  0  0  0  0  0
  185.7260  178.1430  144.8840 C   0  0  0  0  0  0  0  0  0  0  0  0
  187.3470  178.2900  147.1470 C   0  0  0  0  0  3  0  0  0  0  0  0
  185.2000  178.6410  146.0770 C   0  0  0  0  0  3  0  0  0  0  0  0
  186.0170  178.7390  147.2110 C   0  0  0  0  0  3  0  0  0  0  0  0
  184.9160  178.0100  143.7120 N   0  0  0  0  0  2  0  0  0  0  0  0
  184.2650  179.1380  143.0550 C   0  0  1  0  0  3  0  0  0  0  0  0
  184.4710  179.0160  141.5610 C   0  0  0  0  0  1  0  0  0  0  0  0
  182.2390  178.4230  144.3410 N   0  0  0  0  0  0  0  0  0  0  0  0
  180.9320  178.5290  144.1890 N   0  0  0  0  0  0  0  0  0  0  0  0
  181.9010  179.6590  142.5110 N   0  0  0  0  0  2  0  0  0  0  0  0
  182.8080  179.1240  143.3440 C   0  0  0  0  0  0  0  0  0  0  0  0
  180.7420  179.2820  143.0900 C   0  0  0  0  0  0  0  0  0  0  0  0
  179.4150  179.4400  142.4460 C   0  0  0  0  0  2  0  0  0  0  0  0
  179.6120  179.4450  140.9450 C   0  0  0  0  0  2  0  0  0  0  0  0
  179.8320  177.0690  141.1050 O   0  0  0  0  0  1  0  0  0  0  0  0
  180.3780  178.2160  140.5110 C   0  0  1  0  0  3  0  0  0  0  0  0
  180.3540  178.1380  138.9670 C   0  0  2  0  0  3  0  0  0  0  0  0
  182.8050  177.8970  138.0490 C   0  0  0  0  0  0  0  0  0  0  0  0
  181.4700  177.3000  138.4360 C   0  0  1  0  0  0  0  0  0  0  0  0
  180.9530  176.6300  137.3140 O   0  0  0  0  0  1  0  0  0  0  0  0
  181.5210  178.7560  138.1940 C   0  0  2  0  0  0  0  0  0  0  0  0
  184.0750  177.7880  137.6680 C   0  0  0  0  0  2  0  0  0  0  0  0
  182.0200  179.9110  139.0820 C   0  0  0  0  0  2  0  0  0  0  0  0
  181.0630  181.1320  137.1520 C   0  0  0  0  0  1  0  0  0  0  0  0
  182.7090  182.1580  138.5330 O   0  0  0  0  0  1  0  0  0  0  0  0
  181.6180  181.2850  138.5490 C   0  0  2  0  0  3  0  0  0  0  0  0
  191.1880  176.8380  144.4850 O   0  0  0  0  0  0  0  0  0  0  0  0
  191.3510  176.4590  143.1430 C   0  0  0  0  0  2  0  0  0  0  0  0
  190.8870  177.5600  142.1910 C   0  0  0  0  0  2  0  0  0  0  0  0
  188.5990  178.1510  141.3660 C   0  0  0  0  0  2  0  0  0  0  0  0
  189.5100  177.9240  140.1780 C   0  0  1  0  0  3  0  0  0  0  0  0
  189.6720  177.0750  141.4180 C   0  0  1  0  0  3  0  0  0  0  0  0
  187.4670  177.2210  138.9560 F   0  0  0  0  0  0  0  0  0  0  0  0
  188.8530  177.1520  139.0210 C   0  0  1  0  0  3  0  0  0  0  0  0
  189.2510  178.1290  136.6830 C   0  0  0  0  0  1  0  0  0  0  0  0
  189.4960  177.1110  137.6910 N   0  0  0  0  0  0  0  0  0  0  0  0
  189.6560  174.6920  137.1500 C   0  0  0  0  0  3  0  0  0  0  0  0
  192.4180  174.9380  136.7470 C   0  0  0  0  0  0  0  0  0  0  0  0
  190.4110  173.5740  136.7960 C   0  0  0  0  0  3  0  0  0  0  0  0
  191.6520  176.0600  137.1190 C   0  0  0  0  0  3  0  0  0  0  0  0
  191.7880  173.6980  136.5850 C   0  0  0  0  0  3  0  0  0  0  0  0
  190.2730  175.9470  137.3180 C   0  0  0  0  0  0  0  0  0  0  0  0
  193.8630  175.0670  136.4800 C   0  0  0  0  0  0  0  0  0  0  0  0
  194.2590  175.3890  135.3230 O   0  0  0  0  0  0  0  0  0  0  0  0
  194.7980  175.5830  138.7120 O   0  0  0  0  0  1  0  0  0  0  0  0
  195.6540  173.0760  139.0540 O   0  0  0  0  0  1  0  0  0  0  0  0
  196.6690  174.2040  135.6670 C   0  0  0  0  0  2  0  0  0  0  0  0
  194.8810  174.8090  137.5560 C   0  0  1  0  0  0  0  0  0  0  0  0
  198.6340  174.7750  136.9690 N   0  0  0  0  0  0  0  0  0  0  0  0
  197.6120  175.0630  139.0710 O   0  0  0  0  0  0  0  0  0  0  0  0
  195.3750  173.3570  137.7110 C   0  0  1  0  0  3  0  0  0  0  0  0
  196.2870  174.4360  137.1220 C   0  0  1  0  0  0  0  0  0  0  0  0
  197.5300  174.7700  137.8450 C   0  0  0  0  0  0  0  0  0  0  0  0
  198.1940  174.4140  135.6230 C   0  0  0  0  0  3  0  0  0  0  0  0
  1  5  1  0  0  0  0
  1  3  2  0  0  0  0
  2  1  1  0  0  0  0
  4  6  2  0  0  0  0
  4  5  1  0  0  0  0
  5  7  2  0  0  0  0
  6  8  1  0  0  0  0
  7  9  1  0  0  0  0
  8  9  2  0  0  0  0
 10  6  1  0  0  0  0
 11 12  1  6  0  0  0
 11 16  1  0  0  0  0
 11 10  1  0  0  0  0
 14 13  1  0  0  0  0
 15 17  1  0  0  0  0
 15 16  1  0  0  0  0
 16 13  2  0  0  0  0
 17 14  2  0  0  0  0
 18 17  1  0  0  0  0
 19 18  1  0  0  0  0
 21 19  1  0  0  0  0
 21 20  1  1  0  0  0
 22 21  1  1  0  0  0
 23 26  1  0  0  0  0
 23 24  1  0  0  0  0
 24 25  1  6  0  0  0
 24 22  1  0  0  0  0
 26 24  1  0  0  0  0
 26 22  1  0  0  0  0
 26 28  1  1  0  0  0
 27 23  2  0  0  0  0
 30 31  1  0  0  0  0
 31 29  1  6  0  0  0
 31 28  1  0  0  0  0
 32  2  1  0  0  0  0
 33 32  1  0  0  0  0
 34 33  1  0  0  0  0
 35 37  1  0  0  0  0
 36 39  1  6  0  0  0
 36 35  1  0  0  0  0
 36 37  1  0  0  0  0
 37 34  1  1  0  0  0
 39 38  1  6  0  0  0
 40 41  1  0  0  0  0
 41 39  1  0  0  0  0
 42 47  1  0  0  0  0
 43 45  1  0  0  0  0
 44 42  2  0  0  0  0
 45 47  2  0  0  0  0
 46 43  2  0  0  0  0
 46 44  1  0  0  0  0
 47 41  1  0  0  0  0
 48 43  1  0  0  0  0
 48 53  1  0  0  0  0
 49 48  2  0  0  0  0
 53 56  1  0  0  0  0
 53 50  1  1  0  0  0
 54 58  1  0  0  0  0
 56 51  1  1  0  0  0
 57 52  1  6  0  0  0
 57 53  1  0  0  0  0
 57 56  1  0  0  0  0
 57 58  1  0  0  0  0
 58 55  2  0  0  0  0
 59 52  1  0  0  0  0
 59 54  2  0  0  0  0
M  END
>  <MODEL>
4

>  <REMARK>
 VINA RESULT:      -7.9      1.696      2.538
  Name = 
  19 active torsions:
  status: ('A' for Active; 'I' for Inactive)
    1  A    between atoms: C_1  and  C_39
    2  A    between atoms: C_1  and  C_43
    3  A    between atoms: C_3  and  C_57
    4  A    between atoms: N_5  and  C_14
    5  A    between atoms: N_5  and  C_32
    6  A    between atoms: C_12  and  C_13
    7  A    between atoms: C_19  and  C_26
    8  A    between atoms: C_22  and  C_26
    9  A    between atoms: N_23  and  O_51
   10  A    between atoms: C_27  and  C_32
   11  A    between atoms: C_28  and  N_36
   12  A    between atoms: C_28  and  C_44
   13  A    between atoms: N_36  and  C_58
   14  A    between atoms: C_43  and  C_57
   15  A    between atoms: C_46  and  C_49
   16  A    between atoms: C_49  and  C_55
   17  A    between atoms: C_50  and  C_53
   18  A    between atoms: C_50  and  C_56
   19  A    between atoms: O_51  and  C_53
                            x       y       z     vdW  Elec       q    Type
                         _______ _______ _______ _____ _____    ______ ____

>  <TORSDO>
F 19

$$$$
=
 OpenBabel11042412463D

 59 66  0  0  1  0  0  0  0  0999 V2000
  185.8350  178.9170  146.6190 C   0  0  0  0  0  0  0  0  0  0  0  0
  184.6960  178.3250  145.9810 N   0  0  0  0  0  2  0  0  0  0  0  0
  185.7360  180.0600  147.1450 O   0  0  0  0  0  0  0  0  0  0  0  0
  187.6820  177.7990  145.3950 C   0  0  0  0  0  3  0  0  0  0  0  0
  187.1300  178.2270  146.6050 C   0  0  0  0  0  0  0  0  0  0  0  0
  188.8630  177.0530  145.3820 C   0  0  0  0  0  0  0  0  0  0  0  0
  187.7760  177.9090  147.8020 C   0  0  0  0  0  3  0  0  0  0  0  0
  189.5290  176.7690  146.5760 C   0  0  0  0  0  3  0  0  0  0  0  0
  188.9750  177.1780  147.7970 C   0  0  0  0  0  3  0  0  0  0  0  0
  189.4080  176.6690  144.1170 N   0  0  0  0  0  2  0  0  0  0  0  0
  190.7440  177.0490  143.6710 C   0  0  1  0  0  3  0  0  0  0  0  0
  191.7440  176.0670  144.2420 C   0  0  0  0  0  1  0  0  0  0  0  0
  191.8830  177.4070  141.4710 N   0  0  0  0  0  0  0  0  0  0  0  0
  191.5270  177.3720  140.2000 N   0  0  0  0  0  0  0  0  0  0  0  0
  189.7510  176.7430  141.4180 N   0  0  0  0  0  2  0  0  0  0  0  0
  190.8180  177.0060  142.1890 C   0  0  0  0  0  0  0  0  0  0  0  0
  190.2450  176.9620  140.1810 C   0  0  0  0  0  0  0  0  0  0  0  0
  189.4040  177.0150  138.9610 C   0  0  0  0  0  2  0  0  0  0  0  0
  190.2980  177.3230  137.7800 C   0  0  0  0  0  2  0  0  0  0  0  0
  190.9470  176.5490  135.6120 O   0  0  0  0  0  1  0  0  0  0  0  0
  190.2560  176.1910  136.7780 C   0  0  1  0  0  3  0  0  0  0  0  0
  190.8460  174.9240  137.4380 C   0  0  2  0  0  3  0  0  0  0  0  0
  191.3280  173.1050  135.6030 C   0  0  0  0  0  0  0  0  0  0  0  0
  191.7900  174.2110  136.5270 C   0  0  1  0  0  0  0  0  0  0  0  0
  192.8060  173.6940  137.3470 O   0  0  0  0  0  1  0  0  0  0  0  0
  190.4980  173.5630  136.8310 C   0  0  2  0  0  0  0  0  0  0  0  0
  191.5320  172.2380  134.6150 C   0  0  0  0  0  2  0  0  0  0  0  0
  189.1010  173.7510  136.2070 C   0  0  0  0  0  2  0  0  0  0  0  0
  187.7150  171.6990  136.1900 C   0  0  0  0  0  1  0  0  0  0  0  0
  186.8480  173.7330  137.0700 O   0  0  0  0  0  1  0  0  0  0  0  0
  188.0130  172.9730  136.9460 C   0  0  2  0  0  3  0  0  0  0  0  0
  183.5290  178.9970  145.8760 O   0  0  0  0  0  0  0  0  0  0  0  0
  183.5100  179.5660  144.5930 C   0  0  0  0  0  2  0  0  0  0  0  0
  183.4890  178.4910  143.5070 C   0  0  0  0  0  2  0  0  0  0  0  0
  185.4730  178.2660  141.9980 C   0  0  0  0  0  2  0  0  0  0  0  0
  184.2180  177.9310  141.2190 C   0  0  1  0  0  3  0  0  0  0  0  0
  184.1810  179.0230  142.2630 C   0  0  1  0  0  3  0  0  0  0  0  0
  183.7710  179.8030  139.6520 F   0  0  0  0  0  0  0  0  0  0  0  0
  184.2000  178.4890  139.7860 C   0  0  1  0  0  3  0  0  0  0  0  0
  186.6530  178.5080  139.0370 C   0  0  0  0  0  1  0  0  0  0  0  0
  185.2660  178.1260  138.8300 N   0  0  0  0  0  0  0  0  0  0  0  0
  185.8730  177.2850  136.5730 C   0  0  0  0  0  3  0  0  0  0  0  0
  183.2220  176.4990  136.1230 C   0  0  0  0  0  0  0  0  0  0  0  0
  185.5180  176.6920  135.3620 C   0  0  0  0  0  3  0  0  0  0  0  0
  183.5840  177.1120  137.3380 C   0  0  0  0  0  3  0  0  0  0  0  0
  184.1980  176.2900  135.1400 C   0  0  0  0  0  3  0  0  0  0  0  0
  184.9060  177.5050  137.5720 C   0  0  0  0  0  0  0  0  0  0  0  0
  181.8410  176.0320  135.8960 C   0  0  0  0  0  0  0  0  0  0  0  0
  180.9680  176.8430  135.4720 O   0  0  0  0  0  0  0  0  0  0  0  0
  180.8930  173.8830  135.1190 O   0  0  0  0  0  1  0  0  0  0  0  0
  182.3750  172.4810  136.8430 O   0  0  0  0  0  1  0  0  0  0  0  0
  180.8190  175.3090  138.6730 C   0  0  0  0  0  2  0  0  0  0  0  0
  181.4440  174.6090  136.1730 C   0  0  1  0  0  0  0  0  0  0  0  0
  179.1930  173.5490  139.0430 N   0  0  0  0  0  0  0  0  0  0  0  0
  179.6090  172.2530  137.1210 O   0  0  0  0  0  0  0  0  0  0  0  0
  182.3030  173.8340  137.1920 C   0  0  1  0  0  3  0  0  0  0  0  0
  180.8850  174.2870  137.5470 C   0  0  1  0  0  0  0  0  0  0  0  0
  179.8760  173.2510  137.8470 C   0  0  0  0  0  0  0  0  0  0  0  0
  179.7290  174.7780  139.6220 C   0  0  0  0  0  3  0  0  0  0  0  0
  1  3  2  0  0  0  0
  2  1  1  0  0  0  0
  4  5  1  0  0  0  0
  5  1  1  0  0  0  0
  5  7  2  0  0  0  0
  6  4  2  0  0  0  0
  6  8  1  0  0  0  0
  8  9  2  0  0  0  0
  9  7  1  0  0  0  0
 10  6  1  0  0  0  0
 11 10  1  0  0  0  0
 11 12  1  1  0  0  0
 13 16  2  0  0  0  0
 14 13  1  0  0  0  0
 15 16  1  0  0  0  0
 16 11  1  0  0  0  0
 17 14  2  0  0  0  0
 17 15  1  0  0  0  0
 18 17  1  0  0  0  0
 19 18  1  0  0  0  0
 21 20  1  6  0  0  0
 21 19  1  0  0  0  0
 22 21  1  6  0  0  0
 23 24  1  0  0  0  0
 23 26  1  0  0  0  0
 24 26  1  0  0  0  0
 24 25  1  1  0  0  0
 24 22  1  0  0  0  0
 26 28  1  6  0  0  0
 26 22  1  0  0  0  0
 27 23  2  0  0  0  0
 28 31  1  0  0  0  0
 31 29  1  6  0  0  0
 31 30  1  0  0  0  0
 32  2  1  0  0  0  0
 33 32  1  0  0  0  0
 34 33  1  0  0  0  0
 35 37  1  0  0  0  0
 36 39  1  6  0  0  0
 36 35  1  0  0  0  0
 36 37  1  0  0  0  0
 37 34  1  1  0  0  0
 39 38  1  1  0  0  0
 41 40  1  0  0  0  0
 41 39  1  0  0  0  0
 42 47  1  0  0  0  0
 43 45  1  0  0  0  0
 44 42  2  0  0  0  0
 45 47  2  0  0  0  0
 46 44  1  0  0  0  0
 46 43  2  0  0  0  0
 47 41  1  0  0  0  0
 48 43  1  0  0  0  0
 48 53  1  0  0  0  0
 49 48  2  0  0  0  0
 52 59  1  0  0  0  0
 53 50  1  6  0  0  0
 53 56  1  0  0  0  0
 53 57  1  0  0  0  0
 54 59  2  0  0  0  0
 55 58  2  0  0  0  0
 56 51  1  6  0  0  0
 56 57  1  0  0  0  0
 57 58  1  0  0  0  0
 57 52  1  1  0  0  0
 58 54  1  0  0  0  0
M  END
>  <MODEL>
5

>  <REMARK>
 VINA RESULT:      -7.8      2.999      9.415
  Name = 
  19 active torsions:
  status: ('A' for Active; 'I' for Inactive)
    1  A    between atoms: C_1  and  C_39
    2  A    between atoms: C_1  and  C_43
    3  A    between atoms: C_3  and  C_57
    4  A    between atoms: N_5  and  C_14
    5  A    between atoms: N_5  and  C_32
    6  A    between atoms: C_12  and  C_13
    7  A    between atoms: C_19  and  C_26
    8  A    between atoms: C_22  and  C_26
    9  A    between atoms: N_23  and  O_51
   10  A    between atoms: C_27  and  C_32
   11  A    between atoms: C_28  and  N_36
   12  A    between atoms: C_28  and  C_44
   13  A    between atoms: N_36  and  C_58
   14  A    between atoms: C_43  and  C_57
   15  A    between atoms: C_46  and  C_49
   16  A    between atoms: C_49  and  C_55
   17  A    between atoms: C_50  and  C_53
   18  A    between atoms: C_50  and  C_56
   19  A    between atoms: O_51  and  C_53
                            x       y       z     vdW  Elec       q    Type
                         _______ _______ _______ _____ _____    ______ ____

>  <TORSDO>
F 19

$$$$
=
 OpenBabel11042412463D

 59 66  0  0  1  0  0  0  0  0999 V2000
  189.6060  177.2510  145.8810 C   0  0  0  0  0  0  0  0  0  0  0  0
  190.2450  177.1990  144.5980 N   0  0  0  0  0  2  0  0  0  0  0  0
  190.2450  176.9090  146.9150 O   0  0  0  0  0  0  0  0  0  0  0  0
  187.3650  177.5720  144.8660 C   0  0  0  0  0  3  0  0  0  0  0  0
  188.1950  177.6370  145.9880 C   0  0  0  0  0  0  0  0  0  0  0  0
  186.0480  178.0330  144.9340 C   0  0  0  0  0  0  0  0  0  0  0  0
  187.6930  178.1610  147.1810 C   0  0  0  0  0  3  0  0  0  0  0  0
  185.5340  178.5210  146.1370 C   0  0  0  0  0  3  0  0  0  0  0  0
  186.3630  178.6080  147.2640 C   0  0  0  0  0  3  0  0  0  0  0  0
  185.2260  177.9110  143.7700 N   0  0  0  0  0  2  0  0  0  0  0  0
  184.6400  179.0540  143.0780 C   0  0  1  0  0  3  0  0  0  0  0  0
  185.0740  179.0200  141.6290 C   0  0  0  0  0  1  0  0  0  0  0  0
  182.4500  178.8990  144.2800 N   0  0  0  0  0  0  0  0  0  0  0  0
  181.1910  178.6960  143.9380 N   0  0  0  0  0  0  0  0  0  0  0  0
  182.3980  178.7980  142.0490 N   0  0  0  0  0  2  0  0  0  0  0  0
  183.1590  178.9820  143.1390 C   0  0  0  0  0  0  0  0  0  0  0  0
  181.1720  178.6460  142.5930 C   0  0  0  0  0  0  0  0  0  0  0  0
  179.9840  178.2010  141.8240 C   0  0  0  0  0  2  0  0  0  0  0  0
  180.4490  177.2690  140.7270 C   0  0  0  0  0  2  0  0  0  0  0  0
  179.2460  178.9410  139.5140 O   0  0  0  0  0  1  0  0  0  0  0  0
  179.8730  177.6930  139.3960 C   0  0  1  0  0  3  0  0  0  0  0  0
  181.0100  177.7110  138.3480 C   0  0  2  0  0  3  0  0  0  0  0  0
  180.0310  177.2030  135.9620 C   0  0  0  0  0  0  0  0  0  0  0  0
  180.5270  178.1720  137.0120 C   0  0  1  0  0  0  0  0  0  0  0  0
  181.5800  178.9150  136.4530 O   0  0  0  0  0  1  0  0  0  0  0  0
  180.9120  176.7540  137.1580 C   0  0  2  0  0  0  0  0  0  0  0  0
  179.4560  176.9290  134.7940 C   0  0  0  0  0  2  0  0  0  0  0  0
  180.1210  175.5420  137.6860 C   0  0  0  0  0  2  0  0  0  0  0  0
  182.2660  174.4960  137.0240 C   0  0  0  0  0  1  0  0  0  0  0  0
  180.1960  173.4530  136.4800 O   0  0  0  0  0  1  0  0  0  0  0  0
  180.8450  174.2160  137.4540 C   0  0  2  0  0  3  0  0  0  0  0  0
  191.5040  176.7280  144.4670 O   0  0  0  0  0  0  0  0  0  0  0  0
  191.6700  176.4080  143.1100 C   0  0  0  0  0  2  0  0  0  0  0  0
  191.0850  177.4910  142.2050 C   0  0  0  0  0  2  0  0  0  0  0  0
  188.7300  177.7620  141.4030 C   0  0  0  0  0  2  0  0  0  0  0  0
  189.6680  177.8300  140.2160 C   0  0  1  0  0  3  0  0  0  0  0  0
  189.9750  176.8900  141.3590 C   0  0  1  0  0  3  0  0  0  0  0  0
  187.8300  176.6820  139.0050 F   0  0  0  0  0  0  0  0  0  0  0  0
  189.1580  177.0890  138.9680 C   0  0  1  0  0  3  0  0  0  0  0  0
  189.0810  178.6920  136.9670 C   0  0  0  0  0  1  0  0  0  0  0  0
  189.6010  177.5020  137.6210 N   0  0  0  0  0  0  0  0  0  0  0  0
  189.9200  175.6250  136.0260 C   0  0  0  0  0  3  0  0  0  0  0  0
  192.7010  175.9120  136.2030 C   0  0  0  0  0  0  0  0  0  0  0  0
  190.7550  174.7770  135.3010 C   0  0  0  0  0  3  0  0  0  0  0  0
  191.8520  176.7560  136.9440 C   0  0  0  0  0  3  0  0  0  0  0  0
  192.1430  174.9250  135.3800 C   0  0  0  0  0  3  0  0  0  0  0  0
  190.4630  176.6220  136.8600 C   0  0  0  0  0  0  0  0  0  0  0  0
  194.1650  176.0890  136.2460 C   0  0  0  0  0  0  0  0  0  0  0  0
  194.7000  177.0360  135.6000 O   0  0  0  0  0  0  0  0  0  0  0  0
  194.9740  175.2370  138.4240 O   0  0  0  0  0  1  0  0  0  0  0  0
  195.4250  172.8010  137.4270 O   0  0  0  0  0  1  0  0  0  0  0  0
  196.8740  175.3010  135.0980 C   0  0  0  0  0  2  0  0  0  0  0  0
  195.0410  175.1550  137.0340 C   0  0  1  0  0  0  0  0  0  0  0  0
  198.7850  174.7940  136.5030 N   0  0  0  0  0  0  0  0  0  0  0  0
  197.6420  174.1440  138.4570 O   0  0  0  0  0  0  0  0  0  0  0  0
  195.3040  173.7650  136.4200 C   0  0  1  0  0  3  0  0  0  0  0  0
  196.4090  174.8230  136.4670 C   0  0  1  0  0  0  0  0  0  0  0  0
  197.6220  174.5300  137.2550 C   0  0  0  0  0  0  0  0  0  0  0  0
  198.4120  175.2440  135.1650 C   0  0  0  0  0  3  0  0  0  0  0  0
  1  5  1  0  0  0  0
  1  3  2  0  0  0  0
  2  1  1  0  0  0  0
  4  6  2  0  0  0  0
  4  5  1  0  0  0  0
  5  7  2  0  0  0  0
  6  8  1  0  0  0  0
  7  9  1  0  0  0  0
  8  9  2  0  0  0  0
 10  6  1  0  0  0  0
 11 12  1  6  0  0  0
 11 16  1  0  0  0  0
 11 10  1  0  0  0  0
 14 13  1  0  0  0  0
 15 17  1  0  0  0  0
 15 16  1  0  0  0  0
 16 13  2  0  0  0  0
 17 14  2  0  0  0  0
 18 17  1  0  0  0  0
 19 18  1  0  0  0  0
 21 20  1  1  0  0  0
 21 19  1  0  0  0  0
 22 21  1  1  0  0  0
 23 24  1  0  0  0  0
 23 26  1  0  0  0  0
 24 25  1  6  0  0  0
 24 26  1  0  0  0  0
 24 22  1  0  0  0  0
 26 28  1  1  0  0  0
 26 22  1  0  0  0  0
 27 23  2  0  0  0  0
 30 31  1  0  0  0  0
 31 29  1  6  0  0  0
 31 28  1  0  0  0  0
 32  2  1  0  0  0  0
 33 32  1  0  0  0  0
 34 33  1  0  0  0  0
 36 39  1  6  0  0  0
 36 37  1  0  0  0  0
 36 35  1  0  0  0  0
 37 35  1  0  0  0  0
 37 34  1  1  0  0  0
 39 38  1  6  0  0  0
 40 41  1  0  0  0  0
 41 39  1  0  0  0  0
 42 47  1  0  0  0  0
 43 48  1  0  0  0  0
 43 45  1  0  0  0  0
 44 46  1  0  0  0  0
 44 42  2  0  0  0  0
 46 43  2  0  0  0  0
 47 45  2  0  0  0  0
 47 41  1  0  0  0  0
 48 53  1  0  0  0  0
 49 48  2  0  0  0  0
 52 59  1  0  0  0  0
 53 50  1  1  0  0  0
 54 58  1  0  0  0  0
 56 57  1  0  0  0  0
 56 53  1  0  0  0  0
 56 51  1  1  0  0  0
 57 52  1  6  0  0  0
 57 53  1  0  0  0  0
 57 58  1  0  0  0  0
 58 55  2  0  0  0  0
 59 54  2  0  0  0  0
M  END
>  <MODEL>
6

>  <REMARK>
 VINA RESULT:      -7.6      1.468      2.179
  Name = 
  19 active torsions:
  status: ('A' for Active; 'I' for Inactive)
    1  A    between atoms: C_1  and  C_39
    2  A    between atoms: C_1  and  C_43
    3  A    between atoms: C_3  and  C_57
    4  A    between atoms: N_5  and  C_14
    5  A    between atoms: N_5  and  C_32
    6  A    between atoms: C_12  and  C_13
    7  A    between atoms: C_19  and  C_26
    8  A    between atoms: C_22  and  C_26
    9  A    between atoms: N_23  and  O_51
   10  A    between atoms: C_27  and  C_32
   11  A    between atoms: C_28  and  N_36
   12  A    between atoms: C_28  and  C_44
   13  A    between atoms: N_36  and  C_58
   14  A    between atoms: C_43  and  C_57
   15  A    between atoms: C_46  and  C_49
   16  A    between atoms: C_49  and  C_55
   17  A    between atoms: C_50  and  C_53
   18  A    between atoms: C_50  and  C_56
   19  A    between atoms: O_51  and  C_53
                            x       y       z     vdW  Elec       q    Type
                         _______ _______ _______ _____ _____    ______ ____

>  <TORSDO>
F 19

$$$$
=
 OpenBabel11042412463D

 59 66  0  0  1  0  0  0  0  0999 V2000
  190.2620  176.2460  142.8460 C   0  0  0  0  0  0  0  0  0  0  0  0
  190.8020  176.7560  144.0720 N   0  0  0  0  0  2  0  0  0  0  0  0
  189.3770  175.3460  142.8760 O   0  0  0  0  0  0  0  0  0  0  0  0
  190.0340  176.5330  140.3910 C   0  0  0  0  0  3  0  0  0  0  0  0
  190.7810  176.7180  141.5580 C   0  0  0  0  0  0  0  0  0  0  0  0
  190.5660  176.8880  139.1490 C   0  0  0  0  0  0  0  0  0  0  0  0
  192.0630  177.2680  141.4700 C   0  0  0  0  0  3  0  0  0  0  0  0
  191.8300  177.4740  139.0650 C   0  0  0  0  0  3  0  0  0  0  0  0
  192.5960  177.6460  140.2260 C   0  0  0  0  0  3  0  0  0  0  0  0
  189.7480  176.7140  137.9880 N   0  0  0  0  0  2  0  0  0  0  0  0
  188.5490  177.5030  137.7260 C   0  0  1  0  0  3  0  0  0  0  0  0
  188.9640  178.9130  137.3660 C   0  0  0  0  0  1  0  0  0  0  0  0
  188.3550  176.4490  135.4640 N   0  0  0  0  0  0  0  0  0  0  0  0
  187.3720  176.1610  134.6320 N   0  0  0  0  0  0  0  0  0  0  0  0
  186.4530  176.9820  136.5070 N   0  0  0  0  0  2  0  0  0  0  0  0
  187.7910  176.9180  136.5920 C   0  0  0  0  0  0  0  0  0  0  0  0
  186.2320  176.4770  135.2740 C   0  0  0  0  0  0  0  0  0  0  0  0
  184.9140  176.5210  134.5960 C   0  0  0  0  0  2  0  0  0  0  0  0
  183.9150  177.1570  135.5370 C   0  0  0  0  0  2  0  0  0  0  0  0
  182.0900  176.6480  136.9970 O   0  0  0  0  0  1  0  0  0  0  0  0
  183.1990  176.0950  136.3400 C   0  0  1  0  0  3  0  0  0  0  0  0
  182.7960  174.9440  135.3900 C   0  0  2  0  0  3  0  0  0  0  0  0
  181.6460  173.0180  136.7610 C   0  0  0  0  0  0  0  0  0  0  0  0
  181.5710  174.2350  135.8640 C   0  0  1  0  0  0  0  0  0  0  0  0
  180.8560  173.8780  134.7090 O   0  0  0  0  0  1  0  0  0  0  0  0
  182.8570  173.5110  135.9240 C   0  0  2  0  0  0  0  0  0  0  0  0
  181.0850  172.0890  137.5290 C   0  0  0  0  0  2  0  0  0  0  0  0
  183.9770  173.5270  136.9820 C   0  0  0  0  0  2  0  0  0  0  0  0
  186.4390  173.3900  137.2110 C   0  0  0  0  0  1  0  0  0  0  0  0
  185.3900  172.8750  135.1370 O   0  0  0  0  0  1  0  0  0  0  0  0
  185.2340  172.7900  136.5240 C   0  0  2  0  0  3  0  0  0  0  0  0
  190.4240  176.2460  145.2640 O   0  0  0  0  0  0  0  0  0  0  0  0
  190.9430  177.1040  146.2470 C   0  0  0  0  0  2  0  0  0  0  0  0
  189.8510  177.9800  146.8570 C   0  0  0  0  0  2  0  0  0  0  0  0
  187.4710  177.9120  147.6330 C   0  0  0  0  0  2  0  0  0  0  0  0
  187.5010  178.2420  146.1550 C   0  0  1  0  0  3  0  0  0  0  0  0
  188.5110  177.2730  146.7260 C   0  0  1  0  0  3  0  0  0  0  0  0
  185.8060  176.4420  145.9390 F   0  0  0  0  0  0  0  0  0  0  0  0
  186.4110  177.5350  145.3320 C   0  0  1  0  0  3  0  0  0  0  0  0
  184.2380  178.8600  145.0110 C   0  0  0  0  0  1  0  0  0  0  0  0
  185.4840  178.3190  144.4910 N   0  0  0  0  0  0  0  0  0  0  0  0
  187.0580  178.4420  142.5730 C   0  0  0  0  0  3  0  0  0  0  0  0
  184.9080  178.6210  140.7860 C   0  0  0  0  0  0  0  0  0  0  0  0
  187.2970  178.5530  141.2040 C   0  0  0  0  0  3  0  0  0  0  0  0
  184.6730  178.5220  142.1710 C   0  0  0  0  0  3  0  0  0  0  0  0
  186.2250  178.6330  140.3110 C   0  0  0  0  0  3  0  0  0  0  0  0
  185.7400  178.4290  143.0700 C   0  0  0  0  0  0  0  0  0  0  0  0
  183.7830  178.6610  139.8320 C   0  0  0  0  0  0  0  0  0  0  0  0
  183.9620  179.1340  138.6730 O   0  0  0  0  0  0  0  0  0  0  0  0
  182.2390  176.7810  140.2840 O   0  0  0  0  0  1  0  0  0  0  0  0
  180.8190  178.2240  142.0270 O   0  0  0  0  0  1  0  0  0  0  0  0
  181.3410  180.2670  138.9740 C   0  0  0  0  0  2  0  0  0  0  0  0
  182.4170  178.1610  140.2150 C   0  0  1  0  0  0  0  0  0  0  0  0
  179.2030  179.2270  138.4930 N   0  0  0  0  0  0  0  0  0  0  0  0
  179.4410  177.2790  139.7940 O   0  0  0  0  0  0  0  0  0  0  0  0
  181.6120  179.0290  141.2020 C   0  0  1  0  0  3  0  0  0  0  0  0
  181.2150  178.9490  139.7260 C   0  0  1  0  0  0  0  0  0  0  0  0
  179.8940  178.3850  139.3890 C   0  0  0  0  0  0  0  0  0  0  0  0
  180.0110  180.4110  138.2100 C   0  0  0  0  0  3  0  0  0  0  0  0
  1  3  2  0  0  0  0
  1  2  1  0  0  0  0
  2 32  1  0  0  0  0
  4  5  1  0  0  0  0
  5  1  1  0  0  0  0
  6  4  2  0  0  0  0
  7  5  2  0  0  0  0
  8  6  1  0  0  0  0
  8  9  2  0  0  0  0
  9  7  1  0  0  0  0
 10  6  1  0  0  0  0
 11 12  1  6  0  0  0
 11 10  1  0  0  0  0
 13 16  2  0  0  0  0
 14 17  2  0  0  0  0
 14 13  1  0  0  0  0
 15 16  1  0  0  0  0
 16 11  1  0  0  0  0
 17 15  1  0  0  0  0
 18 17  1  0  0  0  0
 18 19  1  0  0  0  0
 19 21  1  0  0  0  0
 21 20  1  6  0  0  0
 22 24  1  0  0  0  0
 22 26  1  0  0  0  0
 22 21  1  1  0  0  0
 23 27  2  0  0  0  0
 24 25  1  6  0  0  0
 24 26  1  0  0  0  0
 24 23  1  0  0  0  0
 26 23  1  0  0  0  0
 26 28  1  1  0  0  0
 30 31  1  0  0  0  0
 31 28  1  0  0  0  0
 31 29  1  1  0  0  0
 32 33  1  0  0  0  0
 33 34  1  0  0  0  0
 36 39  1  6  0  0  0
 36 37  1  0  0  0  0
 36 35  1  0  0  0  0
 37 34  1  1  0  0  0
 37 35  1  0  0  0  0
 39 38  1  1  0  0  0
 41 40  1  0  0  0  0
 41 39  1  0  0  0  0
 42 47  1  0  0  0  0
 43 45  1  0  0  0  0
 44 42  2  0  0  0  0
 45 47  2  0  0  0  0
 46 43  2  0  0  0  0
 46 44  1  0  0  0  0
 47 41  1  0  0  0  0
 48 53  1  0  0  0  0
 48 43  1  0  0  0  0
 49 48  2  0  0  0  0
 53 50  1  1  0  0  0
 53 56  1  0  0  0  0
 54 58  1  0  0  0  0
 56 51  1  1  0  0  0
 57 52  1  6  0  0  0
 57 53  1  0  0  0  0
 57 56  1  0  0  0  0
 58 57  1  0  0  0  0
 58 55  2  0  0  0  0
 59 54  2  0  0  0  0
 59 52  1  0  0  0  0
M  END
>  <MODEL>
7

>  <REMARK>
 VINA RESULT:      -7.3      3.741      9.021
  Name = 
  19 active torsions:
  status: ('A' for Active; 'I' for Inactive)
    1  A    between atoms: C_1  and  C_39
    2  A    between atoms: C_1  and  C_43
    3  A    between atoms: C_3  and  C_57
    4  A    between atoms: N_5  and  C_14
    5  A    between atoms: N_5  and  C_32
    6  A    between atoms: C_12  and  C_13
    7  A    between atoms: C_19  and  C_26
    8  A    between atoms: C_22  and  C_26
    9  A    between atoms: N_23  and  O_51
   10  A    between atoms: C_27  and  C_32
   11  A    between atoms: C_28  and  N_36
   12  A    between atoms: C_28  and  C_44
   13  A    between atoms: N_36  and  C_58
   14  A    between atoms: C_43  and  C_57
   15  A    between atoms: C_46  and  C_49
   16  A    between atoms: C_49  and  C_55
   17  A    between atoms: C_50  and  C_53
   18  A    between atoms: C_50  and  C_56
   19  A    between atoms: O_51  and  C_53
                            x       y       z     vdW  Elec       q    Type
                         _______ _______ _______ _____ _____    ______ ____

>  <TORSDO>
F 19

$$$$
=
 OpenBabel11042412463D

 59 66  0  0  1  0  0  0  0  0999 V2000
  185.8750  178.7330  145.1180 C   0  0  0  0  0  0  0  0  0  0  0  0
  185.2020  178.8150  143.8550 N   0  0  0  0  0  2  0  0  0  0  0  0
  185.3490  179.2470  146.1440 O   0  0  0  0  0  0  0  0  0  0  0  0
  187.8610  177.6980  144.0490 C   0  0  0  0  0  3  0  0  0  0  0  0
  187.2010  178.1110  145.2090 C   0  0  0  0  0  0  0  0  0  0  0  0
  189.0760  177.0150  144.1330 C   0  0  0  0  0  0  0  0  0  0  0  0
  187.7730  177.8420  146.4540 C   0  0  0  0  0  3  0  0  0  0  0  0
  189.6670  176.7800  145.3760 C   0  0  0  0  0  3  0  0  0  0  0  0
  189.0050  177.1730  146.5470 C   0  0  0  0  0  3  0  0  0  0  0  0
  189.7310  176.6450  142.9160 N   0  0  0  0  0  2  0  0  0  0  0  0
  190.5160  177.5760  142.1130 C   0  0  1  0  0  3  0  0  0  0  0  0
  191.9630  177.4940  142.5470 C   0  0  0  0  0  1  0  0  0  0  0  0
  189.2950  177.2980  139.9450 N   0  0  0  0  0  0  0  0  0  0  0  0
  189.5550  176.7500  138.7730 N   0  0  0  0  0  0  0  0  0  0  0  0
  191.4110  176.5860  140.0230 N   0  0  0  0  0  2  0  0  0  0  0  0
  190.4220  177.2150  140.6760 C   0  0  0  0  0  0  0  0  0  0  0  0
  190.8340  176.3330  138.8290 C   0  0  0  0  0  0  0  0  0  0  0  0
  191.4380  175.4570  137.7960 C   0  0  0  0  0  2  0  0  0  0  0  0
  192.2220  176.3240  136.8350 C   0  0  0  0  0  2  0  0  0  0  0  0
  194.5720  176.6540  136.5400 O   0  0  0  0  0  1  0  0  0  0  0  0
  193.5560  175.6880  136.5210 C   0  0  1  0  0  3  0  0  0  0  0  0
  193.8150  174.5520  137.5380 C   0  0  2  0  0  3  0  0  0  0  0  0
  196.0500  173.3080  136.9350 C   0  0  0  0  0  0  0  0  0  0  0  0
  195.2750  174.3190  137.7500 C   0  0  1  0  0  0  0  0  0  0  0  0
  195.4210  173.9860  139.1070 O   0  0  0  0  0  1  0  0  0  0  0  0
  194.5020  173.2790  137.0410 C   0  0  2  0  0  0  0  0  0  0  0  0
  197.1850  172.7270  136.5550 C   0  0  0  0  0  2  0  0  0  0  0  0
  194.0930  173.1570  135.5600 C   0  0  0  0  0  2  0  0  0  0  0  0
  191.8020  172.2170  135.5490 C   0  0  0  0  0  1  0  0  0  0  0  0
  193.6700  170.8370  136.0710 O   0  0  0  0  0  1  0  0  0  0  0  0
  193.2570  171.9100  135.2780 C   0  0  2  0  0  3  0  0  0  0  0  0
  184.0390  179.4910  143.7290 O   0  0  0  0  0  0  0  0  0  0  0  0
  183.0530  178.7060  144.3470 C   0  0  0  0  0  2  0  0  0  0  0  0
  181.6490  179.1750  143.9690 C   0  0  0  0  0  2  0  0  0  0  0  0
  179.6170  178.5410  142.6500 C   0  0  0  0  0  2  0  0  0  0  0  0
  180.6500  179.1340  141.7150 C   0  0  1  0  0  3  0  0  0  0  0  0
  181.0980  178.2750  142.8740 C   0  0  1  0  0  3  0  0  0  0  0  0
  179.5750  178.1940  139.6840 F   0  0  0  0  0  0  0  0  0  0  0  0
  180.7680  178.4060  140.3650 C   0  0  1  0  0  3  0  0  0  0  0  0
  183.1360  179.2970  139.9420 C   0  0  0  0  0  1  0  0  0  0  0  0
  181.9090  178.6770  139.4670 N   0  0  0  0  0  0  0  0  0  0  0  0
  181.3150  179.5050  137.2020 C   0  0  0  0  0  3  0  0  0  0  0  0
  181.9040  176.9960  136.1020 C   0  0  0  0  0  0  0  0  0  0  0  0
  181.1630  179.2910  135.8320 C   0  0  0  0  0  3  0  0  0  0  0  0
  182.0420  177.2140  137.4860 C   0  0  0  0  0  3  0  0  0  0  0  0
  181.4650  178.0420  135.2810 C   0  0  0  0  0  3  0  0  0  0  0  0
  181.7540  178.4640  138.0440 C   0  0  0  0  0  0  0  0  0  0  0  0
  182.2630  175.6960  135.5040 C   0  0  0  0  0  0  0  0  0  0  0  0
  181.5070  175.1770  134.6340 O   0  0  0  0  0  0  0  0  0  0  0  0
  183.4260  174.1560  137.0540 O   0  0  0  0  0  1  0  0  0  0  0  0
  185.0750  173.2970  135.1370 O   0  0  0  0  0  1  0  0  0  0  0  0
  184.9680  177.0040  135.0090 C   0  0  0  0  0  2  0  0  0  0  0  0
  183.5080  174.9630  135.9210 C   0  0  1  0  0  0  0  0  0  0  0  0
  186.8780  176.6320  136.4570 N   0  0  0  0  0  0  0  0  0  0  0  0
  186.2710  174.5320  137.3340 O   0  0  0  0  0  0  0  0  0  0  0  0
  184.4530  174.5030  134.7930 C   0  0  1  0  0  3  0  0  0  0  0  0
  184.8400  175.6610  135.7150 C   0  0  1  0  0  0  0  0  0  0  0  0
  186.0360  175.5070  136.5660 C   0  0  0  0  0  0  0  0  0  0  0  0
  186.3080  177.5810  135.5050 C   0  0  0  0  0  3  0  0  0  0  0  0
  1  5  1  0  0  0  0
  1  3  2  0  0  0  0
  2  1  1  0  0  0  0
  4  6  2  0  0  0  0
  4  5  1  0  0  0  0
  5  7  2  0  0  0  0
  6  8  1  0  0  0  0
  7  9  1  0  0  0  0
  8  9  2  0  0  0  0
 10  6  1  0  0  0  0
 11 12  1  1  0  0  0
 11 10  1  0  0  0  0
 13 16  2  0  0  0  0
 14 17  2  0  0  0  0
 14 13  1  0  0  0  0
 15 16  1  0  0  0  0
 16 11  1  0  0  0  0
 17 15  1  0  0  0  0
 18 17  1  0  0  0  0
 19 18  1  0  0  0  0
 21 20  1  1  0  0  0
 21 19  1  0  0  0  0
 22 21  1  6  0  0  0
 22 24  1  0  0  0  0
 23 26  1  0  0  0  0
 23 24  1  0  0  0  0
 24 25  1  1  0  0  0
 26 28  1  6  0  0  0
 26 22  1  0  0  0  0
 26 24  1  0  0  0  0
 27 23  2  0  0  0  0
 31 29  1  1  0  0  0
 31 28  1  0  0  0  0
 31 30  1  0  0  0  0
 32  2  1  0  0  0  0
 32 33  1  0  0  0  0
 34 33  1  0  0  0  0
 35 37  1  0  0  0  0
 36 39  1  6  0  0  0
 36 35  1  0  0  0  0
 36 37  1  0  0  0  0
 37 34  1  1  0  0  0
 39 38  1  6  0  0  0
 41 40  1  0  0  0  0
 41 39  1  0  0  0  0
 42 47  1  0  0  0  0
 43 45  1  0  0  0  0
 44 42  2  0  0  0  0
 45 47  2  0  0  0  0
 46 44  1  0  0  0  0
 46 43  2  0  0  0  0
 47 41  1  0  0  0  0
 48 53  1  0  0  0  0
 48 43  1  0  0  0  0
 49 48  2  0  0  0  0
 52 59  1  0  0  0  0
 53 50  1  1  0  0  0
 54 58  1  0  0  0  0
 56 51  1  1  0  0  0
 56 57  1  0  0  0  0
 56 53  1  0  0  0  0
 57 52  1  6  0  0  0
 57 53  1  0  0  0  0
 57 58  1  0  0  0  0
 58 55  2  0  0  0  0
 59 54  2  0  0  0  0
M  END
>  <MODEL>
8

>  <REMARK>
 VINA RESULT:      -7.0      2.569      9.760
  Name = 
  19 active torsions:
  status: ('A' for Active; 'I' for Inactive)
    1  A    between atoms: C_1  and  C_39
    2  A    between atoms: C_1  and  C_43
    3  A    between atoms: C_3  and  C_57
    4  A    between atoms: N_5  and  C_14
    5  A    between atoms: N_5  and  C_32
    6  A    between atoms: C_12  and  C_13
    7  A    between atoms: C_19  and  C_26
    8  A    between atoms: C_22  and  C_26
    9  A    between atoms: N_23  and  O_51
   10  A    between atoms: C_27  and  C_32
   11  A    between atoms: C_28  and  N_36
   12  A    between atoms: C_28  and  C_44
   13  A    between atoms: N_36  and  C_58
   14  A    between atoms: C_43  and  C_57
   15  A    between atoms: C_46  and  C_49
   16  A    between atoms: C_49  and  C_55
   17  A    between atoms: C_50  and  C_53
   18  A    between atoms: C_50  and  C_56
   19  A    between atoms: O_51  and  C_53
                            x       y       z     vdW  Elec       q    Type
                         _______ _______ _______ _____ _____    ______ ____

>  <TORSDO>
F 19

$$$$
=
 OpenBabel11042412463D

 59 66  0  0  1  0  0  0  0  0999 V2000
  190.8730  176.9480  141.2680 C   0  0  0  0  0  0  0  0  0  0  0  0
  191.4930  177.4970  140.0980 N   0  0  0  0  0  2  0  0  0  0  0  0
  190.0210  176.0230  141.1520 O   0  0  0  0  0  0  0  0  0  0  0  0
  191.3810  176.6480  143.6780 C   0  0  0  0  0  3  0  0  0  0  0  0
  191.1750  177.5020  142.5920 C   0  0  0  0  0  0  0  0  0  0  0  0
  191.5680  177.1690  144.9610 C   0  0  0  0  0  0  0  0  0  0  0  0
  191.1660  178.8840  142.8000 C   0  0  0  0  0  3  0  0  0  0  0  0
  191.5980  178.5500  145.1630 C   0  0  0  0  0  3  0  0  0  0  0  0
  191.3740  179.4160  144.0830 C   0  0  0  0  0  3  0  0  0  0  0  0
  191.8120  176.2560  146.0340 N   0  0  0  0  0  2  0  0  0  0  0  0
  191.0830  176.2890  147.2980 C   0  0  1  0  0  3  0  0  0  0  0  0
  191.8700  177.1170  148.2910 C   0  0  0  0  0  1  0  0  0  0  0  0
  189.0760  177.5790  148.0560 N   0  0  0  0  0  0  0  0  0  0  0  0
  187.8790  177.8440  147.5690 N   0  0  0  0  0  0  0  0  0  0  0  0
  189.0050  176.6940  146.0050 N   0  0  0  0  0  2  0  0  0  0  0  0
  189.7490  176.9110  147.1010 C   0  0  0  0  0  0  0  0  0  0  0  0
  187.8510  177.3150  146.3310 C   0  0  0  0  0  0  0  0  0  0  0  0
  186.6040  177.1940  145.5380 C   0  0  0  0  0  2  0  0  0  0  0  0
  186.0200  178.5770  145.3560 C   0  0  0  0  0  2  0  0  0  0  0  0
  183.9380  178.6290  146.5310 O   0  0  0  0  0  1  0  0  0  0  0  0
  184.5130  178.5040  145.2590 C   0  0  1  0  0  3  0  0  0  0  0  0
  184.0250  179.6070  144.2900 C   0  0  2  0  0  3  0  0  0  0  0  0
  182.5020  178.5480  142.4280 C   0  0  0  0  0  0  0  0  0  0  0  0
  182.6760  179.2980  143.7310 C   0  0  1  0  0  0  0  0  0  0  0  0
  182.0120  180.5300  143.6130 O   0  0  0  0  0  1  0  0  0  0  0  0
  183.8350  179.2420  142.8170 C   0  0  2  0  0  0  0  0  0  0  0  0
  181.7530  177.9310  141.5190 C   0  0  0  0  0  2  0  0  0  0  0  0
  184.8570  178.1210  142.5480 C   0  0  0  0  0  2  0  0  0  0  0  0
  187.2500  178.6250  142.1550 C   0  0  0  0  0  1  0  0  0  0  0  0
  185.5610  179.7160  140.8790 O   0  0  0  0  0  1  0  0  0  0  0  0
  185.8950  178.5070  141.4950 C   0  0  2  0  0  3  0  0  0  0  0  0
  191.1360  177.0840  138.8620 O   0  0  0  0  0  0  0  0  0  0  0  0
  192.2680  176.4670  138.3060 C   0  0  0  0  0  2  0  0  0  0  0  0
  191.9680  175.0300  137.8820 C   0  0  0  0  0  2  0  0  0  0  0  0
  190.8980  173.6490  136.0890 C   0  0  0  0  0  2  0  0  0  0  0  0
  189.8180  174.2340  136.9730 C   0  0  1  0  0  3  0  0  0  0  0  0
  191.0550  175.0470  136.6670 C   0  0  1  0  0  3  0  0  0  0  0  0
  188.1790  173.9580  135.1290 F   0  0  0  0  0  0  0  0  0  0  0  0
  188.5820  174.7360  136.2080 C   0  0  1  0  0  3  0  0  0  0  0  0
  187.6040  176.5690  137.7130 C   0  0  0  0  0  1  0  0  0  0  0  0
  187.4520  175.3500  136.9340 N   0  0  0  0  0  0  0  0  0  0  0  0
  186.1220  173.3370  137.5230 C   0  0  0  0  0  3  0  0  0  0  0  0
  183.7810  174.5880  136.6240 C   0  0  0  0  0  0  0  0  0  0  0  0
  184.9030  172.6610  137.5810 C   0  0  0  0  0  3  0  0  0  0  0  0
  185.0170  175.2600  136.5540 C   0  0  0  0  0  3  0  0  0  0  0  0
  183.7330  173.2880  137.1420 C   0  0  0  0  0  3  0  0  0  0  0  0
  186.1890  174.6450  137.0030 C   0  0  0  0  0  0  0  0  0  0  0  0
  182.5350  175.2560  136.2040 C   0  0  0  0  0  0  0  0  0  0  0  0
  182.4080  175.6500  135.0090 O   0  0  0  0  0  0  0  0  0  0  0  0
  180.1910  174.8790  136.9010 O   0  0  0  0  0  1  0  0  0  0  0  0
  180.8040  175.1390  139.4880 O   0  0  0  0  0  1  0  0  0  0  0  0
  182.3710  177.9430  137.6290 C   0  0  0  0  0  2  0  0  0  0  0  0
  181.4110  175.4930  137.1750 C   0  0  1  0  0  0  0  0  0  0  0  0
  180.2610  178.9340  138.2990 N   0  0  0  0  0  0  0  0  0  0  0  0
  178.9690  176.9720  138.4630 O   0  0  0  0  0  0  0  0  0  0  0  0
  181.8000  175.6650  138.6570 C   0  0  1  0  0  3  0  0  0  0  0  0
  181.3200  176.8590  137.8290 C   0  0  1  0  0  0  0  0  0  0  0  0
  180.0750  177.5380  138.2390 C   0  0  0  0  0  0  0  0  0  0  0  0
  181.6450  179.2600  137.9650 C   0  0  0  0  0  3  0  0  0  0  0  0
  1  5  1  0  0  0  0
  2  1  1  0  0  0  0
  3  1  2  0  0  0  0
  4  6  1  0  0  0  0
  5  7  1  0  0  0  0
  5  4  2  0  0  0  0
  6  8  2  0  0  0  0
  6 10  1  0  0  0  0
  7  9  2  0  0  0  0
  9  8  1  0  0  0  0
 10 11  1  0  0  0  0
 11 12  1  1  0  0  0
 14 13  1  0  0  0  0
 15 17  1  0  0  0  0
 15 16  1  0  0  0  0
 16 11  1  0  0  0  0
 16 13  2  0  0  0  0
 17 14  2  0  0  0  0
 18 17  1  0  0  0  0
 19 18  1  0  0  0  0
 21 19  1  0  0  0  0
 21 20  1  1  0  0  0
 22 21  1  1  0  0  0
 23 26  1  0  0  0  0
 23 24  1  0  0  0  0
 24 25  1  6  0  0  0
 24 22  1  0  0  0  0
 26 28  1  1  0  0  0
 26 24  1  0  0  0  0
 26 22  1  0  0  0  0
 27 23  2  0  0  0  0
 30 31  1  0  0  0  0
 31 29  1  1  0  0  0
 31 28  1  0  0  0  0
 32  2  1  0  0  0  0
 33 32  1  0  0  0  0
 34 33  1  0  0  0  0
 35 37  1  0  0  0  0
 35 36  1  0  0  0  0
 36 39  1  6  0  0  0
 37 36  1  0  0  0  0
 37 34  1  1  0  0  0
 39 38  1  1  0  0  0
 39 41  1  0  0  0  0
 41 47  1  0  0  0  0
 41 40  1  0  0  0  0
 42 44  1  0  0  0  0
 43 46  1  0  0  0  0
 45 43  2  0  0  0  0
 45 47  1  0  0  0  0
 46 44  2  0  0  0  0
 47 42  2  0  0  0  0
 48 43  1  0  0  0  0
 48 53  1  0  0  0  0
 49 48  2  0  0  0  0
 52 59  1  0  0  0  0
 53 50  1  6  0  0  0
 53 57  1  0  0  0  0
 53 56  1  0  0  0  0
 56 51  1  1  0  0  0
 57 52  1  6  0  0  0
 57 58  1  0  0  0  0
 57 56  1  0  0  0  0
 58 54  1  0  0  0  0
 58 55  2  0  0  0  0
 59 54  2  0  0  0  0
M  END
>  <MODEL>
9

>  <REMARK>
 VINA RESULT:      -6.9      3.153      9.223
  Name = 
  19 active torsions:
  status: ('A' for Active; 'I' for Inactive)
    1  A    between atoms: C_1  and  C_39
    2  A    between atoms: C_1  and  C_43
    3  A    between atoms: C_3  and  C_57
    4  A    between atoms: N_5  and  C_14
    5  A    between atoms: N_5  and  C_32
    6  A    between atoms: C_12  and  C_13
    7  A    between atoms: C_19  and  C_26
    8  A    between atoms: C_22  and  C_26
    9  A    between atoms: N_23  and  O_51
   10  A    between atoms: C_27  and  C_32
   11  A    between atoms: C_28  and  N_36
   12  A    between atoms: C_28  and  C_44
   13  A    between atoms: N_36  and  C_58
   14  A    between atoms: C_43  and  C_57
   15  A    between atoms: C_46  and  C_49
   16  A    between atoms: C_49  and  C_55
   17  A    between atoms: C_50  and  C_53
   18  A    between atoms: C_50  and  C_56
   19  A    between atoms: O_51  and  C_53
                            x       y       z     vdW  Elec       q    Type
                         _______ _______ _______ _____ _____    ______ ____

>  <TORSDO>
F 19

$$$$
