=
 OpenBabel11032421113D

 34 37  0  0  1  0  0  0  0  0999 V2000
  187.1100  177.8490  146.3280 C   0  0  0  0  0  0  0  0  0  0  0  0
  184.1970  178.8850  142.8030 C   0  0  0  0  0  0  0  0  0  0  0  0
  187.8650  175.7860  143.9070 O   0  0  0  0  0  1  0  0  0  0  0  0
  185.7070  178.5740  146.9420 S   0  0  0  0  0  0  0  0  0  0  0  0
  188.1460  177.1330  144.1340 C   0  0  2  0  0  3  0  0  0  0  0  0
  189.5050  177.2710  144.8530 C   0  0  2  0  0  3  0  0  0  0  0  0
  183.3820  179.3730  143.8430 C   0  0  0  0  0  3  0  0  0  0  0  0
  183.7750  178.9630  141.5180 F   0  0  0  0  0  0  0  0  0  0  0  0
  189.4270  176.7720  146.3200 C   0  0  2  0  0  3  0  0  0  0  0  0
  185.8420  178.2600  144.4340 C   0  0  0  0  0  0  0  0  0  0  0  0
  185.4470  178.3200  143.0990 C   0  0  0  0  0  3  0  0  0  0  0  0
  185.0050  178.7520  145.4230 C   0  0  0  0  0  0  0  0  0  0  0  0
  187.0400  177.7530  144.9420 C   0  0  0  0  0  0  0  0  0  0  0  0
  183.7980  179.3000  145.1400 N   0  0  0  0  0  0  0  0  0  0  0  0
  188.2890  177.4090  147.0810 C   0  0  0  0  0  0  0  0  0  0  0  0
  188.3160  177.4970  148.3370 O   0  0  0  0  0  0  0  0  0  0  0  0
  190.6940  176.9730  147.0110 N   0  0  0  0  0  2  0  0  0  0  0  0
  192.5450  175.7990  147.9790 C   0  0  0  0  0  2  0  0  0  0  0  0
  191.2280  175.6580  147.3230 C   0  0  2  0  0  3  0  0  0  0  0  0
  192.4310  175.4710  146.6180 O   0  0  0  0  0  0  0  0  0  0  0  0
  190.0190  178.7120  144.7770 C   0  0  0  0  0  2  0  0  0  0  0  0
  190.5980  179.0310  143.4060 C   0  0  0  0  0  2  0  0  0  0  0  0
  191.7060  178.0500  143.0360 C   0  0  1  0  0  3  0  0  0  0  0  0
  192.1960  177.3990  144.1590 F   0  0  0  0  0  0  0  0  0  0  0  0
  191.2540  177.0940  142.0270 N   0  0  0  0  0  2  0  0  0  0  0  0
  191.7320  177.4990  140.7100 C   0  0  0  0  0  2  0  0  0  0  0  0
  190.6000  177.4160  139.6990 C   0  0  0  0  0  2  0  0  0  0  0  0
  189.3330  177.1710  140.3740 N   0  0  0  0  0  2  0  0  0  0  0  0
  188.4350  178.2680  140.0470 C   0  0  0  0  0  2  0  0  0  0  0  0
  188.6340  178.6660  138.7220 O   0  0  0  0  0  0  0  0  0  0  0  0
  187.2750  178.1130  137.8710 P   0  0  0  0  0  0  0  0  0  0  0  0
  185.8780  178.6600  138.6520 O   0  0  0  0  0  1  0  0  0  0  0  0
  187.2630  176.6010  137.8410 O   0  0  0  0  0  1  0  0  0  0  0  0
  187.2960  178.7120  136.2880 O   0  0  0  0  0  0  0  0  0  0  0  0
  1  4  1  0  0  0  0
  1 15  1  0  0  0  0
  2 11  2  0  0  0  0
  2  7  1  0  0  0  0
  5  3  1  1  0  0  0
  5  6  1  0  0  0  0
  5 13  1  0  0  0  0
  6 21  1  1  0  0  0
  6  9  1  0  0  0  0
  7 14  2  0  0  0  0
  8  2  1  0  0  0  0
  9 17  1  1  0  0  0
  9 15  1  0  0  0  0
 10 13  1  0  0  0  0
 10 12  2  0  0  0  0
 11 10  1  0  0  0  0
 12  4  1  0  0  0  0
 13  1  2  0  0  0  0
 14 12  1  0  0  0  0
 15 16  2  0  0  0  0
 19 17  1  6  0  0  0
 19 18  1  0  0  0  0
 20 19  1  0  0  0  0
 20 18  1  0  0  0  0
 22 21  1  0  0  0  0
 23 22  1  0  0  0  0
 23 24  1  1  0  0  0
 25 23  1  0  0  0  0
 26 25  1  0  0  0  0
 27 28  1  0  0  0  0
 27 26  1  0  0  0  0
 29 28  1  0  0  0  0
 30 29  1  0  0  0  0
 31 32  1  0  0  0  0
 31 30  1  0  0  0  0
 33 31  1  0  0  0  0
 34 31  2  0  0  0  0
M  END
>  <MODEL>
1

>  <REMARK>
 VINA RESULT:      -8.1      0.000      0.000
  Name = 
  12 active torsions:
  status: ('A' for Active; 'I' for Inactive)
    1  A    between atoms: C_2  and  O_4
    2  A    between atoms: C_2  and  N_12
    3  A    between atoms: O_4  and  P_13
    4  A    between atoms: N_5  and  C_18
    5  A    between atoms: N_5  and  C_29
    6  A    between atoms: C_6  and  C_8
    7  A    between atoms: C_6  and  N_12
    8  A    between atoms: C_8  and  N_16
    9  A    between atoms: C_11  and  C_23
   10  A    between atoms: C_15  and  C_23
   11  A    between atoms: C_15  and  C_32
   12  A    between atoms: N_16  and  C_32
                            x       y       z     vdW  Elec       q    Type
                         _______ _______ _______ _____ _____    ______ ____

>  <TORSDO>
F 12

$$$$
=
 OpenBabel11032421113D

 34 37  0  0  1  0  0  0  0  0999 V2000
  190.3320  177.5030  143.4320 C   0  0  0  0  0  0  0  0  0  0  0  0
  188.2860  177.3590  147.6490 C   0  0  0  0  0  0  0  0  0  0  0  0
  187.7720  175.4940  143.1170 O   0  0  0  0  0  1  0  0  0  0  0  0
  191.4700  177.8780  144.6310 S   0  0  0  0  0  0  0  0  0  0  0  0
  187.8940  176.8820  143.1710 C   0  0  2  0  0  3  0  0  0  0  0  0
  188.0120  177.4540  141.7420 C   0  0  2  0  0  3  0  0  0  0  0  0
  189.5740  177.7070  148.0990 C   0  0  0  0  0  3  0  0  0  0  0  0
  187.2790  177.1920  148.5390 F   0  0  0  0  0  0  0  0  0  0  0  0
  189.3780  177.0990  141.0960 C   0  0  2  0  0  3  0  0  0  0  0  0
  189.1110  177.3670  145.3960 C   0  0  0  0  0  0  0  0  0  0  0  0
  188.0470  177.1860  146.2780 C   0  0  0  0  0  3  0  0  0  0  0  0
  190.3610  177.7080  145.8860 C   0  0  0  0  0  0  0  0  0  0  0  0
  189.0880  177.2560  144.0040 C   0  0  0  0  0  0  0  0  0  0  0  0
  190.5960  177.8780  147.2110 N   0  0  0  0  0  0  0  0  0  0  0  0
  190.5420  177.4760  141.9820 C   0  0  0  0  0  0  0  0  0  0  0  0
  191.6840  177.6920  141.4950 O   0  0  0  0  0  0  0  0  0  0  0  0
  189.5070  177.7040  139.7770 N   0  0  0  0  0  2  0  0  0  0  0  0
  188.6620  177.5040  137.5440 C   0  0  0  0  0  2  0  0  0  0  0  0
  188.4020  177.2150  138.9690 C   0  0  2  0  0  3  0  0  0  0  0  0
  187.7980  178.3020  138.3120 O   0  0  0  0  0  0  0  0  0  0  0  0
  187.7630  178.9650  141.7350 C   0  0  0  0  0  2  0  0  0  0  0  0
  186.3040  179.2970  142.0140 C   0  0  0  0  0  2  0  0  0  0  0  0
  185.3890  178.6660  140.9690 C   0  0  1  0  0  3  0  0  0  0  0  0
  184.3510  177.9670  141.5670 F   0  0  0  0  0  0  0  0  0  0  0  0
  184.8790  179.6690  140.0360 N   0  0  0  0  0  2  0  0  0  0  0  0
  184.1220  179.0180  138.9720 C   0  0  0  0  0  2  0  0  0  0  0  0
  182.7340  179.6290  138.8740 C   0  0  0  0  0  2  0  0  0  0  0  0
  181.7360  178.7120  139.4070 N   0  0  0  0  0  2  0  0  0  0  0  0
  181.2780  179.2430  140.6820 C   0  0  0  0  0  2  0  0  0  0  0  0
  180.9350  178.1920  141.5380 O   0  0  0  0  0  0  0  0  0  0  0  0
  180.6230  178.9120  143.0420 P   0  0  0  0  0  0  0  0  0  0  0  0
  182.0240  178.8400  143.9870 O   0  0  0  0  0  1  0  0  0  0  0  0
  179.5120  178.1690  143.7500 O   0  0  0  0  0  1  0  0  0  0  0  0
  180.1780  180.5310  142.8310 O   0  0  0  0  0  0  0  0  0  0  0  0
  1 13  2  0  0  0  0
  1  4  1  0  0  0  0
  2  7  1  0  0  0  0
  2  8  1  0  0  0  0
  4 12  1  0  0  0  0
  5  3  1  6  0  0  0
  5 13  1  0  0  0  0
  6 21  1  1  0  0  0
  6  5  1  0  0  0  0
  9 17  1  6  0  0  0
  9  6  1  0  0  0  0
  9 15  1  0  0  0  0
 10 12  2  0  0  0  0
 10 11  1  0  0  0  0
 11  2  2  0  0  0  0
 12 14  1  0  0  0  0
 13 10  1  0  0  0  0
 14  7  2  0  0  0  0
 15  1  1  0  0  0  0
 16 15  2  0  0  0  0
 18 20  1  0  0  0  0
 18 19  1  0  0  0  0
 19 17  1  1  0  0  0
 20 19  1  0  0  0  0
 21 22  1  0  0  0  0
 23 24  1  1  0  0  0
 23 22  1  0  0  0  0
 25 23  1  0  0  0  0
 26 25  1  0  0  0  0
 27 26  1  0  0  0  0
 27 28  1  0  0  0  0
 28 29  1  0  0  0  0
 29 30  1  0  0  0  0
 30 31  1  0  0  0  0
 31 33  1  0  0  0  0
 31 32  1  0  0  0  0
 34 31  2  0  0  0  0
M  END
>  <MODEL>
2

>  <REMARK>
 VINA RESULT:      -6.7      3.925      6.973
  Name = 
  12 active torsions:
  status: ('A' for Active; 'I' for Inactive)
    1  A    between atoms: C_2  and  O_4
    2  A    between atoms: C_2  and  N_12
    3  A    between atoms: O_4  and  P_13
    4  A    between atoms: N_5  and  C_18
    5  A    between atoms: N_5  and  C_29
    6  A    between atoms: C_6  and  C_8
    7  A    between atoms: C_6  and  N_12
    8  A    between atoms: C_8  and  N_16
    9  A    between atoms: C_11  and  C_23
   10  A    between atoms: C_15  and  C_23
   11  A    between atoms: C_15  and  C_32
   12  A    between atoms: N_16  and  C_32
                            x       y       z     vdW  Elec       q    Type
                         _______ _______ _______ _____ _____    ______ ____

>  <TORSDO>
F 12

$$$$
=
 OpenBabel11032421113D

 34 37  0  0  1  0  0  0  0  0999 V2000
  188.1660  176.2510  137.5330 C   0  0  0  0  0  0  0  0  0  0  0  0
  184.0990  178.4740  138.2410 C   0  0  0  0  0  0  0  0  0  0  0  0
  188.9160  179.4200  137.8170 O   0  0  0  0  0  1  0  0  0  0  0  0
  186.8950  175.3340  136.8890 S   0  0  0  0  0  0  0  0  0  0  0  0
  188.5920  178.4300  138.7450 C   0  0  2  0  0  3  0  0  0  0  0  0
  189.8800  177.7630  139.2720 C   0  0  2  0  0  3  0  0  0  0  0  0
  183.5650  177.3540  137.5750 C   0  0  0  0  0  3  0  0  0  0  0  0
  183.2780  179.4600  138.6760 F   0  0  0  0  0  0  0  0  0  0  0  0
  190.5550  176.8860  138.1840 C   0  0  2  0  0  3  0  0  0  0  0  0
  186.2920  177.5310  137.9920 C   0  0  0  0  0  0  0  0  0  0  0  0
  185.4830  178.5670  138.4550 C   0  0  0  0  0  3  0  0  0  0  0  0
  185.7200  176.4490  137.3410 C   0  0  0  0  0  0  0  0  0  0  0  0
  187.6790  177.4190  138.1090 C   0  0  0  0  0  0  0  0  0  0  0  0
  184.3830  176.3550  137.1340 N   0  0  0  0  0  0  0  0  0  0  0  0
  189.5900  175.9030  137.5640 C   0  0  0  0  0  0  0  0  0  0  0  0
  190.0030  174.8430  137.0220 O   0  0  0  0  0  0  0  0  0  0  0  0
  191.7280  176.2050  138.7130 N   0  0  0  0  0  2  0  0  0  0  0  0
  193.5410  175.4230  137.3550 C   0  0  0  0  0  2  0  0  0  0  0  0
  192.8650  176.6160  137.9070 C   0  0  2  0  0  3  0  0  0  0  0  0
  194.0440  176.1010  138.4780 O   0  0  0  0  0  0  0  0  0  0  0  0
  189.5970  176.9590  140.5450 C   0  0  0  0  0  2  0  0  0  0  0  0
  188.9700  177.8240  141.6290 C   0  0  0  0  0  2  0  0  0  0  0  0
  187.8380  177.0840  142.3350 C   0  0  1  0  0  3  0  0  0  0  0  0
  188.3210  176.0140  143.0750 F   0  0  0  0  0  0  0  0  0  0  0  0
  187.0520  177.9900  143.1710 N   0  0  0  0  0  2  0  0  0  0  0  0
  186.6660  177.3160  144.4060 C   0  0  0  0  0  2  0  0  0  0  0  0
  187.1820  178.0950  145.6050 C   0  0  0  0  0  2  0  0  0  0  0  0
  187.8540  177.2030  146.5390 N   0  0  0  0  0  2  0  0  0  0  0  0
  189.2790  177.4970  146.4880 C   0  0  0  0  0  2  0  0  0  0  0  0
  189.6200  177.9770  145.2200 O   0  0  0  0  0  0  0  0  0  0  0  0
  191.2080  177.4500  144.9440 P   0  0  0  0  0  0  0  0  0  0  0  0
  191.9080  177.0170  146.4210 O   0  0  0  0  0  1  0  0  0  0  0  0
  192.0210  178.5640  144.3210 O   0  0  0  0  0  1  0  0  0  0  0  0
  191.2060  176.1060  143.9160 O   0  0  0  0  0  0  0  0  0  0  0  0
  1 15  1  0  0  0  0
  1 13  2  0  0  0  0
  2 11  1  0  0  0  0
  2  8  1  0  0  0  0
  4 12  1  0  0  0  0
  4  1  1  0  0  0  0
  5  3  1  6  0  0  0
  5  6  1  0  0  0  0
  6 21  1  1  0  0  0
  7  2  2  0  0  0  0
  9 17  1  1  0  0  0
  9  6  1  0  0  0  0
 10 13  1  0  0  0  0
 10 11  2  0  0  0  0
 12 10  1  0  0  0  0
 13  5  1  0  0  0  0
 14 12  2  0  0  0  0
 14  7  1  0  0  0  0
 15  9  1  0  0  0  0
 16 15  2  0  0  0  0
 18 19  1  0  0  0  0
 18 20  1  0  0  0  0
 19 20  1  0  0  0  0
 19 17  1  1  0  0  0
 21 22  1  0  0  0  0
 22 23  1  0  0  0  0
 23 24  1  1  0  0  0
 23 25  1  0  0  0  0
 25 26  1  0  0  0  0
 26 27  1  0  0  0  0
 27 28  1  0  0  0  0
 29 28  1  0  0  0  0
 30 29  1  0  0  0  0
 31 30  1  0  0  0  0
 31 32  1  0  0  0  0
 33 31  1  0  0  0  0
 34 31  2  0  0  0  0
M  END
>  <MODEL>
3

>  <REMARK>
 VINA RESULT:      -6.7      3.886      7.460
  Name = 
  12 active torsions:
  status: ('A' for Active; 'I' for Inactive)
    1  A    between atoms: C_2  and  O_4
    2  A    between atoms: C_2  and  N_12
    3  A    between atoms: O_4  and  P_13
    4  A    between atoms: N_5  and  C_18
    5  A    between atoms: N_5  and  C_29
    6  A    between atoms: C_6  and  C_8
    7  A    between atoms: C_6  and  N_12
    8  A    between atoms: C_8  and  N_16
    9  A    between atoms: C_11  and  C_23
   10  A    between atoms: C_15  and  C_23
   11  A    between atoms: C_15  and  C_32
   12  A    between atoms: N_16  and  C_32
                            x       y       z     vdW  Elec       q    Type
                         _______ _______ _______ _____ _____    ______ ____

>  <TORSDO>
F 12

$$$$
=
 OpenBabel11032421113D

 34 37  0  0  1  0  0  0  0  0999 V2000
  188.0600  176.2640  137.3850 C   0  0  0  0  0  0  0  0  0  0  0  0
  184.1480  178.6610  138.3560 C   0  0  0  0  0  0  0  0  0  0  0  0
  188.9960  179.3660  137.8220 O   0  0  0  0  0  1  0  0  0  0  0  0
  186.7190  175.4570  136.7340 S   0  0  0  0  0  0  0  0  0  0  0  0
  188.6450  178.3430  138.7020 C   0  0  2  0  0  3  0  0  0  0  0  0
  189.9080  177.5770  139.1470 C   0  0  2  0  0  3  0  0  0  0  0  0
  183.5310  177.6130  137.6470 C   0  0  0  0  0  3  0  0  0  0  0  0
  183.3980  179.6630  138.8730 F   0  0  0  0  0  0  0  0  0  0  0  0
  190.4990  176.7300  137.9880 C   0  0  2  0  0  3  0  0  0  0  0  0
  186.2750  177.6160  137.9790 C   0  0  0  0  0  0  0  0  0  0  0  0
  185.5410  178.6660  138.5270 C   0  0  0  0  0  3  0  0  0  0  0  0
  185.6230  176.6070  137.2880 C   0  0  0  0  0  0  0  0  0  0  0  0
  187.6570  177.4220  138.0420 C   0  0  0  0  0  0  0  0  0  0  0  0
  184.2770  176.5980  137.1210 N   0  0  0  0  0  0  0  0  0  0  0  0
  189.4620  175.8380  137.3470 C   0  0  0  0  0  0  0  0  0  0  0  0
  189.7970  174.7910  136.7330 O   0  0  0  0  0  0  0  0  0  0  0  0
  191.6480  175.9550  138.4380 N   0  0  0  0  0  2  0  0  0  0  0  0
  193.8790  175.5160  137.6820 C   0  0  0  0  0  2  0  0  0  0  0  0
  192.8290  176.5450  137.8300 C   0  0  2  0  0  3  0  0  0  0  0  0
  193.9060  176.4500  138.7310 O   0  0  0  0  0  0  0  0  0  0  0  0
  189.6200  176.7160  140.3810 C   0  0  0  0  0  2  0  0  0  0  0  0
  190.5160  177.0950  141.5520 C   0  0  0  0  0  2  0  0  0  0  0  0
  190.0360  176.4420  142.8440 C   0  0  1  0  0  3  0  0  0  0  0  0
  190.5040  175.1410  142.9540 F   0  0  0  0  0  0  0  0  0  0  0  0
  190.4110  177.2370  144.0120 N   0  0  0  0  0  2  0  0  0  0  0  0
  189.2370  177.9190  144.5460 C   0  0  0  0  0  2  0  0  0  0  0  0
  188.0480  176.9720  144.5580 C   0  0  0  0  0  2  0  0  0  0  0  0
  187.0270  177.4500  145.4800 N   0  0  0  0  0  2  0  0  0  0  0  0
  186.0630  178.2260  144.7130 C   0  0  0  0  0  2  0  0  0  0  0  0
  185.8480  177.6220  143.4700 O   0  0  0  0  0  0  0  0  0  0  0  0
  184.7720  178.6420  142.6470 P   0  0  0  0  0  0  0  0  0  0  0  0
  183.7970  179.4390  143.7770 O   0  0  0  0  0  1  0  0  0  0  0  0
  183.8920  177.8290  141.7240 O   0  0  0  0  0  0  0  0  0  0  0  0
  185.6300  179.7900  141.7470 O   0  0  0  0  0  1  0  0  0  0  0  0
  1 13  2  0  0  0  0
  2 11  1  0  0  0  0
  2  8  1  0  0  0  0
  4 12  1  0  0  0  0
  4  1  1  0  0  0  0
  5  3  1  6  0  0  0
  5  6  1  0  0  0  0
  6 21  1  1  0  0  0
  7  2  2  0  0  0  0
  9 17  1  1  0  0  0
  9  6  1  0  0  0  0
 10 13  1  0  0  0  0
 10 11  2  0  0  0  0
 12 10  1  0  0  0  0
 13  5  1  0  0  0  0
 14 12  2  0  0  0  0
 14  7  1  0  0  0  0
 15  1  1  0  0  0  0
 15  9  1  0  0  0  0
 16 15  2  0  0  0  0
 18 19  1  0  0  0  0
 18 20  1  0  0  0  0
 19 17  1  1  0  0  0
 19 20  1  0  0  0  0
 21 22  1  0  0  0  0
 22 23  1  0  0  0  0
 23 24  1  1  0  0  0
 23 25  1  0  0  0  0
 25 26  1  0  0  0  0
 26 27  1  0  0  0  0
 27 28  1  0  0  0  0
 29 28  1  0  0  0  0
 30 29  1  0  0  0  0
 31 30  1  0  0  0  0
 31 32  1  0  0  0  0
 33 31  2  0  0  0  0
 34 31  1  0  0  0  0
M  END
>  <MODEL>
4

>  <REMARK>
 VINA RESULT:      -6.6      3.799      6.874
  Name = 
  12 active torsions:
  status: ('A' for Active; 'I' for Inactive)
    1  A    between atoms: C_2  and  O_4
    2  A    between atoms: C_2  and  N_12
    3  A    between atoms: O_4  and  P_13
    4  A    between atoms: N_5  and  C_18
    5  A    between atoms: N_5  and  C_29
    6  A    between atoms: C_6  and  C_8
    7  A    between atoms: C_6  and  N_12
    8  A    between atoms: C_8  and  N_16
    9  A    between atoms: C_11  and  C_23
   10  A    between atoms: C_15  and  C_23
   11  A    between atoms: C_15  and  C_32
   12  A    between atoms: N_16  and  C_32
                            x       y       z     vdW  Elec       q    Type
                         _______ _______ _______ _____ _____    ______ ____

>  <TORSDO>
F 12

$$$$
=
 OpenBabel11032421113D

 34 37  0  0  1  0  0  0  0  0999 V2000
  182.1910  178.9410  142.1500 C   0  0  0  0  0  0  0  0  0  0  0  0
  186.0700  178.2860  144.7010 C   0  0  0  0  0  0  0  0  0  0  0  0
  184.6950  179.6250  140.1620 O   0  0  0  0  0  1  0  0  0  0  0  0
  181.8300  179.1290  143.7950 S   0  0  0  0  0  0  0  0  0  0  0  0
  184.1370  178.4300  140.6170 C   0  0  2  0  0  3  0  0  0  0  0  0
  183.0770  177.9310  139.6120 C   0  0  2  0  0  3  0  0  0  0  0  0
  185.2020  178.5450  145.7790 C   0  0  0  0  0  3  0  0  0  0  0  0
  187.3780  178.0200  144.9330 F   0  0  0  0  0  0  0  0  0  0  0  0
  181.8110  178.8290  139.6250 C   0  0  2  0  0  3  0  0  0  0  0  0
  184.2270  178.5810  143.1930 C   0  0  0  0  0  0  0  0  0  0  0  0
  185.5790  178.3030  143.3870 C   0  0  0  0  0  3  0  0  0  0  0  0
  183.4120  178.8310  144.2850 C   0  0  0  0  0  0  0  0  0  0  0  0
  183.5370  178.6360  141.9800 C   0  0  0  0  0  0  0  0  0  0  0  0
  183.8830  178.8140  145.5570 N   0  0  0  0  0  0  0  0  0  0  0  0
  181.2610  179.0190  141.0190 C   0  0  0  0  0  0  0  0  0  0  0  0
  180.0500  179.3110  141.2030 O   0  0  0  0  0  0  0  0  0  0  0  0
  180.7900  178.3080  138.7260 N   0  0  0  0  0  2  0  0  0  0  0  0
  180.4340  178.6470  136.3810 C   0  0  0  0  0  2  0  0  0  0  0  0
  180.5720  179.3090  137.6960 C   0  0  2  0  0  3  0  0  0  0  0  0
  181.6360  179.2600  136.7760 O   0  0  0  0  0  0  0  0  0  0  0  0
  182.7260  176.4620  139.8720 C   0  0  0  0  0  2  0  0  0  0  0  0
  182.7010  175.6540  138.5830 C   0  0  0  0  0  2  0  0  0  0  0  0
  183.9620  175.8940  137.7590 C   0  0  1  0  0  3  0  0  0  0  0  0
  184.7210  174.7370  137.6520 F   0  0  0  0  0  0  0  0  0  0  0  0
  183.6400  176.4360  136.4410 N   0  0  0  0  0  2  0  0  0  0  0  0
  184.6690  176.0520  135.4800 C   0  0  0  0  0  2  0  0  0  0  0  0
  185.5840  177.2330  135.2000 C   0  0  0  0  0  2  0  0  0  0  0  0
  186.8500  177.0730  135.9020 N   0  0  0  0  0  2  0  0  0  0  0  0
  187.0530  178.2530  136.7290 C   0  0  0  0  0  2  0  0  0  0  0  0
  186.7460  177.9570  138.0610 O   0  0  0  0  0  0  0  0  0  0  0  0
  188.2180  178.0510  138.9000 P   0  0  0  0  0  0  0  0  0  0  0  0
  187.8990  178.2270  140.5510 O   0  0  0  0  0  1  0  0  0  0  0  0
  189.0090  179.2480  138.4210 O   0  0  0  0  0  0  0  0  0  0  0  0
  189.1190  176.6400  138.6550 O   0  0  0  0  0  1  0  0  0  0  0  0
  1  4  1  0  0  0  0
  2  8  1  0  0  0  0
  2  7  1  0  0  0  0
  4 12  1  0  0  0  0
  5  3  1  6  0  0  0
  5 13  1  0  0  0  0
  6  9  1  0  0  0  0
  6 21  1  1  0  0  0
  6  5  1  0  0  0  0
  9 17  1  6  0  0  0
  9 15  1  0  0  0  0
 10 11  1  0  0  0  0
 10 12  2  0  0  0  0
 11  2  2  0  0  0  0
 12 14  1  0  0  0  0
 13  1  2  0  0  0  0
 13 10  1  0  0  0  0
 14  7  2  0  0  0  0
 15 16  2  0  0  0  0
 15  1  1  0  0  0  0
 18 20  1  0  0  0  0
 18 19  1  0  0  0  0
 19 17  1  1  0  0  0
 20 19  1  0  0  0  0
 22 21  1  0  0  0  0
 23 24  1  6  0  0  0
 23 22  1  0  0  0  0
 25 23  1  0  0  0  0
 26 25  1  0  0  0  0
 27 26  1  0  0  0  0
 27 28  1  0  0  0  0
 28 29  1  0  0  0  0
 29 30  1  0  0  0  0
 30 31  1  0  0  0  0
 31 32  1  0  0  0  0
 33 31  2  0  0  0  0
 34 31  1  0  0  0  0
M  END
>  <MODEL>
5

>  <REMARK>
 VINA RESULT:      -6.4      4.414      7.988
  Name = 
  12 active torsions:
  status: ('A' for Active; 'I' for Inactive)
    1  A    between atoms: C_2  and  O_4
    2  A    between atoms: C_2  and  N_12
    3  A    between atoms: O_4  and  P_13
    4  A    between atoms: N_5  and  C_18
    5  A    between atoms: N_5  and  C_29
    6  A    between atoms: C_6  and  C_8
    7  A    between atoms: C_6  and  N_12
    8  A    between atoms: C_8  and  N_16
    9  A    between atoms: C_11  and  C_23
   10  A    between atoms: C_15  and  C_23
   11  A    between atoms: C_15  and  C_32
   12  A    between atoms: N_16  and  C_32
                            x       y       z     vdW  Elec       q    Type
                         _______ _______ _______ _____ _____    ______ ____

>  <TORSDO>
F 12

$$$$
=
 OpenBabel11032421113D

 34 37  0  0  1  0  0  0  0  0999 V2000
  188.0710  176.1530  137.4430 C   0  0  0  0  0  0  0  0  0  0  0  0
  183.9390  178.2820  138.0610 C   0  0  0  0  0  0  0  0  0  0  0  0
  188.7420  179.3380  137.7550 O   0  0  0  0  0  1  0  0  0  0  0  0
  186.8370  175.2100  136.7660 S   0  0  0  0  0  0  0  0  0  0  0  0
  188.4180  178.3380  138.6710 C   0  0  2  0  0  3  0  0  0  0  0  0
  189.7080  177.6980  139.2270 C   0  0  2  0  0  3  0  0  0  0  0  0
  183.4460  177.1530  137.3790 C   0  0  0  0  0  3  0  0  0  0  0  0
  183.0860  179.2470  138.4790 F   0  0  0  0  0  0  0  0  0  0  0  0
  190.4280  176.8410  138.1520 C   0  0  2  0  0  3  0  0  0  0  0  0
  186.1570  177.3890  137.8610 C   0  0  0  0  0  0  0  0  0  0  0  0
  185.3150  178.4050  138.3080 C   0  0  0  0  0  3  0  0  0  0  0  0
  185.6260  176.2980  137.1930 C   0  0  0  0  0  0  0  0  0  0  0  0
  187.5440  177.3080  138.0110 C   0  0  0  0  0  0  0  0  0  0  0  0
  184.2970  176.1740  136.9540 N   0  0  0  0  0  0  0  0  0  0  0  0
  189.5020  175.8370  137.5060 C   0  0  0  0  0  0  0  0  0  0  0  0
  189.9510  174.7900  136.9710 O   0  0  0  0  0  0  0  0  0  0  0  0
  191.6040  176.1840  138.7070 N   0  0  0  0  0  2  0  0  0  0  0  0
  193.6240  175.4120  137.6740 C   0  0  0  0  0  2  0  0  0  0  0  0
  192.7420  176.5780  137.8930 C   0  0  2  0  0  3  0  0  0  0  0  0
  193.9230  176.3930  138.6350 O   0  0  0  0  0  0  0  0  0  0  0  0
  189.4130  176.8820  140.4900 C   0  0  0  0  0  2  0  0  0  0  0  0
  189.1890  177.7790  141.6990 C   0  0  0  0  0  2  0  0  0  0  0  0
  189.6200  177.0840  142.9860 C   0  0  1  0  0  3  0  0  0  0  0  0
  188.6810  176.1460  143.3890 F   0  0  0  0  0  0  0  0  0  0  0  0
  190.9430  176.4770  142.8450 N   0  0  0  0  0  2  0  0  0  0  0  0
  191.4190  176.0170  144.1450 C   0  0  0  0  0  2  0  0  0  0  0  0
  191.6290  177.2040  145.0700 C   0  0  0  0  0  2  0  0  0  0  0  0
  191.9060  176.7500  146.4250 N   0  0  0  0  0  2  0  0  0  0  0  0
  190.6590  176.7970  147.1750 C   0  0  0  0  0  2  0  0  0  0  0  0
  189.8260  177.7890  146.6490 O   0  0  0  0  0  0  0  0  0  0  0  0
  188.3100  177.5400  147.3670 P   0  0  0  0  0  0  0  0  0  0  0  0
  187.1190  177.5900  146.1680 O   0  0  0  0  0  0  0  0  0  0  0  0
  188.0340  178.6280  148.3820 O   0  0  0  0  0  1  0  0  0  0  0  0
  188.2680  176.0300  148.1290 O   0  0  0  0  0  1  0  0  0  0  0  0
  1 15  1  0  0  0  0
  1 13  2  0  0  0  0
  2 11  1  0  0  0  0
  2  8  1  0  0  0  0
  4 12  1  0  0  0  0
  4  1  1  0  0  0  0
  5  3  1  6  0  0  0
  5  6  1  0  0  0  0
  6 21  1  1  0  0  0
  7  2  2  0  0  0  0
  9 17  1  1  0  0  0
  9  6  1  0  0  0  0
 10 13  1  0  0  0  0
 10 11  2  0  0  0  0
 12 10  1  0  0  0  0
 13  5  1  0  0  0  0
 14 12  2  0  0  0  0
 14  7  1  0  0  0  0
 15  9  1  0  0  0  0
 16 15  2  0  0  0  0
 18 19  1  0  0  0  0
 18 20  1  0  0  0  0
 19 20  1  0  0  0  0
 19 17  1  1  0  0  0
 21 22  1  0  0  0  0
 22 23  1  0  0  0  0
 23 24  1  6  0  0  0
 25 23  1  0  0  0  0
 25 26  1  0  0  0  0
 26 27  1  0  0  0  0
 27 28  1  0  0  0  0
 28 29  1  0  0  0  0
 30 29  1  0  0  0  0
 30 31  1  0  0  0  0
 31 34  1  0  0  0  0
 31 33  1  0  0  0  0
 32 31  2  0  0  0  0
M  END
>  <MODEL>
6

>  <REMARK>
 VINA RESULT:      -6.3      4.013      7.619
  Name = 
  12 active torsions:
  status: ('A' for Active; 'I' for Inactive)
    1  A    between atoms: C_2  and  O_4
    2  A    between atoms: C_2  and  N_12
    3  A    between atoms: O_4  and  P_13
    4  A    between atoms: N_5  and  C_18
    5  A    between atoms: N_5  and  C_29
    6  A    between atoms: C_6  and  C_8
    7  A    between atoms: C_6  and  N_12
    8  A    between atoms: C_8  and  N_16
    9  A    between atoms: C_11  and  C_23
   10  A    between atoms: C_15  and  C_23
   11  A    between atoms: C_15  and  C_32
   12  A    between atoms: N_16  and  C_32
                            x       y       z     vdW  Elec       q    Type
                         _______ _______ _______ _____ _____    ______ ____

>  <TORSDO>
F 12

$$$$
=
 OpenBabel11032421113D

 34 37  0  0  1  0  0  0  0  0999 V2000
  190.5840  177.4060  143.4710 C   0  0  0  0  0  0  0  0  0  0  0  0
  188.5430  177.2940  147.6910 C   0  0  0  0  0  0  0  0  0  0  0  0
  188.1230  175.2690  143.2180 O   0  0  0  0  0  1  0  0  0  0  0  0
  191.7010  177.8710  144.6570 S   0  0  0  0  0  0  0  0  0  0  0  0
  188.1780  176.6630  143.2290 C   0  0  2  0  0  3  0  0  0  0  0  0
  188.2700  177.1950  141.7830 C   0  0  2  0  0  3  0  0  0  0  0  0
  189.8120  177.7170  148.1300 C   0  0  0  0  0  3  0  0  0  0  0  0
  187.5440  177.1070  148.5860 F   0  0  0  0  0  0  0  0  0  0  0  0
  189.6520  176.8860  141.1490 C   0  0  2  0  0  3  0  0  0  0  0  0
  189.3680  177.2720  145.4380 C   0  0  0  0  0  0  0  0  0  0  0  0
  188.3130  177.0670  146.3250 C   0  0  0  0  0  3  0  0  0  0  0  0
  190.6000  177.6870  145.9170 C   0  0  0  0  0  0  0  0  0  0  0  0
  189.3520  177.1180  144.0500 C   0  0  0  0  0  0  0  0  0  0  0  0
  190.8260  177.9080  147.2360 N   0  0  0  0  0  0  0  0  0  0  0  0
  190.7960  177.3450  142.0210 C   0  0  0  0  0  0  0  0  0  0  0  0
  191.9270  177.6000  141.5280 O   0  0  0  0  0  0  0  0  0  0  0  0
  189.7540  177.4560  139.8110 N   0  0  0  0  0  2  0  0  0  0  0  0
  191.2860  176.6960  138.1330 C   0  0  0  0  0  2  0  0  0  0  0  0
  190.0680  176.3660  138.9030 C   0  0  2  0  0  3  0  0  0  0  0  0
  190.0030  176.8390  137.5790 O   0  0  0  0  0  0  0  0  0  0  0  0
  187.9500  178.6920  141.7310 C   0  0  0  0  0  2  0  0  0  0  0  0
  186.5160  178.9460  141.2890 C   0  0  0  0  0  2  0  0  0  0  0  0
  185.5260  178.5310  142.3730 C   0  0  1  0  0  3  0  0  0  0  0  0
  185.9270  178.9870  143.6210 F   0  0  0  0  0  0  0  0  0  0  0  0
  184.1730  178.9830  142.0570 N   0  0  0  0  0  2  0  0  0  0  0  0
  183.9650  178.9560  140.6130 C   0  0  0  0  0  2  0  0  0  0  0  0
  183.0200  177.8240  140.2470 C   0  0  0  0  0  2  0  0  0  0  0  0
  183.5140  177.1050  139.0810 N   0  0  0  0  0  2  0  0  0  0  0  0
  184.3670  178.0130  138.3270 C   0  0  0  0  0  2  0  0  0  0  0  0
  184.5840  177.5030  137.0430 O   0  0  0  0  0  0  0  0  0  0  0  0
  186.2690  177.4630  136.8470 P   0  0  0  0  0  0  0  0  0  0  0  0
  186.9700  178.5960  137.8890 O   0  0  0  0  0  1  0  0  0  0  0  0
  186.6320  177.8140  135.4220 O   0  0  0  0  0  0  0  0  0  0  0  0
  186.8620  175.9240  137.2220 O   0  0  0  0  0  1  0  0  0  0  0  0
  1 13  2  0  0  0  0
  1  4  1  0  0  0  0
  2  7  1  0  0  0  0
  2  8  1  0  0  0  0
  4 12  1  0  0  0  0
  5  3  1  6  0  0  0
  5 13  1  0  0  0  0
  6 21  1  1  0  0  0
  6  5  1  0  0  0  0
  9 17  1  6  0  0  0
  9  6  1  0  0  0  0
  9 15  1  0  0  0  0
 10 12  2  0  0  0  0
 10 11  1  0  0  0  0
 11  2  2  0  0  0  0
 12 14  1  0  0  0  0
 13 10  1  0  0  0  0
 14  7  2  0  0  0  0
 15  1  1  0  0  0  0
 16 15  2  0  0  0  0
 18 19  1  0  0  0  0
 19 17  1  1  0  0  0
 20 18  1  0  0  0  0
 20 19  1  0  0  0  0
 22 21  1  0  0  0  0
 22 23  1  0  0  0  0
 23 24  1  1  0  0  0
 25 23  1  0  0  0  0
 26 25  1  0  0  0  0
 27 26  1  0  0  0  0
 28 27  1  0  0  0  0
 29 28  1  0  0  0  0
 30 29  1  0  0  0  0
 31 30  1  0  0  0  0
 31 34  1  0  0  0  0
 31 32  1  0  0  0  0
 33 31  2  0  0  0  0
M  END
>  <MODEL>
7

>  <REMARK>
 VINA RESULT:      -6.1      2.708      5.938
  Name = 
  12 active torsions:
  status: ('A' for Active; 'I' for Inactive)
    1  A    between atoms: C_2  and  O_4
    2  A    between atoms: C_2  and  N_12
    3  A    between atoms: O_4  and  P_13
    4  A    between atoms: N_5  and  C_18
    5  A    between atoms: N_5  and  C_29
    6  A    between atoms: C_6  and  C_8
    7  A    between atoms: C_6  and  N_12
    8  A    between atoms: C_8  and  N_16
    9  A    between atoms: C_11  and  C_23
   10  A    between atoms: C_15  and  C_23
   11  A    between atoms: C_15  and  C_32
   12  A    between atoms: N_16  and  C_32
                            x       y       z     vdW  Elec       q    Type
                         _______ _______ _______ _____ _____    ______ ____

>  <TORSDO>
F 12

$$$$
=
 OpenBabel11032421113D

 34 37  0  0  1  0  0  0  0  0999 V2000
  190.5010  177.5870  143.7440 C   0  0  0  0  0  0  0  0  0  0  0  0
  187.8270  177.4250  147.5930 C   0  0  0  0  0  0  0  0  0  0  0  0
  188.3140  175.2150  143.2150 O   0  0  0  0  0  1  0  0  0  0  0  0
  191.3670  178.1980  145.0660 S   0  0  0  0  0  0  0  0  0  0  0  0
  188.2420  176.6070  143.1660 C   0  0  2  0  0  3  0  0  0  0  0  0
  188.5170  177.0950  141.7280 C   0  0  2  0  0  3  0  0  0  0  0  0
  188.9670  177.9830  148.2030 C   0  0  0  0  0  3  0  0  0  0  0  0
  186.7190  177.1740  148.3290 F   0  0  0  0  0  0  0  0  0  0  0  0
  190.0050  176.8990  141.3330 C   0  0  2  0  0  3  0  0  0  0  0  0
  189.0030  177.4050  145.5010 C   0  0  0  0  0  0  0  0  0  0  0  0
  187.8420  177.1310  146.2210 C   0  0  0  0  0  3  0  0  0  0  0  0
  190.1000  177.9530  146.1460 C   0  0  0  0  0  0  0  0  0  0  0  0
  189.2240  177.2010  144.1370 C   0  0  0  0  0  0  0  0  0  0  0  0
  190.0900  178.2400  147.4710 N   0  0  0  0  0  0  0  0  0  0  0  0
  190.9490  177.4960  142.3510 C   0  0  0  0  0  0  0  0  0  0  0  0
  192.1160  177.8400  142.0280 O   0  0  0  0  0  0  0  0  0  0  0  0
  190.2690  177.4290  140.0020 N   0  0  0  0  0  2  0  0  0  0  0  0
  190.2190  176.8330  137.6820 C   0  0  0  0  0  2  0  0  0  0  0  0
  190.1460  176.3230  139.0670 C   0  0  2  0  0  3  0  0  0  0  0  0
  188.9910  176.5100  138.2840 O   0  0  0  0  0  0  0  0  0  0  0  0
  188.0770  178.5520  141.5520 C   0  0  0  0  0  2  0  0  0  0  0  0
  186.9470  178.6800  140.5410 C   0  0  0  0  0  2  0  0  0  0  0  0
  185.6260  179.0050  141.2310 C   0  0  1  0  0  3  0  0  0  0  0  0
  184.5590  178.3940  140.5890 F   0  0  0  0  0  0  0  0  0  0  0  0
  185.6650  178.6450  142.6470 N   0  0  0  0  0  2  0  0  0  0  0  0
  185.0020  179.6750  143.4400 C   0  0  0  0  0  2  0  0  0  0  0  0
  184.8840  179.2210  144.8850 C   0  0  0  0  0  2  0  0  0  0  0  0
  183.5760  178.6290  145.1270 N   0  0  0  0  0  2  0  0  0  0  0  0
  182.6600  179.1450  144.1210 C   0  0  0  0  0  2  0  0  0  0  0  0
  181.3760  178.6360  144.3420 O   0  0  0  0  0  0  0  0  0  0  0  0
  180.5220  178.9130  142.9030 P   0  0  0  0  0  0  0  0  0  0  0  0
  180.0350  180.5320  142.8560 O   0  0  0  0  0  1  0  0  0  0  0  0
  179.2970  178.0280  142.8510 O   0  0  0  0  0  1  0  0  0  0  0  0
  181.5110  178.5930  141.5680 O   0  0  0  0  0  0  0  0  0  0  0  0
  1 13  2  0  0  0  0
  1  4  1  0  0  0  0
  2  7  1  0  0  0  0
  2  8  1  0  0  0  0
  4 12  1  0  0  0  0
  5  3  1  6  0  0  0
  5 13  1  0  0  0  0
  6 21  1  1  0  0  0
  6  5  1  0  0  0  0
  9 17  1  6  0  0  0
  9  6  1  0  0  0  0
  9 15  1  0  0  0  0
 10 12  2  0  0  0  0
 10 11  1  0  0  0  0
 11  2  2  0  0  0  0
 12 14  1  0  0  0  0
 13 10  1  0  0  0  0
 14  7  2  0  0  0  0
 15  1  1  0  0  0  0
 16 15  2  0  0  0  0
 18 20  1  0  0  0  0
 18 19  1  0  0  0  0
 19 17  1  1  0  0  0
 20 19  1  0  0  0  0
 22 23  1  0  0  0  0
 22 21  1  0  0  0  0
 23 24  1  6  0  0  0
 23 25  1  0  0  0  0
 25 26  1  0  0  0  0
 26 27  1  0  0  0  0
 27 28  1  0  0  0  0
 29 30  1  0  0  0  0
 29 28  1  0  0  0  0
 31 30  1  0  0  0  0
 32 31  1  0  0  0  0
 33 31  1  0  0  0  0
 34 31  2  0  0  0  0
M  END
>  <MODEL>
8

>  <REMARK>
 VINA RESULT:      -6.1      3.557      6.690
  Name = 
  12 active torsions:
  status: ('A' for Active; 'I' for Inactive)
    1  A    between atoms: C_2  and  O_4
    2  A    between atoms: C_2  and  N_12
    3  A    between atoms: O_4  and  P_13
    4  A    between atoms: N_5  and  C_18
    5  A    between atoms: N_5  and  C_29
    6  A    between atoms: C_6  and  C_8
    7  A    between atoms: C_6  and  N_12
    8  A    between atoms: C_8  and  N_16
    9  A    between atoms: C_11  and  C_23
   10  A    between atoms: C_15  and  C_23
   11  A    between atoms: C_15  and  C_32
   12  A    between atoms: N_16  and  C_32
                            x       y       z     vdW  Elec       q    Type
                         _______ _______ _______ _____ _____    ______ ____

>  <TORSDO>
F 12

$$$$
=
 OpenBabel11032421113D

 34 37  0  0  1  0  0  0  0  0999 V2000
  183.4310  177.1180  138.8000 C   0  0  0  0  0  0  0  0  0  0  0  0
  179.7850  178.3000  141.5010 C   0  0  0  0  0  0  0  0  0  0  0  0
  183.4700  180.3830  138.9790 O   0  0  0  0  0  1  0  0  0  0  0  0
  182.2580  175.8970  138.7410 S   0  0  0  0  0  0  0  0  0  0  0  0
  183.8580  179.3750  139.8610 C   0  0  2  0  0  3  0  0  0  0  0  0
  185.3580  179.0610  139.6720 C   0  0  2  0  0  3  0  0  0  0  0  0
  179.2760  177.0610  141.0640 C   0  0  0  0  0  3  0  0  0  0  0  0
  179.0620  179.0680  142.3500 F   0  0  0  0  0  0  0  0  0  0  0  0
  185.6240  178.3410  138.3230 C   0  0  2  0  0  3  0  0  0  0  0  0
  181.7540  177.9140  140.1840 C   0  0  0  0  0  0  0  0  0  0  0  0
  181.0430  178.7360  141.0570 C   0  0  0  0  0  3  0  0  0  0  0  0
  181.2110  176.7050  139.7810 C   0  0  0  0  0  0  0  0  0  0  0  0
  183.0160  178.1500  139.6360 C   0  0  0  0  0  0  0  0  0  0  0  0
  179.9970  176.2790  140.2090 N   0  0  0  0  0  0  0  0  0  0  0  0
  184.7390  177.1310  138.1380 C   0  0  0  0  0  0  0  0  0  0  0  0
  185.0820  176.1880  137.3770 O   0  0  0  0  0  0  0  0  0  0  0  0
  187.0310  177.9860  138.1870 N   0  0  0  0  0  2  0  0  0  0  0  0
  188.9210  178.2420  136.7380 C   0  0  0  0  0  2  0  0  0  0  0  0
  187.5410  178.6870  137.0210 C   0  0  2  0  0  3  0  0  0  0  0  0
  188.6590  179.4540  137.3990 O   0  0  0  0  0  0  0  0  0  0  0  0
  185.9010  178.2550  140.8560 C   0  0  0  0  0  2  0  0  0  0  0  0
  185.5190  178.8840  142.1870 C   0  0  0  0  0  2  0  0  0  0  0  0
  185.6440  177.8770  143.3260 C   0  0  1  0  0  3  0  0  0  0  0  0
  186.6890  176.9930  143.1030 F   0  0  0  0  0  0  0  0  0  0  0  0
  185.7890  178.5500  144.6160 N   0  0  0  0  0  2  0  0  0  0  0  0
  186.4160  177.6490  145.5780 C   0  0  0  0  0  2  0  0  0  0  0  0
  187.7920  178.1720  145.9570 C   0  0  0  0  0  2  0  0  0  0  0  0
  188.7940  177.1280  145.7960 N   0  0  0  0  0  2  0  0  0  0  0  0
  189.8850  177.6760  145.0030 C   0  0  0  0  0  2  0  0  0  0  0  0
  189.3880  178.1820  143.7980 O   0  0  0  0  0  0  0  0  0  0  0  0
  190.0950  177.2360  142.5800 P   0  0  0  0  0  0  0  0  0  0  0  0
  189.4030  177.6480  141.0930 O   0  0  0  0  0  0  0  0  0  0  0  0
  189.8430  175.7700  142.8520 O   0  0  0  0  0  1  0  0  0  0  0  0
  191.7620  177.5220  142.5150 O   0  0  0  0  0  1  0  0  0  0  0  0
  1 13  2  0  0  0  0
  2  8  1  0  0  0  0
  4  1  1  0  0  0  0
  4 12  1  0  0  0  0
  5  3  1  6  0  0  0
  6  5  1  0  0  0  0
  6 21  1  1  0  0  0
  7  2  1  0  0  0  0
  9 17  1  1  0  0  0
  9  6  1  0  0  0  0
 10 11  1  0  0  0  0
 11  2  2  0  0  0  0
 12 10  2  0  0  0  0
 12 14  1  0  0  0  0
 13  5  1  0  0  0  0
 13 10  1  0  0  0  0
 14  7  2  0  0  0  0
 15  9  1  0  0  0  0
 15  1  1  0  0  0  0
 16 15  2  0  0  0  0
 18 19  1  0  0  0  0
 18 20  1  0  0  0  0
 19 20  1  0  0  0  0
 19 17  1  1  0  0  0
 21 22  1  0  0  0  0
 22 23  1  0  0  0  0
 23 24  1  6  0  0  0
 23 25  1  0  0  0  0
 25 26  1  0  0  0  0
 26 27  1  0  0  0  0
 28 27  1  0  0  0  0
 29 28  1  0  0  0  0
 30 29  1  0  0  0  0
 31 33  1  0  0  0  0
 31 30  1  0  0  0  0
 32 31  2  0  0  0  0
 34 31  1  0  0  0  0
M  END
>  <MODEL>
9

>  <REMARK>
 VINA RESULT:      -6.0      3.795      7.410
  Name = 
  12 active torsions:
  status: ('A' for Active; 'I' for Inactive)
    1  A    between atoms: C_2  and  O_4
    2  A    between atoms: C_2  and  N_12
    3  A    between atoms: O_4  and  P_13
    4  A    between atoms: N_5  and  C_18
    5  A    between atoms: N_5  and  C_29
    6  A    between atoms: C_6  and  C_8
    7  A    between atoms: C_6  and  N_12
    8  A    between atoms: C_8  and  N_16
    9  A    between atoms: C_11  and  C_23
   10  A    between atoms: C_15  and  C_23
   11  A    between atoms: C_15  and  C_32
   12  A    between atoms: N_16  and  C_32
                            x       y       z     vdW  Elec       q    Type
                         _______ _______ _______ _____ _____    ______ ____

>  <TORSDO>
F 12

$$$$
