=
 OpenBabel11042411153D

 54 60  0  0  1  0  0  0  0  0999 V2000
  189.8640  176.7440  138.0610 C   0  0  0  0  0  0  0  0  0  0  0  0
  190.8540  176.2890  138.7980 C   0  0  2  0  0  3  0  0  0  0  0  0
  190.8500  177.0310  140.3430 S   0  0  0  0  0  0  0  0  0  0  0  0
  189.5450  176.0620  136.7740 C   0  0  0  0  0  0  0  0  0  0  0  0
  189.3660  179.1710  137.9900 C   0  0  0  0  0  1  0  0  0  0  0  0
  193.5070  174.4060  137.0370 C   0  0  0  0  0  0  0  0  0  0  0  0
  191.8300  175.7510  135.9520 C   0  0  0  0  0  0  0  0  0  0  0  0
  192.6410  175.7210  134.7910 C   0  0  0  0  0  3  0  0  0  0  0  0
  189.0580  177.8660  138.6930 C   0  0  2  0  0  3  0  0  0  0  0  0
  191.8690  175.3680  138.3720 N   0  0  0  0  0  0  0  0  0  0  0  0
  194.2160  174.3840  135.8770 C   0  0  0  0  0  0  0  0  0  0  0  0
  190.6990  176.0320  141.4590 O   0  0  0  0  0  0  0  0  0  0  0  0
  192.3280  175.1450  137.1630 C   0  0  0  0  0  0  0  0  0  0  0  0
  196.3980  173.4870  135.0820 C   0  0  0  0  0  1  0  0  0  0  0  0
  194.2720  173.7110  137.9600 C   0  0  0  0  0  3  0  0  0  0  0  0
  189.4310  178.0100  140.1140 N   0  0  0  0  0  0  0  0  0  0  0  0
  192.0650  177.8920  140.5420 O   0  0  0  0  0  0  0  0  0  0  0  0
  195.3510  173.7110  136.0620 N   0  0  0  0  0  0  0  0  0  0  0  0
  193.8300  175.0550  134.7680 N   0  0  0  0  0  0  0  0  0  0  0  0
  195.3920  173.2920  137.3200 N   0  0  0  0  0  0  0  0  0  0  0  0
  190.6200  176.2140  135.8060 N   0  0  0  0  0  0  0  0  0  0  0  0
  188.2050  176.9260  134.8360 C   0  0  0  0  0  1  0  0  0  0  0  0
  188.1210  176.2040  136.1840 C   0  0  2  0  0  0  0  0  0  0  0  0
  186.3810  178.0840  136.4100 C   0  0  0  0  0  1  0  0  0  0  0  0
  187.1770  176.9920  137.1140 C   0  0  0  0  0  2  0  0  0  0  0  0
  187.5210  174.7870  135.9700 C   0  0  1  0  0  3  0  0  0  0  0  0
  183.2970  174.4570  138.3930 F   0  0  0  0  0  0  0  0  0  0  0  0
  183.2320  174.4190  136.0150 C   0  0  0  0  0  3  0  0  0  0  0  0
  183.9100  174.4560  134.7920 C   0  0  0  0  0  3  0  0  0  0  0  0
  183.9510  174.4950  137.2110 C   0  0  0  0  0  0  0  0  0  0  0  0
  185.3030  174.5680  134.7680 C   0  0  0  0  0  3  0  0  0  0  0  0
  186.0230  174.6460  135.9660 C   0  0  0  0  0  0  0  0  0  0  0  0
  185.3440  174.6090  137.1850 C   0  0  0  0  0  3  0  0  0  0  0  0
  188.1920  173.9380  135.0520 O   0  0  0  0  0  0  0  0  0  0  0  0
  188.9430  173.0560  135.7670 N   0  0  0  0  0  0  0  0  0  0  0  0
  188.8690  170.9290  134.5950 C   0  0  0  0  0  2  0  0  0  0  0  0
  188.0140  172.1580  136.4470 C   0  0  0  0  0  2  0  0  0  0  0  0
  189.6610  172.2130  134.8110 C   0  0  0  0  0  2  0  0  0  0  0  0
  187.6660  171.0380  135.4950 C   0  0  0  0  0  2  0  0  0  0  0  0
  188.3360  177.5680  140.9860 C   0  0  0  0  0  2  0  0  0  0  0  0
  188.0970  178.4690  142.2010 C   0  0  0  0  0  2  0  0  0  0  0  0
  185.6370  178.7630  142.5970 C   0  0  0  0  0  0  0  0  0  0  0  0
  185.5880  179.6030  141.6660 O   0  0  0  0  0  0  0  0  0  0  0  0
  186.8710  178.0700  142.8750 N   0  0  0  0  0  0  0  0  0  0  0  0
  184.4040  178.5170  143.3920 C   0  0  0  0  0  1  0  0  0  0  0  0
  186.9980  177.0090  143.8770 C   0  0  1  0  0  3  0  0  0  0  0  0
  187.9370  175.9130  143.3900 C   0  0  0  0  0  1  0  0  0  0  0  0
  188.7750  177.2540  147.2700 C   0  0  2  0  0  3  0  0  0  0  0  0
  188.7560  177.5110  145.7580 C   0  0  0  0  0  2  0  0  0  0  0  0
  186.6540  178.5000  147.3840 C   0  0  0  0  0  3  0  0  0  0  0  0
  187.3380  177.5450  145.2440 C   0  0  0  0  0  0  0  0  0  0  0  0
  187.8050  178.1610  147.9740 C   0  0  0  0  0  3  0  0  0  0  0  0
  186.3670  178.0570  146.0090 C   0  0  0  0  0  3  0  0  0  0  0  0
  190.0590  177.4530  147.7610 O   0  0  0  0  0  1  0  0  0  0  0  0
  1  9  1  0  0  0  0
  2  1  1  6  0  0  0
  2  3  1  0  0  0  0
  3 17  2  0  0  0  0
  3 12  2  0  0  0  0
  4  1  2  0  0  0  0
  6 13  1  0  0  0  0
  6 15  1  0  0  0  0
  7 13  1  0  0  0  0
  8  7  1  0  0  0  0
  9  5  1  6  0  0  0
  9 16  1  0  0  0  0
 10  2  1  0  0  0  0
 11 18  1  0  0  0  0
 11  6  2  0  0  0  0
 13 10  2  0  0  0  0
 14 18  1  0  0  0  0
 16  3  1  0  0  0  0
 16 40  1  0  0  0  0
 18 20  1  0  0  0  0
 19  8  2  0  0  0  0
 19 11  1  0  0  0  0
 20 15  2  0  0  0  0
 21  7  2  0  0  0  0
 21  4  1  0  0  0  0
 23 22  1  6  0  0  0
 23  4  1  0  0  0  0
 23 25  1  0  0  0  0
 24 25  1  0  0  0  0
 26 34  1  6  0  0  0
 26 23  1  0  0  0  0
 28 30  1  0  0  0  0
 29 28  2  0  0  0  0
 30 27  1  0  0  0  0
 31 29  1  0  0  0  0
 31 32  2  0  0  0  0
 32 26  1  0  0  0  0
 32 33  1  0  0  0  0
 33 30  2  0  0  0  0
 34 35  1  0  0  0  0
 35 37  1  0  0  0  0
 36 38  1  0  0  0  0
 36 39  1  0  0  0  0
 38 35  1  0  0  0  0
 39 37  1  0  0  0  0
 40 41  1  0  0  0  0
 41 44  1  0  0  0  0
 42 44  1  0  0  0  0
 42 45  1  0  0  0  0
 43 42  2  0  0  0  0
 44 46  1  0  0  0  0
 46 47  1  6  0  0  0
 46 51  1  0  0  0  0
 48 54  1  1  0  0  0
 48 52  1  0  0  0  0
 49 48  1  0  0  0  0
 50 52  2  0  0  0  0
 51 49  1  0  0  0  0
 51 53  2  0  0  0  0
 53 50  1  0  0  0  0
M  END
>  <MODEL>
1

>  <REMARK>
 VINA RESULT:      -8.9      0.000      0.000
  Name = 
  11 active torsions:
  status: ('A' for Active; 'I' for Inactive)
    1  A    between atoms: C_5  and  C_8
    2  A    between atoms: C_5  and  N_41
    3  A    between atoms: C_6  and  C_35
    4  A    between atoms: C_6  and  N_43
    5  A    between atoms: C_8  and  N_43
    6  A    between atoms: C_10  and  C_37
    7  A    between atoms: C_13  and  C_37
    8  A    between atoms: C_13  and  C_39
    9  A    between atoms: C_13  and  O_50
   10  A    between atoms: N_23  and  O_50
   11  A    between atoms: C_36  and  C_37
                            x       y       z     vdW  Elec       q    Type
                         _______ _______ _______ _____ _____    ______ ____

>  <TORSDO>
F 11

$$$$
=
 OpenBabel11042411153D

 54 60  0  0  1  0  0  0  0  0999 V2000
  187.2580  176.8120  137.6710 C   0  0  0  0  0  0  0  0  0  0  0  0
  186.1730  176.2300  137.2100 C   0  0  0  0  0  0  0  0  0  0  0  0
  186.5340  175.2770  135.8310 S   0  0  0  0  0  0  0  0  0  0  0  0
  187.2090  177.4930  138.9960 C   0  0  2  0  0  3  0  0  0  0  0  0
  188.8600  177.8910  136.1150 C   0  0  0  0  0  1  0  0  0  0  0  0
  182.9390  177.5070  138.4750 C   0  0  0  0  0  0  0  0  0  0  0  0
  185.0540  178.6260  138.7420 C   0  0  0  0  0  0  0  0  0  0  0  0
  184.3270  179.7990  139.0600 C   0  0  0  0  0  3  0  0  0  0  0  0
  188.5040  176.6030  136.8270 C   0  0  2  0  0  3  0  0  0  0  0  0
  184.8390  176.4150  137.7080 N   0  0  0  0  0  0  0  0  0  0  0  0
  182.3050  178.6570  138.8270 C   0  0  0  0  0  0  0  0  0  0  0  0
  186.1890  173.8260  136.0310 O   0  0  0  0  0  0  0  0  0  0  0  0
  184.3280  177.4460  138.3380 C   0  0  0  0  0  0  0  0  0  0  0  0
  179.9580  179.4620  139.0340 C   0  0  0  0  0  1  0  0  0  0  0  0
  181.9350  176.5960  138.1820 C   0  0  0  0  0  3  0  0  0  0  0  0
  188.2480  175.5680  135.8050 N   0  0  0  0  0  0  0  0  0  0  0  0
  185.8810  175.8290  134.5950 O   0  0  0  0  0  0  0  0  0  0  0  0
  180.9860  178.4740  138.7660 N   0  0  0  0  0  0  0  0  0  0  0  0
  182.9640  179.8090  139.0840 N   0  0  0  0  0  0  0  0  0  0  0  0
  180.7500  177.2260  138.3820 N   0  0  0  0  0  0  0  0  0  0  0  0
  186.3370  178.6570  138.9680 N   0  0  0  0  0  0  0  0  0  0  0  0
  189.1100  179.0680  139.4510 C   0  0  0  0  0  1  0  0  0  0  0  0
  188.5260  177.6920  139.7850 C   0  0  2  0  0  0  0  0  0  0  0  0
  190.9900  177.1520  139.2850 C   0  0  0  0  0  1  0  0  0  0  0  0
  189.5760  176.6110  139.4550 C   0  0  0  0  0  2  0  0  0  0  0  0
  188.2170  177.6220  141.3050 C   0  0  1  0  0  3  0  0  0  0  0  0
  191.7960  179.2590  144.1920 F   0  0  0  0  0  0  0  0  0  0  0  0
  191.4710  176.9070  144.0330 C   0  0  0  0  0  3  0  0  0  0  0  0
  190.7680  175.8240  143.4950 C   0  0  0  0  0  3  0  0  0  0  0  0
  191.1170  178.2110  143.6760 C   0  0  0  0  0  0  0  0  0  0  0  0
  189.7150  176.0460  142.6040 C   0  0  0  0  0  3  0  0  0  0  0  0
  189.3590  177.3520  142.2480 C   0  0  0  0  0  0  0  0  0  0  0  0
  190.0620  178.4310  142.7850 C   0  0  0  0  0  3  0  0  0  0  0  0
  187.2460  178.5280  141.8060 O   0  0  0  0  0  0  0  0  0  0  0  0
  186.1910  177.8000  142.2650 N   0  0  0  0  0  0  0  0  0  0  0  0
  185.0070  179.1850  143.8750 C   0  0  0  0  0  2  0  0  0  0  0  0
  186.5280  177.3680  143.6190 C   0  0  0  0  0  2  0  0  0  0  0  0
  185.0620  178.7170  142.4250 C   0  0  0  0  0  2  0  0  0  0  0  0
  186.1380  178.4740  144.5720 C   0  0  0  0  0  2  0  0  0  0  0  0
  188.9990  174.3430  136.1070 C   0  0  0  0  0  2  0  0  0  0  0  0
  190.4580  174.5810  136.5060 C   0  0  0  0  0  2  0  0  0  0  0  0
  190.8480  172.4500  135.2430 C   0  0  0  0  0  0  0  0  0  0  0  0
  189.6370  172.1490  135.3760 O   0  0  0  0  0  0  0  0  0  0  0  0
  191.3290  173.7240  135.7180 N   0  0  0  0  0  0  0  0  0  0  0  0
  191.7540  171.4620  134.5960 C   0  0  0  0  0  1  0  0  0  0  0  0
  192.7010  174.1980  135.5230 C   0  0  1  0  0  3  0  0  0  0  0  0
  192.7190  175.6850  135.1960 C   0  0  0  0  0  1  0  0  0  0  0  0
  195.3110  174.6190  138.3060 C   0  0  2  0  0  3  0  0  0  0  0  0
  193.8670  174.7540  137.8060 C   0  0  0  0  0  2  0  0  0  0  0  0
  195.1710  172.2390  137.6920 C   0  0  0  0  0  3  0  0  0  0  0  0
  193.6120  173.8080  136.6580 C   0  0  0  0  0  0  0  0  0  0  0  0
  195.6690  173.1730  138.5070 C   0  0  0  0  0  3  0  0  0  0  0  0
  194.2030  172.6080  136.6450 C   0  0  0  0  0  3  0  0  0  0  0  0
  195.4600  175.3200  139.4960 O   0  0  0  0  0  1  0  0  0  0  0  0
  1  4  1  0  0  0  0
  2  1  2  0  0  0  0
  2 10  1  0  0  0  0
  3 12  2  0  0  0  0
  3  2  1  0  0  0  0
  4 23  1  6  0  0  0
  6 11  2  0  0  0  0
  7 21  2  0  0  0  0
  7  8  1  0  0  0  0
  8 19  2  0  0  0  0
  9  5  1  6  0  0  0
  9  1  1  0  0  0  0
 10 13  2  0  0  0  0
 11 19  1  0  0  0  0
 13  6  1  0  0  0  0
 13  7  1  0  0  0  0
 15 20  2  0  0  0  0
 15  6  1  0  0  0  0
 16  3  1  0  0  0  0
 16 40  1  0  0  0  0
 16  9  1  0  0  0  0
 17  3  2  0  0  0  0
 18 11  1  0  0  0  0
 18 14  1  0  0  0  0
 20 18  1  0  0  0  0
 21  4  1  0  0  0  0
 23 22  1  6  0  0  0
 23 26  1  0  0  0  0
 24 25  1  0  0  0  0
 25 23  1  0  0  0  0
 26 34  1  1  0  0  0
 26 32  1  0  0  0  0
 29 28  2  0  0  0  0
 30 28  1  0  0  0  0
 30 27  1  0  0  0  0
 31 29  1  0  0  0  0
 32 31  2  0  0  0  0
 32 33  1  0  0  0  0
 33 30  2  0  0  0  0
 34 35  1  0  0  0  0
 35 38  1  0  0  0  0
 35 37  1  0  0  0  0
 36 39  1  0  0  0  0
 37 39  1  0  0  0  0
 38 36  1  0  0  0  0
 40 41  1  0  0  0  0
 42 43  2  0  0  0  0
 42 44  1  0  0  0  0
 44 41  1  0  0  0  0
 45 42  1  0  0  0  0
 46 47  1  1  0  0  0
 46 44  1  0  0  0  0
 46 51  1  0  0  0  0
 48 52  1  0  0  0  0
 48 54  1  1  0  0  0
 49 48  1  0  0  0  0
 50 52  2  0  0  0  0
 51 49  1  0  0  0  0
 53 51  2  0  0  0  0
 53 50  1  0  0  0  0
M  END
>  <MODEL>
2

>  <REMARK>
 VINA RESULT:      -7.9      3.361      9.876
  Name = 
  11 active torsions:
  status: ('A' for Active; 'I' for Inactive)
    1  A    between atoms: C_5  and  C_8
    2  A    between atoms: C_5  and  N_41
    3  A    between atoms: C_6  and  C_35
    4  A    between atoms: C_6  and  N_43
    5  A    between atoms: C_8  and  N_43
    6  A    between atoms: C_10  and  C_37
    7  A    between atoms: C_13  and  C_37
    8  A    between atoms: C_13  and  C_39
    9  A    between atoms: C_13  and  O_50
   10  A    between atoms: N_23  and  O_50
   11  A    between atoms: C_36  and  C_37
                            x       y       z     vdW  Elec       q    Type
                         _______ _______ _______ _____ _____    ______ ____

>  <TORSDO>
F 11

$$$$
=
 OpenBabel11042411153D

 54 60  0  0  1  0  0  0  0  0999 V2000
  189.4440  177.0570  138.0080 C   0  0  0  0  0  0  0  0  0  0  0  0
  190.3740  176.4500  138.7130 C   0  0  2  0  0  3  0  0  0  0  0  0
  190.4550  177.1020  140.2970 S   0  0  0  0  0  0  0  0  0  0  0  0
  189.0490  176.4890  136.6880 C   0  0  0  0  0  0  0  0  0  0  0  0
  189.2310  179.5260  138.0740 C   0  0  0  0  0  1  0  0  0  0  0  0
  192.7920  174.3730  136.8360 C   0  0  0  0  0  0  0  0  0  0  0  0
  191.2830  175.9610  135.8370 C   0  0  0  0  0  0  0  0  0  0  0  0
  192.0860  175.9020  134.6720 C   0  0  0  0  0  3  0  0  0  0  0  0
  188.7730  178.2280  138.7060 C   0  0  2  0  0  3  0  0  0  0  0  0
  191.2760  175.4440  138.2320 N   0  0  0  0  0  0  0  0  0  0  0  0
  193.4950  174.3340  135.6730 C   0  0  0  0  0  0  0  0  0  0  0  0
  190.1890  176.0670  141.3570 O   0  0  0  0  0  0  0  0  0  0  0  0
  191.7060  175.2350  137.0100 C   0  0  0  0  0  0  0  0  0  0  0  0
  195.5580  173.2350  134.8180 C   0  0  0  0  0  1  0  0  0  0  0  0
  193.4710  173.5440  137.7160 C   0  0  0  0  0  3  0  0  0  0  0  0
  189.1590  178.2490  140.1310 N   0  0  0  0  0  0  0  0  0  0  0  0
  191.7620  177.8040  140.5360 O   0  0  0  0  0  0  0  0  0  0  0  0
  194.5430  173.5240  135.8140 N   0  0  0  0  0  0  0  0  0  0  0  0
  193.1890  175.1050  134.6050 N   0  0  0  0  0  0  0  0  0  0  0  0
  194.5360  173.0340  137.0470 N   0  0  0  0  0  0  0  0  0  0  0  0
  190.1350  176.5690  135.7240 N   0  0  0  0  0  0  0  0  0  0  0  0
  187.7530  176.9720  134.5940 C   0  0  0  0  0  1  0  0  0  0  0  0
  187.6510  176.8270  136.1150 C   0  0  2  0  0  0  0  0  0  0  0  0
  186.8570  179.2320  135.6730 C   0  0  0  0  0  1  0  0  0  0  0  0
  187.0770  178.1320  136.7030 C   0  0  0  0  0  2  0  0  0  0  0  0
  186.6740  175.6690  136.4550 C   0  0  1  0  0  3  0  0  0  0  0  0
  189.5100  172.1550  134.6010 F   0  0  0  0  0  0  0  0  0  0  0  0
  188.3150  171.6910  136.6050 C   0  0  0  0  0  3  0  0  0  0  0  0
  187.4290  172.1120  137.6020 C   0  0  0  0  0  3  0  0  0  0  0  0
  188.6560  172.5610  135.5660 C   0  0  0  0  0  0  0  0  0  0  0  0
  186.8860  173.3990  137.5580 C   0  0  0  0  0  3  0  0  0  0  0  0
  187.2280  174.2710  136.5180 C   0  0  0  0  0  0  0  0  0  0  0  0
  188.1120  173.8480  135.5240 C   0  0  0  0  0  3  0  0  0  0  0  0
  185.6640  175.9420  137.4130 O   0  0  0  0  0  0  0  0  0  0  0  0
  184.4790  176.0540  136.7530 N   0  0  0  0  0  0  0  0  0  0  0  0
  182.7880  176.6360  138.4000 C   0  0  0  0  0  2  0  0  0  0  0  0
  183.6920  174.8690  137.0820 C   0  0  0  0  0  2  0  0  0  0  0  0
  183.7500  177.1760  137.3480 C   0  0  0  0  0  2  0  0  0  0  0  0
  182.9600  175.1400  138.3750 C   0  0  0  0  0  2  0  0  0  0  0  0
  188.0200  177.8900  140.9830 C   0  0  0  0  0  2  0  0  0  0  0  0
  188.1540  178.3480  142.4380 C   0  0  0  0  0  2  0  0  0  0  0  0
  185.7380  178.7940  142.9440 C   0  0  0  0  0  0  0  0  0  0  0  0
  185.6980  179.6340  142.0130 O   0  0  0  0  0  0  0  0  0  0  0  0
  186.9380  178.0260  143.1680 N   0  0  0  0  0  0  0  0  0  0  0  0
  184.5290  178.6250  143.7960 C   0  0  0  0  0  1  0  0  0  0  0  0
  187.0450  176.9610  144.1680 C   0  0  1  0  0  3  0  0  0  0  0  0
  187.7100  175.7260  143.5750 C   0  0  0  0  0  1  0  0  0  0  0  0
  189.4990  177.0560  147.1180 C   0  0  2  0  0  3  0  0  0  0  0  0
  189.1660  177.3780  145.6560 C   0  0  0  0  0  2  0  0  0  0  0  0
  187.4650  178.3010  147.7270 C   0  0  0  0  0  3  0  0  0  0  0  0
  187.6710  177.4370  145.4540 C   0  0  0  0  0  0  0  0  0  0  0  0
  188.7100  177.9350  148.0470 C   0  0  0  0  0  3  0  0  0  0  0  0
  186.8900  177.9180  146.4270 C   0  0  0  0  0  3  0  0  0  0  0  0
  190.8610  177.2310  147.3350 O   0  0  0  0  0  1  0  0  0  0  0  0
  1  9  1  0  0  0  0
  2  1  1  6  0  0  0
  2  3  1  0  0  0  0
  3 17  2  0  0  0  0
  3 12  2  0  0  0  0
  4  1  2  0  0  0  0
  6 13  1  0  0  0  0
  6 15  1  0  0  0  0
  7 13  1  0  0  0  0
  8  7  1  0  0  0  0
  9  5  1  6  0  0  0
  9 16  1  0  0  0  0
 10  2  1  0  0  0  0
 11 18  1  0  0  0  0
 11  6  2  0  0  0  0
 13 10  2  0  0  0  0
 14 18  1  0  0  0  0
 16  3  1  0  0  0  0
 16 40  1  0  0  0  0
 18 20  1  0  0  0  0
 19  8  2  0  0  0  0
 19 11  1  0  0  0  0
 20 15  2  0  0  0  0
 21  7  2  0  0  0  0
 21  4  1  0  0  0  0
 23 22  1  6  0  0  0
 23 26  1  0  0  0  0
 23  4  1  0  0  0  0
 23 25  1  0  0  0  0
 24 25  1  0  0  0  0
 26 32  1  0  0  0  0
 26 34  1  1  0  0  0
 27 30  1  0  0  0  0
 28 29  1  0  0  0  0
 30 28  2  0  0  0  0
 31 29  2  0  0  0  0
 32 31  1  0  0  0  0
 33 30  1  0  0  0  0
 33 32  2  0  0  0  0
 35 37  1  0  0  0  0
 35 38  1  0  0  0  0
 35 34  1  0  0  0  0
 37 39  1  0  0  0  0
 38 36  1  0  0  0  0
 39 36  1  0  0  0  0
 40 41  1  0  0  0  0
 41 44  1  0  0  0  0
 42 44  1  0  0  0  0
 42 45  1  0  0  0  0
 43 42  2  0  0  0  0
 44 46  1  0  0  0  0
 46 47  1  6  0  0  0
 46 51  1  0  0  0  0
 48 54  1  6  0  0  0
 48 52  1  0  0  0  0
 49 48  1  0  0  0  0
 50 52  2  0  0  0  0
 51 49  1  0  0  0  0
 51 53  2  0  0  0  0
 53 50  1  0  0  0  0
M  END
>  <MODEL>
3

>  <REMARK>
 VINA RESULT:      -7.5      1.663      2.919
  Name = 
  11 active torsions:
  status: ('A' for Active; 'I' for Inactive)
    1  A    between atoms: C_5  and  C_8
    2  A    between atoms: C_5  and  N_41
    3  A    between atoms: C_6  and  C_35
    4  A    between atoms: C_6  and  N_43
    5  A    between atoms: C_8  and  N_43
    6  A    between atoms: C_10  and  C_37
    7  A    between atoms: C_13  and  C_37
    8  A    between atoms: C_13  and  C_39
    9  A    between atoms: C_13  and  O_50
   10  A    between atoms: N_23  and  O_50
   11  A    between atoms: C_36  and  C_37
                            x       y       z     vdW  Elec       q    Type
                         _______ _______ _______ _____ _____    ______ ____

>  <TORSDO>
F 11

$$$$
=
 OpenBabel11042411153D

 54 60  0  0  1  0  0  0  0  0999 V2000
  186.7430  175.5520  136.6670 C   0  0  0  0  0  0  0  0  0  0  0  0
  186.1460  174.3830  136.5850 C   0  0  0  0  0  0  0  0  0  0  0  0
  187.2550  173.1690  136.0990 S   0  0  0  0  0  0  0  0  0  0  0  0
  186.0200  176.6930  137.2960 C   0  0  2  0  0  3  0  0  0  0  0  0
  188.3010  176.2910  134.8850 C   0  0  0  0  0  1  0  0  0  0  0  0
  182.4470  174.4010  136.5960 C   0  0  0  0  0  0  0  0  0  0  0  0
  183.8270  176.3470  136.2650 C   0  0  0  0  0  0  0  0  0  0  0  0
  182.6800  177.0020  135.7550 C   0  0  0  0  0  3  0  0  0  0  0  0
  188.1920  175.5650  136.2090 C   0  0  2  0  0  3  0  0  0  0  0  0
  184.7460  174.1340  136.7790 N   0  0  0  0  0  0  0  0  0  0  0  0
  181.3770  175.1020  136.1340 C   0  0  0  0  0  0  0  0  0  0  0  0
  187.3830  172.0680  137.1180 O   0  0  0  0  0  0  0  0  0  0  0  0
  183.7320  174.9500  136.6160 C   0  0  0  0  0  0  0  0  0  0  0  0
  178.9740  174.6660  135.6530 C   0  0  0  0  0  1  0  0  0  0  0  0
  181.9790  173.1220  136.8530 C   0  0  0  0  0  3  0  0  0  0  0  0
  188.6670  174.1800  136.0140 N   0  0  0  0  0  0  0  0  0  0  0  0
  186.9090  172.6200  134.7440 O   0  0  0  0  0  0  0  0  0  0  0  0
  180.3050  174.3120  136.1100 N   0  0  0  0  0  0  0  0  0  0  0  0
  181.4730  176.3710  135.6780 N   0  0  0  0  0  0  0  0  0  0  0  0
  180.6560  173.1110  136.5510 N   0  0  0  0  0  0  0  0  0  0  0  0
  184.8650  177.0960  136.5090 N   0  0  0  0  0  0  0  0  0  0  0  0
  186.8330  179.0330  136.8940 C   0  0  0  0  0  1  0  0  0  0  0  0
  186.8400  177.8660  137.8860 C   0  0  2  0  0  0  0  0  0  0  0  0
  189.2970  178.6120  138.0260 C   0  0  0  0  0  1  0  0  0  0  0  0
  188.3010  177.4700  138.1800 C   0  0  0  0  0  2  0  0  0  0  0  0
  186.1820  178.3220  139.2170 C   0  0  1  0  0  3  0  0  0  0  0  0
  181.6330  176.8420  140.1850 F   0  0  0  0  0  0  0  0  0  0  0  0
  181.9350  179.0230  139.2830 C   0  0  0  0  0  3  0  0  0  0  0  0
  182.7940  180.0200  138.8070 C   0  0  0  0  0  3  0  0  0  0  0  0
  182.4610  177.8070  139.7270 C   0  0  0  0  0  0  0  0  0  0  0  0
  184.1730  179.7980  138.7760 C   0  0  0  0  0  3  0  0  0  0  0  0
  184.7000  178.5800  139.2220 C   0  0  0  0  0  0  0  0  0  0  0  0
  183.8410  177.5880  139.6960 C   0  0  0  0  0  3  0  0  0  0  0  0
  186.6790  177.7370  140.4110 O   0  0  0  0  0  0  0  0  0  0  0  0
  186.9820  178.7430  141.2760 N   0  0  0  0  0  0  0  0  0  0  0  0
  188.3980  177.8000  143.0120 C   0  0  0  0  0  2  0  0  0  0  0  0
  186.1900  178.5220  142.4830 C   0  0  0  0  0  2  0  0  0  0  0  0
  188.3740  178.5610  141.6920 C   0  0  0  0  0  2  0  0  0  0  0  0
  186.9540  177.5710  143.3740 C   0  0  0  0  0  2  0  0  0  0  0  0
  189.6440  173.8160  137.0470 C   0  0  0  0  0  2  0  0  0  0  0  0
  191.0190  173.4210  136.5010 C   0  0  0  0  0  2  0  0  0  0  0  0
  191.7400  175.3850  137.8860 C   0  0  0  0  0  0  0  0  0  0  0  0
  190.7790  175.1870  138.6680 O   0  0  0  0  0  0  0  0  0  0  0  0
  191.9830  174.4680  136.7990 N   0  0  0  0  0  0  0  0  0  0  0  0
  192.5990  176.5800  138.1110 C   0  0  0  0  0  1  0  0  0  0  0  0
  193.1320  174.5670  135.8950 C   0  0  1  0  0  3  0  0  0  0  0  0
  193.0060  175.7850  134.9900 C   0  0  0  0  0  1  0  0  0  0  0  0
  196.9220  174.8040  136.4530 C   0  0  2  0  0  3  0  0  0  0  0  0
  195.5470  175.4780  136.3630 C   0  0  0  0  0  2  0  0  0  0  0  0
  195.9500  173.3300  138.1690 C   0  0  0  0  0  3  0  0  0  0  0  0
  194.4480  174.4780  136.6240 C   0  0  0  0  0  0  0  0  0  0  0  0
  197.0250  173.9730  137.7020 C   0  0  0  0  0  3  0  0  0  0  0  0
  194.6420  173.4970  137.5140 C   0  0  0  0  0  3  0  0  0  0  0  0
  197.9180  175.7720  136.4390 O   0  0  0  0  0  1  0  0  0  0  0  0
  1  4  1  0  0  0  0
  2  1  2  0  0  0  0
  2 10  1  0  0  0  0
  3  2  1  0  0  0  0
  3 12  2  0  0  0  0
  4 23  1  6  0  0  0
  6 13  1  0  0  0  0
  6 15  1  0  0  0  0
  7 21  2  0  0  0  0
  7 13  1  0  0  0  0
  8  7  1  0  0  0  0
  9  5  1  6  0  0  0
  9  1  1  0  0  0  0
 11  6  2  0  0  0  0
 13 10  2  0  0  0  0
 14 18  1  0  0  0  0
 16  3  1  0  0  0  0
 16  9  1  0  0  0  0
 16 40  1  0  0  0  0
 17  3  2  0  0  0  0
 18 11  1  0  0  0  0
 18 20  1  0  0  0  0
 19  8  2  0  0  0  0
 19 11  1  0  0  0  0
 20 15  2  0  0  0  0
 21  4  1  0  0  0  0
 23 22  1  6  0  0  0
 23 25  1  0  0  0  0
 23 26  1  0  0  0  0
 24 25  1  0  0  0  0
 26 32  1  0  0  0  0
 26 34  1  1  0  0  0
 28 30  1  0  0  0  0
 29 28  2  0  0  0  0
 30 27  1  0  0  0  0
 31 29  1  0  0  0  0
 31 32  2  0  0  0  0
 32 33  1  0  0  0  0
 33 30  2  0  0  0  0
 34 35  1  0  0  0  0
 35 38  1  0  0  0  0
 35 37  1  0  0  0  0
 36 39  1  0  0  0  0
 37 39  1  0  0  0  0
 38 36  1  0  0  0  0
 41 44  1  0  0  0  0
 41 40  1  0  0  0  0
 42 45  1  0  0  0  0
 42 43  2  0  0  0  0
 44 42  1  0  0  0  0
 46 47  1  1  0  0  0
 46 51  1  0  0  0  0
 46 44  1  0  0  0  0
 48 54  1  1  0  0  0
 48 52  1  0  0  0  0
 49 48  1  0  0  0  0
 49 51  1  0  0  0  0
 51 53  2  0  0  0  0
 52 50  2  0  0  0  0
 53 50  1  0  0  0  0
M  END
>  <MODEL>
4

>  <REMARK>
 VINA RESULT:      -6.7      3.348      9.194
  Name = 
  11 active torsions:
  status: ('A' for Active; 'I' for Inactive)
    1  A    between atoms: C_5  and  C_8
    2  A    between atoms: C_5  and  N_41
    3  A    between atoms: C_6  and  C_35
    4  A    between atoms: C_6  and  N_43
    5  A    between atoms: C_8  and  N_43
    6  A    between atoms: C_10  and  C_37
    7  A    between atoms: C_13  and  C_37
    8  A    between atoms: C_13  and  C_39
    9  A    between atoms: C_13  and  O_50
   10  A    between atoms: N_23  and  O_50
   11  A    between atoms: C_36  and  C_37
                            x       y       z     vdW  Elec       q    Type
                         _______ _______ _______ _____ _____    ______ ____

>  <TORSDO>
F 11

$$$$
=
 OpenBabel11042411153D

 54 60  0  0  1  0  0  0  0  0999 V2000
  187.2140  177.7940  138.6540 C   0  0  0  0  0  0  0  0  0  0  0  0
  186.7410  177.8280  139.8810 C   0  0  2  0  0  3  0  0  0  0  0  0
  185.2260  178.6280  139.9240 S   0  0  0  0  0  0  0  0  0  0  0  0
  188.4010  176.9420  138.3570 C   0  0  0  0  0  0  0  0  0  0  0  0
  187.1210  179.8140  137.2180 C   0  0  0  0  0  1  0  0  0  0  0  0
  189.1140  177.0120  142.5990 C   0  0  0  0  0  0  0  0  0  0  0  0
  189.7460  177.4950  140.3260 C   0  0  0  0  0  0  0  0  0  0  0  0
  191.0670  177.6960  140.7980 C   0  0  0  0  0  3  0  0  0  0  0  0
  186.3890  178.5530  137.6290 C   0  0  2  0  0  3  0  0  0  0  0  0
  187.4120  177.3530  141.0570 N   0  0  0  0  0  0  0  0  0  0  0  0
  190.4090  177.1810  142.9770 C   0  0  0  0  0  0  0  0  0  0  0  0
  184.1240  177.7430  140.4430 O   0  0  0  0  0  0  0  0  0  0  0  0
  188.6990  177.2330  141.2830 C   0  0  0  0  0  0  0  0  0  0  0  0
  191.7140  177.1580  145.0970 C   0  0  0  0  0  1  0  0  0  0  0  0
  188.4110  176.7520  143.7650 C   0  0  0  0  0  3  0  0  0  0  0  0
  185.0940  178.9450  138.2200 N   0  0  0  0  0  0  0  0  0  0  0  0
  185.3060  179.9130  140.7010 O   0  0  0  0  0  0  0  0  0  0  0  0
  190.5110  177.0270  144.2970 N   0  0  0  0  0  0  0  0  0  0  0  0
  191.3830  177.5530  142.1160 N   0  0  0  0  0  0  0  0  0  0  0  0
  189.3060  176.7600  144.7850 N   0  0  0  0  0  0  0  0  0  0  0  0
  189.5930  177.4290  139.0330 N   0  0  0  0  0  0  0  0  0  0  0  0
  189.6490  177.3870  136.2260 C   0  0  0  0  0  1  0  0  0  0  0  0
  188.6340  176.4630  136.9040 C   0  0  2  0  0  0  0  0  0  0  0  0
  187.5180  176.9000  134.6290 C   0  0  0  0  0  1  0  0  0  0  0  0
  187.3340  176.4540  136.0740 C   0  0  0  0  0  2  0  0  0  0  0  0
  189.2000  175.0160  136.9360 C   0  0  1  0  0  3  0  0  0  0  0  0
  185.0970  172.5540  137.8980 F   0  0  0  0  0  0  0  0  0  0  0  0
  186.4570  171.8070  136.0930 C   0  0  0  0  0  3  0  0  0  0  0  0
  187.6090  171.9540  135.3140 C   0  0  0  0  0  3  0  0  0  0  0  0
  186.2080  172.6960  137.1420 C   0  0  0  0  0  0  0  0  0  0  0  0
  188.5080  172.9890  135.5850 C   0  0  0  0  0  3  0  0  0  0  0  0
  188.2590  173.8820  136.6340 C   0  0  0  0  0  0  0  0  0  0  0  0
  187.1090  173.7310  137.4110 C   0  0  0  0  0  3  0  0  0  0  0  0
  190.5180  174.8320  136.4430 O   0  0  0  0  0  0  0  0  0  0  0  0
  191.2740  174.3170  137.4510 N   0  0  0  0  0  0  0  0  0  0  0  0
  193.4750  175.3380  137.2940 C   0  0  0  0  0  2  0  0  0  0  0  0
  192.2080  173.3710  136.8440 C   0  0  0  0  0  2  0  0  0  0  0  0
  192.1100  175.4010  137.9700 C   0  0  0  0  0  2  0  0  0  0  0  0
  193.4170  174.1450  136.3760 C   0  0  0  0  0  2  0  0  0  0  0  0
  183.9960  178.1780  137.6210 C   0  0  0  0  0  2  0  0  0  0  0  0
  182.6130  178.8100  137.8050 C   0  0  0  0  0  2  0  0  0  0  0  0
  181.2780  177.6960  135.9970 C   0  0  0  0  0  0  0  0  0  0  0  0
  182.0000  178.2420  135.1270 O   0  0  0  0  0  0  0  0  0  0  0  0
  181.5840  177.8680  137.3960 N   0  0  0  0  0  0  0  0  0  0  0  0
  180.1140  176.8880  135.5430 C   0  0  0  0  0  1  0  0  0  0  0  0
  180.8550  177.1960  138.4750 C   0  0  1  0  0  3  0  0  0  0  0  0
  181.6290  175.9860  138.9800 C   0  0  0  0  0  1  0  0  0  0  0  0
  180.0570  180.5460  140.1690 C   0  0  2  0  0  3  0  0  0  0  0  0
  179.6520  179.4000  139.2330 C   0  0  0  0  0  2  0  0  0  0  0  0
  180.4180  178.8370  141.9040 C   0  0  0  0  0  3  0  0  0  0  0  0
  180.4280  178.1480  139.5620 C   0  0  0  0  0  0  0  0  0  0  0  0
  180.0550  180.0870  141.6010 C   0  0  0  0  0  3  0  0  0  0  0  0
  180.7400  177.8780  140.8340 C   0  0  0  0  0  3  0  0  0  0  0  0
  179.1810  181.6120  140.0070 O   0  0  0  0  0  1  0  0  0  0  0  0
  2  1  1  1  0  0  0
  2  3  1  0  0  0  0
  2 10  1  0  0  0  0
  3 12  2  0  0  0  0
  3 17  2  0  0  0  0
  4  1  2  0  0  0  0
  4 21  1  0  0  0  0
  6 11  2  0  0  0  0
  6 15  1  0  0  0  0
  7  8  1  0  0  0  0
  7 13  1  0  0  0  0
  8 19  2  0  0  0  0
  9  5  1  1  0  0  0
  9 16  1  0  0  0  0
  9  1  1  0  0  0  0
 10 13  2  0  0  0  0
 11 18  1  0  0  0  0
 13  6  1  0  0  0  0
 15 20  2  0  0  0  0
 16  3  1  0  0  0  0
 18 20  1  0  0  0  0
 18 14  1  0  0  0  0
 19 11  1  0  0  0  0
 21  7  2  0  0  0  0
 23 22  1  6  0  0  0
 23 26  1  0  0  0  0
 23  4  1  0  0  0  0
 24 25  1  0  0  0  0
 25 23  1  0  0  0  0
 26 34  1  6  0  0  0
 28 30  1  0  0  0  0
 29 31  1  0  0  0  0
 29 28  2  0  0  0  0
 30 33  2  0  0  0  0
 30 27  1  0  0  0  0
 31 32  2  0  0  0  0
 32 26  1  0  0  0  0
 32 33  1  0  0  0  0
 34 35  1  0  0  0  0
 35 38  1  0  0  0  0
 36 38  1  0  0  0  0
 37 35  1  0  0  0  0
 39 37  1  0  0  0  0
 39 36  1  0  0  0  0
 40 41  1  0  0  0  0
 40 16  1  0  0  0  0
 42 44  1  0  0  0  0
 43 42  2  0  0  0  0
 44 41  1  0  0  0  0
 44 46  1  0  0  0  0
 45 42  1  0  0  0  0
 46 47  1  1  0  0  0
 46 51  1  0  0  0  0
 48 54  1  1  0  0  0
 48 52  1  0  0  0  0
 49 51  1  0  0  0  0
 49 48  1  0  0  0  0
 51 53  2  0  0  0  0
 52 50  2  0  0  0  0
 53 50  1  0  0  0  0
M  END
>  <MODEL>
5

>  <REMARK>
 VINA RESULT:      -6.4      3.354      6.744
  Name = 
  11 active torsions:
  status: ('A' for Active; 'I' for Inactive)
    1  A    between atoms: C_5  and  C_8
    2  A    between atoms: C_5  and  N_41
    3  A    between atoms: C_6  and  C_35
    4  A    between atoms: C_6  and  N_43
    5  A    between atoms: C_8  and  N_43
    6  A    between atoms: C_10  and  C_37
    7  A    between atoms: C_13  and  C_37
    8  A    between atoms: C_13  and  C_39
    9  A    between atoms: C_13  and  O_50
   10  A    between atoms: N_23  and  O_50
   11  A    between atoms: C_36  and  C_37
                            x       y       z     vdW  Elec       q    Type
                         _______ _______ _______ _____ _____    ______ ____

>  <TORSDO>
F 11

$$$$
=
 OpenBabel11042411153D

 54 60  0  0  1  0  0  0  0  0999 V2000
  187.1090  177.8040  138.6920 C   0  0  0  0  0  0  0  0  0  0  0  0
  186.6950  177.8360  139.9400 C   0  0  2  0  0  3  0  0  0  0  0  0
  185.1860  178.6410  140.0570 S   0  0  0  0  0  0  0  0  0  0  0  0
  188.2780  176.9490  138.3370 C   0  0  0  0  0  0  0  0  0  0  0  0
  186.9550  179.8280  137.2670 C   0  0  0  0  0  1  0  0  0  0  0  0
  189.1920  177.0070  142.5410 C   0  0  0  0  0  0  0  0  0  0  0  0
  189.7170  177.4940  140.2410 C   0  0  0  0  0  0  0  0  0  0  0  0
  191.0590  177.6890  140.6500 C   0  0  0  0  0  3  0  0  0  0  0  0
  186.2390  178.5680  137.7090 C   0  0  2  0  0  3  0  0  0  0  0  0
  187.4200  177.3560  141.0820 N   0  0  0  0  0  0  0  0  0  0  0  0
  190.5040  177.1710  142.8570 C   0  0  0  0  0  0  0  0  0  0  0  0
  184.1070  177.7580  140.6260 O   0  0  0  0  0  0  0  0  0  0  0  0
  188.7150  177.2320  141.2470 C   0  0  0  0  0  0  0  0  0  0  0  0
  191.9080  177.1390  144.9130 C   0  0  0  0  0  1  0  0  0  0  0  0
  188.5440  176.7460  143.7380 C   0  0  0  0  0  3  0  0  0  0  0  0
  184.9750  178.9620  138.3610 N   0  0  0  0  0  0  0  0  0  0  0  0
  185.3070  179.9230  140.8320 O   0  0  0  0  0  0  0  0  0  0  0  0
  190.6680  177.0140  144.1710 N   0  0  0  0  0  0  0  0  0  0  0  0
  191.4370  177.5430  141.9520 N   0  0  0  0  0  0  0  0  0  0  0  0
  189.4870  176.7500  144.7140 N   0  0  0  0  0  0  0  0  0  0  0  0
  189.5020  177.4310  138.9570 N   0  0  0  0  0  0  0  0  0  0  0  0
  189.4480  177.3770  136.1590 C   0  0  0  0  0  1  0  0  0  0  0  0
  188.4400  176.4730  136.8730 C   0  0  2  0  0  0  0  0  0  0  0  0
  187.2500  176.9010  134.6350 C   0  0  0  0  0  1  0  0  0  0  0  0
  187.1080  176.4990  136.0970 C   0  0  0  0  0  2  0  0  0  0  0  0
  188.9730  175.0140  136.8760 C   0  0  1  0  0  3  0  0  0  0  0  0
  184.9640  172.5000  138.0720 F   0  0  0  0  0  0  0  0  0  0  0  0
  186.1330  171.8730  136.0970 C   0  0  0  0  0  3  0  0  0  0  0  0
  187.2040  172.0710  135.2190 C   0  0  0  0  0  3  0  0  0  0  0  0
  185.9970  172.6910  137.2220 C   0  0  0  0  0  0  0  0  0  0  0  0
  188.1340  173.0830  135.4670 C   0  0  0  0  0  3  0  0  0  0  0  0
  187.9970  173.9030  136.5940 C   0  0  0  0  0  0  0  0  0  0  0  0
  186.9280  173.7040  137.4680 C   0  0  0  0  0  3  0  0  0  0  0  0
  190.2710  174.8030  136.3410 O   0  0  0  0  0  0  0  0  0  0  0  0
  191.0020  174.1280  137.2680 N   0  0  0  0  0  0  0  0  0  0  0  0
  193.2120  175.1390  137.3210 C   0  0  0  0  0  2  0  0  0  0  0  0
  191.9420  173.2820  136.5370 C   0  0  0  0  0  2  0  0  0  0  0  0
  191.8340  175.1070  137.9700 C   0  0  0  0  0  2  0  0  0  0  0  0
  193.1660  174.1090  136.2230 C   0  0  0  0  0  2  0  0  0  0  0  0
  183.8470  178.2000  137.8140 C   0  0  0  0  0  2  0  0  0  0  0  0
  182.5620  179.0150  137.6380 C   0  0  0  0  0  2  0  0  0  0  0  0
  180.7840  177.6590  138.7740 C   0  0  0  0  0  0  0  0  0  0  0  0
  181.1180  178.1480  139.8810 O   0  0  0  0  0  0  0  0  0  0  0  0
  181.4190  178.1200  137.5640 N   0  0  0  0  0  0  0  0  0  0  0  0
  179.7360  176.6020  138.7570 C   0  0  0  0  0  1  0  0  0  0  0  0
  181.0300  177.6750  136.2240 C   0  0  1  0  0  3  0  0  0  0  0  0
  181.0320  178.8400  135.2440 C   0  0  0  0  0  1  0  0  0  0  0  0
  182.6660  174.2050  136.3680 C   0  0  2  0  0  3  0  0  0  0  0  0
  181.4240  175.0820  136.1580 C   0  0  0  0  0  2  0  0  0  0  0  0
  183.7470  175.5280  134.5950 C   0  0  0  0  0  3  0  0  0  0  0  0
  181.8250  176.4810  135.7590 C   0  0  0  0  0  0  0  0  0  0  0  0
  183.6170  174.3500  135.2130 C   0  0  0  0  0  3  0  0  0  0  0  0
  182.8990  176.6670  134.9830 C   0  0  0  0  0  3  0  0  0  0  0  0
  182.2810  172.8780  136.5070 O   0  0  0  0  0  1  0  0  0  0  0  0
  2  1  1  1  0  0  0
  2  3  1  0  0  0  0
  2 10  1  0  0  0  0
  3 12  2  0  0  0  0
  3 17  2  0  0  0  0
  4  1  2  0  0  0  0
  4 21  1  0  0  0  0
  6 11  2  0  0  0  0
  6 15  1  0  0  0  0
  7  8  1  0  0  0  0
  7 13  1  0  0  0  0
  8 19  2  0  0  0  0
  9  5  1  1  0  0  0
  9 16  1  0  0  0  0
  9  1  1  0  0  0  0
 10 13  2  0  0  0  0
 11 18  1  0  0  0  0
 13  6  1  0  0  0  0
 15 20  2  0  0  0  0
 16  3  1  0  0  0  0
 18 20  1  0  0  0  0
 18 14  1  0  0  0  0
 19 11  1  0  0  0  0
 21  7  2  0  0  0  0
 23 22  1  6  0  0  0
 23 26  1  0  0  0  0
 23  4  1  0  0  0  0
 24 25  1  0  0  0  0
 25 23  1  0  0  0  0
 26 34  1  6  0  0  0
 28 30  1  0  0  0  0
 29 31  1  0  0  0  0
 29 28  2  0  0  0  0
 30 33  2  0  0  0  0
 30 27  1  0  0  0  0
 31 32  2  0  0  0  0
 32 26  1  0  0  0  0
 32 33  1  0  0  0  0
 34 35  1  0  0  0  0
 35 38  1  0  0  0  0
 36 38  1  0  0  0  0
 37 35  1  0  0  0  0
 39 37  1  0  0  0  0
 39 36  1  0  0  0  0
 40 16  1  0  0  0  0
 41 40  1  0  0  0  0
 42 43  2  0  0  0  0
 44 41  1  0  0  0  0
 44 42  1  0  0  0  0
 45 42  1  0  0  0  0
 46 47  1  6  0  0  0
 46 44  1  0  0  0  0
 48 54  1  6  0  0  0
 49 48  1  0  0  0  0
 50 53  1  0  0  0  0
 50 52  2  0  0  0  0
 51 49  1  0  0  0  0
 51 46  1  0  0  0  0
 52 48  1  0  0  0  0
 53 51  2  0  0  0  0
M  END
>  <MODEL>
6

>  <REMARK>
 VINA RESULT:      -6.4      2.894      7.189
  Name = 
  11 active torsions:
  status: ('A' for Active; 'I' for Inactive)
    1  A    between atoms: C_5  and  C_8
    2  A    between atoms: C_5  and  N_41
    3  A    between atoms: C_6  and  C_35
    4  A    between atoms: C_6  and  N_43
    5  A    between atoms: C_8  and  N_43
    6  A    between atoms: C_10  and  C_37
    7  A    between atoms: C_13  and  C_37
    8  A    between atoms: C_13  and  C_39
    9  A    between atoms: C_13  and  O_50
   10  A    between atoms: N_23  and  O_50
   11  A    between atoms: C_36  and  C_37
                            x       y       z     vdW  Elec       q    Type
                         _______ _______ _______ _____ _____    ______ ____

>  <TORSDO>
F 11

$$$$
=
 OpenBabel11042411153D

 54 60  0  0  1  0  0  0  0  0999 V2000
  187.1650  177.6840  138.5940 C   0  0  0  0  0  0  0  0  0  0  0  0
  186.6880  177.7290  139.8190 C   0  0  2  0  0  3  0  0  0  0  0  0
  185.1300  178.4440  139.8380 S   0  0  0  0  0  0  0  0  0  0  0  0
  188.3980  176.8910  138.3250 C   0  0  0  0  0  0  0  0  0  0  0  0
  186.9610  179.6500  137.0970 C   0  0  0  0  0  1  0  0  0  0  0  0
  189.0980  177.1320  142.5630 C   0  0  0  0  0  0  0  0  0  0  0  0
  189.7060  177.5790  140.2750 C   0  0  0  0  0  0  0  0  0  0  0  0
  191.0120  177.8680  140.7410 C   0  0  0  0  0  3  0  0  0  0  0  0
  186.3000  178.3640  137.5460 C   0  0  2  0  0  3  0  0  0  0  0  0
  187.3820  177.3290  141.0100 N   0  0  0  0  0  0  0  0  0  0  0  0
  190.3810  177.3850  142.9350 C   0  0  0  0  0  0  0  0  0  0  0  0
  184.0790  177.5150  140.3840 O   0  0  0  0  0  0  0  0  0  0  0  0
  188.6730  177.2880  141.2400 C   0  0  0  0  0  0  0  0  0  0  0  0
  191.6810  177.5010  145.0550 C   0  0  0  0  0  1  0  0  0  0  0  0
  188.4080  176.8690  143.7350 C   0  0  0  0  0  3  0  0  0  0  0  0
  184.9840  178.7000  138.1240 N   0  0  0  0  0  0  0  0  0  0  0  0
  185.1360  179.7540  140.5740 O   0  0  0  0  0  0  0  0  0  0  0  0
  190.4880  177.2780  144.2590 N   0  0  0  0  0  0  0  0  0  0  0  0
  191.3340  177.7850  142.0630 N   0  0  0  0  0  0  0  0  0  0  0  0
  189.2990  176.9590  144.7540 N   0  0  0  0  0  0  0  0  0  0  0  0
  189.5600  177.4650  138.9850 N   0  0  0  0  0  0  0  0  0  0  0  0
  189.5740  177.3710  136.1600 C   0  0  0  0  0  1  0  0  0  0  0  0
  188.6600  176.3810  136.8870 C   0  0  2  0  0  0  0  0  0  0  0  0
  187.4940  176.5820  134.6040 C   0  0  0  0  0  1  0  0  0  0  0  0
  187.3580  176.2160  136.0760 C   0  0  0  0  0  2  0  0  0  0  0  0
  189.3630  174.9970  136.9640 C   0  0  1  0  0  3  0  0  0  0  0  0
  185.3620  172.2530  137.4930 F   0  0  0  0  0  0  0  0  0  0  0  0
  187.0160  171.5360  135.9400 C   0  0  0  0  0  3  0  0  0  0  0  0
  188.2530  171.7420  135.3200 C   0  0  0  0  0  3  0  0  0  0  0  0
  186.5550  172.4510  136.8910 C   0  0  0  0  0  0  0  0  0  0  0  0
  189.0240  172.8580  135.6510 C   0  0  0  0  0  3  0  0  0  0  0  0
  188.5620  173.7760  136.6020 C   0  0  0  0  0  0  0  0  0  0  0  0
  187.3280  173.5680  137.2200 C   0  0  0  0  0  3  0  0  0  0  0  0
  190.7240  174.9450  136.5650 O   0  0  0  0  0  0  0  0  0  0  0  0
  191.4660  174.5920  137.6500 N   0  0  0  0  0  0  0  0  0  0  0  0
  193.6950  175.5060  137.3290 C   0  0  0  0  0  2  0  0  0  0  0  0
  192.3710  173.5290  137.2210 C   0  0  0  0  0  2  0  0  0  0  0  0
  192.3330  175.7240  137.9780 C   0  0  0  0  0  2  0  0  0  0  0  0
  193.6020  174.1750  136.6310 C   0  0  0  0  0  2  0  0  0  0  0  0
  183.9320  177.8540  137.5500 C   0  0  0  0  0  2  0  0  0  0  0  0
  182.8530  178.6250  136.7840 C   0  0  0  0  0  2  0  0  0  0  0  0
  180.9030  177.1200  137.2570 C   0  0  0  0  0  0  0  0  0  0  0  0
  181.5180  176.1590  136.7330 O   0  0  0  0  0  0  0  0  0  0  0  0
  181.5560  178.3980  137.4010 N   0  0  0  0  0  0  0  0  0  0  0  0
  179.5020  176.8990  137.7080 C   0  0  0  0  0  1  0  0  0  0  0  0
  180.9510  179.5460  138.0810 C   0  0  1  0  0  3  0  0  0  0  0  0
  181.5330  179.7170  139.4770 C   0  0  0  0  0  1  0  0  0  0  0  0
  180.8020  183.2920  137.2590 C   0  0  2  0  0  3  0  0  0  0  0  0
  181.5750  182.0770  137.7870 C   0  0  0  0  0  2  0  0  0  0  0  0
  180.4320  182.0030  135.1940 C   0  0  0  0  0  3  0  0  0  0  0  0
  180.9890  180.7970  137.2420 C   0  0  0  0  0  0  0  0  0  0  0  0
  180.6170  183.1950  135.7700 C   0  0  0  0  0  3  0  0  0  0  0  0
  180.4950  180.7720  135.9990 C   0  0  0  0  0  3  0  0  0  0  0  0
  181.4880  184.4570  137.5810 O   0  0  0  0  0  1  0  0  0  0  0  0
  2  1  1  1  0  0  0
  2  3  1  0  0  0  0
  2 10  1  0  0  0  0
  3 12  2  0  0  0  0
  3 17  2  0  0  0  0
  4  1  2  0  0  0  0
  4 21  1  0  0  0  0
  6 11  2  0  0  0  0
  6 15  1  0  0  0  0
  7  8  1  0  0  0  0
  7 13  1  0  0  0  0
  8 19  2  0  0  0  0
  9  5  1  1  0  0  0
  9 16  1  0  0  0  0
  9  1  1  0  0  0  0
 10 13  2  0  0  0  0
 11 18  1  0  0  0  0
 13  6  1  0  0  0  0
 15 20  2  0  0  0  0
 16  3  1  0  0  0  0
 18 20  1  0  0  0  0
 18 14  1  0  0  0  0
 19 11  1  0  0  0  0
 21  7  2  0  0  0  0
 23 22  1  6  0  0  0
 23 26  1  0  0  0  0
 23  4  1  0  0  0  0
 24 25  1  0  0  0  0
 25 23  1  0  0  0  0
 26 34  1  6  0  0  0
 28 30  1  0  0  0  0
 29 31  1  0  0  0  0
 29 28  2  0  0  0  0
 30 33  2  0  0  0  0
 30 27  1  0  0  0  0
 31 32  2  0  0  0  0
 32 26  1  0  0  0  0
 32 33  1  0  0  0  0
 34 35  1  0  0  0  0
 35 38  1  0  0  0  0
 36 38  1  0  0  0  0
 37 35  1  0  0  0  0
 39 37  1  0  0  0  0
 39 36  1  0  0  0  0
 40 16  1  0  0  0  0
 41 44  1  0  0  0  0
 41 40  1  0  0  0  0
 42 44  1  0  0  0  0
 42 45  1  0  0  0  0
 43 42  2  0  0  0  0
 44 46  1  0  0  0  0
 46 47  1  1  0  0  0
 48 54  1  6  0  0  0
 48 49  1  0  0  0  0
 50 52  2  0  0  0  0
 50 53  1  0  0  0  0
 51 49  1  0  0  0  0
 51 46  1  0  0  0  0
 52 48  1  0  0  0  0
 53 51  2  0  0  0  0
M  END
>  <MODEL>
7

>  <REMARK>
 VINA RESULT:      -6.2      3.772      7.417
  Name = 
  11 active torsions:
  status: ('A' for Active; 'I' for Inactive)
    1  A    between atoms: C_5  and  C_8
    2  A    between atoms: C_5  and  N_41
    3  A    between atoms: C_6  and  C_35
    4  A    between atoms: C_6  and  N_43
    5  A    between atoms: C_8  and  N_43
    6  A    between atoms: C_10  and  C_37
    7  A    between atoms: C_13  and  C_37
    8  A    between atoms: C_13  and  C_39
    9  A    between atoms: C_13  and  O_50
   10  A    between atoms: N_23  and  O_50
   11  A    between atoms: C_36  and  C_37
                            x       y       z     vdW  Elec       q    Type
                         _______ _______ _______ _____ _____    ______ ____

>  <TORSDO>
F 11

$$$$
=
 OpenBabel11042411153D

 54 60  0  0  1  0  0  0  0  0999 V2000
  186.7510  177.9830  140.8670 C   0  0  0  0  0  0  0  0  0  0  0  0
  187.8790  177.3080  140.9050 C   0  0  2  0  0  3  0  0  0  0  0  0
  188.5060  177.2660  142.5000 S   0  0  0  0  0  0  0  0  0  0  0  0
  185.9230  177.9410  139.6280 C   0  0  0  0  0  0  0  0  0  0  0  0
  186.5400  180.1410  142.0700 C   0  0  0  0  0  1  0  0  0  0  0  0
  189.5060  176.6040  137.6580 C   0  0  0  0  0  0  0  0  0  0  0  0
  187.7180  178.1850  137.9820 C   0  0  0  0  0  0  0  0  0  0  0  0
  188.0560  178.7370  136.7230 C   0  0  0  0  0  3  0  0  0  0  0  0
  186.3540  178.6420  142.1770 C   0  0  2  0  0  3  0  0  0  0  0  0
  188.5670  176.7490  139.7770 N   0  0  0  0  0  0  0  0  0  0  0  0
  189.7510  177.1570  136.4400 C   0  0  0  0  0  0  0  0  0  0  0  0
  188.6480  175.8620  143.0240 O   0  0  0  0  0  0  0  0  0  0  0  0
  188.5390  177.1280  138.5210 C   0  0  0  0  0  0  0  0  0  0  0  0
  191.3940  176.8600  134.5940 C   0  0  0  0  0  1  0  0  0  0  0  0
  190.4630  175.6160  137.8250 C   0  0  0  0  0  3  0  0  0  0  0  0
  187.2190  178.1480  143.2670 N   0  0  0  0  0  0  0  0  0  0  0  0
  189.8030  178.0190  142.6000 O   0  0  0  0  0  0  0  0  0  0  0  0
  190.7930  176.5470  135.8770 N   0  0  0  0  0  0  0  0  0  0  0  0
  189.0760  178.2320  135.9730 N   0  0  0  0  0  0  0  0  0  0  0  0
  191.2290  175.6070  136.7050 N   0  0  0  0  0  0  0  0  0  0  0  0
  186.5960  178.5850  138.5110 N   0  0  0  0  0  0  0  0  0  0  0  0
  184.1710  179.7290  139.4410 C   0  0  0  0  0  1  0  0  0  0  0  0
  184.4080  178.2440  139.7300 C   0  0  2  0  0  0  0  0  0  0  0  0
  182.8630  178.9510  141.6600 C   0  0  0  0  0  1  0  0  0  0  0  0
  183.8350  177.9090  141.1220 C   0  0  0  0  0  2  0  0  0  0  0  0
  183.6520  177.3900  138.6750 C   0  0  1  0  0  3  0  0  0  0  0  0
  180.0970  174.4730  140.3100 F   0  0  0  0  0  0  0  0  0  0  0  0
  179.4830  176.5740  139.3770 C   0  0  0  0  0  3  0  0  0  0  0  0
  179.8610  177.7810  138.7800 C   0  0  0  0  0  3  0  0  0  0  0  0
  180.4600  175.6400  139.7350 C   0  0  0  0  0  0  0  0  0  0  0  0
  181.2110  178.0520  138.5420 C   0  0  0  0  0  3  0  0  0  0  0  0
  182.1900  177.1170  138.9020 C   0  0  0  0  0  0  0  0  0  0  0  0
  181.8100  175.9140  139.4970 C   0  0  0  0  0  3  0  0  0  0  0  0
  184.0080  177.5870  137.3150 O   0  0  0  0  0  0  0  0  0  0  0  0
  183.8860  176.3940  136.6730 N   0  0  0  0  0  0  0  0  0  0  0  0
  186.0380  175.9010  135.6550 C   0  0  0  0  0  2  0  0  0  0  0  0
  183.8260  176.6830  135.2420 C   0  0  0  0  0  2  0  0  0  0  0  0
  185.1400  175.6630  136.8640 C   0  0  0  0  0  2  0  0  0  0  0  0
  185.2420  176.7800  134.7260 C   0  0  0  0  0  2  0  0  0  0  0  0
  186.4610  177.2900  144.1850 C   0  0  0  0  0  2  0  0  0  0  0  0
  187.2350  176.8700  145.4380 C   0  0  0  0  0  2  0  0  0  0  0  0
  185.8950  178.6620  146.5720 C   0  0  0  0  0  0  0  0  0  0  0  0
  184.8870  178.3340  145.9000 O   0  0  0  0  0  0  0  0  0  0  0  0
  187.1150  177.9010  146.4560 N   0  0  0  0  0  0  0  0  0  0  0  0
  185.7910  179.8450  147.4690 C   0  0  0  0  0  1  0  0  0  0  0  0
  188.3080  178.1530  147.2680 C   0  0  1  0  0  3  0  0  0  0  0  0
  188.0280  177.8890  148.7410 C   0  0  0  0  0  1  0  0  0  0  0  0
  191.6190  176.2120  147.3440 C   0  0  2  0  0  3  0  0  0  0  0  0
  190.0880  176.2350  147.4480 C   0  0  0  0  0  2  0  0  0  0  0  0
  191.3600  177.2700  145.1360 C   0  0  0  0  0  3  0  0  0  0  0  0
  189.5260  177.4410  146.7380 C   0  0  0  0  0  0  0  0  0  0  0  0
  192.0560  176.4450  145.9250 C   0  0  0  0  0  3  0  0  0  0  0  0
  190.1150  177.8870  145.6220 C   0  0  0  0  0  3  0  0  0  0  0  0
  192.0990  174.9900  147.7990 O   0  0  0  0  0  1  0  0  0  0  0  0
  1  2  1  0  0  0  0
  1  9  1  0  0  0  0
  2 10  1  6  0  0  0
  2  3  1  0  0  0  0
  3 17  2  0  0  0  0
  3 12  2  0  0  0  0
  3 16  1  0  0  0  0
  4 23  1  0  0  0  0
  4  1  2  0  0  0  0
  6 15  1  0  0  0  0
  6 13  1  0  0  0  0
  7 21  2  0  0  0  0
  7 13  1  0  0  0  0
  8  7  1  0  0  0  0
  9  5  1  6  0  0  0
  9 16  1  0  0  0  0
 11  6  2  0  0  0  0
 13 10  2  0  0  0  0
 14 18  1  0  0  0  0
 16 40  1  0  0  0  0
 18 11  1  0  0  0  0
 18 20  1  0  0  0  0
 19 11  1  0  0  0  0
 19  8  2  0  0  0  0
 20 15  2  0  0  0  0
 21  4  1  0  0  0  0
 23 22  1  6  0  0  0
 23 25  1  0  0  0  0
 25 24  1  0  0  0  0
 26 34  1  6  0  0  0
 26 32  1  0  0  0  0
 26 23  1  0  0  0  0
 28 30  1  0  0  0  0
 29 28  2  0  0  0  0
 30 27  1  0  0  0  0
 31 29  1  0  0  0  0
 31 32  2  0  0  0  0
 32 33  1  0  0  0  0
 33 30  2  0  0  0  0
 35 38  1  0  0  0  0
 35 34  1  0  0  0  0
 36 38  1  0  0  0  0
 37 35  1  0  0  0  0
 39 37  1  0  0  0  0
 39 36  1  0  0  0  0
 40 41  1  0  0  0  0
 41 44  1  0  0  0  0
 42 45  1  0  0  0  0
 43 42  2  0  0  0  0
 44 42  1  0  0  0  0
 44 46  1  0  0  0  0
 46 47  1  1  0  0  0
 48 49  1  0  0  0  0
 48 54  1  6  0  0  0
 50 53  1  0  0  0  0
 50 52  2  0  0  0  0
 51 46  1  0  0  0  0
 51 49  1  0  0  0  0
 52 48  1  0  0  0  0
 53 51  2  0  0  0  0
M  END
>  <MODEL>
8

>  <REMARK>
 VINA RESULT:      -5.9      2.845      4.907
  Name = 
  11 active torsions:
  status: ('A' for Active; 'I' for Inactive)
    1  A    between atoms: C_5  and  C_8
    2  A    between atoms: C_5  and  N_41
    3  A    between atoms: C_6  and  C_35
    4  A    between atoms: C_6  and  N_43
    5  A    between atoms: C_8  and  N_43
    6  A    between atoms: C_10  and  C_37
    7  A    between atoms: C_13  and  C_37
    8  A    between atoms: C_13  and  C_39
    9  A    between atoms: C_13  and  O_50
   10  A    between atoms: N_23  and  O_50
   11  A    between atoms: C_36  and  C_37
                            x       y       z     vdW  Elec       q    Type
                         _______ _______ _______ _____ _____    ______ ____

>  <TORSDO>
F 11

$$$$
