=
 OpenBabel11042413333D

 41 46  0  0  1  0  0  0  0  0999 V2000
  188.6670  176.9950  140.6040 C   0  0  2  0  0  3  0  0  0  0  0  0
  186.0920  179.0480  142.4000 C   0  0  0  0  0  3  0  0  0  0  0  0
  187.9260  177.4530  141.8220 C   0  0  0  0  0  0  0  0  0  0  0  0
  184.7750  178.5520  146.1760 C   0  0  0  0  0  3  0  0  0  0  0  0
  185.9540  178.0000  145.8930 C   0  0  0  0  0  3  0  0  0  0  0  0
  187.4990  177.0970  144.2890 C   0  0  0  0  0  3  0  0  0  0  0  0
  186.3560  177.7500  144.5010 C   0  0  0  0  0  0  0  0  0  0  0  0
  184.1290  178.7260  143.8200 C   0  0  0  0  0  3  0  0  0  0  0  0
  185.4310  178.1200  143.3630 C   0  0  1  0  0  3  0  0  0  0  0  0
  188.0850  176.7760  142.9720 C   0  0  0  0  0  3  0  0  0  0  0  0
  183.8330  178.9240  145.1080 C   0  0  0  0  0  3  0  0  0  0  0  0
  187.1770  178.7200  141.7010 C   0  0  0  0  0  3  0  0  0  0  0  0
  189.9470  176.4990  140.9730 O   0  0  0  0  0  0  0  0  0  0  0  0
  191.1330  177.0510  140.4870 C   0  0  0  0  0  0  0  0  0  0  0  0
  191.5450  176.7810  139.3260 O   0  0  0  0  0  0  0  0  0  0  0  0
  191.9450  177.9370  141.3670 C   0  0  0  0  0  2  0  0  0  0  0  0
  191.6090  177.6920  142.7980 C   0  0  0  0  0  0  0  0  0  0  0  0
  190.7250  178.4980  144.9820 C   0  0  0  0  0  2  0  0  0  0  0  0
  191.7840  176.3460  143.3650 C   0  0  0  0  0  3  0  0  0  0  0  0
  191.5630  176.1270  144.6590 C   0  0  0  0  0  3  0  0  0  0  0  0
  191.1390  177.1980  145.5200 N   0  0  0  0  0  0  0  0  0  0  0  0
  191.1420  178.6930  143.5490 C   0  0  0  0  0  3  0  0  0  0  0  0
  189.5210  176.8210  147.3260 C   0  0  0  0  0  1  0  0  0  0  0  0
  190.9850  176.9790  146.9540 C   0  0  0  0  0  3  0  0  0  0  0  0
  191.7760  175.7640  147.4020 C   0  0  0  0  0  1  0  0  0  0  0  0
  188.8370  178.3370  139.3740 S   0  0  0  0  0  0  0  0  0  0  0  0
  188.6610  175.7390  136.2290 C   0  0  0  0  0  3  0  0  0  0  0  0
  182.3760  178.2160  137.3880 C   0  0  0  0  0  0  0  0  0  0  0  0
  182.0530  177.5360  136.1020 C   0  0  0  0  0  3  0  0  0  0  0  0
  183.4070  176.9590  135.6260 C   0  0  0  0  0  3  0  0  0  0  0  0
  184.4520  178.5000  138.7230 C   0  0  0  0  0  3  0  0  0  0  0  0
  185.8990  178.2160  138.7920 C   0  0  0  0  0  3  0  0  0  0  0  0
  183.7780  178.0760  137.6630 C   0  0  0  0  0  0  0  0  0  0  0  0
  188.0460  177.3930  138.0560 C   0  0  0  0  0  0  0  0  0  0  0  0
  184.3970  177.3500  136.6300 N   0  0  0  0  0  0  0  0  0  0  0  0
  188.8890  176.6290  137.3630 C   0  0  0  0  0  3  0  0  0  0  0  0
  186.5730  177.5080  137.8570 C   0  0  0  0  0  0  0  0  0  0  0  0
  181.5430  178.8090  138.1230 O   0  0  0  0  0  0  0  0  0  0  0  0
  186.2330  176.1490  135.7480 C   0  0  0  0  0  3  0  0  0  0  0  0
  185.7850  176.9750  136.6940 C   0  0  0  0  0  0  0  0  0  0  0  0
  187.5450  175.5410  135.5470 C   0  0  0  0  0  3  0  0  0  0  0  0
  1 26  1  6  0  0  0
  1 13  1  0  0  0  0
  1  3  1  0  0  0  0
  3 10  2  0  0  0  0
  5  4  2  0  0  0  0
  6  7  2  0  0  0  0
  7  5  1  0  0  0  0
  8 11  2  0  0  0  0
  9  2  1  6  0  0  0
  9  8  1  0  0  0  0
  9  7  1  0  0  0  0
 10  6  1  0  0  0  0
 11  4  1  0  0  0  0
 12  3  1  0  0  0  0
 12  2  2  0  0  0  0
 14 13  1  0  0  0  0
 14 16  1  0  0  0  0
 15 14  2  0  0  0  0
 16 17  1  0  0  0  0
 17 19  1  0  0  0  0
 17 22  2  0  0  0  0
 18 21  1  0  0  0  0
 19 20  2  0  0  0  0
 20 21  1  0  0  0  0
 21 24  1  0  0  0  0
 22 18  1  0  0  0  0
 24 23  1  0  0  0  0
 24 25  1  0  0  0  0
 27 36  1  0  0  0  0
 28 33  1  0  0  0  0
 28 38  2  0  0  0  0
 29 28  1  0  0  0  0
 30 29  2  0  0  0  0
 30 35  1  0  0  0  0
 31 32  1  0  0  0  0
 33 31  2  0  0  0  0
 34 26  1  0  0  0  0
 35 40  1  0  0  0  0
 35 33  1  0  0  0  0
 36 34  2  0  0  0  0
 37 34  1  0  0  0  0
 37 32  2  0  0  0  0
 39 40  2  0  0  0  0
 40 37  1  0  0  0  0
 41 39  1  0  0  0  0
 41 27  2  0  0  0  0
M  END
>  <MODEL>
1

>  <REMARK>
 VINA RESULT:      -9.9      0.000      0.000
  Name = 
  8 active torsions:
  status: ('A' for Active; 'I' for Inactive)
    1  A    between atoms: C_1  and  C_9
    2  A    between atoms: C_1  and  O_18
    3  A    between atoms: C_3  and  C_9
    4  A    between atoms: C_4  and  C_19
    5  A    between atoms: O_18  and  C_19
    6  A    between atoms: C_19  and  S_33
    7  A    between atoms: C_21  and  S_33
    8  A    between atoms: C_22  and  N_38
                            x       y       z     vdW  Elec       q    Type
                         _______ _______ _______ _____ _____    ______ ____

>  <TORSDO>
F 8

$$$$
=
 OpenBabel11042413333D

 41 46  0  0  1  0  0  0  0  0999 V2000
  188.8620  177.5000  140.8690 C   0  0  2  0  0  3  0  0  0  0  0  0
  186.8940  177.0310  144.0270 C   0  0  0  0  0  3  0  0  0  0  0  0
  187.6550  177.6780  141.7370 C   0  0  0  0  0  0  0  0  0  0  0  0
  183.5340  178.9670  145.1190 C   0  0  0  0  0  3  0  0  0  0  0  0
  183.8180  178.9830  143.8180 C   0  0  0  0  0  2  0  0  0  0  0  0
  185.4210  178.8230  142.0350 C   0  0  0  0  0  3  0  0  0  0  0  0
  185.1760  178.6860  143.3380 C   0  0  0  0  0  0  0  0  0  0  0  0
  185.8240  178.3830  145.7590 C   0  0  0  0  0  3  0  0  0  0  0  0
  186.2760  178.3560  144.3220 C   0  0  0  0  0  0  0  0  0  0  0  0
  186.7050  178.5490  141.3580 C   0  0  0  0  0  3  0  0  0  0  0  0
  184.5680  178.6610  146.1200 C   0  0  0  0  0  3  0  0  0  0  0  0
  187.5310  176.7620  142.8890 C   0  0  0  0  0  3  0  0  0  0  0  0
  190.0300  177.8970  141.5740 O   0  0  0  0  0  0  0  0  0  0  0  0
  190.9070  176.9760  142.1500 C   0  0  0  0  0  0  0  0  0  0  0  0
  190.8700  175.7570  141.8280 O   0  0  0  0  0  0  0  0  0  0  0  0
  191.8690  177.4310  143.1930 C   0  0  0  0  0  2  0  0  0  0  0  0
  191.2100  177.4540  144.5300 C   0  0  0  0  0  0  0  0  0  0  0  0
  191.0190  176.6050  146.8620 C   0  0  0  0  0  2  0  0  0  0  0  0
  190.1480  178.4350  144.7990 C   0  0  0  0  0  3  0  0  0  0  0  0
  189.4960  178.4200  145.9580 C   0  0  0  0  0  3  0  0  0  0  0  0
  189.8260  177.4530  146.9710 N   0  0  0  0  0  0  0  0  0  0  0  0
  191.5990  176.5930  145.4730 C   0  0  0  0  0  3  0  0  0  0  0  0
  188.3600  178.6970  148.4960 C   0  0  0  0  0  1  0  0  0  0  0  0
  189.0530  177.3770  148.2050 C   0  0  0  0  0  3  0  0  0  0  0  0
  188.0360  176.2540  148.1340 C   0  0  0  0  0  1  0  0  0  0  0  0
  188.7140  178.4390  139.3070 S   0  0  0  0  0  0  0  0  0  0  0  0
  187.2290  175.4200  136.9920 C   0  0  0  0  0  3  0  0  0  0  0  0
  194.0230  174.6660  137.4950 C   0  0  0  0  0  0  0  0  0  0  0  0
  193.7570  173.3530  136.8420 C   0  0  0  0  0  3  0  0  0  0  0  0
  192.2160  173.2990  136.7090 C   0  0  0  0  0  3  0  0  0  0  0  0
  192.5850  176.5410  138.2630 C   0  0  0  0  0  3  0  0  0  0  0  0
  191.2000  177.0320  138.3970 C   0  0  0  0  0  3  0  0  0  0  0  0
  192.7790  175.3390  137.7400 C   0  0  0  0  0  0  0  0  0  0  0  0
  188.7890  176.9640  138.2710 C   0  0  0  0  0  0  0  0  0  0  0  0
  191.7090  174.5410  137.2930 N   0  0  0  0  0  0  0  0  0  0  0  0
  187.6010  176.5580  137.8290 C   0  0  0  0  0  3  0  0  0  0  0  0
  190.1130  176.3450  137.9770 C   0  0  0  0  0  0  0  0  0  0  0  0
  195.1650  175.1180  137.7740 O   0  0  0  0  0  0  0  0  0  0  0  0
  189.4320  174.2490  136.7280 C   0  0  0  0  0  3  0  0  0  0  0  0
  190.3490  175.0110  137.3250 C   0  0  0  0  0  0  0  0  0  0  0  0
  187.9990  174.4480  136.5340 C   0  0  0  0  0  3  0  0  0  0  0  0
  1 26  1  6  0  0  0
  1 13  1  0  0  0  0
  1  3  1  0  0  0  0
  2  9  1  0  0  0  0
  3 12  1  0  0  0  0
  4 11  2  0  0  0  0
  5  4  1  0  0  0  0
  6  7  2  0  0  0  0
  7  5  1  0  0  0  0
  7  9  1  0  0  0  0
  8 11  1  0  0  0  0
  9  8  2  0  0  0  0
 10  3  2  0  0  0  0
 10  6  1  0  0  0  0
 12  2  2  0  0  0  0
 13 14  1  0  0  0  0
 14 16  1  0  0  0  0
 15 14  2  0  0  0  0
 16 17  1  0  0  0  0
 17 19  1  0  0  0  0
 17 22  2  0  0  0  0
 18 21  1  0  0  0  0
 19 20  2  0  0  0  0
 20 21  1  0  0  0  0
 21 24  1  0  0  0  0
 22 18  1  0  0  0  0
 24 23  1  0  0  0  0
 25 24  1  0  0  0  0
 27 36  1  0  0  0  0
 28 33  1  0  0  0  0
 28 38  2  0  0  0  0
 29 28  1  0  0  0  0
 30 29  2  0  0  0  0
 30 35  1  0  0  0  0
 31 32  1  0  0  0  0
 33 31  2  0  0  0  0
 34 26  1  0  0  0  0
 35 40  1  0  0  0  0
 35 33  1  0  0  0  0
 36 34  2  0  0  0  0
 37 34  1  0  0  0  0
 37 32  2  0  0  0  0
 39 40  2  0  0  0  0
 40 37  1  0  0  0  0
 41 39  1  0  0  0  0
 41 27  2  0  0  0  0
M  END
>  <MODEL>
2

>  <REMARK>
 VINA RESULT:      -9.8      2.749      5.066
  Name = 
  8 active torsions:
  status: ('A' for Active; 'I' for Inactive)
    1  A    between atoms: C_1  and  C_9
    2  A    between atoms: C_1  and  O_18
    3  A    between atoms: C_3  and  C_9
    4  A    between atoms: C_4  and  C_19
    5  A    between atoms: O_18  and  C_19
    6  A    between atoms: C_19  and  S_33
    7  A    between atoms: C_21  and  S_33
    8  A    between atoms: C_22  and  N_38
                            x       y       z     vdW  Elec       q    Type
                         _______ _______ _______ _____ _____    ______ ____

>  <TORSDO>
F 8

$$$$
=
 OpenBabel11042413333D

 41 46  0  0  1  0  0  0  0  0999 V2000
  188.6870  176.9540  140.6280 C   0  0  2  0  0  3  0  0  0  0  0  0
  186.0480  179.0440  142.2800 C   0  0  0  0  0  3  0  0  0  0  0  0
  187.9100  177.4480  141.8090 C   0  0  0  0  0  0  0  0  0  0  0  0
  184.6360  178.6730  146.0350 C   0  0  0  0  0  3  0  0  0  0  0  0
  185.8270  178.1220  145.8040 C   0  0  0  0  0  3  0  0  0  0  0  0
  187.4220  177.1770  144.2750 C   0  0  0  0  0  3  0  0  0  0  0  0
  186.2680  177.8260  144.4320 C   0  0  0  0  0  0  0  0  0  0  0  0
  184.0510  178.7540  143.6590 C   0  0  0  0  0  3  0  0  0  0  0  0
  185.3690  178.1450  143.2580 C   0  0  1  0  0  3  0  0  0  0  0  0
  188.0450  176.8140  142.9860 C   0  0  0  0  0  3  0  0  0  0  0  0
  183.7200  178.9960  144.9310 C   0  0  0  0  0  3  0  0  0  0  0  0
  187.1540  178.7020  141.6220 C   0  0  0  0  0  3  0  0  0  0  0  0
  189.9710  176.5060  141.0440 O   0  0  0  0  0  0  0  0  0  0  0  0
  191.1530  177.0660  140.5580 C   0  0  0  0  0  0  0  0  0  0  0  0
  191.5450  176.8320  139.3820 O   0  0  0  0  0  0  0  0  0  0  0  0
  191.9850  177.9160  141.4550 C   0  0  0  0  0  2  0  0  0  0  0  0
  191.6140  177.6830  142.8790 C   0  0  0  0  0  0  0  0  0  0  0  0
  190.6600  178.5030  145.0270 C   0  0  0  0  0  2  0  0  0  0  0  0
  191.7900  176.3470  143.4670 C   0  0  0  0  0  3  0  0  0  0  0  0
  191.5370  176.1400  144.7560 C   0  0  0  0  0  3  0  0  0  0  0  0
  191.0760  177.2150  145.5930 N   0  0  0  0  0  0  0  0  0  0  0  0
  191.1130  178.6870  143.6040 C   0  0  0  0  0  3  0  0  0  0  0  0
  189.4220  176.7650  147.3490 C   0  0  0  0  0  1  0  0  0  0  0  0
  190.8850  177.0110  147.0240 C   0  0  0  0  0  3  0  0  0  0  0  0
  191.7350  175.8580  147.5220 C   0  0  0  0  0  1  0  0  0  0  0  0
  188.8520  178.2430  139.3410 S   0  0  0  0  0  0  0  0  0  0  0  0
  185.1660  177.8660  137.6230 C   0  0  0  0  0  3  0  0  0  0  0  0
  189.1710  172.7810  135.3690 C   0  0  0  0  0  0  0  0  0  0  0  0
  187.8990  172.2570  134.7970 C   0  0  0  0  0  3  0  0  0  0  0  0
  186.8240  173.2610  135.2780 C   0  0  0  0  0  3  0  0  0  0  0  0
  189.7650  174.7600  136.7490 C   0  0  0  0  0  3  0  0  0  0  0  0
  189.2460  175.9530  137.4460 C   0  0  0  0  0  3  0  0  0  0  0  0
  188.9020  173.9730  136.1220 C   0  0  0  0  0  0  0  0  0  0  0  0
  187.5950  177.5090  138.2740 C   0  0  0  0  0  0  0  0  0  0  0  0
  187.5250  174.2590  136.0860 N   0  0  0  0  0  0  0  0  0  0  0  0
  186.4240  178.1410  138.3110 C   0  0  0  0  0  3  0  0  0  0  0  0
  187.9440  176.3180  137.4470 C   0  0  0  0  0  0  0  0  0  0  0  0
  190.3070  172.2630  135.2030 O   0  0  0  0  0  0  0  0  0  0  0  0
  185.6970  175.7150  136.4460 C   0  0  0  0  0  3  0  0  0  0  0  0
  186.9840  175.4540  136.6780 C   0  0  0  0  0  0  0  0  0  0  0  0
  184.8600  176.8430  136.8420 C   0  0  0  0  0  3  0  0  0  0  0  0
  1 26  1  6  0  0  0
  1 13  1  0  0  0  0
  1  3  1  0  0  0  0
  3 10  2  0  0  0  0
  5  4  2  0  0  0  0
  6  7  2  0  0  0  0
  7  5  1  0  0  0  0
  8 11  2  0  0  0  0
  9  2  1  6  0  0  0
  9  8  1  0  0  0  0
  9  7  1  0  0  0  0
 10  6  1  0  0  0  0
 11  4  1  0  0  0  0
 12  3  1  0  0  0  0
 12  2  2  0  0  0  0
 14 13  1  0  0  0  0
 14 16  1  0  0  0  0
 15 14  2  0  0  0  0
 16 17  1  0  0  0  0
 17 19  1  0  0  0  0
 17 22  2  0  0  0  0
 18 21  1  0  0  0  0
 19 20  2  0  0  0  0
 20 21  1  0  0  0  0
 21 24  1  0  0  0  0
 22 18  1  0  0  0  0
 24 23  1  0  0  0  0
 24 25  1  0  0  0  0
 27 36  1  0  0  0  0
 28 33  1  0  0  0  0
 29 30  2  0  0  0  0
 29 28  1  0  0  0  0
 30 35  1  0  0  0  0
 31 32  1  0  0  0  0
 32 37  2  0  0  0  0
 33 31  2  0  0  0  0
 34 36  2  0  0  0  0
 34 26  1  0  0  0  0
 35 33  1  0  0  0  0
 35 40  1  0  0  0  0
 37 34  1  0  0  0  0
 38 28  2  0  0  0  0
 39 40  2  0  0  0  0
 39 41  1  0  0  0  0
 40 37  1  0  0  0  0
 41 27  2  0  0  0  0
M  END
>  <MODEL>
3

>  <REMARK>
 VINA RESULT:      -9.6      1.826      3.400
  Name = 
  8 active torsions:
  status: ('A' for Active; 'I' for Inactive)
    1  A    between atoms: C_1  and  C_9
    2  A    between atoms: C_1  and  O_18
    3  A    between atoms: C_3  and  C_9
    4  A    between atoms: C_4  and  C_19
    5  A    between atoms: O_18  and  C_19
    6  A    between atoms: C_19  and  S_33
    7  A    between atoms: C_21  and  S_33
    8  A    between atoms: C_22  and  N_38
                            x       y       z     vdW  Elec       q    Type
                         _______ _______ _______ _____ _____    ______ ____

>  <TORSDO>
F 8

$$$$
=
 OpenBabel11042413333D

 41 46  0  0  1  0  0  0  0  0999 V2000
  188.3550  177.6620  139.9540 C   0  0  2  0  0  3  0  0  0  0  0  0
  185.6660  179.2700  142.0150 C   0  0  0  0  0  3  0  0  0  0  0  0
  187.6660  177.9880  141.2420 C   0  0  0  0  0  0  0  0  0  0  0  0
  184.7900  178.5440  145.8800 C   0  0  0  0  0  3  0  0  0  0  0  0
  186.0100  178.1850  145.4820 C   0  0  0  0  0  3  0  0  0  0  0  0
  187.5250  177.5500  143.7280 C   0  0  0  0  0  3  0  0  0  0  0  0
  186.3180  178.0130  144.0540 C   0  0  0  0  0  0  0  0  0  0  0  0
  183.9140  178.6320  143.5950 C   0  0  0  0  0  3  0  0  0  0  0  0
  185.2470  178.2420  143.0110 C   0  0  1  0  0  3  0  0  0  0  0  0
  188.0320  177.3350  142.3580 C   0  0  0  0  0  3  0  0  0  0  0  0
  183.7090  178.7710  144.9080 C   0  0  0  0  0  3  0  0  0  0  0  0
  186.7210  179.1230  141.2160 C   0  0  0  0  0  3  0  0  0  0  0  0
  189.7130  178.0810  140.0110 O   0  0  0  0  0  0  0  0  0  0  0  0
  190.7660  177.1830  140.1930 C   0  0  0  0  0  0  0  0  0  0  0  0
  190.7290  176.0290  139.6850 O   0  0  0  0  0  0  0  0  0  0  0  0
  191.9300  177.5780  141.0360 C   0  0  0  0  0  2  0  0  0  0  0  0
  191.5810  177.4730  142.4810 C   0  0  0  0  0  0  0  0  0  0  0  0
  190.9990  178.5480  144.6490 C   0  0  0  0  0  2  0  0  0  0  0  0
  191.4130  176.1460  143.0930 C   0  0  0  0  0  3  0  0  0  0  0  0
  191.1780  176.0320  144.3970 C   0  0  0  0  0  3  0  0  0  0  0  0
  191.0730  177.2020  145.2270 N   0  0  0  0  0  0  0  0  0  0  0  0
  191.4130  178.5840  143.2020 C   0  0  0  0  0  3  0  0  0  0  0  0
  189.4540  176.8130  147.0300 C   0  0  0  0  0  1  0  0  0  0  0  0
  190.9060  177.0750  146.6700 C   0  0  0  0  0  3  0  0  0  0  0  0
  191.7910  175.9720  147.2200 C   0  0  0  0  0  1  0  0  0  0  0  0
  187.5140  178.4320  138.5240 S   0  0  0  0  0  0  0  0  0  0  0  0
  188.6610  174.8680  136.8950 C   0  0  0  0  0  3  0  0  0  0  0  0
  181.9580  175.7450  135.7650 C   0  0  0  0  0  0  0  0  0  0  0  0
  182.1210  174.5520  134.8860 C   0  0  0  0  0  3  0  0  0  0  0  0
  183.6350  174.2360  134.9500 C   0  0  0  0  0  3  0  0  0  0  0  0
  183.5120  177.0970  137.1540 C   0  0  0  0  0  3  0  0  0  0  0  0
  184.9130  177.2780  137.5810 C   0  0  0  0  0  3  0  0  0  0  0  0
  183.2350  176.1210  136.3010 C   0  0  0  0  0  0  0  0  0  0  0  0
  187.2910  176.8660  137.6580 C   0  0  0  0  0  0  0  0  0  0  0  0
  184.2300  175.2500  135.8210 N   0  0  0  0  0  0  0  0  0  0  0  0
  188.4110  176.1590  137.5310 C   0  0  0  0  0  3  0  0  0  0  0  0
  185.9290  176.4780  137.1880 C   0  0  0  0  0  0  0  0  0  0  0  0
  180.8650  176.3220  136.0070 O   0  0  0  0  0  0  0  0  0  0  0  0
  186.4200  174.3610  135.8870 C   0  0  0  0  0  3  0  0  0  0  0  0
  185.5930  175.3340  136.2740 C   0  0  0  0  0  0  0  0  0  0  0  0
  187.8250  174.1160  136.2000 C   0  0  0  0  0  3  0  0  0  0  0  0
  1 26  1  6  0  0  0
  1 13  1  0  0  0  0
  1  3  1  0  0  0  0
  3 10  2  0  0  0  0
  5  4  2  0  0  0  0
  6  7  2  0  0  0  0
  7  5  1  0  0  0  0
  8 11  2  0  0  0  0
  9  2  1  6  0  0  0
  9  8  1  0  0  0  0
  9  7  1  0  0  0  0
 10  6  1  0  0  0  0
 11  4  1  0  0  0  0
 12  3  1  0  0  0  0
 12  2  2  0  0  0  0
 13 14  1  0  0  0  0
 14 16  1  0  0  0  0
 15 14  2  0  0  0  0
 16 17  1  0  0  0  0
 17 19  1  0  0  0  0
 17 22  2  0  0  0  0
 18 21  1  0  0  0  0
 19 20  2  0  0  0  0
 20 21  1  0  0  0  0
 21 24  1  0  0  0  0
 22 18  1  0  0  0  0
 24 23  1  0  0  0  0
 24 25  1  0  0  0  0
 27 36  1  0  0  0  0
 28 38  2  0  0  0  0
 28 33  1  0  0  0  0
 29 30  2  0  0  0  0
 29 28  1  0  0  0  0
 30 35  1  0  0  0  0
 31 32  1  0  0  0  0
 33 31  2  0  0  0  0
 34 26  1  0  0  0  0
 35 40  1  0  0  0  0
 35 33  1  0  0  0  0
 36 34  2  0  0  0  0
 37 32  2  0  0  0  0
 37 34  1  0  0  0  0
 39 41  1  0  0  0  0
 39 40  2  0  0  0  0
 40 37  1  0  0  0  0
 41 27  2  0  0  0  0
M  END
>  <MODEL>
4

>  <REMARK>
 VINA RESULT:      -9.4      1.239      1.442
  Name = 
  8 active torsions:
  status: ('A' for Active; 'I' for Inactive)
    1  A    between atoms: C_1  and  C_9
    2  A    between atoms: C_1  and  O_18
    3  A    between atoms: C_3  and  C_9
    4  A    between atoms: C_4  and  C_19
    5  A    between atoms: O_18  and  C_19
    6  A    between atoms: C_19  and  S_33
    7  A    between atoms: C_21  and  S_33
    8  A    between atoms: C_22  and  N_38
                            x       y       z     vdW  Elec       q    Type
                         _______ _______ _______ _____ _____    ______ ____

>  <TORSDO>
F 8

$$$$
=
 OpenBabel11042413333D

 41 46  0  0  1  0  0  0  0  0999 V2000
  189.1420  176.8510  140.9580 C   0  0  2  0  0  3  0  0  0  0  0  0
  186.2130  179.0370  141.7970 C   0  0  0  0  0  3  0  0  0  0  0  0
  188.1030  177.4070  141.8820 C   0  0  0  0  0  0  0  0  0  0  0  0
  183.8960  178.8560  145.0890 C   0  0  0  0  0  3  0  0  0  0  0  0
  185.0960  178.2870  145.1900 C   0  0  0  0  0  3  0  0  0  0  0  0
  187.0060  177.2590  144.1550 C   0  0  0  0  0  3  0  0  0  0  0  0
  185.8620  177.9220  143.9880 C   0  0  0  0  0  0  0  0  0  0  0  0
  183.9280  178.8270  142.6410 C   0  0  0  0  0  3  0  0  0  0  0  0
  185.2930  178.1910  142.6130 C   0  0  1  0  0  3  0  0  0  0  0  0
  187.9260  176.8300  143.0830 C   0  0  0  0  0  3  0  0  0  0  0  0
  183.2930  179.1320  143.7760 C   0  0  0  0  0  3  0  0  0  0  0  0
  187.4420  178.6560  141.4550 C   0  0  0  0  0  3  0  0  0  0  0  0
  190.3500  176.6170  141.6710 O   0  0  0  0  0  0  0  0  0  0  0  0
  191.5110  177.3570  141.4400 C   0  0  0  0  0  0  0  0  0  0  0  0
  192.0540  177.3730  140.3020 O   0  0  0  0  0  0  0  0  0  0  0  0
  192.1410  178.1030  142.5650 C   0  0  0  0  0  2  0  0  0  0  0  0
  191.3980  177.8520  143.8330 C   0  0  0  0  0  0  0  0  0  0  0  0
  189.7110  178.5480  145.5260 C   0  0  0  0  0  2  0  0  0  0  0  0
  191.6110  176.5920  144.5610 C   0  0  0  0  0  3  0  0  0  0  0  0
  191.0160  176.3840  145.7330 C   0  0  0  0  0  3  0  0  0  0  0  0
  190.1470  177.3800  146.3000 N   0  0  0  0  0  0  0  0  0  0  0  0
  190.5390  178.7670  144.2880 C   0  0  0  0  0  3  0  0  0  0  0  0
  189.6940  178.4530  148.4600 C   0  0  0  0  0  1  0  0  0  0  0  0
  189.5670  177.1920  147.6240 C   0  0  0  0  0  3  0  0  0  0  0  0
  188.1110  176.7750  147.5200 C   0  0  0  0  0  1  0  0  0  0  0  0
  189.4480  177.9640  139.5390 S   0  0  0  0  0  0  0  0  0  0  0  0
  190.2040  174.6910  137.2170 C   0  0  0  0  0  3  0  0  0  0  0  0
  183.9290  177.0250  135.7500 C   0  0  0  0  0  0  0  0  0  0  0  0
  184.0080  176.0430  134.6320 C   0  0  0  0  0  3  0  0  0  0  0  0
  185.4300  175.4450  134.7500 C   0  0  0  0  0  3  0  0  0  0  0  0
  185.4910  177.7290  137.5500 C   0  0  0  0  0  3  0  0  0  0  0  0
  186.8360  177.5480  138.1280 C   0  0  0  0  0  3  0  0  0  0  0  0
  185.1710  177.0300  136.4690 C   0  0  0  0  0  0  0  0  0  0  0  0
  189.0870  176.6930  138.3100 C   0  0  0  0  0  0  0  0  0  0  0  0
  186.0650  176.1150  135.8850 N   0  0  0  0  0  0  0  0  0  0  0  0
  190.0860  175.8350  138.1170 C   0  0  0  0  0  3  0  0  0  0  0  0
  187.7520  176.6780  137.6460 C   0  0  0  0  0  0  0  0  0  0  0  0
  182.9210  177.7280  136.0270 O   0  0  0  0  0  0  0  0  0  0  0  0
  188.0570  174.8420  135.9280 C   0  0  0  0  0  3  0  0  0  0  0  0
  187.3550  175.8430  136.4610 C   0  0  0  0  0  0  0  0  0  0  0  0
  189.3520  174.2770  136.2940 C   0  0  0  0  0  3  0  0  0  0  0  0
  1 26  1  6  0  0  0
  1 13  1  0  0  0  0
  1  3  1  0  0  0  0
  3 10  2  0  0  0  0
  4  5  2  0  0  0  0
  7  6  2  0  0  0  0
  7  5  1  0  0  0  0
  8 11  2  0  0  0  0
  9  2  1  1  0  0  0
  9  8  1  0  0  0  0
  9  7  1  0  0  0  0
 10  6  1  0  0  0  0
 11  4  1  0  0  0  0
 12  2  2  0  0  0  0
 12  3  1  0  0  0  0
 14 13  1  0  0  0  0
 14 16  1  0  0  0  0
 15 14  2  0  0  0  0
 16 17  1  0  0  0  0
 17 22  2  0  0  0  0
 17 19  1  0  0  0  0
 18 21  1  0  0  0  0
 19 20  2  0  0  0  0
 20 21  1  0  0  0  0
 21 24  1  0  0  0  0
 22 18  1  0  0  0  0
 24 23  1  0  0  0  0
 25 24  1  0  0  0  0
 27 36  1  0  0  0  0
 28 38  2  0  0  0  0
 28 33  1  0  0  0  0
 29 30  2  0  0  0  0
 29 28  1  0  0  0  0
 30 35  1  0  0  0  0
 31 32  1  0  0  0  0
 33 31  2  0  0  0  0
 34 26  1  0  0  0  0
 35 40  1  0  0  0  0
 35 33  1  0  0  0  0
 36 34  2  0  0  0  0
 37 32  2  0  0  0  0
 37 34  1  0  0  0  0
 39 41  1  0  0  0  0
 39 40  2  0  0  0  0
 40 37  1  0  0  0  0
 41 27  2  0  0  0  0
M  END
>  <MODEL>
5

>  <REMARK>
 VINA RESULT:      -9.1      1.195      1.655
  Name = 
  8 active torsions:
  status: ('A' for Active; 'I' for Inactive)
    1  A    between atoms: C_1  and  C_9
    2  A    between atoms: C_1  and  O_18
    3  A    between atoms: C_3  and  C_9
    4  A    between atoms: C_4  and  C_19
    5  A    between atoms: O_18  and  C_19
    6  A    between atoms: C_19  and  S_33
    7  A    between atoms: C_21  and  S_33
    8  A    between atoms: C_22  and  N_38
                            x       y       z     vdW  Elec       q    Type
                         _______ _______ _______ _____ _____    ______ ____

>  <TORSDO>
F 8

$$$$
=
 OpenBabel11042413333D

 41 46  0  0  1  0  0  0  0  0999 V2000
  188.6710  177.6320  140.9680 C   0  0  2  0  0  3  0  0  0  0  0  0
  185.3220  179.2380  141.4870 C   0  0  0  0  0  3  0  0  0  0  0  0
  187.4940  178.0440  141.7970 C   0  0  0  0  0  0  0  0  0  0  0  0
  182.9170  178.8850  144.7010 C   0  0  0  0  0  3  0  0  0  0  0  0
  184.2000  178.5840  144.8980 C   0  0  0  0  0  3  0  0  0  0  0  0
  186.3290  177.8790  144.0350 C   0  0  0  0  0  3  0  0  0  0  0  0
  185.0860  178.2770  143.7650 C   0  0  0  0  0  0  0  0  0  0  0  0
  183.0840  178.6430  142.2700 C   0  0  0  0  0  3  0  0  0  0  0  0
  184.5490  178.2990  142.3510 C   0  0  1  0  0  3  0  0  0  0  0  0
  187.3720  177.5530  143.0420 C   0  0  0  0  0  3  0  0  0  0  0  0
  182.3410  178.9120  143.3470 C   0  0  0  0  0  3  0  0  0  0  0  0
  186.6190  179.0880  141.2260 C   0  0  0  0  0  3  0  0  0  0  0  0
  189.8740  177.8470  141.6940 O   0  0  0  0  0  0  0  0  0  0  0  0
  190.6830  176.7970  142.1300 C   0  0  0  0  0  0  0  0  0  0  0  0
  190.5460  175.6340  141.6610 O   0  0  0  0  0  0  0  0  0  0  0  0
  191.6930  177.0440  143.1970 C   0  0  0  0  0  2  0  0  0  0  0  0
  191.0200  177.2370  144.5130 C   0  0  0  0  0  0  0  0  0  0  0  0
  190.6720  176.5650  146.8840 C   0  0  0  0  0  2  0  0  0  0  0  0
  190.0960  178.3670  144.6970 C   0  0  0  0  0  3  0  0  0  0  0  0
  189.4270  178.5100  145.8380 C   0  0  0  0  0  3  0  0  0  0  0  0
  189.6050  177.5710  146.9130 N   0  0  0  0  0  0  0  0  0  0  0  0
  191.2700  176.3900  145.5140 C   0  0  0  0  0  3  0  0  0  0  0  0
  187.6310  178.6160  147.9290 C   0  0  0  0  0  1  0  0  0  0  0  0
  188.8060  177.6750  148.1280 C   0  0  0  0  0  3  0  0  0  0  0  0
  188.3160  176.3090  148.5690 C   0  0  0  0  0  1  0  0  0  0  0  0
  188.7220  178.5280  139.3750 S   0  0  0  0  0  0  0  0  0  0  0  0
  187.2170  175.4070  137.2150 C   0  0  0  0  0  3  0  0  0  0  0  0
  194.0350  174.7780  137.5270 C   0  0  0  0  0  0  0  0  0  0  0  0
  193.7700  173.4390  136.9290 C   0  0  0  0  0  3  0  0  0  0  0  0
  192.2280  173.3560  136.8470 C   0  0  0  0  0  3  0  0  0  0  0  0
  192.5900  176.6560  138.2740 C   0  0  0  0  0  3  0  0  0  0  0  0
  191.2010  177.1290  138.4350 C   0  0  0  0  0  3  0  0  0  0  0  0
  192.7870  175.4390  137.7880 C   0  0  0  0  0  0  0  0  0  0  0  0
  188.7890  177.0190  138.3890 C   0  0  0  0  0  0  0  0  0  0  0  0
  191.7180  174.6100  137.4030 N   0  0  0  0  0  0  0  0  0  0  0  0
  187.5950  176.5790  137.9990 C   0  0  0  0  0  3  0  0  0  0  0  0
  190.1140  176.4110  138.0750 C   0  0  0  0  0  0  0  0  0  0  0  0
  195.1770  175.2580  137.7530 O   0  0  0  0  0  0  0  0  0  0  0  0
  189.4290  174.2620  136.9220 C   0  0  0  0  0  3  0  0  0  0  0  0
  190.3520  175.0590  137.4620 C   0  0  0  0  0  0  0  0  0  0  0  0
  187.9880  174.4310  136.7660 C   0  0  0  0  0  3  0  0  0  0  0  0
  1 26  1  6  0  0  0
  1 13  1  0  0  0  0
  1  3  1  0  0  0  0
  3 10  2  0  0  0  0
  4  5  2  0  0  0  0
  7  6  2  0  0  0  0
  7  5  1  0  0  0  0
  8  9  1  0  0  0  0
  8 11  2  0  0  0  0
  9  2  1  6  0  0  0
  9  7  1  0  0  0  0
 10  6  1  0  0  0  0
 11  4  1  0  0  0  0
 12  2  2  0  0  0  0
 12  3  1  0  0  0  0
 13 14  1  0  0  0  0
 14 16  1  0  0  0  0
 15 14  2  0  0  0  0
 16 17  1  0  0  0  0
 17 19  1  0  0  0  0
 17 22  2  0  0  0  0
 18 21  1  0  0  0  0
 19 20  2  0  0  0  0
 20 21  1  0  0  0  0
 21 24  1  0  0  0  0
 22 18  1  0  0  0  0
 23 24  1  0  0  0  0
 24 25  1  0  0  0  0
 27 36  1  0  0  0  0
 28 38  2  0  0  0  0
 28 33  1  0  0  0  0
 29 28  1  0  0  0  0
 30 29  2  0  0  0  0
 30 35  1  0  0  0  0
 31 32  1  0  0  0  0
 33 31  2  0  0  0  0
 34 26  1  0  0  0  0
 35 40  1  0  0  0  0
 35 33  1  0  0  0  0
 36 34  2  0  0  0  0
 37 34  1  0  0  0  0
 37 32  2  0  0  0  0
 39 40  2  0  0  0  0
 40 37  1  0  0  0  0
 41 39  1  0  0  0  0
 41 27  2  0  0  0  0
M  END
>  <MODEL>
6

>  <REMARK>
 VINA RESULT:      -9.1      2.766      4.999
  Name = 
  8 active torsions:
  status: ('A' for Active; 'I' for Inactive)
    1  A    between atoms: C_1  and  C_9
    2  A    between atoms: C_1  and  O_18
    3  A    between atoms: C_3  and  C_9
    4  A    between atoms: C_4  and  C_19
    5  A    between atoms: O_18  and  C_19
    6  A    between atoms: C_19  and  S_33
    7  A    between atoms: C_21  and  S_33
    8  A    between atoms: C_22  and  N_38
                            x       y       z     vdW  Elec       q    Type
                         _______ _______ _______ _____ _____    ______ ____

>  <TORSDO>
F 8

$$$$
=
 OpenBabel11042413333D

 41 46  0  0  1  0  0  0  0  0999 V2000
  189.7250  177.8030  140.9400 C   0  0  2  0  0  3  0  0  0  0  0  0
  190.1800  178.5690  144.5830 C   0  0  0  0  0  3  0  0  0  0  0  0
  190.2800  177.5460  142.3060 C   0  0  0  0  0  0  0  0  0  0  0  0
  191.7430  176.1580  147.4070 C   0  0  0  0  0  3  0  0  0  0  0  0
  192.0560  175.8580  146.1470 C   0  0  0  0  0  3  0  0  0  0  0  0
  191.5560  175.9530  143.7990 C   0  0  0  0  0  3  0  0  0  0  0  0
  191.2560  176.3760  145.0270 C   0  0  0  0  0  0  0  0  0  0  0  0
  189.8110  177.5140  146.7570 C   0  0  0  0  0  3  0  0  0  0  0  0
  190.0590  177.2620  145.2920 C   0  0  1  0  0  3  0  0  0  0  0  0
  190.8920  176.3740  142.5490 C   0  0  0  0  0  3  0  0  0  0  0  0
  190.5840  177.0080  147.7210 C   0  0  0  0  0  3  0  0  0  0  0  0
  190.2410  178.6750  143.2570 C   0  0  0  0  0  3  0  0  0  0  0  0
  188.3470  177.4540  140.9020 O   0  0  0  0  0  0  0  0  0  0  0  0
  187.3600  178.2330  141.5090 C   0  0  0  0  0  0  0  0  0  0  0  0
  187.0630  179.3710  141.0550 O   0  0  0  0  0  0  0  0  0  0  0  0
  186.6800  177.7300  142.7350 C   0  0  0  0  0  2  0  0  0  0  0  0
  185.2770  178.2310  142.7900 C   0  0  0  0  0  0  0  0  0  0  0  0
  183.4150  179.3150  144.0370 C   0  0  0  0  0  2  0  0  0  0  0  0
  184.4390  178.1760  141.5840 C   0  0  0  0  0  3  0  0  0  0  0  0
  183.1620  178.5460  141.6340 C   0  0  0  0  0  3  0  0  0  0  0  0
  182.5850  179.0170  142.8650 N   0  0  0  0  0  0  0  0  0  0  0  0
  184.8000  178.7350  143.9310 C   0  0  0  0  0  3  0  0  0  0  0  0
  180.4540  178.9880  141.6470 C   0  0  0  0  0  1  0  0  0  0  0  0
  181.1640  179.3370  142.9430 C   0  0  0  0  0  3  0  0  0  0  0  0
  180.5130  178.6160  144.1090 C   0  0  0  0  0  1  0  0  0  0  0  0
  190.6470  176.8880  139.6530 S   0  0  0  0  0  0  0  0  0  0  0  0
  188.2800  179.2970  137.3580 C   0  0  0  0  0  3  0  0  0  0  0  0
  187.3580  172.7950  135.3930 C   0  0  0  0  0  0  0  0  0  0  0  0
  186.2410  173.3720  134.5940 C   0  0  0  0  0  3  0  0  0  0  0  0
  186.2360  174.8720  134.9720 C   0  0  0  0  0  3  0  0  0  0  0  0
  189.0120  173.7400  136.9890 C   0  0  0  0  0  3  0  0  0  0  0  0
  189.4710  174.9600  137.6810 C   0  0  0  0  0  3  0  0  0  0  0  0
  187.9660  173.8310  136.1800 C   0  0  0  0  0  0  0  0  0  0  0  0
  189.4590  177.2790  138.3530 C   0  0  0  0  0  0  0  0  0  0  0  0
  187.3090  175.0540  135.9500 N   0  0  0  0  0  0  0  0  0  0  0  0
  189.1820  178.5780  138.2520 C   0  0  0  0  0  3  0  0  0  0  0  0
  188.9140  176.1800  137.5060 C   0  0  0  0  0  0  0  0  0  0  0  0
  187.7200  171.5890  135.3690 O   0  0  0  0  0  0  0  0  0  0  0  0
  187.1830  177.4080  136.1240 C   0  0  0  0  0  3  0  0  0  0  0  0
  187.7710  176.2840  136.5350 C   0  0  0  0  0  0  0  0  0  0  0  0
  187.4360  178.8040  136.4670 C   0  0  0  0  0  3  0  0  0  0  0  0
  1 26  1  6  0  0  0
  1  3  1  0  0  0  0
  3 10  2  0  0  0  0
  3 12  1  0  0  0  0
  4 11  1  0  0  0  0
  5  4  2  0  0  0  0
  6  7  2  0  0  0  0
  7  9  1  0  0  0  0
  7  5  1  0  0  0  0
  8 11  2  0  0  0  0
  9  2  1  6  0  0  0
  9  8  1  0  0  0  0
 10  6  1  0  0  0  0
 12  2  2  0  0  0  0
 13  1  1  0  0  0  0
 13 14  1  0  0  0  0
 14 16  1  0  0  0  0
 15 14  2  0  0  0  0
 16 17  1  0  0  0  0
 17 22  2  0  0  0  0
 19 20  2  0  0  0  0
 19 17  1  0  0  0  0
 20 21  1  0  0  0  0
 21 24  1  0  0  0  0
 21 18  1  0  0  0  0
 22 18  1  0  0  0  0
 23 24  1  0  0  0  0
 24 25  1  0  0  0  0
 27 36  1  0  0  0  0
 28 33  1  0  0  0  0
 29 30  2  0  0  0  0
 29 28  1  0  0  0  0
 30 35  1  0  0  0  0
 31 32  1  0  0  0  0
 33 31  2  0  0  0  0
 34 26  1  0  0  0  0
 35 33  1  0  0  0  0
 35 40  1  0  0  0  0
 36 34  2  0  0  0  0
 37 32  2  0  0  0  0
 37 34  1  0  0  0  0
 38 28  2  0  0  0  0
 39 41  1  0  0  0  0
 39 40  2  0  0  0  0
 40 37  1  0  0  0  0
 41 27  2  0  0  0  0
M  END
>  <MODEL>
7

>  <REMARK>
 VINA RESULT:      -8.6      2.707      6.099
  Name = 
  8 active torsions:
  status: ('A' for Active; 'I' for Inactive)
    1  A    between atoms: C_1  and  C_9
    2  A    between atoms: C_1  and  O_18
    3  A    between atoms: C_3  and  C_9
    4  A    between atoms: C_4  and  C_19
    5  A    between atoms: O_18  and  C_19
    6  A    between atoms: C_19  and  S_33
    7  A    between atoms: C_21  and  S_33
    8  A    between atoms: C_22  and  N_38
                            x       y       z     vdW  Elec       q    Type
                         _______ _______ _______ _____ _____    ______ ____

>  <TORSDO>
F 8

$$$$
=
 OpenBabel11042413333D

 41 46  0  0  1  0  0  0  0  0999 V2000
  189.1300  176.9970  140.9270 C   0  0  2  0  0  3  0  0  0  0  0  0
  189.6570  178.3620  144.3800 C   0  0  0  0  0  3  0  0  0  0  0  0
  189.7690  177.0130  142.2810 C   0  0  0  0  0  0  0  0  0  0  0  0
  191.5950  176.5890  147.4360 C   0  0  0  0  0  3  0  0  0  0  0  0
  191.8830  176.1300  146.2190 C   0  0  0  0  0  3  0  0  0  0  0  0
  191.2740  175.8070  143.9170 C   0  0  0  0  0  3  0  0  0  0  0  0
  190.9840  176.3840  145.0830 C   0  0  0  0  0  0  0  0  0  0  0  0
  189.5000  177.6250  146.7060 C   0  0  0  0  0  3  0  0  0  0  0  0
  189.7100  177.1750  145.2830 C   0  0  1  0  0  3  0  0  0  0  0  0
  190.5140  175.9610  142.6600 C   0  0  0  0  0  3  0  0  0  0  0  0
  190.3650  177.3570  147.6880 C   0  0  0  0  0  3  0  0  0  0  0  0
  189.6490  178.2660  143.0520 C   0  0  0  0  0  3  0  0  0  0  0  0
  189.9250  176.2400  140.0240 O   0  0  0  0  0  0  0  0  0  0  0  0
  190.8900  176.8270  139.2040 C   0  0  0  0  0  0  0  0  0  0  0  0
  192.0090  177.1770  139.6680 O   0  0  0  0  0  0  0  0  0  0  0  0
  190.5770  177.0820  137.7700 C   0  0  0  0  0  2  0  0  0  0  0  0
  190.4060  175.7940  137.0400 C   0  0  0  0  0  0  0  0  0  0  0  0
  191.3350  173.9740  135.6180 C   0  0  0  0  0  2  0  0  0  0  0  0
  189.1260  175.0760  137.1250 C   0  0  0  0  0  3  0  0  0  0  0  0
  188.9290  173.9650  136.4190 C   0  0  0  0  0  3  0  0  0  0  0  0
  189.9680  173.4440  135.5720 N   0  0  0  0  0  0  0  0  0  0  0  0
  191.4210  175.3000  136.3260 C   0  0  0  0  0  3  0  0  0  0  0  0
  190.9660  171.4150  134.6180 C   0  0  0  0  0  1  0  0  0  0  0  0
  189.7220  172.2790  134.7290 C   0  0  0  0  0  3  0  0  0  0  0  0
  188.5610  171.4620  135.2650 C   0  0  0  0  0  1  0  0  0  0  0  0
  188.8730  178.6890  140.2820 S   0  0  0  0  0  0  0  0  0  0  0  0
  185.8070  177.7540  137.7530 C   0  0  0  0  0  3  0  0  0  0  0  0
  183.2160  179.0390  143.9670 C   0  0  0  0  0  0  0  0  0  0  0  0
  181.9110  178.9800  143.2510 C   0  0  0  0  0  3  0  0  0  0  0  0
  182.2990  178.7660  141.7680 C   0  0  0  0  0  3  0  0  0  0  0  0
  185.5900  178.8350  143.2610 C   0  0  0  0  0  3  0  0  0  0  0  0
  186.5040  178.6460  142.1180 C   0  0  0  0  0  3  0  0  0  0  0  0
  184.2870  178.8830  143.0230 C   0  0  0  0  0  0  0  0  0  0  0  0
  187.1600  178.3790  139.8090 C   0  0  0  0  0  0  0  0  0  0  0  0
  183.7620  178.7340  141.7270 N   0  0  0  0  0  0  0  0  0  0  0  0
  187.0070  178.0600  138.5260 C   0  0  0  0  0  3  0  0  0  0  0  0
  186.0890  178.4740  140.8430 C   0  0  0  0  0  0  0  0  0  0  0  0
  183.3550  179.1870  145.2100 O   0  0  0  0  0  0  0  0  0  0  0  0
  184.0000  178.1740  139.4420 C   0  0  0  0  0  3  0  0  0  0  0  0
  184.6070  178.4630  140.5940 C   0  0  0  0  0  0  0  0  0  0  0  0
  184.5430  177.8070  138.1380 C   0  0  0  0  0  3  0  0  0  0  0  0
  1 13  1  6  0  0  0
  1  3  1  0  0  0  0
  3 10  2  0  0  0  0
  3 12  1  0  0  0  0
  4 11  1  0  0  0  0
  5  4  2  0  0  0  0
  6  7  2  0  0  0  0
  7  9  1  0  0  0  0
  7  5  1  0  0  0  0
  8 11  2  0  0  0  0
  9  2  1  6  0  0  0
  9  8  1  0  0  0  0
 10  6  1  0  0  0  0
 12  2  2  0  0  0  0
 14 15  2  0  0  0  0
 14 13  1  0  0  0  0
 16 14  1  0  0  0  0
 17 19  1  0  0  0  0
 17 16  1  0  0  0  0
 18 22  1  0  0  0  0
 20 19  2  0  0  0  0
 21 18  1  0  0  0  0
 21 20  1  0  0  0  0
 22 17  2  0  0  0  0
 23 24  1  0  0  0  0
 24 25  1  0  0  0  0
 24 21  1  0  0  0  0
 26  1  1  0  0  0  0
 27 41  2  0  0  0  0
 27 36  1  0  0  0  0
 28 38  2  0  0  0  0
 29 28  1  0  0  0  0
 30 29  2  0  0  0  0
 32 31  1  0  0  0  0
 33 31  2  0  0  0  0
 33 28  1  0  0  0  0
 34 26  1  0  0  0  0
 34 37  1  0  0  0  0
 35 30  1  0  0  0  0
 35 33  1  0  0  0  0
 36 34  2  0  0  0  0
 37 32  2  0  0  0  0
 39 40  2  0  0  0  0
 40 37  1  0  0  0  0
 40 35  1  0  0  0  0
 41 39  1  0  0  0  0
M  END
>  <MODEL>
8

>  <REMARK>
 VINA RESULT:      -8.4      2.558      6.396
  Name = 
  8 active torsions:
  status: ('A' for Active; 'I' for Inactive)
    1  A    between atoms: C_1  and  C_9
    2  A    between atoms: C_1  and  O_18
    3  A    between atoms: C_3  and  C_9
    4  A    between atoms: C_4  and  C_19
    5  A    between atoms: O_18  and  C_19
    6  A    between atoms: C_19  and  S_33
    7  A    between atoms: C_21  and  S_33
    8  A    between atoms: C_22  and  N_38
                            x       y       z     vdW  Elec       q    Type
                         _______ _______ _______ _____ _____    ______ ____

>  <TORSDO>
F 8

$$$$
=
 OpenBabel11042413333D

 41 46  0  0  1  0  0  0  0  0999 V2000
  189.2810  176.9400  140.7930 C   0  0  2  0  0  3  0  0  0  0  0  0
  189.4510  178.3420  144.2680 C   0  0  0  0  0  3  0  0  0  0  0  0
  189.8140  177.0010  142.1920 C   0  0  0  0  0  0  0  0  0  0  0  0
  191.2700  176.7100  147.4720 C   0  0  0  0  0  3  0  0  0  0  0  0
  191.6810  176.2710  146.2830 C   0  0  0  0  0  3  0  0  0  0  0  0
  191.2700  175.9040  143.9440 C   0  0  0  0  0  3  0  0  0  0  0  0
  190.8540  176.4610  145.0810 C   0  0  0  0  0  0  0  0  0  0  0  0
  189.1700  177.5990  146.5790 C   0  0  0  0  0  3  0  0  0  0  0  0
  189.5180  177.1630  145.1800 C   0  0  1  0  0  3  0  0  0  0  0  0
  190.5990  176.0030  142.6320 C   0  0  0  0  0  3  0  0  0  0  0  0
  189.9750  177.3920  147.6250 C   0  0  0  0  0  3  0  0  0  0  0  0
  189.5500  178.2440  142.9430 C   0  0  0  0  0  3  0  0  0  0  0  0
  190.1770  176.2090  139.9650 O   0  0  0  0  0  0  0  0  0  0  0  0
  191.2140  176.8230  139.2610 C   0  0  0  0  0  0  0  0  0  0  0  0
  192.1150  177.4660  139.8640 O   0  0  0  0  0  0  0  0  0  0  0  0
  191.2330  176.7530  137.7730 C   0  0  0  0  0  2  0  0  0  0  0  0
  192.3590  175.8940  137.3090 C   0  0  0  0  0  0  0  0  0  0  0  0
  194.5790  175.6440  136.2120 C   0  0  0  0  0  2  0  0  0  0  0  0
  192.3360  174.4510  137.5930 C   0  0  0  0  0  3  0  0  0  0  0  0
  193.2930  173.6570  137.1210 C   0  0  0  0  0  3  0  0  0  0  0  0
  194.3710  174.1970  136.3360 N   0  0  0  0  0  0  0  0  0  0  0  0
  193.3830  176.4440  136.6520 C   0  0  0  0  0  3  0  0  0  0  0  0
  196.7580  173.9250  135.8370 C   0  0  0  0  0  1  0  0  0  0  0  0
  195.3700  173.3160  135.7420 C   0  0  0  0  0  3  0  0  0  0  0  0
  195.3480  171.9520  136.4060 C   0  0  0  0  0  1  0  0  0  0  0  0
  188.9990  178.6100  140.1050 S   0  0  0  0  0  0  0  0  0  0  0  0
  185.9690  177.5200  137.5940 C   0  0  0  0  0  3  0  0  0  0  0  0
  183.3010  179.0700  143.7140 C   0  0  0  0  0  0  0  0  0  0  0  0
  182.0040  178.9630  142.9890 C   0  0  0  0  0  3  0  0  0  0  0  0
  182.4100  178.6830  141.5220 C   0  0  0  0  0  3  0  0  0  0  0  0
  185.6840  178.8610  143.0410 C   0  0  0  0  0  3  0  0  0  0  0  0
  186.6110  178.6280  141.9170 C   0  0  0  0  0  3  0  0  0  0  0  0
  184.3830  178.8820  142.7890 C   0  0  0  0  0  0  0  0  0  0  0  0
  187.2940  178.2590  139.6310 C   0  0  0  0  0  0  0  0  0  0  0  0
  183.8730  178.6650  141.4960 N   0  0  0  0  0  0  0  0  0  0  0  0
  187.1580  177.8770  138.3630 C   0  0  0  0  0  3  0  0  0  0  0  0
  186.2110  178.3900  140.6480 C   0  0  0  0  0  0  0  0  0  0  0  0
  183.4250  179.2790  144.9500 O   0  0  0  0  0  0  0  0  0  0  0  0
  184.1400  177.9990  139.2430 C   0  0  0  0  0  3  0  0  0  0  0  0
  184.7320  178.3500  140.3860 C   0  0  0  0  0  0  0  0  0  0  0  0
  184.7000  177.5770  137.9630 C   0  0  0  0  0  3  0  0  0  0  0  0
  1 13  1  6  0  0  0
  1  3  1  0  0  0  0
  3 10  2  0  0  0  0
  3 12  1  0  0  0  0
  4 11  1  0  0  0  0
  5  4  2  0  0  0  0
  6  7  2  0  0  0  0
  7  9  1  0  0  0  0
  7  5  1  0  0  0  0
  8 11  2  0  0  0  0
  9  2  1  6  0  0  0
  9  8  1  0  0  0  0
 10  6  1  0  0  0  0
 12  2  2  0  0  0  0
 14 15  2  0  0  0  0
 14 13  1  0  0  0  0
 16 14  1  0  0  0  0
 17 19  1  0  0  0  0
 17 16  1  0  0  0  0
 18 21  1  0  0  0  0
 18 22  1  0  0  0  0
 20 19  2  0  0  0  0
 21 20  1  0  0  0  0
 22 17  2  0  0  0  0
 24 23  1  0  0  0  0
 24 21  1  0  0  0  0
 24 25  1  0  0  0  0
 26  1  1  0  0  0  0
 27 41  2  0  0  0  0
 27 36  1  0  0  0  0
 28 38  2  0  0  0  0
 29 28  1  0  0  0  0
 30 29  2  0  0  0  0
 32 31  1  0  0  0  0
 33 31  2  0  0  0  0
 33 28  1  0  0  0  0
 34 26  1  0  0  0  0
 34 37  1  0  0  0  0
 35 30  1  0  0  0  0
 35 33  1  0  0  0  0
 36 34  2  0  0  0  0
 37 32  2  0  0  0  0
 39 40  2  0  0  0  0
 40 37  1  0  0  0  0
 40 35  1  0  0  0  0
 41 39  1  0  0  0  0
M  END
>  <MODEL>
9

>  <REMARK>
 VINA RESULT:      -8.4      3.555      6.094
  Name = 
  8 active torsions:
  status: ('A' for Active; 'I' for Inactive)
    1  A    between atoms: C_1  and  C_9
    2  A    between atoms: C_1  and  O_18
    3  A    between atoms: C_3  and  C_9
    4  A    between atoms: C_4  and  C_19
    5  A    between atoms: O_18  and  C_19
    6  A    between atoms: C_19  and  S_33
    7  A    between atoms: C_21  and  S_33
    8  A    between atoms: C_22  and  N_38
                            x       y       z     vdW  Elec       q    Type
                         _______ _______ _______ _____ _____    ______ ____

>  <TORSDO>
F 8

$$$$
