=
 OpenBabel11032420263D

 39 42  0  0  1  0  0  0  0  0999 V2000
  189.0220  178.4850  142.0270 C   0  0  0  0  0  3  0  0  0  0  0  0
  187.8430  178.2140  139.7140 C   0  0  0  0  0  0  0  0  0  0  0  0
  188.4340  178.3520  140.8700 C   0  0  0  0  0  0  0  0  0  0  0  0
  190.0700  177.0150  146.3230 C   0  0  0  0  0  1  0  0  0  0  0  0
  191.4650  177.9920  144.4080 C   0  0  0  0  0  3  0  0  0  0  0  0
  188.3620  176.3200  144.0310 O   0  0  0  0  0  0  0  0  0  0  0  0
  189.9250  177.4160  142.5460 C   0  0  1  0  0  3  0  0  0  0  0  0
  191.3060  178.0050  142.8790 C   0  0  0  0  0  3  0  0  0  0  0  0
  189.4410  176.9470  143.8610 C   0  0  0  0  0  0  0  0  0  0  0  0
  190.3220  177.2640  144.9140 N   0  0  0  0  0  0  0  0  0  0  0  0
  184.3180  178.5540  138.6680 C   0  0  0  0  0  2  0  0  0  0  0  0
  186.3990  178.4720  139.5910 C   0  0  0  0  0  0  0  0  0  0  0  0
  185.6980  178.9930  140.5380 N   0  0  0  0  0  0  0  0  0  0  0  0
  185.6660  178.1790  138.4590 O   0  0  0  0  0  0  0  0  0  0  0  0
  184.3140  179.1090  140.0990 C   0  0  2  0  0  3  0  0  0  0  0  0
  183.4240  178.2610  140.9980 C   0  0  0  0  0  2  0  0  0  0  0  0
  184.4360  178.8610  145.1310 C   0  0  0  0  0  0  0  0  0  0  0  0
  185.0460  178.1200  142.9030 C   0  0  0  0  0  3  0  0  0  0  0  0
  183.7700  178.4540  142.4360 C   0  0  0  0  0  0  0  0  0  0  0  0
  182.8290  179.0010  143.3130 C   0  0  0  0  0  3  0  0  0  0  0  0
  183.1570  179.2020  144.6560 C   0  0  0  0  0  3  0  0  0  0  0  0
  185.3760  178.3190  144.2460 C   0  0  0  0  0  3  0  0  0  0  0  0
  184.7950  179.0450  146.4690 O   0  0  0  0  0  0  0  0  0  0  0  0
  186.0590  178.6530  146.9840 C   0  0  0  0  0  1  0  0  0  0  0  0
  188.6710  177.8930  138.5130 C   0  0  0  0  0  2  0  0  0  0  0  0
  189.4760  176.6250  138.7540 C   0  0  0  0  0  2  0  0  0  0  0  0
  190.9010  176.7950  138.2590 C   0  0  0  0  0  2  0  0  0  0  0  0
  192.5200  175.0290  137.7560 C   0  0  1  0  0  3  0  0  0  0  0  0
  191.2720  175.6790  137.2990 C   0  0  1  0  0  3  0  0  0  0  0  0
  191.2580  174.4560  137.9930 O   0  0  0  0  0  0  0  0  0  0  0  0
  193.1740  174.3110  136.5910 C   0  0  0  0  0  2  0  0  0  0  0  0
  194.6460  174.0300  136.8850 C   0  0  0  0  0  2  0  0  0  0  0  0
  194.8710  172.7770  137.7370 C   0  0  1  0  0  3  0  0  0  0  0  0
  195.4710  171.6300  136.9320 C   0  0  0  0  0  2  0  0  0  0  0  0
  196.6740  171.2220  137.5100 O   0  0  0  0  0  1  0  0  0  0  0  0
  195.7110  173.0830  138.8890 N   0  0  0  0  0  2  0  0  0  0  0  0
  197.6450  174.5120  138.5920 C   0  0  0  0  0  1  0  0  0  0  0  0
  195.7960  175.1670  139.9300 O   0  0  0  0  0  1  0  0  0  0  0  0
  196.1420  174.4680  138.7710 C   0  0  2  0  0  3  0  0  0  0  0  0
  2  3  2  0  0  0  0
  3  1  2  0  0  0  0
  5 10  1  0  0  0  0
  7  1  1  1  0  0  0
  7  8  1  0  0  0  0
  7  9  1  0  0  0  0
  8  5  2  0  0  0  0
  9  6  2  0  0  0  0
  9 10  1  0  0  0  0
 10  4  1  0  0  0  0
 11 15  1  0  0  0  0
 12  2  1  0  0  0  0
 12 13  2  0  0  0  0
 14 11  1  0  0  0  0
 14 12  1  0  0  0  0
 15 13  1  0  0  0  0
 15 16  1  1  0  0  0
 16 19  1  0  0  0  0
 17 23  1  0  0  0  0
 18 22  1  0  0  0  0
 19 18  2  0  0  0  0
 19 20  1  0  0  0  0
 20 21  2  0  0  0  0
 21 17  1  0  0  0  0
 22 17  2  0  0  0  0
 23 24  1  0  0  0  0
 25 26  1  0  0  0  0
 25  2  1  0  0  0  0
 27 26  1  0  0  0  0
 28 31  1  6  0  0  0
 28 30  1  0  0  0  0
 29 28  1  0  0  0  0
 29 30  1  0  0  0  0
 29 27  1  1  0  0  0
 31 32  1  0  0  0  0
 33 32  1  6  0  0  0
 33 36  1  0  0  0  0
 34 35  1  0  0  0  0
 34 33  1  0  0  0  0
 39 37  1  1  0  0  0
 39 36  1  0  0  0  0
 39 38  1  0  0  0  0
M  END
>  <MODEL>
1

>  <REMARK>
 VINA RESULT:      -7.8      0.000      0.000
  Name = 
  15 active torsions:
  status: ('A' for Active; 'I' for Inactive)
    1  A    between atoms: C_1  and  C_24
    2  A    between atoms: C_2  and  C_15
    3  A    between atoms: C_2  and  C_17
    4  A    between atoms: C_4  and  CA_30
    5  A    between atoms: C_4  and  C_32
    6  A    between atoms: C_5  and  O_7
    7  A    between atoms: C_6  and  C_32
    8  A    between atoms: C_8  and  C_21
    9  A    between atoms: C_8  and  C_39
   10  A    between atoms: C_11  and  C_15
   11  A    between atoms: C_11  and  C_35
   12  A    between atoms: C_14  and  CA_30
   13  A    between atoms: C_18  and  C_35
   14  A    between atoms: C_22  and  N_27
   15  A    between atoms: N_27  and  CA_30
                            x       y       z     vdW  Elec       q    Type
                         _______ _______ _______ _____ _____    ______ ____

>  <TORSDO>
F 15

$$$$
=
 OpenBabel11032420263D

 39 42  0  0  1  0  0  0  0  0999 V2000
  187.7800  178.5440  141.3290 C   0  0  0  0  0  3  0  0  0  0  0  0
  185.2510  178.5540  141.9710 C   0  0  0  0  0  0  0  0  0  0  0  0
  186.5160  178.5520  141.6490 C   0  0  0  0  0  0  0  0  0  0  0  0
  192.1250  177.3180  140.1700 C   0  0  0  0  0  1  0  0  0  0  0  0
  190.0860  178.0700  138.8110 C   0  0  0  0  0  3  0  0  0  0  0  0
  189.9640  176.5710  142.0210 O   0  0  0  0  0  0  0  0  0  0  0  0
  188.3390  177.4600  140.4670 C   0  0  1  0  0  3  0  0  0  0  0  0
  188.5680  177.9840  139.0400 C   0  0  0  0  0  3  0  0  0  0  0  0
  189.7030  177.1160  140.9160 C   0  0  0  0  0  0  0  0  0  0  0  0
  190.6920  177.4510  139.9700 N   0  0  0  0  0  0  0  0  0  0  0  0
  183.5020  178.9510  145.2000 C   0  0  0  0  0  2  0  0  0  0  0  0
  184.8510  178.7490  143.3750 C   0  0  0  0  0  0  0  0  0  0  0  0
  185.6980  178.9540  144.3230 N   0  0  0  0  0  0  0  0  0  0  0  0
  183.5380  178.7260  143.8030 O   0  0  0  0  0  0  0  0  0  0  0  0
  184.9810  179.1010  145.5820 C   0  0  2  0  0  3  0  0  0  0  0  0
  185.4010  177.9920  146.5370 C   0  0  0  0  0  2  0  0  0  0  0  0
  189.6550  177.3880  146.5050 C   0  0  0  0  0  0  0  0  0  0  0  0
  187.6380  178.0740  147.6640 C   0  0  0  0  0  3  0  0  0  0  0  0
  186.8800  177.7980  146.5210 C   0  0  0  0  0  0  0  0  0  0  0  0
  187.5070  177.3070  145.3720 C   0  0  0  0  0  3  0  0  0  0  0  0
  188.8890  177.1040  145.3610 C   0  0  0  0  0  3  0  0  0  0  0  0
  189.0200  177.8730  147.6540 C   0  0  0  0  0  3  0  0  0  0  0  0
  191.0400  177.2000  146.5260 O   0  0  0  0  0  0  0  0  0  0  0  0
  191.6740  176.2600  147.3800 C   0  0  0  0  0  1  0  0  0  0  0  0
  184.2280  178.4580  140.8870 C   0  0  0  0  0  2  0  0  0  0  0  0
  184.8510  178.8100  139.5450 C   0  0  0  0  0  2  0  0  0  0  0  0
  184.3330  177.8870  138.4570 C   0  0  0  0  0  2  0  0  0  0  0  0
  185.5200  176.2850  137.0370 C   0  0  1  0  0  3  0  0  0  0  0  0
  185.3650  177.7210  137.3570 C   0  0  1  0  0  3  0  0  0  0  0  0
  184.7470  177.1430  136.2340 O   0  0  0  0  0  0  0  0  0  0  0  0
  186.8590  176.0560  136.3630 C   0  0  0  0  0  2  0  0  0  0  0  0
  187.0280  174.5890  135.9760 C   0  0  0  0  0  2  0  0  0  0  0  0
  188.0890  173.8560  136.8030 C   0  0  1  0  0  3  0  0  0  0  0  0
  187.7360  172.3890  137.0260 C   0  0  0  0  0  2  0  0  0  0  0  0
  187.0350  171.8970  135.9240 O   0  0  0  0  0  1  0  0  0  0  0  0
  189.4010  173.9740  136.1760 N   0  0  0  0  0  2  0  0  0  0  0  0
  190.9510  175.8350  136.0970 C   0  0  0  0  0  1  0  0  0  0  0  0
  191.1270  174.1240  137.7350 O   0  0  0  0  0  1  0  0  0  0  0  0
  190.2060  174.8680  136.9940 C   0  0  2  0  0  3  0  0  0  0  0  0
  1  3  2  0  0  0  0
  2 12  1  0  0  0  0
  3  2  2  0  0  0  0
  5  8  2  0  0  0  0
  5 10  1  0  0  0  0
  7  9  1  0  0  0  0
  7  1  1  1  0  0  0
  8  7  1  0  0  0  0
  9  6  2  0  0  0  0
 10  4  1  0  0  0  0
 10  9  1  0  0  0  0
 11 15  1  0  0  0  0
 12 14  1  0  0  0  0
 12 13  2  0  0  0  0
 13 15  1  0  0  0  0
 14 11  1  0  0  0  0
 15 16  1  1  0  0  0
 17 23  1  0  0  0  0
 17 22  1  0  0  0  0
 19 16  1  0  0  0  0
 19 18  1  0  0  0  0
 20 19  2  0  0  0  0
 21 20  1  0  0  0  0
 21 17  2  0  0  0  0
 22 18  2  0  0  0  0
 23 24  1  0  0  0  0
 25  2  1  0  0  0  0
 26 25  1  0  0  0  0
 27 26  1  0  0  0  0
 28 31  1  6  0  0  0
 28 29  1  0  0  0  0
 29 27  1  1  0  0  0
 30 28  1  0  0  0  0
 30 29  1  0  0  0  0
 32 31  1  0  0  0  0
 33 32  1  6  0  0  0
 33 34  1  0  0  0  0
 35 34  1  0  0  0  0
 36 33  1  0  0  0  0
 36 39  1  0  0  0  0
 39 37  1  6  0  0  0
 39 38  1  0  0  0  0
M  END
>  <MODEL>
2

>  <REMARK>
 VINA RESULT:      -7.8      3.133      5.792
  Name = 
  15 active torsions:
  status: ('A' for Active; 'I' for Inactive)
    1  A    between atoms: C_1  and  C_24
    2  A    between atoms: C_2  and  C_15
    3  A    between atoms: C_2  and  C_17
    4  A    between atoms: C_4  and  CA_30
    5  A    between atoms: C_4  and  C_32
    6  A    between atoms: C_5  and  O_7
    7  A    between atoms: C_6  and  C_32
    8  A    between atoms: C_8  and  C_21
    9  A    between atoms: C_8  and  C_39
   10  A    between atoms: C_11  and  C_15
   11  A    between atoms: C_11  and  C_35
   12  A    between atoms: C_14  and  CA_30
   13  A    between atoms: C_18  and  C_35
   14  A    between atoms: C_22  and  N_27
   15  A    between atoms: N_27  and  CA_30
                            x       y       z     vdW  Elec       q    Type
                         _______ _______ _______ _____ _____    ______ ____

>  <TORSDO>
F 15

$$$$
=
 OpenBabel11032420263D

 39 42  0  0  1  0  0  0  0  0999 V2000
  180.5530  178.3360  141.7670 C   0  0  0  0  0  3  0  0  0  0  0  0
  183.1610  178.3570  141.6620 C   0  0  0  0  0  0  0  0  0  0  0  0
  181.8570  178.3440  141.7150 C   0  0  0  0  0  0  0  0  0  0  0  0
  180.9480  178.7400  137.1410 C   0  0  0  0  0  1  0  0  0  0  0  0
  180.9580  180.4350  139.0630 C   0  0  0  0  0  3  0  0  0  0  0  0
  179.4610  177.2230  139.1770 O   0  0  0  0  0  0  0  0  0  0  0  0
  179.7480  179.0520  140.7340 C   0  0  1  0  0  3  0  0  0  0  0  0
  180.3410  180.4460  140.4720 C   0  0  0  0  0  3  0  0  0  0  0  0
  179.8970  178.3790  139.4270 C   0  0  0  0  0  0  0  0  0  0  0  0
  180.5740  179.1690  138.4770 N   0  0  0  0  0  0  0  0  0  0  0  0
  184.4630  179.5880  144.8920 C   0  0  0  0  0  2  0  0  0  0  0  0
  183.9420  178.6810  142.8680 C   0  0  0  0  0  0  0  0  0  0  0  0
  185.1380  178.2460  143.0650 N   0  0  0  0  0  0  0  0  0  0  0  0
  183.4660  179.4720  143.8950 O   0  0  0  0  0  0  0  0  0  0  0  0
  185.6220  178.7420  144.3460 C   0  0  2  0  0  3  0  0  0  0  0  0
  185.9070  177.5660  145.2700 C   0  0  0  0  0  2  0  0  0  0  0  0
  190.0920  177.2390  146.1880 C   0  0  0  0  0  0  0  0  0  0  0  0
  187.8050  177.6170  146.9050 C   0  0  0  0  0  3  0  0  0  0  0  0
  187.3610  177.4690  145.5870 C   0  0  0  0  0  0  0  0  0  0  0  0
  188.2800  177.1960  144.5690 C   0  0  0  0  0  3  0  0  0  0  0  0
  189.6400  177.0840  144.8660 C   0  0  0  0  0  3  0  0  0  0  0  0
  189.1660  177.5060  147.2030 C   0  0  0  0  0  3  0  0  0  0  0  0
  191.4460  177.1380  146.5180 O   0  0  0  0  0  0  0  0  0  0  0  0
  192.0100  175.9670  147.0890 C   0  0  0  0  0  1  0  0  0  0  0  0
  183.8370  177.9430  140.3970 C   0  0  0  0  0  2  0  0  0  0  0  0
  184.3560  179.1640  139.6550 C   0  0  0  0  0  2  0  0  0  0  0  0
  184.8670  178.7760  138.2790 C   0  0  0  0  0  2  0  0  0  0  0  0
  186.9070  178.0450  137.1400 C   0  0  1  0  0  3  0  0  0  0  0  0
  186.1250  177.9340  138.3900 C   0  0  1  0  0  3  0  0  0  0  0  0
  187.2480  178.7750  138.2930 O   0  0  0  0  0  0  0  0  0  0  0  0
  187.8410  176.8560  137.0170 C   0  0  0  0  0  2  0  0  0  0  0  0
  189.2920  177.2850  137.2160 C   0  0  0  0  0  2  0  0  0  0  0  0
  189.9640  176.6270  138.4260 C   0  0  1  0  0  3  0  0  0  0  0  0
  191.1440  175.7490  138.0250 C   0  0  0  0  0  2  0  0  0  0  0  0
  192.2980  176.5260  137.9130 O   0  0  0  0  0  1  0  0  0  0  0  0
  190.3860  177.6360  139.3920 N   0  0  0  0  0  2  0  0  0  0  0  0
  188.7030  177.5410  141.1320 C   0  0  0  0  0  1  0  0  0  0  0  0
  191.0220  177.6460  141.6340 O   0  0  0  0  0  1  0  0  0  0  0  0
  190.1000  177.1240  140.7230 C   0  0  2  0  0  3  0  0  0  0  0  0
  2  3  2  0  0  0  0
  2 12  1  0  0  0  0
  3  1  2  0  0  0  0
  4 10  1  0  0  0  0
  5  8  2  0  0  0  0
  6  9  2  0  0  0  0
  7  1  1  1  0  0  0
  8  7  1  0  0  0  0
  9  7  1  0  0  0  0
 10  5  1  0  0  0  0
 10  9  1  0  0  0  0
 12 13  2  0  0  0  0
 12 14  1  0  0  0  0
 13 15  1  0  0  0  0
 14 11  1  0  0  0  0
 15 11  1  0  0  0  0
 15 16  1  1  0  0  0
 16 19  1  0  0  0  0
 17 23  1  0  0  0  0
 17 22  1  0  0  0  0
 18 22  2  0  0  0  0
 19 18  1  0  0  0  0
 20 21  1  0  0  0  0
 20 19  2  0  0  0  0
 21 17  2  0  0  0  0
 23 24  1  0  0  0  0
 25  2  1  0  0  0  0
 26 25  1  0  0  0  0
 27 26  1  0  0  0  0
 28 31  1  1  0  0  0
 28 30  1  0  0  0  0
 28 29  1  0  0  0  0
 29 27  1  6  0  0  0
 30 29  1  0  0  0  0
 31 32  1  0  0  0  0
 33 32  1  6  0  0  0
 33 36  1  0  0  0  0
 34 33  1  0  0  0  0
 35 34  1  0  0  0  0
 36 39  1  0  0  0  0
 39 37  1  1  0  0  0
 39 38  1  0  0  0  0
M  END
>  <MODEL>
3

>  <REMARK>
 VINA RESULT:      -7.7      3.128      7.356
  Name = 
  15 active torsions:
  status: ('A' for Active; 'I' for Inactive)
    1  A    between atoms: C_1  and  C_24
    2  A    between atoms: C_2  and  C_15
    3  A    between atoms: C_2  and  C_17
    4  A    between atoms: C_4  and  CA_30
    5  A    between atoms: C_4  and  C_32
    6  A    between atoms: C_5  and  O_7
    7  A    between atoms: C_6  and  C_32
    8  A    between atoms: C_8  and  C_21
    9  A    between atoms: C_8  and  C_39
   10  A    between atoms: C_11  and  C_15
   11  A    between atoms: C_11  and  C_35
   12  A    between atoms: C_14  and  CA_30
   13  A    between atoms: C_18  and  C_35
   14  A    between atoms: C_22  and  N_27
   15  A    between atoms: N_27  and  CA_30
                            x       y       z     vdW  Elec       q    Type
                         _______ _______ _______ _____ _____    ______ ____

>  <TORSDO>
F 15

$$$$
=
 OpenBabel11032420263D

 39 42  0  0  1  0  0  0  0  0999 V2000
  184.8370  178.8640  140.7500 C   0  0  0  0  0  3  0  0  0  0  0  0
  187.3670  178.2590  140.9560 C   0  0  0  0  0  0  0  0  0  0  0  0
  186.1020  178.5640  140.8540 C   0  0  0  0  0  0  0  0  0  0  0  0
  180.2910  179.5360  141.5230 C   0  0  0  0  0  1  0  0  0  0  0  0
  182.3340  179.3820  143.0630 C   0  0  0  0  0  3  0  0  0  0  0  0
  182.1030  177.9650  139.8210 O   0  0  0  0  0  0  0  0  0  0  0  0
  183.8110  178.1060  141.5270 C   0  0  1  0  0  3  0  0  0  0  0  0
  183.6960  178.6790  142.9500 C   0  0  0  0  0  3  0  0  0  0  0  0
  182.4700  178.3550  140.9620 C   0  0  0  0  0  0  0  0  0  0  0  0
  181.6290  179.0680  141.8390 N   0  0  0  0  0  0  0  0  0  0  0  0
  189.1050  178.5340  137.7090 C   0  0  0  0  0  2  0  0  0  0  0  0
  188.1810  178.0830  139.7420 C   0  0  0  0  0  0  0  0  0  0  0  0
  188.9100  177.0410  139.5330 N   0  0  0  0  0  0  0  0  0  0  0  0
  188.2410  179.0120  138.7230 O   0  0  0  0  0  0  0  0  0  0  0  0
  189.5850  177.1810  138.2500 C   0  0  2  0  0  3  0  0  0  0  0  0
  191.0920  177.1980  138.4700 C   0  0  0  0  0  2  0  0  0  0  0  0
  192.9320  173.6430  136.9090 C   0  0  0  0  0  0  0  0  0  0  0  0
  190.9460  174.9660  137.3410 C   0  0  0  0  0  3  0  0  0  0  0  0
  191.7290  175.9570  137.9430 C   0  0  0  0  0  0  0  0  0  0  0  0
  193.1160  175.7970  138.0200 C   0  0  0  0  0  3  0  0  0  0  0  0
  193.7170  174.6440  137.5080 C   0  0  0  0  0  3  0  0  0  0  0  0
  191.5450  173.8120  136.8290 C   0  0  0  0  0  3  0  0  0  0  0  0
  193.5020  172.4770  136.3910 O   0  0  0  0  0  0  0  0  0  0  0  0
  192.8820  171.7090  135.3700 C   0  0  0  0  0  1  0  0  0  0  0  0
  187.9880  178.1950  142.3130 C   0  0  0  0  0  2  0  0  0  0  0  0
  187.2170  177.2270  143.1980 C   0  0  0  0  0  2  0  0  0  0  0  0
  186.7460  177.9200  144.4640 C   0  0  0  0  0  2  0  0  0  0  0  0
  188.1300  177.8610  146.4830 C   0  0  1  0  0  3  0  0  0  0  0  0
  187.1270  177.1140  145.6910 C   0  0  1  0  0  3  0  0  0  0  0  0
  186.7700  177.8380  146.8430 O   0  0  0  0  0  0  0  0  0  0  0  0
  188.8900  176.9000  147.3760 C   0  0  0  0  0  2  0  0  0  0  0  0
  190.2870  177.4340  147.6810 C   0  0  0  0  0  2  0  0  0  0  0  0
  191.3760  176.8570  146.7710 C   0  0  1  0  0  3  0  0  0  0  0  0
  192.0290  175.6150  147.3670 C   0  0  0  0  0  2  0  0  0  0  0  0
  193.0550  175.9890  148.2370 O   0  0  0  0  0  1  0  0  0  0  0  0
  190.8370  176.5630  145.4480 N   0  0  0  0  0  2  0  0  0  0  0  0
  191.0010  178.6600  144.2450 C   0  0  0  0  0  1  0  0  0  0  0  0
  191.6520  176.5970  143.2650 O   0  0  0  0  0  1  0  0  0  0  0  0
  191.6260  177.2990  144.4720 C   0  0  2  0  0  3  0  0  0  0  0  0
  1  3  2  0  0  0  0
  2 25  1  0  0  0  0
  3  2  2  0  0  0  0
  4 10  1  0  0  0  0
  6  9  2  0  0  0  0
  7  1  1  6  0  0  0
  7  8  1  0  0  0  0
  8  5  2  0  0  0  0
  9  7  1  0  0  0  0
  9 10  1  0  0  0  0
 10  5  1  0  0  0  0
 11 15  1  0  0  0  0
 11 14  1  0  0  0  0
 12  2  1  0  0  0  0
 13 12  2  0  0  0  0
 14 12  1  0  0  0  0
 15 16  1  1  0  0  0
 15 13  1  0  0  0  0
 17 21  1  0  0  0  0
 18 19  2  0  0  0  0
 19 20  1  0  0  0  0
 19 16  1  0  0  0  0
 21 20  2  0  0  0  0
 22 17  2  0  0  0  0
 22 18  1  0  0  0  0
 23 17  1  0  0  0  0
 24 23  1  0  0  0  0
 25 26  1  0  0  0  0
 26 27  1  0  0  0  0
 28 30  1  0  0  0  0
 28 31  1  1  0  0  0
 29 27  1  6  0  0  0
 29 28  1  0  0  0  0
 29 30  1  0  0  0  0
 31 32  1  0  0  0  0
 33 34  1  1  0  0  0
 33 32  1  0  0  0  0
 34 35  1  0  0  0  0
 36 33  1  0  0  0  0
 38 39  1  0  0  0  0
 39 37  1  6  0  0  0
 39 36  1  0  0  0  0
M  END
>  <MODEL>
4

>  <REMARK>
 VINA RESULT:      -7.7      2.480      9.153
  Name = 
  15 active torsions:
  status: ('A' for Active; 'I' for Inactive)
    1  A    between atoms: C_1  and  C_24
    2  A    between atoms: C_2  and  C_15
    3  A    between atoms: C_2  and  C_17
    4  A    between atoms: C_4  and  CA_30
    5  A    between atoms: C_4  and  C_32
    6  A    between atoms: C_5  and  O_7
    7  A    between atoms: C_6  and  C_32
    8  A    between atoms: C_8  and  C_21
    9  A    between atoms: C_8  and  C_39
   10  A    between atoms: C_11  and  C_15
   11  A    between atoms: C_11  and  C_35
   12  A    between atoms: C_14  and  CA_30
   13  A    between atoms: C_18  and  C_35
   14  A    between atoms: C_22  and  N_27
   15  A    between atoms: N_27  and  CA_30
                            x       y       z     vdW  Elec       q    Type
                         _______ _______ _______ _____ _____    ______ ____

>  <TORSDO>
F 15

$$$$
=
 OpenBabel11032420263D

 39 42  0  0  1  0  0  0  0  0999 V2000
  192.1810  176.4770  138.2600 C   0  0  0  0  0  3  0  0  0  0  0  0
  189.6380  176.9620  138.5860 C   0  0  0  0  0  0  0  0  0  0  0  0
  190.9100  176.7220  138.4220 C   0  0  0  0  0  0  0  0  0  0  0  0
  195.9290  175.2400  135.7820 C   0  0  0  0  0  1  0  0  0  0  0  0
  193.4090  175.1670  135.3180 C   0  0  0  0  0  3  0  0  0  0  0  0
  194.8970  175.1780  138.5360 O   0  0  0  0  0  0  0  0  0  0  0  0
  192.6360  175.1800  137.6790 C   0  0  1  0  0  3  0  0  0  0  0  0
  192.1680  175.0610  136.2190 C   0  0  0  0  0  3  0  0  0  0  0  0
  194.1080  175.1750  137.5540 C   0  0  0  0  0  0  0  0  0  0  0  0
  194.5450  175.1550  136.2150 N   0  0  0  0  0  0  0  0  0  0  0  0
  187.8040  178.5480  141.3720 C   0  0  0  0  0  2  0  0  0  0  0  0
  189.1480  177.4790  139.8750 C   0  0  0  0  0  0  0  0  0  0  0  0
  189.7740  177.2980  140.9860 N   0  0  0  0  0  0  0  0  0  0  0  0
  187.9770  178.1990  140.0120 O   0  0  0  0  0  0  0  0  0  0  0  0
  189.0260  177.9290  142.0640 C   0  0  2  0  0  3  0  0  0  0  0  0
  188.5910  176.8690  143.0680 C   0  0  0  0  0  2  0  0  0  0  0  0
  191.0970  176.8580  146.5590 C   0  0  0  0  0  0  0  0  0  0  0  0
  188.9220  177.1780  145.5320 C   0  0  0  0  0  3  0  0  0  0  0  0
  189.4640  176.8810  144.2770 C   0  0  0  0  0  0  0  0  0  0  0  0
  190.8210  176.5610  144.1620 C   0  0  0  0  0  3  0  0  0  0  0  0
  191.6360  176.5520  145.2960 C   0  0  0  0  0  3  0  0  0  0  0  0
  189.7370  177.1700  146.6670 C   0  0  0  0  0  3  0  0  0  0  0  0
  191.8860  176.8610  147.7120 O   0  0  0  0  0  0  0  0  0  0  0  0
  192.6460  175.7350  148.1240 C   0  0  0  0  0  1  0  0  0  0  0  0
  188.7150  176.8000  137.4230 C   0  0  0  0  0  2  0  0  0  0  0  0
  188.6910  178.0730  136.5910 C   0  0  0  0  0  2  0  0  0  0  0  0
  187.2920  178.3420  136.0660 C   0  0  0  0  0  2  0  0  0  0  0  0
  185.0820  177.5610  136.7740 C   0  0  1  0  0  3  0  0  0  0  0  0
  186.4020  177.1290  136.2640 C   0  0  1  0  0  3  0  0  0  0  0  0
  185.2830  177.2400  135.4190 O   0  0  0  0  0  0  0  0  0  0  0  0
  184.3950  176.3950  137.4580 C   0  0  0  0  0  2  0  0  0  0  0  0
  183.0300  176.8130  138.0000 C   0  0  0  0  0  2  0  0  0  0  0  0
  182.9890  178.2600  138.5030 C   0  0  1  0  0  3  0  0  0  0  0  0
  181.8550  179.0590  137.8710 C   0  0  0  0  0  2  0  0  0  0  0  0
  181.1220  179.7100  138.8650 O   0  0  0  0  0  1  0  0  0  0  0  0
  182.8870  178.2950  139.9580 N   0  0  0  0  0  2  0  0  0  0  0  0
  184.1350  178.6960  141.9960 C   0  0  0  0  0  1  0  0  0  0  0  0
  184.7420  179.7060  139.9340 O   0  0  0  0  0  1  0  0  0  0  0  0
  184.2190  178.5380  140.4910 C   0  0  2  0  0  3  0  0  0  0  0  0
  1  3  2  0  0  0  0
  2 12  1  0  0  0  0
  3  2  2  0  0  0  0
  4 10  1  0  0  0  0
  5 10  1  0  0  0  0
  5  8  2  0  0  0  0
  7  1  1  6  0  0  0
  8  7  1  0  0  0  0
  9  7  1  0  0  0  0
  9  6  2  0  0  0  0
 10  9  1  0  0  0  0
 11 15  1  0  0  0  0
 12 14  1  0  0  0  0
 12 13  2  0  0  0  0
 13 15  1  0  0  0  0
 14 11  1  0  0  0  0
 15 16  1  1  0  0  0
 16 19  1  0  0  0  0
 17 22  1  0  0  0  0
 17 23  1  0  0  0  0
 18 22  2  0  0  0  0
 19 18  1  0  0  0  0
 20 19  2  0  0  0  0
 20 21  1  0  0  0  0
 21 17  2  0  0  0  0
 23 24  1  0  0  0  0
 25  2  1  0  0  0  0
 26 25  1  0  0  0  0
 27 26  1  0  0  0  0
 28 31  1  1  0  0  0
 29 27  1  6  0  0  0
 29 28  1  0  0  0  0
 30 29  1  0  0  0  0
 30 28  1  0  0  0  0
 31 32  1  0  0  0  0
 32 33  1  0  0  0  0
 33 34  1  6  0  0  0
 33 36  1  0  0  0  0
 34 35  1  0  0  0  0
 36 39  1  0  0  0  0
 38 39  1  0  0  0  0
 39 37  1  1  0  0  0
M  END
>  <MODEL>
5

>  <REMARK>
 VINA RESULT:      -7.7      2.542      8.720
  Name = 
  15 active torsions:
  status: ('A' for Active; 'I' for Inactive)
    1  A    between atoms: C_1  and  C_24
    2  A    between atoms: C_2  and  C_15
    3  A    between atoms: C_2  and  C_17
    4  A    between atoms: C_4  and  CA_30
    5  A    between atoms: C_4  and  C_32
    6  A    between atoms: C_5  and  O_7
    7  A    between atoms: C_6  and  C_32
    8  A    between atoms: C_8  and  C_21
    9  A    between atoms: C_8  and  C_39
   10  A    between atoms: C_11  and  C_15
   11  A    between atoms: C_11  and  C_35
   12  A    between atoms: C_14  and  CA_30
   13  A    between atoms: C_18  and  C_35
   14  A    between atoms: C_22  and  N_27
   15  A    between atoms: N_27  and  CA_30
                            x       y       z     vdW  Elec       q    Type
                         _______ _______ _______ _____ _____    ______ ____

>  <TORSDO>
F 15

$$$$
=
 OpenBabel11032420263D

 39 42  0  0  1  0  0  0  0  0999 V2000
  188.1510  175.6050  137.2230 C   0  0  0  0  0  3  0  0  0  0  0  0
  187.5850  177.8370  138.4510 C   0  0  0  0  0  0  0  0  0  0  0  0
  187.8680  176.7190  137.8400 C   0  0  0  0  0  0  0  0  0  0  0  0
  192.4320  173.7810  136.9680 C   0  0  0  0  0  1  0  0  0  0  0  0
  191.5190  176.1660  136.7500 C   0  0  0  0  0  3  0  0  0  0  0  0
  189.6590  173.2030  136.1750 O   0  0  0  0  0  0  0  0  0  0  0  0
  189.1830  175.5740  136.1460 C   0  0  1  0  0  3  0  0  0  0  0  0
  190.1630  176.7470  136.3170 C   0  0  0  0  0  3  0  0  0  0  0  0
  190.0520  174.3920  136.3170 C   0  0  0  0  0  0  0  0  0  0  0  0
  191.3790  174.7290  136.6490 N   0  0  0  0  0  0  0  0  0  0  0  0
  184.0110  178.6970  138.0860 C   0  0  0  0  0  2  0  0  0  0  0  0
  186.1810  178.2470  138.6190 C   0  0  0  0  0  0  0  0  0  0  0  0
  185.6960  178.6400  139.7460 N   0  0  0  0  0  0  0  0  0  0  0  0
  185.2580  178.2450  137.5920 O   0  0  0  0  0  0  0  0  0  0  0  0
  184.2870  178.9660  139.5720 C   0  0  2  0  0  3  0  0  0  0  0  0
  183.4430  178.0490  140.4470 C   0  0  0  0  0  2  0  0  0  0  0  0
  183.9870  178.8920  144.6250 C   0  0  0  0  0  0  0  0  0  0  0  0
  182.5380  178.7090  142.6890 C   0  0  0  0  0  3  0  0  0  0  0  0
  183.6340  178.3580  141.8940 C   0  0  0  0  0  0  0  0  0  0  0  0
  184.9070  178.2630  142.4650 C   0  0  0  0  0  3  0  0  0  0  0  0
  185.0850  178.5310  143.8240 C   0  0  0  0  0  3  0  0  0  0  0  0
  182.7150  178.9790  144.0480 C   0  0  0  0  0  3  0  0  0  0  0  0
  184.1320  179.1710  145.9870 O   0  0  0  0  0  0  0  0  0  0  0  0
  184.9210  178.3690  146.8530 C   0  0  0  0  0  1  0  0  0  0  0  0
  188.6950  178.6310  139.0590 C   0  0  0  0  0  2  0  0  0  0  0  0
  189.5280  177.7500  139.9760 C   0  0  0  0  0  2  0  0  0  0  0  0
  188.6560  177.1110  141.0410 C   0  0  0  0  0  2  0  0  0  0  0  0
  188.3280  176.8010  143.4480 C   0  0  1  0  0  3  0  0  0  0  0  0
  189.0790  177.5640  142.4260 C   0  0  1  0  0  3  0  0  0  0  0  0
  189.6540  176.4760  143.1080 O   0  0  0  0  0  0  0  0  0  0  0  0
  188.3310  177.5670  144.7570 C   0  0  0  0  0  2  0  0  0  0  0  0
  189.1620  176.8370  145.8090 C   0  0  0  0  0  2  0  0  0  0  0  0
  189.3200  177.6210  147.1160 C   0  0  1  0  0  3  0  0  0  0  0  0
  188.1510  177.3970  148.0690 C   0  0  0  0  0  2  0  0  0  0  0  0
  188.3130  178.1830  149.2110 O   0  0  0  0  0  1  0  0  0  0  0  0
  190.5800  177.2840  147.7680 N   0  0  0  0  0  2  0  0  0  0  0  0
  192.4010  175.6920  147.6170 C   0  0  0  0  0  1  0  0  0  0  0  0
  191.9950  177.3000  145.9170 O   0  0  0  0  0  1  0  0  0  0  0  0
  191.3580  176.4730  146.8440 C   0  0  2  0  0  3  0  0  0  0  0  0
  1  3  2  0  0  0  0
  2 12  1  0  0  0  0
  2 25  1  0  0  0  0
  3  2  2  0  0  0  0
  6  9  2  0  0  0  0
  7  8  1  0  0  0  0
  7  9  1  0  0  0  0
  7  1  1  1  0  0  0
  8  5  2  0  0  0  0
  9 10  1  0  0  0  0
 10  5  1  0  0  0  0
 10  4  1  0  0  0  0
 11 15  1  0  0  0  0
 12 13  2  0  0  0  0
 14 11  1  0  0  0  0
 14 12  1  0  0  0  0
 15 13  1  0  0  0  0
 15 16  1  1  0  0  0
 16 19  1  0  0  0  0
 17 23  1  0  0  0  0
 18 22  2  0  0  0  0
 19 20  2  0  0  0  0
 19 18  1  0  0  0  0
 20 21  1  0  0  0  0
 21 17  2  0  0  0  0
 22 17  1  0  0  0  0
 23 24  1  0  0  0  0
 25 26  1  0  0  0  0
 26 27  1  0  0  0  0
 28 31  1  1  0  0  0
 29 27  1  6  0  0  0
 29 30  1  0  0  0  0
 29 28  1  0  0  0  0
 30 28  1  0  0  0  0
 31 32  1  0  0  0  0
 33 32  1  6  0  0  0
 33 36  1  0  0  0  0
 33 34  1  0  0  0  0
 34 35  1  0  0  0  0
 38 39  1  0  0  0  0
 39 37  1  1  0  0  0
 39 36  1  0  0  0  0
M  END
>  <MODEL>
6

>  <REMARK>
 VINA RESULT:      -7.6      2.597      6.962
  Name = 
  15 active torsions:
  status: ('A' for Active; 'I' for Inactive)
    1  A    between atoms: C_1  and  C_24
    2  A    between atoms: C_2  and  C_15
    3  A    between atoms: C_2  and  C_17
    4  A    between atoms: C_4  and  CA_30
    5  A    between atoms: C_4  and  C_32
    6  A    between atoms: C_5  and  O_7
    7  A    between atoms: C_6  and  C_32
    8  A    between atoms: C_8  and  C_21
    9  A    between atoms: C_8  and  C_39
   10  A    between atoms: C_11  and  C_15
   11  A    between atoms: C_11  and  C_35
   12  A    between atoms: C_14  and  CA_30
   13  A    between atoms: C_18  and  C_35
   14  A    between atoms: C_22  and  N_27
   15  A    between atoms: N_27  and  CA_30
                            x       y       z     vdW  Elec       q    Type
                         _______ _______ _______ _____ _____    ______ ____

>  <TORSDO>
F 15

$$$$
=
 OpenBabel11032420263D

 39 42  0  0  1  0  0  0  0  0999 V2000
  184.6910  179.1330  141.0110 C   0  0  0  0  0  3  0  0  0  0  0  0
  187.1900  178.6260  140.4560 C   0  0  0  0  0  0  0  0  0  0  0  0
  185.9410  178.8820  140.7340 C   0  0  0  0  0  0  0  0  0  0  0  0
  180.4940  179.4840  143.0050 C   0  0  0  0  0  1  0  0  0  0  0  0
  182.8750  179.3050  143.9360 C   0  0  0  0  0  3  0  0  0  0  0  0
  181.8360  178.1730  140.7400 O   0  0  0  0  0  0  0  0  0  0  0  0
  183.9300  178.2540  141.9480 C   0  0  1  0  0  3  0  0  0  0  0  0
  184.1790  178.6890  143.4010 C   0  0  0  0  0  3  0  0  0  0  0  0
  182.4800  178.4780  141.7790 C   0  0  0  0  0  0  0  0  0  0  0  0
  181.8800  179.0640  142.9120 N   0  0  0  0  0  0  0  0  0  0  0  0
  189.0250  178.8350  137.2570 C   0  0  0  0  0  2  0  0  0  0  0  0
  187.6430  178.6110  139.0550 C   0  0  0  0  0  0  0  0  0  0  0  0
  186.8770  178.2760  138.0750 N   0  0  0  0  0  0  0  0  0  0  0  0
  188.9230  178.9490  138.6640 O   0  0  0  0  0  0  0  0  0  0  0  0
  187.6280  178.3630  136.8300 C   0  0  2  0  0  3  0  0  0  0  0  0
  187.7040  176.9850  136.1860 C   0  0  0  0  0  2  0  0  0  0  0  0
  183.9280  174.9570  136.4990 C   0  0  0  0  0  0  0  0  0  0  0  0
  186.3120  175.0410  136.9380 C   0  0  0  0  0  3  0  0  0  0  0  0
  186.3970  176.2730  136.2810 C   0  0  0  0  0  0  0  0  0  0  0  0
  185.2450  176.8540  135.7410 C   0  0  0  0  0  3  0  0  0  0  0  0
  184.0150  176.1990  135.8460 C   0  0  0  0  0  3  0  0  0  0  0  0
  185.0830  174.3840  137.0430 C   0  0  0  0  0  3  0  0  0  0  0  0
  182.7150  174.2750  136.6180 O   0  0  0  0  0  0  0  0  0  0  0  0
  181.7130  174.6480  137.5520 C   0  0  0  0  0  1  0  0  0  0  0  0
  188.1600  178.4520  141.5780 C   0  0  0  0  0  2  0  0  0  0  0  0
  187.5340  177.6240  142.6900 C   0  0  0  0  0  2  0  0  0  0  0  0
  188.2990  176.3280  142.8870 C   0  0  0  0  0  2  0  0  0  0  0  0
  190.3790  176.0310  144.1450 C   0  0  1  0  0  3  0  0  0  0  0  0
  189.7950  176.5840  142.9030 C   0  0  1  0  0  3  0  0  0  0  0  0
  190.4700  175.3510  142.9160 O   0  0  0  0  0  0  0  0  0  0  0  0
  191.7040  176.7100  144.4300 C   0  0  0  0  0  2  0  0  0  0  0  0
  191.6850  177.3820  145.8000 C   0  0  0  0  0  2  0  0  0  0  0  0
  190.8640  176.6190  146.8440 C   0  0  1  0  0  3  0  0  0  0  0  0
  191.7190  175.6610  147.6650 C   0  0  0  0  0  2  0  0  0  0  0  0
  192.6950  176.3750  148.3630 O   0  0  0  0  0  1  0  0  0  0  0  0
  190.1560  177.5470  147.7200 N   0  0  0  0  0  2  0  0  0  0  0  0
  188.0860  177.5920  146.4620 C   0  0  0  0  0  1  0  0  0  0  0  0
  188.1190  177.7630  148.8310 O   0  0  0  0  0  1  0  0  0  0  0  0
  188.7560  177.1530  147.7480 C   0  0  2  0  0  3  0  0  0  0  0  0
  2  3  2  0  0  0  0
  2 25  1  0  0  0  0
  3  1  2  0  0  0  0
  6  9  2  0  0  0  0
  7  1  1  6  0  0  0
  7  8  1  0  0  0  0
  8  5  2  0  0  0  0
  9  7  1  0  0  0  0
  9 10  1  0  0  0  0
 10  4  1  0  0  0  0
 10  5  1  0  0  0  0
 11 14  1  0  0  0  0
 12  2  1  0  0  0  0
 13 12  2  0  0  0  0
 14 12  1  0  0  0  0
 15 16  1  1  0  0  0
 15 11  1  0  0  0  0
 15 13  1  0  0  0  0
 16 19  1  0  0  0  0
 17 23  1  0  0  0  0
 17 22  1  0  0  0  0
 18 22  2  0  0  0  0
 19 18  1  0  0  0  0
 20 21  1  0  0  0  0
 20 19  2  0  0  0  0
 21 17  2  0  0  0  0
 23 24  1  0  0  0  0
 25 26  1  0  0  0  0
 26 27  1  0  0  0  0
 28 31  1  6  0  0  0
 29 27  1  1  0  0  0
 29 30  1  0  0  0  0
 29 28  1  0  0  0  0
 30 28  1  0  0  0  0
 31 32  1  0  0  0  0
 33 32  1  6  0  0  0
 33 34  1  0  0  0  0
 33 36  1  0  0  0  0
 34 35  1  0  0  0  0
 36 39  1  0  0  0  0
 39 37  1  6  0  0  0
 39 38  1  0  0  0  0
M  END
>  <MODEL>
7

>  <REMARK>
 VINA RESULT:      -7.4      4.470      8.151
  Name = 
  15 active torsions:
  status: ('A' for Active; 'I' for Inactive)
    1  A    between atoms: C_1  and  C_24
    2  A    between atoms: C_2  and  C_15
    3  A    between atoms: C_2  and  C_17
    4  A    between atoms: C_4  and  CA_30
    5  A    between atoms: C_4  and  C_32
    6  A    between atoms: C_5  and  O_7
    7  A    between atoms: C_6  and  C_32
    8  A    between atoms: C_8  and  C_21
    9  A    between atoms: C_8  and  C_39
   10  A    between atoms: C_11  and  C_15
   11  A    between atoms: C_11  and  C_35
   12  A    between atoms: C_14  and  CA_30
   13  A    between atoms: C_18  and  C_35
   14  A    between atoms: C_22  and  N_27
   15  A    between atoms: N_27  and  CA_30
                            x       y       z     vdW  Elec       q    Type
                         _______ _______ _______ _____ _____    ______ ____

>  <TORSDO>
F 15

$$$$
=
 OpenBabel11032420263D

 39 42  0  0  1  0  0  0  0  0999 V2000
  188.2220  178.3580  141.6780 C   0  0  0  0  0  3  0  0  0  0  0  0
  185.6760  178.7700  142.0800 C   0  0  0  0  0  0  0  0  0  0  0  0
  186.9500  178.5670  141.8780 C   0  0  0  0  0  0  0  0  0  0  0  0
  192.3790  177.2390  139.8940 C   0  0  0  0  0  1  0  0  0  0  0  0
  190.1380  177.9110  138.8480 C   0  0  0  0  0  3  0  0  0  0  0  0
  190.5440  176.4590  142.0570 O   0  0  0  0  0  0  0  0  0  0  0  0
  188.6780  177.2780  140.7540 C   0  0  1  0  0  3  0  0  0  0  0  0
  188.6750  177.7860  139.3030 C   0  0  0  0  0  3  0  0  0  0  0  0
  190.1040  176.9790  140.9970 C   0  0  0  0  0  0  0  0  0  0  0  0
  190.9300  177.3280  139.9100 N   0  0  0  0  0  0  0  0  0  0  0  0
  183.6650  179.0270  145.1670 C   0  0  0  0  0  2  0  0  0  0  0  0
  185.1610  178.9000  143.4530 C   0  0  0  0  0  0  0  0  0  0  0  0
  185.9280  179.0480  144.4770 N   0  0  0  0  0  0  0  0  0  0  0  0
  183.8170  178.8710  143.7690 O   0  0  0  0  0  0  0  0  0  0  0  0
  185.1080  179.1410  145.6780 C   0  0  2  0  0  3  0  0  0  0  0  0
  185.4390  177.9810  146.6080 C   0  0  0  0  0  2  0  0  0  0  0  0
  189.6790  177.4360  147.0340 C   0  0  0  0  0  0  0  0  0  0  0  0
  187.5360  178.0710  147.9750 C   0  0  0  0  0  3  0  0  0  0  0  0
  186.9130  177.8070  146.7510 C   0  0  0  0  0  0  0  0  0  0  0  0
  187.6700  177.3470  145.6690 C   0  0  0  0  0  3  0  0  0  0  0  0
  189.0480  177.1640  145.8070 C   0  0  0  0  0  3  0  0  0  0  0  0
  188.9150  177.8900  148.1140 C   0  0  0  0  0  3  0  0  0  0  0  0
  191.0560  177.2670  147.2030 O   0  0  0  0  0  0  0  0  0  0  0  0
  191.7020  176.0140  147.0300 C   0  0  0  0  0  1  0  0  0  0  0  0
  184.7800  178.9670  140.9010 C   0  0  0  0  0  2  0  0  0  0  0  0
  183.9860  177.6990  140.6270 C   0  0  0  0  0  2  0  0  0  0  0  0
  182.8790  177.9680  139.6230 C   0  0  0  0  0  2  0  0  0  0  0  0
  181.4110  179.6750  138.6620 C   0  0  1  0  0  3  0  0  0  0  0  0
  182.5850  179.4550  139.5340 C   0  0  1  0  0  3  0  0  0  0  0  0
  181.3060  179.7000  140.0640 O   0  0  0  0  0  0  0  0  0  0  0  0
  181.4220  181.1010  138.1450 C   0  0  0  0  0  2  0  0  0  0  0  0
  180.0320  181.7240  138.2450 C   0  0  0  0  0  2  0  0  0  0  0  0
  179.8280  182.9180  137.3070 C   0  0  1  0  0  3  0  0  0  0  0  0
  178.9910  182.5560  136.0850 C   0  0  0  0  0  2  0  0  0  0  0  0
  179.4430  181.3540  135.5380 O   0  0  0  0  0  1  0  0  0  0  0  0
  179.2270  184.0380  138.0220 N   0  0  0  0  0  2  0  0  0  0  0  0
  181.3560  185.0260  137.4210 C   0  0  0  0  0  1  0  0  0  0  0  0
  179.6410  186.2860  138.4760 O   0  0  0  0  0  1  0  0  0  0  0  0
  179.8650  185.2590  137.5560 C   0  0  2  0  0  3  0  0  0  0  0  0
  1  3  2  0  0  0  0
  2 12  1  0  0  0  0
  3  2  2  0  0  0  0
  4 10  1  0  0  0  0
  5  8  2  0  0  0  0
  5 10  1  0  0  0  0
  7  9  1  0  0  0  0
  7  1  1  1  0  0  0
  8  7  1  0  0  0  0
  9  6  2  0  0  0  0
 10  9  1  0  0  0  0
 11 15  1  0  0  0  0
 12 14  1  0  0  0  0
 12 13  2  0  0  0  0
 13 15  1  0  0  0  0
 14 11  1  0  0  0  0
 15 16  1  1  0  0  0
 16 19  1  0  0  0  0
 17 23  1  0  0  0  0
 17 22  1  0  0  0  0
 18 22  2  0  0  0  0
 19 18  1  0  0  0  0
 20 21  1  0  0  0  0
 20 19  2  0  0  0  0
 21 17  2  0  0  0  0
 24 23  1  0  0  0  0
 25  2  1  0  0  0  0
 26 25  1  0  0  0  0
 27 26  1  0  0  0  0
 28 31  1  6  0  0  0
 28 29  1  0  0  0  0
 28 30  1  0  0  0  0
 29 27  1  1  0  0  0
 29 30  1  0  0  0  0
 31 32  1  0  0  0  0
 33 34  1  6  0  0  0
 33 36  1  0  0  0  0
 33 32  1  0  0  0  0
 35 34  1  0  0  0  0
 39 37  1  1  0  0  0
 39 36  1  0  0  0  0
 39 38  1  0  0  0  0
M  END
>  <MODEL>
8

>  <REMARK>
 VINA RESULT:      -7.4      4.064     10.417
  Name = 
  15 active torsions:
  status: ('A' for Active; 'I' for Inactive)
    1  A    between atoms: C_1  and  C_24
    2  A    between atoms: C_2  and  C_15
    3  A    between atoms: C_2  and  C_17
    4  A    between atoms: C_4  and  CA_30
    5  A    between atoms: C_4  and  C_32
    6  A    between atoms: C_5  and  O_7
    7  A    between atoms: C_6  and  C_32
    8  A    between atoms: C_8  and  C_21
    9  A    between atoms: C_8  and  C_39
   10  A    between atoms: C_11  and  C_15
   11  A    between atoms: C_11  and  C_35
   12  A    between atoms: C_14  and  CA_30
   13  A    between atoms: C_18  and  C_35
   14  A    between atoms: C_22  and  N_27
   15  A    between atoms: N_27  and  CA_30
                            x       y       z     vdW  Elec       q    Type
                         _______ _______ _______ _____ _____    ______ ____

>  <TORSDO>
F 15

$$$$
=
 OpenBabel11032420263D

 39 42  0  0  1  0  0  0  0  0999 V2000
  189.1370  178.4140  142.1860 C   0  0  0  0  0  3  0  0  0  0  0  0
  187.9460  178.0320  139.8960 C   0  0  0  0  0  0  0  0  0  0  0  0
  188.5430  178.2250  141.0400 C   0  0  0  0  0  0  0  0  0  0  0  0
  189.8790  177.1790  146.6180 C   0  0  0  0  0  1  0  0  0  0  0  0
  191.4290  177.9060  144.7100 C   0  0  0  0  0  3  0  0  0  0  0  0
  188.2190  176.4560  144.2990 O   0  0  0  0  0  0  0  0  0  0  0  0
  189.9280  177.3180  142.8200 C   0  0  1  0  0  3  0  0  0  0  0  0
  191.3360  177.8210  143.1780 C   0  0  0  0  0  3  0  0  0  0  0  0
  189.3520  176.9840  144.1390 C   0  0  0  0  0  0  0  0  0  0  0  0
  190.2100  177.3070  145.2090 N   0  0  0  0  0  0  0  0  0  0  0  0
  184.5050  178.7030  138.7340 C   0  0  0  0  0  2  0  0  0  0  0  0
  186.5340  178.4170  139.7290 C   0  0  0  0  0  0  0  0  0  0  0  0
  185.8440  178.9710  140.6650 N   0  0  0  0  0  0  0  0  0  0  0  0
  185.8230  178.2180  138.5620 O   0  0  0  0  0  0  0  0  0  0  0  0
  184.4930  179.2180  140.1800 C   0  0  2  0  0  3  0  0  0  0  0  0
  183.5000  178.4260  141.0200 C   0  0  0  0  0  2  0  0  0  0  0  0
  184.4170  178.7960  145.2020 C   0  0  0  0  0  0  0  0  0  0  0  0
  185.0950  178.2280  142.9430 C   0  0  0  0  0  3  0  0  0  0  0  0
  183.8140  178.5390  142.4740 C   0  0  0  0  0  0  0  0  0  0  0  0
  182.8360  178.9890  143.3670 C   0  0  0  0  0  3  0  0  0  0  0  0
  183.1340  179.1150  144.7250 C   0  0  0  0  0  3  0  0  0  0  0  0
  185.3940  178.3520  144.3020 C   0  0  0  0  0  3  0  0  0  0  0  0
  184.7460  178.9080  146.5560 O   0  0  0  0  0  0  0  0  0  0  0  0
  186.0520  178.6530  147.0510 C   0  0  0  0  0  1  0  0  0  0  0  0
  188.7420  177.5130  138.7430 C   0  0  0  0  0  2  0  0  0  0  0  0
  189.3690  178.6670  137.9770 C   0  0  0  0  0  2  0  0  0  0  0  0
  188.6880  178.8480  136.6320 C   0  0  0  0  0  2  0  0  0  0  0  0
  187.0180  177.7060  135.2540 C   0  0  1  0  0  3  0  0  0  0  0  0
  188.2320  177.5120  136.0760 C   0  0  1  0  0  3  0  0  0  0  0  0
  188.2900  177.5570  134.6720 O   0  0  0  0  0  0  0  0  0  0  0  0
  186.2680  176.3930  135.1370 C   0  0  0  0  0  2  0  0  0  0  0  0
  184.8660  176.5150  135.7290 C   0  0  0  0  0  2  0  0  0  0  0  0
  184.4970  175.3650  136.6710 C   0  0  1  0  0  3  0  0  0  0  0  0
  182.9890  175.2220  136.8450 C   0  0  0  0  0  2  0  0  0  0  0  0
  182.5880  173.9380  136.4740 O   0  0  0  0  0  1  0  0  0  0  0  0
  185.0760  174.1110  136.2020 N   0  0  0  0  0  2  0  0  0  0  0  0
  186.9930  172.6790  136.5850 C   0  0  0  0  0  1  0  0  0  0  0  0
  185.3120  172.9930  138.2330 O   0  0  0  0  0  1  0  0  0  0  0  0
  186.0110  173.6450  137.2150 C   0  0  2  0  0  3  0  0  0  0  0  0
  2  3  2  0  0  0  0
  3  1  2  0  0  0  0
  5 10  1  0  0  0  0
  7  1  1  1  0  0  0
  7  8  1  0  0  0  0
  7  9  1  0  0  0  0
  8  5  2  0  0  0  0
  9  6  2  0  0  0  0
  9 10  1  0  0  0  0
 10  4  1  0  0  0  0
 11 15  1  0  0  0  0
 12  2  1  0  0  0  0
 12 13  2  0  0  0  0
 14 11  1  0  0  0  0
 14 12  1  0  0  0  0
 15 13  1  0  0  0  0
 15 16  1  1  0  0  0
 16 19  1  0  0  0  0
 17 23  1  0  0  0  0
 18 22  1  0  0  0  0
 19 18  2  0  0  0  0
 19 20  1  0  0  0  0
 20 21  2  0  0  0  0
 21 17  1  0  0  0  0
 22 17  2  0  0  0  0
 23 24  1  0  0  0  0
 25  2  1  0  0  0  0
 26 25  1  0  0  0  0
 27 26  1  0  0  0  0
 28 31  1  6  0  0  0
 28 29  1  0  0  0  0
 29 27  1  1  0  0  0
 30 28  1  0  0  0  0
 30 29  1  0  0  0  0
 31 32  1  0  0  0  0
 33 32  1  6  0  0  0
 33 34  1  0  0  0  0
 35 34  1  0  0  0  0
 36 33  1  0  0  0  0
 36 39  1  0  0  0  0
 39 37  1  6  0  0  0
 39 38  1  0  0  0  0
M  END
>  <MODEL>
9

>  <REMARK>
 VINA RESULT:      -7.4      4.237      5.591
  Name = 
  15 active torsions:
  status: ('A' for Active; 'I' for Inactive)
    1  A    between atoms: C_1  and  C_24
    2  A    between atoms: C_2  and  C_15
    3  A    between atoms: C_2  and  C_17
    4  A    between atoms: C_4  and  CA_30
    5  A    between atoms: C_4  and  C_32
    6  A    between atoms: C_5  and  O_7
    7  A    between atoms: C_6  and  C_32
    8  A    between atoms: C_8  and  C_21
    9  A    between atoms: C_8  and  C_39
   10  A    between atoms: C_11  and  C_15
   11  A    between atoms: C_11  and  C_35
   12  A    between atoms: C_14  and  CA_30
   13  A    between atoms: C_18  and  C_35
   14  A    between atoms: C_22  and  N_27
   15  A    between atoms: N_27  and  CA_30
                            x       y       z     vdW  Elec       q    Type
                         _______ _______ _______ _____ _____    ______ ____

>  <TORSDO>
F 15

$$$$
