=
 OpenBabel11032419183D

 25 26  0  0  1  0  0  0  0  0999 V2000
  188.2370  177.4530  143.3550 C   0  0  0  0  0  0  0  0  0  0  0  0
  188.0230  177.1100  142.0730 C   0  0  0  0  0  3  0  0  0  0  0  0
  189.5800  177.6980  143.9170 C   0  0  0  0  0  0  0  0  0  0  0  0
  190.1670  176.7810  144.7990 C   0  0  0  0  0  3  0  0  0  0  0  0
  191.9570  176.2370  146.1350 O   0  0  0  0  0  0  0  0  0  0  0  0
  191.4930  179.1440  144.2150 C   0  0  0  0  0  3  0  0  0  0  0  0
  190.2440  178.8980  143.6390 C   0  0  0  0  0  2  0  0  0  0  0  0
  192.0500  178.2260  145.0500 N   0  0  0  0  0  0  0  0  0  0  0  0
  191.4170  177.0620  145.3530 C   0  0  0  0  0  0  0  0  0  0  0  0
  190.8150  176.6360  139.8990 C   0  0  0  0  0  3  0  0  0  0  0  0
  189.0240  177.0700  140.9930 C   0  0  0  0  0  0  0  0  0  0  0  0
  190.0720  177.4680  139.0710 C   0  0  0  0  0  3  0  0  0  0  0  0
  190.1650  176.4260  141.0250 O   0  0  0  0  0  0  0  0  0  0  0  0
  187.8520  178.5560  139.3730 N   0  0  0  0  0  1  0  0  0  0  0  0
  188.9330  177.7330  139.7970 C   0  0  0  0  0  0  0  0  0  0  0  0
  187.0670  177.5160  144.3020 C   0  0  1  0  0  3  0  0  0  0  0  0
  187.5100  177.7180  146.7920 C   0  0  0  0  0  0  0  0  0  0  0  0
  187.3760  178.3020  145.4940 N   0  0  0  0  0  2  0  0  0  0  0  0
  187.3230  176.4840  146.9640 O   0  0  0  0  0  0  0  0  0  0  0  0
  187.8370  178.5830  147.9580 C   0  0  0  0  0  2  0  0  0  0  0  0
  189.2270  178.2590  148.4660 C   0  0  0  0  0  1  0  0  0  0  0  0
  184.8110  178.5350  144.6340 C   0  0  0  0  0  1  0  0  0  0  0  0
  185.8090  178.0350  143.6040 C   0  0  1  0  0  3  0  0  0  0  0  0
  186.1180  179.0620  142.7050 O   0  0  0  0  0  0  0  0  0  0  0  0
  185.0290  179.1170  141.8340 C   0  0  0  0  0  1  0  0  0  0  0  0
  1  3  1  0  0  0  0
  2  1  2  0  0  0  0
  3  4  2  0  0  0  0
  4  9  1  0  0  0  0
  6  8  2  0  0  0  0
  7  3  1  0  0  0  0
  7  6  1  0  0  0  0
  8  9  1  0  0  0  0
  9  5  2  0  0  0  0
 10 13  1  0  0  0  0
 11 13  1  0  0  0  0
 11  2  1  0  0  0  0
 12 15  1  0  0  0  0
 12 10  2  0  0  0  0
 14 15  1  0  0  0  0
 15 11  2  0  0  0  0
 16  1  1  6  0  0  0
 16 18  1  0  0  0  0
 17 19  2  0  0  0  0
 17 20  1  0  0  0  0
 18 17  1  0  0  0  0
 20 21  1  0  0  0  0
 23 16  1  0  0  0  0
 23 22  1  1  0  0  0
 24 23  1  0  0  0  0
 25 24  1  0  0  0  0
M  END
>  <MODEL>
1

>  <REMARK>
 VINA RESULT:      -6.7      0.000      0.000
  Name = 
  7 active torsions:
  status: ('A' for Active; 'I' for Inactive)
    1  A    between atoms: C_1  and  C_2
    2  A    between atoms: C_2  and  C_6
    3  A    between atoms: C_3  and  C_4
    4  A    between atoms: N_5  and  C_6
    5  A    between atoms: C_6  and  C_19
    6  A    between atoms: O_7  and  C_19
    7  A    between atoms: C_9  and  C_20
                            x       y       z     vdW  Elec       q    Type
                         _______ _______ _______ _____ _____    ______ ____

>  <TORSDO>
F 7

$$$$
=
 OpenBabel11032419183D

 25 26  0  0  1  0  0  0  0  0999 V2000
  187.7210  177.7660  141.8450 C   0  0  0  0  0  0  0  0  0  0  0  0
  186.5910  178.0870  142.4980 C   0  0  0  0  0  3  0  0  0  0  0  0
  188.9960  177.4620  142.5280 C   0  0  0  0  0  0  0  0  0  0  0  0
  189.8180  178.4930  143.0030 C   0  0  0  0  0  3  0  0  0  0  0  0
  191.7780  179.0970  144.0410 O   0  0  0  0  0  0  0  0  0  0  0  0
  190.6640  175.8630  143.2320 C   0  0  0  0  0  3  0  0  0  0  0  0
  189.4350  176.1370  142.6280 C   0  0  0  0  0  2  0  0  0  0  0  0
  191.4330  176.8810  143.7040 N   0  0  0  0  0  0  0  0  0  0  0  0
  191.0390  178.1780  143.6000 C   0  0  0  0  0  0  0  0  0  0  0  0
  186.5310  177.4820  146.0150 C   0  0  0  0  0  3  0  0  0  0  0  0
  186.3720  178.0440  143.9540 C   0  0  0  0  0  0  0  0  0  0  0  0
  185.5260  178.4410  145.9730 C   0  0  0  0  0  3  0  0  0  0  0  0
  187.0030  177.2730  144.8040 O   0  0  0  0  0  0  0  0  0  0  0  0
  184.5430  179.7310  144.0830 N   0  0  0  0  0  1  0  0  0  0  0  0
  185.4430  178.7800  144.6420 C   0  0  0  0  0  0  0  0  0  0  0  0
  187.7310  177.7920  140.3390 C   0  0  1  0  0  3  0  0  0  0  0  0
  185.8620  178.1430  138.6590 C   0  0  0  0  0  0  0  0  0  0  0  0
  186.6100  178.5620  139.8030 N   0  0  0  0  0  2  0  0  0  0  0  0
  186.1750  177.0940  138.0360 O   0  0  0  0  0  0  0  0  0  0  0  0
  184.7270  178.9750  138.1780 C   0  0  0  0  0  2  0  0  0  0  0  0
  183.9230  179.4830  139.3590 C   0  0  0  0  0  1  0  0  0  0  0  0
  189.8440  177.1610  139.1650 C   0  0  0  0  0  1  0  0  0  0  0  0
  189.0670  178.3030  139.7960 C   0  0  1  0  0  3  0  0  0  0  0  0
  188.8730  179.3210  138.8560 O   0  0  0  0  0  0  0  0  0  0  0  0
  189.3030  178.7790  137.6450 C   0  0  0  0  0  1  0  0  0  0  0  0
  1  2  2  0  0  0  0
  1  3  1  0  0  0  0
  2 11  1  0  0  0  0
  3  7  1  0  0  0  0
  3  4  2  0  0  0  0
  4  9  1  0  0  0  0
  6  8  2  0  0  0  0
  7  6  1  0  0  0  0
  9  8  1  0  0  0  0
  9  5  2  0  0  0  0
 11 15  2  0  0  0  0
 11 13  1  0  0  0  0
 12 10  2  0  0  0  0
 13 10  1  0  0  0  0
 14 15  1  0  0  0  0
 15 12  1  0  0  0  0
 16 18  1  1  0  0  0
 16  1  1  0  0  0  0
 17 18  1  0  0  0  0
 19 17  2  0  0  0  0
 20 17  1  0  0  0  0
 20 21  1  0  0  0  0
 23 22  1  6  0  0  0
 23 16  1  0  0  0  0
 24 23  1  0  0  0  0
 25 24  1  0  0  0  0
M  END
>  <MODEL>
2

>  <REMARK>
 VINA RESULT:      -6.6      2.293      5.846
  Name = 
  7 active torsions:
  status: ('A' for Active; 'I' for Inactive)
    1  A    between atoms: C_1  and  C_2
    2  A    between atoms: C_2  and  C_6
    3  A    between atoms: C_3  and  C_4
    4  A    between atoms: N_5  and  C_6
    5  A    between atoms: C_6  and  C_19
    6  A    between atoms: O_7  and  C_19
    7  A    between atoms: C_9  and  C_20
                            x       y       z     vdW  Elec       q    Type
                         _______ _______ _______ _____ _____    ______ ____

>  <TORSDO>
F 7

$$$$
=
 OpenBabel11032419183D

 25 26  0  0  1  0  0  0  0  0999 V2000
  187.0790  177.7780  143.7660 C   0  0  0  0  0  0  0  0  0  0  0  0
  186.5740  178.0450  144.9830 C   0  0  0  0  0  3  0  0  0  0  0  0
  188.4820  177.3750  143.5400 C   0  0  0  0  0  0  0  0  0  0  0  0
  189.5220  178.3090  143.6430 C   0  0  0  0  0  3  0  0  0  0  0  0
  191.7740  178.7410  143.4800 O   0  0  0  0  0  0  0  0  0  0  0  0
  190.1000  175.7110  142.8730 C   0  0  0  0  0  3  0  0  0  0  0  0
  188.7760  176.0690  143.1320 C   0  0  0  0  0  2  0  0  0  0  0  0
  191.0940  176.6310  143.0020 N   0  0  0  0  0  0  0  0  0  0  0  0
  190.8330  177.9120  143.3760 C   0  0  0  0  0  0  0  0  0  0  0  0
  188.5510  177.0680  147.7900 C   0  0  0  0  0  3  0  0  0  0  0  0
  187.2440  177.8420  146.2790 C   0  0  0  0  0  0  0  0  0  0  0  0
  187.7530  178.0030  148.4390 C   0  0  0  0  0  3  0  0  0  0  0  0
  188.2190  177.0000  146.5170 O   0  0  0  0  0  0  0  0  0  0  0  0
  185.9100  179.4630  147.6210 N   0  0  0  0  0  1  0  0  0  0  0  0
  186.9240  178.4790  147.4500 C   0  0  0  0  0  0  0  0  0  0  0  0
  186.2090  177.9730  142.5520 C   0  0  1  0  0  3  0  0  0  0  0  0
  183.7020  178.2210  142.2520 C   0  0  0  0  0  0  0  0  0  0  0  0
  184.9260  178.5810  142.8970 N   0  0  0  0  0  2  0  0  0  0  0  0
  183.6930  177.3770  141.3170 O   0  0  0  0  0  0  0  0  0  0  0  0
  182.4320  178.8770  142.6650 C   0  0  0  0  0  2  0  0  0  0  0  0
  182.2770  178.7990  144.1710 C   0  0  0  0  0  1  0  0  0  0  0  0
  187.7330  177.8430  140.5770 C   0  0  0  0  0  1  0  0  0  0  0  0
  186.9320  178.7760  141.4690 C   0  0  1  0  0  3  0  0  0  0  0  0
  186.0260  179.5090  140.6960 O   0  0  0  0  0  0  0  0  0  0  0  0
  185.9500  178.8240  139.4830 C   0  0  0  0  0  1  0  0  0  0  0  0
  1  2  2  0  0  0  0
  2 11  1  0  0  0  0
  3  4  2  0  0  0  0
  3  1  1  0  0  0  0
  6  8  2  0  0  0  0
  6  7  1  0  0  0  0
  7  3  1  0  0  0  0
  8  9  1  0  0  0  0
  9  5  2  0  0  0  0
  9  4  1  0  0  0  0
 10 12  2  0  0  0  0
 11 13  1  0  0  0  0
 11 15  2  0  0  0  0
 13 10  1  0  0  0  0
 15 14  1  0  0  0  0
 15 12  1  0  0  0  0
 16 18  1  1  0  0  0
 16  1  1  0  0  0  0
 17 20  1  0  0  0  0
 17 18  1  0  0  0  0
 19 17  2  0  0  0  0
 20 21  1  0  0  0  0
 23 22  1  6  0  0  0
 23 16  1  0  0  0  0
 24 23  1  0  0  0  0
 25 24  1  0  0  0  0
M  END
>  <MODEL>
3

>  <REMARK>
 VINA RESULT:      -6.6      2.175      5.285
  Name = 
  7 active torsions:
  status: ('A' for Active; 'I' for Inactive)
    1  A    between atoms: C_1  and  C_2
    2  A    between atoms: C_2  and  C_6
    3  A    between atoms: C_3  and  C_4
    4  A    between atoms: N_5  and  C_6
    5  A    between atoms: C_6  and  C_19
    6  A    between atoms: O_7  and  C_19
    7  A    between atoms: C_9  and  C_20
                            x       y       z     vdW  Elec       q    Type
                         _______ _______ _______ _____ _____    ______ ____

>  <TORSDO>
F 7

$$$$
=
 OpenBabel11032419183D

 25 26  0  0  1  0  0  0  0  0999 V2000
  187.5100  177.8810  142.5480 C   0  0  0  0  0  0  0  0  0  0  0  0
  187.1850  178.1220  141.2660 C   0  0  0  0  0  3  0  0  0  0  0  0
  188.8410  177.4010  142.9720 C   0  0  0  0  0  0  0  0  0  0  0  0
  189.8260  178.3010  143.3990 C   0  0  0  0  0  3  0  0  0  0  0  0
  191.9770  178.6240  144.1430 O   0  0  0  0  0  0  0  0  0  0  0  0
  190.4340  175.6030  143.2250 C   0  0  0  0  0  3  0  0  0  0  0  0
  189.1570  176.0410  142.8680 C   0  0  0  0  0  2  0  0  0  0  0  0
  191.3660  176.4950  143.6570 N   0  0  0  0  0  0  0  0  0  0  0  0
  191.0900  177.8240  143.7470 C   0  0  0  0  0  0  0  0  0  0  0  0
  189.8880  178.0440  138.9360 C   0  0  0  0  0  3  0  0  0  0  0  0
  188.0960  178.1080  140.1080 C   0  0  0  0  0  0  0  0  0  0  0  0
  188.8570  178.2190  138.0200 C   0  0  0  0  0  3  0  0  0  0  0  0
  189.3990  177.9860  140.1580 O   0  0  0  0  0  0  0  0  0  0  0  0
  186.3930  178.4330  138.3190 N   0  0  0  0  0  1  0  0  0  0  0  0
  187.7230  178.2600  138.7990 C   0  0  0  0  0  0  0  0  0  0  0  0
  186.4530  178.0230  143.6120 C   0  0  1  0  0  3  0  0  0  0  0  0
  186.6160  177.8370  146.1370 C   0  0  0  0  0  0  0  0  0  0  0  0
  187.0260  178.4170  144.8970 N   0  0  0  0  0  2  0  0  0  0  0  0
  185.6980  176.9750  146.1700 O   0  0  0  0  0  0  0  0  0  0  0  0
  187.2540  178.2830  147.4040 C   0  0  0  0  0  2  0  0  0  0  0  0
  188.6590  177.7220  147.5000 C   0  0  0  0  0  1  0  0  0  0  0  0
  184.2030  178.2130  142.5430 C   0  0  0  0  0  1  0  0  0  0  0  0
  185.3470  178.9860  143.1770 C   0  0  1  0  0  3  0  0  0  0  0  0
  184.8720  179.7310  144.2620 O   0  0  0  0  0  0  0  0  0  0  0  0
  183.5510  179.3170  144.4320 C   0  0  0  0  0  1  0  0  0  0  0  0
  1  3  1  0  0  0  0
  2  1  2  0  0  0  0
  3  4  2  0  0  0  0
  4  9  1  0  0  0  0
  6  8  2  0  0  0  0
  7  3  1  0  0  0  0
  7  6  1  0  0  0  0
  8  9  1  0  0  0  0
  9  5  2  0  0  0  0
 10 13  1  0  0  0  0
 11 13  1  0  0  0  0
 11  2  1  0  0  0  0
 12 15  1  0  0  0  0
 12 10  2  0  0  0  0
 14 15  1  0  0  0  0
 15 11  2  0  0  0  0
 16  1  1  6  0  0  0
 16 18  1  0  0  0  0
 17 19  2  0  0  0  0
 17 20  1  0  0  0  0
 18 17  1  0  0  0  0
 20 21  1  0  0  0  0
 23 22  1  1  0  0  0
 23 16  1  0  0  0  0
 23 24  1  0  0  0  0
 24 25  1  0  0  0  0
M  END
>  <MODEL>
4

>  <REMARK>
 VINA RESULT:      -6.5      1.558      2.001
  Name = 
  7 active torsions:
  status: ('A' for Active; 'I' for Inactive)
    1  A    between atoms: C_1  and  C_2
    2  A    between atoms: C_2  and  C_6
    3  A    between atoms: C_3  and  C_4
    4  A    between atoms: N_5  and  C_6
    5  A    between atoms: C_6  and  C_19
    6  A    between atoms: O_7  and  C_19
    7  A    between atoms: C_9  and  C_20
                            x       y       z     vdW  Elec       q    Type
                         _______ _______ _______ _____ _____    ______ ____

>  <TORSDO>
F 7

$$$$
=
 OpenBabel11032419183D

 25 26  0  0  1  0  0  0  0  0999 V2000
  188.1940  177.9260  143.2020 C   0  0  0  0  0  0  0  0  0  0  0  0
  187.9290  177.6190  141.9200 C   0  0  0  0  0  3  0  0  0  0  0  0
  189.5530  177.8930  143.7810 C   0  0  0  0  0  0  0  0  0  0  0  0
  190.0230  176.7500  144.4420 C   0  0  0  0  0  3  0  0  0  0  0  0
  191.7270  175.7380  145.6060 O   0  0  0  0  0  0  0  0  0  0  0  0
  191.6170  179.0150  144.3410 C   0  0  0  0  0  3  0  0  0  0  0  0
  190.3530  179.0400  143.7480 C   0  0  0  0  0  2  0  0  0  0  0  0
  192.0580  177.8860  144.9580 N   0  0  0  0  0  0  0  0  0  0  0  0
  191.2930  176.7650  145.0220 C   0  0  0  0  0  0  0  0  0  0  0  0
  190.6650  176.6710  139.8330 C   0  0  0  0  0  3  0  0  0  0  0  0
  188.9130  177.3600  140.8540 C   0  0  0  0  0  0  0  0  0  0  0  0
  189.9530  177.3990  138.8880 C   0  0  0  0  0  3  0  0  0  0  0  0
  190.0210  176.6730  140.9820 O   0  0  0  0  0  0  0  0  0  0  0  0
  187.7930  178.6300  139.0270 N   0  0  0  0  0  1  0  0  0  0  0  0
  188.8380  177.8300  139.5690 C   0  0  0  0  0  0  0  0  0  0  0  0
  187.0520  178.2410  144.1320 C   0  0  1  0  0  3  0  0  0  0  0  0
  184.7370  178.9720  143.3930 C   0  0  0  0  0  0  0  0  0  0  0  0
  185.7570  177.9770  143.5080 N   0  0  0  0  0  2  0  0  0  0  0  0
  184.9090  180.1260  143.8700 O   0  0  0  0  0  0  0  0  0  0  0  0
  183.4470  178.6310  142.7360 C   0  0  0  0  0  2  0  0  0  0  0  0
  182.2920  179.0020  143.6440 C   0  0  0  0  0  1  0  0  0  0  0  0
  187.9160  178.3700  146.4720 C   0  0  0  0  0  1  0  0  0  0  0  0
  187.1910  177.4980  145.4610 C   0  0  1  0  0  3  0  0  0  0  0  0
  185.9400  177.1280  145.9660 O   0  0  0  0  0  0  0  0  0  0  0  0
  185.6220  178.1150  146.8990 C   0  0  0  0  0  1  0  0  0  0  0  0
  1  3  1  0  0  0  0
  2  1  2  0  0  0  0
  3  4  2  0  0  0  0
  4  9  1  0  0  0  0
  6  8  2  0  0  0  0
  7  3  1  0  0  0  0
  7  6  1  0  0  0  0
  8  9  1  0  0  0  0
  9  5  2  0  0  0  0
 10 13  1  0  0  0  0
 11 13  1  0  0  0  0
 11  2  1  0  0  0  0
 12 15  1  0  0  0  0
 12 10  2  0  0  0  0
 14 15  1  0  0  0  0
 15 11  2  0  0  0  0
 16  1  1  6  0  0  0
 16 23  1  0  0  0  0
 17 18  1  0  0  0  0
 17 19  2  0  0  0  0
 18 16  1  0  0  0  0
 20 17  1  0  0  0  0
 20 21  1  0  0  0  0
 23 24  1  0  0  0  0
 23 22  1  1  0  0  0
 24 25  1  0  0  0  0
M  END
>  <MODEL>
5

>  <REMARK>
 VINA RESULT:      -6.2      1.189      3.082
  Name = 
  7 active torsions:
  status: ('A' for Active; 'I' for Inactive)
    1  A    between atoms: C_1  and  C_2
    2  A    between atoms: C_2  and  C_6
    3  A    between atoms: C_3  and  C_4
    4  A    between atoms: N_5  and  C_6
    5  A    between atoms: C_6  and  C_19
    6  A    between atoms: O_7  and  C_19
    7  A    between atoms: C_9  and  C_20
                            x       y       z     vdW  Elec       q    Type
                         _______ _______ _______ _____ _____    ______ ____

>  <TORSDO>
F 7

$$$$
=
 OpenBabel11032419183D

 25 26  0  0  1  0  0  0  0  0999 V2000
  188.8770  177.6730  140.9870 C   0  0  0  0  0  0  0  0  0  0  0  0
  187.5920  177.9990  141.2080 C   0  0  0  0  0  3  0  0  0  0  0  0
  189.8460  177.4100  142.0700 C   0  0  0  0  0  0  0  0  0  0  0  0
  190.5190  178.4650  142.7020 C   0  0  0  0  0  3  0  0  0  0  0  0
  192.0640  179.1270  144.2700 O   0  0  0  0  0  0  0  0  0  0  0  0
  191.1200  175.8530  143.4080 C   0  0  0  0  0  3  0  0  0  0  0  0
  190.1660  176.0930  142.4160 C   0  0  0  0  0  2  0  0  0  0  0  0
  191.7420  176.8960  144.0210 N   0  0  0  0  0  0  0  0  0  0  0  0
  191.4650  178.1850  143.6890 C   0  0  0  0  0  0  0  0  0  0  0  0
  186.4070  177.5870  144.5490 C   0  0  0  0  0  3  0  0  0  0  0  0
  186.8940  178.0020  142.5050 C   0  0  0  0  0  0  0  0  0  0  0  0
  185.3610  178.3690  144.0750 C   0  0  0  0  0  3  0  0  0  0  0  0
  187.2910  177.3890  143.5920 O   0  0  0  0  0  0  0  0  0  0  0  0
  184.9280  179.3810  141.8410 N   0  0  0  0  0  1  0  0  0  0  0  0
  185.6970  178.6170  142.7640 C   0  0  0  0  0  0  0  0  0  0  0  0
  189.3950  177.6480  139.5720 C   0  0  1  0  0  3  0  0  0  0  0  0
  190.9390  176.0470  138.3510 C   0  0  0  0  0  0  0  0  0  0  0  0
  189.7900  176.3020  139.1630 N   0  0  0  0  0  2  0  0  0  0  0  0
  191.6440  176.9980  137.9180 O   0  0  0  0  0  0  0  0  0  0  0  0
  191.2830  174.6480  137.9830 C   0  0  0  0  0  2  0  0  0  0  0  0
  192.7330  174.5710  137.5480 C   0  0  0  0  0  1  0  0  0  0  0  0
  189.1010  179.1380  137.5890 C   0  0  0  0  0  1  0  0  0  0  0  0
  188.3860  178.2530  138.5960 C   0  0  1  0  0  3  0  0  0  0  0  0
  187.6710  177.2540  137.9260 O   0  0  0  0  0  0  0  0  0  0  0  0
  186.4740  177.8610  137.5470 C   0  0  0  0  0  1  0  0  0  0  0  0
  1  2  2  0  0  0  0
  1  3  1  0  0  0  0
  2 11  1  0  0  0  0
  3  7  1  0  0  0  0
  3  4  2  0  0  0  0
  4  9  1  0  0  0  0
  6  8  2  0  0  0  0
  7  6  1  0  0  0  0
  9  8  1  0  0  0  0
  9  5  2  0  0  0  0
 11 15  2  0  0  0  0
 11 13  1  0  0  0  0
 12 10  2  0  0  0  0
 13 10  1  0  0  0  0
 14 15  1  0  0  0  0
 15 12  1  0  0  0  0
 16 18  1  6  0  0  0
 16  1  1  0  0  0  0
 17 18  1  0  0  0  0
 19 17  2  0  0  0  0
 20 17  1  0  0  0  0
 21 20  1  0  0  0  0
 23 22  1  6  0  0  0
 23 16  1  0  0  0  0
 24 23  1  0  0  0  0
 25 24  1  0  0  0  0
M  END
>  <MODEL>
6

>  <REMARK>
 VINA RESULT:      -6.2      2.392      5.981
  Name = 
  7 active torsions:
  status: ('A' for Active; 'I' for Inactive)
    1  A    between atoms: C_1  and  C_2
    2  A    between atoms: C_2  and  C_6
    3  A    between atoms: C_3  and  C_4
    4  A    between atoms: N_5  and  C_6
    5  A    between atoms: C_6  and  C_19
    6  A    between atoms: O_7  and  C_19
    7  A    between atoms: C_9  and  C_20
                            x       y       z     vdW  Elec       q    Type
                         _______ _______ _______ _____ _____    ______ ____

>  <TORSDO>
F 7

$$$$
=
 OpenBabel11032419183D

 25 26  0  0  1  0  0  0  0  0999 V2000
  189.1310  177.8390  140.4080 C   0  0  0  0  0  0  0  0  0  0  0  0
  188.3020  177.9830  141.4560 C   0  0  0  0  0  3  0  0  0  0  0  0
  188.6820  177.8970  139.0020 C   0  0  0  0  0  0  0  0  0  0  0  0
  187.9550  176.8410  138.4360 C   0  0  0  0  0  3  0  0  0  0  0  0
  186.9220  175.9640  136.5800 O   0  0  0  0  0  0  0  0  0  0  0  0
  188.6680  179.0010  136.8540 C   0  0  0  0  0  3  0  0  0  0  0  0
  189.0560  178.9780  138.1950 C   0  0  0  0  0  2  0  0  0  0  0  0
  187.9450  177.9730  136.3350 N   0  0  0  0  0  0  0  0  0  0  0  0
  187.5860  176.9020  137.0920 C   0  0  0  0  0  0  0  0  0  0  0  0
  185.0030  179.1190  140.6990 C   0  0  0  0  0  3  0  0  0  0  0  0
  186.8810  178.3690  141.4080 C   0  0  0  0  0  0  0  0  0  0  0  0
  184.7830  178.7740  142.0280 C   0  0  0  0  0  3  0  0  0  0  0  0
  186.2540  178.8680  140.3720 O   0  0  0  0  0  0  0  0  0  0  0  0
  186.2910  177.8260  143.7670 N   0  0  0  0  0  1  0  0  0  0  0  0
  186.0010  178.3010  142.4570 C   0  0  0  0  0  0  0  0  0  0  0  0
  190.5820  177.5180  140.6590 C   0  0  1  0  0  3  0  0  0  0  0  0
  191.2890  177.0210  143.0450 C   0  0  0  0  0  0  0  0  0  0  0  0
  190.7470  176.6060  141.7890 N   0  0  0  0  0  2  0  0  0  0  0  0
  191.6870  178.2050  143.2130 O   0  0  0  0  0  0  0  0  0  0  0  0
  191.4170  176.0370  144.1530 C   0  0  0  0  0  2  0  0  0  0  0  0
  191.3600  176.7520  145.4880 C   0  0  0  0  0  1  0  0  0  0  0  0
  192.7670  177.1290  139.5150 C   0  0  0  0  0  1  0  0  0  0  0  0
  191.2610  176.9740  139.4010 C   0  0  1  0  0  3  0  0  0  0  0  0
  190.9370  175.6280  139.1950 O   0  0  0  0  0  0  0  0  0  0  0  0
  191.2930  175.3720  137.8710 C   0  0  0  0  0  1  0  0  0  0  0  0
  1  2  2  0  0  0  0
  3  1  1  0  0  0  0
  4  3  2  0  0  0  0
  5  9  2  0  0  0  0
  6  7  1  0  0  0  0
  7  3  1  0  0  0  0
  8  6  2  0  0  0  0
  8  9  1  0  0  0  0
  9  4  1  0  0  0  0
 10 12  2  0  0  0  0
 11  2  1  0  0  0  0
 11 15  2  0  0  0  0
 12 15  1  0  0  0  0
 13 10  1  0  0  0  0
 13 11  1  0  0  0  0
 15 14  1  0  0  0  0
 16  1  1  6  0  0  0
 16 18  1  0  0  0  0
 17 19  2  0  0  0  0
 17 20  1  0  0  0  0
 18 17  1  0  0  0  0
 20 21  1  0  0  0  0
 23 22  1  1  0  0  0
 23 16  1  0  0  0  0
 24 23  1  0  0  0  0
 25 24  1  0  0  0  0
M  END
>  <MODEL>
7

>  <REMARK>
 VINA RESULT:      -6.2      2.694      6.439
  Name = 
  7 active torsions:
  status: ('A' for Active; 'I' for Inactive)
    1  A    between atoms: C_1  and  C_2
    2  A    between atoms: C_2  and  C_6
    3  A    between atoms: C_3  and  C_4
    4  A    between atoms: N_5  and  C_6
    5  A    between atoms: C_6  and  C_19
    6  A    between atoms: O_7  and  C_19
    7  A    between atoms: C_9  and  C_20
                            x       y       z     vdW  Elec       q    Type
                         _______ _______ _______ _____ _____    ______ ____

>  <TORSDO>
F 7

$$$$
=
 OpenBabel11032419183D

 25 26  0  0  1  0  0  0  0  0999 V2000
  187.5610  177.9980  143.6860 C   0  0  0  0  0  0  0  0  0  0  0  0
  186.8770  178.1670  144.8310 C   0  0  0  0  0  3  0  0  0  0  0  0
  188.9850  177.6060  143.6410 C   0  0  0  0  0  0  0  0  0  0  0  0
  189.9960  178.5520  143.8580 C   0  0  0  0  0  3  0  0  0  0  0  0
  192.2470  179.0030  143.9670 O   0  0  0  0  0  0  0  0  0  0  0  0
  190.6860  175.9480  143.2040 C   0  0  0  0  0  3  0  0  0  0  0  0
  189.3370  176.2970  143.2920 C   0  0  0  0  0  2  0  0  0  0  0  0
  191.6490  176.8800  143.4410 N   0  0  0  0  0  0  0  0  0  0  0  0
  191.3330  178.1630  143.7610 C   0  0  0  0  0  0  0  0  0  0  0  0
  188.4370  176.9720  147.8100 C   0  0  0  0  0  3  0  0  0  0  0  0
  187.3460  177.8540  146.1920 C   0  0  0  0  0  0  0  0  0  0  0  0
  187.5030  177.8080  148.4110 C   0  0  0  0  0  3  0  0  0  0  0  0
  188.3110  177.0240  146.5000 O   0  0  0  0  0  0  0  0  0  0  0  0
  185.7420  179.2850  147.4520 N   0  0  0  0  0  1  0  0  0  0  0  0
  186.8170  178.3570  147.3520 C   0  0  0  0  0  0  0  0  0  0  0  0
  186.8830  178.2980  142.3750 C   0  0  1  0  0  3  0  0  0  0  0  0
  188.3030  178.0720  140.2850 C   0  0  0  0  0  0  0  0  0  0  0  0
  187.4460  177.5100  141.2800 N   0  0  0  0  0  2  0  0  0  0  0  0
  188.5790  179.3010  140.2940 O   0  0  0  0  0  0  0  0  0  0  0  0
  188.8460  177.2030  139.2060 C   0  0  0  0  0  2  0  0  0  0  0  0
  190.2620  176.7810  139.5470 C   0  0  0  0  0  1  0  0  0  0  0  0
  184.7320  179.3420  143.0980 C   0  0  0  0  0  1  0  0  0  0  0  0
  185.3680  178.1130  142.4730 C   0  0  1  0  0  3  0  0  0  0  0  0
  184.8070  177.8770  141.2130 O   0  0  0  0  0  0  0  0  0  0  0  0
  183.4700  178.2570  141.3380 C   0  0  0  0  0  1  0  0  0  0  0  0
  1  2  2  0  0  0  0
  2 11  1  0  0  0  0
  3  1  1  0  0  0  0
  3  4  2  0  0  0  0
  6  7  1  0  0  0  0
  6  8  2  0  0  0  0
  7  3  1  0  0  0  0
  8  9  1  0  0  0  0
  9  4  1  0  0  0  0
  9  5  2  0  0  0  0
 10 12  2  0  0  0  0
 11 13  1  0  0  0  0
 11 15  2  0  0  0  0
 13 10  1  0  0  0  0
 15 14  1  0  0  0  0
 15 12  1  0  0  0  0
 16 18  1  6  0  0  0
 16 23  1  0  0  0  0
 16  1  1  0  0  0  0
 17 19  2  0  0  0  0
 17 18  1  0  0  0  0
 20 21  1  0  0  0  0
 20 17  1  0  0  0  0
 23 22  1  6  0  0  0
 24 25  1  0  0  0  0
 24 23  1  0  0  0  0
M  END
>  <MODEL>
8

>  <REMARK>
 VINA RESULT:      -6.2      1.726      5.329
  Name = 
  7 active torsions:
  status: ('A' for Active; 'I' for Inactive)
    1  A    between atoms: C_1  and  C_2
    2  A    between atoms: C_2  and  C_6
    3  A    between atoms: C_3  and  C_4
    4  A    between atoms: N_5  and  C_6
    5  A    between atoms: C_6  and  C_19
    6  A    between atoms: O_7  and  C_19
    7  A    between atoms: C_9  and  C_20
                            x       y       z     vdW  Elec       q    Type
                         _______ _______ _______ _____ _____    ______ ____

>  <TORSDO>
F 7

$$$$
=
 OpenBabel11032419183D

 25 26  0  0  1  0  0  0  0  0999 V2000
  188.1000  178.0970  141.2030 C   0  0  0  0  0  0  0  0  0  0  0  0
  186.8500  178.3550  141.6240 C   0  0  0  0  0  3  0  0  0  0  0  0
  188.4610  177.9390  139.7790 C   0  0  0  0  0  0  0  0  0  0  0  0
  188.3040  176.7060  139.1320 C   0  0  0  0  0  2  0  0  0  0  0  0
  188.5500  175.4730  137.2080 O   0  0  0  0  0  0  0  0  0  0  0  0
  189.4310  178.8310  137.7550 C   0  0  0  0  0  3  0  0  0  0  0  0
  189.0480  179.0040  139.0860 C   0  0  0  0  0  3  0  0  0  0  0  0
  189.2480  177.6300  137.1430 N   0  0  0  0  0  0  0  0  0  0  0  0
  188.7000  176.5730  137.8000 C   0  0  0  0  0  0  0  0  0  0  0  0
  184.4940  179.2450  139.0940 C   0  0  0  0  0  3  0  0  0  0  0  0
  185.6840  178.6730  140.7820 C   0  0  0  0  0  0  0  0  0  0  0  0
  183.5920  179.0730  140.1380 C   0  0  0  0  0  3  0  0  0  0  0  0
  185.7190  179.0030  139.5140 O   0  0  0  0  0  0  0  0  0  0  0  0
  183.9170  178.4280  142.5210 N   0  0  0  0  0  1  0  0  0  0  0  0
  184.3810  178.7110  141.2050 C   0  0  0  0  0  0  0  0  0  0  0  0
  189.1860  177.8730  142.2230 C   0  0  1  0  0  3  0  0  0  0  0  0
  189.1740  177.9450  144.7590 C   0  0  0  0  0  0  0  0  0  0  0  0
  188.6390  177.4770  143.5190 N   0  0  0  0  0  2  0  0  0  0  0  0
  190.1810  178.7020  144.7800 O   0  0  0  0  0  0  0  0  0  0  0  0
  188.5560  177.5050  146.0390 C   0  0  0  0  0  2  0  0  0  0  0  0
  187.0770  177.8370  146.0390 C   0  0  0  0  0  1  0  0  0  0  0  0
  191.6130  177.4710  141.7910 C   0  0  0  0  0  1  0  0  0  0  0  0
  190.2220  176.8640  141.7240 C   0  0  1  0  0  3  0  0  0  0  0  0
  190.1820  175.6860  142.4770 O   0  0  0  0  0  0  0  0  0  0  0  0
  191.3640  175.6920  143.2180 C   0  0  0  0  0  1  0  0  0  0  0  0
  1  2  2  0  0  0  0
  3  1  1  0  0  0  0
  4  3  1  0  0  0  0
  5  9  2  0  0  0  0
  6  7  1  0  0  0  0
  7  3  2  0  0  0  0
  8  6  2  0  0  0  0
  8  9  1  0  0  0  0
  9  4  1  0  0  0  0
 10 13  1  0  0  0  0
 10 12  2  0  0  0  0
 11 15  2  0  0  0  0
 11  2  1  0  0  0  0
 12 15  1  0  0  0  0
 13 11  1  0  0  0  0
 15 14  1  0  0  0  0
 16  1  1  6  0  0  0
 16 18  1  0  0  0  0
 17 19  2  0  0  0  0
 17 20  1  0  0  0  0
 18 17  1  0  0  0  0
 20 21  1  0  0  0  0
 23 22  1  1  0  0  0
 23 16  1  0  0  0  0
 23 24  1  0  0  0  0
 24 25  1  0  0  0  0
M  END
>  <MODEL>
9

>  <REMARK>
 VINA RESULT:      -6.2      2.306      5.514
  Name = 
  7 active torsions:
  status: ('A' for Active; 'I' for Inactive)
    1  A    between atoms: C_1  and  C_2
    2  A    between atoms: C_2  and  C_6
    3  A    between atoms: C_3  and  C_4
    4  A    between atoms: N_5  and  C_6
    5  A    between atoms: C_6  and  C_19
    6  A    between atoms: O_7  and  C_19
    7  A    between atoms: C_9  and  C_20
                            x       y       z     vdW  Elec       q    Type
                         _______ _______ _______ _____ _____    ______ ____

>  <TORSDO>
F 7

$$$$
