=
 OpenBabel11042409513D

 33 38  0  0  1  0  0  0  0  0999 V2000
  185.9880  178.4280  144.0520 C   0  0  0  0  0  0  0  0  0  0  0  0
  184.2540  178.4720  145.7630 C   0  0  0  0  0  3  0  0  0  0  0  0
  185.3920  178.6700  141.7070 C   0  0  0  0  0  0  0  0  0  0  0  0
  182.2000  178.8420  143.7480 C   0  0  0  0  0  3  0  0  0  0  0  0
  180.8150  179.2360  140.4620 O   0  0  0  0  0  0  0  0  0  0  0  0
  185.7580  178.7320  140.4010 N   0  0  0  0  0  0  0  0  0  0  0  0
  186.3560  178.4940  142.6980 C   0  0  0  0  0  3  0  0  0  0  0  0
  183.6390  178.7200  143.4090 C   0  0  0  0  0  0  0  0  0  0  0  0
  184.8280  178.9030  139.4230 C   0  0  0  0  0  3  0  0  0  0  0  0
  181.6660  179.0790  141.3780 C   0  0  0  0  0  0  0  0  0  0  0  0
  184.6170  178.5420  144.4110 C   0  0  0  0  0  0  0  0  0  0  0  0
  184.0370  178.7820  142.0610 C   0  0  0  0  0  0  0  0  0  0  0  0
  186.5670  178.1810  146.3980 C   0  0  0  0  0  3  0  0  0  0  0  0
  186.9650  178.2520  145.0550 C   0  0  0  0  0  0  0  0  0  0  0  0
  185.2230  178.2920  146.7500 C   0  0  0  0  0  3  0  0  0  0  0  0
  181.2600  179.0100  142.8100 C   0  0  0  0  0  0  0  0  0  0  0  0
  183.5110  179.0140  139.7420 N   0  0  0  0  0  0  0  0  0  0  0  0
  183.0960  178.9580  141.0360 C   0  0  0  0  0  0  0  0  0  0  0  0
  179.4150  178.5920  144.4010 C   0  0  0  0  0  2  0  0  0  0  0  0
  179.8630  179.1190  143.2690 C   0  0  0  0  0  3  0  0  0  0  0  0
  189.2580  177.5720  145.8550 C   0  0  0  0  0  1  0  0  0  0  0  0
  188.4220  178.1080  144.6970 C   0  0  1  0  0  3  0  0  0  0  0  0
  189.8810  177.2770  141.6160 N   0  0  0  0  0  0  0  0  0  0  0  0
  189.2480  178.1600  142.4310 O   0  0  0  0  0  0  0  0  0  0  0  0
  189.4940  176.0920  143.5590 C   0  0  0  0  0  2  0  0  0  0  0  0
  190.2210  176.0210  142.2500 C   0  0  0  0  0  2  0  0  0  0  0  0
  188.6320  177.3390  143.3900 C   0  0  1  0  0  3  0  0  0  0  0  0
  188.9860  178.5400  138.2030 C   0  0  0  0  0  3  0  0  0  0  0  0
  189.7420  177.6850  137.3970 C   0  0  0  0  0  3  0  0  0  0  0  0
  190.5870  176.5690  139.3720 C   0  0  0  0  0  3  0  0  0  0  0  0
  190.5420  176.7000  137.9810 C   0  0  0  0  0  3  0  0  0  0  0  0
  189.8340  177.4240  140.1900 C   0  0  0  0  0  0  0  0  0  0  0  0
  189.0310  178.4090  139.5940 C   0  0  0  0  0  3  0  0  0  0  0  0
  1 11  1  0  0  0  0
  1 14  2  0  0  0  0
  2 15  1  0  0  0  0
  3 12  1  0  0  0  0
  3  7  2  0  0  0  0
  5 10  2  0  0  0  0
  6  3  1  0  0  0  0
  7  1  1  0  0  0  0
  8  4  1  0  0  0  0
  8 11  1  0  0  0  0
  9 17  1  0  0  0  0
  9  6  2  0  0  0  0
 10 16  1  0  0  0  0
 11  2  2  0  0  0  0
 12  8  2  0  0  0  0
 13 15  2  0  0  0  0
 14 13  1  0  0  0  0
 16 20  1  0  0  0  0
 16  4  2  0  0  0  0
 17 18  2  0  0  0  0
 18 10  1  0  0  0  0
 18 12  1  0  0  0  0
 20 19  2  0  0  0  0
 22 14  1  0  0  0  0
 22 21  1  1  0  0  0
 23 26  1  0  0  0  0
 23 24  1  0  0  0  0
 24 27  1  0  0  0  0
 26 25  1  0  0  0  0
 27 25  1  0  0  0  0
 27 22  1  1  0  0  0
 28 33  1  0  0  0  0
 29 31  1  0  0  0  0
 29 28  2  0  0  0  0
 30 32  1  0  0  0  0
 31 30  2  0  0  0  0
 32 23  1  0  0  0  0
 33 32  2  0  0  0  0
M  END
>  <MODEL>
1

>  <REMARK>
 VINA RESULT:     -11.0      0.000      0.000
  Name = 
  4 active torsions:
  status: ('A' for Active; 'I' for Inactive)
    1  A    between atoms: N_2  and  C_19
    2  A    between atoms: C_23  and  C_33
    3  A    between atoms: C_25  and  C_33
    4  A    between atoms: C_27  and  C_28
                            x       y       z     vdW  Elec       q    Type
                         _______ _______ _______ _____ _____    ______ ____

>  <TORSDO>
F 4

$$$$
=
 OpenBabel11042409513D

 33 38  0  0  1  0  0  0  0  0999 V2000
  185.0670  178.2710  142.7160 C   0  0  0  0  0  0  0  0  0  0  0  0
  184.1630  178.5380  144.9640 C   0  0  0  0  0  3  0  0  0  0  0  0
  187.3970  177.6520  142.4050 C   0  0  0  0  0  0  0  0  0  0  0  0
  186.7330  177.8700  146.1340 C   0  0  0  0  0  3  0  0  0  0  0  0
  190.2010  176.9560  146.2100 O   0  0  0  0  0  0  0  0  0  0  0  0
  188.4390  177.3680  141.5820 N   0  0  0  0  0  0  0  0  0  0  0  0
  186.1500  177.9750  141.8740 C   0  0  0  0  0  3  0  0  0  0  0  0
  186.5080  177.9120  144.6670 C   0  0  0  0  0  0  0  0  0  0  0  0
  189.6610  177.0510  142.0870 C   0  0  0  0  0  3  0  0  0  0  0  0
  189.0630  177.2500  145.7550 C   0  0  0  0  0  0  0  0  0  0  0  0
  185.2470  178.2390  144.1260 C   0  0  0  0  0  0  0  0  0  0  0  0
  187.5770  177.6200  143.7990 C   0  0  0  0  0  0  0  0  0  0  0  0
  182.7420  178.8960  143.0430 C   0  0  0  0  0  3  0  0  0  0  0  0
  183.8040  178.5960  142.1760 C   0  0  0  0  0  0  0  0  0  0  0  0
  182.9190  178.8660  144.4250 C   0  0  0  0  0  3  0  0  0  0  0  0
  187.9230  177.5620  146.6620 C   0  0  0  0  0  0  0  0  0  0  0  0
  189.8590  177.0140  143.4330 N   0  0  0  0  0  0  0  0  0  0  0  0
  188.8460  177.2910  144.2970 C   0  0  0  0  0  0  0  0  0  0  0  0
  188.7750  178.3960  148.8280 C   0  0  0  0  0  2  0  0  0  0  0  0
  188.0230  177.5530  148.1330 C   0  0  0  0  0  3  0  0  0  0  0  0
  183.3630  177.2800  140.0720 C   0  0  0  0  0  1  0  0  0  0  0  0
  183.5940  178.6570  140.6850 C   0  0  1  0  0  3  0  0  0  0  0  0
  181.5440  180.5440  138.5530 N   0  0  0  0  0  0  0  0  0  0  0  0
  182.7720  180.1530  138.9800 O   0  0  0  0  0  0  0  0  0  0  0  0
  181.1130  179.1320  140.3270 C   0  0  0  0  0  2  0  0  0  0  0  0
  180.4430  179.8690  139.2070 C   0  0  0  0  0  2  0  0  0  0  0  0
  182.5340  179.6860  140.2830 C   0  0  1  0  0  3  0  0  0  0  0  0
  181.8840  184.1340  137.5310 C   0  0  0  0  0  3  0  0  0  0  0  0
  180.9980  184.1880  136.4520 C   0  0  0  0  0  3  0  0  0  0  0  0
  180.4790  181.8440  136.7600 C   0  0  0  0  0  3  0  0  0  0  0  0
  180.2960  183.0430  136.0660 C   0  0  0  0  0  3  0  0  0  0  0  0
  181.3680  181.7780  137.8430 C   0  0  0  0  0  0  0  0  0  0  0  0
  182.0670  182.9340  138.2250 C   0  0  0  0  0  3  0  0  0  0  0  0
  1 11  1  0  0  0  0
  3 12  1  0  0  0  0
  4 16  2  0  0  0  0
  6  9  2  0  0  0  0
  6  3  1  0  0  0  0
  7  3  2  0  0  0  0
  7  1  1  0  0  0  0
  8  4  1  0  0  0  0
  9 17  1  0  0  0  0
 10  5  2  0  0  0  0
 10 16  1  0  0  0  0
 11  8  1  0  0  0  0
 11  2  2  0  0  0  0
 12 18  1  0  0  0  0
 12  8  2  0  0  0  0
 13 15  2  0  0  0  0
 14  1  2  0  0  0  0
 14 13  1  0  0  0  0
 15  2  1  0  0  0  0
 16 20  1  0  0  0  0
 17 18  2  0  0  0  0
 18 10  1  0  0  0  0
 20 19  2  0  0  0  0
 22 21  1  1  0  0  0
 22 14  1  0  0  0  0
 23 24  1  0  0  0  0
 23 26  1  0  0  0  0
 24 27  1  0  0  0  0
 26 25  1  0  0  0  0
 27 25  1  0  0  0  0
 27 22  1  6  0  0  0
 28 33  1  0  0  0  0
 29 28  2  0  0  0  0
 30 32  1  0  0  0  0
 31 29  1  0  0  0  0
 31 30  2  0  0  0  0
 32 33  2  0  0  0  0
 32 23  1  0  0  0  0
M  END
>  <MODEL>
2

>  <REMARK>
 VINA RESULT:     -10.9      2.969      7.600
  Name = 
  4 active torsions:
  status: ('A' for Active; 'I' for Inactive)
    1  A    between atoms: N_2  and  C_19
    2  A    between atoms: C_23  and  C_33
    3  A    between atoms: C_25  and  C_33
    4  A    between atoms: C_27  and  C_28
                            x       y       z     vdW  Elec       q    Type
                         _______ _______ _______ _____ _____    ______ ____

>  <TORSDO>
F 4

$$$$
=
 OpenBabel11042409513D

 33 38  0  0  1  0  0  0  0  0999 V2000
  188.0660  177.7480  141.6330 C   0  0  0  0  0  0  0  0  0  0  0  0
  189.8200  177.0580  143.1790 C   0  0  0  0  0  3  0  0  0  0  0  0
  185.8970  178.4420  142.4840 C   0  0  0  0  0  0  0  0  0  0  0  0
  188.0770  177.5280  145.4500 C   0  0  0  0  0  3  0  0  0  0  0  0
  185.0800  178.4540  147.1910 O   0  0  0  0  0  0  0  0  0  0  0  0
  184.6330  178.8850  142.2610 N   0  0  0  0  0  0  0  0  0  0  0  0
  186.7580  178.2080  141.4130 C   0  0  0  0  0  3  0  0  0  0  0  0
  187.6440  177.7560  144.0490 C   0  0  0  0  0  0  0  0  0  0  0  0
  183.7820  179.1180  143.2950 C   0  0  0  0  0  3  0  0  0  0  0  0
  185.8780  178.2350  146.2410 C   0  0  0  0  0  0  0  0  0  0  0  0
  188.5140  177.5200  142.9640 C   0  0  0  0  0  0  0  0  0  0  0  0
  186.3370  178.2160  143.7990 C   0  0  0  0  0  0  0  0  0  0  0  0
  190.2370  177.0450  140.7980 C   0  0  0  0  0  3  0  0  0  0  0  0
  188.9380  177.5130  140.5480 C   0  0  0  0  0  0  0  0  0  0  0  0
  190.6750  176.8210  142.1030 C   0  0  0  0  0  3  0  0  0  0  0  0
  187.2640  177.7470  146.4900 C   0  0  0  0  0  0  0  0  0  0  0  0
  184.1870  178.9070  144.5770 N   0  0  0  0  0  0  0  0  0  0  0  0
  185.4430  178.4630  144.8500 C   0  0  0  0  0  0  0  0  0  0  0  0
  188.7930  178.1840  148.3830 C   0  0  0  0  0  2  0  0  0  0  0  0
  187.8080  177.4840  147.8350 C   0  0  0  0  0  3  0  0  0  0  0  0
  189.1790  178.9070  138.4610 C   0  0  0  0  0  1  0  0  0  0  0  0
  188.4790  177.7280  139.1290 C   0  0  1  0  0  3  0  0  0  0  0  0
  187.4900  175.3880  136.7090 N   0  0  0  0  0  0  0  0  0  0  0  0
  187.2430  176.1140  137.8300 O   0  0  0  0  0  0  0  0  0  0  0  0
  189.4500  176.5460  137.0870 C   0  0  0  0  0  2  0  0  0  0  0  0
  188.7580  175.6820  136.0760 C   0  0  0  0  0  2  0  0  0  0  0  0
  188.5270  176.4440  138.2970 C   0  0  1  0  0  3  0  0  0  0  0  0
  186.2820  172.2780  135.0020 C   0  0  0  0  0  3  0  0  0  0  0  0
  185.3140  171.8370  135.9080 C   0  0  0  0  0  3  0  0  0  0  0  0
  185.7850  173.7330  137.3360 C   0  0  0  0  0  3  0  0  0  0  0  0
  185.0650  172.5640  137.0740 C   0  0  0  0  0  3  0  0  0  0  0  0
  186.7620  174.1830  136.4350 C   0  0  0  0  0  0  0  0  0  0  0  0
  187.0020  173.4470  135.2640 C   0  0  0  0  0  3  0  0  0  0  0  0
  1 11  1  0  0  0  0
  3 12  1  0  0  0  0
  4 16  2  0  0  0  0
  6  3  2  0  0  0  0
  6  9  1  0  0  0  0
  7  1  2  0  0  0  0
  7  3  1  0  0  0  0
  8  4  1  0  0  0  0
  9 17  2  0  0  0  0
 10 16  1  0  0  0  0
 10  5  2  0  0  0  0
 11  2  1  0  0  0  0
 11  8  2  0  0  0  0
 12  8  1  0  0  0  0
 12 18  2  0  0  0  0
 13 15  1  0  0  0  0
 14 13  2  0  0  0  0
 14  1  1  0  0  0  0
 15  2  2  0  0  0  0
 16 20  1  0  0  0  0
 17 18  1  0  0  0  0
 18 10  1  0  0  0  0
 20 19  2  0  0  0  0
 22 21  1  6  0  0  0
 22 14  1  0  0  0  0
 23 24  1  0  0  0  0
 24 27  1  0  0  0  0
 25 27  1  0  0  0  0
 26 23  1  0  0  0  0
 26 25  1  0  0  0  0
 27 22  1  6  0  0  0
 28 33  2  0  0  0  0
 28 29  1  0  0  0  0
 29 31  2  0  0  0  0
 31 30  1  0  0  0  0
 32 23  1  0  0  0  0
 32 30  2  0  0  0  0
 33 32  1  0  0  0  0
M  END
>  <MODEL>
3

>  <REMARK>
 VINA RESULT:     -10.8      3.445      6.058
  Name = 
  4 active torsions:
  status: ('A' for Active; 'I' for Inactive)
    1  A    between atoms: N_2  and  C_19
    2  A    between atoms: C_23  and  C_33
    3  A    between atoms: C_25  and  C_33
    4  A    between atoms: C_27  and  C_28
                            x       y       z     vdW  Elec       q    Type
                         _______ _______ _______ _____ _____    ______ ____

>  <TORSDO>
F 4

$$$$
=
 OpenBabel11042409513D

 33 38  0  0  1  0  0  0  0  0999 V2000
  189.1520  177.6680  141.2210 C   0  0  0  0  0  0  0  0  0  0  0  0
  191.4440  177.1990  141.9040 C   0  0  0  0  0  3  0  0  0  0  0  0
  187.3910  177.8220  142.8900 C   0  0  0  0  0  0  0  0  0  0  0  0
  190.6460  177.0820  144.6910 C   0  0  0  0  0  3  0  0  0  0  0  0
  188.4320  177.2070  147.5110 O   0  0  0  0  0  0  0  0  0  0  0  0
  186.0860  178.0200  143.2070 N   0  0  0  0  0  0  0  0  0  0  0  0
  187.8050  177.8730  141.5600 C   0  0  0  0  0  3  0  0  0  0  0  0
  189.6840  177.3540  143.5940 C   0  0  0  0  0  0  0  0  0  0  0  0
  185.6670  177.9730  144.5000 C   0  0  0  0  0  3  0  0  0  0  0  0
  188.8330  177.2490  146.3170 C   0  0  0  0  0  0  0  0  0  0  0  0
  190.1010  177.4060  142.2480 C   0  0  0  0  0  0  0  0  0  0  0  0
  188.3270  177.5620  143.9050 C   0  0  0  0  0  0  0  0  0  0  0  0
  190.9220  177.5040  139.5650 C   0  0  0  0  0  3  0  0  0  0  0  0
  189.5710  177.7220  139.8740 C   0  0  0  0  0  0  0  0  0  0  0  0
  191.8520  177.2470  140.5710 C   0  0  0  0  0  3  0  0  0  0  0  0
  190.2660  177.0290  145.9730 C   0  0  0  0  0  0  0  0  0  0  0  0
  186.5550  177.7240  145.5000 N   0  0  0  0  0  0  0  0  0  0  0  0
  187.8730  177.5190  145.2310 C   0  0  0  0  0  0  0  0  0  0  0  0
  192.0540  175.6510  146.9830 C   0  0  0  0  0  2  0  0  0  0  0  0
  191.3130  176.7520  146.9730 C   0  0  0  0  0  3  0  0  0  0  0  0
  189.0560  179.0520  137.7950 C   0  0  0  0  0  1  0  0  0  0  0  0
  188.5810  177.9770  138.7670 C   0  0  1  0  0  3  0  0  0  0  0  0
  186.5530  175.8710  136.8270 N   0  0  0  0  0  0  0  0  0  0  0  0
  186.7370  176.6880  137.8960 O   0  0  0  0  0  0  0  0  0  0  0  0
  188.7740  176.4870  136.7060 C   0  0  0  0  0  2  0  0  0  0  0  0
  187.6920  175.7890  135.9380 C   0  0  0  0  0  2  0  0  0  0  0  0
  188.1310  176.6890  138.0740 C   0  0  1  0  0  3  0  0  0  0  0  0
  183.2020  174.2560  136.3790 C   0  0  0  0  0  3  0  0  0  0  0  0
  183.4690  172.9600  136.8300 C   0  0  0  0  0  3  0  0  0  0  0  0
  185.7640  173.5870  137.2730 C   0  0  0  0  0  3  0  0  0  0  0  0
  184.7490  172.6260  137.2760 C   0  0  0  0  0  3  0  0  0  0  0  0
  185.5070  174.8900  136.8200 C   0  0  0  0  0  0  0  0  0  0  0  0
  184.2160  175.2170  136.3760 C   0  0  0  0  0  3  0  0  0  0  0  0
  1  7  2  0  0  0  0
  1 11  1  0  0  0  0
  2 11  1  0  0  0  0
  3  6  2  0  0  0  0
  3 12  1  0  0  0  0
  4 16  2  0  0  0  0
  6  9  1  0  0  0  0
  7  3  1  0  0  0  0
  8 12  1  0  0  0  0
  8  4  1  0  0  0  0
  9 17  2  0  0  0  0
 10  5  2  0  0  0  0
 11  8  2  0  0  0  0
 12 18  2  0  0  0  0
 13 14  2  0  0  0  0
 13 15  1  0  0  0  0
 14  1  1  0  0  0  0
 15  2  2  0  0  0  0
 16 10  1  0  0  0  0
 16 20  1  0  0  0  0
 18 17  1  0  0  0  0
 18 10  1  0  0  0  0
 20 19  2  0  0  0  0
 22 21  1  6  0  0  0
 22 14  1  0  0  0  0
 23 24  1  0  0  0  0
 24 27  1  0  0  0  0
 25 27  1  0  0  0  0
 26 25  1  0  0  0  0
 26 23  1  0  0  0  0
 27 22  1  6  0  0  0
 28 29  1  0  0  0  0
 29 31  2  0  0  0  0
 30 31  1  0  0  0  0
 32 23  1  0  0  0  0
 32 30  2  0  0  0  0
 33 28  2  0  0  0  0
 33 32  1  0  0  0  0
M  END
>  <MODEL>
4

>  <REMARK>
 VINA RESULT:     -10.6      3.373      7.307
  Name = 
  4 active torsions:
  status: ('A' for Active; 'I' for Inactive)
    1  A    between atoms: N_2  and  C_19
    2  A    between atoms: C_23  and  C_33
    3  A    between atoms: C_25  and  C_33
    4  A    between atoms: C_27  and  C_28
                            x       y       z     vdW  Elec       q    Type
                         _______ _______ _______ _____ _____    ______ ____

>  <TORSDO>
F 4

$$$$
=
 OpenBabel11042409513D

 33 38  0  0  1  0  0  0  0  0999 V2000
  183.8480  178.6790  141.7300 C   0  0  0  0  0  0  0  0  0  0  0  0
  183.2970  178.5520  144.1010 C   0  0  0  0  0  3  0  0  0  0  0  0
  186.1550  178.4390  141.0020 C   0  0  0  0  0  0  0  0  0  0  0  0
  186.0850  178.1250  144.7810 C   0  0  0  0  0  3  0  0  0  0  0  0
  189.6050  177.7110  144.2260 O   0  0  0  0  0  0  0  0  0  0  0  0
  187.0760  178.4040  140.0040 N   0  0  0  0  0  0  0  0  0  0  0  0
  184.8080  178.6400  140.7070 C   0  0  0  0  0  3  0  0  0  0  0  0
  185.6210  178.3050  143.3830 C   0  0  0  0  0  0  0  0  0  0  0  0
  188.3940  178.2070  140.2780 C   0  0  0  0  0  3  0  0  0  0  0  0
  188.3810  177.8910  143.9850 C   0  0  0  0  0  0  0  0  0  0  0  0
  184.2580  178.5090  143.0820 C   0  0  0  0  0  0  0  0  0  0  0  0
  186.5620  178.2710  142.3360 C   0  0  0  0  0  0  0  0  0  0  0  0
  181.5490  178.9250  142.4750 C   0  0  0  0  0  3  0  0  0  0  0  0
  182.4840  178.8820  141.4300 C   0  0  0  0  0  0  0  0  0  0  0  0
  181.9510  178.7590  143.8000 C   0  0  0  0  0  3  0  0  0  0  0  0
  187.3740  177.9300  145.0830 C   0  0  0  0  0  0  0  0  0  0  0  0
  188.8100  178.0430  141.5620 N   0  0  0  0  0  0  0  0  0  0  0  0
  187.9260  178.0700  142.5940 C   0  0  0  0  0  0  0  0  0  0  0  0
  186.9620  178.2180  147.5040 C   0  0  0  0  0  2  0  0  0  0  0  0
  187.7120  177.7640  146.5090 C   0  0  0  0  0  3  0  0  0  0  0  0
  181.5560  177.7900  139.3560 C   0  0  0  0  0  1  0  0  0  0  0  0
  182.0280  179.0850  140.0080 C   0  0  1  0  0  3  0  0  0  0  0  0
  180.1600  181.5930  138.4180 N   0  0  0  0  0  0  0  0  0  0  0  0
  181.3500  181.0400  138.7670 O   0  0  0  0  0  0  0  0  0  0  0  0
  179.5880  179.7570  139.6950 C   0  0  0  0  0  2  0  0  0  0  0  0
  179.0040  180.8120  138.8040 C   0  0  0  0  0  2  0  0  0  0  0  0
  181.0260  180.2340  139.8720 C   0  0  1  0  0  3  0  0  0  0  0  0
  178.9310  185.1300  138.2520 C   0  0  0  0  0  3  0  0  0  0  0  0
  179.8810  185.7010  137.4010 C   0  0  0  0  0  3  0  0  0  0  0  0
  181.0100  183.5670  137.2280 C   0  0  0  0  0  3  0  0  0  0  0  0
  180.9200  184.9210  136.8890 C   0  0  0  0  0  3  0  0  0  0  0  0
  180.0630  182.9840  138.0830 C   0  0  0  0  0  0  0  0  0  0  0  0
  179.0210  183.7760  138.5900 C   0  0  0  0  0  3  0  0  0  0  0  0
  1 11  1  0  0  0  0
  3 12  1  0  0  0  0
  4 16  2  0  0  0  0
  6  9  2  0  0  0  0
  6  3  1  0  0  0  0
  7  3  2  0  0  0  0
  7  1  1  0  0  0  0
  8  4  1  0  0  0  0
  9 17  1  0  0  0  0
 10  5  2  0  0  0  0
 10 16  1  0  0  0  0
 11  8  1  0  0  0  0
 11  2  2  0  0  0  0
 12 18  1  0  0  0  0
 12  8  2  0  0  0  0
 13 15  2  0  0  0  0
 14  1  2  0  0  0  0
 14 13  1  0  0  0  0
 15  2  1  0  0  0  0
 16 20  1  0  0  0  0
 17 18  2  0  0  0  0
 18 10  1  0  0  0  0
 20 19  2  0  0  0  0
 22 21  1  1  0  0  0
 22 14  1  0  0  0  0
 23 24  1  0  0  0  0
 23 26  1  0  0  0  0
 24 27  1  0  0  0  0
 25 27  1  0  0  0  0
 26 25  1  0  0  0  0
 27 22  1  6  0  0  0
 28 33  1  0  0  0  0
 29 28  2  0  0  0  0
 30 32  1  0  0  0  0
 31 30  2  0  0  0  0
 31 29  1  0  0  0  0
 32 23  1  0  0  0  0
 32 33  2  0  0  0  0
M  END
>  <MODEL>
5

>  <REMARK>
 VINA RESULT:     -10.5      3.287      8.097
  Name = 
  4 active torsions:
  status: ('A' for Active; 'I' for Inactive)
    1  A    between atoms: N_2  and  C_19
    2  A    between atoms: C_23  and  C_33
    3  A    between atoms: C_25  and  C_33
    4  A    between atoms: C_27  and  C_28
                            x       y       z     vdW  Elec       q    Type
                         _______ _______ _______ _____ _____    ______ ____

>  <TORSDO>
F 4

$$$$
=
 OpenBabel11042409513D

 33 38  0  0  1  0  0  0  0  0999 V2000
  186.2940  178.4110  141.9570 C   0  0  0  0  0  0  0  0  0  0  0  0
  185.3670  178.2710  144.2070 C   0  0  0  0  0  3  0  0  0  0  0  0
  188.6510  177.9490  141.5800 C   0  0  0  0  0  0  0  0  0  0  0  0
  187.9560  177.5280  145.2850 C   0  0  0  0  0  3  0  0  0  0  0  0
  191.4600  176.7590  145.2560 O   0  0  0  0  0  0  0  0  0  0  0  0
  189.7080  177.8470  140.7350 N   0  0  0  0  0  0  0  0  0  0  0  0
  187.3940  178.3020  141.0920 C   0  0  0  0  0  3  0  0  0  0  0  0
  187.7390  177.8000  143.8420 C   0  0  0  0  0  0  0  0  0  0  0  0
  190.9400  177.5030  141.1970 C   0  0  0  0  0  3  0  0  0  0  0  0
  190.3140  177.0770  144.8400 C   0  0  0  0  0  0  0  0  0  0  0  0
  186.4680  178.1580  143.3460 C   0  0  0  0  0  0  0  0  0  0  0  0
  188.8240  177.6990  142.9520 C   0  0  0  0  0  0  0  0  0  0  0  0
  183.9420  178.8770  142.3520 C   0  0  0  0  0  3  0  0  0  0  0  0
  185.0210  178.7680  141.4620 C   0  0  0  0  0  0  0  0  0  0  0  0
  184.1130  178.6290  143.7130 C   0  0  0  0  0  3  0  0  0  0  0  0
  189.1560  177.1880  145.7710 C   0  0  0  0  0  0  0  0  0  0  0  0
  191.1320  177.2560  142.5200 N   0  0  0  0  0  0  0  0  0  0  0  0
  190.1030  177.3450  143.4050 C   0  0  0  0  0  0  0  0  0  0  0  0
  188.3080  177.2920  148.0920 C   0  0  0  0  0  2  0  0  0  0  0  0
  189.2480  176.9430  147.2220 C   0  0  0  0  0  3  0  0  0  0  0  0
  185.4270  177.9930  139.0970 C   0  0  0  0  0  1  0  0  0  0  0  0
  184.8170  179.0610  139.9980 C   0  0  1  0  0  3  0  0  0  0  0  0
  182.1220  180.5810  138.3430 N   0  0  0  0  0  0  0  0  0  0  0  0
  183.2520  180.6590  139.0930 O   0  0  0  0  0  0  0  0  0  0  0  0
  182.7370  178.3830  138.6870 C   0  0  0  0  0  2  0  0  0  0  0  0
  181.7890  179.2430  137.9050 C   0  0  0  0  0  2  0  0  0  0  0  0
  183.3570  179.3780  139.6620 C   0  0  1  0  0  3  0  0  0  0  0  0
  179.0710  182.6060  139.1400 C   0  0  0  0  0  3  0  0  0  0  0  0
  179.2770  183.7260  138.3300 C   0  0  0  0  0  3  0  0  0  0  0  0
  181.3550  182.7720  137.5370 C   0  0  0  0  0  3  0  0  0  0  0  0
  180.4180  183.8090  137.5300 C   0  0  0  0  0  3  0  0  0  0  0  0
  181.1590  181.6440  138.3480 C   0  0  0  0  0  0  0  0  0  0  0  0
  180.0070  181.5680  139.1470 C   0  0  0  0  0  3  0  0  0  0  0  0
  1 11  1  0  0  0  0
  3 12  1  0  0  0  0
  4 16  2  0  0  0  0
  6  9  2  0  0  0  0
  6  3  1  0  0  0  0
  7  3  2  0  0  0  0
  7  1  1  0  0  0  0
  8  4  1  0  0  0  0
  9 17  1  0  0  0  0
 10  5  2  0  0  0  0
 10 16  1  0  0  0  0
 11  8  1  0  0  0  0
 11  2  2  0  0  0  0
 12 18  1  0  0  0  0
 12  8  2  0  0  0  0
 13 15  2  0  0  0  0
 14  1  2  0  0  0  0
 14 13  1  0  0  0  0
 15  2  1  0  0  0  0
 16 20  1  0  0  0  0
 17 18  2  0  0  0  0
 18 10  1  0  0  0  0
 20 19  2  0  0  0  0
 22 21  1  6  0  0  0
 22 14  1  0  0  0  0
 23 32  1  0  0  0  0
 23 24  1  0  0  0  0
 24 27  1  0  0  0  0
 25 27  1  0  0  0  0
 26 23  1  0  0  0  0
 26 25  1  0  0  0  0
 27 22  1  6  0  0  0
 28 33  1  0  0  0  0
 29 28  2  0  0  0  0
 30 32  1  0  0  0  0
 31 30  2  0  0  0  0
 31 29  1  0  0  0  0
 32 33  2  0  0  0  0
M  END
>  <MODEL>
6

>  <REMARK>
 VINA RESULT:     -10.4      2.697      7.859
  Name = 
  4 active torsions:
  status: ('A' for Active; 'I' for Inactive)
    1  A    between atoms: N_2  and  C_19
    2  A    between atoms: C_23  and  C_33
    3  A    between atoms: C_25  and  C_33
    4  A    between atoms: C_27  and  C_28
                            x       y       z     vdW  Elec       q    Type
                         _______ _______ _______ _____ _____    ______ ____

>  <TORSDO>
F 4

$$$$
=
 OpenBabel11042409513D

 33 38  0  0  1  0  0  0  0  0999 V2000
  188.9580  177.3280  142.4010 C   0  0  0  0  0  0  0  0  0  0  0  0
  190.4540  177.1180  144.3150 C   0  0  0  0  0  3  0  0  0  0  0  0
  186.6190  177.8960  142.7410 C   0  0  0  0  0  0  0  0  0  0  0  0
  188.2920  177.7560  146.1420 C   0  0  0  0  0  3  0  0  0  0  0  0
  184.9600  178.6030  147.1650 O   0  0  0  0  0  0  0  0  0  0  0  0
  185.3830  178.1450  142.2350 N   0  0  0  0  0  0  0  0  0  0  0  0
  187.6770  177.5880  141.8880 C   0  0  0  0  0  3  0  0  0  0  0  0
  188.1040  177.6920  144.6710 C   0  0  0  0  0  0  0  0  0  0  0  0
  184.3410  178.4470  143.0550 C   0  0  0  0  0  3  0  0  0  0  0  0
  185.9340  178.3230  146.4160 C   0  0  0  0  0  0  0  0  0  0  0  0
  189.1740  177.3810  143.8060 C   0  0  0  0  0  0  0  0  0  0  0  0
  186.8300  177.9480  144.1290 C   0  0  0  0  0  0  0  0  0  0  0  0
  191.2970  176.7540  142.0790 C   0  0  0  0  0  3  0  0  0  0  0  0
  190.0300  177.0180  141.5370 C   0  0  0  0  0  0  0  0  0  0  0  0
  191.5080  176.8050  143.4560 C   0  0  0  0  0  3  0  0  0  0  0  0
  187.2870  178.0500  146.9760 C   0  0  0  0  0  0  0  0  0  0  0  0
  184.5230  178.5030  144.4020 N   0  0  0  0  0  0  0  0  0  0  0  0
  185.7410  178.2610  144.9550 C   0  0  0  0  0  0  0  0  0  0  0  0
  188.8300  178.1390  148.9060 C   0  0  0  0  0  2  0  0  0  0  0  0
  187.5980  178.0830  148.4170 C   0  0  0  0  0  3  0  0  0  0  0  0
  189.5090  178.2930  139.4250 C   0  0  0  0  0  1  0  0  0  0  0  0
  189.8210  176.9360  140.0470 C   0  0  1  0  0  3  0  0  0  0  0  0
  191.5380  175.3980  137.4020 N   0  0  0  0  0  0  0  0  0  0  0  0
  190.4580  175.4960  138.2180 O   0  0  0  0  0  0  0  0  0  0  0  0
  192.0710  177.1080  138.8580 C   0  0  0  0  0  2  0  0  0  0  0  0
  192.5320  176.4320  137.6010 C   0  0  0  0  0  2  0  0  0  0  0  0
  190.9530  176.1880  139.3370 C   0  0  1  0  0  3  0  0  0  0  0  0
  191.1680  172.3220  135.2930 C   0  0  0  0  0  3  0  0  0  0  0  0
  192.4430  171.7630  135.4120 C   0  0  0  0  0  3  0  0  0  0  0  0
  193.1150  173.6000  136.8370 C   0  0  0  0  0  3  0  0  0  0  0  0
  193.4160  172.4020  136.1840 C   0  0  0  0  0  3  0  0  0  0  0  0
  191.8400  174.1720  136.7210 C   0  0  0  0  0  0  0  0  0  0  0  0
  190.8670  173.5210  135.9460 C   0  0  0  0  0  3  0  0  0  0  0  0
  1 11  1  0  0  0  0
  3 12  1  0  0  0  0
  4 16  2  0  0  0  0
  6  3  2  0  0  0  0
  6  9  1  0  0  0  0
  7  1  2  0  0  0  0
  7  3  1  0  0  0  0
  8  4  1  0  0  0  0
  9 17  2  0  0  0  0
 10 16  1  0  0  0  0
 10  5  2  0  0  0  0
 11  2  1  0  0  0  0
 11  8  2  0  0  0  0
 12  8  1  0  0  0  0
 12 18  2  0  0  0  0
 13 15  1  0  0  0  0
 14 13  2  0  0  0  0
 14  1  1  0  0  0  0
 15  2  2  0  0  0  0
 16 20  1  0  0  0  0
 17 18  1  0  0  0  0
 18 10  1  0  0  0  0
 20 19  2  0  0  0  0
 22 21  1  6  0  0  0
 22 14  1  0  0  0  0
 23 26  1  0  0  0  0
 23 24  1  0  0  0  0
 24 27  1  0  0  0  0
 25 27  1  0  0  0  0
 26 25  1  0  0  0  0
 27 22  1  6  0  0  0
 28 29  2  0  0  0  0
 28 33  1  0  0  0  0
 29 31  1  0  0  0  0
 31 30  2  0  0  0  0
 32 30  1  0  0  0  0
 32 23  1  0  0  0  0
 33 32  2  0  0  0  0
M  END
>  <MODEL>
7

>  <REMARK>
 VINA RESULT:     -10.3      2.956      5.820
  Name = 
  4 active torsions:
  status: ('A' for Active; 'I' for Inactive)
    1  A    between atoms: N_2  and  C_19
    2  A    between atoms: C_23  and  C_33
    3  A    between atoms: C_25  and  C_33
    4  A    between atoms: C_27  and  C_28
                            x       y       z     vdW  Elec       q    Type
                         _______ _______ _______ _____ _____    ______ ____

>  <TORSDO>
F 4

$$$$
=
 OpenBabel11042409513D

 33 38  0  0  1  0  0  0  0  0999 V2000
  188.2310  178.0320  141.5860 C   0  0  0  0  0  0  0  0  0  0  0  0
  189.9670  177.1790  143.0690 C   0  0  0  0  0  3  0  0  0  0  0  0
  186.0650  178.6700  142.4870 C   0  0  0  0  0  0  0  0  0  0  0  0
  188.2160  177.4560  145.3660 C   0  0  0  0  0  3  0  0  0  0  0  0
  185.2200  178.2520  147.1700 O   0  0  0  0  0  0  0  0  0  0  0  0
  184.8080  179.1480  142.3000 N   0  0  0  0  0  0  0  0  0  0  0  0
  186.9300  178.5270  141.4040 C   0  0  0  0  0  3  0  0  0  0  0  0
  187.7940  177.8190  143.9900 C   0  0  0  0  0  0  0  0  0  0  0  0
  183.9530  179.2930  143.3480 C   0  0  0  0  0  3  0  0  0  0  0  0
  186.0210  178.1130  146.2080 C   0  0  0  0  0  0  0  0  0  0  0  0
  188.6680  177.6750  142.8920 C   0  0  0  0  0  0  0  0  0  0  0  0
  186.4950  178.3170  143.7780 C   0  0  0  0  0  0  0  0  0  0  0  0
  190.3980  177.3840  140.7000 C   0  0  0  0  0  3  0  0  0  0  0  0
  189.1070  177.8890  140.4880 C   0  0  0  0  0  0  0  0  0  0  0  0
  190.8260  177.0340  141.9800 C   0  0  0  0  0  3  0  0  0  0  0  0
  187.3990  177.5870  146.4180 C   0  0  0  0  0  0  0  0  0  0  0  0
  184.3480  178.9580  144.6060 N   0  0  0  0  0  0  0  0  0  0  0  0
  185.5970  178.4750  144.8430 C   0  0  0  0  0  0  0  0  0  0  0  0
  188.7280  177.9600  148.4690 C   0  0  0  0  0  2  0  0  0  0  0  0
  187.9320  177.1930  147.7350 C   0  0  0  0  0  3  0  0  0  0  0  0
  189.8050  178.2120  138.0880 C   0  0  0  0  0  1  0  0  0  0  0  0
  188.6590  178.2410  139.0930 C   0  0  1  0  0  3  0  0  0  0  0  0
  185.7680  177.4680  137.2620 N   0  0  0  0  0  0  0  0  0  0  0  0
  186.4590  178.2800  138.1040 O   0  0  0  0  0  0  0  0  0  0  0  0
  187.7720  176.3740  137.5980 C   0  0  0  0  0  2  0  0  0  0  0  0
  186.5260  176.3410  136.7640 C   0  0  0  0  0  2  0  0  0  0  0  0
  187.4390  177.4320  138.6460 C   0  0  1  0  0  3  0  0  0  0  0  0
  182.2420  177.0710  136.0550 C   0  0  0  0  0  3  0  0  0  0  0  0
  181.5300  177.5980  137.1350 C   0  0  0  0  0  3  0  0  0  0  0  0
  183.6100  178.0330  138.2940 C   0  0  0  0  0  3  0  0  0  0  0  0
  182.2130  178.0790  138.2540 C   0  0  0  0  0  3  0  0  0  0  0  0
  184.3340  177.5040  137.2160 C   0  0  0  0  0  0  0  0  0  0  0  0
  183.6390  177.0250  136.0940 C   0  0  0  0  0  3  0  0  0  0  0  0
  1 11  1  0  0  0  0
  3 12  1  0  0  0  0
  4 16  2  0  0  0  0
  6  3  2  0  0  0  0
  6  9  1  0  0  0  0
  7  1  2  0  0  0  0
  7  3  1  0  0  0  0
  8  4  1  0  0  0  0
  9 17  2  0  0  0  0
 10 16  1  0  0  0  0
 10  5  2  0  0  0  0
 11  2  1  0  0  0  0
 11  8  2  0  0  0  0
 12  8  1  0  0  0  0
 12 18  2  0  0  0  0
 13 15  1  0  0  0  0
 14 13  2  0  0  0  0
 14  1  1  0  0  0  0
 15  2  2  0  0  0  0
 16 20  1  0  0  0  0
 17 18  1  0  0  0  0
 18 10  1  0  0  0  0
 20 19  2  0  0  0  0
 22 21  1  6  0  0  0
 22 14  1  0  0  0  0
 23 24  1  0  0  0  0
 24 27  1  0  0  0  0
 25 27  1  0  0  0  0
 26 23  1  0  0  0  0
 26 25  1  0  0  0  0
 27 22  1  6  0  0  0
 28 33  2  0  0  0  0
 28 29  1  0  0  0  0
 29 31  2  0  0  0  0
 31 30  1  0  0  0  0
 32 23  1  0  0  0  0
 32 30  2  0  0  0  0
 33 32  1  0  0  0  0
M  END
>  <MODEL>
8

>  <REMARK>
 VINA RESULT:     -10.2      2.621      6.227
  Name = 
  4 active torsions:
  status: ('A' for Active; 'I' for Inactive)
    1  A    between atoms: N_2  and  C_19
    2  A    between atoms: C_23  and  C_33
    3  A    between atoms: C_25  and  C_33
    4  A    between atoms: C_27  and  C_28
                            x       y       z     vdW  Elec       q    Type
                         _______ _______ _______ _____ _____    ______ ____

>  <TORSDO>
F 4

$$$$
=
 OpenBabel11042409513D

 33 38  0  0  1  0  0  0  0  0999 V2000
  185.5710  178.0090  143.4330 C   0  0  0  0  0  0  0  0  0  0  0  0
  185.1200  178.6800  145.7320 C   0  0  0  0  0  3  0  0  0  0  0  0
  187.7750  177.1950  142.8110 C   0  0  0  0  0  0  0  0  0  0  0  0
  187.8380  178.0290  146.5110 C   0  0  0  0  0  3  0  0  0  0  0  0
  191.2220  176.9070  146.1070 O   0  0  0  0  0  0  0  0  0  0  0  0
  188.6310  176.7190  141.8700 N   0  0  0  0  0  0  0  0  0  0  0  0
  186.4630  177.5150  142.4680 C   0  0  0  0  0  3  0  0  0  0  0  0
  187.3420  177.8600  145.1220 C   0  0  0  0  0  0  0  0  0  0  0  0
  189.9140  176.4020  142.1900 C   0  0  0  0  0  3  0  0  0  0  0  0
  190.0300  177.2040  145.8230 C   0  0  0  0  0  0  0  0  0  0  0  0
  186.0140  178.1830  144.7730 C   0  0  0  0  0  0  0  0  0  0  0  0
  188.2150  177.3670  144.1340 C   0  0  0  0  0  0  0  0  0  0  0  0
  183.3750  178.8320  144.0680 C   0  0  0  0  0  3  0  0  0  0  0  0
  184.2410  178.3320  143.0850 C   0  0  0  0  0  0  0  0  0  0  0  0
  183.8090  179.0030  145.3820 C   0  0  0  0  0  3  0  0  0  0  0  0
  189.0950  177.7270  146.8580 C   0  0  0  0  0  0  0  0  0  0  0  0
  190.3620  176.5600  143.4650 N   0  0  0  0  0  0  0  0  0  0  0  0
  189.5420  177.0340  144.4420 C   0  0  0  0  0  0  0  0  0  0  0  0
  188.6080  178.2530  149.2240 C   0  0  0  0  0  2  0  0  0  0  0  0
  189.4710  177.9380  148.2680 C   0  0  0  0  0  3  0  0  0  0  0  0
  182.3070  178.6220  141.4940 C   0  0  0  0  0  1  0  0  0  0  0  0
  183.7550  178.1760  141.6670 C   0  0  1  0  0  3  0  0  0  0  0  0
  185.6510  178.4340  138.7260 N   0  0  0  0  0  0  0  0  0  0  0  0
  185.3400  177.8020  139.8870 O   0  0  0  0  0  0  0  0  0  0  0  0
  184.0130  179.7530  139.6790 C   0  0  0  0  0  2  0  0  0  0  0  0
  184.7990  179.5620  138.4160 C   0  0  0  0  0  2  0  0  0  0  0  0
  184.7100  178.8020  140.6470 C   0  0  1  0  0  3  0  0  0  0  0  0
  189.3530  178.0830  138.2590 C   0  0  0  0  0  3  0  0  0  0  0  0
  189.4310  177.9140  136.8750 C   0  0  0  0  0  3  0  0  0  0  0  0
  187.0220  178.0840  136.7170 C   0  0  0  0  0  3  0  0  0  0  0  0
  188.2660  177.9140  136.1040 C   0  0  0  0  0  3  0  0  0  0  0  0
  186.9320  178.2530  138.1070 C   0  0  0  0  0  0  0  0  0  0  0  0
  188.1080  178.2540  138.8730 C   0  0  0  0  0  3  0  0  0  0  0  0
  1 11  1  0  0  0  0
  3 12  1  0  0  0  0
  4 16  2  0  0  0  0
  6  9  2  0  0  0  0
  6  3  1  0  0  0  0
  7  3  2  0  0  0  0
  7  1  1  0  0  0  0
  8  4  1  0  0  0  0
  9 17  1  0  0  0  0
 10  5  2  0  0  0  0
 10 16  1  0  0  0  0
 11  8  1  0  0  0  0
 11  2  2  0  0  0  0
 12 18  1  0  0  0  0
 12  8  2  0  0  0  0
 13 15  2  0  0  0  0
 14  1  2  0  0  0  0
 14 13  1  0  0  0  0
 15  2  1  0  0  0  0
 16 20  1  0  0  0  0
 17 18  2  0  0  0  0
 18 10  1  0  0  0  0
 20 19  2  0  0  0  0
 22 21  1  1  0  0  0
 22 14  1  0  0  0  0
 23 24  1  0  0  0  0
 24 27  1  0  0  0  0
 25 27  1  0  0  0  0
 26 23  1  0  0  0  0
 26 25  1  0  0  0  0
 27 22  1  1  0  0  0
 28 33  1  0  0  0  0
 29 28  2  0  0  0  0
 30 32  1  0  0  0  0
 31 30  2  0  0  0  0
 31 29  1  0  0  0  0
 32 23  1  0  0  0  0
 32 33  2  0  0  0  0
M  END
>  <MODEL>
9

>  <REMARK>
 VINA RESULT:     -10.1      1.863      5.996
  Name = 
  4 active torsions:
  status: ('A' for Active; 'I' for Inactive)
    1  A    between atoms: N_2  and  C_19
    2  A    between atoms: C_23  and  C_33
    3  A    between atoms: C_25  and  C_33
    4  A    between atoms: C_27  and  C_28
                            x       y       z     vdW  Elec       q    Type
                         _______ _______ _______ _____ _____    ______ ____

>  <TORSDO>
F 4

$$$$
