=
 OpenBabel11042412553D

 43 48  0  0  1  0  0  0  0  0999 V2000
  188.8700  179.2390  138.3970 O   0  0  0  0  0  0  0  0  0  0  0  0
  188.3340  178.1190  138.6220 C   0  0  0  0  0  0  0  0  0  0  0  0
  188.5510  177.0290  137.7000 N   0  0  0  0  0  0  0  0  0  0  0  0
  189.4800  174.5390  136.3850 C   0  0  0  0  0  1  0  0  0  0  0  0
  189.4750  177.2120  136.5670 C   0  0  2  0  0  3  0  0  0  0  0  0
  189.9940  175.9060  135.9480 C   0  0  2  0  0  0  0  0  0  0  0  0
  190.3020  176.0280  134.5940 O   0  0  0  0  0  1  0  0  0  0  0  0
  190.9220  176.7230  136.8380 C   0  0  2  0  0  3  0  0  0  0  0  0
  190.9580  174.9040  138.5340 O   0  0  0  0  0  1  0  0  0  0  0  0
  191.2580  176.2420  138.2770 C   0  0  1  0  0  3  0  0  0  0  0  0
  192.7340  176.4930  138.5830 C   0  0  0  0  0  2  0  0  0  0  0  0
  193.6770  175.8200  137.5840 C   0  0  1  0  0  3  0  0  0  0  0  0
  194.3410  176.7750  136.8070 O   0  0  0  0  0  1  0  0  0  0  0  0
  194.6880  174.9220  138.2860 C   0  0  0  0  0  1  0  0  0  0  0  0
  187.6050  177.9090  139.9320 C   0  0  2  0  0  3  0  0  0  0  0  0
  187.9840  178.9540  140.9660 C   0  0  0  0  0  2  0  0  0  0  0  0
  188.4890  177.5400  141.1370 C   0  0  2  0  0  3  0  0  0  0  0  0
  189.9120  177.4900  140.8160 N   0  0  0  0  0  2  0  0  0  0  0  0
  192.2590  177.1390  141.9820 O   0  0  0  0  0  0  0  0  0  0  0  0
  190.7800  176.9950  142.2340 S   0  0  0  0  0  0  0  0  0  0  0  0
  190.3190  178.0280  143.6080 C   0  0  0  0  0  1  0  0  0  0  0  0
  190.4720  175.5600  142.5620 O   0  0  0  0  0  0  0  0  0  0  0  0
  187.6130  175.9080  137.6800 C   0  0  0  0  0  2  0  0  0  0  0  0
  183.9900  175.4840  136.8630 C   0  0  0  0  0  0  0  0  0  0  0  0
  184.6850  177.8370  136.8490 C   0  0  0  0  0  3  0  0  0  0  0  0
  186.5010  176.1320  136.6540 C   0  0  1  0  0  3  0  0  0  0  0  0
  185.7450  173.8750  136.8710 O   0  0  0  0  0  0  0  0  0  0  0  0
  185.4200  175.0910  136.8080 C   0  0  0  0  0  0  0  0  0  0  0  0
  185.9820  177.5450  136.7390 C   0  0  0  0  0  3  0  0  0  0  0  0
  183.6640  176.7790  136.8950 C   0  0  0  0  0  3  0  0  0  0  0  0
  181.1070  173.4450  137.3690 C   0  0  0  0  0  0  0  0  0  0  0  0
  179.7020  173.7080  139.3710 N   0  0  0  0  0  2  0  0  0  0  0  0
  180.0520  174.6680  140.1440 N   0  0  0  0  0  2  0  0  0  0  0  0
  180.6400  175.2540  138.1690 C   0  0  1  0  0  3  0  0  0  0  0  0
  179.9240  174.0490  137.9630 C   0  0  1  0  0  3  0  0  0  0  0  0
  180.6060  175.7400  139.3820 C   0  0  2  0  0  3  0  0  0  0  0  0
  181.7040  174.6350  137.3950 N   0  0  0  0  0  0  0  0  0  0  0  0
  181.8880  172.4680  136.8170 C   0  0  0  0  0  3  0  0  0  0  0  0
  183.0550  173.1510  136.5070 N   0  0  0  0  0  0  0  0  0  0  0  0
  182.9120  174.4770  136.8620 C   0  0  0  0  0  0  0  0  0  0  0  0
  181.6480  176.5790  139.9100 C   0  0  0  0  0  0  0  0  0  0  0  0
  183.6060  178.1260  140.8540 C   0  0  0  0  0  1  0  0  0  0  0  0
  182.5290  177.2800  140.3400 C   0  0  0  0  0  0  0  0  0  0  0  0
  1  2  2  0  0  0  0
  3  2  1  0  0  0  0
  5  8  1  0  0  0  0
  5  3  1  1  0  0  0
  6  4  1  1  0  0  0
  6  5  1  0  0  0  0
  6  8  1  0  0  0  0
  7  6  1  0  0  0  0
  8 10  1  1  0  0  0
 10  9  1  6  0  0  0
 10 11  1  0  0  0  0
 12 14  1  1  0  0  0
 12 11  1  0  0  0  0
 13 12  1  0  0  0  0
 15  2  1  6  0  0  0
 15 16  1  0  0  0  0
 15 17  1  0  0  0  0
 16 17  1  0  0  0  0
 17 18  1  6  0  0  0
 18 20  1  0  0  0  0
 19 20  2  0  0  0  0
 20 22  2  0  0  0  0
 20 21  1  0  0  0  0
 23  3  1  0  0  0  0
 24 30  2  0  0  0  0
 25 30  1  0  0  0  0
 26 29  1  0  0  0  0
 26 28  1  0  0  0  0
 26 23  1  1  0  0  0
 28 24  1  0  0  0  0
 28 27  2  0  0  0  0
 29 25  2  0  0  0  0
 31 37  1  0  0  0  0
 32 33  1  0  0  0  0
 34 37  1  1  0  0  0
 34 36  1  0  0  0  0
 35 31  1  1  0  0  0
 35 34  1  0  0  0  0
 35 32  1  0  0  0  0
 36 41  1  1  0  0  0
 36 33  1  0  0  0  0
 38 31  2  0  0  0  0
 39 38  1  0  0  0  0
 39 40  2  0  0  0  0
 40 24  1  0  0  0  0
 40 37  1  0  0  0  0
 41 43  3  0  0  0  0
 43 42  1  0  0  0  0
M  END
>  <MODEL>
1

>  <REMARK>
 VINA RESULT:      -6.3      0.000      0.000
  Name = 
  11 active torsions:
  status: ('A' for Active; 'I' for Inactive)
    1  A    between atoms: C_1  and  C_38
    2  A    between atoms: C_3  and  C_43
    3  A    between atoms: N_6  and  S_12
    4  A    between atoms: N_6  and  C_41
    5  A    between atoms: C_10  and  C_28
    6  A    between atoms: C_13  and  C_27
    7  A    between atoms: C_14  and  C_17
    8  A    between atoms: C_19  and  N_29
    9  A    between atoms: C_28  and  N_29
   10  A    between atoms: C_35  and  C_38
   11  A    between atoms: C_35  and  C_42
                            x       y       z     vdW  Elec       q    Type
                         _______ _______ _______ _____ _____    ______ ____

>  <TORSDO>
F 11

$$$$
=
 OpenBabel11042412553D

 43 48  0  0  1  0  0  0  0  0999 V2000
  187.0560  179.8950  142.3880 O   0  0  0  0  0  0  0  0  0  0  0  0
  187.1180  178.8220  141.7280 C   0  0  0  0  0  0  0  0  0  0  0  0
  188.3450  178.0620  141.7200 N   0  0  0  0  0  0  0  0  0  0  0  0
  190.0660  175.8950  142.7870 C   0  0  0  0  0  1  0  0  0  0  0  0
  189.4730  178.4980  142.5620 C   0  0  2  0  0  3  0  0  0  0  0  0
  190.3080  177.3550  143.1570 C   0  0  2  0  0  0  0  0  0  0  0  0
  191.6380  177.7060  143.3790 O   0  0  0  0  0  1  0  0  0  0  0  0
  189.3400  178.1110  144.0580 C   0  0  2  0  0  3  0  0  0  0  0  0
  187.8150  176.1460  144.0610 O   0  0  0  0  0  1  0  0  0  0  0  0
  188.0080  177.4530  144.5120 C   0  0  1  0  0  3  0  0  0  0  0  0
  187.9020  177.4790  146.0360 C   0  0  0  0  0  2  0  0  0  0  0  0
  189.2320  177.7900  146.7240 C   0  0  1  0  0  3  0  0  0  0  0  0
  189.0210  178.4530  147.9370 O   0  0  0  0  0  1  0  0  0  0  0  0
  190.0520  176.5260  146.9550 C   0  0  0  0  0  1  0  0  0  0  0  0
  185.8550  178.2840  141.0890 C   0  0  2  0  0  3  0  0  0  0  0  0
  184.6880  179.2440  141.2430 C   0  0  0  0  0  2  0  0  0  0  0  0
  184.6990  177.9690  142.0560 C   0  0  2  0  0  3  0  0  0  0  0  0
  185.0080  178.2830  143.4470 N   0  0  0  0  0  2  0  0  0  0  0  0
  183.9100  180.6260  143.9920 O   0  0  0  0  0  0  0  0  0  0  0  0
  183.6660  179.1460  144.1290 S   0  0  0  0  0  0  0  0  0  0  0  0
  182.1750  178.7170  143.2580 C   0  0  0  0  0  1  0  0  0  0  0  0
  183.5100  178.8030  145.5860 O   0  0  0  0  0  0  0  0  0  0  0  0
  188.5900  177.1040  140.6420 C   0  0  0  0  0  2  0  0  0  0  0  0
  190.7170  176.7610  137.5870 C   0  0  0  0  0  0  0  0  0  0  0  0
  188.4130  177.4150  137.0560 C   0  0  0  0  0  3  0  0  0  0  0  0
  189.1710  177.7950  139.4070 C   0  0  1  0  0  3  0  0  0  0  0  0
  191.3590  176.9500  139.8720 O   0  0  0  0  0  0  0  0  0  0  0  0
  190.4710  177.1460  138.9990 C   0  0  0  0  0  0  0  0  0  0  0  0
  188.1520  177.8320  138.2960 C   0  0  0  0  0  3  0  0  0  0  0  0
  189.7340  176.8810  136.6910 C   0  0  0  0  0  3  0  0  0  0  0  0
  193.5290  175.0330  136.2330 C   0  0  0  0  0  0  0  0  0  0  0  0
  193.3420  172.6980  135.4820 N   0  0  0  0  0  2  0  0  0  0  0  0
  192.1600  172.2110  135.5510 N   0  0  0  0  0  2  0  0  0  0  0  0
  191.9140  174.3140  135.2290 C   0  0  1  0  0  3  0  0  0  0  0  0
  193.3130  174.1180  135.1220 C   0  0  1  0  0  3  0  0  0  0  0  0
  191.1900  173.2290  135.3140 C   0  0  2  0  0  3  0  0  0  0  0  0
  192.2360  175.3510  136.1970 N   0  0  0  0  0  0  0  0  0  0  0  0
  194.2210  175.7240  137.1870 C   0  0  0  0  0  3  0  0  0  0  0  0
  193.2360  176.5060  137.7720 N   0  0  0  0  0  0  0  0  0  0  0  0
  192.0320  176.2650  137.1400 C   0  0  0  0  0  0  0  0  0  0  0  0
  189.9020  173.2060  135.9540 C   0  0  0  0  0  0  0  0  0  0  0  0
  187.4940  173.1470  137.1010 C   0  0  0  0  0  1  0  0  0  0  0  0
  188.8160  173.1800  136.4770 C   0  0  0  0  0  0  0  0  0  0  0  0
  2  1  2  0  0  0  0
  3  2  1  0  0  0  0
  5  3  1  6  0  0  0
  5  6  1  0  0  0  0
  5  8  1  0  0  0  0
  6  4  1  6  0  0  0
  6  7  1  0  0  0  0
  6  8  1  0  0  0  0
  8 10  1  6  0  0  0
 10  9  1  1  0  0  0
 10 11  1  0  0  0  0
 11 12  1  0  0  0  0
 12 14  1  1  0  0  0
 12 13  1  0  0  0  0
 15 16  1  0  0  0  0
 15  2  1  1  0  0  0
 15 17  1  0  0  0  0
 16 17  1  0  0  0  0
 17 18  1  1  0  0  0
 18 20  1  0  0  0  0
 19 20  2  0  0  0  0
 20 22  2  0  0  0  0
 21 20  1  0  0  0  0
 23  3  1  0  0  0  0
 24 28  1  0  0  0  0
 25 29  2  0  0  0  0
 26 23  1  1  0  0  0
 28 26  1  0  0  0  0
 28 27  2  0  0  0  0
 29 26  1  0  0  0  0
 30 25  1  0  0  0  0
 30 24  2  0  0  0  0
 31 38  2  0  0  0  0
 32 33  1  0  0  0  0
 34 36  1  0  0  0  0
 34 37  1  1  0  0  0
 35 34  1  0  0  0  0
 35 32  1  1  0  0  0
 35 31  1  0  0  0  0
 36 33  1  0  0  0  0
 36 41  1  1  0  0  0
 37 31  1  0  0  0  0
 37 40  1  0  0  0  0
 38 39  1  0  0  0  0
 40 24  1  0  0  0  0
 40 39  2  0  0  0  0
 41 43  3  0  0  0  0
 43 42  1  0  0  0  0
M  END
>  <MODEL>
2

>  <REMARK>
 VINA RESULT:      -6.2      4.303      8.503
  Name = 
  11 active torsions:
  status: ('A' for Active; 'I' for Inactive)
    1  A    between atoms: C_1  and  C_38
    2  A    between atoms: C_3  and  C_43
    3  A    between atoms: N_6  and  S_12
    4  A    between atoms: N_6  and  C_41
    5  A    between atoms: C_10  and  C_28
    6  A    between atoms: C_13  and  C_27
    7  A    between atoms: C_14  and  C_17
    8  A    between atoms: C_19  and  N_29
    9  A    between atoms: C_28  and  N_29
   10  A    between atoms: C_35  and  C_38
   11  A    between atoms: C_35  and  C_42
                            x       y       z     vdW  Elec       q    Type
                         _______ _______ _______ _____ _____    ______ ____

>  <TORSDO>
F 11

$$$$
=
 OpenBabel11042412553D

 43 48  0  0  1  0  0  0  0  0999 V2000
  189.0320  178.9320  141.8560 O   0  0  0  0  0  0  0  0  0  0  0  0
  188.0030  178.2540  141.5880 C   0  0  0  0  0  0  0  0  0  0  0  0
  187.4990  178.2310  140.2350 N   0  0  0  0  0  0  0  0  0  0  0  0
  186.7720  177.4810  137.4600 C   0  0  0  0  0  1  0  0  0  0  0  0
  188.2520  178.9170  139.1700 C   0  0  2  0  0  3  0  0  0  0  0  0
  187.9040  178.4610  137.7450 C   0  0  2  0  0  0  0  0  0  0  0  0
  188.0890  179.4600  136.7910 O   0  0  0  0  0  1  0  0  0  0  0  0
  189.2120  177.9960  138.3730 C   0  0  2  0  0  3  0  0  0  0  0  0
  189.4650  175.5770  137.8490 O   0  0  0  0  0  1  0  0  0  0  0  0
  189.3730  176.5310  138.8640 C   0  0  1  0  0  3  0  0  0  0  0  0
  190.5940  176.4130  139.7750 C   0  0  0  0  0  2  0  0  0  0  0  0
  191.7850  177.2410  139.2910 C   0  0  1  0  0  3  0  0  0  0  0  0
  192.5540  177.6840  140.3720 O   0  0  0  0  0  1  0  0  0  0  0  0
  192.6550  176.4540  138.3170 C   0  0  0  0  0  1  0  0  0  0  0  0
  187.4150  177.3630  142.6610 C   0  0  2  0  0  3  0  0  0  0  0  0
  187.9950  177.6670  144.0310 C   0  0  0  0  0  2  0  0  0  0  0  0
  188.4010  176.3890  143.3340 C   0  0  2  0  0  3  0  0  0  0  0  0
  189.7680  176.5180  142.8400 N   0  0  0  0  0  2  0  0  0  0  0  0
  191.9010  175.6310  144.1260 O   0  0  0  0  0  0  0  0  0  0  0  0
  190.8310  176.6900  144.2000 S   0  0  0  0  0  0  0  0  0  0  0  0
  191.5960  178.2960  144.1610 C   0  0  0  0  0  1  0  0  0  0  0  0
  190.0660  176.5320  145.4860 O   0  0  0  0  0  0  0  0  0  0  0  0
  186.1070  177.8530  139.9930 C   0  0  0  0  0  2  0  0  0  0  0  0
  182.7820  179.5510  139.8030 C   0  0  0  0  0  0  0  0  0  0  0  0
  183.0430  178.2260  141.8520 C   0  0  0  0  0  3  0  0  0  0  0  0
  185.1410  178.8440  140.6440 C   0  0  1  0  0  3  0  0  0  0  0  0
  184.7730  179.9650  138.5640 O   0  0  0  0  0  0  0  0  0  0  0  0
  184.2510  179.4780  139.6030 C   0  0  0  0  0  0  0  0  0  0  0  0
  184.3730  178.1780  141.7570 C   0  0  0  0  0  3  0  0  0  0  0  0
  182.2310  178.9450  140.8580 C   0  0  0  0  0  3  0  0  0  0  0  0
  180.5980  180.7320  137.2420 C   0  0  0  0  0  0  0  0  0  0  0  0
  180.1280  179.3710  135.2480 N   0  0  0  0  0  2  0  0  0  0  0  0
  180.6640  178.2080  135.2600 N   0  0  0  0  0  2  0  0  0  0  0  0
  180.3170  178.7200  137.3110 C   0  0  1  0  0  3  0  0  0  0  0  0
  179.7110  179.7790  136.5920 C   0  0  1  0  0  3  0  0  0  0  0  0
  180.7370  177.7100  136.5950 C   0  0  2  0  0  3  0  0  0  0  0  0
  181.0250  179.7580  138.0440 N   0  0  0  0  0  0  0  0  0  0  0  0
  181.1780  181.9390  137.5140 C   0  0  0  0  0  3  0  0  0  0  0  0
  182.0340  181.6360  138.5630 N   0  0  0  0  0  0  0  0  0  0  0  0
  181.9120  180.2960  138.8740 C   0  0  0  0  0  0  0  0  0  0  0  0
  181.8100  176.8520  137.0210 C   0  0  0  0  0  0  0  0  0  0  0  0
  183.8150  175.2930  137.8380 C   0  0  0  0  0  1  0  0  0  0  0  0
  182.7140  176.1430  137.3870 C   0  0  0  0  0  0  0  0  0  0  0  0
  2  1  2  0  0  0  0
  3  2  1  0  0  0  0
  5  3  1  1  0  0  0
  6  4  1  6  0  0  0
  6  8  1  0  0  0  0
  6  5  1  0  0  0  0
  7  6  1  0  0  0  0
  8 10  1  1  0  0  0
  8  5  1  0  0  0  0
 10  9  1  6  0  0  0
 10 11  1  0  0  0  0
 12 14  1  6  0  0  0
 12 11  1  0  0  0  0
 12 13  1  0  0  0  0
 15  2  1  6  0  0  0
 15 17  1  0  0  0  0
 15 16  1  0  0  0  0
 17 18  1  6  0  0  0
 17 16  1  0  0  0  0
 18 20  1  0  0  0  0
 19 20  2  0  0  0  0
 20 22  2  0  0  0  0
 21 20  1  0  0  0  0
 23  3  1  0  0  0  0
 24 30  2  0  0  0  0
 26 23  1  6  0  0  0
 26 29  1  0  0  0  0
 27 28  2  0  0  0  0
 28 24  1  0  0  0  0
 28 26  1  0  0  0  0
 29 25  2  0  0  0  0
 30 25  1  0  0  0  0
 31 38  2  0  0  0  0
 31 37  1  0  0  0  0
 32 33  1  0  0  0  0
 33 36  1  0  0  0  0
 34 37  1  6  0  0  0
 35 32  1  6  0  0  0
 35 31  1  0  0  0  0
 35 34  1  0  0  0  0
 36 41  1  1  0  0  0
 36 34  1  0  0  0  0
 37 40  1  0  0  0  0
 38 39  1  0  0  0  0
 39 40  2  0  0  0  0
 40 24  1  0  0  0  0
 41 43  3  0  0  0  0
 43 42  1  0  0  0  0
M  END
>  <MODEL>
3

>  <REMARK>
 VINA RESULT:      -6.2      2.895      4.518
  Name = 
  11 active torsions:
  status: ('A' for Active; 'I' for Inactive)
    1  A    between atoms: C_1  and  C_38
    2  A    between atoms: C_3  and  C_43
    3  A    between atoms: N_6  and  S_12
    4  A    between atoms: N_6  and  C_41
    5  A    between atoms: C_10  and  C_28
    6  A    between atoms: C_13  and  C_27
    7  A    between atoms: C_14  and  C_17
    8  A    between atoms: C_19  and  N_29
    9  A    between atoms: C_28  and  N_29
   10  A    between atoms: C_35  and  C_38
   11  A    between atoms: C_35  and  C_42
                            x       y       z     vdW  Elec       q    Type
                         _______ _______ _______ _____ _____    ______ ____

>  <TORSDO>
F 11

$$$$
=
 OpenBabel11042412553D

 43 48  0  0  1  0  0  0  0  0999 V2000
  182.5980  179.3840  138.5380 O   0  0  0  0  0  0  0  0  0  0  0  0
  182.9940  178.5820  139.4270 C   0  0  0  0  0  0  0  0  0  0  0  0
  182.4830  178.7020  140.7720 N   0  0  0  0  0  0  0  0  0  0  0  0
  181.1600  178.4410  143.4130 C   0  0  0  0  0  1  0  0  0  0  0  0
  181.4340  179.6960  141.0620 C   0  0  2  0  0  3  0  0  0  0  0  0
  180.7180  179.4970  142.4060 C   0  0  2  0  0  0  0  0  0  0  0  0
  180.2410  180.6870  142.9520 O   0  0  0  0  0  1  0  0  0  0  0  0
  179.9990  179.1100  141.1200 C   0  0  2  0  0  3  0  0  0  0  0  0
  178.9560  176.8960  141.5660 O   0  0  0  0  0  1  0  0  0  0  0  0
  179.8190  177.6150  140.7370 C   0  0  1  0  0  3  0  0  0  0  0  0
  179.3400  177.4970  139.2910 C   0  0  0  0  0  2  0  0  0  0  0  0
  179.1970  176.0480  138.8230 C   0  0  1  0  0  3  0  0  0  0  0  0
  179.0200  175.9880  137.4380 O   0  0  0  0  0  1  0  0  0  0  0  0
  180.4000  175.2060  139.2330 C   0  0  0  0  0  1  0  0  0  0  0  0
  183.8760  177.4190  139.0230 C   0  0  2  0  0  3  0  0  0  0  0  0
  184.5780  177.6740  137.7010 C   0  0  0  0  0  2  0  0  0  0  0  0
  183.4500  176.6700  137.7470 C   0  0  2  0  0  3  0  0  0  0  0  0
  182.2660  177.2390  137.1110 N   0  0  0  0  0  2  0  0  0  0  0  0
  183.2310  177.2240  134.6490 O   0  0  0  0  0  0  0  0  0  0  0  0
  182.1490  176.6080  135.4990 S   0  0  0  0  0  0  0  0  0  0  0  0
  182.3660  174.8420  135.5310 C   0  0  0  0  0  1  0  0  0  0  0  0
  180.8060  176.9360  134.9050 O   0  0  0  0  0  0  0  0  0  0  0  0
  183.2340  178.1170  141.8820 C   0  0  0  0  0  2  0  0  0  0  0  0
  186.5210  178.2770  143.6560 C   0  0  0  0  0  0  0  0  0  0  0  0
  186.7300  178.7270  141.2530 C   0  0  0  0  0  3  0  0  0  0  0  0
  184.4490  178.9730  142.2440 C   0  0  1  0  0  3  0  0  0  0  0  0
  184.3110  178.3270  144.5420 O   0  0  0  0  0  0  0  0  0  0  0  0
  185.0590  178.5050  143.5430 C   0  0  0  0  0  0  0  0  0  0  0  0
  185.4330  179.0020  141.1020 C   0  0  0  0  0  3  0  0  0  0  0  0
  187.2880  178.3710  142.5670 C   0  0  0  0  0  3  0  0  0  0  0  0
  188.6460  177.4900  146.4120 C   0  0  0  0  0  0  0  0  0  0  0  0
  190.9250  176.6400  146.0530 N   0  0  0  0  0  2  0  0  0  0  0  0
  191.2850  176.5840  144.8250 N   0  0  0  0  0  2  0  0  0  0  0  0
  189.8790  178.1950  144.9570 C   0  0  1  0  0  3  0  0  0  0  0  0
  190.0640  177.7980  146.3050 C   0  0  1  0  0  3  0  0  0  0  0  0
  190.6770  177.6400  144.0830 C   0  0  2  0  0  3  0  0  0  0  0  0
  188.4560  178.0420  145.2140 N   0  0  0  0  0  0  0  0  0  0  0  0
  187.4880  177.0390  146.9800 C   0  0  0  0  0  3  0  0  0  0  0  0
  186.5370  177.3420  146.0170 N   0  0  0  0  0  0  0  0  0  0  0  0
  187.1550  177.9650  144.9510 C   0  0  0  0  0  0  0  0  0  0  0  0
  190.3180  177.4780  142.6990 C   0  0  0  0  0  0  0  0  0  0  0  0
  189.6960  177.1660  140.1240 C   0  0  0  0  0  1  0  0  0  0  0  0
  190.0310  177.3370  141.5370 C   0  0  0  0  0  0  0  0  0  0  0  0
  1  2  2  0  0  0  0
  2  3  1  0  0  0  0
  3 23  1  0  0  0  0
  5  3  1  1  0  0  0
  5  8  1  0  0  0  0
  5  6  1  0  0  0  0
  6  7  1  0  0  0  0
  6  4  1  1  0  0  0
  8 10  1  1  0  0  0
  8  6  1  0  0  0  0
 10  9  1  1  0  0  0
 11 10  1  0  0  0  0
 12 14  1  6  0  0  0
 12 11  1  0  0  0  0
 13 12  1  0  0  0  0
 15  2  1  6  0  0  0
 16 17  1  0  0  0  0
 16 15  1  0  0  0  0
 17 18  1  6  0  0  0
 17 15  1  0  0  0  0
 19 20  2  0  0  0  0
 20 21  1  0  0  0  0
 20 18  1  0  0  0  0
 22 20  2  0  0  0  0
 24 40  1  0  0  0  0
 25 30  1  0  0  0  0
 26 23  1  6  0  0  0
 26 28  1  0  0  0  0
 28 24  1  0  0  0  0
 28 27  2  0  0  0  0
 29 25  2  0  0  0  0
 29 26  1  0  0  0  0
 30 24  2  0  0  0  0
 31 38  2  0  0  0  0
 33 32  1  0  0  0  0
 34 37  1  6  0  0  0
 34 35  1  0  0  0  0
 35 32  1  6  0  0  0
 35 31  1  0  0  0  0
 36 41  1  6  0  0  0
 36 33  1  0  0  0  0
 36 34  1  0  0  0  0
 37 31  1  0  0  0  0
 39 38  1  0  0  0  0
 40 37  1  0  0  0  0
 40 39  2  0  0  0  0
 42 43  1  0  0  0  0
 43 41  3  0  0  0  0
M  END
>  <MODEL>
4

>  <REMARK>
 VINA RESULT:      -6.1      4.595     10.378
  Name = 
  11 active torsions:
  status: ('A' for Active; 'I' for Inactive)
    1  A    between atoms: C_1  and  C_38
    2  A    between atoms: C_3  and  C_43
    3  A    between atoms: N_6  and  S_12
    4  A    between atoms: N_6  and  C_41
    5  A    between atoms: C_10  and  C_28
    6  A    between atoms: C_13  and  C_27
    7  A    between atoms: C_14  and  C_17
    8  A    between atoms: C_19  and  N_29
    9  A    between atoms: C_28  and  N_29
   10  A    between atoms: C_35  and  C_38
   11  A    between atoms: C_35  and  C_42
                            x       y       z     vdW  Elec       q    Type
                         _______ _______ _______ _____ _____    ______ ____

>  <TORSDO>
F 11

$$$$
=
 OpenBabel11042412553D

 43 48  0  0  1  0  0  0  0  0999 V2000
  191.7060  174.8520  136.1320 O   0  0  0  0  0  0  0  0  0  0  0  0
  191.5060  175.7180  137.0260 C   0  0  0  0  0  0  0  0  0  0  0  0
  190.1660  175.9370  137.5180 N   0  0  0  0  0  0  0  0  0  0  0  0
  190.1190  175.4230  134.5980 C   0  0  0  0  0  1  0  0  0  0  0  0
  189.0690  175.0780  137.0380 C   0  0  2  0  0  3  0  0  0  0  0  0
  189.0280  174.8830  135.5160 C   0  0  2  0  0  0  0  0  0  0  0  0
  188.4720  173.6630  135.1360 O   0  0  0  0  0  1  0  0  0  0  0  0
  188.0150  175.8130  136.1710 C   0  0  2  0  0  3  0  0  0  0  0  0
  188.8650  177.7780  134.9050 O   0  0  0  0  0  1  0  0  0  0  0  0
  188.1530  177.3540  136.0280 C   0  0  1  0  0  3  0  0  0  0  0  0
  186.7710  178.0070  136.0230 C   0  0  0  0  0  2  0  0  0  0  0  0
  185.6740  177.0930  136.5710 C   0  0  1  0  0  3  0  0  0  0  0  0
  184.9420  177.7400  137.5710 O   0  0  0  0  0  1  0  0  0  0  0  0
  184.7400  176.6160  135.4650 C   0  0  0  0  0  1  0  0  0  0  0  0
  192.6990  176.3940  137.6680 C   0  0  2  0  0  3  0  0  0  0  0  0
  193.9240  176.3520  136.7710 C   0  0  0  0  0  2  0  0  0  0  0  0
  193.8890  175.4740  138.0010 C   0  0  2  0  0  3  0  0  0  0  0  0
  193.6750  174.0870  137.6020 N   0  0  0  0  0  2  0  0  0  0  0  0
  194.9080  171.7490  137.6880 O   0  0  0  0  0  0  0  0  0  0  0  0
  195.1750  173.2300  137.7650 S   0  0  0  0  0  0  0  0  0  0  0  0
  196.2750  173.6940  136.4450 C   0  0  0  0  0  1  0  0  0  0  0  0
  195.8190  173.5490  139.0870 O   0  0  0  0  0  0  0  0  0  0  0  0
  189.8430  177.1980  138.1850 C   0  0  0  0  0  2  0  0  0  0  0  0
  189.4400  177.8210  141.8480 C   0  0  0  0  0  0  0  0  0  0  0  0
  187.5540  178.6830  140.5380 C   0  0  0  0  0  3  0  0  0  0  0  0
  188.9910  176.9640  139.4330 C   0  0  1  0  0  3  0  0  0  0  0  0
  190.9080  176.3300  140.7130 O   0  0  0  0  0  0  0  0  0  0  0  0
  189.8470  177.0080  140.6750 C   0  0  0  0  0  0  0  0  0  0  0  0
  187.8350  177.9320  139.4720 C   0  0  0  0  0  3  0  0  0  0  0  0
  188.3680  178.6120  141.7610 C   0  0  0  0  0  3  0  0  0  0  0  0
  190.5960  177.6140  145.2170 C   0  0  0  0  0  0  0  0  0  0  0  0
  189.0490  177.8930  147.1080 N   0  0  0  0  0  2  0  0  0  0  0  0
  187.8210  178.0360  146.7750 N   0  0  0  0  0  2  0  0  0  0  0  0
  188.7160  176.8410  145.2390 C   0  0  1  0  0  3  0  0  0  0  0  0
  189.7430  176.9710  146.2060 C   0  0  1  0  0  3  0  0  0  0  0  0
  187.5420  177.2950  145.5880 C   0  0  2  0  0  3  0  0  0  0  0  0
  189.7000  177.3140  144.2780 N   0  0  0  0  0  0  0  0  0  0  0  0
  191.6930  178.2590  144.7200 C   0  0  0  0  0  3  0  0  0  0  0  0
  191.4020  178.3570  143.3670 N   0  0  0  0  0  0  0  0  0  0  0  0
  190.1810  177.7620  143.1230 C   0  0  0  0  0  0  0  0  0  0  0  0
  186.5700  177.7480  144.6290 C   0  0  0  0  0  0  0  0  0  0  0  0
  184.7340  178.5800  142.8810 C   0  0  0  0  0  1  0  0  0  0  0  0
  185.7440  178.1260  143.8360 C   0  0  0  0  0  0  0  0  0  0  0  0
  1  2  2  0  0  0  0
  2  3  1  0  0  0  0
  3 23  1  0  0  0  0
  5  3  1  6  0  0  0
  6  4  1  6  0  0  0
  6  8  1  0  0  0  0
  6  5  1  0  0  0  0
  7  6  1  0  0  0  0
  8 10  1  6  0  0  0
  8  5  1  0  0  0  0
 10  9  1  6  0  0  0
 11 10  1  0  0  0  0
 11 12  1  0  0  0  0
 12 14  1  6  0  0  0
 12 13  1  0  0  0  0
 15  2  1  6  0  0  0
 15 17  1  0  0  0  0
 16 15  1  0  0  0  0
 16 17  1  0  0  0  0
 17 18  1  6  0  0  0
 18 20  1  0  0  0  0
 19 20  2  0  0  0  0
 20 22  2  0  0  0  0
 21 20  1  0  0  0  0
 24 40  1  0  0  0  0
 25 30  1  0  0  0  0
 26 23  1  6  0  0  0
 26 29  1  0  0  0  0
 26 28  1  0  0  0  0
 28 27  2  0  0  0  0
 28 24  1  0  0  0  0
 29 25  2  0  0  0  0
 30 24  2  0  0  0  0
 33 32  1  0  0  0  0
 34 37  1  6  0  0  0
 34 36  1  0  0  0  0
 34 35  1  0  0  0  0
 35 31  1  6  0  0  0
 35 32  1  0  0  0  0
 36 41  1  6  0  0  0
 36 33  1  0  0  0  0
 37 31  1  0  0  0  0
 38 31  2  0  0  0  0
 39 38  1  0  0  0  0
 40 39  2  0  0  0  0
 40 37  1  0  0  0  0
 42 43  1  0  0  0  0
 43 41  3  0  0  0  0
M  END
>  <MODEL>
5

>  <REMARK>
 VINA RESULT:      -5.9      4.078      7.748
  Name = 
  11 active torsions:
  status: ('A' for Active; 'I' for Inactive)
    1  A    between atoms: C_1  and  C_38
    2  A    between atoms: C_3  and  C_43
    3  A    between atoms: N_6  and  S_12
    4  A    between atoms: N_6  and  C_41
    5  A    between atoms: C_10  and  C_28
    6  A    between atoms: C_13  and  C_27
    7  A    between atoms: C_14  and  C_17
    8  A    between atoms: C_19  and  N_29
    9  A    between atoms: C_28  and  N_29
   10  A    between atoms: C_35  and  C_38
   11  A    between atoms: C_35  and  C_42
                            x       y       z     vdW  Elec       q    Type
                         _______ _______ _______ _____ _____    ______ ____

>  <TORSDO>
F 11

$$$$
=
 OpenBabel11042412553D

 43 48  0  0  1  0  0  0  0  0999 V2000
  187.3060  176.4110  143.8130 O   0  0  0  0  0  0  0  0  0  0  0  0
  187.1700  177.4840  143.1640 C   0  0  0  0  0  0  0  0  0  0  0  0
  185.9170  178.1970  143.2240 N   0  0  0  0  0  0  0  0  0  0  0  0
  184.1360  180.2870  144.3430 C   0  0  0  0  0  1  0  0  0  0  0  0
  184.8510  177.7150  144.1210 C   0  0  2  0  0  3  0  0  0  0  0  0
  183.9860  178.8230  144.7400 C   0  0  2  0  0  0  0  0  0  0  0  0
  182.6870  178.4070  145.0250 O   0  0  0  0  0  1  0  0  0  0  0  0
  185.0300  178.1280  145.6050 C   0  0  2  0  0  3  0  0  0  0  0  0
  186.1800  179.9590  146.8350 O   0  0  0  0  0  1  0  0  0  0  0  0
  186.3460  178.8600  145.9910 C   0  0  1  0  0  3  0  0  0  0  0  0
  187.3240  177.8770  146.6330 C   0  0  0  0  0  2  0  0  0  0  0  0
  187.6960  178.2530  148.0680 C   0  0  1  0  0  3  0  0  0  0  0  0
  187.1700  177.3280  148.9760 O   0  0  0  0  0  1  0  0  0  0  0  0
  189.2060  178.3590  148.2460 C   0  0  0  0  0  1  0  0  0  0  0  0
  188.3770  178.0710  142.4640 C   0  0  2  0  0  3  0  0  0  0  0  0
  189.3710  176.9990  142.0500 C   0  0  0  0  0  2  0  0  0  0  0  0
  189.7200  177.9140  143.2020 C   0  0  2  0  0  3  0  0  0  0  0  0
  189.6060  177.1800  144.4570 N   0  0  0  0  0  2  0  0  0  0  0  0
  191.1130  176.3660  146.4720 O   0  0  0  0  0  0  0  0  0  0  0  0
  191.2030  176.8420  145.0450 S   0  0  0  0  0  0  0  0  0  0  0  0
  191.9500  175.5680  144.0510 C   0  0  0  0  0  1  0  0  0  0  0  0
  192.0540  178.0820  144.9900 O   0  0  0  0  0  0  0  0  0  0  0  0
  185.5810  179.1490  142.1660 C   0  0  0  0  0  2  0  0  0  0  0  0
  183.1350  179.3540  139.3470 C   0  0  0  0  0  0  0  0  0  0  0  0
  185.4350  179.0000  138.5690 C   0  0  0  0  0  3  0  0  0  0  0  0
  184.9630  178.4430  140.9590 C   0  0  1  0  0  3  0  0  0  0  0  0
  182.7500  179.0020  141.6700 O   0  0  0  0  0  0  0  0  0  0  0  0
  183.5630  178.9470  140.7080 C   0  0  0  0  0  0  0  0  0  0  0  0
  185.8640  178.5690  139.7560 C   0  0  0  0  0  3  0  0  0  0  0  0
  184.0320  179.3860  138.3570 C   0  0  0  0  0  3  0  0  0  0  0  0
  179.7810  179.6770  138.1750 C   0  0  0  0  0  0  0  0  0  0  0  0
  179.0450  178.5590  136.1120 N   0  0  0  0  0  2  0  0  0  0  0  0
  179.9310  177.8140  135.5650 N   0  0  0  0  0  2  0  0  0  0  0  0
  180.3560  177.7960  137.6650 C   0  0  1  0  0  3  0  0  0  0  0  0
  179.1400  178.5180  137.5740 C   0  0  1  0  0  3  0  0  0  0  0  0
  180.7690  177.2310  136.5610 C   0  0  2  0  0  3  0  0  0  0  0  0
  180.8540  178.9300  138.4270 N   0  0  0  0  0  0  0  0  0  0  0  0
  179.9080  180.9610  138.6260 C   0  0  0  0  0  3  0  0  0  0  0  0
  181.1810  180.9660  139.1770 N   0  0  0  0  0  0  0  0  0  0  0  0
  181.7340  179.7070  139.0510 C   0  0  0  0  0  0  0  0  0  0  0  0
  182.1580  176.9500  136.3070 C   0  0  0  0  0  0  0  0  0  0  0  0
  184.7300  176.3970  135.8670 C   0  0  0  0  0  1  0  0  0  0  0  0
  183.3200  176.7030  136.1040 C   0  0  0  0  0  0  0  0  0  0  0  0
  2  3  1  0  0  0  0
  2  1  2  0  0  0  0
  5  3  1  6  0  0  0
  5  6  1  0  0  0  0
  5  8  1  0  0  0  0
  6  4  1  6  0  0  0
  6  7  1  0  0  0  0
  6  8  1  0  0  0  0
  8 10  1  6  0  0  0
 10 11  1  0  0  0  0
 10  9  1  1  0  0  0
 11 12  1  0  0  0  0
 12 14  1  6  0  0  0
 12 13  1  0  0  0  0
 15  2  1  1  0  0  0
 15 17  1  0  0  0  0
 16 15  1  0  0  0  0
 16 17  1  0  0  0  0
 17 18  1  1  0  0  0
 18 20  1  0  0  0  0
 20 19  2  0  0  0  0
 21 20  1  0  0  0  0
 22 20  2  0  0  0  0
 23  3  1  0  0  0  0
 24 28  1  0  0  0  0
 25 29  2  0  0  0  0
 26 23  1  1  0  0  0
 28 26  1  0  0  0  0
 28 27  2  0  0  0  0
 29 26  1  0  0  0  0
 30 25  1  0  0  0  0
 30 24  2  0  0  0  0
 31 37  1  0  0  0  0
 31 38  2  0  0  0  0
 33 32  1  0  0  0  0
 33 36  1  0  0  0  0
 34 37  1  6  0  0  0
 35 32  1  6  0  0  0
 35 34  1  0  0  0  0
 35 31  1  0  0  0  0
 36 41  1  6  0  0  0
 36 34  1  0  0  0  0
 37 40  1  0  0  0  0
 38 39  1  0  0  0  0
 40 39  2  0  0  0  0
 40 24  1  0  0  0  0
 42 43  1  0  0  0  0
 43 41  3  0  0  0  0
M  END
>  <MODEL>
6

>  <REMARK>
 VINA RESULT:      -5.8      4.438      7.162
  Name = 
  11 active torsions:
  status: ('A' for Active; 'I' for Inactive)
    1  A    between atoms: C_1  and  C_38
    2  A    between atoms: C_3  and  C_43
    3  A    between atoms: N_6  and  S_12
    4  A    between atoms: N_6  and  C_41
    5  A    between atoms: C_10  and  C_28
    6  A    between atoms: C_13  and  C_27
    7  A    between atoms: C_14  and  C_17
    8  A    between atoms: C_19  and  N_29
    9  A    between atoms: C_28  and  N_29
   10  A    between atoms: C_35  and  C_38
   11  A    between atoms: C_35  and  C_42
                            x       y       z     vdW  Elec       q    Type
                         _______ _______ _______ _____ _____    ______ ____

>  <TORSDO>
F 11

$$$$
=
 OpenBabel11042412553D

 43 48  0  0  1  0  0  0  0  0999 V2000
  190.5920  175.6280  141.8890 O   0  0  0  0  0  0  0  0  0  0  0  0
  190.1990  176.7380  141.4380 C   0  0  0  0  0  0  0  0  0  0  0  0
  188.9330  177.2760  141.8770 N   0  0  0  0  0  0  0  0  0  0  0  0
  187.4980  179.0050  143.8110 C   0  0  0  0  0  1  0  0  0  0  0  0
  188.1680  176.5700  142.9190 C   0  0  2  0  0  3  0  0  0  0  0  0
  187.4910  177.4870  143.9480 C   0  0  2  0  0  0  0  0  0  0  0  0
  186.3300  176.9380  144.4900 O   0  0  0  0  0  1  0  0  0  0  0  0
  188.7470  176.7240  144.3500 C   0  0  2  0  0  3  0  0  0  0  0  0
  190.0350  178.6910  145.1620 O   0  0  0  0  0  1  0  0  0  0  0  0
  190.1040  177.4650  144.4980 C   0  0  1  0  0  3  0  0  0  0  0  0
  191.1180  176.5680  145.2070 C   0  0  0  0  0  2  0  0  0  0  0  0
  191.1290  176.7570  146.7240 C   0  0  1  0  0  3  0  0  0  0  0  0
  189.8640  176.5090  147.2650 O   0  0  0  0  0  1  0  0  0  0  0  0
  192.1680  175.8640  147.3920 C   0  0  0  0  0  1  0  0  0  0  0  0
  191.1370  177.5460  140.5670 C   0  0  2  0  0  3  0  0  0  0  0  0
  190.4800  177.9670  139.2640 C   0  0  0  0  0  2  0  0  0  0  0  0
  191.5410  176.8910  139.2330 C   0  0  2  0  0  3  0  0  0  0  0  0
  190.9100  175.5940  139.0130 N   0  0  0  0  0  2  0  0  0  0  0  0
  190.5800  173.7560  137.1390 O   0  0  0  0  0  0  0  0  0  0  0  0
  191.2340  175.0920  137.3840 S   0  0  0  0  0  0  0  0  0  0  0  0
  190.5660  176.2860  136.2460 C   0  0  0  0  0  1  0  0  0  0  0  0
  192.7170  174.9650  137.1610 O   0  0  0  0  0  0  0  0  0  0  0  0
  188.2600  178.2850  141.0600 C   0  0  0  0  0  2  0  0  0  0  0  0
  185.1460  178.8790  139.0790 C   0  0  0  0  0  0  0  0  0  0  0  0
  186.9370  177.8770  137.7340 C   0  0  0  0  0  3  0  0  0  0  0  0
  187.1480  177.6640  140.2140 C   0  0  1  0  0  3  0  0  0  0  0  0
  185.4610  178.8350  141.4380 O   0  0  0  0  0  0  0  0  0  0  0  0
  185.8880  178.4910  140.3040 C   0  0  0  0  0  0  0  0  0  0  0  0
  187.6190  177.4510  138.7980 C   0  0  0  0  0  3  0  0  0  0  0  0
  185.6610  178.5950  137.8790 C   0  0  0  0  0  3  0  0  0  0  0  0
  181.7210  179.8700  139.2020 C   0  0  0  0  0  0  0  0  0  0  0  0
  179.9270  178.3140  138.5640 N   0  0  0  0  0  2  0  0  0  0  0  0
  180.3260  177.1330  138.2700 N   0  0  0  0  0  2  0  0  0  0  0  0
  181.7350  177.8970  139.6920 C   0  0  1  0  0  3  0  0  0  0  0  0
  180.7320  178.8970  139.6400 C   0  0  1  0  0  3  0  0  0  0  0  0
  181.4720  176.7900  139.0480 C   0  0  2  0  0  3  0  0  0  0  0  0
  182.6780  178.9740  139.4370 N   0  0  0  0  0  0  0  0  0  0  0  0
  182.2100  181.0680  138.7620 C   0  0  0  0  0  3  0  0  0  0  0  0
  183.5780  180.8430  138.7220 N   0  0  0  0  0  0  0  0  0  0  0  0
  183.8380  179.5570  139.1500 C   0  0  0  0  0  0  0  0  0  0  0  0
  182.5040  175.9310  138.5310 C   0  0  0  0  0  0  0  0  0  0  0  0
  184.4480  174.3630  137.5940 C   0  0  0  0  0  1  0  0  0  0  0  0
  183.3780  175.2190  138.1060 C   0  0  0  0  0  0  0  0  0  0  0  0
  2  3  1  0  0  0  0
  2  1  2  0  0  0  0
  5  3  1  6  0  0  0
  5  6  1  0  0  0  0
  5  8  1  0  0  0  0
  6  4  1  6  0  0  0
  6  8  1  0  0  0  0
  6  7  1  0  0  0  0
  8 10  1  6  0  0  0
 10  9  1  1  0  0  0
 10 11  1  0  0  0  0
 11 12  1  0  0  0  0
 12 13  1  0  0  0  0
 12 14  1  1  0  0  0
 15  2  1  1  0  0  0
 16 15  1  0  0  0  0
 17 18  1  1  0  0  0
 17 16  1  0  0  0  0
 17 15  1  0  0  0  0
 19 20  2  0  0  0  0
 20 18  1  0  0  0  0
 21 20  1  0  0  0  0
 22 20  2  0  0  0  0
 23  3  1  0  0  0  0
 24 40  1  0  0  0  0
 24 28  1  0  0  0  0
 25 30  1  0  0  0  0
 25 29  2  0  0  0  0
 26 28  1  0  0  0  0
 26 23  1  1  0  0  0
 28 27  2  0  0  0  0
 29 26  1  0  0  0  0
 30 24  2  0  0  0  0
 31 37  1  0  0  0  0
 31 35  1  0  0  0  0
 33 32  1  0  0  0  0
 33 36  1  0  0  0  0
 34 37  1  6  0  0  0
 35 32  1  6  0  0  0
 35 34  1  0  0  0  0
 36 41  1  6  0  0  0
 36 34  1  0  0  0  0
 38 31  2  0  0  0  0
 39 38  1  0  0  0  0
 39 40  2  0  0  0  0
 40 37  1  0  0  0  0
 42 43  1  0  0  0  0
 43 41  3  0  0  0  0
M  END
>  <MODEL>
7

>  <REMARK>
 VINA RESULT:      -5.6      2.905      6.066
  Name = 
  11 active torsions:
  status: ('A' for Active; 'I' for Inactive)
    1  A    between atoms: C_1  and  C_38
    2  A    between atoms: C_3  and  C_43
    3  A    between atoms: N_6  and  S_12
    4  A    between atoms: N_6  and  C_41
    5  A    between atoms: C_10  and  C_28
    6  A    between atoms: C_13  and  C_27
    7  A    between atoms: C_14  and  C_17
    8  A    between atoms: C_19  and  N_29
    9  A    between atoms: C_28  and  N_29
   10  A    between atoms: C_35  and  C_38
   11  A    between atoms: C_35  and  C_42
                            x       y       z     vdW  Elec       q    Type
                         _______ _______ _______ _____ _____    ______ ____

>  <TORSDO>
F 11

$$$$
=
 OpenBabel11042412553D

 43 48  0  0  1  0  0  0  0  0999 V2000
  185.7690  179.7530  140.8050 O   0  0  0  0  0  0  0  0  0  0  0  0
  186.2000  178.6650  140.3340 C   0  0  0  0  0  0  0  0  0  0  0  0
  187.4750  178.1540  140.7770 N   0  0  0  0  0  0  0  0  0  0  0  0
  189.3120  176.4830  142.3970 C   0  0  0  0  0  1  0  0  0  0  0  0
  188.2070  178.8600  141.8450 C   0  0  2  0  0  3  0  0  0  0  0  0
  189.0980  177.9590  142.7120 C   0  0  2  0  0  0  0  0  0  0  0  0
  190.2020  178.6270  143.2390 O   0  0  0  0  0  1  0  0  0  0  0  0
  187.7780  178.4620  143.2820 C   0  0  2  0  0  3  0  0  0  0  0  0
  186.8050  176.3680  144.2080 O   0  0  0  0  0  1  0  0  0  0  0  0
  186.5660  177.5000  143.4280 C   0  0  1  0  0  3  0  0  0  0  0  0
  185.3630  178.2540  143.9920 C   0  0  0  0  0  2  0  0  0  0  0  0
  185.6560  178.9390  145.3270 C   0  0  1  0  0  3  0  0  0  0  0  0
  185.3050  180.2920  145.2780 O   0  0  0  0  0  1  0  0  0  0  0  0
  184.9330  178.2530  146.4790 C   0  0  0  0  0  1  0  0  0  0  0  0
  185.2970  177.8500  139.4330 C   0  0  2  0  0  3  0  0  0  0  0  0
  184.2830  178.7200  138.7090 C   0  0  0  0  0  2  0  0  0  0  0  0
  183.8080  177.8210  139.8280 C   0  0  2  0  0  3  0  0  0  0  0  0
  183.5090  178.6290  141.0060 N   0  0  0  0  0  2  0  0  0  0  0  0
  181.4760  178.9550  142.6660 O   0  0  0  0  0  0  0  0  0  0  0  0
  181.7870  178.6760  141.2180 S   0  0  0  0  0  0  0  0  0  0  0  0
  181.0950  179.9700  140.2120 C   0  0  0  0  0  1  0  0  0  0  0  0
  181.1760  177.3580  140.8260 O   0  0  0  0  0  0  0  0  0  0  0  0
  188.1890  177.1840  139.9470 C   0  0  0  0  0  2  0  0  0  0  0  0
  190.9270  176.7820  137.4350 C   0  0  0  0  0  0  0  0  0  0  0  0
  188.9160  177.8070  136.4730 C   0  0  0  0  0  3  0  0  0  0  0  0
  189.1290  177.8800  138.9620 C   0  0  1  0  0  3  0  0  0  0  0  0
  191.0200  176.6900  139.8120 O   0  0  0  0  0  0  0  0  0  0  0  0
  190.3990  177.0830  138.7880 C   0  0  0  0  0  0  0  0  0  0  0  0
  188.4180  178.1560  137.6610 C   0  0  0  0  0  3  0  0  0  0  0  0
  190.2090  177.1170  136.3590 C   0  0  0  0  0  3  0  0  0  0  0  0
  193.7340  174.7300  136.6370 C   0  0  0  0  0  0  0  0  0  0  0  0
  193.4340  172.4120  135.8710 N   0  0  0  0  0  2  0  0  0  0  0  0
  192.2130  172.0560  135.7190 N   0  0  0  0  0  2  0  0  0  0  0  0
  192.2650  174.1660  135.3500 C   0  0  1  0  0  3  0  0  0  0  0  0
  193.6290  173.8180  135.5080 C   0  0  1  0  0  3  0  0  0  0  0  0
  191.4230  173.1680  135.3010 C   0  0  2  0  0  3  0  0  0  0  0  0
  192.5130  175.1840  136.3580 N   0  0  0  0  0  0  0  0  0  0  0  0
  194.3080  175.3640  137.7020 C   0  0  0  0  0  3  0  0  0  0  0  0
  193.3240  176.2620  138.0900 N   0  0  0  0  0  0  0  0  0  0  0  0
  192.2400  176.1370  137.2440 C   0  0  0  0  0  0  0  0  0  0  0  0
  190.0430  173.2980  135.6870 C   0  0  0  0  0  0  0  0  0  0  0  0
  187.4970  173.5680  136.4380 C   0  0  0  0  0  1  0  0  0  0  0  0
  188.8910  173.4180  136.0220 C   0  0  0  0  0  0  0  0  0  0  0  0
  2  3  1  0  0  0  0
  2  1  2  0  0  0  0
  5  3  1  6  0  0  0
  5  6  1  0  0  0  0
  5  8  1  0  0  0  0
  6  4  1  6  0  0  0
  6  7  1  0  0  0  0
  6  8  1  0  0  0  0
  8 10  1  6  0  0  0
 10 11  1  0  0  0  0
 10  9  1  1  0  0  0
 11 12  1  0  0  0  0
 12 14  1  1  0  0  0
 13 12  1  0  0  0  0
 15 17  1  0  0  0  0
 15  2  1  1  0  0  0
 16 15  1  0  0  0  0
 16 17  1  0  0  0  0
 17 18  1  1  0  0  0
 18 20  1  0  0  0  0
 20 19  2  0  0  0  0
 21 20  1  0  0  0  0
 22 20  2  0  0  0  0
 23  3  1  0  0  0  0
 24 28  1  0  0  0  0
 25 29  2  0  0  0  0
 26 23  1  1  0  0  0
 28 26  1  0  0  0  0
 28 27  2  0  0  0  0
 29 26  1  0  0  0  0
 30 25  1  0  0  0  0
 30 24  2  0  0  0  0
 31 38  2  0  0  0  0
 33 32  1  0  0  0  0
 34 35  1  0  0  0  0
 34 37  1  1  0  0  0
 35 32  1  1  0  0  0
 35 31  1  0  0  0  0
 36 34  1  0  0  0  0
 36 41  1  1  0  0  0
 36 33  1  0  0  0  0
 37 31  1  0  0  0  0
 37 40  1  0  0  0  0
 38 39  1  0  0  0  0
 40 24  1  0  0  0  0
 40 39  2  0  0  0  0
 41 43  3  0  0  0  0
 43 42  1  0  0  0  0
M  END
>  <MODEL>
8

>  <REMARK>
 VINA RESULT:      -5.5      3.836      8.888
  Name = 
  11 active torsions:
  status: ('A' for Active; 'I' for Inactive)
    1  A    between atoms: C_1  and  C_38
    2  A    between atoms: C_3  and  C_43
    3  A    between atoms: N_6  and  S_12
    4  A    between atoms: N_6  and  C_41
    5  A    between atoms: C_10  and  C_28
    6  A    between atoms: C_13  and  C_27
    7  A    between atoms: C_14  and  C_17
    8  A    between atoms: C_19  and  N_29
    9  A    between atoms: C_28  and  N_29
   10  A    between atoms: C_35  and  C_38
   11  A    between atoms: C_35  and  C_42
                            x       y       z     vdW  Elec       q    Type
                         _______ _______ _______ _____ _____    ______ ____

>  <TORSDO>
F 11

$$$$
=
 OpenBabel11042412553D

 43 48  0  0  1  0  0  0  0  0999 V2000
  188.9650  178.4700  144.9730 O   0  0  0  0  0  0  0  0  0  0  0  0
  188.5270  177.6690  144.1030 C   0  0  0  0  0  0  0  0  0  0  0  0
  189.2180  177.5400  142.8420 N   0  0  0  0  0  0  0  0  0  0  0  0
  191.2820  176.1110  141.2640 C   0  0  0  0  0  1  0  0  0  0  0  0
  190.4810  178.2710  142.6310 C   0  0  2  0  0  3  0  0  0  0  0  0
  191.5570  177.4820  141.8700 C   0  0  2  0  0  0  0  0  0  0  0  0
  192.4210  178.2990  141.1430 O   0  0  0  0  0  1  0  0  0  0  0  0
  191.7000  177.6660  143.3750 C   0  0  2  0  0  3  0  0  0  0  0  0
  192.0720  175.2870  144.0000 O   0  0  0  0  0  1  0  0  0  0  0  0
  191.4330  176.4800  144.3430 C   0  0  1  0  0  3  0  0  0  0  0  0
  191.8230  176.8670  145.7690 C   0  0  0  0  0  2  0  0  0  0  0  0
  191.3100  175.8800  146.8190 C   0  0  1  0  0  3  0  0  0  0  0  0
  192.2890  175.6320  147.7860 O   0  0  0  0  0  1  0  0  0  0  0  0
  190.0340  176.3830  147.4830 C   0  0  0  0  0  1  0  0  0  0  0  0
  187.3760  176.7540  144.4650 C   0  0  2  0  0  3  0  0  0  0  0  0
  186.0600  177.2400  143.8840 C   0  0  0  0  0  2  0  0  0  0  0  0
  186.2940  177.3690  145.3720 C   0  0  2  0  0  3  0  0  0  0  0  0
  186.5450  178.7670  145.7050 N   0  0  0  0  0  2  0  0  0  0  0  0
  184.7560  178.3960  147.6160 O   0  0  0  0  0  0  0  0  0  0  0  0
  186.1000  179.0270  147.3620 S   0  0  0  0  0  0  0  0  0  0  0  0
  187.3090  178.2770  148.4310 C   0  0  0  0  0  1  0  0  0  0  0  0
  186.0180  180.5010  147.6560 O   0  0  0  0  0  0  0  0  0  0  0  0
  188.5090  176.9970  141.6850 C   0  0  0  0  0  2  0  0  0  0  0  0
  186.8600  177.8470  138.4400 C   0  0  0  0  0  0  0  0  0  0  0  0
  185.8130  178.9790  140.3480 C   0  0  0  0  0  3  0  0  0  0  0  0
  188.1260  178.1020  140.6990 C   0  0  1  0  0  3  0  0  0  0  0  0
  188.9820  176.8500  138.8510 O   0  0  0  0  0  0  0  0  0  0  0  0
  188.0350  177.5510  139.2960 C   0  0  0  0  0  0  0  0  0  0  0  0
  186.8640  178.7950  141.1470 C   0  0  0  0  0  3  0  0  0  0  0  0
  185.8190  178.5070  138.9550 C   0  0  0  0  0  3  0  0  0  0  0  0
  186.0720  176.8070  135.1190 C   0  0  0  0  0  0  0  0  0  0  0  0
  183.9010  175.7780  134.5940 N   0  0  0  0  0  2  0  0  0  0  0  0
  183.0840  175.7280  135.5780 N   0  0  0  0  0  2  0  0  0  0  0  0
  184.3170  177.4460  135.9190 C   0  0  1  0  0  3  0  0  0  0  0  0
  184.7130  176.9970  134.6360 C   0  0  1  0  0  3  0  0  0  0  0  0
  183.2740  176.8520  136.4360 C   0  0  2  0  0  3  0  0  0  0  0  0
  185.7300  177.4070  136.2580 N   0  0  0  0  0  0  0  0  0  0  0  0
  187.3880  176.4380  135.0860 C   0  0  0  0  0  3  0  0  0  0  0  0
  187.8510  176.8470  136.3270 N   0  0  0  0  0  0  0  0  0  0  0  0
  186.8180  177.4460  137.0200 C   0  0  0  0  0  0  0  0  0  0  0  0
  183.0580  176.7610  137.8560 C   0  0  0  0  0  0  0  0  0  0  0  0
  182.6370  176.6310  140.4870 C   0  0  0  0  0  1  0  0  0  0  0  0
  182.8690  176.6970  139.0440 C   0  0  0  0  0  0  0  0  0  0  0  0
  2  1  2  0  0  0  0
  3  2  1  0  0  0  0
  5  3  1  1  0  0  0
  5  8  1  0  0  0  0
  6  4  1  6  0  0  0
  6  5  1  0  0  0  0
  6  8  1  0  0  0  0
  7  6  1  0  0  0  0
  8 10  1  1  0  0  0
 10  9  1  6  0  0  0
 10 11  1  0  0  0  0
 11 12  1  0  0  0  0
 12 14  1  1  0  0  0
 12 13  1  0  0  0  0
 15  2  1  6  0  0  0
 15 17  1  0  0  0  0
 16 15  1  0  0  0  0
 16 17  1  0  0  0  0
 17 18  1  6  0  0  0
 18 20  1  0  0  0  0
 20 19  2  0  0  0  0
 20 22  2  0  0  0  0
 20 21  1  0  0  0  0
 23  3  1  0  0  0  0
 24 30  2  0  0  0  0
 24 28  1  0  0  0  0
 25 29  2  0  0  0  0
 26 29  1  0  0  0  0
 26 23  1  1  0  0  0
 27 28  2  0  0  0  0
 28 26  1  0  0  0  0
 30 25  1  0  0  0  0
 31 37  1  0  0  0  0
 32 33  1  0  0  0  0
 33 36  1  0  0  0  0
 34 37  1  1  0  0  0
 34 36  1  0  0  0  0
 35 32  1  1  0  0  0
 35 31  1  0  0  0  0
 35 34  1  0  0  0  0
 36 41  1  1  0  0  0
 37 40  1  0  0  0  0
 38 31  2  0  0  0  0
 38 39  1  0  0  0  0
 39 40  2  0  0  0  0
 40 24  1  0  0  0  0
 41 43  3  0  0  0  0
 43 42  1  0  0  0  0
M  END
>  <MODEL>
9

>  <REMARK>
 VINA RESULT:      -5.1      3.398      6.078
  Name = 
  11 active torsions:
  status: ('A' for Active; 'I' for Inactive)
    1  A    between atoms: C_1  and  C_38
    2  A    between atoms: C_3  and  C_43
    3  A    between atoms: N_6  and  S_12
    4  A    between atoms: N_6  and  C_41
    5  A    between atoms: C_10  and  C_28
    6  A    between atoms: C_13  and  C_27
    7  A    between atoms: C_14  and  C_17
    8  A    between atoms: C_19  and  N_29
    9  A    between atoms: C_28  and  N_29
   10  A    between atoms: C_35  and  C_38
   11  A    between atoms: C_35  and  C_42
                            x       y       z     vdW  Elec       q    Type
                         _______ _______ _______ _____ _____    ______ ____

>  <TORSDO>
F 11

$$$$
