=
 OpenBabel11042410483D

 31 33  0  0  0  0  0  0  0  0999 V2000
  190.0930  176.8240  140.2380 C   0  0  0  0  0  3  0  0  0  0  0  0
  189.0110  178.1440  141.9700 N   0  0  0  0  0  0  0  0  0  0  0  0
  188.0440  178.7650  141.3550 C   0  0  0  0  0  3  0  0  0  0  0  0
  188.2350  177.8760  139.0400 C   0  0  0  0  0  0  0  0  0  0  0  0
  189.7190  177.7910  139.1720 C   0  0  0  0  0  2  0  0  0  0  0  0
  187.4850  178.4110  140.0250 C   0  0  0  0  0  0  0  0  0  0  0  0
  189.7580  177.0020  141.5160 C   0  0  0  0  0  0  0  0  0  0  0  0
  187.7100  179.6460  136.7940 O   0  0  0  0  0  0  0  0  0  0  0  0
  187.6710  177.5180  137.7700 N   0  0  0  0  0  2  0  0  0  0  0  0
  187.5330  178.4070  136.6570 C   0  0  0  0  0  0  0  0  0  0  0  0
  187.1300  177.8660  135.3340 C   0  0  0  0  0  1  0  0  0  0  0  0
  190.2920  176.0470  142.5280 C   0  0  0  0  0  2  0  0  0  0  0  0
  191.1720  176.7380  143.4630 N   0  0  0  0  0  2  0  0  0  0  0  0
  189.4900  177.4930  146.7240 C   0  0  0  0  0  3  0  0  0  0  0  0
  189.7220  177.4070  145.3490 C   0  0  0  0  0  3  0  0  0  0  0  0
  192.6030  175.9580  148.0650 N   0  0  0  0  0  1  0  0  0  0  0  0
  190.4460  177.0140  147.6240 C   0  0  0  0  0  3  0  0  0  0  0  0
  190.9130  176.8430  144.8660 C   0  0  0  0  0  0  0  0  0  0  0  0
  191.8640  176.3620  145.7730 C   0  0  0  0  0  3  0  0  0  0  0  0
  191.6320  176.4480  147.1490 C   0  0  0  0  0  0  0  0  0  0  0  0
  186.1210  178.7590  139.7550 N   0  0  0  0  0  2  0  0  0  0  0  0
  185.2740  179.2940  140.7370 N   0  0  0  0  0  2  0  0  0  0  0  0
  184.3170  178.2590  141.1040 C   0  0  0  0  0  2  0  0  0  0  0  0
  183.6420  178.6180  142.3880 C   0  0  0  0  0  0  0  0  0  0  0  0
  182.4630  179.0620  142.3500 O   0  0  0  0  0  0  0  0  0  0  0  0
  185.6340  177.9410  143.7310 C   0  0  0  0  0  3  0  0  0  0  0  0
  186.3030  177.8150  144.9520 C   0  0  0  0  0  3  0  0  0  0  0  0
  183.7330  178.9090  144.8730 C   0  0  0  0  0  3  0  0  0  0  0  0
  184.3430  178.4890  143.6810 C   0  0  0  0  0  0  0  0  0  0  0  0
  185.6870  178.2360  146.1330 C   0  0  0  0  0  3  0  0  0  0  0  0
  184.4020  178.7840  146.0930 C   0  0  0  0  0  3  0  0  0  0  0  0
  1  7  2  0  0  0  0
  3  2  2  0  0  0  0
  4  5  1  0  0  0  0
  4  6  2  0  0  0  0
  5  1  1  0  0  0  0
  6  3  1  0  0  0  0
  7  2  1  0  0  0  0
  7 12  1  0  0  0  0
  9  4  1  0  0  0  0
 10  8  2  0  0  0  0
 10  9  1  0  0  0  0
 11 10  1  0  0  0  0
 12 13  1  0  0  0  0
 13 18  1  0  0  0  0
 14 17  1  0  0  0  0
 15 14  2  0  0  0  0
 18 15  1  0  0  0  0
 18 19  2  0  0  0  0
 19 20  1  0  0  0  0
 20 17  2  0  0  0  0
 20 16  1  0  0  0  0
 21  6  1  0  0  0  0
 21 22  1  0  0  0  0
 22 23  1  0  0  0  0
 23 24  1  0  0  0  0
 24 29  1  0  0  0  0
 25 24  2  0  0  0  0
 26 27  1  0  0  0  0
 27 30  2  0  0  0  0
 28 31  2  0  0  0  0
 29 26  2  0  0  0  0
 29 28  1  0  0  0  0
 31 30  1  0  0  0  0
M  END
>  <MODEL>
1

>  <REMARK>
 VINA RESULT:      -9.6      0.000      0.000
  Name = 
  9 active torsions:
  status: ('A' for Active; 'I' for Inactive)
    1  A    between atoms: C_3  and  N_24
    2  A    between atoms: C_3  and  C_27
    3  A    between atoms: C_11  and  C_12
    4  A    between atoms: C_11  and  C_29
    5  A    between atoms: C_12  and  N_17
    6  A    between atoms: C_14  and  N_22
    7  A    between atoms: C_15  and  N_24
    8  A    between atoms: N_17  and  N_25
    9  A    between atoms: C_21  and  N_25
                            x       y       z     vdW  Elec       q    Type
                         _______ _______ _______ _____ _____    ______ ____

>  <TORSDO>
F 9

$$$$
=
 OpenBabel11042410483D

 31 33  0  0  0  0  0  0  0  0999 V2000
  190.3090  176.9210  140.2700 C   0  0  0  0  0  3  0  0  0  0  0  0
  189.1230  178.2440  141.9300 N   0  0  0  0  0  0  0  0  0  0  0  0
  188.1120  178.7550  141.2840 C   0  0  0  0  0  3  0  0  0  0  0  0
  188.3790  177.7610  139.0190 C   0  0  0  0  0  0  0  0  0  0  0  0
  189.8640  177.7980  139.1540 C   0  0  0  0  0  2  0  0  0  0  0  0
  187.5860  178.2880  139.9760 C   0  0  0  0  0  0  0  0  0  0  0  0
  189.9570  177.1410  141.5370 C   0  0  0  0  0  0  0  0  0  0  0  0
  187.6430  179.3730  136.7140 O   0  0  0  0  0  0  0  0  0  0  0  0
  187.8480  177.2930  137.7720 N   0  0  0  0  0  2  0  0  0  0  0  0
  187.6040  178.1170  136.6260 C   0  0  0  0  0  0  0  0  0  0  0  0
  187.2530  177.4830  135.3300 C   0  0  0  0  0  1  0  0  0  0  0  0
  190.5610  176.2850  142.5980 C   0  0  0  0  0  2  0  0  0  0  0  0
  191.1500  177.1130  143.6440 N   0  0  0  0  0  2  0  0  0  0  0  0
  191.2360  176.4680  147.3330 C   0  0  0  0  0  3  0  0  0  0  0  0
  191.6310  176.5190  145.9930 C   0  0  0  0  0  3  0  0  0  0  0  0
  187.8310  177.9550  147.1240 N   0  0  0  0  0  1  0  0  0  0  0  0
  189.9760  176.9430  147.7070 C   0  0  0  0  0  3  0  0  0  0  0  0
  190.7670  177.0440  145.0210 C   0  0  0  0  0  0  0  0  0  0  0  0
  189.5090  177.5210  145.4030 C   0  0  0  0  0  3  0  0  0  0  0  0
  189.1130  177.4700  146.7430 C   0  0  0  0  0  0  0  0  0  0  0  0
  186.2010  178.5150  139.6890 N   0  0  0  0  0  2  0  0  0  0  0  0
  185.4680  179.5470  140.2940 N   0  0  0  0  0  2  0  0  0  0  0  0
  184.0560  179.2070  140.1820 C   0  0  0  0  0  2  0  0  0  0  0  0
  183.6960  178.1780  141.2040 C   0  0  0  0  0  0  0  0  0  0  0  0
  183.0850  177.1410  140.8310 O   0  0  0  0  0  0  0  0  0  0  0  0
  183.0570  178.9010  143.5060 C   0  0  0  0  0  3  0  0  0  0  0  0
  183.3570  179.0890  144.8580 C   0  0  0  0  0  3  0  0  0  0  0  0
  185.2870  178.0380  143.1320 C   0  0  0  0  0  3  0  0  0  0  0  0
  184.0190  178.3740  142.6310 C   0  0  0  0  0  0  0  0  0  0  0  0
  184.6230  178.7520  145.3470 C   0  0  0  0  0  3  0  0  0  0  0  0
  185.5870  178.2260  144.4840 C   0  0  0  0  0  3  0  0  0  0  0  0
  1  7  2  0  0  0  0
  3  2  2  0  0  0  0
  4  5  1  0  0  0  0
  4  6  2  0  0  0  0
  5  1  1  0  0  0  0
  6  3  1  0  0  0  0
  7  2  1  0  0  0  0
  7 12  1  0  0  0  0
  9  4  1  0  0  0  0
 10  8  2  0  0  0  0
 10  9  1  0  0  0  0
 11 10  1  0  0  0  0
 12 13  1  0  0  0  0
 13 18  1  0  0  0  0
 14 17  1  0  0  0  0
 15 14  2  0  0  0  0
 18 19  2  0  0  0  0
 18 15  1  0  0  0  0
 19 20  1  0  0  0  0
 20 16  1  0  0  0  0
 20 17  2  0  0  0  0
 21  6  1  0  0  0  0
 21 22  1  0  0  0  0
 23 22  1  0  0  0  0
 23 24  1  0  0  0  0
 24 29  1  0  0  0  0
 25 24  2  0  0  0  0
 26 27  1  0  0  0  0
 27 30  2  0  0  0  0
 28 31  2  0  0  0  0
 29 28  1  0  0  0  0
 29 26  2  0  0  0  0
 31 30  1  0  0  0  0
M  END
>  <MODEL>
2

>  <REMARK>
 VINA RESULT:      -9.0      1.145      1.748
  Name = 
  9 active torsions:
  status: ('A' for Active; 'I' for Inactive)
    1  A    between atoms: C_3  and  N_24
    2  A    between atoms: C_3  and  C_27
    3  A    between atoms: C_11  and  C_12
    4  A    between atoms: C_11  and  C_29
    5  A    between atoms: C_12  and  N_17
    6  A    between atoms: C_14  and  N_22
    7  A    between atoms: C_15  and  N_24
    8  A    between atoms: N_17  and  N_25
    9  A    between atoms: C_21  and  N_25
                            x       y       z     vdW  Elec       q    Type
                         _______ _______ _______ _____ _____    ______ ____

>  <TORSDO>
F 9

$$$$
=
 OpenBabel11042410483D

 31 33  0  0  0  0  0  0  0  0999 V2000
  188.0050  178.1610  139.9660 C   0  0  0  0  0  3  0  0  0  0  0  0
  187.7450  177.3190  142.2320 N   0  0  0  0  0  0  0  0  0  0  0  0
  188.8560  176.6830  142.4770 C   0  0  0  0  0  3  0  0  0  0  0  0
  190.1580  177.0740  140.3940 C   0  0  0  0  0  0  0  0  0  0  0  0
  188.9070  177.0420  139.5810 C   0  0  0  0  0  2  0  0  0  0  0  0
  190.1260  176.8190  141.7180 C   0  0  0  0  0  0  0  0  0  0  0  0
  187.4840  178.2720  141.1870 C   0  0  0  0  0  0  0  0  0  0  0  0
  191.3380  175.1980  138.5120 O   0  0  0  0  0  0  0  0  0  0  0  0
  191.3940  177.2250  139.6830 N   0  0  0  0  0  2  0  0  0  0  0  0
  191.8790  176.3220  138.6840 C   0  0  0  0  0  0  0  0  0  0  0  0
  193.0660  176.6960  137.8730 C   0  0  0  0  0  1  0  0  0  0  0  0
  186.4890  179.3540  141.4360 C   0  0  0  0  0  2  0  0  0  0  0  0
  185.1320  178.8420  141.2780 N   0  0  0  0  0  2  0  0  0  0  0  0
  181.8500  178.7830  143.0830 C   0  0  0  0  0  3  0  0  0  0  0  0
  182.7840  178.7860  142.0430 C   0  0  0  0  0  3  0  0  0  0  0  0
  184.0940  178.9390  146.0480 N   0  0  0  0  0  1  0  0  0  0  0  0
  182.2850  178.8350  144.4100 C   0  0  0  0  0  3  0  0  0  0  0  0
  184.1570  178.8430  142.3250 C   0  0  0  0  0  0  0  0  0  0  0  0
  184.5850  178.8910  143.6560 C   0  0  0  0  0  3  0  0  0  0  0  0
  183.6520  178.8880  144.6970 C   0  0  0  0  0  0  0  0  0  0  0  0
  191.3530  176.5550  142.4090 N   0  0  0  0  0  2  0  0  0  0  0  0
  191.3870  176.1520  143.7530 N   0  0  0  0  0  2  0  0  0  0  0  0
  191.5220  177.3520  144.5680 C   0  0  0  0  0  2  0  0  0  0  0  0
  191.1920  177.0420  145.9920 C   0  0  0  0  0  0  0  0  0  0  0  0
  192.0580  176.4670  146.7040 O   0  0  0  0  0  0  0  0  0  0  0  0
  189.7380  177.6590  147.9250 C   0  0  0  0  0  3  0  0  0  0  0  0
  188.4880  177.9720  148.4660 C   0  0  0  0  0  3  0  0  0  0  0  0
  188.7280  177.4010  145.7410 C   0  0  0  0  0  3  0  0  0  0  0  0
  189.8690  177.3710  146.5580 C   0  0  0  0  0  0  0  0  0  0  0  0
  187.3570  177.9990  147.6450 C   0  0  0  0  0  3  0  0  0  0  0  0
  187.4780  177.7140  146.2820 C   0  0  0  0  0  3  0  0  0  0  0  0
  1  7  2  0  0  0  0
  2  3  2  0  0  0  0
  4  6  2  0  0  0  0
  5  1  1  0  0  0  0
  5  4  1  0  0  0  0
  6 21  1  0  0  0  0
  6  3  1  0  0  0  0
  7 12  1  0  0  0  0
  7  2  1  0  0  0  0
  8 10  2  0  0  0  0
  9  4  1  0  0  0  0
 10  9  1  0  0  0  0
 11 10  1  0  0  0  0
 13 12  1  0  0  0  0
 13 18  1  0  0  0  0
 14 17  1  0  0  0  0
 15 18  1  0  0  0  0
 15 14  2  0  0  0  0
 17 20  2  0  0  0  0
 18 19  2  0  0  0  0
 19 20  1  0  0  0  0
 20 16  1  0  0  0  0
 21 22  1  0  0  0  0
 22 23  1  0  0  0  0
 23 24  1  0  0  0  0
 24 29  1  0  0  0  0
 24 25  2  0  0  0  0
 26 27  1  0  0  0  0
 28 31  2  0  0  0  0
 28 29  1  0  0  0  0
 29 26  2  0  0  0  0
 30 27  2  0  0  0  0
 31 30  1  0  0  0  0
M  END
>  <MODEL>
3

>  <REMARK>
 VINA RESULT:      -8.9      2.845      6.272
  Name = 
  9 active torsions:
  status: ('A' for Active; 'I' for Inactive)
    1  A    between atoms: C_3  and  N_24
    2  A    between atoms: C_3  and  C_27
    3  A    between atoms: C_11  and  C_12
    4  A    between atoms: C_11  and  C_29
    5  A    between atoms: C_12  and  N_17
    6  A    between atoms: C_14  and  N_22
    7  A    between atoms: C_15  and  N_24
    8  A    between atoms: N_17  and  N_25
    9  A    between atoms: C_21  and  N_25
                            x       y       z     vdW  Elec       q    Type
                         _______ _______ _______ _____ _____    ______ ____

>  <TORSDO>
F 9

$$$$
=
 OpenBabel11042410483D

 31 33  0  0  1  0  0  0  0  0999 V2000
  189.6250  176.7730  141.3470 C   0  0  0  0  0  3  0  0  0  0  0  0
  187.8520  178.2240  142.1600 N   0  0  0  0  0  0  0  0  0  0  0  0
  187.3100  178.7200  141.0820 C   0  0  0  0  0  3  0  0  0  0  0  0
  188.5910  177.5810  139.2790 C   0  0  1  0  0  3  0  0  0  0  0  0
  189.8240  177.5900  140.1190 C   0  0  0  0  0  2  0  0  0  0  0  0
  187.4620  178.1860  139.7050 C   0  0  0  0  0  0  0  0  0  0  0  0
  188.7130  177.0790  142.2700 C   0  0  0  0  0  0  0  0  0  0  0  0
  189.2980  179.0400  136.8660 O   0  0  0  0  0  0  0  0  0  0  0  0
  188.7100  177.0510  137.9520 N   0  0  0  0  0  2  0  0  0  0  0  0
  189.1670  177.7890  136.8140 C   0  0  0  0  0  0  0  0  0  0  0  0
  189.4460  177.0750  135.5420 C   0  0  0  0  0  1  0  0  0  0  0  0
  188.6810  176.2750  143.5260 C   0  0  0  0  0  2  0  0  0  0  0  0
  189.3900  176.9720  144.5930 N   0  0  0  0  0  2  0  0  0  0  0  0
  188.8630  177.8060  148.2070 C   0  0  0  0  0  3  0  0  0  0  0  0
  189.4850  177.3920  147.0250 C   0  0  0  0  0  3  0  0  0  0  0  0
  185.4570  178.6370  146.9580 N   0  0  0  0  0  1  0  0  0  0  0  0
  187.5270  178.2170  148.1840 C   0  0  0  0  0  3  0  0  0  0  0  0
  188.7740  177.3860  145.8160 C   0  0  0  0  0  0  0  0  0  0  0  0
  187.4390  177.8030  145.8000 C   0  0  0  0  0  3  0  0  0  0  0  0
  186.8150  178.2170  146.9820 C   0  0  0  0  0  0  0  0  0  0  0  0
  186.4040  178.4290  138.7690 N   0  0  0  0  0  0  0  0  0  0  0  0
  185.2220  179.0950  139.1280 N   0  0  0  0  0  2  0  0  0  0  0  0
  184.2180  178.0800  139.4220 C   0  0  0  0  0  2  0  0  0  0  0  0
  183.0520  178.7030  140.1200 C   0  0  0  0  0  0  0  0  0  0  0  0
  182.1470  179.2390  139.4270 O   0  0  0  0  0  0  0  0  0  0  0  0
  181.7230  178.8690  142.2260 C   0  0  0  0  0  3  0  0  0  0  0  0
  181.6360  178.8880  143.6210 C   0  0  0  0  0  3  0  0  0  0  0  0
  184.1220  178.5930  142.3800 C   0  0  0  0  0  3  0  0  0  0  0  0
  182.9670  178.7220  141.5930 C   0  0  0  0  0  0  0  0  0  0  0  0
  182.7920  178.7590  144.3960 C   0  0  0  0  0  3  0  0  0  0  0  0
  184.0350  178.6120  143.7750 C   0  0  0  0  0  3  0  0  0  0  0  0
  1  7  2  0  0  0  0
  2  7  1  0  0  0  0
  3  2  2  0  0  0  0
  4  9  1  6  0  0  0
  4  6  1  0  0  0  0
  4  5  1  0  0  0  0
  5  1  1  0  0  0  0
  6  3  1  0  0  0  0
  7 12  1  0  0  0  0
 10  8  2  0  0  0  0
 10  9  1  0  0  0  0
 11 10  1  0  0  0  0
 12 13  1  0  0  0  0
 13 18  1  0  0  0  0
 15 14  2  0  0  0  0
 16 20  1  0  0  0  0
 17 14  1  0  0  0  0
 18 15  1  0  0  0  0
 19 18  2  0  0  0  0
 19 20  1  0  0  0  0
 20 17  2  0  0  0  0
 21 22  1  0  0  0  0
 21  6  2  0  0  0  0
 22 23  1  0  0  0  0
 23 24  1  0  0  0  0
 24 29  1  0  0  0  0
 25 24  2  0  0  0  0
 26 27  1  0  0  0  0
 27 30  2  0  0  0  0
 28 31  2  0  0  0  0
 29 26  2  0  0  0  0
 29 28  1  0  0  0  0
 31 30  1  0  0  0  0
M  END
>  <MODEL>
4

>  <REMARK>
 VINA RESULT:      -8.7      1.860      2.846
  Name = 
  9 active torsions:
  status: ('A' for Active; 'I' for Inactive)
    1  A    between atoms: C_3  and  N_24
    2  A    between atoms: C_3  and  C_27
    3  A    between atoms: C_11  and  C_12
    4  A    between atoms: C_11  and  C_29
    5  A    between atoms: C_12  and  N_17
    6  A    between atoms: C_14  and  N_22
    7  A    between atoms: C_15  and  N_24
    8  A    between atoms: N_17  and  N_25
    9  A    between atoms: C_21  and  N_25
                            x       y       z     vdW  Elec       q    Type
                         _______ _______ _______ _____ _____    ______ ____

>  <TORSDO>
F 9

$$$$
=
 OpenBabel11042410483D

 31 33  0  0  0  0  0  0  0  0999 V2000
  183.9650  178.6370  138.5310 C   0  0  0  0  0  3  0  0  0  0  0  0
  185.8060  179.0520  140.0640 N   0  0  0  0  0  0  0  0  0  0  0  0
  185.2480  179.1170  141.2410 C   0  0  0  0  0  3  0  0  0  0  0  0
  182.8630  178.6420  140.7180 C   0  0  0  0  0  0  0  0  0  0  0  0
  182.9890  179.3400  139.4060 C   0  0  0  0  0  2  0  0  0  0  0  0
  183.8910  178.6240  141.5910 C   0  0  0  0  0  0  0  0  0  0  0  0
  185.2530  178.5130  138.8520 C   0  0  0  0  0  0  0  0  0  0  0  0
  180.6440  180.1490  141.8390 O   0  0  0  0  0  0  0  0  0  0  0  0
  181.5660  178.1390  141.0680 N   0  0  0  0  0  2  0  0  0  0  0  0
  180.4700  178.9450  141.5150 C   0  0  0  0  0  0  0  0  0  0  0  0
  179.1210  178.3380  141.6450 C   0  0  0  0  0  1  0  0  0  0  0  0
  186.1760  177.9070  137.8500 C   0  0  0  0  0  2  0  0  0  0  0  0
  187.4940  178.5270  137.9340 N   0  0  0  0  0  2  0  0  0  0  0  0
  190.7530  176.7350  137.4890 C   0  0  0  0  0  3  0  0  0  0  0  0
  189.5830  177.4390  137.1900 C   0  0  0  0  0  3  0  0  0  0  0  0
  190.4580  176.4100  141.1850 N   0  0  0  0  0  1  0  0  0  0  0  0
  191.0420  176.3940  138.8130 C   0  0  0  0  0  3  0  0  0  0  0  0
  188.6950  177.8020  138.2140 C   0  0  0  0  0  0  0  0  0  0  0  0
  188.9930  177.4600  139.5370 C   0  0  0  0  0  3  0  0  0  0  0  0
  190.1630  176.7560  139.8370 C   0  0  0  0  0  0  0  0  0  0  0  0
  183.6520  178.2220  142.9460 N   0  0  0  0  0  2  0  0  0  0  0  0
  183.3570  179.1440  143.9620 N   0  0  0  0  0  2  0  0  0  0  0  0
  184.6230  179.6310  144.4940 C   0  0  0  0  0  2  0  0  0  0  0  0
  185.0520  178.7830  145.6470 C   0  0  0  0  0  0  0  0  0  0  0  0
  184.2420  178.5900  146.5930 O   0  0  0  0  0  0  0  0  0  0  0  0
  187.0750  178.0840  146.9330 C   0  0  0  0  0  3  0  0  0  0  0  0
  188.3580  177.5340  146.9920 C   0  0  0  0  0  3  0  0  0  0  0  0
  187.0470  177.7580  144.5350 C   0  0  0  0  0  3  0  0  0  0  0  0
  186.4080  178.2010  145.7030 C   0  0  0  0  0  0  0  0  0  0  0  0
  188.9860  177.0960  145.8220 C   0  0  0  0  0  3  0  0  0  0  0  0
  188.3300  177.2080  144.5940 C   0  0  0  0  0  3  0  0  0  0  0  0
  1  7  2  0  0  0  0
  1  5  1  0  0  0  0
  2  3  2  0  0  0  0
  3  6  1  0  0  0  0
  4  9  1  0  0  0  0
  4  6  2  0  0  0  0
  5  4  1  0  0  0  0
  6 21  1  0  0  0  0
  7  2  1  0  0  0  0
  9 10  1  0  0  0  0
 10 11  1  0  0  0  0
 10  8  2  0  0  0  0
 12 13  1  0  0  0  0
 12  7  1  0  0  0  0
 13 18  1  0  0  0  0
 14 17  1  0  0  0  0
 15 14  2  0  0  0  0
 15 18  1  0  0  0  0
 17 20  2  0  0  0  0
 18 19  2  0  0  0  0
 19 20  1  0  0  0  0
 20 16  1  0  0  0  0
 21 22  1  0  0  0  0
 22 23  1  0  0  0  0
 23 24  1  0  0  0  0
 24 29  1  0  0  0  0
 24 25  2  0  0  0  0
 26 27  1  0  0  0  0
 28 31  2  0  0  0  0
 28 29  1  0  0  0  0
 29 26  2  0  0  0  0
 30 27  2  0  0  0  0
 31 30  1  0  0  0  0
M  END
>  <MODEL>
5

>  <REMARK>
 VINA RESULT:      -8.3      2.653      6.154
  Name = 
  9 active torsions:
  status: ('A' for Active; 'I' for Inactive)
    1  A    between atoms: C_3  and  N_24
    2  A    between atoms: C_3  and  C_27
    3  A    between atoms: C_11  and  C_12
    4  A    between atoms: C_11  and  C_29
    5  A    between atoms: C_12  and  N_17
    6  A    between atoms: C_14  and  N_22
    7  A    between atoms: C_15  and  N_24
    8  A    between atoms: N_17  and  N_25
    9  A    between atoms: C_21  and  N_25
                            x       y       z     vdW  Elec       q    Type
                         _______ _______ _______ _____ _____    ______ ____

>  <TORSDO>
F 9

$$$$
=
 OpenBabel11042410483D

 31 33  0  0  0  0  0  0  0  0999 V2000
  181.9550  178.5450  140.2530 C   0  0  0  0  0  3  0  0  0  0  0  0
  180.7050  179.4450  142.1350 N   0  0  0  0  0  0  0  0  0  0  0  0
  181.5110  179.3270  143.1530 C   0  0  0  0  0  3  0  0  0  0  0  0
  183.5590  178.3880  142.0980 C   0  0  0  0  0  0  0  0  0  0  0  0
  182.7300  177.6200  141.1230 C   0  0  0  0  0  2  0  0  0  0  0  0
  182.9780  179.1020  143.0840 C   0  0  0  0  0  0  0  0  0  0  0  0
  181.0320  179.3770  140.7360 C   0  0  0  0  0  0  0  0  0  0  0  0
  185.3910  179.5270  140.1500 O   0  0  0  0  0  0  0  0  0  0  0  0
  184.9790  178.2010  142.0350 N   0  0  0  0  0  2  0  0  0  0  0  0
  185.8530  178.8720  141.1210 C   0  0  0  0  0  0  0  0  0  0  0  0
  187.3230  178.7540  141.2930 C   0  0  0  0  0  1  0  0  0  0  0  0
  180.2180  180.1680  139.7700 C   0  0  0  0  0  2  0  0  0  0  0  0
  181.0030  181.2720  139.2300 N   0  0  0  0  0  2  0  0  0  0  0  0
  180.4840  181.3330  135.5210 C   0  0  0  0  0  3  0  0  0  0  0  0
  180.5860  180.8570  136.8310 C   0  0  0  0  0  3  0  0  0  0  0  0
  181.2100  184.9480  136.0240 N   0  0  0  0  0  1  0  0  0  0  0  0
  180.6920  182.6890  135.2540 C   0  0  0  0  0  3  0  0  0  0  0  0
  180.8990  181.7340  137.8800 C   0  0  0  0  0  0  0  0  0  0  0  0
  181.1020  183.0910  137.6060 C   0  0  0  0  0  3  0  0  0  0  0  0
  181.0000  183.5680  136.2950 C   0  0  0  0  0  0  0  0  0  0  0  0
  183.7820  179.5710  144.1730 N   0  0  0  0  0  2  0  0  0  0  0  0
  183.5940  179.1270  145.4910 N   0  0  0  0  0  2  0  0  0  0  0  0
  184.5480  178.0530  145.7330 C   0  0  0  0  0  2  0  0  0  0  0  0
  185.7390  178.5820  146.4640 C   0  0  0  0  0  0  0  0  0  0  0  0
  185.5760  179.5160  147.2930 O   0  0  0  0  0  0  0  0  0  0  0  0
  188.0000  177.8870  147.2630 C   0  0  0  0  0  3  0  0  0  0  0  0
  189.2810  177.3820  147.0250 C   0  0  0  0  0  3  0  0  0  0  0  0
  187.4870  177.6960  144.9060 C   0  0  0  0  0  3  0  0  0  0  0  0
  187.0910  178.0490  146.2050 C   0  0  0  0  0  0  0  0  0  0  0  0
  189.6660  177.0350  145.7270 C   0  0  0  0  0  3  0  0  0  0  0  0
  188.7680  177.1920  144.6670 C   0  0  0  0  0  3  0  0  0  0  0  0
  1  7  2  0  0  0  0
  1  5  1  0  0  0  0
  2  3  2  0  0  0  0
  4  6  2  0  0  0  0
  5  4  1  0  0  0  0
  6  3  1  0  0  0  0
  6 21  1  0  0  0  0
  7  2  1  0  0  0  0
  8 10  2  0  0  0  0
  9  4  1  0  0  0  0
 10 11  1  0  0  0  0
 10  9  1  0  0  0  0
 12  7  1  0  0  0  0
 13 12  1  0  0  0  0
 14 15  1  0  0  0  0
 15 18  2  0  0  0  0
 16 20  1  0  0  0  0
 17 14  2  0  0  0  0
 17 20  1  0  0  0  0
 18 13  1  0  0  0  0
 19 18  1  0  0  0  0
 20 19  2  0  0  0  0
 21 22  1  0  0  0  0
 22 23  1  0  0  0  0
 23 24  1  0  0  0  0
 24 25  2  0  0  0  0
 27 26  1  0  0  0  0
 28 29  1  0  0  0  0
 29 24  1  0  0  0  0
 29 26  2  0  0  0  0
 30 27  2  0  0  0  0
 31 28  2  0  0  0  0
 31 30  1  0  0  0  0
M  END
>  <MODEL>
6

>  <REMARK>
 VINA RESULT:      -8.2      4.285      9.316
  Name = 
  9 active torsions:
  status: ('A' for Active; 'I' for Inactive)
    1  A    between atoms: C_3  and  N_24
    2  A    between atoms: C_3  and  C_27
    3  A    between atoms: C_11  and  C_12
    4  A    between atoms: C_11  and  C_29
    5  A    between atoms: C_12  and  N_17
    6  A    between atoms: C_14  and  N_22
    7  A    between atoms: C_15  and  N_24
    8  A    between atoms: N_17  and  N_25
    9  A    between atoms: C_21  and  N_25
                            x       y       z     vdW  Elec       q    Type
                         _______ _______ _______ _____ _____    ______ ____

>  <TORSDO>
F 9

$$$$
=
 OpenBabel11042410483D

 31 33  0  0  0  0  0  0  0  0999 V2000
  191.6990  176.5890  142.7390 C   0  0  0  0  0  3  0  0  0  0  0  0
  189.2740  176.6490  142.5650 N   0  0  0  0  0  0  0  0  0  0  0  0
  188.8530  176.5710  143.7970 C   0  0  0  0  0  3  0  0  0  0  0  0
  190.9840  176.5440  145.0800 C   0  0  0  0  0  0  0  0  0  0  0  0
  191.6580  175.7830  143.9880 C   0  0  0  0  0  2  0  0  0  0  0  0
  189.6650  176.8230  145.0150 C   0  0  0  0  0  0  0  0  0  0  0  0
  190.5950  176.9790  142.1020 C   0  0  0  0  0  0  0  0  0  0  0  0
  191.1740  174.9000  147.4710 O   0  0  0  0  0  0  0  0  0  0  0  0
  191.7560  176.8170  146.2580 N   0  0  0  0  0  2  0  0  0  0  0  0
  191.9020  175.9210  147.3650 C   0  0  0  0  0  0  0  0  0  0  0  0
  192.8940  176.2280  148.4280 C   0  0  0  0  0  1  0  0  0  0  0  0
  190.7420  177.6700  140.7890 C   0  0  0  0  0  2  0  0  0  0  0  0
  190.6610  176.7060  139.6970 N   0  0  0  0  0  2  0  0  0  0  0  0
  188.4530  175.6420  136.8640 C   0  0  0  0  0  3  0  0  0  0  0  0
  189.5140  175.6630  137.7730 C   0  0  0  0  0  3  0  0  0  0  0  0
  186.5140  178.6190  137.9720 N   0  0  0  0  0  1  0  0  0  0  0  0
  187.4590  176.6230  136.9300 C   0  0  0  0  0  3  0  0  0  0  0  0
  189.5880  176.6660  138.7510 C   0  0  0  0  0  0  0  0  0  0  0  0
  188.5880  177.6420  138.8140 C   0  0  0  0  0  3  0  0  0  0  0  0
  187.5260  177.6220  137.9040 C   0  0  0  0  0  0  0  0  0  0  0  0
  188.9870  177.2750  146.1930 N   0  0  0  0  0  2  0  0  0  0  0  0
  187.9940  178.2660  146.1550 N   0  0  0  0  0  2  0  0  0  0  0  0
  186.7040  177.6020  146.2890 C   0  0  0  0  0  2  0  0  0  0  0  0
  185.5990  178.5850  146.0760 C   0  0  0  0  0  0  0  0  0  0  0  0
  185.3120  179.3860  147.0050 O   0  0  0  0  0  0  0  0  0  0  0  0
  185.4500  178.2530  143.6060 C   0  0  0  0  0  3  0  0  0  0  0  0
  184.7280  178.2720  142.4090 C   0  0  0  0  0  3  0  0  0  0  0  0
  183.4790  178.9830  144.8060 C   0  0  0  0  0  3  0  0  0  0  0  0
  184.8310  178.6080  144.8150 C   0  0  0  0  0  0  0  0  0  0  0  0
  183.3820  178.6480  142.4100 C   0  0  0  0  0  3  0  0  0  0  0  0
  182.7570  179.0020  143.6090 C   0  0  0  0  0  3  0  0  0  0  0  0
  1  5  1  0  0  0  0
  2  3  2  0  0  0  0
  3  6  1  0  0  0  0
  4  9  1  0  0  0  0
  5  4  1  0  0  0  0
  6  4  2  0  0  0  0
  6 21  1  0  0  0  0
  7  2  1  0  0  0  0
  7  1  2  0  0  0  0
  9 10  1  0  0  0  0
 10  8  2  0  0  0  0
 10 11  1  0  0  0  0
 12  7  1  0  0  0  0
 13 12  1  0  0  0  0
 14 17  2  0  0  0  0
 14 15  1  0  0  0  0
 15 18  2  0  0  0  0
 17 20  1  0  0  0  0
 18 19  1  0  0  0  0
 18 13  1  0  0  0  0
 20 16  1  0  0  0  0
 20 19  2  0  0  0  0
 22 21  1  0  0  0  0
 22 23  1  0  0  0  0
 24 23  1  0  0  0  0
 24 25  2  0  0  0  0
 26 29  1  0  0  0  0
 27 30  1  0  0  0  0
 27 26  2  0  0  0  0
 28 29  2  0  0  0  0
 29 24  1  0  0  0  0
 30 31  2  0  0  0  0
 31 28  1  0  0  0  0
M  END
>  <MODEL>
7

>  <REMARK>
 VINA RESULT:      -8.1      2.808      7.146
  Name = 
  9 active torsions:
  status: ('A' for Active; 'I' for Inactive)
    1  A    between atoms: C_3  and  N_24
    2  A    between atoms: C_3  and  C_27
    3  A    between atoms: C_11  and  C_12
    4  A    between atoms: C_11  and  C_29
    5  A    between atoms: C_12  and  N_17
    6  A    between atoms: C_14  and  N_22
    7  A    between atoms: C_15  and  N_24
    8  A    between atoms: N_17  and  N_25
    9  A    between atoms: C_21  and  N_25
                            x       y       z     vdW  Elec       q    Type
                         _______ _______ _______ _____ _____    ______ ____

>  <TORSDO>
F 9

$$$$
=
 OpenBabel11042410483D

 31 33  0  0  0  0  0  0  0  0999 V2000
  190.3040  177.0720  140.0420 C   0  0  0  0  0  3  0  0  0  0  0  0
  188.6880  178.3190  141.3630 N   0  0  0  0  0  0  0  0  0  0  0  0
  187.8030  178.7310  140.4980 C   0  0  0  0  0  3  0  0  0  0  0  0
  188.6280  177.7230  138.3790 C   0  0  0  0  0  0  0  0  0  0  0  0
  190.0420  177.8880  138.8260 C   0  0  0  0  0  2  0  0  0  0  0  0
  187.6090  178.1980  139.1260 C   0  0  0  0  0  0  0  0  0  0  0  0
  189.6710  177.2840  141.1960 C   0  0  0  0  0  0  0  0  0  0  0  0
  189.0970  174.9920  137.5000 O   0  0  0  0  0  0  0  0  0  0  0  0
  188.4170  177.1900  137.0650 N   0  0  0  0  0  2  0  0  0  0  0  0
  188.5600  175.8110  136.7090 C   0  0  0  0  0  0  0  0  0  0  0  0
  188.1120  175.3510  135.3690 C   0  0  0  0  0  1  0  0  0  0  0  0
  190.0980  176.5010  142.3910 C   0  0  0  0  0  2  0  0  0  0  0  0
  188.9450  176.1800  143.2250 N   0  0  0  0  0  2  0  0  0  0  0  0
  187.2780  177.8760  146.1190 C   0  0  0  0  0  3  0  0  0  0  0  0
  187.4800  177.3270  144.8500 C   0  0  0  0  0  3  0  0  0  0  0  0
  190.5910  177.2520  147.6950 N   0  0  0  0  0  1  0  0  0  0  0  0
  188.3100  177.8520  147.0610 C   0  0  0  0  0  3  0  0  0  0  0  0
  188.7160  176.7530  144.5150 C   0  0  0  0  0  0  0  0  0  0  0  0
  189.7430  176.7290  145.4650 C   0  0  0  0  0  3  0  0  0  0  0  0
  189.5420  177.2780  146.7350 C   0  0  0  0  0  0  0  0  0  0  0  0
  186.3050  178.3020  138.5420 N   0  0  0  0  0  2  0  0  0  0  0  0
  185.2510  178.9790  139.1750 N   0  0  0  0  0  2  0  0  0  0  0  0
  184.3100  177.9760  139.6560 C   0  0  0  0  0  2  0  0  0  0  0  0
  183.1920  178.6380  140.3950 C   0  0  0  0  0  0  0  0  0  0  0  0
  182.2490  179.1510  139.7360 O   0  0  0  0  0  0  0  0  0  0  0  0
  181.9950  178.9220  142.5670 C   0  0  0  0  0  3  0  0  0  0  0  0
  181.9930  179.0010  143.9630 C   0  0  0  0  0  3  0  0  0  0  0  0
  184.3940  178.6020  142.5900 C   0  0  0  0  0  3  0  0  0  0  0  0
  183.1960  178.7210  141.8690 C   0  0  0  0  0  0  0  0  0  0  0  0
  183.1910  178.8810  144.6720 C   0  0  0  0  0  3  0  0  0  0  0  0
  184.3920  178.6810  143.9860 C   0  0  0  0  0  3  0  0  0  0  0  0
  1  7  2  0  0  0  0
  3  2  2  0  0  0  0
  4  5  1  0  0  0  0
  4  6  2  0  0  0  0
  5  1  1  0  0  0  0
  6  3  1  0  0  0  0
  7  2  1  0  0  0  0
  7 12  1  0  0  0  0
  9  4  1  0  0  0  0
 10  9  1  0  0  0  0
 10  8  2  0  0  0  0
 11 10  1  0  0  0  0
 12 13  1  0  0  0  0
 13 18  1  0  0  0  0
 14 17  1  0  0  0  0
 15 14  2  0  0  0  0
 18 15  1  0  0  0  0
 18 19  2  0  0  0  0
 19 20  1  0  0  0  0
 20 17  2  0  0  0  0
 20 16  1  0  0  0  0
 21  6  1  0  0  0  0
 21 22  1  0  0  0  0
 22 23  1  0  0  0  0
 23 24  1  0  0  0  0
 24 29  1  0  0  0  0
 25 24  2  0  0  0  0
 26 27  1  0  0  0  0
 27 30  2  0  0  0  0
 28 31  2  0  0  0  0
 29 26  2  0  0  0  0
 29 28  1  0  0  0  0
 31 30  1  0  0  0  0
M  END
>  <MODEL>
8

>  <REMARK>
 VINA RESULT:      -7.9      1.691      2.300
  Name = 
  9 active torsions:
  status: ('A' for Active; 'I' for Inactive)
    1  A    between atoms: C_3  and  N_24
    2  A    between atoms: C_3  and  C_27
    3  A    between atoms: C_11  and  C_12
    4  A    between atoms: C_11  and  C_29
    5  A    between atoms: C_12  and  N_17
    6  A    between atoms: C_14  and  N_22
    7  A    between atoms: C_15  and  N_24
    8  A    between atoms: N_17  and  N_25
    9  A    between atoms: C_21  and  N_25
                            x       y       z     vdW  Elec       q    Type
                         _______ _______ _______ _____ _____    ______ ____

>  <TORSDO>
F 9

$$$$
=
 OpenBabel11042410483D

 31 33  0  0  0  0  0  0  0  0999 V2000
  184.5190  177.2850  137.5350 C   0  0  0  0  0  3  0  0  0  0  0  0
  185.2610  179.1820  138.8620 N   0  0  0  0  0  0  0  0  0  0  0  0
  184.4020  179.2560  139.8400 C   0  0  0  0  0  3  0  0  0  0  0  0
  182.9310  177.3000  139.3980 C   0  0  0  0  0  0  0  0  0  0  0  0
  183.0970  177.4790  137.9270 C   0  0  0  0  0  2  0  0  0  0  0  0
  183.4690  178.1820  140.2660 C   0  0  0  0  0  0  0  0  0  0  0  0
  185.4980  178.0750  137.9760 C   0  0  0  0  0  0  0  0  0  0  0  0
  180.0570  177.4830  139.7970 O   0  0  0  0  0  0  0  0  0  0  0  0
  182.0500  176.2540  139.8320 N   0  0  0  0  0  2  0  0  0  0  0  0
  180.6250  176.3650  139.9090 C   0  0  0  0  0  0  0  0  0  0  0  0
  179.8100  175.1510  140.1710 C   0  0  0  0  0  1  0  0  0  0  0  0
  186.8680  177.8800  137.4230 C   0  0  0  0  0  2  0  0  0  0  0  0
  187.8310  178.6980  138.1520 N   0  0  0  0  0  2  0  0  0  0  0  0
  189.5100  177.6150  141.3210 C   0  0  0  0  0  3  0  0  0  0  0  0
  188.5570  178.1470  140.4480 C   0  0  0  0  0  3  0  0  0  0  0  0
  192.1610  176.5790  138.9220 N   0  0  0  0  0  1  0  0  0  0  0  0
  190.7060  177.0960  140.8140 C   0  0  0  0  0  3  0  0  0  0  0  0
  188.7940  178.1640  139.0660 C   0  0  0  0  0  0  0  0  0  0  0  0
  189.9910  177.6410  138.5660 C   0  0  0  0  0  3  0  0  0  0  0  0
  190.9460  177.1080  139.4380 C   0  0  0  0  0  0  0  0  0  0  0  0
  183.0450  178.1640  141.6350 N   0  0  0  0  0  2  0  0  0  0  0  0
  183.6000  179.0120  142.6050 N   0  0  0  0  0  2  0  0  0  0  0  0
  184.7060  178.2990  143.2310 C   0  0  0  0  0  2  0  0  0  0  0  0
  184.8090  178.6800  144.6720 C   0  0  0  0  0  0  0  0  0  0  0  0
  183.8760  179.3490  145.1910 O   0  0  0  0  0  0  0  0  0  0  0  0
  186.0130  178.5680  146.8560 C   0  0  0  0  0  3  0  0  0  0  0  0
  187.1300  178.2210  147.6220 C   0  0  0  0  0  3  0  0  0  0  0  0
  187.1040  177.7020  144.8760 C   0  0  0  0  0  3  0  0  0  0  0  0
  185.9910  178.3110  145.4760 C   0  0  0  0  0  0  0  0  0  0  0  0
  188.2340  177.6150  147.0150 C   0  0  0  0  0  3  0  0  0  0  0  0
  188.2200  177.3550  145.6420 C   0  0  0  0  0  3  0  0  0  0  0  0
  1  5  1  0  0  0  0
  1  7  2  0  0  0  0
  2  3  2  0  0  0  0
  3  6  1  0  0  0  0
  4  9  1  0  0  0  0
  4  6  2  0  0  0  0
  5  4  1  0  0  0  0
  6 21  1  0  0  0  0
  7  2  1  0  0  0  0
  8 10  2  0  0  0  0
  9 10  1  0  0  0  0
 10 11  1  0  0  0  0
 12  7  1  0  0  0  0
 12 13  1  0  0  0  0
 13 18  1  0  0  0  0
 15 14  2  0  0  0  0
 16 20  1  0  0  0  0
 17 14  1  0  0  0  0
 18 15  1  0  0  0  0
 19 18  2  0  0  0  0
 19 20  1  0  0  0  0
 20 17  2  0  0  0  0
 21 22  1  0  0  0  0
 22 23  1  0  0  0  0
 23 24  1  0  0  0  0
 24 25  2  0  0  0  0
 24 29  1  0  0  0  0
 26 27  1  0  0  0  0
 28 29  1  0  0  0  0
 28 31  2  0  0  0  0
 29 26  2  0  0  0  0
 30 27  2  0  0  0  0
 31 30  1  0  0  0  0
M  END
>  <MODEL>
9

>  <REMARK>
 VINA RESULT:      -7.9      3.010      5.645
  Name = 
  9 active torsions:
  status: ('A' for Active; 'I' for Inactive)
    1  A    between atoms: C_3  and  N_24
    2  A    between atoms: C_3  and  C_27
    3  A    between atoms: C_11  and  C_12
    4  A    between atoms: C_11  and  C_29
    5  A    between atoms: C_12  and  N_17
    6  A    between atoms: C_14  and  N_22
    7  A    between atoms: C_15  and  N_24
    8  A    between atoms: N_17  and  N_25
    9  A    between atoms: C_21  and  N_25
                            x       y       z     vdW  Elec       q    Type
                         _______ _______ _______ _____ _____    ______ ____

>  <TORSDO>
F 9

$$$$
