=
 OpenBabel11032420103D

 36 42  0  0  1  0  0  0  0  0999 V2000
  192.3830  177.1690  139.1800 C   0  0  0  0  0  3  0  0  0  0  0  0
  192.2090  176.8950  140.5340 C   0  0  0  0  0  3  0  0  0  0  0  0
  189.7940  176.9670  140.2600 C   0  0  0  0  0  0  0  0  0  0  0  0
  189.9770  177.1980  138.8710 C   0  0  0  0  0  0  0  0  0  0  0  0
  191.2720  177.3140  138.3540 C   0  0  0  0  0  3  0  0  0  0  0  0
  190.9280  176.7830  141.0900 C   0  0  0  0  0  0  0  0  0  0  0  0
  185.7480  175.8940  136.8820 C   0  0  2  0  0  3  0  0  0  0  0  0
  184.9240  176.8200  137.3740 C   0  0  0  0  0  3  0  0  0  0  0  0
  188.2020  176.0350  137.4680 C   0  0  1  0  0  3  0  0  0  0  0  0
  187.0500  176.5490  136.6120 C   0  0  1  0  0  0  0  0  0  0  0  0
  185.6750  178.0780  137.5580 C   0  0  0  0  0  3  0  0  0  0  0  0
  188.2870  175.9680  135.9520 C   0  0  0  0  0  2  0  0  0  0  0  0
  186.8980  177.9360  137.0550 C   0  0  1  0  0  3  0  0  0  0  0  0
  188.8680  177.2440  137.9640 N   0  0  0  0  0  0  0  0  0  0  0  0
  188.0940  178.4580  137.7370 C   0  0  0  0  0  2  0  0  0  0  0  0
  184.0390  173.0610  135.1210 C   0  0  0  0  0  2  0  0  0  0  0  0
  184.4090  172.4150  137.2460 C   0  0  0  0  0  2  0  0  0  0  0  0
  185.3600  174.5510  136.5440 N   0  0  0  0  0  0  0  0  0  0  0  0
  185.0550  174.2030  135.1530 C   0  0  0  0  0  2  0  0  0  0  0  0
  185.4760  173.4730  137.5250 C   0  0  0  0  0  2  0  0  0  0  0  0
  184.4960  171.9900  135.9090 O   0  0  0  0  0  0  0  0  0  0  0  0
  191.1470  178.0370  144.9020 C   0  0  2  0  0  3  0  0  0  0  0  0
  190.4770  175.3640  142.9610 O   0  0  0  0  0  0  0  0  0  0  0  0
  191.4690  178.9160  143.8890 C   0  0  0  0  0  2  0  0  0  0  0  0
  190.8150  176.5030  142.5450 C   0  0  0  0  0  0  0  0  0  0  0  0
  191.0800  177.5280  143.5000 N   0  0  0  0  0  0  0  0  0  0  0  0
  189.8550  178.2850  145.3580 O   0  0  0  0  0  0  0  0  0  0  0  0
  189.7060  177.4560  146.4700 C   0  0  0  0  0  2  0  0  0  0  0  0
  188.4560  178.1050  148.4700 C   0  0  0  0  0  2  0  0  0  0  0  0
  188.1650  176.7660  148.1480 O   0  0  0  0  0  0  0  0  0  0  0  0
  188.3280  177.6540  147.0700 C   0  0  2  0  0  3  0  0  0  0  0  0
  188.5140  176.9280  140.8350 O   0  0  0  0  0  0  0  0  0  0  0  0
  188.0360  177.8990  141.7600 C   0  0  1  0  0  3  0  0  0  0  0  0
  186.9630  178.7370  141.0900 C   0  0  0  0  0  1  0  0  0  0  0  0
  187.4630  177.2050  142.9860 C   0  0  0  0  0  2  0  0  0  0  0  0
  186.2770  177.9820  143.5280 C   0  0  0  0  0  1  0  0  0  0  0  0
  1  2  1  0  0  0  0
  2  6  2  0  0  0  0
  3 32  1  0  0  0  0
  3  6  1  0  0  0  0
  4  3  2  0  0  0  0
  5  4  1  0  0  0  0
  5  1  2  0  0  0  0
  6 25  1  0  0  0  0
  7 18  1  6  0  0  0
  7  8  1  0  0  0  0
  8 11  2  0  0  0  0
  9 12  1  6  0  0  0
  9 14  1  0  0  0  0
 10 12  1  6  0  0  0
 10  7  1  0  0  0  0
 10 13  1  0  0  0  0
 10  9  1  0  0  0  0
 13 11  1  1  0  0  0
 13 15  1  0  0  0  0
 14  4  1  0  0  0  0
 15 14  1  0  0  0  0
 16 19  1  0  0  0  0
 16 21  1  0  0  0  0
 17 20  1  0  0  0  0
 18 20  1  0  0  0  0
 19 18  1  0  0  0  0
 21 17  1  0  0  0  0
 22 27  1  6  0  0  0
 24 22  1  0  0  0  0
 25 23  2  0  0  0  0
 25 26  1  0  0  0  0
 26 24  1  0  0  0  0
 26 22  1  0  0  0  0
 27 28  1  0  0  0  0
 30 29  1  0  0  0  0
 31 28  1  6  0  0  0
 31 30  1  0  0  0  0
 31 29  1  0  0  0  0
 32 33  1  0  0  0  0
 33 34  1  6  0  0  0
 33 35  1  0  0  0  0
 35 36  1  0  0  0  0
M  END
>  <MODEL>
1

>  <REMARK>
 VINA RESULT:      -6.8      0.000      0.000
  Name = 
  9 active torsions:
  status: ('A' for Active; 'I' for Inactive)
    1  A    between atoms: C_1  and  O_17
    2  A    between atoms: C_1  and  C_19
    3  A    between atoms: C_3  and  O_22
    4  A    between atoms: C_5  and  N_29
    5  A    between atoms: C_14  and  O_17
    6  A    between atoms: C_16  and  N_34
    7  A    between atoms: C_21  and  C_25
    8  A    between atoms: O_22  and  C_25
    9  A    between atoms: C_23  and  C_33
                            x       y       z     vdW  Elec       q    Type
                         _______ _______ _______ _____ _____    ______ ____

>  <TORSDO>
F 9

$$$$
=
 OpenBabel11032420103D

 36 42  0  0  1  0  0  0  0  0999 V2000
  191.4630  177.3210  138.7480 C   0  0  0  0  0  3  0  0  0  0  0  0
  191.5460  176.9810  140.0960 C   0  0  0  0  0  3  0  0  0  0  0  0
  189.1250  177.0880  140.2930 C   0  0  0  0  0  0  0  0  0  0  0  0
  189.0430  177.3870  138.9080 C   0  0  0  0  0  0  0  0  0  0  0  0
  190.2180  177.5180  138.1590 C   0  0  0  0  0  3  0  0  0  0  0  0
  190.3930  176.8520  140.8810 C   0  0  0  0  0  0  0  0  0  0  0  0
  184.6440  176.0180  137.3850 C   0  0  2  0  0  3  0  0  0  0  0  0
  183.8510  176.6970  138.2150 C   0  0  0  0  0  3  0  0  0  0  0  0
  187.1430  176.3440  137.5760 C   0  0  1  0  0  3  0  0  0  0  0  0
  185.8090  176.8800  137.0710 C   0  0  1  0  0  0  0  0  0  0  0  0
  184.5100  177.9690  138.5700 C   0  0  0  0  0  3  0  0  0  0  0  0
  186.9440  176.6260  136.0970 C   0  0  0  0  0  2  0  0  0  0  0  0
  185.6220  178.1030  137.8550 C   0  0  1  0  0  3  0  0  0  0  0  0
  187.7820  177.4880  138.2340 N   0  0  0  0  0  0  0  0  0  0  0  0
  186.8760  178.6110  138.4370 C   0  0  0  0  0  2  0  0  0  0  0  0
  182.7800  173.4080  135.4470 C   0  0  0  0  0  2  0  0  0  0  0  0
  183.8910  172.3610  137.1020 C   0  0  0  0  0  2  0  0  0  0  0  0
  184.3190  174.7450  136.8010 N   0  0  0  0  0  0  0  0  0  0  0  0
  183.6180  174.6840  135.5150 C   0  0  0  0  0  2  0  0  0  0  0  0
  184.8670  173.5090  137.3570 C   0  0  0  0  0  2  0  0  0  0  0  0
  183.5840  172.2900  135.7320 O   0  0  0  0  0  0  0  0  0  0  0  0
  191.2960  177.9250  144.6470 C   0  0  2  0  0  3  0  0  0  0  0  0
  190.3140  175.3340  142.7280 O   0  0  0  0  0  0  0  0  0  0  0  0
  191.4130  178.8590  143.6390 C   0  0  0  0  0  2  0  0  0  0  0  0
  190.5540  176.5000  142.3160 C   0  0  0  0  0  0  0  0  0  0  0  0
  190.9780  177.4840  143.2570 N   0  0  0  0  0  0  0  0  0  0  0  0
  190.1070  178.1220  145.3450 O   0  0  0  0  0  0  0  0  0  0  0  0
  190.1930  177.2630  146.4410 C   0  0  0  0  0  2  0  0  0  0  0  0
  191.6550  175.6340  147.5320 C   0  0  0  0  0  2  0  0  0  0  0  0
  192.0310  176.9350  147.9170 O   0  0  0  0  0  0  0  0  0  0  0  0
  191.6170  176.7640  146.5840 C   0  0  2  0  0  3  0  0  0  0  0  0
  187.9780  177.0300  141.1010 O   0  0  0  0  0  0  0  0  0  0  0  0
  187.6660  177.9990  142.0970 C   0  0  1  0  0  3  0  0  0  0  0  0
  186.4770  178.8220  141.6360 C   0  0  0  0  0  1  0  0  0  0  0  0
  187.3380  177.3020  143.4080 C   0  0  0  0  0  2  0  0  0  0  0  0
  186.1340  177.9510  144.0660 C   0  0  0  0  0  1  0  0  0  0  0  0
  1  2  1  0  0  0  0
  2  6  2  0  0  0  0
  3  6  1  0  0  0  0
  3 32  1  0  0  0  0
  4  3  2  0  0  0  0
  5  1  2  0  0  0  0
  5  4  1  0  0  0  0
  6 25  1  0  0  0  0
  7 18  1  6  0  0  0
  7  8  1  0  0  0  0
  8 11  2  0  0  0  0
  9 12  1  6  0  0  0
  9 14  1  0  0  0  0
 10 12  1  6  0  0  0
 10  7  1  0  0  0  0
 10  9  1  0  0  0  0
 10 13  1  0  0  0  0
 13 15  1  1  0  0  0
 13 11  1  0  0  0  0
 14 15  1  0  0  0  0
 14  4  1  0  0  0  0
 16 19  1  0  0  0  0
 16 21  1  0  0  0  0
 17 20  1  0  0  0  0
 18 20  1  0  0  0  0
 19 18  1  0  0  0  0
 21 17  1  0  0  0  0
 22 27  1  1  0  0  0
 24 22  1  0  0  0  0
 25 23  2  0  0  0  0
 25 26  1  0  0  0  0
 26 24  1  0  0  0  0
 26 22  1  0  0  0  0
 27 28  1  0  0  0  0
 29 30  1  0  0  0  0
 31 28  1  1  0  0  0
 31 29  1  0  0  0  0
 31 30  1  0  0  0  0
 32 33  1  0  0  0  0
 33 34  1  6  0  0  0
 33 35  1  0  0  0  0
 35 36  1  0  0  0  0
M  END
>  <MODEL>
2

>  <REMARK>
 VINA RESULT:      -6.8      1.172      1.443
  Name = 
  9 active torsions:
  status: ('A' for Active; 'I' for Inactive)
    1  A    between atoms: C_1  and  O_17
    2  A    between atoms: C_1  and  C_19
    3  A    between atoms: C_3  and  O_22
    4  A    between atoms: C_5  and  N_29
    5  A    between atoms: C_14  and  O_17
    6  A    between atoms: C_16  and  N_34
    7  A    between atoms: C_21  and  C_25
    8  A    between atoms: O_22  and  C_25
    9  A    between atoms: C_23  and  C_33
                            x       y       z     vdW  Elec       q    Type
                         _______ _______ _______ _____ _____    ______ ____

>  <TORSDO>
F 9

$$$$
=
 OpenBabel11032420103D

 36 42  0  0  1  0  0  0  0  0999 V2000
  180.6670  178.6340  143.9590 C   0  0  0  0  0  3  0  0  0  0  0  0
  182.0510  178.6320  144.1080 C   0  0  0  0  0  3  0  0  0  0  0  0
  182.3300  178.9940  141.7200 C   0  0  0  0  0  0  0  0  0  0  0  0
  180.9180  179.0430  141.5810 C   0  0  0  0  0  0  0  0  0  0  0  0
  180.1060  178.8430  142.7030 C   0  0  0  0  0  3  0  0  0  0  0  0
  182.8970  178.8170  143.0070 C   0  0  0  0  0  0  0  0  0  0  0  0
  180.4730  180.9960  137.1620 C   0  0  2  0  0  3  0  0  0  0  0  0
  180.6750  179.9350  136.3790 C   0  0  0  0  0  3  0  0  0  0  0  0
  180.4830  180.6610  139.6660 C   0  0  1  0  0  3  0  0  0  0  0  0
  179.7190  180.5390  138.3530 C   0  0  1  0  0  0  0  0  0  0  0  0
  180.1750  178.7310  137.0690 C   0  0  0  0  0  3  0  0  0  0  0  0
  179.1470  181.3630  139.4910 C   0  0  0  0  0  2  0  0  0  0  0  0
  179.5610  179.0910  138.1930 C   0  0  1  0  0  3  0  0  0  0  0  0
  180.2970  179.3670  140.3300 N   0  0  0  0  0  0  0  0  0  0  0  0
  179.7300  178.3500  139.4540 C   0  0  0  0  0  2  0  0  0  0  0  0
  181.3610  184.6180  137.5400 C   0  0  0  0  0  2  0  0  0  0  0  0
  180.2180  184.3960  135.6120 C   0  0  0  0  0  2  0  0  0  0  0  0
  180.8050  182.3500  136.8070 N   0  0  0  0  0  0  0  0  0  0  0  0
  181.7050  183.1330  137.6590 C   0  0  0  0  0  2  0  0  0  0  0  0
  180.4380  182.8880  135.4980 C   0  0  0  0  0  2  0  0  0  0  0  0
  181.3500  185.0010  136.1870 O   0  0  0  0  0  0  0  0  0  0  0  0
  186.0250  178.6140  145.5220 C   0  0  2  0  0  3  0  0  0  0  0  0
  185.1720  178.8240  142.2680 O   0  0  0  0  0  0  0  0  0  0  0  0
  184.7490  178.6490  146.0430 C   0  0  0  0  0  2  0  0  0  0  0  0
  184.3650  178.7900  143.2340 C   0  0  0  0  0  0  0  0  0  0  0  0
  184.8890  178.7170  144.5590 N   0  0  0  0  0  0  0  0  0  0  0  0
  186.5050  177.3070  145.5210 O   0  0  0  0  0  0  0  0  0  0  0  0
  187.8940  177.4390  145.4970 C   0  0  0  0  0  2  0  0  0  0  0  0
  189.6040  177.1040  147.2130 C   0  0  0  0  0  2  0  0  0  0  0  0
  188.3440  176.7550  147.7320 O   0  0  0  0  0  0  0  0  0  0  0  0
  188.3870  177.8630  146.8660 C   0  0  2  0  0  3  0  0  0  0  0  0
  183.1810  179.1060  140.6090 O   0  0  0  0  0  0  0  0  0  0  0  0
  183.1690  178.1980  139.5120 C   0  0  1  0  0  3  0  0  0  0  0  0
  184.4510  178.3610  138.7160 C   0  0  0  0  0  1  0  0  0  0  0  0
  183.0540  176.7710  140.0260 C   0  0  0  0  0  2  0  0  0  0  0  0
  182.7410  175.8210  138.8840 C   0  0  0  0  0  1  0  0  0  0  0  0
  1  2  1  0  0  0  0
  3  6  1  0  0  0  0
  4  3  2  0  0  0  0
  4  5  1  0  0  0  0
  5  1  2  0  0  0  0
  6 25  1  0  0  0  0
  6  2  2  0  0  0  0
  7  8  1  6  0  0  0
  7 10  1  0  0  0  0
  8 11  2  0  0  0  0
  9 12  1  1  0  0  0
  9 14  1  0  0  0  0
 10 12  1  1  0  0  0
 10  9  1  0  0  0  0
 13 11  1  6  0  0  0
 13 10  1  0  0  0  0
 13 15  1  0  0  0  0
 14  4  1  0  0  0  0
 15 14  1  0  0  0  0
 16 19  1  0  0  0  0
 17 21  1  0  0  0  0
 18  7  1  0  0  0  0
 18 19  1  0  0  0  0
 20 17  1  0  0  0  0
 20 18  1  0  0  0  0
 21 16  1  0  0  0  0
 22 27  1  6  0  0  0
 22 24  1  0  0  0  0
 23 25  2  0  0  0  0
 25 26  1  0  0  0  0
 26 22  1  0  0  0  0
 26 24  1  0  0  0  0
 28 27  1  0  0  0  0
 29 30  1  0  0  0  0
 31 28  1  6  0  0  0
 31 29  1  0  0  0  0
 31 30  1  0  0  0  0
 32  3  1  0  0  0  0
 33 34  1  1  0  0  0
 33 35  1  0  0  0  0
 33 32  1  0  0  0  0
 36 35  1  0  0  0  0
M  END
>  <MODEL>
3

>  <REMARK>
 VINA RESULT:      -6.5      5.577      8.197
  Name = 
  9 active torsions:
  status: ('A' for Active; 'I' for Inactive)
    1  A    between atoms: C_1  and  O_17
    2  A    between atoms: C_1  and  C_19
    3  A    between atoms: C_3  and  O_22
    4  A    between atoms: C_5  and  N_29
    5  A    between atoms: C_14  and  O_17
    6  A    between atoms: C_16  and  N_34
    7  A    between atoms: C_21  and  C_25
    8  A    between atoms: O_22  and  C_25
    9  A    between atoms: C_23  and  C_33
                            x       y       z     vdW  Elec       q    Type
                         _______ _______ _______ _____ _____    ______ ____

>  <TORSDO>
F 9

$$$$
=
 OpenBabel11032420103D

 36 42  0  0  1  0  0  0  0  0999 V2000
  188.5980  178.7790  138.5270 C   0  0  0  0  0  3  0  0  0  0  0  0
  189.8280  178.1380  138.4190 C   0  0  0  0  0  3  0  0  0  0  0  0
  189.5920  177.2560  140.6720 C   0  0  0  0  0  0  0  0  0  0  0  0
  188.3160  177.8730  140.7600 C   0  0  0  0  0  0  0  0  0  0  0  0
  187.8460  178.6420  139.6900 C   0  0  0  0  0  3  0  0  0  0  0  0
  190.3380  177.3680  139.4720 C   0  0  0  0  0  0  0  0  0  0  0  0
  186.6970  178.3460  145.3090 C   0  0  2  0  0  3  0  0  0  0  0  0
  185.6820  179.1960  145.1450 C   0  0  0  0  0  3  0  0  0  0  0  0
  187.9690  177.5830  143.2630 C   0  0  1  0  0  3  0  0  0  0  0  0
  186.7240  177.4450  144.1330 C   0  0  1  0  0  0  0  0  0  0  0  0
  185.0810  178.9700  143.8160 C   0  0  0  0  0  3  0  0  0  0  0  0
  187.6100  176.2400  143.8780 C   0  0  0  0  0  2  0  0  0  0  0  0
  185.6490  177.9080  143.2520 C   0  0  1  0  0  3  0  0  0  0  0  0
  187.4590  177.6690  141.8910 N   0  0  0  0  0  0  0  0  0  0  0  0
  186.0190  177.8770  141.8270 C   0  0  0  0  0  2  0  0  0  0  0  0
  189.5390  177.4280  147.5740 C   0  0  0  0  0  2  0  0  0  0  0  0
  187.6870  177.6020  148.8440 C   0  0  0  0  0  2  0  0  0  0  0  0
  187.5010  178.2520  146.4990 N   0  0  0  0  0  0  0  0  0  0  0  0
  188.9620  178.2130  146.3960 C   0  0  0  0  0  2  0  0  0  0  0  0
  186.8980  178.4170  147.8200 C   0  0  0  0  0  2  0  0  0  0  0  0
  189.0480  177.9500  148.7840 O   0  0  0  0  0  0  0  0  0  0  0  0
  192.6510  174.6070  137.6920 C   0  0  2  0  0  3  0  0  0  0  0  0
  192.6740  177.1290  139.9270 O   0  0  0  0  0  0  0  0  0  0  0  0
  191.3050  174.6400  137.3990 C   0  0  0  0  0  2  0  0  0  0  0  0
  191.6640  176.7220  139.2940 C   0  0  0  0  0  0  0  0  0  0  0  0
  191.8180  175.6290  138.3920 N   0  0  0  0  0  0  0  0  0  0  0  0
  193.3770  175.2290  136.6780 O   0  0  0  0  0  0  0  0  0  0  0  0
  194.6190  174.5930  136.6900 C   0  0  0  0  0  2  0  0  0  0  0  0
  196.4750  174.1380  138.2170 C   0  0  0  0  0  2  0  0  0  0  0  0
  195.6370  173.0090  138.1460 O   0  0  0  0  0  0  0  0  0  0  0  0
  195.0080  174.2670  138.1180 C   0  0  2  0  0  3  0  0  0  0  0  0
  190.1400  176.5450  141.7520 O   0  0  0  0  0  0  0  0  0  0  0  0
  191.3050  176.9590  142.4570 C   0  0  1  0  0  3  0  0  0  0  0  0
  191.0590  178.3270  143.0650 C   0  0  0  0  0  1  0  0  0  0  0  0
  191.6280  175.9540  143.5520 C   0  0  0  0  0  2  0  0  0  0  0  0
  191.6800  176.6430  144.9030 C   0  0  0  0  0  1  0  0  0  0  0  0
  1  5  1  0  0  0  0
  2  1  2  0  0  0  0
  2  6  1  0  0  0  0
  3  4  1  0  0  0  0
  3 32  1  0  0  0  0
  4 14  1  0  0  0  0
  5  4  2  0  0  0  0
  6  3  2  0  0  0  0
  7  8  1  1  0  0  0
  7 18  1  0  0  0  0
  9 12  1  6  0  0  0
  9 10  1  0  0  0  0
 10 12  1  1  0  0  0
 10  7  1  0  0  0  0
 11  8  2  0  0  0  0
 13 15  1  6  0  0  0
 13 11  1  0  0  0  0
 13 10  1  0  0  0  0
 14  9  1  0  0  0  0
 15 14  1  0  0  0  0
 16 21  1  0  0  0  0
 18 20  1  0  0  0  0
 19 18  1  0  0  0  0
 19 16  1  0  0  0  0
 20 17  1  0  0  0  0
 21 17  1  0  0  0  0
 22 27  1  6  0  0  0
 22 26  1  0  0  0  0
 24 22  1  0  0  0  0
 24 26  1  0  0  0  0
 25  6  1  0  0  0  0
 25 23  2  0  0  0  0
 26 25  1  0  0  0  0
 27 28  1  0  0  0  0
 30 29  1  0  0  0  0
 31 28  1  6  0  0  0
 31 30  1  0  0  0  0
 31 29  1  0  0  0  0
 32 33  1  0  0  0  0
 33 34  1  1  0  0  0
 33 35  1  0  0  0  0
 35 36  1  0  0  0  0
M  END
>  <MODEL>
4

>  <REMARK>
 VINA RESULT:      -6.3      3.628      8.286
  Name = 
  9 active torsions:
  status: ('A' for Active; 'I' for Inactive)
    1  A    between atoms: C_1  and  O_17
    2  A    between atoms: C_1  and  C_19
    3  A    between atoms: C_3  and  O_22
    4  A    between atoms: C_5  and  N_29
    5  A    between atoms: C_14  and  O_17
    6  A    between atoms: C_16  and  N_34
    7  A    between atoms: C_21  and  C_25
    8  A    between atoms: O_22  and  C_25
    9  A    between atoms: C_23  and  C_33
                            x       y       z     vdW  Elec       q    Type
                         _______ _______ _______ _____ _____    ______ ____

>  <TORSDO>
F 9

$$$$
=
 OpenBabel11032420103D

 36 42  0  0  1  0  0  0  0  0999 V2000
  192.1660  177.1310  141.4280 C   0  0  0  0  0  3  0  0  0  0  0  0
  191.3390  176.8720  142.5180 C   0  0  0  0  0  3  0  0  0  0  0  0
  189.3700  177.1940  141.1280 C   0  0  0  0  0  0  0  0  0  0  0  0
  190.2180  177.4110  140.0100 C   0  0  0  0  0  0  0  0  0  0  0  0
  191.6060  177.3950  140.1810 C   0  0  0  0  0  3  0  0  0  0  0  0
  189.9450  176.8900  142.3880 C   0  0  0  0  0  0  0  0  0  0  0  0
  187.1360  176.8460  136.3050 C   0  0  2  0  0  3  0  0  0  0  0  0
  186.4770  178.0050  136.3260 C   0  0  0  0  0  3  0  0  0  0  0  0
  189.0030  176.4940  137.9710 C   0  0  1  0  0  3  0  0  0  0  0  0
  188.5470  177.1250  136.6600 C   0  0  1  0  0  0  0  0  0  0  0  0
  187.3880  179.0630  136.8060 C   0  0  0  0  0  3  0  0  0  0  0  0
  189.7300  176.1730  136.6760 C   0  0  0  0  0  2  0  0  0  0  0  0
  188.6110  178.5610  136.9400 C   0  0  1  0  0  3  0  0  0  0  0  0
  189.6890  177.5750  138.6870 N   0  0  0  0  0  0  0  0  0  0  0  0
  189.4730  178.8850  138.0900 C   0  0  0  0  0  2  0  0  0  0  0  0
  185.4390  173.5060  136.4330 C   0  0  0  0  0  2  0  0  0  0  0  0
  186.8860  173.4670  134.7070 C   0  0  0  0  0  2  0  0  0  0  0  0
  186.5780  175.5960  135.8620 N   0  0  0  0  0  0  0  0  0  0  0  0
  185.4100  175.0310  136.5440 C   0  0  0  0  0  2  0  0  0  0  0  0
  187.0180  174.9870  134.6080 C   0  0  0  0  0  2  0  0  0  0  0  0
  185.5760  173.1260  135.0850 O   0  0  0  0  0  0  0  0  0  0  0  0
  188.9720  177.7240  146.1970 C   0  0  2  0  0  3  0  0  0  0  0  0
  188.2310  175.7270  143.5840 O   0  0  0  0  0  0  0  0  0  0  0  0
  190.0050  178.4180  145.6040 C   0  0  0  0  0  2  0  0  0  0  0  0
  189.1220  176.6170  143.5950 C   0  0  0  0  0  0  0  0  0  0  0  0
  189.3230  177.3690  144.7900 N   0  0  0  0  0  0  0  0  0  0  0  0
  187.8130  178.4970  146.1950 O   0  0  0  0  0  0  0  0  0  0  0  0
  186.7690  177.5710  146.2090 C   0  0  0  0  0  2  0  0  0  0  0  0
  184.6650  178.7790  145.8990 C   0  0  0  0  0  2  0  0  0  0  0  0
  185.5470  179.5620  146.6670 O   0  0  0  0  0  0  0  0  0  0  0  0
  185.5640  178.1750  146.9020 C   0  0  2  0  0  3  0  0  0  0  0  0
  187.9730  177.2840  141.0200 O   0  0  0  0  0  0  0  0  0  0  0  0
  187.2500  178.5040  141.1510 C   0  0  1  0  0  3  0  0  0  0  0  0
  186.2270  178.5970  140.0340 C   0  0  0  0  0  1  0  0  0  0  0  0
  186.5520  178.5460  142.5010 C   0  0  0  0  0  2  0  0  0  0  0  0
  185.2400  179.3020  142.3940 C   0  0  0  0  0  1  0  0  0  0  0  0
  1  2  1  0  0  0  0
  3  6  1  0  0  0  0
  4  5  1  0  0  0  0
  4  3  2  0  0  0  0
  5  1  2  0  0  0  0
  6  2  2  0  0  0  0
  6 25  1  0  0  0  0
  7 18  1  6  0  0  0
  7  8  1  0  0  0  0
  7 10  1  0  0  0  0
  8 11  2  0  0  0  0
  9 12  1  6  0  0  0
  9 14  1  0  0  0  0
 10 12  1  6  0  0  0
 10 13  1  0  0  0  0
 10  9  1  0  0  0  0
 13 11  1  1  0  0  0
 13 15  1  0  0  0  0
 14  4  1  0  0  0  0
 15 14  1  0  0  0  0
 16 19  1  0  0  0  0
 17 21  1  0  0  0  0
 18 19  1  0  0  0  0
 20 17  1  0  0  0  0
 20 18  1  0  0  0  0
 21 16  1  0  0  0  0
 22 27  1  6  0  0  0
 23 25  2  0  0  0  0
 24 22  1  0  0  0  0
 25 26  1  0  0  0  0
 26 24  1  0  0  0  0
 26 22  1  0  0  0  0
 27 28  1  0  0  0  0
 29 30  1  0  0  0  0
 29 31  1  0  0  0  0
 30 31  1  0  0  0  0
 31 28  1  6  0  0  0
 32  3  1  0  0  0  0
 32 33  1  0  0  0  0
 33 34  1  6  0  0  0
 33 35  1  0  0  0  0
 36 35  1  0  0  0  0
M  END
>  <MODEL>
5

>  <REMARK>
 VINA RESULT:      -6.1      1.663      2.237
  Name = 
  9 active torsions:
  status: ('A' for Active; 'I' for Inactive)
    1  A    between atoms: C_1  and  O_17
    2  A    between atoms: C_1  and  C_19
    3  A    between atoms: C_3  and  O_22
    4  A    between atoms: C_5  and  N_29
    5  A    between atoms: C_14  and  O_17
    6  A    between atoms: C_16  and  N_34
    7  A    between atoms: C_21  and  C_25
    8  A    between atoms: O_22  and  C_25
    9  A    between atoms: C_23  and  C_33
                            x       y       z     vdW  Elec       q    Type
                         _______ _______ _______ _____ _____    ______ ____

>  <TORSDO>
F 9

$$$$
=
 OpenBabel11032420103D

 36 42  0  0  1  0  0  0  0  0999 V2000
  190.0160  178.1710  139.5560 C   0  0  0  0  0  3  0  0  0  0  0  0
  190.4520  177.3900  140.6230 C   0  0  0  0  0  3  0  0  0  0  0  0
  188.2390  177.4840  141.6240 C   0  0  0  0  0  0  0  0  0  0  0  0
  187.7870  178.2400  140.5110 C   0  0  0  0  0  0  0  0  0  0  0  0
  188.6900  178.5890  139.5000 C   0  0  0  0  0  3  0  0  0  0  0  0
  189.5810  177.0300  141.6590 C   0  0  0  0  0  0  0  0  0  0  0  0
  183.0430  177.5910  139.7270 C   0  0  2  0  0  3  0  0  0  0  0  0
  182.5540  177.6720  140.9660 C   0  0  0  0  0  3  0  0  0  0  0  0
  185.5240  177.9330  139.3900 C   0  0  1  0  0  3  0  0  0  0  0  0
  184.1550  178.5640  139.6180 C   0  0  1  0  0  0  0  0  0  0  0  0
  183.3890  178.6040  141.7480 C   0  0  0  0  0  3  0  0  0  0  0  0
  184.9720  178.9420  138.3970 C   0  0  0  0  0  2  0  0  0  0  0  0
  184.2850  179.1710  140.9450 C   0  0  1  0  0  3  0  0  0  0  0  0
  186.4070  178.5970  140.3540 N   0  0  0  0  0  0  0  0  0  0  0  0
  185.6850  179.3780  141.3500 C   0  0  0  0  0  2  0  0  0  0  0  0
  182.5950  174.8060  137.2590 C   0  0  0  0  0  2  0  0  0  0  0  0
  181.6790  176.6590  136.3660 C   0  0  0  0  0  2  0  0  0  0  0  0
  182.4680  176.8010  138.6710 N   0  0  0  0  0  0  0  0  0  0  0  0
  182.6010  175.3410  138.6910 C   0  0  0  0  0  2  0  0  0  0  0  0
  181.5660  177.4070  137.6940 C   0  0  0  0  0  2  0  0  0  0  0  0
  181.4650  175.2850  136.5730 O   0  0  0  0  0  0  0  0  0  0  0  0
  191.6810  176.7350  145.0720 C   0  0  2  0  0  3  0  0  0  0  0  0
  189.8690  174.9720  142.8430 O   0  0  0  0  0  0  0  0  0  0  0  0
  191.6070  177.9560  144.4360 C   0  0  0  0  0  2  0  0  0  0  0  0
  190.1150  176.2050  142.7730 C   0  0  0  0  0  0  0  0  0  0  0  0
  190.9140  176.8010  143.7930 N   0  0  0  0  0  0  0  0  0  0  0  0
  190.7840  176.6960  146.1380 O   0  0  0  0  0  0  0  0  0  0  0  0
  191.5720  176.8980  147.2720 C   0  0  0  0  0  2  0  0  0  0  0  0
  192.9360  175.7760  148.9630 C   0  0  0  0  0  2  0  0  0  0  0  0
  193.5390  175.6270  147.7000 O   0  0  0  0  0  0  0  0  0  0  0  0
  192.1340  175.5710  147.7420 C   0  0  2  0  0  3  0  0  0  0  0  0
  187.3890  177.1830  142.7010 O   0  0  0  0  0  0  0  0  0  0  0  0
  187.1170  178.0870  143.7660 C   0  0  1  0  0  3  0  0  0  0  0  0
  185.6740  177.9180  144.2050 C   0  0  0  0  0  1  0  0  0  0  0  0
  188.0510  177.8060  144.9320 C   0  0  0  0  0  2  0  0  0  0  0  0
  187.2540  177.5030  146.1880 C   0  0  0  0  0  1  0  0  0  0  0  0
  1  2  1  0  0  0  0
  2  6  2  0  0  0  0
  3  6  1  0  0  0  0
  3 32  1  0  0  0  0
  4  3  2  0  0  0  0
  5  1  2  0  0  0  0
  5  4  1  0  0  0  0
  6 25  1  0  0  0  0
  7 18  1  6  0  0  0
  7  8  1  0  0  0  0
  8 11  2  0  0  0  0
  9 12  1  6  0  0  0
  9 10  1  0  0  0  0
  9 14  1  0  0  0  0
 10 12  1  6  0  0  0
 10  7  1  0  0  0  0
 10 13  1  0  0  0  0
 13 15  1  1  0  0  0
 13 11  1  0  0  0  0
 14  4  1  0  0  0  0
 14 15  1  0  0  0  0
 16 19  1  0  0  0  0
 17 21  1  0  0  0  0
 17 20  1  0  0  0  0
 18 19  1  0  0  0  0
 20 18  1  0  0  0  0
 21 16  1  0  0  0  0
 22 27  1  1  0  0  0
 24 22  1  0  0  0  0
 25 23  2  0  0  0  0
 25 26  1  0  0  0  0
 26 24  1  0  0  0  0
 26 22  1  0  0  0  0
 27 28  1  0  0  0  0
 30 31  1  0  0  0  0
 30 29  1  0  0  0  0
 31 28  1  6  0  0  0
 31 29  1  0  0  0  0
 32 33  1  0  0  0  0
 33 34  1  1  0  0  0
 33 35  1  0  0  0  0
 35 36  1  0  0  0  0
M  END
>  <MODEL>
6

>  <REMARK>
 VINA RESULT:      -5.8      2.622      3.584
  Name = 
  9 active torsions:
  status: ('A' for Active; 'I' for Inactive)
    1  A    between atoms: C_1  and  O_17
    2  A    between atoms: C_1  and  C_19
    3  A    between atoms: C_3  and  O_22
    4  A    between atoms: C_5  and  N_29
    5  A    between atoms: C_14  and  O_17
    6  A    between atoms: C_16  and  N_34
    7  A    between atoms: C_21  and  C_25
    8  A    between atoms: O_22  and  C_25
    9  A    between atoms: C_23  and  C_33
                            x       y       z     vdW  Elec       q    Type
                         _______ _______ _______ _____ _____    ______ ____

>  <TORSDO>
F 9

$$$$
=
 OpenBabel11032420103D

 36 42  0  0  1  0  0  0  0  0999 V2000
  191.7820  175.1940  137.4530 C   0  0  0  0  0  3  0  0  0  0  0  0
  190.6640  175.1920  136.6240 C   0  0  0  0  0  3  0  0  0  0  0  0
  189.3910  176.4050  138.3030 C   0  0  0  0  0  0  0  0  0  0  0  0
  190.5480  176.4460  139.1240 C   0  0  0  0  0  0  0  0  0  0  0  0
  191.7240  175.8220  138.6930 C   0  0  0  0  0  3  0  0  0  0  0  0
  189.4660  175.7970  137.0250 C   0  0  0  0  0  0  0  0  0  0  0  0
  189.4180  177.5330  143.7160 C   0  0  2  0  0  3  0  0  0  0  0  0
  190.4990  177.1010  144.3670 C   0  0  0  0  0  3  0  0  0  0  0  0
  189.3760  177.3440  141.1960 C   0  0  1  0  0  3  0  0  0  0  0  0
  189.8680  178.1020  142.4240 C   0  0  1  0  0  0  0  0  0  0  0  0
  191.6770  177.2580  143.4910 C   0  0  0  0  0  3  0  0  0  0  0  0
  189.0510  178.8180  141.3640 C   0  0  0  0  0  2  0  0  0  0  0  0
  191.3180  177.8990  142.3830 C   0  0  1  0  0  3  0  0  0  0  0  0
  190.5680  177.1750  140.3580 N   0  0  0  0  0  0  0  0  0  0  0  0
  191.8070  177.5030  141.0520 C   0  0  0  0  0  2  0  0  0  0  0  0
  185.7350  178.1730  143.9920 C   0  0  0  0  0  2  0  0  0  0  0  0
  186.5950  178.2470  146.0720 C   0  0  0  0  0  2  0  0  0  0  0  0
  188.0890  177.5630  144.2670 N   0  0  0  0  0  0  0  0  0  0  0  0
  186.9260  177.4300  143.3850 C   0  0  0  0  0  2  0  0  0  0  0  0
  187.8810  177.5030  145.7130 C   0  0  0  0  0  2  0  0  0  0  0  0
  185.5240  177.7420  145.3150 O   0  0  0  0  0  0  0  0  0  0  0  0
  185.8260  174.3830  136.0770 C   0  0  2  0  0  3  0  0  0  0  0  0
  188.2870  176.4430  135.0470 O   0  0  0  0  0  0  0  0  0  0  0  0
  186.4470  173.9190  137.2170 C   0  0  0  0  0  2  0  0  0  0  0  0
  188.3070  175.7460  136.0960 C   0  0  0  0  0  0  0  0  0  0  0  0
  187.1880  174.9110  136.3830 N   0  0  0  0  0  0  0  0  0  0  0  0
  184.8780  175.3500  136.4090 O   0  0  0  0  0  0  0  0  0  0  0  0
  183.9100  174.6610  137.1400 C   0  0  0  0  0  2  0  0  0  0  0  0
  182.6690  175.6320  139.0110 C   0  0  0  0  0  2  0  0  0  0  0  0
  181.7910  174.8930  138.1970 O   0  0  0  0  0  0  0  0  0  0  0  0
  182.8040  175.6160  137.5420 C   0  0  2  0  0  3  0  0  0  0  0  0
  188.1670  176.9440  138.7310 O   0  0  0  0  0  0  0  0  0  0  0  0
  187.7320  178.2630  138.4130 C   0  0  1  0  0  3  0  0  0  0  0  0
  188.7970  178.9490  137.5770 C   0  0  0  0  0  1  0  0  0  0  0  0
  186.4240  178.2010  137.6410 C   0  0  0  0  0  2  0  0  0  0  0  0
  185.2520  178.4780  138.5640 C   0  0  0  0  0  1  0  0  0  0  0  0
  1  5  1  0  0  0  0
  2  6  1  0  0  0  0
  2  1  2  0  0  0  0
  3 32  1  0  0  0  0
  3  4  1  0  0  0  0
  4 14  1  0  0  0  0
  5  4  2  0  0  0  0
  6  3  2  0  0  0  0
  7 18  1  1  0  0  0
  7  8  1  0  0  0  0
  9 12  1  6  0  0  0
  9 10  1  0  0  0  0
 10 12  1  6  0  0  0
 10  7  1  0  0  0  0
 11  8  2  0  0  0  0
 13 15  1  6  0  0  0
 13 10  1  0  0  0  0
 13 11  1  0  0  0  0
 14 15  1  0  0  0  0
 14  9  1  0  0  0  0
 16 21  1  0  0  0  0
 18 20  1  0  0  0  0
 19 16  1  0  0  0  0
 19 18  1  0  0  0  0
 20 17  1  0  0  0  0
 21 17  1  0  0  0  0
 22 26  1  0  0  0  0
 22 27  1  1  0  0  0
 22 24  1  0  0  0  0
 23 25  2  0  0  0  0
 25 26  1  0  0  0  0
 25  6  1  0  0  0  0
 26 24  1  0  0  0  0
 27 28  1  0  0  0  0
 30 29  1  0  0  0  0
 31 28  1  1  0  0  0
 31 30  1  0  0  0  0
 31 29  1  0  0  0  0
 33 34  1  6  0  0  0
 33 32  1  0  0  0  0
 35 33  1  0  0  0  0
 35 36  1  0  0  0  0
M  END
>  <MODEL>
7

>  <REMARK>
 VINA RESULT:      -5.7      2.224      7.777
  Name = 
  9 active torsions:
  status: ('A' for Active; 'I' for Inactive)
    1  A    between atoms: C_1  and  O_17
    2  A    between atoms: C_1  and  C_19
    3  A    between atoms: C_3  and  O_22
    4  A    between atoms: C_5  and  N_29
    5  A    between atoms: C_14  and  O_17
    6  A    between atoms: C_16  and  N_34
    7  A    between atoms: C_21  and  C_25
    8  A    between atoms: O_22  and  C_25
    9  A    between atoms: C_23  and  C_33
                            x       y       z     vdW  Elec       q    Type
                         _______ _______ _______ _____ _____    ______ ____

>  <TORSDO>
F 9

$$$$
=
 OpenBabel11032420103D

 36 42  0  0  1  0  0  0  0  0999 V2000
  185.5760  172.8910  137.5240 C   0  0  0  0  0  3  0  0  0  0  0  0
  186.7940  173.4810  137.2020 C   0  0  0  0  0  3  0  0  0  0  0  0
  185.7250  175.6590  137.0520 C   0  0  0  0  0  0  0  0  0  0  0  0
  184.4940  175.0600  137.4280 C   0  0  0  0  0  0  0  0  0  0  0  0
  184.4340  173.6790  137.6410 C   0  0  0  0  0  3  0  0  0  0  0  0
  186.8920  174.8590  136.9700 C   0  0  0  0  0  0  0  0  0  0  0  0
  181.6250  178.2830  139.6470 C   0  0  2  0  0  3  0  0  0  0  0  0
  181.7280  179.3370  138.8350 C   0  0  0  0  0  3  0  0  0  0  0  0
  182.8410  176.1590  139.0200 C   0  0  1  0  0  3  0  0  0  0  0  0
  181.6330  177.0640  138.8050 C   0  0  1  0  0  0  0  0  0  0  0  0
  181.9260  178.8560  137.4540 C   0  0  0  0  0  3  0  0  0  0  0  0
  181.4350  175.6180  139.2220 C   0  0  0  0  0  2  0  0  0  0  0  0
  181.8080  177.5320  137.4280 C   0  0  1  0  0  3  0  0  0  0  0  0
  183.3190  175.8450  137.6690 N   0  0  0  0  0  0  0  0  0  0  0  0
  182.7110  176.6770  136.6390 C   0  0  0  0  0  2  0  0  0  0  0  0
  179.8220  178.7570  142.8990 C   0  0  0  0  0  2  0  0  0  0  0  0
  181.9700  179.3550  143.2190 C   0  0  0  0  0  2  0  0  0  0  0  0
  181.3940  178.3630  141.0650 N   0  0  0  0  0  0  0  0  0  0  0  0
  180.0970  177.9650  141.6210 C   0  0  0  0  0  2  0  0  0  0  0  0
  182.4980  178.6240  141.9860 C   0  0  0  0  0  2  0  0  0  0  0  0
  180.9070  178.6290  143.7850 O   0  0  0  0  0  0  0  0  0  0  0  0
  190.3310  176.6180  138.0770 C   0  0  2  0  0  3  0  0  0  0  0  0
  188.6380  175.4030  135.4290 O   0  0  0  0  0  0  0  0  0  0  0  0
  189.3630  176.3840  139.0310 C   0  0  0  0  0  2  0  0  0  0  0  0
  188.2210  175.4210  136.6170 C   0  0  0  0  0  0  0  0  0  0  0  0
  189.0560  175.9880  137.6250 N   0  0  0  0  0  0  0  0  0  0  0  0
  191.3210  175.6410  138.1510 O   0  0  0  0  0  0  0  0  0  0  0  0
  192.5200  176.3370  137.9910 C   0  0  0  0  0  2  0  0  0  0  0  0
  194.4600  175.4010  136.8320 C   0  0  0  0  0  2  0  0  0  0  0  0
  194.3020  176.7520  136.4690 O   0  0  0  0  0  0  0  0  0  0  0  0
  193.1250  176.0020  136.6420 C   0  0  2  0  0  3  0  0  0  0  0  0
  185.8130  177.0270  136.7470 O   0  0  0  0  0  0  0  0  0  0  0  0
  186.4000  177.9920  137.6150 C   0  0  1  0  0  3  0  0  0  0  0  0
  187.2400  178.9530  136.7930 C   0  0  0  0  0  1  0  0  0  0  0  0
  185.3100  178.7530  138.3520 C   0  0  0  0  0  2  0  0  0  0  0  0
  185.4990  178.6270  139.8520 C   0  0  0  0  0  1  0  0  0  0  0  0
  1  5  1  0  0  0  0
  2  1  2  0  0  0  0
  3  4  1  0  0  0  0
  4  5  2  0  0  0  0
  4 14  1  0  0  0  0
  6  3  2  0  0  0  0
  6  2  1  0  0  0  0
  7  8  1  6  0  0  0
  7 18  1  0  0  0  0
  9 12  1  6  0  0  0
 10  9  1  0  0  0  0
 10 12  1  1  0  0  0
 10  7  1  0  0  0  0
 11  8  2  0  0  0  0
 13 15  1  1  0  0  0
 13 11  1  0  0  0  0
 13 10  1  0  0  0  0
 14  9  1  0  0  0  0
 15 14  1  0  0  0  0
 16 21  1  0  0  0  0
 17 21  1  0  0  0  0
 18 19  1  0  0  0  0
 18 20  1  0  0  0  0
 19 16  1  0  0  0  0
 20 17  1  0  0  0  0
 22 27  1  1  0  0  0
 22 24  1  0  0  0  0
 23 25  2  0  0  0  0
 25  6  1  0  0  0  0
 25 26  1  0  0  0  0
 26 22  1  0  0  0  0
 26 24  1  0  0  0  0
 28 27  1  0  0  0  0
 30 31  1  0  0  0  0
 30 29  1  0  0  0  0
 31 29  1  0  0  0  0
 31 28  1  1  0  0  0
 32  3  1  0  0  0  0
 32 33  1  0  0  0  0
 33 34  1  6  0  0  0
 33 35  1  0  0  0  0
 35 36  1  0  0  0  0
M  END
>  <MODEL>
8

>  <REMARK>
 VINA RESULT:      -5.6      4.148      7.510
  Name = 
  9 active torsions:
  status: ('A' for Active; 'I' for Inactive)
    1  A    between atoms: C_1  and  O_17
    2  A    between atoms: C_1  and  C_19
    3  A    between atoms: C_3  and  O_22
    4  A    between atoms: C_5  and  N_29
    5  A    between atoms: C_14  and  O_17
    6  A    between atoms: C_16  and  N_34
    7  A    between atoms: C_21  and  C_25
    8  A    between atoms: O_22  and  C_25
    9  A    between atoms: C_23  and  C_33
                            x       y       z     vdW  Elec       q    Type
                         _______ _______ _______ _____ _____    ______ ____

>  <TORSDO>
F 9

$$$$
=
 OpenBabel11032420103D

 36 42  0  0  1  0  0  0  0  0999 V2000
  185.9670  178.5480  141.9580 C   0  0  0  0  0  3  0  0  0  0  0  0
  187.2240  178.5980  141.3620 C   0  0  0  0  0  3  0  0  0  0  0  0
  186.2060  178.5300  139.1560 C   0  0  0  0  0  0  0  0  0  0  0  0
  184.9250  178.5270  139.7670 C   0  0  0  0  0  0  0  0  0  0  0  0
  184.8250  178.5180  141.1630 C   0  0  0  0  0  3  0  0  0  0  0  0
  187.3650  178.5970  139.9680 C   0  0  0  0  0  0  0  0  0  0  0  0
  180.3920  177.4790  138.3900 C   0  0  2  0  0  3  0  0  0  0  0  0
  179.7140  178.5130  138.8910 C   0  0  0  0  0  3  0  0  0  0  0  0
  182.9020  177.4330  138.6790 C   0  0  1  0  0  3  0  0  0  0  0  0
  181.7020  177.9870  137.9190 C   0  0  1  0  0  0  0  0  0  0  0  0
  180.5850  179.7040  138.8810 C   0  0  0  0  0  3  0  0  0  0  0  0
  182.7980  177.2450  137.1750 C   0  0  0  0  0  2  0  0  0  0  0  0
  181.7220  179.4120  138.2560 C   0  0  1  0  0  3  0  0  0  0  0  0
  183.7220  178.6090  138.9920 N   0  0  0  0  0  0  0  0  0  0  0  0
  183.0310  179.8690  138.7510 C   0  0  0  0  0  2  0  0  0  0  0  0
  179.6930  173.8510  139.0190 C   0  0  0  0  0  2  0  0  0  0  0  0
  179.5780  174.1890  136.7950 C   0  0  0  0  0  2  0  0  0  0  0  0
  179.8540  176.1560  138.2140 N   0  0  0  0  0  0  0  0  0  0  0  0
  179.5450  175.3280  139.3830 C   0  0  0  0  0  2  0  0  0  0  0  0
  179.4050  175.7040  136.8980 C   0  0  0  0  0  2  0  0  0  0  0  0
  178.9310  173.5600  137.8730 O   0  0  0  0  0  0  0  0  0  0  0  0
  191.1550  177.2620  139.9240 C   0  0  2  0  0  3  0  0  0  0  0  0
  189.0180  179.4040  138.4400 O   0  0  0  0  0  0  0  0  0  0  0  0
  190.2830  176.7690  140.8720 C   0  0  0  0  0  2  0  0  0  0  0  0
  188.7370  178.6380  139.3990 C   0  0  0  0  0  0  0  0  0  0  0  0
  189.7620  177.8000  139.9270 N   0  0  0  0  0  0  0  0  0  0  0  0
  191.2880  176.3510  138.8780 O   0  0  0  0  0  0  0  0  0  0  0  0
  192.6400  176.3970  138.5390 C   0  0  0  0  0  2  0  0  0  0  0  0
  193.8770  175.3070  136.7320 C   0  0  0  0  0  2  0  0  0  0  0  0
  194.0740  176.6990  136.6630 O   0  0  0  0  0  0  0  0  0  0  0  0
  192.7920  176.2590  137.0370 C   0  0  2  0  0  3  0  0  0  0  0  0
  186.3540  178.4540  137.7610 O   0  0  0  0  0  0  0  0  0  0  0  0
  186.2630  177.2400  137.0240 C   0  0  1  0  0  3  0  0  0  0  0  0
  186.4570  177.5390  135.5480 C   0  0  0  0  0  1  0  0  0  0  0  0
  187.3290  176.2660  137.5010 C   0  0  0  0  0  2  0  0  0  0  0  0
  188.4390  176.1500  136.4710 C   0  0  0  0  0  1  0  0  0  0  0  0
  2  1  1  0  0  0  0
  3  4  2  0  0  0  0
  3  6  1  0  0  0  0
  4  5  1  0  0  0  0
  5  1  2  0  0  0  0
  6  2  2  0  0  0  0
  7 18  1  6  0  0  0
  7  8  1  0  0  0  0
  9 12  1  6  0  0  0
  9 14  1  0  0  0  0
 10 12  1  6  0  0  0
 10 13  1  0  0  0  0
 10  7  1  0  0  0  0
 10  9  1  0  0  0  0
 11  8  2  0  0  0  0
 13 15  1  1  0  0  0
 13 11  1  0  0  0  0
 14  4  1  0  0  0  0
 15 14  1  0  0  0  0
 16 19  1  0  0  0  0
 17 20  1  0  0  0  0
 17 21  1  0  0  0  0
 18 19  1  0  0  0  0
 20 18  1  0  0  0  0
 21 16  1  0  0  0  0
 22 27  1  6  0  0  0
 22 26  1  0  0  0  0
 22 24  1  0  0  0  0
 23 25  2  0  0  0  0
 25 26  1  0  0  0  0
 25  6  1  0  0  0  0
 26 24  1  0  0  0  0
 28 27  1  0  0  0  0
 29 31  1  0  0  0  0
 30 29  1  0  0  0  0
 30 31  1  0  0  0  0
 31 28  1  1  0  0  0
 32  3  1  0  0  0  0
 33 34  1  6  0  0  0
 33 35  1  0  0  0  0
 33 32  1  0  0  0  0
 36 35  1  0  0  0  0
M  END
>  <MODEL>
9

>  <REMARK>
 VINA RESULT:      -5.6      3.752      6.585
  Name = 
  9 active torsions:
  status: ('A' for Active; 'I' for Inactive)
    1  A    between atoms: C_1  and  O_17
    2  A    between atoms: C_1  and  C_19
    3  A    between atoms: C_3  and  O_22
    4  A    between atoms: C_5  and  N_29
    5  A    between atoms: C_14  and  O_17
    6  A    between atoms: C_16  and  N_34
    7  A    between atoms: C_21  and  C_25
    8  A    between atoms: O_22  and  C_25
    9  A    between atoms: C_23  and  C_33
                            x       y       z     vdW  Elec       q    Type
                         _______ _______ _______ _____ _____    ______ ____

>  <TORSDO>
F 9

$$$$
