=
 OpenBabel11042411163D

 48 50  0  0  1  0  0  0  0  0999 V2000
  185.7970  179.0300  143.4260 N   0  0  0  0  0  2  0  0  0  0  0  0
  185.5970  179.1870  142.0130 C   0  0  0  0  0  2  0  0  0  0  0  0
  183.2450  178.3490  142.1480 C   0  0  2  0  0  3  0  0  0  0  0  0
  182.8010  179.2530  143.2160 C   0  0  0  0  0  3  0  0  0  0  0  0
  184.5280  178.3960  139.9600 C   0  0  0  0  0  3  0  0  0  0  0  0
  184.4590  178.8190  141.3840 C   0  0  0  0  0  0  0  0  0  0  0  0
  183.5510  179.4530  144.2790 C   0  0  0  0  0  3  0  0  0  0  0  0
  182.1100  177.8930  141.3040 C   0  0  0  0  0  2  0  0  0  0  0  0
  182.2600  177.3920  140.0990 C   0  0  0  0  0  0  0  0  0  0  0  0
  183.5130  177.7510  139.3100 C   0  0  0  0  0  0  0  0  0  0  0  0
  184.9140  178.9290  144.4140 C   0  0  2  0  0  3  0  0  0  0  0  0
  185.2970  178.3670  145.7140 C   0  0  0  0  0  0  0  0  0  0  0  0
  184.5620  178.5430  146.7270 O   0  0  0  0  0  0  0  0  0  0  0  0
  186.4730  177.5990  145.8660 O   0  0  0  0  0  0  0  0  0  0  0  0
  188.7380  177.4210  146.6770 C   0  0  0  0  0  1  0  0  0  0  0  0
  187.2970  177.7220  147.0230 C   0  0  0  0  0  2  0  0  0  0  0  0
  181.0200  176.7940  139.5700 N   0  0  0  0  0  2  0  0  0  0  0  0
  180.4850  175.4210  139.4200 C   0  0  1  0  0  3  0  0  0  0  0  0
  179.2630  175.1250  140.3190 C   0  0  0  0  0  1  0  0  0  0  0  0
  180.4570  176.2500  137.1390 O   0  0  0  0  0  1  0  0  0  0  0  0
  180.1250  175.1480  137.9380 C   0  0  1  0  0  3  0  0  0  0  0  0
  180.4330  172.7750  137.6700 O   0  0  0  0  0  0  0  0  0  0  0  0
  180.8520  173.9180  137.4640 C   0  0  0  0  0  0  0  0  0  0  0  0
  182.1700  174.0770  136.7590 C   0  0  0  0  0  2  0  0  0  0  0  0
  183.2210  173.9750  137.6850 O   0  0  0  0  0  0  0  0  0  0  0  0
  183.6460  171.2450  137.0230 O   0  0  0  0  0  1  0  0  0  0  0  0
  184.2960  172.8300  137.0040 P   0  0  0  0  0  0  0  0  0  0  0  0
  185.5650  172.8320  137.8430 O   0  0  0  0  0  1  0  0  0  0  0  0
  184.6980  173.2560  135.4010 O   0  0  0  0  0  0  0  0  0  0  0  0
  183.7230  177.2170  137.9200 C   0  0  0  0  0  2  0  0  0  0  0  0
  185.1630  178.0190  137.1420 S   0  0  0  0  0  0  0  0  0  0  0  0
  186.3380  176.6090  136.9820 C   0  0  2  0  0  3  0  0  0  0  0  0
  187.5830  176.9510  137.6500 N   0  0  0  0  0  2  0  0  0  0  0  0
  188.4390  174.8020  137.3780 O   0  0  0  0  0  0  0  0  0  0  0  0
  188.6880  176.0440  137.5140 C   0  0  0  0  0  0  0  0  0  0  0  0
  190.0640  176.4890  137.8880 C   0  0  0  0  0  2  0  0  0  0  0  0
  189.9760  177.4730  139.0650 C   0  0  0  0  0  2  0  0  0  0  0  0
  189.2760  178.0570  143.1230 C   0  0  0  0  0  2  0  0  0  0  0  0
  191.3680  179.1580  144.2590 C   0  0  0  0  0  1  0  0  0  0  0  0
  191.5260  176.0550  143.6340 C   0  0  0  0  0  1  0  0  0  0  0  0
  192.1810  177.1620  139.9160 O   0  0  0  0  0  0  0  0  0  0  0  0
  190.7490  178.4390  143.0440 C   0  0  1  0  0  3  0  0  0  0  0  0
  190.4880  176.7730  141.4790 N   0  0  0  0  0  0  0  0  0  0  0  0
  190.9340  177.0910  140.1520 C   0  0  0  0  0  0  0  0  0  0  0  0
  189.1120  177.1320  141.9130 C   0  0  0  0  0  2  0  0  0  0  0  0
  191.3940  177.1570  142.5540 C   0  0  2  0  0  3  0  0  0  0  0  0
  185.4120  176.5280  134.7190 N   0  0  0  0  0  1  0  0  0  0  0  0
  186.6190  176.2660  135.5110 C   0  0  0  0  0  2  0  0  0  0  0  0
  1 11  1  0  0  0  0
  2  1  1  0  0  0  0
  3  8  1  6  0  0  0
  3  4  1  0  0  0  0
  4  7  2  0  0  0  0
  5  6  2  0  0  0  0
  6  2  1  0  0  0  0
  6  3  1  0  0  0  0
  7 11  1  0  0  0  0
  9  8  1  0  0  0  0
 10  5  1  0  0  0  0
 10  9  2  0  0  0  0
 11 12  1  1  0  0  0
 12 14  1  0  0  0  0
 12 13  2  0  0  0  0
 14 16  1  0  0  0  0
 15 16  1  0  0  0  0
 17  9  1  0  0  0  0
 18 17  1  0  0  0  0
 18 19  1  1  0  0  0
 21 20  1  6  0  0  0
 21 18  1  0  0  0  0
 23 22  2  0  0  0  0
 23 21  1  0  0  0  0
 24 23  1  0  0  0  0
 24 25  1  0  0  0  0
 27 26  1  0  0  0  0
 27 25  1  0  0  0  0
 27 28  1  0  0  0  0
 29 27  2  0  0  0  0
 30 10  1  0  0  0  0
 31 30  1  0  0  0  0
 32 48  1  6  0  0  0
 32 31  1  0  0  0  0
 32 33  1  0  0  0  0
 34 35  2  0  0  0  0
 35 33  1  0  0  0  0
 35 36  1  0  0  0  0
 36 37  1  0  0  0  0
 37 44  1  0  0  0  0
 41 44  2  0  0  0  0
 42 38  1  0  0  0  0
 42 39  1  1  0  0  0
 43 45  1  0  0  0  0
 43 46  1  0  0  0  0
 44 43  1  0  0  0  0
 45 38  1  0  0  0  0
 46 42  1  0  0  0  0
 46 40  1  1  0  0  0
 47 48  1  0  0  0  0
M  END
>  <MODEL>
1

>  <REMARK>
 VINA RESULT:      -6.8      0.000      0.000
  Name = 
  18 active torsions:
  status: ('A' for Active; 'I' for Inactive)
    1  A    between atoms: C_4  and  C_27
    2  A    between atoms: C_4  and  C_45
    3  A    between atoms: S_9  and  C_44
    4  A    between atoms: S_9  and  C_47
    5  A    between atoms: N_10  and  C_47
    6  A    between atoms: C_11  and  O_23
    7  A    between atoms: C_11  and  C_46
    8  A    between atoms: C_12  and  N_22
    9  A    between atoms: C_12  and  C_27
   10  A    between atoms: C_17  and  O_23
   11  A    between atoms: N_22  and  C_39
   12  A    between atoms: C_28  and  C_29
   13  A    between atoms: C_28  and  C_41
   14  A    between atoms: O_30  and  P_34
   15  A    between atoms: O_30  and  C_45
   16  A    between atoms: C_33  and  C_41
   17  A    between atoms: C_43  and  C_44
   18  A    between atoms: C_47  and  C_48
                            x       y       z     vdW  Elec       q    Type
                         _______ _______ _______ _____ _____    ______ ____

>  <TORSDO>
F 18

$$$$
=
 OpenBabel11042411163D

 48 50  0  0  1  0  0  0  0  0999 V2000
  191.7300  176.5590  143.7150 N   0  0  0  0  0  2  0  0  0  0  0  0
  191.5150  176.8400  142.3230 C   0  0  0  0  0  2  0  0  0  0  0  0
  189.4140  178.1090  142.7970 C   0  0  2  0  0  3  0  0  0  0  0  0
  189.9800  179.0090  143.8090 C   0  0  0  0  0  3  0  0  0  0  0  0
  189.9350  177.1930  140.4890 C   0  0  0  0  0  3  0  0  0  0  0  0
  190.4240  177.4900  141.8630 C   0  0  0  0  0  0  0  0  0  0  0  0
  190.7620  178.5400  144.7590 C   0  0  0  0  0  3  0  0  0  0  0  0
  188.2260  178.7050  142.1320 C   0  0  0  0  0  2  0  0  0  0  0  0
  187.7610  178.2920  140.9750 C   0  0  0  0  0  0  0  0  0  0  0  0
  188.7080  177.5720  140.0220 C   0  0  0  0  0  0  0  0  0  0  0  0
  191.2420  177.1560  144.7980 C   0  0  2  0  0  3  0  0  0  0  0  0
  191.2480  176.4770  146.1000 C   0  0  0  0  0  0  0  0  0  0  0  0
  192.2900  175.8920  146.5090 O   0  0  0  0  0  0  0  0  0  0  0  0
  190.1100  176.4810  146.9360 O   0  0  0  0  0  0  0  0  0  0  0  0
  188.3480  177.6520  148.0960 C   0  0  0  0  0  1  0  0  0  0  0  0
  189.8310  177.5740  147.8070 C   0  0  0  0  0  2  0  0  0  0  0  0
  186.4460  178.8720  140.6470 N   0  0  0  0  0  2  0  0  0  0  0  0
  185.0400  178.5950  141.0250 C   0  0  1  0  0  3  0  0  0  0  0  0
  184.6730  179.0630  142.4520 C   0  0  0  0  0  1  0  0  0  0  0  0
  184.7930  179.9490  139.0260 O   0  0  0  0  0  1  0  0  0  0  0  0
  184.0750  179.2380  139.9970 C   0  0  1  0  0  3  0  0  0  0  0  0
  183.2800  177.9290  138.1390 O   0  0  0  0  0  0  0  0  0  0  0  0
  183.2440  178.1620  139.3510 C   0  0  0  0  0  0  0  0  0  0  0  0
  182.2890  177.3700  140.2000 C   0  0  0  0  0  2  0  0  0  0  0  0
  181.0020  177.4170  139.6390 O   0  0  0  0  0  0  0  0  0  0  0  0
  180.9500  178.8860  142.0700 O   0  0  0  0  0  1  0  0  0  0  0  0
  180.0200  178.1200  140.8520 P   0  0  0  0  0  0  0  0  0  0  0  0
  179.2180  177.0020  141.5020 O   0  0  0  0  0  1  0  0  0  0  0  0
  178.9360  179.2490  140.1740 O   0  0  0  0  0  0  0  0  0  0  0  0
  188.2280  177.0950  138.6800 C   0  0  0  0  0  2  0  0  0  0  0  0
  189.2410  177.8210  137.3490 S   0  0  0  0  0  0  0  0  0  0  0  0
  189.6890  176.3310  136.3620 C   0  0  2  0  0  3  0  0  0  0  0  0
  191.1350  176.1860  136.3510 N   0  0  0  0  0  2  0  0  0  0  0  0
  191.1110  174.7710  138.2020 O   0  0  0  0  0  0  0  0  0  0  0  0
  191.7090  175.1280  137.1350 C   0  0  0  0  0  0  0  0  0  0  0  0
  193.1290  174.7240  136.9090 C   0  0  0  0  0  2  0  0  0  0  0  0
  193.5490  175.1230  135.4850 C   0  0  0  0  0  2  0  0  0  0  0  0
  196.9960  173.0070  136.4550 C   0  0  0  0  0  2  0  0  0  0  0  0
  198.4630  174.3790  138.1420 C   0  0  0  0  0  1  0  0  0  0  0  0
  198.5610  175.2500  135.0960 C   0  0  0  0  0  1  0  0  0  0  0  0
  195.0730  176.9290  135.7950 O   0  0  0  0  0  0  0  0  0  0  0  0
  197.2900  174.3350  137.1420 C   0  0  1  0  0  3  0  0  0  0  0  0
  196.0940  174.8980  135.2590 N   0  0  0  0  0  0  0  0  0  0  0  0
  194.9290  175.7060  135.4810 C   0  0  0  0  0  0  0  0  0  0  0  0
  196.0080  173.4170  135.3580 C   0  0  0  0  0  2  0  0  0  0  0  0
  197.2920  175.3100  135.9810 C   0  0  2  0  0  3  0  0  0  0  0  0
  187.7050  176.3200  134.9300 N   0  0  0  0  0  1  0  0  0  0  0  0
  189.1690  176.4260  134.9190 C   0  0  0  0  0  2  0  0  0  0  0  0
  1 11  1  0  0  0  0
  2  1  1  0  0  0  0
  3  8  1  6  0  0  0
  3  4  1  0  0  0  0
  4  7  2  0  0  0  0
  5  6  2  0  0  0  0
  6  2  1  0  0  0  0
  6  3  1  0  0  0  0
  7 11  1  0  0  0  0
  9  8  1  0  0  0  0
 10  5  1  0  0  0  0
 10  9  2  0  0  0  0
 11 12  1  1  0  0  0
 12 13  2  0  0  0  0
 12 14  1  0  0  0  0
 14 16  1  0  0  0  0
 16 15  1  0  0  0  0
 17  9  1  0  0  0  0
 17 18  1  0  0  0  0
 18 19  1  1  0  0  0
 21 20  1  6  0  0  0
 21 18  1  0  0  0  0
 22 23  2  0  0  0  0
 23 21  1  0  0  0  0
 23 24  1  0  0  0  0
 25 24  1  0  0  0  0
 25 27  1  0  0  0  0
 27 28  1  0  0  0  0
 27 26  1  0  0  0  0
 29 27  2  0  0  0  0
 30 10  1  0  0  0  0
 31 30  1  0  0  0  0
 32 48  1  6  0  0  0
 32 31  1  0  0  0  0
 33 32  1  0  0  0  0
 33 35  1  0  0  0  0
 35 34  2  0  0  0  0
 36 35  1  0  0  0  0
 37 36  1  0  0  0  0
 38 42  1  0  0  0  0
 42 39  1  6  0  0  0
 43 45  1  0  0  0  0
 43 44  1  0  0  0  0
 43 46  1  0  0  0  0
 44 37  1  0  0  0  0
 44 41  2  0  0  0  0
 45 38  1  0  0  0  0
 46 40  1  6  0  0  0
 46 42  1  0  0  0  0
 48 47  1  0  0  0  0
M  END
>  <MODEL>
2

>  <REMARK>
 VINA RESULT:      -6.6      4.306      6.612
  Name = 
  18 active torsions:
  status: ('A' for Active; 'I' for Inactive)
    1  A    between atoms: C_4  and  C_27
    2  A    between atoms: C_4  and  C_45
    3  A    between atoms: S_9  and  C_44
    4  A    between atoms: S_9  and  C_47
    5  A    between atoms: N_10  and  C_47
    6  A    between atoms: C_11  and  O_23
    7  A    between atoms: C_11  and  C_46
    8  A    between atoms: C_12  and  N_22
    9  A    between atoms: C_12  and  C_27
   10  A    between atoms: C_17  and  O_23
   11  A    between atoms: N_22  and  C_39
   12  A    between atoms: C_28  and  C_29
   13  A    between atoms: C_28  and  C_41
   14  A    between atoms: O_30  and  P_34
   15  A    between atoms: O_30  and  C_45
   16  A    between atoms: C_33  and  C_41
   17  A    between atoms: C_43  and  C_44
   18  A    between atoms: C_47  and  C_48
                            x       y       z     vdW  Elec       q    Type
                         _______ _______ _______ _____ _____    ______ ____

>  <TORSDO>
F 18

$$$$
=
 OpenBabel11042411163D

 48 50  0  0  1  0  0  0  0  0999 V2000
  188.5710  178.3620  142.7770 N   0  0  0  0  0  2  0  0  0  0  0  0
  188.0770  178.1110  141.4530 C   0  0  0  0  0  2  0  0  0  0  0  0
  190.2010  176.9880  140.7620 C   0  0  2  0  0  3  0  0  0  0  0  0
  190.2680  176.0410  141.8810 C   0  0  0  0  0  3  0  0  0  0  0  0
  188.5460  177.8880  139.0620 C   0  0  0  0  0  3  0  0  0  0  0  0
  188.8270  177.5430  140.4820 C   0  0  0  0  0  0  0  0  0  0  0  0
  190.0400  176.4440  143.1140 C   0  0  0  0  0  3  0  0  0  0  0  0
  190.9300  176.4830  139.5690 C   0  0  0  0  0  2  0  0  0  0  0  0
  190.7300  176.9400  138.3530 C   0  0  0  0  0  0  0  0  0  0  0  0
  189.3950  177.6000  138.0300 C   0  0  0  0  0  0  0  0  0  0  0  0
  189.5680  177.7910  143.4460 C   0  0  2  0  0  3  0  0  0  0  0  0
  190.1750  178.4550  144.6060 C   0  0  0  0  0  0  0  0  0  0  0  0
  190.8210  179.5310  144.4590 O   0  0  0  0  0  0  0  0  0  0  0  0
  190.0370  177.9300  145.9100 O   0  0  0  0  0  0  0  0  0  0  0  0
  188.7470  177.9300  147.9490 C   0  0  0  0  0  1  0  0  0  0  0  0
  188.7550  177.6420  146.4640 C   0  0  0  0  0  2  0  0  0  0  0  0
  191.7350  176.4560  137.3890 N   0  0  0  0  0  2  0  0  0  0  0  0
  192.2250  175.1310  136.9410 C   0  0  1  0  0  3  0  0  0  0  0  0
  191.1400  174.0300  136.9470 C   0  0  0  0  0  1  0  0  0  0  0  0
  192.1070  176.1210  134.7280 O   0  0  0  0  0  1  0  0  0  0  0  0
  192.8510  175.2440  135.5290 C   0  0  1  0  0  3  0  0  0  0  0  0
  194.6270  176.8550  135.3080 O   0  0  0  0  0  0  0  0  0  0  0  0
  194.2730  175.7220  135.6490 C   0  0  0  0  0  0  0  0  0  0  0  0
  195.3220  174.7720  136.1550 C   0  0  0  0  0  2  0  0  0  0  0  0
  195.9880  175.3390  137.2540 O   0  0  0  0  0  0  0  0  0  0  0  0
  197.3400  172.8990  137.7940 O   0  0  0  0  0  0  0  0  0  0  0  0
  196.1970  174.0460  138.3560 P   0  0  0  0  0  0  0  0  0  0  0  0
  194.8550  173.3440  138.5040 O   0  0  0  0  0  1  0  0  0  0  0  0
  196.6840  174.6270  139.8850 O   0  0  0  0  0  1  0  0  0  0  0  0
  189.1120  178.1230  136.6490 C   0  0  0  0  0  2  0  0  0  0  0  0
  187.3410  178.5140  136.4690 S   0  0  0  0  0  0  0  0  0  0  0  0
  186.6620  176.9140  135.8580 C   0  0  2  0  0  3  0  0  0  0  0  0
  185.7350  176.3840  136.8440 N   0  0  0  0  0  2  0  0  0  0  0  0
  183.8820  177.2080  135.6970 O   0  0  0  0  0  0  0  0  0  0  0  0
  184.3430  176.3270  136.4940 C   0  0  0  0  0  0  0  0  0  0  0  0
  183.4050  175.5030  137.3130 C   0  0  0  0  0  2  0  0  0  0  0  0
  182.0350  176.1980  137.3670 C   0  0  0  0  0  2  0  0  0  0  0  0
  183.7630  179.2290  139.6310 C   0  0  0  0  0  2  0  0  0  0  0  0
  184.4210  178.3290  142.0060 C   0  0  0  0  0  1  0  0  0  0  0  0
  181.3610  178.9800  141.5010 C   0  0  0  0  0  1  0  0  0  0  0  0
  181.2890  175.5690  139.5420 O   0  0  0  0  0  0  0  0  0  0  0  0
  183.6520  178.1330  140.6840 C   0  0  1  0  0  3  0  0  0  0  0  0
  181.8170  177.8350  139.3290 N   0  0  0  0  0  0  0  0  0  0  0  0
  181.6560  176.5190  138.7800 C   0  0  0  0  0  0  0  0  0  0  0  0
  182.6680  178.8370  138.6340 C   0  0  0  0  0  2  0  0  0  0  0  0
  182.1570  177.8880  140.7460 C   0  0  2  0  0  3  0  0  0  0  0  0
  187.6180  174.7600  136.5170 N   0  0  0  0  0  1  0  0  0  0  0  0
  187.7750  175.8880  135.5920 C   0  0  0  0  0  2  0  0  0  0  0  0
  1 11  1  0  0  0  0
  2  1  1  0  0  0  0
  3  8  1  6  0  0  0
  3  4  1  0  0  0  0
  4  7  2  0  0  0  0
  5  6  2  0  0  0  0
  6  3  1  0  0  0  0
  6  2  1  0  0  0  0
  7 11  1  0  0  0  0
  9  8  1  0  0  0  0
 10  9  2  0  0  0  0
 10  5  1  0  0  0  0
 11 12  1  1  0  0  0
 12 14  1  0  0  0  0
 13 12  2  0  0  0  0
 14 16  1  0  0  0  0
 16 15  1  0  0  0  0
 17  9  1  0  0  0  0
 18 19  1  6  0  0  0
 18 17  1  0  0  0  0
 21 20  1  6  0  0  0
 21 23  1  0  0  0  0
 21 18  1  0  0  0  0
 22 23  2  0  0  0  0
 23 24  1  0  0  0  0
 24 25  1  0  0  0  0
 25 27  1  0  0  0  0
 26 27  2  0  0  0  0
 27 28  1  0  0  0  0
 27 29  1  0  0  0  0
 30 10  1  0  0  0  0
 31 30  1  0  0  0  0
 32 48  1  1  0  0  0
 32 31  1  0  0  0  0
 32 33  1  0  0  0  0
 34 35  2  0  0  0  0
 35 33  1  0  0  0  0
 35 36  1  0  0  0  0
 36 37  1  0  0  0  0
 37 44  1  0  0  0  0
 38 42  1  0  0  0  0
 42 46  1  0  0  0  0
 42 39  1  1  0  0  0
 43 46  1  0  0  0  0
 44 43  1  0  0  0  0
 44 41  2  0  0  0  0
 45 43  1  0  0  0  0
 45 38  1  0  0  0  0
 46 40  1  1  0  0  0
 48 47  1  0  0  0  0
M  END
>  <MODEL>
3

>  <REMARK>
 VINA RESULT:      -6.5      3.408      8.564
  Name = 
  18 active torsions:
  status: ('A' for Active; 'I' for Inactive)
    1  A    between atoms: C_4  and  C_27
    2  A    between atoms: C_4  and  C_45
    3  A    between atoms: S_9  and  C_44
    4  A    between atoms: S_9  and  C_47
    5  A    between atoms: N_10  and  C_47
    6  A    between atoms: C_11  and  O_23
    7  A    between atoms: C_11  and  C_46
    8  A    between atoms: C_12  and  N_22
    9  A    between atoms: C_12  and  C_27
   10  A    between atoms: C_17  and  O_23
   11  A    between atoms: N_22  and  C_39
   12  A    between atoms: C_28  and  C_29
   13  A    between atoms: C_28  and  C_41
   14  A    between atoms: O_30  and  P_34
   15  A    between atoms: O_30  and  C_45
   16  A    between atoms: C_33  and  C_41
   17  A    between atoms: C_43  and  C_44
   18  A    between atoms: C_47  and  C_48
                            x       y       z     vdW  Elec       q    Type
                         _______ _______ _______ _____ _____    ______ ____

>  <TORSDO>
F 18

$$$$
=
 OpenBabel11042411163D

 48 50  0  0  1  0  0  0  0  0999 V2000
  191.9030  176.7560  142.6850 N   0  0  0  0  0  2  0  0  0  0  0  0
  191.4460  177.2040  141.4000 C   0  0  0  0  0  2  0  0  0  0  0  0
  189.3840  178.2280  142.3740 C   0  0  2  0  0  3  0  0  0  0  0  0
  190.0590  179.0260  143.4050 C   0  0  0  0  0  3  0  0  0  0  0  0
  189.5670  177.6750  139.9050 C   0  0  0  0  0  3  0  0  0  0  0  0
  190.2590  177.8220  141.2140 C   0  0  0  0  0  0  0  0  0  0  0  0
  191.0120  178.4970  144.1440 C   0  0  0  0  0  3  0  0  0  0  0  0
  188.0710  178.8140  141.9960 C   0  0  0  0  0  2  0  0  0  0  0  0
  187.4450  178.5240  140.8770 C   0  0  0  0  0  0  0  0  0  0  0  0
  188.2610  178.0160  139.6950 C   0  0  0  0  0  0  0  0  0  0  0  0
  191.5680  177.1610  143.9060 C   0  0  2  0  0  3  0  0  0  0  0  0
  191.8260  176.3170  145.0780 C   0  0  0  0  0  0  0  0  0  0  0  0
  192.0680  175.0850  144.9350 O   0  0  0  0  0  0  0  0  0  0  0  0
  191.8370  176.8540  146.3840 O   0  0  0  0  0  0  0  0  0  0  0  0
  189.6870  177.2100  147.4210 C   0  0  0  0  0  1  0  0  0  0  0  0
  190.9490  176.3750  147.3920 C   0  0  0  0  0  2  0  0  0  0  0  0
  186.0640  179.0380  140.8460 N   0  0  0  0  0  2  0  0  0  0  0  0
  184.7100  178.4510  140.9790 C   0  0  1  0  0  3  0  0  0  0  0  0
  184.1560  178.4790  142.4210 C   0  0  0  0  0  1  0  0  0  0  0  0
  184.3980  180.0960  139.2230 O   0  0  0  0  0  1  0  0  0  0  0  0
  183.7230  179.1650  140.0220 C   0  0  1  0  0  3  0  0  0  0  0  0
  181.8190  177.9130  139.2450 O   0  0  0  0  0  0  0  0  0  0  0  0
  183.0290  178.1410  139.1630 C   0  0  0  0  0  0  0  0  0  0  0  0
  183.8450  177.3230  138.2020 C   0  0  0  0  0  2  0  0  0  0  0  0
  183.1590  176.1390  137.8830 O   0  0  0  0  0  0  0  0  0  0  0  0
  183.8860  176.5930  135.1750 O   0  0  0  0  0  0  0  0  0  0  0  0
  183.9690  175.5200  136.5080 P   0  0  0  0  0  0  0  0  0  0  0  0
  183.2810  174.2210  136.1150 O   0  0  0  0  0  1  0  0  0  0  0  0
  185.6040  175.1880  136.8670 O   0  0  0  0  0  1  0  0  0  0  0  0
  187.5930  177.6880  138.3880 C   0  0  0  0  0  2  0  0  0  0  0  0
  188.6220  178.2470  136.9910 S   0  0  0  0  0  0  0  0  0  0  0  0
  188.6850  176.7340  135.9410 C   0  0  2  0  0  3  0  0  0  0  0  0
  190.0720  176.4210  135.6410 N   0  0  0  0  0  2  0  0  0  0  0  0
  190.3040  175.1270  137.5640 O   0  0  0  0  0  0  0  0  0  0  0  0
  190.6910  175.3500  136.3700 C   0  0  0  0  0  0  0  0  0  0  0  0
  191.9810  174.7720  135.8870 C   0  0  0  0  0  2  0  0  0  0  0  0
  193.0200  175.8950  135.7460 C   0  0  0  0  0  2  0  0  0  0  0  0
  195.9690  172.9870  135.3780 C   0  0  0  0  0  2  0  0  0  0  0  0
  196.2960  171.7270  137.6550 C   0  0  0  0  0  1  0  0  0  0  0  0
  197.5920  174.6070  137.3940 C   0  0  0  0  0  1  0  0  0  0  0  0
  193.9370  175.9520  137.9450 O   0  0  0  0  0  0  0  0  0  0  0  0
  195.7120  172.9240  136.8780 C   0  0  1  0  0  3  0  0  0  0  0  0
  195.4010  175.1340  136.3190 N   0  0  0  0  0  0  0  0  0  0  0  0
  194.1450  175.7050  136.7160 C   0  0  0  0  0  0  0  0  0  0  0  0
  195.5180  174.4080  135.0270 C   0  0  0  0  0  2  0  0  0  0  0  0
  196.0710  174.3260  137.3310 C   0  0  2  0  0  3  0  0  0  0  0  0
  186.9990  178.0650  134.7690 N   0  0  0  0  0  1  0  0  0  0  0  0
  187.9020  176.9170  134.6310 C   0  0  0  0  0  2  0  0  0  0  0  0
  1 11  1  0  0  0  0
  2  1  1  0  0  0  0
  3  8  1  6  0  0  0
  3  4  1  0  0  0  0
  4  7  2  0  0  0  0
  5  6  2  0  0  0  0
  6  2  1  0  0  0  0
  6  3  1  0  0  0  0
  9  8  1  0  0  0  0
 10  5  1  0  0  0  0
 10  9  2  0  0  0  0
 11  7  1  0  0  0  0
 11 12  1  1  0  0  0
 12 14  1  0  0  0  0
 13 12  2  0  0  0  0
 14 16  1  0  0  0  0
 16 15  1  0  0  0  0
 17  9  1  0  0  0  0
 17 18  1  0  0  0  0
 18 19  1  1  0  0  0
 21 20  1  6  0  0  0
 21 18  1  0  0  0  0
 23 22  2  0  0  0  0
 23 21  1  0  0  0  0
 24 23  1  0  0  0  0
 25 24  1  0  0  0  0
 26 27  2  0  0  0  0
 27 29  1  0  0  0  0
 27 25  1  0  0  0  0
 28 27  1  0  0  0  0
 30 10  1  0  0  0  0
 31 30  1  0  0  0  0
 32 48  1  6  0  0  0
 32 31  1  0  0  0  0
 33 32  1  0  0  0  0
 33 35  1  0  0  0  0
 35 34  2  0  0  0  0
 36 35  1  0  0  0  0
 37 36  1  0  0  0  0
 37 44  1  0  0  0  0
 38 42  1  0  0  0  0
 42 46  1  0  0  0  0
 42 39  1  1  0  0  0
 43 44  1  0  0  0  0
 43 46  1  0  0  0  0
 44 41  2  0  0  0  0
 45 38  1  0  0  0  0
 45 43  1  0  0  0  0
 46 40  1  6  0  0  0
 48 47  1  0  0  0  0
M  END
>  <MODEL>
4

>  <REMARK>
 VINA RESULT:      -6.5      3.628      5.865
  Name = 
  18 active torsions:
  status: ('A' for Active; 'I' for Inactive)
    1  A    between atoms: C_4  and  C_27
    2  A    between atoms: C_4  and  C_45
    3  A    between atoms: S_9  and  C_44
    4  A    between atoms: S_9  and  C_47
    5  A    between atoms: N_10  and  C_47
    6  A    between atoms: C_11  and  O_23
    7  A    between atoms: C_11  and  C_46
    8  A    between atoms: C_12  and  N_22
    9  A    between atoms: C_12  and  C_27
   10  A    between atoms: C_17  and  O_23
   11  A    between atoms: N_22  and  C_39
   12  A    between atoms: C_28  and  C_29
   13  A    between atoms: C_28  and  C_41
   14  A    between atoms: O_30  and  P_34
   15  A    between atoms: O_30  and  C_45
   16  A    between atoms: C_33  and  C_41
   17  A    between atoms: C_43  and  C_44
   18  A    between atoms: C_47  and  C_48
                            x       y       z     vdW  Elec       q    Type
                         _______ _______ _______ _____ _____    ______ ____

>  <TORSDO>
F 18

$$$$
=
 OpenBabel11042411163D

 48 50  0  0  1  0  0  0  0  0999 V2000
  187.7350  178.2260  143.4650 N   0  0  0  0  0  2  0  0  0  0  0  0
  187.4170  178.2100  142.0650 C   0  0  0  0  0  2  0  0  0  0  0  0
  189.5230  176.9910  141.4940 C   0  0  2  0  0  3  0  0  0  0  0  0
  189.3550  175.8950  142.4570 C   0  0  0  0  0  3  0  0  0  0  0  0
  188.2020  178.2750  139.7490 C   0  0  0  0  0  3  0  0  0  0  0  0
  188.2500  177.7110  141.1250 C   0  0  0  0  0  0  0  0  0  0  0  0
  188.9870  176.1450  143.6960 C   0  0  0  0  0  3  0  0  0  0  0  0
  190.3720  176.5870  140.3420 C   0  0  0  0  0  2  0  0  0  0  0  0
  190.3830  177.2240  139.1930 C   0  0  0  0  0  0  0  0  0  0  0  0
  189.1640  178.0500  138.8040 C   0  0  0  0  0  0  0  0  0  0  0  0
  188.5790  177.4730  144.1630 C   0  0  2  0  0  3  0  0  0  0  0  0
  189.0650  177.9060  145.4790 C   0  0  0  0  0  0  0  0  0  0  0  0
  190.2950  177.8300  145.7600 O   0  0  0  0  0  0  0  0  0  0  0  0
  188.1890  178.4400  146.4480 O   0  0  0  0  0  0  0  0  0  0  0  0
  185.7790  178.4520  146.5780 C   0  0  0  0  0  1  0  0  0  0  0  0
  187.0550  177.7080  146.9080 C   0  0  0  0  0  2  0  0  0  0  0  0
  191.4750  176.7830  138.3060 N   0  0  0  0  0  2  0  0  0  0  0  0
  192.9560  176.8030  138.3540 C   0  0  1  0  0  3  0  0  0  0  0  0
  193.5300  177.1720  139.7400 C   0  0  0  0  0  1  0  0  0  0  0  0
  192.4890  174.5910  137.4730 O   0  0  0  0  0  1  0  0  0  0  0  0
  193.5220  175.4360  137.8970 C   0  0  1  0  0  3  0  0  0  0  0  0
  194.5410  176.6830  136.1070 O   0  0  0  0  0  0  0  0  0  0  0  0
  194.5140  175.6510  136.7850 C   0  0  0  0  0  0  0  0  0  0  0  0
  195.4780  174.5500  136.4440 C   0  0  0  0  0  2  0  0  0  0  0  0
  196.1050  174.0870  137.6120 O   0  0  0  0  0  0  0  0  0  0  0  0
  198.2660  175.4730  138.8280 O   0  0  0  0  0  1  0  0  0  0  0  0
  197.7350  174.5860  137.4620 P   0  0  0  0  0  0  0  0  0  0  0  0
  197.8310  175.4920  136.2430 O   0  0  0  0  0  0  0  0  0  0  0  0
  198.7610  173.2420  137.2280 O   0  0  0  0  0  1  0  0  0  0  0  0
  189.1220  178.7840  137.4920 C   0  0  0  0  0  2  0  0  0  0  0  0
  187.5170  178.5220  136.6690 S   0  0  0  0  0  0  0  0  0  0  0  0
  187.9430  177.2470  135.4100 C   0  0  2  0  0  3  0  0  0  0  0  0
  187.3380  175.9820  135.7910 N   0  0  0  0  0  2  0  0  0  0  0  0
  185.3880  176.4380  134.6010 O   0  0  0  0  0  0  0  0  0  0  0  0
  186.1730  175.5510  135.0690 C   0  0  0  0  0  0  0  0  0  0  0  0
  185.7110  174.1360  135.1840 C   0  0  0  0  0  2  0  0  0  0  0  0
  184.1980  174.1170  135.4570 C   0  0  0  0  0  2  0  0  0  0  0  0
  182.8690  177.7090  137.0790 C   0  0  0  0  0  2  0  0  0  0  0  0
  184.2870  178.3330  139.1950 C   0  0  0  0  0  1  0  0  0  0  0  0
  182.0590  176.1070  139.5500 C   0  0  0  0  0  1  0  0  0  0  0  0
  184.6210  173.7120  137.7680 O   0  0  0  0  0  0  0  0  0  0  0  0
  183.8700  177.2840  138.1460 C   0  0  1  0  0  3  0  0  0  0  0  0
  182.9700  175.3160  137.3640 N   0  0  0  0  0  0  0  0  0  0  0  0
  183.9170  174.3350  136.9120 C   0  0  0  0  0  0  0  0  0  0  0  0
  182.4860  176.3720  136.4360 C   0  0  0  0  0  2  0  0  0  0  0  0
  183.2950  175.9660  138.6270 C   0  0  2  0  0  3  0  0  0  0  0  0
  189.7920  175.6440  135.3790 N   0  0  0  0  0  1  0  0  0  0  0  0
  189.4640  177.0700  135.2710 C   0  0  0  0  0  2  0  0  0  0  0  0
  1 11  1  0  0  0  0
  2  1  1  0  0  0  0
  3  8  1  6  0  0  0
  3  4  1  0  0  0  0
  4  7  2  0  0  0  0
  5  6  2  0  0  0  0
  6  3  1  0  0  0  0
  6  2  1  0  0  0  0
  7 11  1  0  0  0  0
  9  8  1  0  0  0  0
 10  9  2  0  0  0  0
 10  5  1  0  0  0  0
 11 12  1  1  0  0  0
 12 13  2  0  0  0  0
 12 14  1  0  0  0  0
 14 16  1  0  0  0  0
 15 16  1  0  0  0  0
 17 18  1  0  0  0  0
 17  9  1  0  0  0  0
 18 19  1  1  0  0  0
 21 20  1  6  0  0  0
 21 18  1  0  0  0  0
 22 23  2  0  0  0  0
 23 21  1  0  0  0  0
 24 23  1  0  0  0  0
 24 25  1  0  0  0  0
 27 25  1  0  0  0  0
 27 26  1  0  0  0  0
 28 27  2  0  0  0  0
 29 27  1  0  0  0  0
 30 10  1  0  0  0  0
 31 30  1  0  0  0  0
 32 48  1  1  0  0  0
 32 33  1  0  0  0  0
 32 31  1  0  0  0  0
 34 35  2  0  0  0  0
 35 36  1  0  0  0  0
 35 33  1  0  0  0  0
 36 37  1  0  0  0  0
 37 44  1  0  0  0  0
 38 42  1  0  0  0  0
 42 46  1  0  0  0  0
 42 39  1  1  0  0  0
 43 46  1  0  0  0  0
 44 43  1  0  0  0  0
 44 41  2  0  0  0  0
 45 38  1  0  0  0  0
 45 43  1  0  0  0  0
 46 40  1  1  0  0  0
 48 47  1  0  0  0  0
M  END
>  <MODEL>
5

>  <REMARK>
 VINA RESULT:      -6.3      3.624      8.737
  Name = 
  18 active torsions:
  status: ('A' for Active; 'I' for Inactive)
    1  A    between atoms: C_4  and  C_27
    2  A    between atoms: C_4  and  C_45
    3  A    between atoms: S_9  and  C_44
    4  A    between atoms: S_9  and  C_47
    5  A    between atoms: N_10  and  C_47
    6  A    between atoms: C_11  and  O_23
    7  A    between atoms: C_11  and  C_46
    8  A    between atoms: C_12  and  N_22
    9  A    between atoms: C_12  and  C_27
   10  A    between atoms: C_17  and  O_23
   11  A    between atoms: N_22  and  C_39
   12  A    between atoms: C_28  and  C_29
   13  A    between atoms: C_28  and  C_41
   14  A    between atoms: O_30  and  P_34
   15  A    between atoms: O_30  and  C_45
   16  A    between atoms: C_33  and  C_41
   17  A    between atoms: C_43  and  C_44
   18  A    between atoms: C_47  and  C_48
                            x       y       z     vdW  Elec       q    Type
                         _______ _______ _______ _____ _____    ______ ____

>  <TORSDO>
F 18

$$$$
=
 OpenBabel11042411163D

 48 50  0  0  1  0  0  0  0  0999 V2000
  188.2970  177.7300  143.6370 N   0  0  0  0  0  2  0  0  0  0  0  0
  187.9340  177.6130  142.2530 C   0  0  0  0  0  2  0  0  0  0  0  0
  190.2410  176.9080  141.6000 C   0  0  2  0  0  3  0  0  0  0  0  0
  190.3740  175.8220  142.5800 C   0  0  0  0  0  3  0  0  0  0  0  0
  188.5860  177.8150  139.9040 C   0  0  0  0  0  3  0  0  0  0  0  0
  188.8210  177.3040  141.2820 C   0  0  0  0  0  0  0  0  0  0  0  0
  190.0090  176.0030  143.8310 C   0  0  0  0  0  3  0  0  0  0  0  0
  191.1130  176.6900  140.4160 C   0  0  0  0  0  2  0  0  0  0  0  0
  190.9280  177.2910  139.2620 C   0  0  0  0  0  0  0  0  0  0  0  0
  189.5340  177.8020  138.9190 C   0  0  0  0  0  0  0  0  0  0  0  0
  189.3210  177.2080  144.3040 C   0  0  2  0  0  3  0  0  0  0  0  0
  189.7460  177.7680  145.5930 C   0  0  0  0  0  0  0  0  0  0  0  0
  188.9820  178.5450  146.2340 O   0  0  0  0  0  0  0  0  0  0  0  0
  190.9970  177.4410  146.1610 O   0  0  0  0  0  0  0  0  0  0  0  0
  192.2150  175.6770  147.2700 C   0  0  0  0  0  1  0  0  0  0  0  0
  191.0900  176.6850  147.3660 C   0  0  0  0  0  2  0  0  0  0  0  0
  192.0550  177.0990  138.3300 N   0  0  0  0  0  2  0  0  0  0  0  0
  192.7150  175.9370  137.6890 C   0  0  1  0  0  3  0  0  0  0  0  0
  191.8120  174.6880  137.5790 C   0  0  0  0  0  1  0  0  0  0  0  0
  194.3790  177.1400  136.3950 O   0  0  0  0  0  1  0  0  0  0  0  0
  193.2410  176.3310  136.2860 C   0  0  1  0  0  3  0  0  0  0  0  0
  192.7200  174.5100  134.7990 O   0  0  0  0  0  0  0  0  0  0  0  0
  193.5560  175.0850  135.5020 C   0  0  0  0  0  0  0  0  0  0  0  0
  194.9270  174.4800  135.6160 C   0  0  0  0  0  2  0  0  0  0  0  0
  194.8560  173.2670  136.3220 O   0  0  0  0  0  0  0  0  0  0  0  0
  195.3720  172.9230  139.0940 O   0  0  0  0  0  1  0  0  0  0  0  0
  196.0030  173.4240  137.5820 P   0  0  0  0  0  0  0  0  0  0  0  0
  196.3740  174.8960  137.6880 O   0  0  0  0  0  1  0  0  0  0  0  0
  197.4120  172.5270  137.2330 O   0  0  0  0  0  0  0  0  0  0  0  0
  189.2680  178.4810  137.6040 C   0  0  0  0  0  2  0  0  0  0  0  0
  189.5410  177.3200  136.2250 S   0  0  0  0  0  0  0  0  0  0  0  0
  187.9360  176.4170  136.1710 C   0  0  2  0  0  3  0  0  0  0  0  0
  186.9540  177.1450  136.9580 N   0  0  0  0  0  2  0  0  0  0  0  0
  185.5200  177.3850  135.1380 O   0  0  0  0  0  0  0  0  0  0  0  0
  185.6400  177.3100  136.4050 C   0  0  0  0  0  0  0  0  0  0  0  0
  184.5140  177.7470  137.2840 C   0  0  0  0  0  2  0  0  0  0  0  0
  185.0820  178.2680  138.6130 C   0  0  0  0  0  2  0  0  0  0  0  0
  181.3940  176.7900  139.8420 C   0  0  0  0  0  2  0  0  0  0  0  0
  179.4800  178.4600  139.1870 C   0  0  0  0  0  1  0  0  0  0  0  0
  181.2380  179.1940  141.7190 C   0  0  0  0  0  1  0  0  0  0  0  0
  183.9590  180.3120  139.1080 O   0  0  0  0  0  0  0  0  0  0  0  0
  180.9850  178.1790  139.3660 C   0  0  1  0  0  3  0  0  0  0  0  0
  183.1000  178.4510  140.2300 N   0  0  0  0  0  0  0  0  0  0  0  0
  184.0550  179.0680  139.3540 C   0  0  0  0  0  0  0  0  0  0  0  0
  182.8760  176.9820  140.1790 C   0  0  0  0  0  2  0  0  0  0  0  0
  181.7880  179.0870  140.2760 C   0  0  2  0  0  3  0  0  0  0  0  0
  186.7540  174.5140  137.1580 N   0  0  0  0  0  1  0  0  0  0  0  0
  188.0710  174.9840  136.7110 C   0  0  0  0  0  2  0  0  0  0  0  0
  1 11  1  0  0  0  0
  2  1  1  0  0  0  0
  3  8  1  6  0  0  0
  3  4  1  0  0  0  0
  4  7  2  0  0  0  0
  5  6  2  0  0  0  0
  6  3  1  0  0  0  0
  6  2  1  0  0  0  0
  7 11  1  0  0  0  0
  9  8  1  0  0  0  0
 10  9  2  0  0  0  0
 10  5  1  0  0  0  0
 11 12  1  1  0  0  0
 12 14  1  0  0  0  0
 12 13  2  0  0  0  0
 14 16  1  0  0  0  0
 15 16  1  0  0  0  0
 17  9  1  0  0  0  0
 18 19  1  6  0  0  0
 18 17  1  0  0  0  0
 21 20  1  1  0  0  0
 21 18  1  0  0  0  0
 22 23  2  0  0  0  0
 23 24  1  0  0  0  0
 23 21  1  0  0  0  0
 24 25  1  0  0  0  0
 25 27  1  0  0  0  0
 27 28  1  0  0  0  0
 27 26  1  0  0  0  0
 29 27  2  0  0  0  0
 30 10  1  0  0  0  0
 31 30  1  0  0  0  0
 32 31  1  0  0  0  0
 32 48  1  1  0  0  0
 32 33  1  0  0  0  0
 34 35  2  0  0  0  0
 35 33  1  0  0  0  0
 35 36  1  0  0  0  0
 36 37  1  0  0  0  0
 37 44  1  0  0  0  0
 38 45  1  0  0  0  0
 41 44  2  0  0  0  0
 42 39  1  1  0  0  0
 42 38  1  0  0  0  0
 42 46  1  0  0  0  0
 43 46  1  0  0  0  0
 44 43  1  0  0  0  0
 45 43  1  0  0  0  0
 46 40  1  1  0  0  0
 48 47  1  0  0  0  0
M  END
>  <MODEL>
6

>  <REMARK>
 VINA RESULT:      -6.1      3.594      8.560
  Name = 
  18 active torsions:
  status: ('A' for Active; 'I' for Inactive)
    1  A    between atoms: C_4  and  C_27
    2  A    between atoms: C_4  and  C_45
    3  A    between atoms: S_9  and  C_44
    4  A    between atoms: S_9  and  C_47
    5  A    between atoms: N_10  and  C_47
    6  A    between atoms: C_11  and  O_23
    7  A    between atoms: C_11  and  C_46
    8  A    between atoms: C_12  and  N_22
    9  A    between atoms: C_12  and  C_27
   10  A    between atoms: C_17  and  O_23
   11  A    between atoms: N_22  and  C_39
   12  A    between atoms: C_28  and  C_29
   13  A    between atoms: C_28  and  C_41
   14  A    between atoms: O_30  and  P_34
   15  A    between atoms: O_30  and  C_45
   16  A    between atoms: C_33  and  C_41
   17  A    between atoms: C_43  and  C_44
   18  A    between atoms: C_47  and  C_48
                            x       y       z     vdW  Elec       q    Type
                         _______ _______ _______ _____ _____    ______ ____

>  <TORSDO>
F 18

$$$$
=
 OpenBabel11042411163D

 48 50  0  0  1  0  0  0  0  0999 V2000
  188.3750  178.2180  143.0550 N   0  0  0  0  0  2  0  0  0  0  0  0
  187.9170  178.0420  141.7060 C   0  0  0  0  0  2  0  0  0  0  0  0
  190.0850  177.0210  140.9940 C   0  0  2  0  0  3  0  0  0  0  0  0
  190.1520  176.0040  142.0500 C   0  0  0  0  0  3  0  0  0  0  0  0
  188.4440  177.9880  139.3180 C   0  0  0  0  0  3  0  0  0  0  0  0
  188.7020  177.5580  140.7180 C   0  0  0  0  0  0  0  0  0  0  0  0
  189.8870  176.3190  143.3000 C   0  0  0  0  0  3  0  0  0  0  0  0
  190.8520  176.6140  139.7870 C   0  0  0  0  0  2  0  0  0  0  0  0
  190.6670  177.1440  138.5990 C   0  0  0  0  0  0  0  0  0  0  0  0
  189.3220  177.7900  138.2890 C   0  0  0  0  0  0  0  0  0  0  0  0
  189.3710  177.6290  143.7090 C   0  0  2  0  0  3  0  0  0  0  0  0
  189.9360  178.2300  144.9240 C   0  0  0  0  0  0  0  0  0  0  0  0
  191.0950  178.7320  144.9070 O   0  0  0  0  0  0  0  0  0  0  0  0
  189.1990  178.2880  146.1270 O   0  0  0  0  0  0  0  0  0  0  0  0
  188.3440  177.5260  148.2500 C   0  0  0  0  0  1  0  0  0  0  0  0
  189.0980  177.1590  146.9910 C   0  0  0  0  0  2  0  0  0  0  0  0
  191.7060  176.7510  137.6300 N   0  0  0  0  0  2  0  0  0  0  0  0
  191.8760  175.6580  136.6430 C   0  0  1  0  0  3  0  0  0  0  0  0
  191.5040  176.0580  135.1980 C   0  0  0  0  0  1  0  0  0  0  0  0
  193.9590  175.4980  137.8800 O   0  0  0  0  0  1  0  0  0  0  0  0
  193.3320  175.1280  136.6830 C   0  0  1  0  0  3  0  0  0  0  0  0
  192.2780  172.9730  136.4740 O   0  0  0  0  0  0  0  0  0  0  0  0
  193.3220  173.6290  136.5380 C   0  0  0  0  0  0  0  0  0  0  0  0
  194.6300  172.8900  136.5220 C   0  0  0  0  0  2  0  0  0  0  0  0
  194.3940  171.5050  136.4930 O   0  0  0  0  0  0  0  0  0  0  0  0
  195.0630  169.9290  138.7600 O   0  0  0  0  0  1  0  0  0  0  0  0
  195.6580  170.8250  137.4260 P   0  0  0  0  0  0  0  0  0  0  0  0
  196.5030  171.9710  137.9630 O   0  0  0  0  0  1  0  0  0  0  0  0
  196.6460  169.8190  136.4640 O   0  0  0  0  0  0  0  0  0  0  0  0
  189.0560  178.3950  136.9390 C   0  0  0  0  0  2  0  0  0  0  0  0
  187.2700  178.6820  136.7130 S   0  0  0  0  0  0  0  0  0  0  0  0
  186.6930  177.0290  136.1360 C   0  0  2  0  0  3  0  0  0  0  0  0
  185.7900  176.4690  137.1280 N   0  0  0  0  0  2  0  0  0  0  0  0
  183.9030  177.1280  135.9310 O   0  0  0  0  0  0  0  0  0  0  0  0
  184.4110  176.3060  136.7620 C   0  0  0  0  0  0  0  0  0  0  0  0
  183.5190  175.4470  137.5970 C   0  0  0  0  0  2  0  0  0  0  0  0
  182.1060  176.0500  137.6160 C   0  0  0  0  0  2  0  0  0  0  0  0
  183.6870  179.2760  139.7110 C   0  0  0  0  0  2  0  0  0  0  0  0
  184.3780  178.5390  142.1320 C   0  0  0  0  0  1  0  0  0  0  0  0
  181.2930  179.0220  141.5900 C   0  0  0  0  0  1  0  0  0  0  0  0
  181.3810  175.5090  139.8210 O   0  0  0  0  0  0  0  0  0  0  0  0
  183.6230  178.2360  140.8220 C   0  0  1  0  0  3  0  0  0  0  0  0
  181.8070  177.7820  139.4840 N   0  0  0  0  0  0  0  0  0  0  0  0
  181.7080  176.4310  139.0090 C   0  0  0  0  0  0  0  0  0  0  0  0
  182.6150  178.7810  138.7360 C   0  0  0  0  0  2  0  0  0  0  0  0
  182.1400  177.9270  140.8960 C   0  0  2  0  0  3  0  0  0  0  0  0
  187.7760  174.9590  136.8640 N   0  0  0  0  0  1  0  0  0  0  0  0
  187.8680  176.0660  135.9050 C   0  0  0  0  0  2  0  0  0  0  0  0
  1 11  1  0  0  0  0
  2  1  1  0  0  0  0
  3  8  1  6  0  0  0
  3  4  1  0  0  0  0
  4  7  2  0  0  0  0
  5  6  2  0  0  0  0
  6  3  1  0  0  0  0
  6  2  1  0  0  0  0
  7 11  1  0  0  0  0
  9  8  1  0  0  0  0
 10  9  2  0  0  0  0
 10  5  1  0  0  0  0
 11 12  1  1  0  0  0
 12 14  1  0  0  0  0
 13 12  2  0  0  0  0
 14 16  1  0  0  0  0
 16 15  1  0  0  0  0
 17  9  1  0  0  0  0
 18 19  1  6  0  0  0
 18 21  1  0  0  0  0
 18 17  1  0  0  0  0
 21 20  1  1  0  0  0
 22 23  2  0  0  0  0
 23 21  1  0  0  0  0
 24 23  1  0  0  0  0
 25 24  1  0  0  0  0
 25 27  1  0  0  0  0
 27 28  1  0  0  0  0
 27 26  1  0  0  0  0
 29 27  2  0  0  0  0
 30 10  1  0  0  0  0
 31 30  1  0  0  0  0
 32 48  1  1  0  0  0
 32 31  1  0  0  0  0
 32 33  1  0  0  0  0
 34 35  2  0  0  0  0
 35 33  1  0  0  0  0
 35 36  1  0  0  0  0
 36 37  1  0  0  0  0
 37 44  1  0  0  0  0
 38 42  1  0  0  0  0
 42 46  1  0  0  0  0
 42 39  1  1  0  0  0
 43 46  1  0  0  0  0
 44 43  1  0  0  0  0
 44 41  2  0  0  0  0
 45 43  1  0  0  0  0
 45 38  1  0  0  0  0
 46 40  1  6  0  0  0
 48 47  1  0  0  0  0
M  END
>  <MODEL>
7

>  <REMARK>
 VINA RESULT:      -6.0      3.638      8.351
  Name = 
  18 active torsions:
  status: ('A' for Active; 'I' for Inactive)
    1  A    between atoms: C_4  and  C_27
    2  A    between atoms: C_4  and  C_45
    3  A    between atoms: S_9  and  C_44
    4  A    between atoms: S_9  and  C_47
    5  A    between atoms: N_10  and  C_47
    6  A    between atoms: C_11  and  O_23
    7  A    between atoms: C_11  and  C_46
    8  A    between atoms: C_12  and  N_22
    9  A    between atoms: C_12  and  C_27
   10  A    between atoms: C_17  and  O_23
   11  A    between atoms: N_22  and  C_39
   12  A    between atoms: C_28  and  C_29
   13  A    between atoms: C_28  and  C_41
   14  A    between atoms: O_30  and  P_34
   15  A    between atoms: O_30  and  C_45
   16  A    between atoms: C_33  and  C_41
   17  A    between atoms: C_43  and  C_44
   18  A    between atoms: C_47  and  C_48
                            x       y       z     vdW  Elec       q    Type
                         _______ _______ _______ _____ _____    ______ ____

>  <TORSDO>
F 18

$$$$
=
 OpenBabel11042411163D

 48 50  0  0  1  0  0  0  0  0999 V2000
  183.3630  179.0250  138.3520 N   0  0  0  0  0  2  0  0  0  0  0  0
  184.5760  178.2940  138.1140 C   0  0  0  0  0  2  0  0  0  0  0  0
  185.3590  178.6230  140.4650 C   0  0  2  0  0  3  0  0  0  0  0  0
  184.1400  178.1340  141.1230 C   0  0  0  0  0  3  0  0  0  0  0  0
  186.9550  177.9920  138.5970 C   0  0  0  0  0  3  0  0  0  0  0  0
  185.5450  178.1510  139.0440 C   0  0  0  0  0  0  0  0  0  0  0  0
  182.9530  178.5200  140.7040 C   0  0  0  0  0  3  0  0  0  0  0  0
  186.5530  178.4750  141.3380 C   0  0  0  0  0  2  0  0  0  0  0  0
  187.7860  178.4880  140.8850 C   0  0  0  0  0  0  0  0  0  0  0  0
  188.0330  178.1130  139.4280 C   0  0  0  0  0  0  0  0  0  0  0  0
  182.7470  179.3200  139.4930 C   0  0  2  0  0  3  0  0  0  0  0  0
  181.7640  180.4080  139.5590 C   0  0  0  0  0  0  0  0  0  0  0  0
  181.9590  181.4830  138.9240 O   0  0  0  0  0  0  0  0  0  0  0  0
  180.5720  180.2780  140.3050 O   0  0  0  0  0  0  0  0  0  0  0  0
  179.1070  179.1270  138.7720 C   0  0  0  0  0  1  0  0  0  0  0  0
  179.2930  180.3250  139.6770 C   0  0  0  0  0  2  0  0  0  0  0  0
  188.7900  178.5680  141.9620 N   0  0  0  0  0  2  0  0  0  0  0  0
  189.8400  177.6730  142.5010 C   0  0  1  0  0  3  0  0  0  0  0  0
  191.2800  178.1700  142.2410 C   0  0  0  0  0  1  0  0  0  0  0  0
  189.9040  178.6310  144.7300 O   0  0  0  0  0  1  0  0  0  0  0  0
  189.6260  177.4560  144.0200 C   0  0  1  0  0  3  0  0  0  0  0  0
  187.6730  176.1000  143.6370 O   0  0  0  0  0  0  0  0  0  0  0  0
  188.2070  177.0180  144.2680 C   0  0  0  0  0  0  0  0  0  0  0  0
  187.3830  177.7560  145.2840 C   0  0  0  0  0  2  0  0  0  0  0  0
  186.0520  177.3100  145.2330 O   0  0  0  0  0  0  0  0  0  0  0  0
  185.8960  179.4290  147.1180 O   0  0  0  0  0  1  0  0  0  0  0  0
  185.1250  178.6250  145.8170 P   0  0  0  0  0  0  0  0  0  0  0  0
  183.8010  178.0690  146.3200 O   0  0  0  0  0  1  0  0  0  0  0  0
  184.8100  179.7450  144.5680 O   0  0  0  0  0  0  0  0  0  0  0  0
  189.4280  178.0960  138.8670 C   0  0  0  0  0  2  0  0  0  0  0  0
  190.1500  176.4290  139.0110 S   0  0  0  0  0  0  0  0  0  0  0  0
  190.0120  175.8090  137.2810 C   0  0  2  0  0  3  0  0  0  0  0  0
  188.6560  175.3390  137.0510 N   0  0  0  0  0  2  0  0  0  0  0  0
  188.2640  176.9510  135.4160 O   0  0  0  0  0  0  0  0  0  0  0  0
  187.9800  175.7950  135.8690 C   0  0  0  0  0  0  0  0  0  0  0  0
  186.7380  175.1030  135.4120 C   0  0  0  0  0  2  0  0  0  0  0  0
  185.7430  175.0220  136.5800 C   0  0  0  0  0  2  0  0  0  0  0  0
  182.1610  173.1940  135.5190 C   0  0  0  0  0  2  0  0  0  0  0  0
  181.1540  171.9060  137.5700 C   0  0  0  0  0  1  0  0  0  0  0  0
  183.5570  170.5270  136.0330 C   0  0  0  0  0  1  0  0  0  0  0  0
  185.8400  173.0840  137.9640 O   0  0  0  0  0  0  0  0  0  0  0  0
  182.3530  172.6240  136.9190 C   0  0  1  0  0  3  0  0  0  0  0  0
  184.4820  172.8460  136.0770 N   0  0  0  0  0  0  0  0  0  0  0  0
  185.3970  173.5970  136.8890 C   0  0  0  0  0  0  0  0  0  0  0  0
  183.5950  173.5420  135.1080 C   0  0  0  0  0  2  0  0  0  0  0  0
  183.6640  171.8730  136.7900 C   0  0  2  0  0  3  0  0  0  0  0  0
  190.3370  173.3840  137.2210 N   0  0  0  0  0  1  0  0  0  0  0  0
  191.0070  174.6710  137.0030 C   0  0  0  0  0  2  0  0  0  0  0  0
  1 11  1  0  0  0  0
  2  1  1  0  0  0  0
  2  6  1  0  0  0  0
  3  4  1  1  0  0  0
  3  8  1  0  0  0  0
  5  6  2  0  0  0  0
  5 10  1  0  0  0  0
  6  3  1  0  0  0  0
  7  4  2  0  0  0  0
  9  8  1  0  0  0  0
  9 17  1  0  0  0  0
 10  9  2  0  0  0  0
 11 12  1  6  0  0  0
 11  7  1  0  0  0  0
 12 14  1  0  0  0  0
 13 12  2  0  0  0  0
 15 16  1  0  0  0  0
 16 14  1  0  0  0  0
 17 18  1  0  0  0  0
 18 19  1  1  0  0  0
 18 21  1  0  0  0  0
 21 23  1  0  0  0  0
 21 20  1  1  0  0  0
 22 23  2  0  0  0  0
 23 24  1  0  0  0  0
 25 24  1  0  0  0  0
 25 27  1  0  0  0  0
 27 28  1  0  0  0  0
 27 26  1  0  0  0  0
 29 27  2  0  0  0  0
 30 31  1  0  0  0  0
 30 10  1  0  0  0  0
 32 48  1  1  0  0  0
 32 31  1  0  0  0  0
 33 32  1  0  0  0  0
 34 35  2  0  0  0  0
 35 33  1  0  0  0  0
 36 35  1  0  0  0  0
 36 37  1  0  0  0  0
 37 44  1  0  0  0  0
 38 42  1  0  0  0  0
 42 39  1  6  0  0  0
 43 46  1  0  0  0  0
 43 44  1  0  0  0  0
 44 41  2  0  0  0  0
 45 38  1  0  0  0  0
 45 43  1  0  0  0  0
 46 40  1  6  0  0  0
 46 42  1  0  0  0  0
 48 47  1  0  0  0  0
M  END
>  <MODEL>
8

>  <REMARK>
 VINA RESULT:      -5.9      3.052      8.478
  Name = 
  18 active torsions:
  status: ('A' for Active; 'I' for Inactive)
    1  A    between atoms: C_4  and  C_27
    2  A    between atoms: C_4  and  C_45
    3  A    between atoms: S_9  and  C_44
    4  A    between atoms: S_9  and  C_47
    5  A    between atoms: N_10  and  C_47
    6  A    between atoms: C_11  and  O_23
    7  A    between atoms: C_11  and  C_46
    8  A    between atoms: C_12  and  N_22
    9  A    between atoms: C_12  and  C_27
   10  A    between atoms: C_17  and  O_23
   11  A    between atoms: N_22  and  C_39
   12  A    between atoms: C_28  and  C_29
   13  A    between atoms: C_28  and  C_41
   14  A    between atoms: O_30  and  P_34
   15  A    between atoms: O_30  and  C_45
   16  A    between atoms: C_33  and  C_41
   17  A    between atoms: C_43  and  C_44
   18  A    between atoms: C_47  and  C_48
                            x       y       z     vdW  Elec       q    Type
                         _______ _______ _______ _____ _____    ______ ____

>  <TORSDO>
F 18

$$$$
=
 OpenBabel11042411163D

 48 50  0  0  1  0  0  0  0  0999 V2000
  184.8360  179.1520  141.7500 N   0  0  0  0  0  2  0  0  0  0  0  0
  185.6670  178.5320  140.7570 C   0  0  0  0  0  2  0  0  0  0  0  0
  187.4440  177.9950  142.4310 C   0  0  2  0  0  3  0  0  0  0  0  0
  186.5700  177.3270  143.4030 C   0  0  0  0  0  3  0  0  0  0  0  0
  187.9190  178.0370  139.9390 C   0  0  0  0  0  3  0  0  0  0  0  0
  186.9010  178.0520  141.0240 C   0  0  0  0  0  0  0  0  0  0  0  0
  185.4120  177.8560  143.7350 C   0  0  0  0  0  3  0  0  0  0  0  0
  188.8510  177.5280  142.5430 C   0  0  0  0  0  2  0  0  0  0  0  0
  189.7410  177.6790  141.5880 C   0  0  0  0  0  0  0  0  0  0  0  0
  189.2540  177.8380  140.1530 C   0  0  0  0  0  0  0  0  0  0  0  0
  184.8450  179.0360  143.0740 C   0  0  2  0  0  3  0  0  0  0  0  0
  184.2060  180.0470  143.9250 C   0  0  0  0  0  0  0  0  0  0  0  0
  184.9090  180.8910  144.5490 O   0  0  0  0  0  0  0  0  0  0  0  0
  182.8020  180.1230  144.0490 O   0  0  0  0  0  0  0  0  0  0  0  0
  181.1690  179.1490  142.5630 C   0  0  0  0  0  1  0  0  0  0  0  0
  181.9730  178.9820  143.8330 C   0  0  0  0  0  2  0  0  0  0  0  0
  191.1110  177.3560  142.0280 N   0  0  0  0  0  2  0  0  0  0  0  0
  191.8540  177.4080  143.3090 C   0  0  1  0  0  3  0  0  0  0  0  0
  191.8760  178.8090  143.9610 C   0  0  0  0  0  1  0  0  0  0  0  0
  192.0550  175.2120  144.3230 O   0  0  0  0  0  1  0  0  0  0  0  0
  191.2720  176.3740  144.3050 C   0  0  1  0  0  3  0  0  0  0  0  0
  192.0500  176.7510  146.5520 O   0  0  0  0  0  0  0  0  0  0  0  0
  191.2080  176.9840  145.6800 C   0  0  0  0  0  0  0  0  0  0  0  0
  190.0470  177.8730  146.0290 C   0  0  0  0  0  2  0  0  0  0  0  0
  188.8650  177.1150  146.0770 O   0  0  0  0  0  0  0  0  0  0  0  0
  189.0970  178.6220  148.4740 O   0  0  0  0  0  1  0  0  0  0  0  0
  188.1260  177.5480  147.5590 P   0  0  0  0  0  0  0  0  0  0  0  0
  187.9350  176.2740  148.3690 O   0  0  0  0  0  1  0  0  0  0  0  0
  186.5980  178.2590  147.2880 O   0  0  0  0  0  0  0  0  0  0  0  0
  190.2340  177.9960  139.0240 C   0  0  0  0  0  2  0  0  0  0  0  0
  190.6230  176.3740  138.2890 S   0  0  0  0  0  0  0  0  0  0  0  0
  189.8270  176.5110  136.6330 C   0  0  2  0  0  3  0  0  0  0  0  0
  188.3830  176.4800  136.7960 N   0  0  0  0  0  2  0  0  0  0  0  0
  188.1820  178.7570  136.3460 O   0  0  0  0  0  0  0  0  0  0  0  0
  187.6310  177.6080  136.3210 C   0  0  0  0  0  0  0  0  0  0  0  0
  186.1510  177.4970  136.1580 C   0  0  0  0  0  2  0  0  0  0  0  0
  185.5750  176.6630  137.3130 C   0  0  0  0  0  2  0  0  0  0  0  0
  182.0380  177.5260  139.3250 C   0  0  0  0  0  2  0  0  0  0  0  0
  180.7230  175.3160  139.8430 C   0  0  0  0  0  1  0  0  0  0  0  0
  180.5700  176.4320  136.8800 C   0  0  0  0  0  1  0  0  0  0  0  0
  184.1810  174.9250  136.4670 O   0  0  0  0  0  0  0  0  0  0  0  0
  181.8530  176.0340  139.0780 C   0  0  1  0  0  3  0  0  0  0  0  0
  183.0140  176.7940  137.2430 N   0  0  0  0  0  0  0  0  0  0  0  0
  184.2350  176.1000  136.9480 C   0  0  0  0  0  0  0  0  0  0  0  0
  183.0100  177.9250  138.2100 C   0  0  0  0  0  2  0  0  0  0  0  0
  181.8720  175.9470  137.5640 C   0  0  2  0  0  3  0  0  0  0  0  0
  189.1160  174.4990  135.4350 N   0  0  0  0  0  1  0  0  0  0  0  0
  190.2650  175.3740  135.6960 C   0  0  0  0  0  2  0  0  0  0  0  0
  1 11  1  0  0  0  0
  2  6  1  0  0  0  0
  2  1  1  0  0  0  0
  3  8  1  6  0  0  0
  3  4  1  0  0  0  0
  4  7  2  0  0  0  0
  5 10  1  0  0  0  0
  5  6  2  0  0  0  0
  6  3  1  0  0  0  0
  9 17  1  0  0  0  0
  9  8  1  0  0  0  0
 10  9  2  0  0  0  0
 11  7  1  0  0  0  0
 11 12  1  6  0  0  0
 12 14  1  0  0  0  0
 12 13  2  0  0  0  0
 15 16  1  0  0  0  0
 16 14  1  0  0  0  0
 17 18  1  0  0  0  0
 18 19  1  1  0  0  0
 18 21  1  0  0  0  0
 21 20  1  1  0  0  0
 21 23  1  0  0  0  0
 23 24  1  0  0  0  0
 23 22  2  0  0  0  0
 24 25  1  0  0  0  0
 25 27  1  0  0  0  0
 27 28  1  0  0  0  0
 27 26  1  0  0  0  0
 29 27  2  0  0  0  0
 30 10  1  0  0  0  0
 31 30  1  0  0  0  0
 32 48  1  6  0  0  0
 32 33  1  0  0  0  0
 32 31  1  0  0  0  0
 35 34  2  0  0  0  0
 35 33  1  0  0  0  0
 36 35  1  0  0  0  0
 36 37  1  0  0  0  0
 41 44  2  0  0  0  0
 42 38  1  0  0  0  0
 42 39  1  6  0  0  0
 43 46  1  0  0  0  0
 43 45  1  0  0  0  0
 44 43  1  0  0  0  0
 44 37  1  0  0  0  0
 45 38  1  0  0  0  0
 46 40  1  6  0  0  0
 46 42  1  0  0  0  0
 47 48  1  0  0  0  0
M  END
>  <MODEL>
9

>  <REMARK>
 VINA RESULT:      -5.8      2.933      8.612
  Name = 
  18 active torsions:
  status: ('A' for Active; 'I' for Inactive)
    1  A    between atoms: C_4  and  C_27
    2  A    between atoms: C_4  and  C_45
    3  A    between atoms: S_9  and  C_44
    4  A    between atoms: S_9  and  C_47
    5  A    between atoms: N_10  and  C_47
    6  A    between atoms: C_11  and  O_23
    7  A    between atoms: C_11  and  C_46
    8  A    between atoms: C_12  and  N_22
    9  A    between atoms: C_12  and  C_27
   10  A    between atoms: C_17  and  O_23
   11  A    between atoms: N_22  and  C_39
   12  A    between atoms: C_28  and  C_29
   13  A    between atoms: C_28  and  C_41
   14  A    between atoms: O_30  and  P_34
   15  A    between atoms: O_30  and  C_45
   16  A    between atoms: C_33  and  C_41
   17  A    between atoms: C_43  and  C_44
   18  A    between atoms: C_47  and  C_48
                            x       y       z     vdW  Elec       q    Type
                         _______ _______ _______ _____ _____    ______ ____

>  <TORSDO>
F 18

$$$$
