=
 OpenBabel11032421153D

 52 56  0  0  1  0  0  0  0  0999 V2000
  189.7900  176.9570  140.2450 C   0  0  0  0  0  3  0  0  0  0  0  0
  190.2150  176.8900  141.4980 C   0  0  0  0  0  3  0  0  0  0  0  0
  191.9990  176.2150  146.5100 C   0  0  0  0  0  1  0  0  0  0  0  0
  187.5910  177.7820  145.1200 C   0  0  0  0  0  3  0  0  0  0  0  0
  189.7390  177.1730  143.9260 C   0  0  0  0  0  0  0  0  0  0  0  0
  189.3520  177.2910  142.5580 N   0  0  0  0  0  2  0  0  0  0  0  0
  189.1630  177.0820  147.3890 C   0  0  0  0  0  3  0  0  0  0  0  0
  190.9500  176.7350  144.3510 N   0  0  0  0  0  0  0  0  0  0  0  0
  189.6730  177.0380  146.0920 C   0  0  0  0  0  0  0  0  0  0  0  0
  187.0380  177.8350  146.4160 C   0  0  0  0  0  0  0  0  0  0  0  0
  190.8980  176.6660  145.6760 N   0  0  0  0  0  0  0  0  0  0  0  0
  187.8240  177.4920  147.5430 C   0  0  0  0  0  3  0  0  0  0  0  0
  188.9150  177.3740  145.0080 C   0  0  0  0  0  0  0  0  0  0  0  0
  185.6290  178.2880  146.6180 C   0  0  0  0  0  2  0  0  0  0  0  0
  185.2800  179.3360  145.6650 N   0  0  0  0  0  2  0  0  0  0  0  0
  180.5120  178.5030  141.9100 C   0  0  0  0  0  0  0  0  0  0  0  0
  179.5270  178.1190  139.7600 N   0  0  0  0  0  1  0  0  0  0  0  0
  179.4300  178.3090  141.1690 C   0  0  0  0  0  3  0  0  0  0  0  0
  182.2120  178.8430  143.6310 C   0  0  0  0  0  0  0  0  0  0  0  0
  182.7400  178.7380  142.3560 C   0  0  0  0  0  0  0  0  0  0  0  0
  184.1130  178.8290  142.1310 C   0  0  0  0  0  3  0  0  0  0  0  0
  184.4300  179.1320  144.5340 C   0  0  0  0  0  0  0  0  0  0  0  0
  181.7950  178.5410  141.3690 O   0  0  0  0  0  0  0  0  0  0  0  0
  183.0440  179.0350  144.7330 C   0  0  0  0  0  3  0  0  0  0  0  0
  180.4280  178.7300  143.6950 S   0  0  0  0  0  0  0  0  0  0  0  0
  184.9600  179.0270  143.2310 C   0  0  0  0  0  3  0  0  0  0  0  0
  190.8350  176.4180  138.8980 S   0  0  0  0  0  0  0  0  0  0  0  0
  189.3960  175.9230  137.8810 C   0  0  1  0  0  3  0  0  0  0  0  0
  189.4760  178.3550  137.0140 C   0  0  0  0  0  1  0  0  0  0  0  0
  188.9650  176.9370  136.7960 C   0  0  2  0  0  3  0  0  0  0  0  0
  186.7300  175.7520  137.1290 C   0  0  0  0  0  1  0  0  0  0  0  0
  187.4440  176.9710  136.5700 C   0  0  1  0  0  3  0  0  0  0  0  0
  186.7590  178.2910  136.9460 C   0  0  0  0  0  2  0  0  0  0  0  0
  185.9360  178.1940  138.2200 C   0  0  0  0  0  2  0  0  0  0  0  0
  186.7160  178.5810  139.3100 O   0  0  0  0  0  1  0  0  0  0  0  0
  189.6360  174.5430  137.2760 C   0  0  0  0  0  2  0  0  0  0  0  0
  191.0620  174.2540  137.2080 N   0  0  0  0  0  2  0  0  0  0  0  0
  190.8220  172.5440  135.6340 O   0  0  0  0  0  0  0  0  0  0  0  0
  191.5930  173.2590  136.3290 C   0  0  0  0  0  0  0  0  0  0  0  0
  193.0660  173.0650  136.2190 C   0  0  2  0  0  3  0  0  0  0  0  0
  193.3700  171.7030  136.2590 O   0  0  0  0  0  1  0  0  0  0  0  0
  193.7700  173.7880  137.3580 C   0  0  0  0  0  2  0  0  0  0  0  0
  196.0270  176.2250  135.8430 O   0  0  0  0  0  1  0  0  0  0  0  0
  194.9650  175.6230  136.1490 C   0  0  0  0  0  0  0  0  0  0  0  0
  195.0130  174.3950  136.8960 N   0  0  0  0  0  0  0  0  0  0  0  0
  193.7410  176.1600  135.7610 O   0  0  0  0  0  0  0  0  0  0  0  0
  196.2780  173.9000  137.4400 C   0  0  0  0  0  0  0  0  0  0  0  0
  196.3670  172.3930  137.5760 C   0  0  0  0  0  2  0  0  0  0  0  0
  197.1390  173.1100  136.4770 C   0  0  0  0  0  2  0  0  0  0  0  0
  196.9630  174.7030  138.5000 C   0  0  0  0  0  0  0  0  0  0  0  0
  198.0390  175.2290  138.2700 O   0  0  0  0  0  0  0  0  0  0  0  0
  196.3700  174.8160  139.8600 C   0  0  0  0  0  1  0  0  0  0  0  0
  1  2  2  0  0  0  0
  2  6  1  0  0  0  0
  4 10  1  0  0  0  0
  5  8  2  0  0  0  0
  5 13  1  0  0  0  0
  6  5  1  0  0  0  0
  7 12  1  0  0  0  0
  8 11  1  0  0  0  0
  9  7  2  0  0  0  0
 10 14  1  0  0  0  0
 10 12  2  0  0  0  0
 11  9  1  0  0  0  0
 11  3  1  0  0  0  0
 13  4  2  0  0  0  0
 13  9  1  0  0  0  0
 15 14  1  0  0  0  0
 16 25  1  0  0  0  0
 17 18  1  0  0  0  0
 18 16  2  0  0  0  0
 19 25  1  0  0  0  0
 19 24  1  0  0  0  0
 20 19  2  0  0  0  0
 21 20  1  0  0  0  0
 21 26  2  0  0  0  0
 22 24  2  0  0  0  0
 22 15  1  0  0  0  0
 23 16  1  0  0  0  0
 23 20  1  0  0  0  0
 26 22  1  0  0  0  0
 27  1  1  0  0  0  0
 28 36  1  6  0  0  0
 28 27  1  0  0  0  0
 30 29  1  1  0  0  0
 30 28  1  0  0  0  0
 32 30  1  0  0  0  0
 32 33  1  0  0  0  0
 32 31  1  1  0  0  0
 33 34  1  0  0  0  0
 34 35  1  0  0  0  0
 37 36  1  0  0  0  0
 38 39  2  0  0  0  0
 39 37  1  0  0  0  0
 40 41  1  1  0  0  0
 40 39  1  0  0  0  0
 40 42  1  0  0  0  0
 43 44  1  0  0  0  0
 44 45  1  0  0  0  0
 45 42  1  0  0  0  0
 45 47  1  0  0  0  0
 46 44  2  0  0  0  0
 47 48  1  0  0  0  0
 47 50  1  0  0  0  0
 49 47  1  0  0  0  0
 49 48  1  0  0  0  0
 50 52  1  0  0  0  0
 51 50  2  0  0  0  0
M  END
>  <MODEL>
1

>  <REMARK>
 VINA RESULT:      -8.9      0.000      0.000
  Name = 
  17 active torsions:
  status: ('A' for Active; 'I' for Inactive)
    1  A    between atoms: C_1  and  C_3
    2  A    between atoms: C_1  and  C_12
    3  A    between atoms: C_1  and  S_40
    4  A    between atoms: C_2  and  C_10
    5  A    between atoms: C_2  and  N_37
    6  A    between atoms: C_3  and  N_4
    7  A    between atoms: C_5  and  S_40
    8  A    between atoms: C_7  and  C_16
    9  A    between atoms: C_9  and  N_20
   10  A    between atoms: C_9  and  C_34
   11  A    between atoms: C_12  and  C_49
   12  A    between atoms: C_13  and  C_27
   13  A    between atoms: C_13  and  C_36
   14  A    between atoms: C_16  and  C_49
   15  A    between atoms: N_18  and  C_19
   16  A    between atoms: N_20  and  C_39
   17  A    between atoms: C_27  and  N_37
                            x       y       z     vdW  Elec       q    Type
                         _______ _______ _______ _____ _____    ______ ____

>  <TORSDO>
F 17

$$$$
=
 OpenBabel11032421153D

 52 56  0  0  1  0  0  0  0  0999 V2000
  188.3430  175.4060  136.7730 C   0  0  0  0  0  3  0  0  0  0  0  0
  187.1620  174.8050  136.7520 C   0  0  0  0  0  3  0  0  0  0  0  0
  182.4210  172.3510  136.2360 C   0  0  0  0  0  1  0  0  0  0  0  0
  183.2720  176.8050  138.0400 C   0  0  0  0  0  3  0  0  0  0  0  0
  184.7160  174.8990  137.2080 C   0  0  0  0  0  0  0  0  0  0  0  0
  186.0200  175.4750  137.2740 N   0  0  0  0  0  2  0  0  0  0  0  0
  181.2090  174.9650  137.3580 C   0  0  0  0  0  3  0  0  0  0  0  0
  184.4390  173.6700  136.7070 N   0  0  0  0  0  0  0  0  0  0  0  0
  182.5590  174.6550  137.2020 C   0  0  0  0  0  0  0  0  0  0  0  0
  181.9170  177.1580  138.2070 C   0  0  0  0  0  0  0  0  0  0  0  0
  183.1180  173.5310  136.7180 N   0  0  0  0  0  0  0  0  0  0  0  0
  180.8930  176.2390  137.8730 C   0  0  0  0  0  3  0  0  0  0  0  0
  183.5440  175.5410  137.5300 C   0  0  0  0  0  0  0  0  0  0  0  0
  181.5470  178.4900  138.7730 C   0  0  0  0  0  2  0  0  0  0  0  0
  180.8320  178.3360  140.0350 N   0  0  0  0  0  2  0  0  0  0  0  0
  184.7560  178.9840  144.6950 C   0  0  0  0  0  0  0  0  0  0  0  0
  185.2960  179.2200  147.0170 N   0  0  0  0  0  1  0  0  0  0  0  0
  185.6710  179.1010  145.6480 C   0  0  0  0  0  3  0  0  0  0  0  0
  183.4340  178.7090  142.6590 C   0  0  0  0  0  0  0  0  0  0  0  0
  182.6600  178.8250  143.8010 C   0  0  0  0  0  0  0  0  0  0  0  0
  181.2680  178.7860  143.7390 C   0  0  0  0  0  3  0  0  0  0  0  0
  181.4400  178.5010  141.3180 C   0  0  0  0  0  0  0  0  0  0  0  0
  183.3900  178.9760  144.9630 O   0  0  0  0  0  0  0  0  0  0  0  0
  182.8400  178.5420  141.4090 C   0  0  0  0  0  3  0  0  0  0  0  0
  185.1950  178.8150  142.9560 S   0  0  0  0  0  0  0  0  0  0  0  0
  180.6580  178.6230  142.4870 C   0  0  0  0  0  3  0  0  0  0  0  0
  189.7860  174.6060  136.0830 S   0  0  0  0  0  0  0  0  0  0  0  0
  190.8940  175.3700  137.3240 C   0  0  1  0  0  3  0  0  0  0  0  0
  192.6190  175.5950  135.4140 C   0  0  0  0  0  1  0  0  0  0  0  0
  192.3820  175.4760  136.9130 C   0  0  2  0  0  3  0  0  0  0  0  0
  193.5790  173.2710  136.4490 C   0  0  0  0  0  1  0  0  0  0  0  0
  193.2470  174.3380  137.4790 C   0  0  1  0  0  3  0  0  0  0  0  0
  194.4700  174.7900  138.2880 C   0  0  0  0  0  2  0  0  0  0  0  0
  195.4490  173.6620  138.5700 C   0  0  0  0  0  2  0  0  0  0  0  0
  196.3680  174.0740  139.5360 O   0  0  0  0  0  1  0  0  0  0  0  0
  190.3440  176.7290  137.7460 C   0  0  0  0  0  2  0  0  0  0  0  0
  189.9530  176.7100  139.1480 N   0  0  0  0  0  2  0  0  0  0  0  0
  188.7390  178.7030  139.0220 O   0  0  0  0  0  0  0  0  0  0  0  0
  189.1100  177.7180  139.7140 C   0  0  0  0  0  0  0  0  0  0  0  0
  188.6540  177.6070  141.1280 C   0  0  2  0  0  3  0  0  0  0  0  0
  188.5760  178.8770  141.7030 O   0  0  0  0  0  1  0  0  0  0  0  0
  189.6220  176.7380  141.9180 C   0  0  0  0  0  2  0  0  0  0  0  0
  188.5300  176.9850  145.3930 O   0  0  0  0  0  1  0  0  0  0  0  0
  188.4980  176.7750  144.1520 C   0  0  0  0  0  0  0  0  0  0  0  0
  189.6260  177.1150  143.3270 N   0  0  0  0  0  0  0  0  0  0  0  0
  187.3620  176.2040  143.5860 O   0  0  0  0  0  0  0  0  0  0  0  0
  190.8790  177.5730  143.9250 C   0  0  0  0  0  0  0  0  0  0  0  0
  191.7860  178.3490  142.9910 C   0  0  0  0  0  2  0  0  0  0  0  0
  191.0170  179.0720  144.0890 C   0  0  0  0  0  2  0  0  0  0  0  0
  191.5570  176.6920  144.9270 C   0  0  0  0  0  0  0  0  0  0  0  0
  191.8210  177.1180  146.0380 O   0  0  0  0  0  0  0  0  0  0  0  0
  191.9680  175.3100  144.5560 C   0  0  0  0  0  1  0  0  0  0  0  0
  2  1  2  0  0  0  0
  2  6  1  0  0  0  0
  3 11  1  0  0  0  0
  4 10  1  0  0  0  0
  5  6  1  0  0  0  0
  5 13  1  0  0  0  0
  7 12  1  0  0  0  0
  8 11  1  0  0  0  0
  8  5  2  0  0  0  0
  9  7  2  0  0  0  0
  9 13  1  0  0  0  0
 10 14  1  0  0  0  0
 11  9  1  0  0  0  0
 12 10  2  0  0  0  0
 13  4  2  0  0  0  0
 14 15  1  0  0  0  0
 15 22  1  0  0  0  0
 16 23  1  0  0  0  0
 16 18  2  0  0  0  0
 18 17  1  0  0  0  0
 19 25  1  0  0  0  0
 19 20  1  0  0  0  0
 20 23  1  0  0  0  0
 21 20  2  0  0  0  0
 22 24  1  0  0  0  0
 22 26  2  0  0  0  0
 24 19  2  0  0  0  0
 25 16  1  0  0  0  0
 26 21  1  0  0  0  0
 27  1  1  0  0  0  0
 27 28  1  0  0  0  0
 28 36  1  6  0  0  0
 30 29  1  6  0  0  0
 30 28  1  0  0  0  0
 30 32  1  0  0  0  0
 32 31  1  6  0  0  0
 32 33  1  0  0  0  0
 33 34  1  0  0  0  0
 34 35  1  0  0  0  0
 36 37  1  0  0  0  0
 37 39  1  0  0  0  0
 38 39  2  0  0  0  0
 39 40  1  0  0  0  0
 40 41  1  1  0  0  0
 40 42  1  0  0  0  0
 42 45  1  0  0  0  0
 44 43  1  0  0  0  0
 45 47  1  0  0  0  0
 45 44  1  0  0  0  0
 46 44  2  0  0  0  0
 47 49  1  0  0  0  0
 47 50  1  0  0  0  0
 48 47  1  0  0  0  0
 48 49  1  0  0  0  0
 50 51  2  0  0  0  0
 52 50  1  0  0  0  0
M  END
>  <MODEL>
2

>  <REMARK>
 VINA RESULT:      -8.1      3.234      8.169
  Name = 
  17 active torsions:
  status: ('A' for Active; 'I' for Inactive)
    1  A    between atoms: C_1  and  C_3
    2  A    between atoms: C_1  and  C_12
    3  A    between atoms: C_1  and  S_40
    4  A    between atoms: C_2  and  C_10
    5  A    between atoms: C_2  and  N_37
    6  A    between atoms: C_3  and  N_4
    7  A    between atoms: C_5  and  S_40
    8  A    between atoms: C_7  and  C_16
    9  A    between atoms: C_9  and  N_20
   10  A    between atoms: C_9  and  C_34
   11  A    between atoms: C_12  and  C_49
   12  A    between atoms: C_13  and  C_27
   13  A    between atoms: C_13  and  C_36
   14  A    between atoms: C_16  and  C_49
   15  A    between atoms: N_18  and  C_19
   16  A    between atoms: N_20  and  C_39
   17  A    between atoms: C_27  and  N_37
                            x       y       z     vdW  Elec       q    Type
                         _______ _______ _______ _____ _____    ______ ____

>  <TORSDO>
F 17

$$$$
=
 OpenBabel11032421153D

 52 56  0  0  1  0  0  0  0  0999 V2000
  190.3710  177.4740  140.7240 C   0  0  0  0  0  3  0  0  0  0  0  0
  190.7010  177.3510  142.0010 C   0  0  0  0  0  3  0  0  0  0  0  0
  191.9960  176.1720  147.0700 C   0  0  0  0  0  1  0  0  0  0  0  0
  187.7610  177.9610  145.4330 C   0  0  0  0  0  3  0  0  0  0  0  0
  190.0030  177.4170  144.3900 C   0  0  0  0  0  0  0  0  0  0  0  0
  189.7490  177.6710  143.0100 N   0  0  0  0  0  2  0  0  0  0  0  0
  189.1020  177.0170  147.7610 C   0  0  0  0  0  3  0  0  0  0  0  0
  191.1620  176.9140  144.8820 N   0  0  0  0  0  0  0  0  0  0  0  0
  189.7310  177.0830  146.5180 C   0  0  0  0  0  0  0  0  0  0  0  0
  187.0880  177.9050  146.6710 C   0  0  0  0  0  0  0  0  0  0  0  0
  190.9840  176.7230  146.1840 N   0  0  0  0  0  0  0  0  0  0  0  0
  187.7600  177.4410  147.8280 C   0  0  0  0  0  3  0  0  0  0  0  0
  189.0830  177.5350  145.4060 C   0  0  0  0  0  0  0  0  0  0  0  0
  185.6730  178.3690  146.7840 C   0  0  0  0  0  2  0  0  0  0  0  0
  185.3790  179.3820  145.7770 N   0  0  0  0  0  2  0  0  0  0  0  0
  182.8710  178.6600  140.2340 C   0  0  0  0  0  0  0  0  0  0  0  0
  181.0170  178.3250  138.7550 N   0  0  0  0  0  1  0  0  0  0  0  0
  182.4040  178.5330  138.9990 C   0  0  0  0  0  3  0  0  0  0  0  0
  184.1330  178.9850  142.3010 C   0  0  0  0  0  0  0  0  0  0  0  0
  182.7820  178.7740  142.5140 C   0  0  0  0  0  0  0  0  0  0  0  0
  182.2460  178.7550  143.8010 C   0  0  0  0  0  3  0  0  0  0  0  0
  184.4870  179.1760  144.6790 C   0  0  0  0  0  0  0  0  0  0  0  0
  182.0500  178.5930  141.3570 O   0  0  0  0  0  0  0  0  0  0  0  0
  185.0000  179.1920  143.3720 C   0  0  0  0  0  3  0  0  0  0  0  0
  184.6160  178.9410  140.5790 S   0  0  0  0  0  0  0  0  0  0  0  0
  183.1080  178.9570  144.8880 C   0  0  0  0  0  3  0  0  0  0  0  0
  191.5330  177.0370  139.4360 S   0  0  0  0  0  0  0  0  0  0  0  0
  190.2230  176.2730  138.4120 C   0  0  1  0  0  3  0  0  0  0  0  0
  188.1860  177.7670  138.9510 C   0  0  0  0  0  1  0  0  0  0  0  0
  189.1370  177.2410  137.8850 C   0  0  2  0  0  3  0  0  0  0  0  0
  187.6580  175.3350  137.0540 C   0  0  0  0  0  1  0  0  0  0  0  0
  188.3240  176.6580  136.7170 C   0  0  1  0  0  3  0  0  0  0  0  0
  187.3760  177.6480  136.0260 C   0  0  0  0  0  2  0  0  0  0  0  0
  186.0960  176.9980  135.5270 C   0  0  0  0  0  2  0  0  0  0  0  0
  185.0110  177.4820  136.2580 O   0  0  0  0  0  1  0  0  0  0  0  0
  190.8520  175.4810  137.2690 C   0  0  0  0  0  2  0  0  0  0  0  0
  192.2730  175.7790  137.1610 N   0  0  0  0  0  2  0  0  0  0  0  0
  192.8540  173.6270  136.4580 O   0  0  0  0  0  0  0  0  0  0  0  0
  193.2200  174.8070  136.7080 C   0  0  0  0  0  0  0  0  0  0  0  0
  194.6490  175.1830  136.5190 C   0  0  2  0  0  3  0  0  0  0  0  0
  194.7340  176.3740  135.7950 O   0  0  0  0  0  1  0  0  0  0  0  0
  195.3840  174.0730  135.7820 C   0  0  0  0  0  2  0  0  0  0  0  0
  197.1640  171.4020  137.5220 O   0  0  0  0  0  1  0  0  0  0  0  0
  196.2710  172.0010  136.8650 C   0  0  0  0  0  0  0  0  0  0  0  0
  196.3500  173.4220  136.6590 N   0  0  0  0  0  0  0  0  0  0  0  0
  195.2100  171.2730  136.3370 O   0  0  0  0  0  0  0  0  0  0  0  0
  197.5330  174.1740  137.0770 C   0  0  0  0  0  0  0  0  0  0  0  0
  198.8510  173.6270  136.5630 C   0  0  0  0  0  2  0  0  0  0  0  0
  198.2690  174.9040  135.9730 C   0  0  0  0  0  2  0  0  0  0  0  0
  197.5530  174.7710  138.4480 C   0  0  0  0  0  0  0  0  0  0  0  0
  198.4630  175.5110  138.7810 O   0  0  0  0  0  0  0  0  0  0  0  0
  196.4980  174.4200  139.4370 C   0  0  0  0  0  1  0  0  0  0  0  0
  1  2  2  0  0  0  0
  2  6  1  0  0  0  0
  4 10  1  0  0  0  0
  5  8  2  0  0  0  0
  5 13  1  0  0  0  0
  6  5  1  0  0  0  0
  7 12  1  0  0  0  0
  8 11  1  0  0  0  0
  9  7  2  0  0  0  0
 10 14  1  0  0  0  0
 10 12  2  0  0  0  0
 11  9  1  0  0  0  0
 11  3  1  0  0  0  0
 13  4  2  0  0  0  0
 13  9  1  0  0  0  0
 15 14  1  0  0  0  0
 16 25  1  0  0  0  0
 16 23  1  0  0  0  0
 17 18  1  0  0  0  0
 18 16  2  0  0  0  0
 19 20  2  0  0  0  0
 19 24  1  0  0  0  0
 20 21  1  0  0  0  0
 21 26  2  0  0  0  0
 22 26  1  0  0  0  0
 22 15  1  0  0  0  0
 23 20  1  0  0  0  0
 24 22  2  0  0  0  0
 25 19  1  0  0  0  0
 27  1  1  0  0  0  0
 28 36  1  6  0  0  0
 28 27  1  0  0  0  0
 30 28  1  0  0  0  0
 30 29  1  1  0  0  0
 32 31  1  1  0  0  0
 32 30  1  0  0  0  0
 33 32  1  0  0  0  0
 34 33  1  0  0  0  0
 34 35  1  0  0  0  0
 37 36  1  0  0  0  0
 38 39  2  0  0  0  0
 39 37  1  0  0  0  0
 40 41  1  6  0  0  0
 40 39  1  0  0  0  0
 42 40  1  0  0  0  0
 42 45  1  0  0  0  0
 44 43  1  0  0  0  0
 45 44  1  0  0  0  0
 45 47  1  0  0  0  0
 46 44  2  0  0  0  0
 47 50  1  0  0  0  0
 48 47  1  0  0  0  0
 49 48  1  0  0  0  0
 49 47  1  0  0  0  0
 50 51  2  0  0  0  0
 50 52  1  0  0  0  0
M  END
>  <MODEL>
3

>  <REMARK>
 VINA RESULT:      -8.1      1.569      2.225
  Name = 
  17 active torsions:
  status: ('A' for Active; 'I' for Inactive)
    1  A    between atoms: C_1  and  C_3
    2  A    between atoms: C_1  and  C_12
    3  A    between atoms: C_1  and  S_40
    4  A    between atoms: C_2  and  C_10
    5  A    between atoms: C_2  and  N_37
    6  A    between atoms: C_3  and  N_4
    7  A    between atoms: C_5  and  S_40
    8  A    between atoms: C_7  and  C_16
    9  A    between atoms: C_9  and  N_20
   10  A    between atoms: C_9  and  C_34
   11  A    between atoms: C_12  and  C_49
   12  A    between atoms: C_13  and  C_27
   13  A    between atoms: C_13  and  C_36
   14  A    between atoms: C_16  and  C_49
   15  A    between atoms: N_18  and  C_19
   16  A    between atoms: N_20  and  C_39
   17  A    between atoms: C_27  and  N_37
                            x       y       z     vdW  Elec       q    Type
                         _______ _______ _______ _____ _____    ______ ____

>  <TORSDO>
F 17

$$$$
=
 OpenBabel11032421153D

 52 56  0  0  1  0  0  0  0  0999 V2000
  189.3860  177.6260  140.0810 C   0  0  0  0  0  3  0  0  0  0  0  0
  189.7560  177.2300  141.2900 C   0  0  0  0  0  3  0  0  0  0  0  0
  191.8550  176.3830  146.1520 C   0  0  0  0  0  1  0  0  0  0  0  0
  187.3270  177.8660  145.0970 C   0  0  0  0  0  3  0  0  0  0  0  0
  189.4170  177.3850  143.7520 C   0  0  0  0  0  0  0  0  0  0  0  0
  188.9460  177.5530  142.4160 N   0  0  0  0  0  2  0  0  0  0  0  0
  189.0520  177.1140  147.2340 C   0  0  0  0  0  3  0  0  0  0  0  0
  190.6640  176.9670  144.0850 N   0  0  0  0  0  0  0  0  0  0  0  0
  189.4850  177.1470  145.9090 C   0  0  0  0  0  0  0  0  0  0  0  0
  186.8500  177.8400  146.4240 C   0  0  0  0  0  0  0  0  0  0  0  0
  190.6930  176.8350  145.4060 N   0  0  0  0  0  0  0  0  0  0  0  0
  187.7120  177.4720  147.4850 C   0  0  0  0  0  3  0  0  0  0  0  0
  188.6530  177.5070  144.8890 C   0  0  0  0  0  0  0  0  0  0  0  0
  185.4430  178.2360  146.7290 C   0  0  0  0  0  2  0  0  0  0  0  0
  185.0020  179.3050  145.8400 N   0  0  0  0  0  2  0  0  0  0  0  0
  180.2040  178.4410  142.1300 C   0  0  0  0  0  0  0  0  0  0  0  0
  179.1990  178.0670  139.9870 N   0  0  0  0  0  1  0  0  0  0  0  0
  179.1160  178.2380  141.3990 C   0  0  0  0  0  3  0  0  0  0  0  0
  181.9180  178.7870  143.8360 C   0  0  0  0  0  0  0  0  0  0  0  0
  182.4330  178.7070  142.5530 C   0  0  0  0  0  0  0  0  0  0  0  0
  183.8010  178.8230  142.3140 C   0  0  0  0  0  3  0  0  0  0  0  0
  184.1410  179.1010  144.7170 C   0  0  0  0  0  0  0  0  0  0  0  0
  181.4800  178.5070  141.5750 O   0  0  0  0  0  0  0  0  0  0  0  0
  182.7590  178.9800  144.9310 C   0  0  0  0  0  3  0  0  0  0  0  0
  180.1370  178.6440  143.9180 S   0  0  0  0  0  0  0  0  0  0  0  0
  184.6580  179.0220  143.4060 C   0  0  0  0  0  3  0  0  0  0  0  0
  190.3590  177.1970  138.6440 S   0  0  0  0  0  0  0  0  0  0  0  0
  189.0330  177.7230  137.4970 C   0  0  1  0  0  3  0  0  0  0  0  0
  188.0950  177.6650  135.0910 C   0  0  0  0  0  1  0  0  0  0  0  0
  189.2960  177.4400  135.9990 C   0  0  2  0  0  3  0  0  0  0  0  0
  188.9300  175.1340  134.9700 C   0  0  0  0  0  1  0  0  0  0  0  0
  189.8750  176.0390  135.7420 C   0  0  1  0  0  3  0  0  0  0  0  0
  191.3070  176.0170  135.1910 C   0  0  0  0  0  2  0  0  0  0  0  0
  192.2600  175.1880  136.0370 C   0  0  0  0  0  2  0  0  0  0  0  0
  192.7530  174.1260  135.2770 O   0  0  0  0  0  1  0  0  0  0  0  0
  187.6980  177.1330  137.9400 C   0  0  0  0  0  2  0  0  0  0  0  0
  186.6890  178.1770  138.0530 N   0  0  0  0  0  2  0  0  0  0  0  0
  184.8890  176.7210  137.7320 O   0  0  0  0  0  0  0  0  0  0  0  0
  185.2900  177.8910  137.9770 C   0  0  0  0  0  0  0  0  0  0  0  0
  184.2900  178.9730  138.1960 C   0  0  2  0  0  3  0  0  0  0  0  0
  184.7410  179.8410  139.1930 O   0  0  0  0  0  1  0  0  0  0  0  0
  182.9530  178.3700  138.6000 C   0  0  0  0  0  2  0  0  0  0  0  0
  180.6320  180.5840  136.8560 O   0  0  0  0  0  0  0  0  0  0  0  0
  181.4570  180.1660  137.7110 C   0  0  0  0  0  0  0  0  0  0  0  0
  181.8960  178.7970  137.6900 N   0  0  0  0  0  0  0  0  0  0  0  0
  181.9440  181.0450  138.6740 O   0  0  0  0  0  1  0  0  0  0  0  0
  181.5120  177.9050  136.5960 C   0  0  0  0  0  0  0  0  0  0  0  0
  181.4440  178.5610  135.2310 C   0  0  0  0  0  2  0  0  0  0  0  0
  182.5910  177.6190  135.5740 C   0  0  0  0  0  2  0  0  0  0  0  0
  180.5010  176.8360  136.8680 C   0  0  0  0  0  0  0  0  0  0  0  0
  179.3300  177.0110  136.5750 O   0  0  0  0  0  0  0  0  0  0  0  0
  180.9030  175.5770  137.5520 C   0  0  0  0  0  1  0  0  0  0  0  0
  1  2  2  0  0  0  0
  2  6  1  0  0  0  0
  4 10  1  0  0  0  0
  5  8  2  0  0  0  0
  5 13  1  0  0  0  0
  6  5  1  0  0  0  0
  7 12  1  0  0  0  0
  8 11  1  0  0  0  0
  9  7  2  0  0  0  0
 10 14  1  0  0  0  0
 10 12  2  0  0  0  0
 11  9  1  0  0  0  0
 11  3  1  0  0  0  0
 13  4  2  0  0  0  0
 13  9  1  0  0  0  0
 15 14  1  0  0  0  0
 16 25  1  0  0  0  0
 17 18  1  0  0  0  0
 18 16  2  0  0  0  0
 19 25  1  0  0  0  0
 19 24  1  0  0  0  0
 20 19  2  0  0  0  0
 21 20  1  0  0  0  0
 21 26  2  0  0  0  0
 22 24  2  0  0  0  0
 22 15  1  0  0  0  0
 23 16  1  0  0  0  0
 23 20  1  0  0  0  0
 26 22  1  0  0  0  0
 27  1  1  0  0  0  0
 28 36  1  1  0  0  0
 28 27  1  0  0  0  0
 30 29  1  6  0  0  0
 30 28  1  0  0  0  0
 32 31  1  6  0  0  0
 32 30  1  0  0  0  0
 33 32  1  0  0  0  0
 33 34  1  0  0  0  0
 35 34  1  0  0  0  0
 36 37  1  0  0  0  0
 38 39  2  0  0  0  0
 39 37  1  0  0  0  0
 39 40  1  0  0  0  0
 40 42  1  0  0  0  0
 40 41  1  1  0  0  0
 43 44  2  0  0  0  0
 44 46  1  0  0  0  0
 45 44  1  0  0  0  0
 45 42  1  0  0  0  0
 47 50  1  0  0  0  0
 47 45  1  0  0  0  0
 48 49  1  0  0  0  0
 48 47  1  0  0  0  0
 49 47  1  0  0  0  0
 50 52  1  0  0  0  0
 51 50  2  0  0  0  0
M  END
>  <MODEL>
4

>  <REMARK>
 VINA RESULT:      -8.0      2.677      7.844
  Name = 
  17 active torsions:
  status: ('A' for Active; 'I' for Inactive)
    1  A    between atoms: C_1  and  C_3
    2  A    between atoms: C_1  and  C_12
    3  A    between atoms: C_1  and  S_40
    4  A    between atoms: C_2  and  C_10
    5  A    between atoms: C_2  and  N_37
    6  A    between atoms: C_3  and  N_4
    7  A    between atoms: C_5  and  S_40
    8  A    between atoms: C_7  and  C_16
    9  A    between atoms: C_9  and  N_20
   10  A    between atoms: C_9  and  C_34
   11  A    between atoms: C_12  and  C_49
   12  A    between atoms: C_13  and  C_27
   13  A    between atoms: C_13  and  C_36
   14  A    between atoms: C_16  and  C_49
   15  A    between atoms: N_18  and  C_19
   16  A    between atoms: N_20  and  C_39
   17  A    between atoms: C_27  and  N_37
                            x       y       z     vdW  Elec       q    Type
                         _______ _______ _______ _____ _____    ______ ____

>  <TORSDO>
F 17

$$$$
=
 OpenBabel11032421153D

 52 56  0  0  1  0  0  0  0  0999 V2000
  188.9260  177.7980  140.7360 C   0  0  0  0  0  3  0  0  0  0  0  0
  189.0700  178.2510  139.5000 C   0  0  0  0  0  3  0  0  0  0  0  0
  184.9650  176.2060  136.7200 C   0  0  0  0  0  1  0  0  0  0  0  0
  189.6950  175.0890  136.2740 C   0  0  0  0  0  3  0  0  0  0  0  0
  188.3650  176.7600  137.6350 C   0  0  0  0  0  0  0  0  0  0  0  0
  189.3810  177.3440  138.4480 N   0  0  0  0  0  2  0  0  0  0  0  0
  187.0860  174.4240  135.3460 C   0  0  0  0  0  3  0  0  0  0  0  0
  187.0420  177.0370  137.7340 N   0  0  0  0  0  0  0  0  0  0  0  0
  187.3050  175.4400  136.2750 C   0  0  0  0  0  0  0  0  0  0  0  0
  189.5140  174.0520  135.3360 C   0  0  0  0  0  0  0  0  0  0  0  0
  186.4080  176.2300  136.8920 N   0  0  0  0  0  0  0  0  0  0  0  0
  188.2160  173.7280  134.8720 C   0  0  0  0  0  3  0  0  0  0  0  0
  188.5580  175.7530  136.7180 C   0  0  0  0  0  0  0  0  0  0  0  0
  190.6910  173.3100  134.7940 C   0  0  0  0  0  2  0  0  0  0  0  0
  191.4650  172.7070  135.8740 N   0  0  0  0  0  2  0  0  0  0  0  0
  197.0800  174.2360  137.7890 C   0  0  0  0  0  0  0  0  0  0  0  0
  198.6190  175.5800  139.0390 N   0  0  0  0  0  1  0  0  0  0  0  0
  198.3230  174.4880  138.1740 C   0  0  0  0  0  3  0  0  0  0  0  0
  194.9720  173.3960  136.8830 C   0  0  0  0  0  0  0  0  0  0  0  0
  194.8170  174.5270  137.6660 C   0  0  0  0  0  0  0  0  0  0  0  0
  193.5610  175.0920  137.8810 C   0  0  0  0  0  3  0  0  0  0  0  0
  192.5930  173.3330  136.4880 C   0  0  0  0  0  0  0  0  0  0  0  0
  195.9970  175.0140  138.1920 O   0  0  0  0  0  0  0  0  0  0  0  0
  193.8690  172.7830  136.2890 C   0  0  0  0  0  3  0  0  0  0  0  0
  196.6680  172.8530  136.7110 S   0  0  0  0  0  0  0  0  0  0  0  0
  192.4440  174.4880  137.2860 C   0  0  0  0  0  3  0  0  0  0  0  0
  188.4910  178.9080  142.0690 S   0  0  0  0  0  0  0  0  0  0  0  0
  188.7940  177.6230  143.3370 C   0  0  1  0  0  3  0  0  0  0  0  0
  190.9100  178.9650  143.9680 C   0  0  0  0  0  1  0  0  0  0  0  0
  189.8320  177.9900  144.4240 C   0  0  2  0  0  3  0  0  0  0  0  0
  191.6420  176.2000  144.2410 C   0  0  0  0  0  1  0  0  0  0  0  0
  190.4940  176.7600  145.0660 C   0  0  1  0  0  3  0  0  0  0  0  0
  190.8440  176.9100  146.5520 C   0  0  0  0  0  2  0  0  0  0  0  0
  191.8910  175.9140  147.0230 C   0  0  0  0  0  2  0  0  0  0  0  0
  192.5600  176.4310  148.1330 O   0  0  0  0  0  1  0  0  0  0  0  0
  187.4730  177.1910  143.9660 C   0  0  0  0  0  2  0  0  0  0  0  0
  186.3470  177.7270  143.2130 N   0  0  0  0  0  2  0  0  0  0  0  0
  185.1240  178.3160  145.1150 O   0  0  0  0  0  0  0  0  0  0  0  0
  185.2140  178.3140  143.8580 C   0  0  0  0  0  0  0  0  0  0  0  0
  184.1300  178.9380  143.0480 C   0  0  2  0  0  3  0  0  0  0  0  0
  183.0600  179.2880  143.8750 O   0  0  0  0  0  1  0  0  0  0  0  0
  183.6610  177.9670  141.9740 C   0  0  0  0  0  2  0  0  0  0  0  0
  183.6730  179.8540  138.8490 O   0  0  0  0  0  0  0  0  0  0  0  0
  184.0800  179.3300  139.9190 C   0  0  0  0  0  0  0  0  0  0  0  0
  183.1540  178.6860  140.8120 N   0  0  0  0  0  0  0  0  0  0  0  0
  185.4360  179.3730  140.2270 O   0  0  0  0  0  1  0  0  0  0  0  0
  181.7540  178.5000  140.4300 C   0  0  0  0  0  0  0  0  0  0  0  0
  180.7440  178.9460  141.4690 C   0  0  0  0  0  2  0  0  0  0  0  0
  180.9610  179.7700  140.2070 C   0  0  0  0  0  2  0  0  0  0  0  0
  181.3870  177.2930  139.6250 C   0  0  0  0  0  0  0  0  0  0  0  0
  181.8920  177.1110  138.5300 O   0  0  0  0  0  0  0  0  0  0  0  0
  180.3610  176.3380  140.1250 C   0  0  0  0  0  1  0  0  0  0  0  0
  1 27  1  0  0  0  0
  2  1  2  0  0  0  0
  3 11  1  0  0  0  0
  4 13  1  0  0  0  0
  5  8  2  0  0  0  0
  5  6  1  0  0  0  0
  6  2  1  0  0  0  0
  7  9  1  0  0  0  0
  9 13  2  0  0  0  0
  9 11  1  0  0  0  0
 10  4  2  0  0  0  0
 11  8  1  0  0  0  0
 12 10  1  0  0  0  0
 12  7  2  0  0  0  0
 13  5  1  0  0  0  0
 14 10  1  0  0  0  0
 14 15  1  0  0  0  0
 15 22  1  0  0  0  0
 16 18  2  0  0  0  0
 16 23  1  0  0  0  0
 18 17  1  0  0  0  0
 19 20  1  0  0  0  0
 20 21  2  0  0  0  0
 20 23  1  0  0  0  0
 22 26  2  0  0  0  0
 24 22  1  0  0  0  0
 24 19  2  0  0  0  0
 25 19  1  0  0  0  0
 25 16  1  0  0  0  0
 26 21  1  0  0  0  0
 27 28  1  0  0  0  0
 28 36  1  1  0  0  0
 28 30  1  0  0  0  0
 30 29  1  6  0  0  0
 30 32  1  0  0  0  0
 32 31  1  6  0  0  0
 32 33  1  0  0  0  0
 33 34  1  0  0  0  0
 34 35  1  0  0  0  0
 37 39  1  0  0  0  0
 37 36  1  0  0  0  0
 39 38  2  0  0  0  0
 40 39  1  0  0  0  0
 40 41  1  1  0  0  0
 42 40  1  0  0  0  0
 43 44  2  0  0  0  0
 44 46  1  0  0  0  0
 44 45  1  0  0  0  0
 45 42  1  0  0  0  0
 47 45  1  0  0  0  0
 47 48  1  0  0  0  0
 49 47  1  0  0  0  0
 49 48  1  0  0  0  0
 50 52  1  0  0  0  0
 50 47  1  0  0  0  0
 51 50  2  0  0  0  0
M  END
>  <MODEL>
5

>  <REMARK>
 VINA RESULT:      -7.6      2.960     12.395
  Name = 
  17 active torsions:
  status: ('A' for Active; 'I' for Inactive)
    1  A    between atoms: C_1  and  C_3
    2  A    between atoms: C_1  and  C_12
    3  A    between atoms: C_1  and  S_40
    4  A    between atoms: C_2  and  C_10
    5  A    between atoms: C_2  and  N_37
    6  A    between atoms: C_3  and  N_4
    7  A    between atoms: C_5  and  S_40
    8  A    between atoms: C_7  and  C_16
    9  A    between atoms: C_9  and  N_20
   10  A    between atoms: C_9  and  C_34
   11  A    between atoms: C_12  and  C_49
   12  A    between atoms: C_13  and  C_27
   13  A    between atoms: C_13  and  C_36
   14  A    between atoms: C_16  and  C_49
   15  A    between atoms: N_18  and  C_19
   16  A    between atoms: N_20  and  C_39
   17  A    between atoms: C_27  and  N_37
                            x       y       z     vdW  Elec       q    Type
                         _______ _______ _______ _____ _____    ______ ____

>  <TORSDO>
F 17

$$$$
=
 OpenBabel11032421153D

 52 56  0  0  1  0  0  0  0  0999 V2000
  185.4830  178.1850  143.9690 C   0  0  0  0  0  3  0  0  0  0  0  0
  184.6380  179.0850  143.4880 C   0  0  0  0  0  3  0  0  0  0  0  0
  179.3380  179.0050  144.3030 C   0  0  0  0  0  1  0  0  0  0  0  0
  181.7280  177.7670  140.2320 C   0  0  0  0  0  3  0  0  0  0  0  0
  182.3890  178.7240  142.4820 C   0  0  0  0  0  0  0  0  0  0  0  0
  183.8110  178.7530  142.3770 N   0  0  0  0  0  2  0  0  0  0  0  0
  179.1470  177.8790  141.4290 C   0  0  0  0  0  3  0  0  0  0  0  0
  181.6900  179.0520  143.5960 N   0  0  0  0  0  0  0  0  0  0  0  0
  180.2930  178.3100  142.0970 C   0  0  0  0  0  0  0  0  0  0  0  0
  180.5940  177.3170  139.5260 C   0  0  0  0  0  0  0  0  0  0  0  0
  180.4100  178.8030  143.3430 N   0  0  0  0  0  0  0  0  0  0  0  0
  179.3110  177.3790  140.1220 C   0  0  0  0  0  3  0  0  0  0  0  0
  181.5270  178.2540  141.5190 C   0  0  0  0  0  0  0  0  0  0  0  0
  180.7280  176.8040  138.1300 C   0  0  0  0  0  2  0  0  0  0  0  0
  180.5760  175.3530  138.0950 N   0  0  0  0  0  2  0  0  0  0  0  0
  185.8340  172.7180  136.3770 C   0  0  0  0  0  0  0  0  0  0  0  0
  187.1200  170.9260  135.4440 N   0  0  0  0  0  1  0  0  0  0  0  0
  187.0100  172.2270  136.0120 C   0  0  0  0  0  3  0  0  0  0  0  0
  183.9030  174.0100  137.1340 C   0  0  0  0  0  0  0  0  0  0  0  0
  183.5690  172.7470  136.6760 C   0  0  0  0  0  0  0  0  0  0  0  0
  182.2470  172.3050  136.6710 C   0  0  0  0  0  3  0  0  0  0  0  0
  181.5820  174.4600  137.6100 C   0  0  0  0  0  0  0  0  0  0  0  0
  184.6460  172.0030  136.2380 O   0  0  0  0  0  0  0  0  0  0  0  0
  182.9210  174.8810  137.6010 C   0  0  0  0  0  3  0  0  0  0  0  0
  185.6560  174.3660  137.0820 S   0  0  0  0  0  0  0  0  0  0  0  0
  181.2490  173.1700  137.1430 C   0  0  0  0  0  3  0  0  0  0  0  0
  186.5010  178.5600  145.3910 S   0  0  0  0  0  0  0  0  0  0  0  0
  187.9650  177.7510  144.6480 C   0  0  1  0  0  3  0  0  0  0  0  0
  188.3980  176.9990  147.0810 C   0  0  0  0  0  1  0  0  0  0  0  0
  188.8740  176.9800  145.6350 C   0  0  2  0  0  3  0  0  0  0  0  0
  191.1090  177.1360  146.8560 C   0  0  0  0  0  1  0  0  0  0  0  0
  190.3440  177.4260  145.5750 C   0  0  1  0  0  3  0  0  0  0  0  0
  191.1050  176.9950  144.3140 C   0  0  0  0  0  2  0  0  0  0  0  0
  191.5660  178.1680  143.4650 C   0  0  0  0  0  2  0  0  0  0  0  0
  191.1360  179.3610  144.0460 O   0  0  0  0  0  1  0  0  0  0  0  0
  187.5340  176.8570  143.4890 C   0  0  0  0  0  2  0  0  0  0  0  0
  188.5320  176.8750  142.4290 N   0  0  0  0  0  2  0  0  0  0  0  0
  187.4470  178.5330  141.1900 O   0  0  0  0  0  0  0  0  0  0  0  0
  188.4450  177.7730  141.3200 C   0  0  0  0  0  0  0  0  0  0  0  0
  189.5390  177.8260  140.3100 C   0  0  2  0  0  3  0  0  0  0  0  0
  189.1660  178.6550  139.2490 O   0  0  0  0  0  1  0  0  0  0  0  0
  189.8370  176.4260  139.7950 C   0  0  0  0  0  2  0  0  0  0  0  0
  192.9630  176.7910  137.9450 O   0  0  0  0  0  0  0  0  0  0  0  0
  192.1260  176.8550  138.8830 C   0  0  0  0  0  0  0  0  0  0  0  0
  190.7560  176.4750  138.6640 N   0  0  0  0  0  0  0  0  0  0  0  0
  192.5400  177.2940  140.1380 O   0  0  0  0  0  1  0  0  0  0  0  0
  190.3420  175.8700  137.3980 C   0  0  0  0  0  0  0  0  0  0  0  0
  190.8970  174.4830  137.1420 C   0  0  0  0  0  2  0  0  0  0  0  0
  189.4310  174.6660  137.5150 C   0  0  0  0  0  2  0  0  0  0  0  0
  190.1880  176.7540  136.2010 C   0  0  0  0  0  0  0  0  0  0  0  0
  189.4860  177.7500  136.2600 O   0  0  0  0  0  0  0  0  0  0  0  0
  190.8400  176.3950  134.9120 C   0  0  0  0  0  1  0  0  0  0  0  0
  1 27  1  0  0  0  0
  2  1  2  0  0  0  0
  4 13  1  0  0  0  0
  5  8  2  0  0  0  0
  6  5  1  0  0  0  0
  6  2  1  0  0  0  0
  7  9  1  0  0  0  0
  9 11  1  0  0  0  0
 10 12  1  0  0  0  0
 10  4  2  0  0  0  0
 11  8  1  0  0  0  0
 11  3  1  0  0  0  0
 12  7  2  0  0  0  0
 13  9  2  0  0  0  0
 13  5  1  0  0  0  0
 14 10  1  0  0  0  0
 15 14  1  0  0  0  0
 16 25  1  0  0  0  0
 17 18  1  0  0  0  0
 18 16  2  0  0  0  0
 19 24  1  0  0  0  0
 20 19  2  0  0  0  0
 21 20  1  0  0  0  0
 21 26  2  0  0  0  0
 22 15  1  0  0  0  0
 23 16  1  0  0  0  0
 23 20  1  0  0  0  0
 24 22  2  0  0  0  0
 25 19  1  0  0  0  0
 26 22  1  0  0  0  0
 28 36  1  6  0  0  0
 28 27  1  0  0  0  0
 28 30  1  0  0  0  0
 30 29  1  1  0  0  0
 32 30  1  0  0  0  0
 32 31  1  1  0  0  0
 33 32  1  0  0  0  0
 34 35  1  0  0  0  0
 34 33  1  0  0  0  0
 37 36  1  0  0  0  0
 38 39  2  0  0  0  0
 39 37  1  0  0  0  0
 40 41  1  6  0  0  0
 40 39  1  0  0  0  0
 42 40  1  0  0  0  0
 43 44  2  0  0  0  0
 44 46  1  0  0  0  0
 45 44  1  0  0  0  0
 45 42  1  0  0  0  0
 47 49  1  0  0  0  0
 47 45  1  0  0  0  0
 48 47  1  0  0  0  0
 48 49  1  0  0  0  0
 50 51  2  0  0  0  0
 50 47  1  0  0  0  0
 52 50  1  0  0  0  0
M  END
>  <MODEL>
6

>  <REMARK>
 VINA RESULT:      -7.5      3.324      8.494
  Name = 
  17 active torsions:
  status: ('A' for Active; 'I' for Inactive)
    1  A    between atoms: C_1  and  C_3
    2  A    between atoms: C_1  and  C_12
    3  A    between atoms: C_1  and  S_40
    4  A    between atoms: C_2  and  C_10
    5  A    between atoms: C_2  and  N_37
    6  A    between atoms: C_3  and  N_4
    7  A    between atoms: C_5  and  S_40
    8  A    between atoms: C_7  and  C_16
    9  A    between atoms: C_9  and  N_20
   10  A    between atoms: C_9  and  C_34
   11  A    between atoms: C_12  and  C_49
   12  A    between atoms: C_13  and  C_27
   13  A    between atoms: C_13  and  C_36
   14  A    between atoms: C_16  and  C_49
   15  A    between atoms: N_18  and  C_19
   16  A    between atoms: N_20  and  C_39
   17  A    between atoms: C_27  and  N_37
                            x       y       z     vdW  Elec       q    Type
                         _______ _______ _______ _____ _____    ______ ____

>  <TORSDO>
F 17

$$$$
=
 OpenBabel11032421153D

 52 56  0  0  1  0  0  0  0  0999 V2000
  189.6660  177.0590  140.3620 C   0  0  0  0  0  3  0  0  0  0  0  0
  189.7900  176.5630  141.5840 C   0  0  0  0  0  3  0  0  0  0  0  0
  191.7430  176.3870  146.5760 C   0  0  0  0  0  1  0  0  0  0  0  0
  187.2640  177.7450  145.1920 C   0  0  0  0  0  3  0  0  0  0  0  0
  189.3850  177.0630  143.9890 C   0  0  0  0  0  0  0  0  0  0  0  0
  188.9530  177.0460  142.6300 N   0  0  0  0  0  2  0  0  0  0  0  0
  188.9190  177.2850  147.4630 C   0  0  0  0  0  3  0  0  0  0  0  0
  190.6160  176.6860  144.4140 N   0  0  0  0  0  0  0  0  0  0  0  0
  189.3890  177.1290  146.1600 C   0  0  0  0  0  0  0  0  0  0  0  0
  186.7500  177.9090  146.4950 C   0  0  0  0  0  0  0  0  0  0  0  0
  190.6070  176.7400  145.7410 N   0  0  0  0  0  0  0  0  0  0  0  0
  187.5770  177.6850  147.6220 C   0  0  0  0  0  3  0  0  0  0  0  0
  188.5910  177.3500  145.0750 C   0  0  0  0  0  0  0  0  0  0  0  0
  185.3400  178.3550  146.7000 C   0  0  0  0  0  2  0  0  0  0  0  0
  184.9740  179.3800  145.7290 N   0  0  0  0  0  2  0  0  0  0  0  0
  180.3920  178.3230  141.8020 C   0  0  0  0  0  0  0  0  0  0  0  0
  179.5070  177.8700  139.6220 N   0  0  0  0  0  1  0  0  0  0  0  0
  179.3470  178.0800  141.0220 C   0  0  0  0  0  3  0  0  0  0  0  0
  182.0090  178.7490  143.5830 C   0  0  0  0  0  0  0  0  0  0  0  0
  182.5910  178.6420  142.3320 C   0  0  0  0  0  0  0  0  0  0  0  0
  183.9680  178.7750  142.1600 C   0  0  0  0  0  3  0  0  0  0  0  0
  184.1770  179.1280  144.5690 C   0  0  0  0  0  0  0  0  0  0  0  0
  181.6940  178.3960  141.3120 O   0  0  0  0  0  0  0  0  0  0  0  0
  182.7880  178.9880  144.7140 C   0  0  0  0  0  3  0  0  0  0  0  0
  180.2280  178.5760  143.5780 S   0  0  0  0  0  0  0  0  0  0  0  0
  184.7630  179.0210  143.2890 C   0  0  0  0  0  3  0  0  0  0  0  0
  190.6720  176.4390  139.0200 S   0  0  0  0  0  0  0  0  0  0  0  0
  189.8350  177.5140  137.7970 C   0  0  1  0  0  3  0  0  0  0  0  0
  189.0550  177.6120  135.3370 C   0  0  0  0  0  1  0  0  0  0  0  0
  190.1500  177.2080  136.3140 C   0  0  2  0  0  3  0  0  0  0  0  0
  189.9680  175.1800  134.7770 C   0  0  0  0  0  1  0  0  0  0  0  0
  190.5380  175.7410  136.0690 C   0  0  1  0  0  3  0  0  0  0  0  0
  192.0270  175.4200  136.2550 C   0  0  0  0  0  2  0  0  0  0  0  0
  192.4490  174.1290  135.5720 C   0  0  0  0  0  2  0  0  0  0  0  0
  193.1820  173.3480  136.4660 O   0  0  0  0  0  1  0  0  0  0  0  0
  188.3300  177.5140  138.0490 C   0  0  0  0  0  2  0  0  0  0  0  0
  187.7720  176.1890  137.8160 N   0  0  0  0  0  2  0  0  0  0  0  0
  185.8460  176.9900  136.7610 O   0  0  0  0  0  0  0  0  0  0  0  0
  186.5340  175.9990  137.1260 C   0  0  0  0  0  0  0  0  0  0  0  0
  186.0480  174.6230  136.8230 C   0  0  2  0  0  3  0  0  0  0  0  0
  187.0460  173.9030  136.1620 O   0  0  0  0  0  1  0  0  0  0  0  0
  184.7990  174.6940  135.9570 C   0  0  0  0  0  2  0  0  0  0  0  0
  181.7970  174.1330  137.9570 O   0  0  0  0  0  1  0  0  0  0  0  0
  182.8260  174.6910  137.4940 C   0  0  0  0  0  0  0  0  0  0  0  0
  183.6920  173.9850  136.5880 N   0  0  0  0  0  0  0  0  0  0  0  0
  183.1150  176.0020  137.8620 O   0  0  0  0  0  0  0  0  0  0  0  0
  183.3210  172.6660  136.0750 C   0  0  0  0  0  0  0  0  0  0  0  0
  184.4740  171.6940  135.9240 C   0  0  0  0  0  2  0  0  0  0  0  0
  183.4650  171.5190  137.0520 C   0  0  0  0  0  2  0  0  0  0  0  0
  182.2420  172.5790  135.0430 C   0  0  0  0  0  0  0  0  0  0  0  0
  181.7380  173.5950  134.5940 O   0  0  0  0  0  0  0  0  0  0  0  0
  181.7310  171.2530  134.5990 C   0  0  0  0  0  1  0  0  0  0  0  0
  1  2  2  0  0  0  0
  2  6  1  0  0  0  0
  4 10  1  0  0  0  0
  5  8  2  0  0  0  0
  5 13  1  0  0  0  0
  6  5  1  0  0  0  0
  7 12  1  0  0  0  0
  8 11  1  0  0  0  0
  9  7  2  0  0  0  0
 10 14  1  0  0  0  0
 10 12  2  0  0  0  0
 11  9  1  0  0  0  0
 11  3  1  0  0  0  0
 13  4  2  0  0  0  0
 13  9  1  0  0  0  0
 15 14  1  0  0  0  0
 16 25  1  0  0  0  0
 17 18  1  0  0  0  0
 18 16  2  0  0  0  0
 19 24  1  0  0  0  0
 20 19  2  0  0  0  0
 21 20  1  0  0  0  0
 21 26  2  0  0  0  0
 22 24  2  0  0  0  0
 22 15  1  0  0  0  0
 23 16  1  0  0  0  0
 23 20  1  0  0  0  0
 25 19  1  0  0  0  0
 26 22  1  0  0  0  0
 27  1  1  0  0  0  0
 28 36  1  6  0  0  0
 28 27  1  0  0  0  0
 30 29  1  6  0  0  0
 30 28  1  0  0  0  0
 32 31  1  6  0  0  0
 32 33  1  0  0  0  0
 32 30  1  0  0  0  0
 34 33  1  0  0  0  0
 34 35  1  0  0  0  0
 37 36  1  0  0  0  0
 38 39  2  0  0  0  0
 39 37  1  0  0  0  0
 40 41  1  6  0  0  0
 40 39  1  0  0  0  0
 42 45  1  0  0  0  0
 42 40  1  0  0  0  0
 44 46  2  0  0  0  0
 44 43  1  0  0  0  0
 45 44  1  0  0  0  0
 47 45  1  0  0  0  0
 47 49  1  0  0  0  0
 48 47  1  0  0  0  0
 48 49  1  0  0  0  0
 50 47  1  0  0  0  0
 51 50  2  0  0  0  0
 52 50  1  0  0  0  0
M  END
>  <MODEL>
7

>  <REMARK>
 VINA RESULT:      -7.5      2.851      6.774
  Name = 
  17 active torsions:
  status: ('A' for Active; 'I' for Inactive)
    1  A    between atoms: C_1  and  C_3
    2  A    between atoms: C_1  and  C_12
    3  A    between atoms: C_1  and  S_40
    4  A    between atoms: C_2  and  C_10
    5  A    between atoms: C_2  and  N_37
    6  A    between atoms: C_3  and  N_4
    7  A    between atoms: C_5  and  S_40
    8  A    between atoms: C_7  and  C_16
    9  A    between atoms: C_9  and  N_20
   10  A    between atoms: C_9  and  C_34
   11  A    between atoms: C_12  and  C_49
   12  A    between atoms: C_13  and  C_27
   13  A    between atoms: C_13  and  C_36
   14  A    between atoms: C_16  and  C_49
   15  A    between atoms: N_18  and  C_19
   16  A    between atoms: N_20  and  C_39
   17  A    between atoms: C_27  and  N_37
                            x       y       z     vdW  Elec       q    Type
                         _______ _______ _______ _____ _____    ______ ____

>  <TORSDO>
F 17

$$$$
=
 OpenBabel11032421153D

 52 56  0  0  1  0  0  0  0  0999 V2000
  186.7190  177.5670  137.8700 C   0  0  0  0  0  3  0  0  0  0  0  0
  186.1550  178.6000  138.4780 C   0  0  0  0  0  3  0  0  0  0  0  0
  180.8960  179.2900  139.2710 C   0  0  0  0  0  1  0  0  0  0  0  0
  184.3260  178.5110  142.6550 C   0  0  0  0  0  3  0  0  0  0  0  0
  184.2870  178.5980  140.1250 C   0  0  0  0  0  0  0  0  0  0  0  0
  185.6710  178.4560  139.8100 N   0  0  0  0  0  2  0  0  0  0  0  0
  181.5570  179.0600  142.2840 C   0  0  0  0  0  3  0  0  0  0  0  0
  183.3070  178.8240  139.2150 N   0  0  0  0  0  0  0  0  0  0  0  0
  182.4320  178.9060  141.2100 C   0  0  0  0  0  0  0  0  0  0  0  0
  183.4730  178.6650  143.7680 C   0  0  0  0  0  0  0  0  0  0  0  0
  182.1780  179.0010  139.8920 N   0  0  0  0  0  0  0  0  0  0  0  0
  182.0960  178.9320  143.5800 C   0  0  0  0  0  3  0  0  0  0  0  0
  183.7580  178.6440  141.3930 C   0  0  0  0  0  0  0  0  0  0  0  0
  184.0060  178.5110  145.1540 C   0  0  0  0  0  2  0  0  0  0  0  0
  185.2490  179.2560  145.3170 N   0  0  0  0  0  2  0  0  0  0  0  0
  190.7310  176.7540  146.4240 C   0  0  0  0  0  0  0  0  0  0  0  0
  192.4430  175.9140  147.8740 N   0  0  0  0  0  1  0  0  0  0  0  0
  191.9220  176.1910  146.5780 C   0  0  0  0  0  3  0  0  0  0  0  0
  188.6100  177.7200  145.6900 C   0  0  0  0  0  0  0  0  0  0  0  0
  188.7360  177.6620  147.0670 C   0  0  0  0  0  0  0  0  0  0  0  0
  187.7240  178.1260  147.9070 C   0  0  0  0  0  3  0  0  0  0  0  0
  186.4260  178.7160  145.9230 C   0  0  0  0  0  0  0  0  0  0  0  0
  189.9260  177.1140  147.5030 O   0  0  0  0  0  0  0  0  0  0  0  0
  187.4590  178.2410  145.1010 C   0  0  0  0  0  3  0  0  0  0  0  0
  190.0340  177.1020  144.8000 S   0  0  0  0  0  0  0  0  0  0  0  0
  186.5630  178.6560  147.3270 C   0  0  0  0  0  3  0  0  0  0  0  0
  187.3750  177.7320  136.2150 S   0  0  0  0  0  0  0  0  0  0  0  0
  187.1970  175.9400  135.8860 C   0  0  1  0  0  3  0  0  0  0  0  0
  184.7780  176.5160  135.1860 C   0  0  0  0  0  1  0  0  0  0  0  0
  185.7500  175.4440  135.6610 C   0  0  2  0  0  3  0  0  0  0  0  0
  183.9360  175.4250  137.4550 C   0  0  0  0  0  1  0  0  0  0  0  0
  185.1590  174.7260  136.8860 C   0  0  1  0  0  3  0  0  0  0  0  0
  184.9630  173.2130  136.7230 C   0  0  0  0  0  2  0  0  0  0  0  0
  186.1900  172.5090  136.1670 C   0  0  0  0  0  2  0  0  0  0  0  0
  185.7960  171.3580  135.4820 O   0  0  0  0  0  1  0  0  0  0  0  0
  188.1030  175.5310  134.7280 C   0  0  0  0  0  2  0  0  0  0  0  0
  189.4930  175.4770  135.1590 N   0  0  0  0  0  2  0  0  0  0  0  0
  189.7310  173.1970  134.7050 O   0  0  0  0  0  0  0  0  0  0  0  0
  190.2640  174.2750  135.0830 C   0  0  0  0  0  0  0  0  0  0  0  0
  191.7100  174.2880  135.4420 C   0  0  2  0  0  3  0  0  0  0  0  0
  192.3630  173.2220  134.8200 O   0  0  0  0  0  1  0  0  0  0  0  0
  191.8700  174.1860  136.9520 C   0  0  0  0  0  2  0  0  0  0  0  0
  193.4510  176.8620  138.8680 O   0  0  0  0  0  1  0  0  0  0  0  0
  192.5560  176.1380  138.3570 C   0  0  0  0  0  0  0  0  0  0  0  0
  192.9040  175.1000  137.4250 N   0  0  0  0  0  0  0  0  0  0  0  0
  191.2250  176.3500  138.7070 O   0  0  0  0  0  0  0  0  0  0  0  0
  194.3040  174.7670  137.1650 C   0  0  0  0  0  0  0  0  0  0  0  0
  195.1260  174.4550  138.4000 C   0  0  0  0  0  2  0  0  0  0  0  0
  194.7030  173.3360  137.4570 C   0  0  0  0  0  2  0  0  0  0  0  0
  195.0150  175.4820  136.0600 C   0  0  0  0  0  0  0  0  0  0  0  0
  196.2250  175.3800  135.9420 O   0  0  0  0  0  0  0  0  0  0  0  0
  194.2630  176.3710  135.1330 C   0  0  0  0  0  1  0  0  0  0  0  0
  1  2  2  0  0  0  0
  2  6  1  0  0  0  0
  3 11  1  0  0  0  0
  4 10  1  0  0  0  0
  5 13  1  0  0  0  0
  6  5  1  0  0  0  0
  7 12  1  0  0  0  0
  8 11  1  0  0  0  0
  8  5  2  0  0  0  0
  9 13  1  0  0  0  0
  9  7  2  0  0  0  0
 10 14  1  0  0  0  0
 11  9  1  0  0  0  0
 12 10  2  0  0  0  0
 13  4  2  0  0  0  0
 14 15  1  0  0  0  0
 15 22  1  0  0  0  0
 16 18  2  0  0  0  0
 16 23  1  0  0  0  0
 18 17  1  0  0  0  0
 19 20  1  0  0  0  0
 20 23  1  0  0  0  0
 20 21  2  0  0  0  0
 22 26  2  0  0  0  0
 24 19  2  0  0  0  0
 24 22  1  0  0  0  0
 25 19  1  0  0  0  0
 25 16  1  0  0  0  0
 26 21  1  0  0  0  0
 27  1  1  0  0  0  0
 28 36  1  6  0  0  0
 28 27  1  0  0  0  0
 30 29  1  1  0  0  0
 30 28  1  0  0  0  0
 30 32  1  0  0  0  0
 32 31  1  6  0  0  0
 33 32  1  0  0  0  0
 34 33  1  0  0  0  0
 35 34  1  0  0  0  0
 36 37  1  0  0  0  0
 38 39  2  0  0  0  0
 39 37  1  0  0  0  0
 39 40  1  0  0  0  0
 40 41  1  6  0  0  0
 40 42  1  0  0  0  0
 42 45  1  0  0  0  0
 44 46  2  0  0  0  0
 44 43  1  0  0  0  0
 45 44  1  0  0  0  0
 47 45  1  0  0  0  0
 47 49  1  0  0  0  0
 47 48  1  0  0  0  0
 49 48  1  0  0  0  0
 50 47  1  0  0  0  0
 51 50  2  0  0  0  0
 52 50  1  0  0  0  0
M  END
>  <MODEL>
8

>  <REMARK>
 VINA RESULT:      -7.4      2.913      6.408
  Name = 
  17 active torsions:
  status: ('A' for Active; 'I' for Inactive)
    1  A    between atoms: C_1  and  C_3
    2  A    between atoms: C_1  and  C_12
    3  A    between atoms: C_1  and  S_40
    4  A    between atoms: C_2  and  C_10
    5  A    between atoms: C_2  and  N_37
    6  A    between atoms: C_3  and  N_4
    7  A    between atoms: C_5  and  S_40
    8  A    between atoms: C_7  and  C_16
    9  A    between atoms: C_9  and  N_20
   10  A    between atoms: C_9  and  C_34
   11  A    between atoms: C_12  and  C_49
   12  A    between atoms: C_13  and  C_27
   13  A    between atoms: C_13  and  C_36
   14  A    between atoms: C_16  and  C_49
   15  A    between atoms: N_18  and  C_19
   16  A    between atoms: N_20  and  C_39
   17  A    between atoms: C_27  and  N_37
                            x       y       z     vdW  Elec       q    Type
                         _______ _______ _______ _____ _____    ______ ____

>  <TORSDO>
F 17

$$$$
=
 OpenBabel11032421153D

 52 56  0  0  1  0  0  0  0  0999 V2000
  185.2010  178.5650  144.7960 C   0  0  0  0  0  3  0  0  0  0  0  0
  184.2970  179.3870  144.2830 C   0  0  0  0  0  3  0  0  0  0  0  0
  178.9370  179.2060  144.3080 C   0  0  0  0  0  1  0  0  0  0  0  0
  181.9240  178.0440  140.6270 C   0  0  0  0  0  3  0  0  0  0  0  0
  182.2280  178.9940  142.9550 C   0  0  0  0  0  0  0  0  0  0  0  0
  183.6490  179.0490  143.0610 N   0  0  0  0  0  2  0  0  0  0  0  0
  179.1930  178.0990  141.4310 C   0  0  0  0  0  3  0  0  0  0  0  0
  181.3660  179.3000  143.9550 N   0  0  0  0  0  0  0  0  0  0  0  0
  180.2190  178.5460  142.2620 C   0  0  0  0  0  0  0  0  0  0  0  0
  180.9150  177.5790  139.7590 C   0  0  0  0  0  0  0  0  0  0  0  0
  180.1430  179.0310  143.5150 N   0  0  0  0  0  0  0  0  0  0  0  0
  179.5570  177.6130  140.1590 C   0  0  0  0  0  3  0  0  0  0  0  0
  181.5270  178.5160  141.8720 C   0  0  0  0  0  0  0  0  0  0  0  0
  181.2630  177.0790  138.3960 C   0  0  0  0  0  2  0  0  0  0  0  0
  182.5110  177.6720  137.9300 N   0  0  0  0  0  2  0  0  0  0  0  0
  186.5780  173.2210  136.8390 C   0  0  0  0  0  0  0  0  0  0  0  0
  188.6940  172.4010  136.0720 N   0  0  0  0  0  1  0  0  0  0  0  0
  187.4090  172.2040  136.6540 C   0  0  0  0  0  3  0  0  0  0  0  0
  184.7810  174.7820  137.3920 C   0  0  0  0  0  0  0  0  0  0  0  0
  185.8680  175.3920  136.7920 C   0  0  0  0  0  0  0  0  0  0  0  0
  185.8840  176.7640  136.5460 C   0  0  0  0  0  3  0  0  0  0  0  0
  183.6570  176.9100  137.5400 C   0  0  0  0  0  0  0  0  0  0  0  0
  186.8970  174.5270  136.4750 O   0  0  0  0  0  0  0  0  0  0  0  0
  183.6680  175.5270  137.7770 C   0  0  0  0  0  3  0  0  0  0  0  0
  184.9520  173.0110  137.5870 S   0  0  0  0  0  0  0  0  0  0  0  0
  184.7680  177.5250  136.9240 C   0  0  0  0  0  3  0  0  0  0  0  0
  185.9970  178.9430  146.3520 S   0  0  0  0  0  0  0  0  0  0  0  0
  187.4360  177.8820  145.9570 C   0  0  1  0  0  3  0  0  0  0  0  0
  187.3930  177.4010  148.4950 C   0  0  0  0  0  1  0  0  0  0  0  0
  188.1120  177.1970  147.1690 C   0  0  2  0  0  3  0  0  0  0  0  0
  189.8300  178.6260  148.4010 C   0  0  0  0  0  1  0  0  0  0  0  0
  189.5940  177.5770  147.3270 C   0  0  1  0  0  3  0  0  0  0  0  0
  190.5630  176.3910  147.4270 C   0  0  0  0  0  2  0  0  0  0  0  0
  191.5960  176.3710  146.3130 C   0  0  0  0  0  2  0  0  0  0  0  0
  192.4310  175.2640  146.4730 O   0  0  0  0  0  1  0  0  0  0  0  0
  187.0510  176.8570  144.8940 C   0  0  0  0  0  2  0  0  0  0  0  0
  187.3240  177.3760  143.5610 N   0  0  0  0  0  2  0  0  0  0  0  0
  189.6380  177.4570  143.8710 O   0  0  0  0  0  0  0  0  0  0  0  0
  188.6550  177.6180  143.0990 C   0  0  0  0  0  0  0  0  0  0  0  0
  188.8940  178.0550  141.6940 C   0  0  2  0  0  3  0  0  0  0  0  0
  187.7240  178.6030  141.1630 O   0  0  0  0  0  1  0  0  0  0  0  0
  189.3420  176.8690  140.8520 C   0  0  0  0  0  2  0  0  0  0  0  0
  192.6590  177.7170  139.5840 O   0  0  0  0  0  0  0  0  0  0  0  0
  191.7210  177.4900  140.3930 C   0  0  0  0  0  0  0  0  0  0  0  0
  190.3840  177.2660  139.9130 N   0  0  0  0  0  0  0  0  0  0  0  0
  191.9910  177.4510  141.7580 O   0  0  0  0  0  1  0  0  0  0  0  0
  190.1130  177.1540  138.4790 C   0  0  0  0  0  0  0  0  0  0  0  0
  191.1830  176.4330  137.6830 C   0  0  0  0  0  2  0  0  0  0  0  0
  189.8520  175.7520  137.9710 C   0  0  0  0  0  2  0  0  0  0  0  0
  189.4280  178.2910  137.7900 C   0  0  0  0  0  0  0  0  0  0  0  0
  189.0800  179.2720  138.4250 O   0  0  0  0  0  0  0  0  0  0  0  0
  189.1110  178.2090  136.3380 C   0  0  0  0  0  1  0  0  0  0  0  0
  1 27  1  0  0  0  0
  2  1  2  0  0  0  0
  4 13  1  0  0  0  0
  5  6  1  0  0  0  0
  5  8  2  0  0  0  0
  6  2  1  0  0  0  0
  7  9  1  0  0  0  0
  9 11  1  0  0  0  0
 10 12  1  0  0  0  0
 10  4  2  0  0  0  0
 11  8  1  0  0  0  0
 11  3  1  0  0  0  0
 12  7  2  0  0  0  0
 13  9  2  0  0  0  0
 13  5  1  0  0  0  0
 14 10  1  0  0  0  0
 15 14  1  0  0  0  0
 16 25  1  0  0  0  0
 17 18  1  0  0  0  0
 18 16  2  0  0  0  0
 19 25  1  0  0  0  0
 19 24  1  0  0  0  0
 20 19  2  0  0  0  0
 21 20  1  0  0  0  0
 21 26  2  0  0  0  0
 22 24  2  0  0  0  0
 22 15  1  0  0  0  0
 23 20  1  0  0  0  0
 23 16  1  0  0  0  0
 26 22  1  0  0  0  0
 28 36  1  6  0  0  0
 28 27  1  0  0  0  0
 28 30  1  0  0  0  0
 30 32  1  0  0  0  0
 30 29  1  1  0  0  0
 32 33  1  0  0  0  0
 32 31  1  1  0  0  0
 34 35  1  0  0  0  0
 34 33  1  0  0  0  0
 37 36  1  0  0  0  0
 39 37  1  0  0  0  0
 39 38  2  0  0  0  0
 40 41  1  6  0  0  0
 40 39  1  0  0  0  0
 42 40  1  0  0  0  0
 43 44  2  0  0  0  0
 44 46  1  0  0  0  0
 45 44  1  0  0  0  0
 45 42  1  0  0  0  0
 47 45  1  0  0  0  0
 48 49  1  0  0  0  0
 48 47  1  0  0  0  0
 49 47  1  0  0  0  0
 50 51  2  0  0  0  0
 50 47  1  0  0  0  0
 52 50  1  0  0  0  0
M  END
>  <MODEL>
9

>  <REMARK>
 VINA RESULT:      -7.4      3.598      8.966
  Name = 
  17 active torsions:
  status: ('A' for Active; 'I' for Inactive)
    1  A    between atoms: C_1  and  C_3
    2  A    between atoms: C_1  and  C_12
    3  A    between atoms: C_1  and  S_40
    4  A    between atoms: C_2  and  C_10
    5  A    between atoms: C_2  and  N_37
    6  A    between atoms: C_3  and  N_4
    7  A    between atoms: C_5  and  S_40
    8  A    between atoms: C_7  and  C_16
    9  A    between atoms: C_9  and  N_20
   10  A    between atoms: C_9  and  C_34
   11  A    between atoms: C_12  and  C_49
   12  A    between atoms: C_13  and  C_27
   13  A    between atoms: C_13  and  C_36
   14  A    between atoms: C_16  and  C_49
   15  A    between atoms: N_18  and  C_19
   16  A    between atoms: N_20  and  C_39
   17  A    between atoms: C_27  and  N_37
                            x       y       z     vdW  Elec       q    Type
                         _______ _______ _______ _____ _____    ______ ____

>  <TORSDO>
F 17

$$$$
