=
 OpenBabel11032419303D

 31 34  0  0  1  0  0  0  0  0999 V2000
  187.7790  177.8910  147.1010 C   0  0  2  0  0  3  0  0  0  0  0  0
  187.9690  177.5990  145.6520 N   0  0  0  0  0  0  0  0  0  0  0  0
  188.3150  176.7300  147.9120 C   0  0  0  0  0  1  0  0  0  0  0  0
  186.6680  177.4980  146.3810 C   0  0  2  0  0  3  0  0  0  0  0  0
  188.1460  177.4430  143.2260 C   0  0  0  0  0  3  0  0  0  0  0  0
  188.9120  177.3430  142.0610 C   0  0  0  0  0  3  0  0  0  0  0  0
  190.3070  177.2940  142.1360 C   0  0  0  0  0  0  0  0  0  0  0  0
  190.9300  177.3470  143.3940 C   0  0  0  0  0  3  0  0  0  0  0  0
  188.7680  177.4950  144.4760 C   0  0  0  0  0  0  0  0  0  0  0  0
  190.1690  177.4480  144.5680 C   0  0  0  0  0  0  0  0  0  0  0  0
  190.5630  176.7540  139.8120 C   0  0  0  0  0  3  0  0  0  0  0  0
  191.0630  177.1910  140.9250 N   0  0  0  0  0  0  0  0  0  0  0  0
  191.1790  175.3530  137.8740 C   0  0  0  0  0  2  0  0  0  0  0  0
  193.3950  175.9260  137.9600 C   0  0  0  0  0  2  0  0  0  0  0  0
  192.4960  174.8560  137.5530 N   0  0  0  0  0  2  0  0  0  0  0  0
  191.3970  176.6660  138.5760 C   0  0  2  0  0  3  0  0  0  0  0  0
  192.7540  176.7520  138.8950 O   0  0  0  0  0  0  0  0  0  0  0  0
  191.6770  176.5030  146.2900 C   0  0  0  0  0  1  0  0  0  0  0  0
  190.7780  177.5020  145.8270 O   0  0  0  0  0  0  0  0  0  0  0  0
  185.9000  179.7260  146.7680 O   0  0  0  0  0  0  0  0  0  0  0  0
  185.8010  178.6830  146.0640 C   0  0  0  0  0  0  0  0  0  0  0  0
  183.0890  178.6320  142.7330 C   0  0  0  0  0  0  0  0  0  0  0  0
  184.4370  178.2930  142.5520 C   0  0  0  0  0  3  0  0  0  0  0  0
  183.5230  179.0020  145.0940 C   0  0  0  0  0  3  0  0  0  0  0  0
  185.3210  178.3080  143.6340 C   0  0  0  0  0  3  0  0  0  0  0  0
  182.6390  178.9870  144.0120 C   0  0  0  0  0  3  0  0  0  0  0  0
  184.8710  178.6620  144.9150 C   0  0  0  0  0  0  0  0  0  0  0  0
  182.1570  178.6140  141.5920 C   0  0  0  0  0  0  0  0  0  0  0  0
  182.4440  177.9610  140.5510 O   0  0  0  0  0  0  0  0  0  0  0  0
  180.9250  179.3370  141.6620 N   0  0  0  0  0  2  0  0  0  0  0  0
  179.9740  179.3490  140.5630 C   0  0  0  0  0  1  0  0  0  0  0  0
  1  3  1  1  0  0  0
  2  4  1  0  0  0  0
  2  1  1  0  0  0  0
  4 21  1  6  0  0  0
  4  1  1  0  0  0  0
  5  9  1  0  0  0  0
  6  7  1  0  0  0  0
  6  5  2  0  0  0  0
  7  8  2  0  0  0  0
  8 10  1  0  0  0  0
  9 10  2  0  0  0  0
  9  2  1  0  0  0  0
 10 19  1  0  0  0  0
 11 12  2  0  0  0  0
 12  7  1  0  0  0  0
 13 16  1  0  0  0  0
 14 17  1  0  0  0  0
 15 13  1  0  0  0  0
 15 14  1  0  0  0  0
 16 17  1  0  0  0  0
 16 11  1  1  0  0  0
 19 18  1  0  0  0  0
 21 20  2  0  0  0  0
 22 26  1  0  0  0  0
 23 22  2  0  0  0  0
 23 25  1  0  0  0  0
 25 27  2  0  0  0  0
 26 24  2  0  0  0  0
 27 24  1  0  0  0  0
 27 21  1  0  0  0  0
 28 30  1  0  0  0  0
 28 22  1  0  0  0  0
 29 28  2  0  0  0  0
 31 30  1  0  0  0  0
M  END
>  <MODEL>
1

>  <REMARK>
 VINA RESULT:      -9.3      0.000      0.000
  Name = 
  7 active torsions:
  status: ('A' for Active; 'I' for Inactive)
    1  A    between atoms: N_3  and  C_18
    2  A    between atoms: C_5  and  C_10
    3  A    between atoms: C_6  and  N_29
    4  A    between atoms: C_12  and  C_28
    5  A    between atoms: O_21  and  C_25
    6  A    between atoms: C_22  and  C_24
    7  A    between atoms: C_22  and  C_27
                            x       y       z     vdW  Elec       q    Type
                         _______ _______ _______ _____ _____    ______ ____

>  <TORSDO>
F 7

$$$$
=
 OpenBabel11032419303D

 31 34  0  0  1  0  0  0  0  0999 V2000
  191.2980  176.7980  146.9810 C   0  0  2  0  0  3  0  0  0  0  0  0
  190.6290  176.7070  145.6520 N   0  0  0  0  0  0  0  0  0  0  0  0
  192.1530  175.5660  147.1870 C   0  0  0  0  0  1  0  0  0  0  0  0
  189.9610  176.4540  146.9650 C   0  0  2  0  0  3  0  0  0  0  0  0
  189.9310  175.8330  143.4860 C   0  0  0  0  0  3  0  0  0  0  0  0
  189.9110  175.9010  142.0910 C   0  0  0  0  0  3  0  0  0  0  0  0
  190.5840  176.9300  141.4250 C   0  0  0  0  0  0  0  0  0  0  0  0
  191.2790  177.8950  142.1740 C   0  0  0  0  0  3  0  0  0  0  0  0
  190.6230  176.7940  144.2290 C   0  0  0  0  0  0  0  0  0  0  0  0
  191.3030  177.8340  143.5760 C   0  0  0  0  0  0  0  0  0  0  0  0
  189.7600  177.7600  139.3290 C   0  0  0  0  0  3  0  0  0  0  0  0
  190.5460  176.9720  139.9950 N   0  0  0  0  0  0  0  0  0  0  0  0
  188.9380  178.9070  137.3040 C   0  0  0  0  0  2  0  0  0  0  0  0
  188.5420  176.9580  136.1660 C   0  0  0  0  0  2  0  0  0  0  0  0
  188.1000  178.3410  136.2720 N   0  0  0  0  0  2  0  0  0  0  0  0
  189.7600  177.7640  137.8370 C   0  0  2  0  0  3  0  0  0  0  0  0
  189.2030  176.5810  137.3450 O   0  0  0  0  0  0  0  0  0  0  0  0
  191.4820  180.0950  144.5700 C   0  0  0  0  0  1  0  0  0  0  0  0
  191.9910  178.7890  144.3330 O   0  0  0  0  0  0  0  0  0  0  0  0
  189.5180  178.4160  148.2530 O   0  0  0  0  0  0  0  0  0  0  0  0
  189.1120  177.6310  147.3520 C   0  0  0  0  0  0  0  0  0  0  0  0
  185.3970  178.4530  145.3550 C   0  0  0  0  0  0  0  0  0  0  0  0
  186.4190  177.7590  144.6920 C   0  0  0  0  0  3  0  0  0  0  0  0
  186.8130  178.6050  147.3230 C   0  0  0  0  0  3  0  0  0  0  0  0
  187.6270  177.4910  145.3390 C   0  0  0  0  0  3  0  0  0  0  0  0
  185.6040  178.8740  146.6760 C   0  0  0  0  0  3  0  0  0  0  0  0
  187.8350  177.9100  146.6610 C   0  0  0  0  0  0  0  0  0  0  0  0
  184.1220  178.7350  144.6730 C   0  0  0  0  0  0  0  0  0  0  0  0
  183.1330  179.1560  145.3320 O   0  0  0  0  0  0  0  0  0  0  0  0
  184.0050  178.5320  143.2620 N   0  0  0  0  0  2  0  0  0  0  0  0
  182.7690  178.7970  142.5450 C   0  0  0  0  0  1  0  0  0  0  0  0
  1  3  1  6  0  0  0
  2  4  1  0  0  0  0
  2  1  1  0  0  0  0
  4  1  1  0  0  0  0
  4 21  1  1  0  0  0
  5  9  1  0  0  0  0
  6  5  2  0  0  0  0
  7  6  1  0  0  0  0
  7  8  2  0  0  0  0
  8 10  1  0  0  0  0
  9  2  1  0  0  0  0
 10  9  2  0  0  0  0
 10 19  1  0  0  0  0
 11 12  2  0  0  0  0
 12  7  1  0  0  0  0
 13 16  1  0  0  0  0
 14 15  1  0  0  0  0
 14 17  1  0  0  0  0
 15 13  1  0  0  0  0
 16 11  1  1  0  0  0
 17 16  1  0  0  0  0
 19 18  1  0  0  0  0
 21 20  2  0  0  0  0
 22 26  1  0  0  0  0
 23 25  1  0  0  0  0
 23 22  2  0  0  0  0
 25 27  2  0  0  0  0
 26 24  2  0  0  0  0
 27 24  1  0  0  0  0
 27 21  1  0  0  0  0
 28 29  2  0  0  0  0
 28 22  1  0  0  0  0
 30 28  1  0  0  0  0
 31 30  1  0  0  0  0
M  END
>  <MODEL>
2

>  <REMARK>
 VINA RESULT:      -8.9      2.278      3.402
  Name = 
  7 active torsions:
  status: ('A' for Active; 'I' for Inactive)
    1  A    between atoms: N_3  and  C_18
    2  A    between atoms: C_5  and  C_10
    3  A    between atoms: C_6  and  N_29
    4  A    between atoms: C_12  and  C_28
    5  A    between atoms: O_21  and  C_25
    6  A    between atoms: C_22  and  C_24
    7  A    between atoms: C_22  and  C_27
                            x       y       z     vdW  Elec       q    Type
                         _______ _______ _______ _____ _____    ______ ____

>  <TORSDO>
F 7

$$$$
=
 OpenBabel11032419303D

 31 34  0  0  1  0  0  0  0  0999 V2000
  189.9630  176.6720  145.0500 C   0  0  2  0  0  3  0  0  0  0  0  0
  188.7450  177.3760  144.5550 N   0  0  0  0  0  0  0  0  0  0  0  0
  190.5700  177.4750  146.1800 C   0  0  0  0  0  1  0  0  0  0  0  0
  190.0680  177.3660  143.8610 C   0  0  2  0  0  3  0  0  0  0  0  0
  186.6630  178.0760  143.4990 C   0  0  0  0  0  3  0  0  0  0  0  0
  185.3200  178.4550  143.5790 C   0  0  0  0  0  3  0  0  0  0  0  0
  184.6800  178.5250  144.8190 C   0  0  0  0  0  0  0  0  0  0  0  0
  185.3990  178.2100  145.9840 C   0  0  0  0  0  3  0  0  0  0  0  0
  187.3770  177.7630  144.6590 C   0  0  0  0  0  0  0  0  0  0  0  0
  186.7480  177.8280  145.9120 C   0  0  0  0  0  0  0  0  0  0  0  0
  182.5100  178.8500  143.8450 C   0  0  0  0  0  3  0  0  0  0  0  0
  183.3040  178.9170  144.8680 N   0  0  0  0  0  0  0  0  0  0  0  0
  180.1640  178.0820  143.8810 C   0  0  0  0  0  2  0  0  0  0  0  0
  179.4040  179.8300  142.6100 C   0  0  0  0  0  2  0  0  0  0  0  0
  179.1240  178.4420  142.9450 N   0  0  0  0  0  2  0  0  0  0  0  0
  181.0820  179.2730  143.9500 C   0  0  2  0  0  3  0  0  0  0  0  0
  180.7460  180.1240  142.8950 O   0  0  0  0  0  0  0  0  0  0  0  0
  187.5360  178.3690  148.1960 C   0  0  0  0  0  1  0  0  0  0  0  0
  187.4750  177.5100  147.0650 O   0  0  0  0  0  0  0  0  0  0  0  0
  190.1620  175.1800  142.9040 O   0  0  0  0  0  0  0  0  0  0  0  0
  190.0370  176.4180  142.6950 C   0  0  0  0  0  0  0  0  0  0  0  0
  189.3980  177.8340  138.6900 C   0  0  0  0  0  0  0  0  0  0  0  0
  188.4480  178.0850  139.6890 C   0  0  0  0  0  3  0  0  0  0  0  0
  190.7630  176.6580  140.3190 C   0  0  0  0  0  3  0  0  0  0  0  0
  188.6530  177.6260  140.9910 C   0  0  0  0  0  3  0  0  0  0  0  0
  190.5580  177.1170  139.0150 C   0  0  0  0  0  3  0  0  0  0  0  0
  189.8140  176.9090  141.3190 C   0  0  0  0  0  0  0  0  0  0  0  0
  189.1820  178.3190  137.3160 C   0  0  0  0  0  0  0  0  0  0  0  0
  188.8970  179.5310  137.1110 O   0  0  0  0  0  0  0  0  0  0  0  0
  189.2950  177.4170  136.2120 N   0  0  0  0  0  2  0  0  0  0  0  0
  189.0920  177.8490  134.8390 C   0  0  0  0  0  1  0  0  0  0  0  0
  1  3  1  1  0  0  0
  2  9  1  0  0  0  0
  2  1  1  0  0  0  0
  4 21  1  6  0  0  0
  4  2  1  0  0  0  0
  4  1  1  0  0  0  0
  5  6  2  0  0  0  0
  5  9  1  0  0  0  0
  6  7  1  0  0  0  0
  7 12  1  0  0  0  0
  7  8  2  0  0  0  0
  9 10  2  0  0  0  0
 10  8  1  0  0  0  0
 10 19  1  0  0  0  0
 11 12  2  0  0  0  0
 13 16  1  0  0  0  0
 14 17  1  0  0  0  0
 14 15  1  0  0  0  0
 15 13  1  0  0  0  0
 16 11  1  6  0  0  0
 17 16  1  0  0  0  0
 19 18  1  0  0  0  0
 21 20  2  0  0  0  0
 22 26  2  0  0  0  0
 22 23  1  0  0  0  0
 23 25  2  0  0  0  0
 24 27  2  0  0  0  0
 25 27  1  0  0  0  0
 26 24  1  0  0  0  0
 27 21  1  0  0  0  0
 28 22  1  0  0  0  0
 29 28  2  0  0  0  0
 30 28  1  0  0  0  0
 31 30  1  0  0  0  0
M  END
>  <MODEL>
3

>  <REMARK>
 VINA RESULT:      -8.6      2.346      8.093
  Name = 
  7 active torsions:
  status: ('A' for Active; 'I' for Inactive)
    1  A    between atoms: N_3  and  C_18
    2  A    between atoms: C_5  and  C_10
    3  A    between atoms: C_6  and  N_29
    4  A    between atoms: C_12  and  C_28
    5  A    between atoms: O_21  and  C_25
    6  A    between atoms: C_22  and  C_24
    7  A    between atoms: C_22  and  C_27
                            x       y       z     vdW  Elec       q    Type
                         _______ _______ _______ _____ _____    ______ ____

>  <TORSDO>
F 7

$$$$
=
 OpenBabel11032419303D

 31 34  0  0  1  0  0  0  0  0999 V2000
  188.6960  176.9960  147.5910 C   0  0  2  0  0  3  0  0  0  0  0  0
  188.3420  177.6030  146.2760 N   0  0  0  0  0  0  0  0  0  0  0  0
  187.8950  177.6780  148.6800 C   0  0  0  0  0  1  0  0  0  0  0  0
  189.5990  177.8820  147.0360 C   0  0  2  0  0  3  0  0  0  0  0  0
  187.8890  177.3440  143.8950 C   0  0  0  0  0  3  0  0  0  0  0  0
  187.0560  177.5080  142.7860 C   0  0  0  0  0  3  0  0  0  0  0  0
  185.8040  178.1140  142.9270 C   0  0  0  0  0  0  0  0  0  0  0  0
  185.3930  178.5530  144.1960 C   0  0  0  0  0  3  0  0  0  0  0  0
  187.4780  177.7820  145.1570 C   0  0  0  0  0  0  0  0  0  0  0  0
  186.2230  178.3920  145.3160 C   0  0  0  0  0  0  0  0  0  0  0  0
  185.2820  179.0390  140.7760 C   0  0  0  0  0  3  0  0  0  0  0  0
  184.9740  178.2690  141.7720 N   0  0  0  0  0  0  0  0  0  0  0  0
  182.9600  178.8280  139.9630 C   0  0  0  0  0  2  0  0  0  0  0  0
  183.5740  177.8920  137.9650 C   0  0  0  0  0  2  0  0  0  0  0  0
  182.4850  177.9380  138.9290 N   0  0  0  0  0  2  0  0  0  0  0  0
  184.3790  179.1650  139.5930 C   0  0  2  0  0  3  0  0  0  0  0  0
  184.7710  178.2830  138.5830 O   0  0  0  0  0  0  0  0  0  0  0  0
  184.6990  178.2830  147.2640 C   0  0  0  0  0  1  0  0  0  0  0  0
  185.8240  178.8250  146.5860 O   0  0  0  0  0  0  0  0  0  0  0  0
  191.4950  176.4350  147.1610 O   0  0  0  0  0  0  0  0  0  0  0  0
  190.7530  177.1410  146.4230 C   0  0  0  0  0  0  0  0  0  0  0  0
  191.4740  177.2660  142.1900 C   0  0  0  0  0  0  0  0  0  0  0  0
  191.3830  178.4540  142.9270 C   0  0  0  0  0  3  0  0  0  0  0  0
  191.0930  176.0010  144.2280 C   0  0  0  0  0  3  0  0  0  0  0  0
  191.1480  178.4160  144.3030 C   0  0  0  0  0  3  0  0  0  0  0  0
  191.3280  176.0390  142.8510 C   0  0  0  0  0  3  0  0  0  0  0  0
  191.0030  177.1890  144.9670 C   0  0  0  0  0  0  0  0  0  0  0  0
  191.7220  177.3060  140.7380 C   0  0  0  0  0  0  0  0  0  0  0  0
  192.8800  177.5530  140.3020 O   0  0  0  0  0  0  0  0  0  0  0  0
  190.6520  177.0640  139.8210 N   0  0  0  0  0  2  0  0  0  0  0  0
  190.8480  177.0920  138.3810 C   0  0  0  0  0  1  0  0  0  0  0  0
  1  3  1  1  0  0  0
  2  4  1  0  0  0  0
  2  1  1  0  0  0  0
  4 21  1  6  0  0  0
  4  1  1  0  0  0  0
  5  9  1  0  0  0  0
  6  7  1  0  0  0  0
  6  5  2  0  0  0  0
  7  8  2  0  0  0  0
  8 10  1  0  0  0  0
  9 10  2  0  0  0  0
  9  2  1  0  0  0  0
 10 19  1  0  0  0  0
 11 12  2  0  0  0  0
 12  7  1  0  0  0  0
 14 17  1  0  0  0  0
 14 15  1  0  0  0  0
 15 13  1  0  0  0  0
 16 13  1  0  0  0  0
 16 11  1  1  0  0  0
 17 16  1  0  0  0  0
 19 18  1  0  0  0  0
 21 20  2  0  0  0  0
 22 26  2  0  0  0  0
 22 23  1  0  0  0  0
 23 25  2  0  0  0  0
 24 27  2  0  0  0  0
 25 27  1  0  0  0  0
 26 24  1  0  0  0  0
 27 21  1  0  0  0  0
 28 22  1  0  0  0  0
 29 28  2  0  0  0  0
 30 28  1  0  0  0  0
 31 30  1  0  0  0  0
M  END
>  <MODEL>
4

>  <REMARK>
 VINA RESULT:      -8.6      1.880      6.988
  Name = 
  7 active torsions:
  status: ('A' for Active; 'I' for Inactive)
    1  A    between atoms: N_3  and  C_18
    2  A    between atoms: C_5  and  C_10
    3  A    between atoms: C_6  and  N_29
    4  A    between atoms: C_12  and  C_28
    5  A    between atoms: O_21  and  C_25
    6  A    between atoms: C_22  and  C_24
    7  A    between atoms: C_22  and  C_27
                            x       y       z     vdW  Elec       q    Type
                         _______ _______ _______ _____ _____    ______ ____

>  <TORSDO>
F 7

$$$$
=
 OpenBabel11032419303D

 31 34  0  0  1  0  0  0  0  0999 V2000
  188.6680  177.1300  147.5990 C   0  0  2  0  0  3  0  0  0  0  0  0
  188.0110  177.7460  146.4110 N   0  0  0  0  0  0  0  0  0  0  0  0
  188.2310  177.8730  148.8440 C   0  0  0  0  0  1  0  0  0  0  0  0
  189.4400  177.9500  146.7990 C   0  0  2  0  0  3  0  0  0  0  0  0
  186.9290  177.5140  144.2390 C   0  0  0  0  0  3  0  0  0  0  0  0
  185.8410  177.7220  143.3880 C   0  0  0  0  0  3  0  0  0  0  0  0
  184.7020  178.3900  143.8500 C   0  0  0  0  0  0  0  0  0  0  0  0
  184.6650  178.8480  145.1780 C   0  0  0  0  0  3  0  0  0  0  0  0
  186.8900  177.9700  145.5590 C   0  0  0  0  0  0  0  0  0  0  0  0
  185.7540  178.6420  146.0380 C   0  0  0  0  0  0  0  0  0  0  0  0
  182.4060  178.8800  143.3560 C   0  0  0  0  0  3  0  0  0  0  0  0
  183.6040  178.5880  142.9550 N   0  0  0  0  0  0  0  0  0  0  0  0
  179.9620  178.7810  143.0150 C   0  0  0  0  0  2  0  0  0  0  0  0
  180.1300  177.8860  140.9130 C   0  0  0  0  0  2  0  0  0  0  0  0
  179.2560  177.9420  142.0750 N   0  0  0  0  0  2  0  0  0  0  0  0
  181.2940  179.0770  142.3790 C   0  0  2  0  0  3  0  0  0  0  0  0
  181.4410  178.2130  141.2900 O   0  0  0  0  0  0  0  0  0  0  0  0
  186.0550  180.4270  147.7270 C   0  0  0  0  0  1  0  0  0  0  0  0
  185.7290  179.0930  147.3630 O   0  0  0  0  0  0  0  0  0  0  0  0
  191.1690  176.3400  146.4510 O   0  0  0  0  0  0  0  0  0  0  0  0
  190.3400  177.1290  145.9200 C   0  0  0  0  0  0  0  0  0  0  0  0
  190.0330  177.3140  141.6390 C   0  0  0  0  0  0  0  0  0  0  0  0
  190.1010  178.4920  142.3940 C   0  0  0  0  0  3  0  0  0  0  0  0
  190.1670  176.0200  143.6900 C   0  0  0  0  0  3  0  0  0  0  0  0
  190.2010  178.4350  143.7860 C   0  0  0  0  0  3  0  0  0  0  0  0
  190.0670  176.0770  142.2970 C   0  0  0  0  0  3  0  0  0  0  0  0
  190.2360  177.1980  144.4470 C   0  0  0  0  0  0  0  0  0  0  0  0
  189.9290  177.3750  140.1700 C   0  0  0  0  0  0  0  0  0  0  0  0
  190.4940  176.4980  139.4600 O   0  0  0  0  0  0  0  0  0  0  0  0
  189.1870  178.4280  139.5480 N   0  0  0  0  0  2  0  0  0  0  0  0
  189.0550  178.5290  138.1040 C   0  0  0  0  0  1  0  0  0  0  0  0
  1  3  1  1  0  0  0
  2  4  1  0  0  0  0
  2  1  1  0  0  0  0
  4 21  1  6  0  0  0
  4  1  1  0  0  0  0
  5  9  1  0  0  0  0
  6  7  1  0  0  0  0
  6  5  2  0  0  0  0
  7  8  2  0  0  0  0
  8 10  1  0  0  0  0
  9 10  2  0  0  0  0
  9  2  1  0  0  0  0
 10 19  1  0  0  0  0
 12 11  2  0  0  0  0
 12  7  1  0  0  0  0
 14 17  1  0  0  0  0
 14 15  1  0  0  0  0
 15 13  1  0  0  0  0
 16 13  1  0  0  0  0
 16 11  1  1  0  0  0
 17 16  1  0  0  0  0
 19 18  1  0  0  0  0
 21 20  2  0  0  0  0
 22 26  2  0  0  0  0
 22 23  1  0  0  0  0
 23 25  2  0  0  0  0
 24 27  2  0  0  0  0
 25 27  1  0  0  0  0
 26 24  1  0  0  0  0
 27 21  1  0  0  0  0
 28 22  1  0  0  0  0
 29 28  2  0  0  0  0
 30 28  1  0  0  0  0
 31 30  1  0  0  0  0
M  END
>  <MODEL>
5

>  <REMARK>
 VINA RESULT:      -8.6      1.870      7.604
  Name = 
  7 active torsions:
  status: ('A' for Active; 'I' for Inactive)
    1  A    between atoms: N_3  and  C_18
    2  A    between atoms: C_5  and  C_10
    3  A    between atoms: C_6  and  N_29
    4  A    between atoms: C_12  and  C_28
    5  A    between atoms: O_21  and  C_25
    6  A    between atoms: C_22  and  C_24
    7  A    between atoms: C_22  and  C_27
                            x       y       z     vdW  Elec       q    Type
                         _______ _______ _______ _____ _____    ______ ____

>  <TORSDO>
F 7

$$$$
=
 OpenBabel11032419303D

 31 34  0  0  1  0  0  0  0  0999 V2000
  191.0060  176.8720  146.9560 C   0  0  2  0  0  3  0  0  0  0  0  0
  190.4940  176.7590  145.5610 N   0  0  0  0  0  0  0  0  0  0  0  0
  191.8580  175.6610  147.2690 C   0  0  0  0  0  1  0  0  0  0  0  0
  189.6870  176.4980  146.7910 C   0  0  2  0  0  3  0  0  0  0  0  0
  190.0380  175.8760  143.3350 C   0  0  0  0  0  3  0  0  0  0  0  0
  190.1750  175.9360  141.9460 C   0  0  0  0  0  3  0  0  0  0  0  0
  190.9260  176.9560  141.3550 C   0  0  0  0  0  0  0  0  0  0  0  0
  191.5390  177.9200  142.1710 C   0  0  0  0  0  3  0  0  0  0  0  0
  190.6490  176.8360  144.1460 C   0  0  0  0  0  0  0  0  0  0  0  0
  191.4060  177.8680  143.5670 C   0  0  0  0  0  0  0  0  0  0  0  0
  192.1480  176.7000  139.3050 C   0  0  0  0  0  3  0  0  0  0  0  0
  191.0490  176.9900  139.9290 N   0  0  0  0  0  0  0  0  0  0  0  0
  191.5510  175.5510  137.2020 C   0  0  0  0  0  2  0  0  0  0  0  0
  193.5460  176.0350  136.1840 C   0  0  0  0  0  2  0  0  0  0  0  0
  192.4660  175.0590  136.1990 N   0  0  0  0  0  2  0  0  0  0  0  0
  192.2220  176.7520  137.8150 C   0  0  2  0  0  3  0  0  0  0  0  0
  193.5540  176.7500  137.3920 O   0  0  0  0  0  0  0  0  0  0  0  0
  191.4630  180.1180  144.5990 C   0  0  0  0  0  1  0  0  0  0  0  0
  192.0110  178.8230  144.3920 O   0  0  0  0  0  0  0  0  0  0  0  0
  189.0520  178.4520  148.0100 O   0  0  0  0  0  0  0  0  0  0  0  0
  188.7740  177.6580  147.0690 C   0  0  0  0  0  0  0  0  0  0  0  0
  185.3180  178.3790  144.6200 C   0  0  0  0  0  0  0  0  0  0  0  0
  185.3640  178.8560  145.9370 C   0  0  0  0  0  3  0  0  0  0  0  0
  187.5360  177.4330  144.9120 C   0  0  0  0  0  3  0  0  0  0  0  0
  186.4860  178.6230  146.7350 C   0  0  0  0  0  3  0  0  0  0  0  0
  186.4130  177.6660  144.1130 C   0  0  0  0  0  3  0  0  0  0  0  0
  187.5830  177.9100  146.2290 C   0  0  0  0  0  0  0  0  0  0  0  0
  184.1350  178.6260  143.7780 C   0  0  0  0  0  0  0  0  0  0  0  0
  184.2630  178.7480  142.5290 O   0  0  0  0  0  0  0  0  0  0  0  0
  182.8390  178.7270  144.3750 N   0  0  0  0  0  2  0  0  0  0  0  0
  181.6430  178.9690  143.5860 C   0  0  0  0  0  1  0  0  0  0  0  0
  1  3  1  6  0  0  0
  2  4  1  0  0  0  0
  2  1  1  0  0  0  0
  4  1  1  0  0  0  0
  4 21  1  1  0  0  0
  5  9  1  0  0  0  0
  6  5  2  0  0  0  0
  7  6  1  0  0  0  0
  7  8  2  0  0  0  0
  8 10  1  0  0  0  0
  9  2  1  0  0  0  0
 10  9  2  0  0  0  0
 10 19  1  0  0  0  0
 11 12  2  0  0  0  0
 12  7  1  0  0  0  0
 13 16  1  0  0  0  0
 14 15  1  0  0  0  0
 14 17  1  0  0  0  0
 15 13  1  0  0  0  0
 16 11  1  1  0  0  0
 17 16  1  0  0  0  0
 19 18  1  0  0  0  0
 21 20  2  0  0  0  0
 22 23  1  0  0  0  0
 23 25  2  0  0  0  0
 24 27  2  0  0  0  0
 26 22  2  0  0  0  0
 26 24  1  0  0  0  0
 27 25  1  0  0  0  0
 27 21  1  0  0  0  0
 28 30  1  0  0  0  0
 28 22  1  0  0  0  0
 29 28  2  0  0  0  0
 31 30  1  0  0  0  0
M  END
>  <MODEL>
6

>  <REMARK>
 VINA RESULT:      -8.3      1.776      2.772
  Name = 
  7 active torsions:
  status: ('A' for Active; 'I' for Inactive)
    1  A    between atoms: N_3  and  C_18
    2  A    between atoms: C_5  and  C_10
    3  A    between atoms: C_6  and  N_29
    4  A    between atoms: C_12  and  C_28
    5  A    between atoms: O_21  and  C_25
    6  A    between atoms: C_22  and  C_24
    7  A    between atoms: C_22  and  C_27
                            x       y       z     vdW  Elec       q    Type
                         _______ _______ _______ _____ _____    ______ ____

>  <TORSDO>
F 7

$$$$
=
 OpenBabel11032419303D

 31 34  0  0  1  0  0  0  0  0999 V2000
  189.6410  177.9760  139.2690 C   0  0  2  0  0  3  0  0  0  0  0  0
  188.6470  177.7680  140.3610 N   0  0  0  0  0  0  0  0  0  0  0  0
  189.0980  177.3780  137.9880 C   0  0  0  0  0  1  0  0  0  0  0  0
  189.9060  176.9800  140.1870 C   0  0  2  0  0  3  0  0  0  0  0  0
  187.3820  177.9480  142.4360 C   0  0  0  0  0  3  0  0  0  0  0  0
  186.2040  178.2470  143.1260 C   0  0  0  0  0  3  0  0  0  0  0  0
  185.0690  178.6760  142.4310 C   0  0  0  0  0  0  0  0  0  0  0  0
  185.1260  178.8040  141.0340 C   0  0  0  0  0  3  0  0  0  0  0  0
  187.4360  178.0760  141.0450 C   0  0  0  0  0  0  0  0  0  0  0  0
  186.3050  178.5060  140.3330 C   0  0  0  0  0  0  0  0  0  0  0  0
  182.7100  179.0790  142.6130 C   0  0  0  0  0  3  0  0  0  0  0  0
  183.8780  178.9740  143.1670 N   0  0  0  0  0  0  0  0  0  0  0  0
  180.8820  178.1340  143.9770 C   0  0  0  0  0  2  0  0  0  0  0  0
  179.3050  179.5760  143.1500 C   0  0  0  0  0  2  0  0  0  0  0  0
  179.4650  178.2450  143.7150 N   0  0  0  0  0  2  0  0  0  0  0  0
  181.4980  179.3920  143.4270 C   0  0  2  0  0  3  0  0  0  0  0  0
  180.5320  180.0250  142.6400 O   0  0  0  0  0  0  0  0  0  0  0  0
  185.4490  177.9970  138.0660 C   0  0  0  0  0  1  0  0  0  0  0  0
  186.3740  178.6300  138.9410 O   0  0  0  0  0  0  0  0  0  0  0  0
  192.0550  177.8590  140.7460 O   0  0  0  0  0  0  0  0  0  0  0  0
  190.9440  177.4360  141.1720 C   0  0  0  0  0  0  0  0  0  0  0  0
  190.1450  177.4370  145.3930 C   0  0  0  0  0  0  0  0  0  0  0  0
  190.5690  178.6090  144.7530 C   0  0  0  0  0  3  0  0  0  0  0  0
  190.2450  176.2690  143.2650 C   0  0  0  0  0  3  0  0  0  0  0  0
  190.8290  178.6120  143.3810 C   0  0  0  0  0  3  0  0  0  0  0  0
  189.9850  176.2660  144.6380 C   0  0  0  0  0  3  0  0  0  0  0  0
  190.6690  177.4410  142.6240 C   0  0  0  0  0  0  0  0  0  0  0  0
  189.8690  177.4350  146.8400 C   0  0  0  0  0  0  0  0  0  0  0  0
  190.7520  177.0420  147.6510 O   0  0  0  0  0  0  0  0  0  0  0  0
  188.6000  177.8790  147.3280 N   0  0  0  0  0  2  0  0  0  0  0  0
  188.2820  177.8960  148.7460 C   0  0  0  0  0  1  0  0  0  0  0  0
  1  3  1  6  0  0  0
  1  4  1  0  0  0  0
  1  2  1  0  0  0  0
  2  9  1  0  0  0  0
  4  2  1  0  0  0  0
  4 21  1  1  0  0  0
  5  6  1  0  0  0  0
  7  6  2  0  0  0  0
  7 12  1  0  0  0  0
  8  7  1  0  0  0  0
  9  5  2  0  0  0  0
 10  8  2  0  0  0  0
 10  9  1  0  0  0  0
 11 12  2  0  0  0  0
 14 15  1  0  0  0  0
 15 13  1  0  0  0  0
 16 11  1  6  0  0  0
 16 13  1  0  0  0  0
 17 14  1  0  0  0  0
 17 16  1  0  0  0  0
 18 19  1  0  0  0  0
 19 10  1  0  0  0  0
 20 21  2  0  0  0  0
 21 27  1  0  0  0  0
 22 28  1  0  0  0  0
 23 22  1  0  0  0  0
 24 26  1  0  0  0  0
 25 23  2  0  0  0  0
 26 22  2  0  0  0  0
 27 24  2  0  0  0  0
 27 25  1  0  0  0  0
 28 30  1  0  0  0  0
 28 29  2  0  0  0  0
 30 31  1  0  0  0  0
M  END
>  <MODEL>
7

>  <REMARK>
 VINA RESULT:      -8.2      2.494      8.897
  Name = 
  7 active torsions:
  status: ('A' for Active; 'I' for Inactive)
    1  A    between atoms: N_3  and  C_18
    2  A    between atoms: C_5  and  C_10
    3  A    between atoms: C_6  and  N_29
    4  A    between atoms: C_12  and  C_28
    5  A    between atoms: O_21  and  C_25
    6  A    between atoms: C_22  and  C_24
    7  A    between atoms: C_22  and  C_27
                            x       y       z     vdW  Elec       q    Type
                         _______ _______ _______ _____ _____    ______ ____

>  <TORSDO>
F 7

$$$$
=
 OpenBabel11032419303D

 31 34  0  0  1  0  0  0  0  0999 V2000
  191.2070  176.9750  147.6190 C   0  0  2  0  0  3  0  0  0  0  0  0
  190.6770  176.8940  146.2280 N   0  0  0  0  0  0  0  0  0  0  0  0
  192.0570  175.7530  147.8940 C   0  0  0  0  0  1  0  0  0  0  0  0
  189.8840  176.6110  147.4640 C   0  0  2  0  0  3  0  0  0  0  0  0
  190.1030  177.9910  144.1290 C   0  0  0  0  0  3  0  0  0  0  0  0
  190.2250  178.1150  142.7430 C   0  0  0  0  0  3  0  0  0  0  0  0
  191.0580  177.2480  142.0280 C   0  0  0  0  0  0  0  0  0  0  0  0
  191.7700  176.2540  142.7180 C   0  0  0  0  0  3  0  0  0  0  0  0
  190.8130  177.0010  144.8140 C   0  0  0  0  0  0  0  0  0  0  0  0
  191.6540  176.1240  144.1100 C   0  0  0  0  0  0  0  0  0  0  0  0
  192.1390  176.9110  139.9120 C   0  0  0  0  0  3  0  0  0  0  0  0
  191.1610  177.4000  140.6080 N   0  0  0  0  0  0  0  0  0  0  0  0
  191.1570  176.2590  137.7430 C   0  0  0  0  0  2  0  0  0  0  0  0
  193.1800  176.1710  136.6710 C   0  0  0  0  0  2  0  0  0  0  0  0
  191.8380  175.6070  136.6480 N   0  0  0  0  0  2  0  0  0  0  0  0
  192.1990  177.0980  138.4320 C   0  0  2  0  0  3  0  0  0  0  0  0
  193.4470  176.7070  137.9400 O   0  0  0  0  0  0  0  0  0  0  0  0
  192.1150  173.7480  144.6350 C   0  0  0  0  0  1  0  0  0  0  0  0
  192.3590  175.1370  144.8100 O   0  0  0  0  0  0  0  0  0  0  0  0
  189.3010  178.5700  148.7000 O   0  0  0  0  0  0  0  0  0  0  0  0
  188.9800  177.7690  147.7780 C   0  0  0  0  0  0  0  0  0  0  0  0
  185.4010  178.4830  145.5130 C   0  0  0  0  0  0  0  0  0  0  0  0
  186.4230  177.6830  144.9860 C   0  0  0  0  0  3  0  0  0  0  0  0
  186.7270  178.8120  147.5210 C   0  0  0  0  0  3  0  0  0  0  0  0
  187.5880  177.4490  145.7200 C   0  0  0  0  0  3  0  0  0  0  0  0
  185.5620  179.0460  146.7860 C   0  0  0  0  0  3  0  0  0  0  0  0
  187.7500  178.0110  146.9960 C   0  0  0  0  0  0  0  0  0  0  0  0
  184.1720  178.7290  144.7380 C   0  0  0  0  0  0  0  0  0  0  0  0
  183.1460  179.1880  145.3100 O   0  0  0  0  0  0  0  0  0  0  0  0
  184.1410  178.4480  143.3360 N   0  0  0  0  0  2  0  0  0  0  0  0
  182.9530  178.6750  142.5300 C   0  0  0  0  0  1  0  0  0  0  0  0
  1  3  1  6  0  0  0
  2  4  1  0  0  0  0
  2  1  1  0  0  0  0
  4  1  1  0  0  0  0
  4 21  1  1  0  0  0
  5  9  1  0  0  0  0
  6  5  2  0  0  0  0
  7  8  2  0  0  0  0
  7  6  1  0  0  0  0
  8 10  1  0  0  0  0
  9  2  1  0  0  0  0
 10 19  1  0  0  0  0
 10  9  2  0  0  0  0
 11 12  2  0  0  0  0
 12  7  1  0  0  0  0
 13 16  1  0  0  0  0
 14 17  1  0  0  0  0
 15 14  1  0  0  0  0
 15 13  1  0  0  0  0
 16 11  1  1  0  0  0
 17 16  1  0  0  0  0
 18 19  1  0  0  0  0
 21 20  2  0  0  0  0
 22 26  1  0  0  0  0
 23 22  2  0  0  0  0
 23 25  1  0  0  0  0
 25 27  2  0  0  0  0
 26 24  2  0  0  0  0
 27 24  1  0  0  0  0
 27 21  1  0  0  0  0
 28 29  2  0  0  0  0
 28 22  1  0  0  0  0
 30 28  1  0  0  0  0
 31 30  1  0  0  0  0
M  END
>  <MODEL>
8

>  <REMARK>
 VINA RESULT:      -8.1      1.939      2.962
  Name = 
  7 active torsions:
  status: ('A' for Active; 'I' for Inactive)
    1  A    between atoms: N_3  and  C_18
    2  A    between atoms: C_5  and  C_10
    3  A    between atoms: C_6  and  N_29
    4  A    between atoms: C_12  and  C_28
    5  A    between atoms: O_21  and  C_25
    6  A    between atoms: C_22  and  C_24
    7  A    between atoms: C_22  and  C_27
                            x       y       z     vdW  Elec       q    Type
                         _______ _______ _______ _____ _____    ______ ____

>  <TORSDO>
F 7

$$$$
=
 OpenBabel11032419303D

 31 34  0  0  1  0  0  0  0  0999 V2000
  190.3160  177.7360  138.8260 C   0  0  2  0  0  3  0  0  0  0  0  0
  189.0210  177.6540  139.5600 N   0  0  0  0  0  0  0  0  0  0  0  0
  190.1550  177.0860  137.4680 C   0  0  0  0  0  1  0  0  0  0  0  0
  190.2110  176.7880  139.8240 C   0  0  2  0  0  3  0  0  0  0  0  0
  187.3530  178.5850  141.0740 C   0  0  0  0  0  3  0  0  0  0  0  0
  186.0480  179.0030  141.3450 C   0  0  0  0  0  3  0  0  0  0  0  0
  185.0590  178.9100  140.3600 C   0  0  0  0  0  0  0  0  0  0  0  0
  185.3930  178.3940  139.0970 C   0  0  0  0  0  3  0  0  0  0  0  0
  187.6830  178.0720  139.8170 C   0  0  0  0  0  0  0  0  0  0  0  0
  186.7020  177.9730  138.8170 C   0  0  0  0  0  0  0  0  0  0  0  0
  182.8250  178.5620  141.1640 C   0  0  0  0  0  3  0  0  0  0  0  0
  183.7310  179.3450  140.6690 N   0  0  0  0  0  0  0  0  0  0  0  0
  181.1720  179.0020  142.9440 C   0  0  0  0  0  2  0  0  0  0  0  0
  179.3950  178.2710  141.6980 C   0  0  0  0  0  2  0  0  0  0  0  0
  179.8610  178.4110  143.0690 N   0  0  0  0  0  2  0  0  0  0  0  0
  181.4530  179.0660  141.4670 C   0  0  2  0  0  3  0  0  0  0  0  0
  180.4910  178.2850  140.8220 O   0  0  0  0  0  0  0  0  0  0  0  0
  186.1630  176.6530  136.7930 C   0  0  0  0  0  1  0  0  0  0  0  0
  187.0460  177.4570  137.5620 O   0  0  0  0  0  0  0  0  0  0  0  0
  192.1290  177.6170  140.9810 O   0  0  0  0  0  0  0  0  0  0  0  0
  190.9240  177.2490  141.0630 C   0  0  0  0  0  0  0  0  0  0  0  0
  188.8940  177.4810  144.8420 C   0  0  0  0  0  0  0  0  0  0  0  0
  188.6320  176.4220  143.9620 C   0  0  0  0  0  3  0  0  0  0  0  0
  190.4850  178.3830  143.2440 C   0  0  0  0  0  3  0  0  0  0  0  0
  189.2900  176.3450  142.7330 C   0  0  0  0  0  3  0  0  0  0  0  0
  189.8260  178.4610  144.4740 C   0  0  0  0  0  3  0  0  0  0  0  0
  190.2240  177.3240  142.3630 C   0  0  0  0  0  0  0  0  0  0  0  0
  188.1990  177.5620  146.1390 C   0  0  0  0  0  0  0  0  0  0  0  0
  186.9460  177.4300  146.1940 O   0  0  0  0  0  0  0  0  0  0  0  0
  188.9450  177.7890  147.3380 N   0  0  0  0  0  2  0  0  0  0  0  0
  188.3050  177.8760  148.6400 C   0  0  0  0  0  1  0  0  0  0  0  0
  1  3  1  6  0  0  0
  1  2  1  0  0  0  0
  1  4  1  0  0  0  0
  2  9  1  0  0  0  0
  2  4  1  0  0  0  0
  4 21  1  1  0  0  0
  5  6  1  0  0  0  0
  7 12  1  0  0  0  0
  7  6  2  0  0  0  0
  8  7  1  0  0  0  0
  9  5  2  0  0  0  0
 10  8  2  0  0  0  0
 10  9  1  0  0  0  0
 12 11  2  0  0  0  0
 13 15  1  0  0  0  0
 14 15  1  0  0  0  0
 16 11  1  1  0  0  0
 16 13  1  0  0  0  0
 17 16  1  0  0  0  0
 17 14  1  0  0  0  0
 18 19  1  0  0  0  0
 19 10  1  0  0  0  0
 20 21  2  0  0  0  0
 21 27  1  0  0  0  0
 22 28  1  0  0  0  0
 23 22  2  0  0  0  0
 24 26  2  0  0  0  0
 25 23  1  0  0  0  0
 26 22  1  0  0  0  0
 27 25  2  0  0  0  0
 27 24  1  0  0  0  0
 28 29  2  0  0  0  0
 28 30  1  0  0  0  0
 30 31  1  0  0  0  0
M  END
>  <MODEL>
9

>  <REMARK>
 VINA RESULT:      -8.0      2.347      8.624
  Name = 
  7 active torsions:
  status: ('A' for Active; 'I' for Inactive)
    1  A    between atoms: N_3  and  C_18
    2  A    between atoms: C_5  and  C_10
    3  A    between atoms: C_6  and  N_29
    4  A    between atoms: C_12  and  C_28
    5  A    between atoms: O_21  and  C_25
    6  A    between atoms: C_22  and  C_24
    7  A    between atoms: C_22  and  C_27
                            x       y       z     vdW  Elec       q    Type
                         _______ _______ _______ _____ _____    ______ ____

>  <TORSDO>
F 7

$$$$
