=
 OpenBabel11042410553D

 26 31  0  0  1  0  0  0  0  0999 V2000
  187.7390  177.4600  142.4510 C   0  0  1  0  0  3  0  0  0  0  0  0
  187.9200  177.7480  139.7980 C   0  0  2  0  0  3  0  0  0  0  0  0
  189.1710  177.2490  142.4400 N   0  0  0  0  0  0  0  0  0  0  0  0
  186.9200  177.5690  143.5010 C   0  0  0  0  0  2  0  0  0  0  0  0
  188.8350  178.4750  140.5730 C   0  0  2  0  0  0  0  0  0  0  0  0
  188.8700  178.6430  139.0790 C   0  0  1  0  0  3  0  0  0  0  0  0
  189.7790  177.6100  141.2220 O   0  0  0  0  0  0  0  0  0  0  0  0
  187.6250  178.0540  141.2390 N   0  0  2  0  0  0  0  0  0  0  0  0
  192.3090  176.1070  147.0310 N   0  0  0  0  0  0  0  0  0  0  0  0
  190.5560  177.4670  147.3210 C   0  0  0  0  0  3  0  0  0  0  0  0
  189.5760  177.5760  144.9560 C   0  0  0  0  0  3  0  0  0  0  0  0
  191.0370  176.1500  143.4810 C   0  0  0  0  0  3  0  0  0  0  0  0
  189.9710  176.9770  143.6060 C   0  0  0  0  0  0  0  0  0  0  0  0
  191.6810  176.7880  147.9070 N   0  0  0  0  0  2  0  0  0  0  0  0
  191.9170  175.7850  144.6170 C   0  0  0  0  0  3  0  0  0  0  0  0
  190.5270  177.1670  146.0330 C   0  0  0  0  0  0  0  0  0  0  0  0
  191.6310  176.2970  145.8050 C   0  0  0  0  0  0  0  0  0  0  0  0
  181.2560  179.6310  143.4730 Cl  0  0  0  0  0  0  0  0  0  0  0  0
  183.6360  178.9910  144.6530 C   0  0  0  0  0  3  0  0  0  0  0  0
  184.7910  178.1120  142.2660 C   0  0  0  0  0  3  0  0  0  0  0  0
  184.9490  178.5120  144.6470 C   0  0  0  0  0  3  0  0  0  0  0  0
  183.4780  178.5910  142.2710 C   0  0  0  0  0  3  0  0  0  0  0  0
  185.5360  178.0730  143.4550 C   0  0  0  0  0  0  0  0  0  0  0  0
  182.9010  179.0310  143.4660 C   0  0  0  0  0  0  0  0  0  0  0  0
  189.9430  177.8190  138.4470 C   0  0  0  0  0  3  0  0  0  0  0  0
  189.8700  177.5170  137.2040 N   0  0  0  0  0  2  0  0  0  0  0  0
  1  4  1  1  0  0  0
  2  5  1  0  0  0  0
  2  8  1  0  0  0  0
  3  1  1  0  0  0  0
  3 13  1  0  0  0  0
  5  7  1  0  0  0  0
  5  8  1  0  0  0  0
  6  2  1  0  0  0  0
  6  5  1  0  0  0  0
  7  3  1  0  0  0  0
  8  1  1  0  0  0  0
  9 14  1  0  0  0  0
 10 14  1  0  0  0  0
 11 16  1  0  0  0  0
 12 13  1  0  0  0  0
 12 15  2  0  0  0  0
 13 11  2  0  0  0  0
 15 17  1  0  0  0  0
 16 10  2  0  0  0  0
 17 16  1  0  0  0  0
 17  9  2  0  0  0  0
 20 22  2  0  0  0  0
 20 23  1  0  0  0  0
 21 19  1  0  0  0  0
 22 24  1  0  0  0  0
 23  4  1  0  0  0  0
 23 21  2  0  0  0  0
 24 18  1  0  0  0  0
 24 19  2  0  0  0  0
 25  6  1  0  0  0  0
 26 25  2  0  0  0  0
M  END
>  <MODEL>
1

>  <REMARK>
 VINA RESULT:      -9.3      0.000      0.000
  Name = 
  3 active torsions:
  status: ('A' for Active; 'I' for Inactive)
    1  A    between atoms: C_4  and  C_21
    2  A    between atoms: N_12  and  C_14
    3  A    between atoms: C_17  and  C_19
                            x       y       z     vdW  Elec       q    Type
                         _______ _______ _______ _____ _____    ______ ____

>  <TORSDO>
F 3

$$$$
=
 OpenBabel11042410553D

 26 31  0  0  1  0  0  0  0  0999 V2000
  188.6600  177.8920  142.9070 C   0  0  1  0  0  3  0  0  0  0  0  0
  190.4160  177.7250  140.8970 C   0  0  2  0  0  3  0  0  0  0  0  0
  187.6470  178.0890  141.8920 N   0  0  0  0  0  0  0  0  0  0  0  0
  188.5020  177.7440  144.2260 C   0  0  0  0  0  2  0  0  0  0  0  0
  189.2500  176.9540  140.7800 C   0  0  2  0  0  0  0  0  0  0  0  0
  190.2870  176.8530  139.6950 C   0  0  1  0  0  3  0  0  0  0  0  0
  188.0900  177.7770  140.5930 O   0  0  0  0  0  0  0  0  0  0  0  0
  189.6200  177.3560  142.1160 N   0  0  2  0  0  0  0  0  0  0  0  0
  182.1320  178.9800  142.9070 N   0  0  0  0  0  0  0  0  0  0  0  0
  183.4550  178.7120  144.6920 C   0  0  0  0  0  3  0  0  0  0  0  0
  185.7480  178.3680  143.6020 C   0  0  0  0  0  3  0  0  0  0  0  0
  185.4090  178.4770  141.1080 C   0  0  0  0  0  3  0  0  0  0  0  0
  186.2470  178.2980  142.1580 C   0  0  0  0  0  0  0  0  0  0  0  0
  182.1300  178.9470  144.1820 N   0  0  0  0  0  2  0  0  0  0  0  0
  183.9550  178.7210  141.2650 C   0  0  0  0  0  3  0  0  0  0  0  0
  184.2740  178.5990  143.6590 C   0  0  0  0  0  0  0  0  0  0  0  0
  183.4680  178.7670  142.4960 C   0  0  0  0  0  0  0  0  0  0  0  0
  192.6290  175.7990  148.1660 Cl  0  0  0  0  0  0  0  0  0  0  0  0
  190.1620  176.7250  147.4420 C   0  0  0  0  0  3  0  0  0  0  0  0
  190.8220  176.8940  144.7320 C   0  0  0  0  0  3  0  0  0  0  0  0
  189.2130  177.1730  146.5180 C   0  0  0  0  0  3  0  0  0  0  0  0
  191.7700  176.4460  145.6540 C   0  0  0  0  0  3  0  0  0  0  0  0
  189.5340  177.2580  145.1580 C   0  0  0  0  0  0  0  0  0  0  0  0
  191.4400  176.3600  147.0100 C   0  0  0  0  0  0  0  0  0  0  0  0
  189.9410  177.6940  138.5100 C   0  0  0  0  0  3  0  0  0  0  0  0
  190.0130  177.2000  137.3310 N   0  0  0  0  0  2  0  0  0  0  0  0
  1  4  1  1  0  0  0
  2  8  1  0  0  0  0
  3 13  1  0  0  0  0
  3  1  1  0  0  0  0
  4 23  1  0  0  0  0
  5  2  1  0  0  0  0
  5  8  1  0  0  0  0
  6  5  1  0  0  0  0
  6  2  1  0  0  0  0
  7  5  1  0  0  0  0
  7  3  1  0  0  0  0
  8  1  1  0  0  0  0
  9 14  1  0  0  0  0
 11 16  1  0  0  0  0
 12 15  2  0  0  0  0
 12 13  1  0  0  0  0
 13 11  2  0  0  0  0
 14 10  1  0  0  0  0
 15 17  1  0  0  0  0
 16 10  2  0  0  0  0
 17  9  2  0  0  0  0
 17 16  1  0  0  0  0
 20 23  2  0  0  0  0
 20 22  1  0  0  0  0
 21 19  2  0  0  0  0
 22 24  2  0  0  0  0
 23 21  1  0  0  0  0
 24 19  1  0  0  0  0
 24 18  1  0  0  0  0
 25  6  1  0  0  0  0
 26 25  2  0  0  0  0
M  END
>  <MODEL>
2

>  <REMARK>
 VINA RESULT:      -9.2      3.212      6.524
  Name = 
  3 active torsions:
  status: ('A' for Active; 'I' for Inactive)
    1  A    between atoms: C_4  and  C_21
    2  A    between atoms: N_12  and  C_14
    3  A    between atoms: C_17  and  C_19
                            x       y       z     vdW  Elec       q    Type
                         _______ _______ _______ _____ _____    ______ ____

>  <TORSDO>
F 3

$$$$
=
 OpenBabel11042410553D

 26 31  0  0  1  0  0  0  0  0999 V2000
  187.4290  177.5880  142.8870 C   0  0  1  0  0  3  0  0  0  0  0  0
  187.8670  177.7060  140.2510 C   0  0  2  0  0  3  0  0  0  0  0  0
  188.8600  177.4220  143.0320 N   0  0  0  0  0  0  0  0  0  0  0  0
  186.5060  177.7400  143.8420 C   0  0  0  0  0  2  0  0  0  0  0  0
  188.6820  178.5110  141.0610 C   0  0  2  0  0  0  0  0  0  0  0  0
  188.8620  178.5810  139.5700 C   0  0  1  0  0  3  0  0  0  0  0  0
  189.5780  177.7210  141.8580 O   0  0  0  0  0  0  0  0  0  0  0  0
  187.4220  178.0970  141.6320 N   0  0  2  0  0  0  0  0  0  0  0  0
  191.5810  176.8280  147.9790 N   0  0  0  0  0  0  0  0  0  0  0  0
  192.3500  175.6260  146.2540 C   0  0  0  0  0  3  0  0  0  0  0  0
  190.7560  176.3230  144.3740 C   0  0  0  0  0  3  0  0  0  0  0  0
  189.1220  177.9690  145.3570 C   0  0  0  0  0  3  0  0  0  0  0  0
  189.5450  177.2530  144.2870 C   0  0  0  0  0  0  0  0  0  0  0  0
  192.4760  175.9840  147.6430 N   0  0  0  0  0  2  0  0  0  0  0  0
  189.7650  177.8900  146.6900 C   0  0  0  0  0  3  0  0  0  0  0  0
  191.3250  176.2960  145.7550 C   0  0  0  0  0  0  0  0  0  0  0  0
  190.8050  177.0800  146.8240 C   0  0  0  0  0  0  0  0  0  0  0  0
  180.8220  179.6090  143.1150 Cl  0  0  0  0  0  0  0  0  0  0  0  0
  183.0710  179.0800  144.5740 C   0  0  0  0  0  3  0  0  0  0  0  0
  184.5150  178.1780  142.3590 C   0  0  0  0  0  3  0  0  0  0  0  0
  184.3900  178.6460  144.7300 C   0  0  0  0  0  3  0  0  0  0  0  0
  183.1960  178.6130  142.2020 C   0  0  0  0  0  3  0  0  0  0  0  0
  185.1220  178.1960  143.6250 C   0  0  0  0  0  0  0  0  0  0  0  0
  182.4740  179.0650  143.3110 C   0  0  0  0  0  0  0  0  0  0  0  0
  190.0130  177.7510  139.1050 C   0  0  0  0  0  3  0  0  0  0  0  0
  190.1060  177.4190  137.8710 N   0  0  0  0  0  2  0  0  0  0  0  0
  1  3  1  0  0  0  0
  1  4  1  1  0  0  0
  2  5  1  0  0  0  0
  2  8  1  0  0  0  0
  3 13  1  0  0  0  0
  5  8  1  0  0  0  0
  5  7  1  0  0  0  0
  6  2  1  0  0  0  0
  6  5  1  0  0  0  0
  7  3  1  0  0  0  0
  8  1  1  0  0  0  0
 10 14  1  0  0  0  0
 11 16  1  0  0  0  0
 12 15  2  0  0  0  0
 13 11  2  0  0  0  0
 13 12  1  0  0  0  0
 14  9  1  0  0  0  0
 15 17  1  0  0  0  0
 16 10  2  0  0  0  0
 16 17  1  0  0  0  0
 17  9  2  0  0  0  0
 18 24  1  0  0  0  0
 19 21  1  0  0  0  0
 20 23  1  0  0  0  0
 22 20  2  0  0  0  0
 22 24  1  0  0  0  0
 23  4  1  0  0  0  0
 23 21  2  0  0  0  0
 24 19  2  0  0  0  0
 25  6  1  0  0  0  0
 26 25  2  0  0  0  0
M  END
>  <MODEL>
3

>  <REMARK>
 VINA RESULT:      -9.1      0.637      1.355
  Name = 
  3 active torsions:
  status: ('A' for Active; 'I' for Inactive)
    1  A    between atoms: C_4  and  C_21
    2  A    between atoms: N_12  and  C_14
    3  A    between atoms: C_17  and  C_19
                            x       y       z     vdW  Elec       q    Type
                         _______ _______ _______ _____ _____    ______ ____

>  <TORSDO>
F 3

$$$$
=
 OpenBabel11042410553D

 26 31  0  0  1  0  0  0  0  0999 V2000
  188.2590  177.4630  142.5720 C   0  0  1  0  0  3  0  0  0  0  0  0
  185.7340  178.1790  142.0570 C   0  0  2  0  0  3  0  0  0  0  0  0
  188.5020  177.6160  141.1530 N   0  0  0  0  0  0  0  0  0  0  0  0
  189.1380  177.2080  143.5460 C   0  0  0  0  0  2  0  0  0  0  0  0
  186.7420  178.9850  141.5060 C   0  0  2  0  0  0  0  0  0  0  0  0
  185.3080  179.3780  141.2820 C   0  0  1  0  0  3  0  0  0  0  0  0
  187.4680  178.2940  140.4790 O   0  0  0  0  0  0  0  0  0  0  0  0
  187.1160  178.1840  142.6480 N   0  0  2  0  0  0  0  0  0  0  0  0
  193.5010  176.7540  138.6030 N   0  0  0  0  0  0  0  0  0  0  0  0
  191.6670  176.2420  137.4270 C   0  0  0  0  0  3  0  0  0  0  0  0
  189.7990  176.8450  139.0720 C   0  0  0  0  0  2  0  0  0  0  0  0
  190.9040  177.6850  141.1750 C   0  0  0  0  0  3  0  0  0  0  0  0
  189.7660  177.3790  140.5050 C   0  0  0  0  0  0  0  0  0  0  0  0
  193.1040  176.3030  137.4780 N   0  0  0  0  0  0  0  0  0  0  0  0
  192.2570  177.5020  140.5990 C   0  0  0  0  0  3  0  0  0  0  0  0
  191.2010  176.6790  138.5850 C   0  0  0  0  0  0  0  0  0  0  0  0
  192.3410  177.0200  139.3670 C   0  0  0  0  0  0  0  0  0  0  0  0
  187.9300  177.8780  149.4130 Cl  0  0  0  0  0  0  0  0  0  0  0  0
  187.2950  177.8680  146.7560 C   0  0  0  0  0  3  0  0  0  0  0  0
  189.8800  177.1720  145.9550 C   0  0  0  0  0  3  0  0  0  0  0  0
  187.5870  177.7080  145.3990 C   0  0  0  0  0  3  0  0  0  0  0  0
  189.5890  177.3310  147.3130 C   0  0  0  0  0  3  0  0  0  0  0  0
  188.8780  177.3560  144.9890 C   0  0  0  0  0  0  0  0  0  0  0  0
  188.2950  177.6780  147.7130 C   0  0  0  0  0  0  0  0  0  0  0  0
  184.8120  178.9480  139.9400 C   0  0  0  0  0  3  0  0  0  0  0  0
  184.4130  179.8230  139.0940 N   0  0  0  0  0  2  0  0  0  0  0  0
  1  8  1  0  0  0  0
  1  4  1  1  0  0  0
  2  8  1  0  0  0  0
  3  1  1  0  0  0  0
  4 23  1  0  0  0  0
  5  2  1  0  0  0  0
  5  8  1  0  0  0  0
  6  5  1  0  0  0  0
  6  2  1  0  0  0  0
  7  3  1  0  0  0  0
  7  5  1  0  0  0  0
  9 17  1  0  0  0  0
 10 14  1  0  0  0  0
 10 16  2  0  0  0  0
 11 13  1  0  0  0  0
 13  3  1  0  0  0  0
 13 12  2  0  0  0  0
 14  9  2  0  0  0  0
 15 12  1  0  0  0  0
 16 11  1  0  0  0  0
 16 17  1  0  0  0  0
 17 15  2  0  0  0  0
 19 24  1  0  0  0  0
 20 22  1  0  0  0  0
 21 19  2  0  0  0  0
 22 24  2  0  0  0  0
 23 21  1  0  0  0  0
 23 20  2  0  0  0  0
 24 18  1  0  0  0  0
 25  6  1  0  0  0  0
 26 25  2  0  0  0  0
M  END
>  <MODEL>
4

>  <REMARK>
 VINA RESULT:      -9.0      3.263      5.722
  Name = 
  3 active torsions:
  status: ('A' for Active; 'I' for Inactive)
    1  A    between atoms: C_4  and  C_21
    2  A    between atoms: N_12  and  C_14
    3  A    between atoms: C_17  and  C_19
                            x       y       z     vdW  Elec       q    Type
                         _______ _______ _______ _____ _____    ______ ____

>  <TORSDO>
F 3

$$$$
=
 OpenBabel11042410553D

 26 31  0  0  1  0  0  0  0  0999 V2000
  188.9980  176.9690  143.2630 C   0  0  1  0  0  3  0  0  0  0  0  0
  191.1290  176.2470  144.7080 C   0  0  2  0  0  3  0  0  0  0  0  0
  188.3630  177.3000  144.5210 N   0  0  0  0  0  0  0  0  0  0  0  0
  188.5470  177.1760  142.0220 C   0  0  0  0  0  2  0  0  0  0  0  0
  190.5600  177.4940  145.0070 C   0  0  2  0  0  0  0  0  0  0  0  0
  191.7880  177.0690  145.7620 C   0  0  1  0  0  3  0  0  0  0  0  0
  189.2620  177.3510  145.6040 O   0  0  0  0  0  0  0  0  0  0  0  0
  190.2810  176.9610  143.6940 N   0  0  2  0  0  0  0  0  0  0  0  0
  183.0630  179.2520  145.1000 N   0  0  0  0  0  0  0  0  0  0  0  0
  183.7370  178.7650  143.0220 C   0  0  0  0  0  3  0  0  0  0  0  0
  186.1330  177.9520  143.4220 C   0  0  0  0  0  2  0  0  0  0  0  0
  186.5670  178.1070  145.8980 C   0  0  0  0  0  3  0  0  0  0  0  0
  187.0230  177.8090  144.6570 C   0  0  0  0  0  0  0  0  0  0  0  0
  182.6850  179.2400  143.8820 N   0  0  0  0  0  0  0  0  0  0  0  0
  185.2000  178.6180  146.1580 C   0  0  0  0  0  3  0  0  0  0  0  0
  184.7850  178.4870  143.7790 C   0  0  0  0  0  0  0  0  0  0  0  0
  184.3960  178.7810  145.1170 C   0  0  0  0  0  0  0  0  0  0  0  0
  191.7290  176.8060  136.9160 Cl  0  0  0  0  0  0  0  0  0  0  0  0
  189.4300  177.0740  138.3690 C   0  0  0  0  0  3  0  0  0  0  0  0
  190.7520  176.9230  140.8260 C   0  0  0  0  0  3  0  0  0  0  0  0
  188.7040  177.1610  139.5600 C   0  0  0  0  0  3  0  0  0  0  0  0
  191.4790  176.8370  139.6360 C   0  0  0  0  0  3  0  0  0  0  0  0
  189.3580  177.0890  140.7950 C   0  0  0  0  0  0  0  0  0  0  0  0
  190.8180  176.9140  138.4070 C   0  0  0  0  0  0  0  0  0  0  0  0
  191.4540  176.5080  147.1060 C   0  0  0  0  0  3  0  0  0  0  0  0
  192.3880  176.0870  147.8750 N   0  0  0  0  0  2  0  0  0  0  0  0
  1  4  1  6  0  0  0
  1  8  1  0  0  0  0
  1  3  1  0  0  0  0
  2  5  1  0  0  0  0
  2  6  1  0  0  0  0
  3 13  1  0  0  0  0
  3  7  1  0  0  0  0
  5  7  1  0  0  0  0
  5  6  1  0  0  0  0
  6 25  1  0  0  0  0
  8  2  1  0  0  0  0
  8  5  1  0  0  0  0
  9 17  1  0  0  0  0
 10 16  2  0  0  0  0
 10 14  1  0  0  0  0
 11 16  1  0  0  0  0
 11 13  1  0  0  0  0
 12 15  1  0  0  0  0
 13 12  2  0  0  0  0
 14  9  2  0  0  0  0
 16 17  1  0  0  0  0
 17 15  2  0  0  0  0
 18 24  1  0  0  0  0
 19 24  2  0  0  0  0
 19 21  1  0  0  0  0
 21 23  2  0  0  0  0
 22 20  2  0  0  0  0
 23 20  1  0  0  0  0
 23  4  1  0  0  0  0
 24 22  1  0  0  0  0
 25 26  2  0  0  0  0
M  END
>  <MODEL>
5

>  <REMARK>
 VINA RESULT:      -9.0      3.351      7.203
  Name = 
  3 active torsions:
  status: ('A' for Active; 'I' for Inactive)
    1  A    between atoms: C_4  and  C_21
    2  A    between atoms: N_12  and  C_14
    3  A    between atoms: C_17  and  C_19
                            x       y       z     vdW  Elec       q    Type
                         _______ _______ _______ _____ _____    ______ ____

>  <TORSDO>
F 3

$$$$
=
 OpenBabel11042410553D

 26 31  0  0  1  0  0  0  0  0999 V2000
  188.4960  178.1820  141.7810 C   0  0  1  0  0  3  0  0  0  0  0  0
  185.9780  179.0840  141.8200 C   0  0  2  0  0  3  0  0  0  0  0  0
  188.3610  177.9960  143.2100 N   0  0  0  0  0  0  0  0  0  0  0  0
  189.5100  177.8280  140.9860 C   0  0  0  0  0  2  0  0  0  0  0  0
  186.2240  177.8760  142.4900 C   0  0  2  0  0  0  0  0  0  0  0  0
  184.8140  178.3960  142.4460 C   0  0  1  0  0  3  0  0  0  0  0  0
  187.0290  178.0770  143.6610 O   0  0  0  0  0  0  0  0  0  0  0  0
  187.1790  178.2500  141.4730 N   0  0  2  0  0  0  0  0  0  0  0  0
  192.4300  175.9540  146.6010 N   0  0  0  0  0  0  0  0  0  0  0  0
  190.7830  177.1060  147.5840 C   0  0  0  0  0  3  0  0  0  0  0  0
  189.3090  177.7290  145.5840 C   0  0  0  0  0  3  0  0  0  0  0  0
  190.4100  176.7810  143.5260 C   0  0  0  0  0  3  0  0  0  0  0  0
  189.3980  177.4950  144.0750 C   0  0  0  0  0  0  0  0  0  0  0  0
  192.0100  176.3680  147.7310 N   0  0  0  0  0  2  0  0  0  0  0  0
  191.5180  176.2010  144.3230 C   0  0  0  0  0  3  0  0  0  0  0  0
  190.4730  177.1240  146.2990 C   0  0  0  0  0  0  0  0  0  0  0  0
  191.5000  176.3950  145.6330 C   0  0  0  0  0  0  0  0  0  0  0  0
  189.3920  177.4810  134.9690 Cl  0  0  0  0  0  0  0  0  0  0  0  0
  189.8290  176.5020  137.4820 C   0  0  0  0  0  3  0  0  0  0  0  0
  189.0560  178.8750  138.7370 C   0  0  0  0  0  3  0  0  0  0  0  0
  189.8500  176.5940  138.8770 C   0  0  0  0  0  3  0  0  0  0  0  0
  189.0330  178.7840  137.3430 C   0  0  0  0  0  3  0  0  0  0  0  0
  189.4610  177.7780  139.5140 C   0  0  0  0  0  0  0  0  0  0  0  0
  189.4200  177.5960  136.7150 C   0  0  0  0  0  0  0  0  0  0  0  0
  184.4390  179.1070  143.7050 C   0  0  0  0  0  3  0  0  0  0  0  0
  183.2450  179.0190  144.1590 N   0  0  0  0  0  2  0  0  0  0  0  0
  1  4  1  6  0  0  0
  1  3  1  0  0  0  0
  2  6  1  0  0  0  0
  2  5  1  0  0  0  0
  3  7  1  0  0  0  0
  3 13  1  0  0  0  0
  5  7  1  0  0  0  0
  6  5  1  0  0  0  0
  6 25  1  0  0  0  0
  8  1  1  0  0  0  0
  8  2  1  0  0  0  0
  8  5  1  0  0  0  0
  9 14  1  0  0  0  0
 10 14  1  0  0  0  0
 11 16  1  0  0  0  0
 12 13  1  0  0  0  0
 12 15  2  0  0  0  0
 13 11  2  0  0  0  0
 15 17  1  0  0  0  0
 16 10  2  0  0  0  0
 17 16  1  0  0  0  0
 17  9  2  0  0  0  0
 18 24  1  0  0  0  0
 19 21  1  0  0  0  0
 20 23  1  0  0  0  0
 21 23  2  0  0  0  0
 22 20  2  0  0  0  0
 23  4  1  0  0  0  0
 24 22  1  0  0  0  0
 24 19  2  0  0  0  0
 25 26  2  0  0  0  0
M  END
>  <MODEL>
6

>  <REMARK>
 VINA RESULT:      -9.0      2.848      5.349
  Name = 
  3 active torsions:
  status: ('A' for Active; 'I' for Inactive)
    1  A    between atoms: C_4  and  C_21
    2  A    between atoms: N_12  and  C_14
    3  A    between atoms: C_17  and  C_19
                            x       y       z     vdW  Elec       q    Type
                         _______ _______ _______ _____ _____    ______ ____

>  <TORSDO>
F 3

$$$$
=
 OpenBabel11042410553D

 26 31  0  0  1  0  0  0  0  0999 V2000
  185.9750  178.4840  143.6210 C   0  0  1  0  0  3  0  0  0  0  0  0
  185.9620  178.8570  146.2700 C   0  0  2  0  0  3  0  0  0  0  0  0
  187.3640  178.1060  143.7670 N   0  0  0  0  0  0  0  0  0  0  0  0
  185.2070  178.4360  142.5280 C   0  0  0  0  0  2  0  0  0  0  0  0
  186.5100  177.6510  145.8070 C   0  0  2  0  0  0  0  0  0  0  0  0
  186.4380  177.8820  147.2910 C   0  0  1  0  0  3  0  0  0  0  0  0
  187.7410  177.8680  145.1020 O   0  0  0  0  0  0  0  0  0  0  0  0
  185.5980  178.3250  144.9120 N   0  0  2  0  0  0  0  0  0  0  0  0
  190.8340  176.6190  139.5270 N   0  0  0  0  0  0  0  0  0  0  0  0
  189.2390  178.1130  139.0470 C   0  0  0  0  0  3  0  0  0  0  0  0
  188.0540  178.3630  141.3040 C   0  0  0  0  0  3  0  0  0  0  0  0
  189.2190  176.8290  142.9280 C   0  0  0  0  0  3  0  0  0  0  0  0
  188.2300  177.7230  142.6820 C   0  0  0  0  0  0  0  0  0  0  0  0
  190.3580  177.3340  138.5850 N   0  0  0  0  0  0  0  0  0  0  0  0
  190.1790  176.3780  141.8930 C   0  0  0  0  0  3  0  0  0  0  0  0
  189.0530  177.8370  140.3270 C   0  0  0  0  0  0  0  0  0  0  0  0
  190.0550  176.8860  140.6750 C   0  0  1  0  0  3  0  0  0  0  0  0
  179.2020  178.9020  142.2990 Cl  0  0  0  0  0  0  0  0  0  0  0  0
  181.6750  178.4300  141.2390 C   0  0  0  0  0  3  0  0  0  0  0  0
  182.9990  178.8970  143.6550 C   0  0  0  0  0  3  0  0  0  0  0  0
  183.0670  178.3220  141.3050 C   0  0  0  0  0  3  0  0  0  0  0  0
  181.6070  179.0030  143.5900 C   0  0  0  0  0  3  0  0  0  0  0  0
  183.7380  178.5520  142.5120 C   0  0  0  0  0  0  0  0  0  0  0  0
  180.9450  178.7680  142.3810 C   0  0  0  0  0  0  0  0  0  0  0  0
  187.7430  178.3490  147.8480 C   0  0  0  0  0  3  0  0  0  0  0  0
  188.2700  177.7390  148.8440 N   0  0  0  0  0  2  0  0  0  0  0  0
  1  4  1  6  0  0  0
  1  3  1  0  0  0  0
  1  8  1  0  0  0  0
  2  6  1  0  0  0  0
  3  7  1  0  0  0  0
  5  2  1  0  0  0  0
  5  6  1  0  0  0  0
  6 25  1  0  0  0  0
  7  5  1  0  0  0  0
  8  5  1  0  0  0  0
  8  2  1  0  0  0  0
  9 17  1  0  0  0  0
 10 16  2  0  0  0  0
 11 13  2  0  0  0  0
 13 12  1  0  0  0  0
 13  3  1  0  0  0  0
 14 10  1  0  0  0  0
 14  9  2  0  0  0  0
 15 12  2  0  0  0  0
 16 17  1  0  0  0  0
 16 11  1  0  0  0  0
 17 15  1  0  0  0  0
 18 24  1  0  0  0  0
 19 21  2  0  0  0  0
 19 24  1  0  0  0  0
 21 23  1  0  0  0  0
 22 20  1  0  0  0  0
 23  4  1  0  0  0  0
 23 20  2  0  0  0  0
 24 22  2  0  0  0  0
 25 26  2  0  0  0  0
M  END
>  <MODEL>
7

>  <REMARK>
 VINA RESULT:      -8.8      2.323      5.596
  Name = 
  3 active torsions:
  status: ('A' for Active; 'I' for Inactive)
    1  A    between atoms: C_4  and  C_21
    2  A    between atoms: N_12  and  C_14
    3  A    between atoms: C_17  and  C_19
                            x       y       z     vdW  Elec       q    Type
                         _______ _______ _______ _____ _____    ______ ____

>  <TORSDO>
F 3

$$$$
=
 OpenBabel11042410553D

 26 31  0  0  1  0  0  0  0  0999 V2000
  187.7370  178.1300  142.7240 C   0  0  1  0  0  3  0  0  0  0  0  0
  188.7980  177.9540  145.1720 C   0  0  2  0  0  3  0  0  0  0  0  0
  189.0260  177.7000  142.2260 N   0  0  0  0  0  0  0  0  0  0  0  0
  186.6030  178.3250  142.0440 C   0  0  0  0  0  2  0  0  0  0  0  0
  188.9940  176.8570  144.3210 C   0  0  2  0  0  0  0  0  0  0  0  0
  189.5330  176.7810  145.7230 C   0  0  1  0  0  3  0  0  0  0  0  0
  189.8680  177.1850  143.2310 O   0  0  0  0  0  0  0  0  0  0  0  0
  187.8800  177.7200  144.0060 N   0  0  2  0  0  0  0  0  0  0  0  0
  190.3860  177.0460  136.7530 N   0  0  0  0  0  0  0  0  0  0  0  0
  188.6270  178.3530  137.2060 C   0  0  0  0  0  3  0  0  0  0  0  0
  188.5390  178.2520  139.7640 C   0  0  0  0  0  3  0  0  0  0  0  0
  190.4200  176.7530  140.5130 C   0  0  0  0  0  3  0  0  0  0  0  0
  189.3540  177.5260  140.8350 C   0  0  0  0  0  0  0  0  0  0  0  0
  189.4870  177.7690  136.2100 N   0  0  0  0  0  0  0  0  0  0  0  0
  190.8600  176.5210  139.1170 C   0  0  0  0  0  3  0  0  0  0  0  0
  189.0460  177.9470  138.3930 C   0  0  0  0  0  0  0  0  0  0  0  0
  190.1730  177.1100  138.1490 C   0  0  2  0  0  3  0  0  0  0  0  0
  181.0670  178.9600  144.3430 Cl  0  0  0  0  0  0  0  0  0  0  0  0
  182.8650  178.6280  142.3130 C   0  0  0  0  0  3  0  0  0  0  0  0
  185.0730  178.6280  144.0250 C   0  0  0  0  0  3  0  0  0  0  0  0
  184.1530  178.4790  141.7920 C   0  0  0  0  0  3  0  0  0  0  0  0
  183.7850  178.7750  144.5470 C   0  0  0  0  0  3  0  0  0  0  0  0
  185.2650  178.4750  142.6420 C   0  0  0  0  0  0  0  0  0  0  0  0
  182.6800  178.7740  143.6900 C   0  0  0  0  0  0  0  0  0  0  0  0
  190.9920  177.0940  145.7800 C   0  0  0  0  0  3  0  0  0  0  0  0
  191.6810  176.7530  146.8040 N   0  0  0  0  0  2  0  0  0  0  0  0
  1  4  1  6  0  0  0
  1  8  1  0  0  0  0
  2  6  1  0  0  0  0
  3  1  1  0  0  0  0
  3  7  1  0  0  0  0
  4 23  1  0  0  0  0
  5  2  1  0  0  0  0
  5  6  1  0  0  0  0
  6 25  1  0  0  0  0
  7  5  1  0  0  0  0
  8  5  1  0  0  0  0
  8  2  1  0  0  0  0
  9 17  1  0  0  0  0
 10 16  2  0  0  0  0
 11 13  2  0  0  0  0
 12 13  1  0  0  0  0
 13  3  1  0  0  0  0
 14  9  2  0  0  0  0
 14 10  1  0  0  0  0
 15 12  2  0  0  0  0
 16 11  1  0  0  0  0
 17 16  1  0  0  0  0
 17 15  1  0  0  0  0
 19 24  1  0  0  0  0
 20 22  1  0  0  0  0
 21 19  2  0  0  0  0
 21 23  1  0  0  0  0
 23 20  2  0  0  0  0
 24 18  1  0  0  0  0
 24 22  2  0  0  0  0
 25 26  2  0  0  0  0
M  END
>  <MODEL>
8

>  <REMARK>
 VINA RESULT:      -8.8      1.188      5.711
  Name = 
  3 active torsions:
  status: ('A' for Active; 'I' for Inactive)
    1  A    between atoms: C_4  and  C_21
    2  A    between atoms: N_12  and  C_14
    3  A    between atoms: C_17  and  C_19
                            x       y       z     vdW  Elec       q    Type
                         _______ _______ _______ _____ _____    ______ ____

>  <TORSDO>
F 3

$$$$
=
 OpenBabel11042410553D

 26 31  0  0  1  0  0  0  0  0999 V2000
  187.8290  177.4020  143.6720 C   0  0  1  0  0  3  0  0  0  0  0  0
  189.1940  176.9210  145.9210 C   0  0  2  0  0  3  0  0  0  0  0  0
  186.7110  177.7470  144.5250 N   0  0  0  0  0  0  0  0  0  0  0  0
  187.9290  177.5100  142.3440 C   0  0  0  0  0  2  0  0  0  0  0  0
  188.4920  178.1340  145.8580 C   0  0  2  0  0  0  0  0  0  0  0  0
  189.3120  177.8440  147.0850 C   0  0  1  0  0  3  0  0  0  0  0  0
  187.0730  177.9240  145.8740 O   0  0  0  0  0  0  0  0  0  0  0  0
  188.8140  177.5150  144.5940 N   0  0  2  0  0  0  0  0  0  0  0  0
  181.5670  179.3210  142.7120 N   0  0  0  0  0  0  0  0  0  0  0  0
  182.9760  178.5170  141.1710 C   0  0  0  0  0  3  0  0  0  0  0  0
  185.0530  177.9950  142.5770 C   0  0  0  0  0  2  0  0  0  0  0  0
  184.5230  178.6420  144.9530 C   0  0  0  0  0  3  0  0  0  0  0  0
  185.4140  178.1590  144.0540 C   0  0  0  0  0  0  0  0  0  0  0  0
  181.6740  179.0530  141.4700 N   0  0  0  0  0  0  0  0  0  0  0  0
  183.1540  179.0760  144.5850 C   0  0  0  0  0  3  0  0  0  0  0  0
  183.6650  178.4720  142.2990 C   0  0  0  0  0  0  0  0  0  0  0  0
  182.7990  178.9760  143.3120 C   0  0  0  0  0  0  0  0  0  0  0  0
  192.9670  177.1100  139.0590 Cl  0  0  0  0  0  0  0  0  0  0  0  0
  190.2590  177.1900  139.4100 C   0  0  0  0  0  3  0  0  0  0  0  0
  190.4450  177.4550  142.1860 C   0  0  0  0  0  3  0  0  0  0  0  0
  189.0980  177.2860  140.1820 C   0  0  0  0  0  3  0  0  0  0  0  0
  191.6060  177.3610  141.4150 C   0  0  0  0  0  3  0  0  0  0  0  0
  189.1810  177.4220  141.5730 C   0  0  0  0  0  0  0  0  0  0  0  0
  191.5130  177.2290  140.0260 C   0  0  0  0  0  0  0  0  0  0  0  0
  188.4740  177.3290  148.2100 C   0  0  0  0  0  3  0  0  0  0  0  0
  188.1420  178.1090  149.1700 N   0  0  0  0  0  2  0  0  0  0  0  0
  1  4  1  6  0  0  0
  1  3  1  0  0  0  0
  1  8  1  0  0  0  0
  2  6  1  0  0  0  0
  3  7  1  0  0  0  0
  5  7  1  0  0  0  0
  5  2  1  0  0  0  0
  5  6  1  0  0  0  0
  6 25  1  0  0  0  0
  8  5  1  0  0  0  0
  8  2  1  0  0  0  0
  9 17  1  0  0  0  0
 10 14  1  0  0  0  0
 10 16  2  0  0  0  0
 11 13  1  0  0  0  0
 13  3  1  0  0  0  0
 13 12  2  0  0  0  0
 14  9  2  0  0  0  0
 15 12  1  0  0  0  0
 16 11  1  0  0  0  0
 16 17  1  0  0  0  0
 17 15  2  0  0  0  0
 18 24  1  0  0  0  0
 19 24  2  0  0  0  0
 19 21  1  0  0  0  0
 21 23  2  0  0  0  0
 22 20  2  0  0  0  0
 23 20  1  0  0  0  0
 23  4  1  0  0  0  0
 24 22  1  0  0  0  0
 25 26  2  0  0  0  0
M  END
>  <MODEL>
9

>  <REMARK>
 VINA RESULT:      -8.8      3.608      7.956
  Name = 
  3 active torsions:
  status: ('A' for Active; 'I' for Inactive)
    1  A    between atoms: C_4  and  C_21
    2  A    between atoms: N_12  and  C_14
    3  A    between atoms: C_17  and  C_19
                            x       y       z     vdW  Elec       q    Type
                         _______ _______ _______ _____ _____    ______ ____

>  <TORSDO>
F 3

$$$$
