=
 OpenBabel11032421253D

 34 37  0  0  1  0  0  0  0  0999 V2000
  182.7630  178.7990  137.9200 N   0  0  0  0  0  0  0  0  0  0  0  0
  184.7200  179.0100  139.5240 C   0  0  1  0  0  3  0  0  0  0  0  0
  185.4410  177.9220  138.6910 C   0  0  1  0  0  3  0  0  0  0  0  0
  183.1900  180.7890  139.0680 O   0  0  0  0  0  0  0  0  0  0  0  0
  184.6860  177.3830  137.4640 C   0  0  2  0  0  3  0  0  0  0  0  0
  183.5200  179.5970  138.8360 C   0  0  0  0  0  0  0  0  0  0  0  0
  183.1780  177.4240  137.6820 C   0  0  0  0  0  2  0  0  0  0  0  0
  187.0410  179.0650  137.1400 N   0  0  0  0  0  0  0  0  0  0  0  0
  186.7790  178.3630  138.3220 N   0  0  0  0  0  0  0  0  0  0  0  0
  189.0850  178.5670  138.2060 C   0  0  1  0  0  3  0  0  0  0  0  0
  188.4450  179.3070  137.1080 N   0  0  0  0  0  0  0  0  0  0  0  0
  188.0460  177.4600  140.1000 O   0  0  0  0  0  0  0  0  0  0  0  0
  187.9690  178.0520  138.9850 C   0  0  0  0  0  0  0  0  0  0  0  0
  189.8340  176.8210  136.4230 C   0  0  0  0  0  0  0  0  0  0  0  0
  191.4780  175.8820  137.4290 N   0  0  0  0  0  0  0  0  0  0  0  0
  189.9180  177.4470  137.6550 C   0  0  0  0  0  0  0  0  0  0  0  0
  191.5080  177.1060  139.6340 C   0  0  0  0  0  1  0  0  0  0  0  0
  190.9840  176.8180  138.2670 C   0  0  0  0  0  0  0  0  0  0  0  0
  189.0040  177.0880  135.5180 O   0  0  0  0  0  0  0  0  0  0  0  0
  190.7850  175.8720  136.3020 N   0  0  0  0  0  2  0  0  0  0  0  0
  192.6020  174.9960  137.6920 C   0  0  0  0  0  1  0  0  0  0  0  0
  185.7420  175.8700  135.9460 O   0  0  0  0  0  1  0  0  0  0  0  0
  185.1260  175.9550  137.1950 C   0  0  0  0  0  2  0  0  0  0  0  0
  183.4310  177.7070  141.0360 O   0  0  0  0  0  0  0  0  0  0  0  0
  184.3530  178.5020  140.8970 C   0  0  0  0  0  0  0  0  0  0  0  0
  185.0140  179.0810  142.1140 C   0  0  1  0  0  3  0  0  0  0  0  0
  184.6030  178.3560  143.3190 C   0  0  1  0  0  3  0  0  0  0  0  0
  185.9180  178.0880  142.7210 N   0  0  0  0  0  2  0  0  0  0  0  0
  185.6860  178.5430  145.5470 C   0  0  0  0  0  1  0  0  0  0  0  0
  184.7960  179.2410  144.5400 C   0  0  0  0  0  2  0  0  0  0  0  0
  181.6740  179.3770  137.1380 C   0  0  0  0  0  2  0  0  0  0  0  0
  179.7310  178.0420  136.3700 C   0  0  0  0  0  1  0  0  0  0  0  0
  181.2860  178.9810  134.7010 C   0  0  0  0  0  1  0  0  0  0  0  0
  181.1770  178.3910  136.0900 C   0  0  0  0  0  3  0  0  0  0  0  0
  1  6  1  0  0  0  0
  2 25  1  1  0  0  0
  3  9  1  6  0  0  0
  3  2  1  0  0  0  0
  5 23  1  1  0  0  0
  5  7  1  0  0  0  0
  5  3  1  0  0  0  0
  6  4  2  0  0  0  0
  6  2  1  0  0  0  0
  7  1  1  0  0  0  0
  8  9  1  0  0  0  0
  9 13  1  0  0  0  0
 10 16  1  6  0  0  0
 10 13  1  0  0  0  0
 11  8  2  0  0  0  0
 11 10  1  0  0  0  0
 13 12  2  0  0  0  0
 14 16  1  0  0  0  0
 15 21  1  0  0  0  0
 15 18  1  0  0  0  0
 16 18  2  0  0  0  0
 18 17  1  0  0  0  0
 19 14  2  0  0  0  0
 20 14  1  0  0  0  0
 20 15  1  0  0  0  0
 22 23  1  0  0  0  0
 25 24  2  0  0  0  0
 26 25  1  6  0  0  0
 26 28  1  0  0  0  0
 26 27  1  0  0  0  0
 27 30  1  1  0  0  0
 28 27  1  0  0  0  0
 30 29  1  0  0  0  0
 31  1  1  0  0  0  0
 33 34  1  0  0  0  0
 34 32  1  0  0  0  0
 34 31  1  0  0  0  0
M  END
>  <MODEL>
1

>  <REMARK>
 VINA RESULT:      -6.5      0.000      0.000
  Name = 
  8 active torsions:
  status: ('A' for Active; 'I' for Inactive)
    1  A    between atoms: C_1  and  C_18
    2  A    between atoms: C_2  and  N_3
    3  A    between atoms: C_2  and  C_28
    4  A    between atoms: C_8  and  C_13
    5  A    between atoms: N_10  and  C_20
    6  A    between atoms: C_14  and  C_18
    7  A    between atoms: C_19  and  C_31
    8  A    between atoms: C_27  and  C_34
                            x       y       z     vdW  Elec       q    Type
                         _______ _______ _______ _____ _____    ______ ____

>  <TORSDO>
F 8

$$$$
=
 OpenBabel11032421253D

 34 37  0  0  1  0  0  0  0  0999 V2000
  183.5340  174.5390  136.6810 N   0  0  0  0  0  0  0  0  0  0  0  0
  185.1580  176.4640  137.0070 C   0  0  1  0  0  3  0  0  0  0  0  0
  183.9320  177.4060  137.0730 C   0  0  1  0  0  3  0  0  0  0  0  0
  185.6310  174.2140  137.6600 O   0  0  0  0  0  0  0  0  0  0  0  0
  182.5480  176.7450  136.9520 C   0  0  2  0  0  3  0  0  0  0  0  0
  184.8060  175.0090  137.1410 C   0  0  0  0  0  0  0  0  0  0  0  0
  182.6100  175.4930  136.0850 C   0  0  0  0  0  2  0  0  0  0  0  0
  184.5200  179.5500  138.2290 N   0  0  0  0  0  0  0  0  0  0  0  0
  183.9980  178.2510  138.2570 N   0  0  0  0  0  0  0  0  0  0  0  0
  184.0350  178.9670  140.4620 C   0  0  1  0  0  3  0  0  0  0  0  0
  184.4410  180.0540  139.5590 N   0  0  0  0  0  0  0  0  0  0  0  0
  183.1690  176.7700  139.9010 O   0  0  0  0  0  0  0  0  0  0  0  0
  183.6950  177.8710  139.5680 C   0  0  0  0  0  0  0  0  0  0  0  0
  186.5130  178.4150  141.0470 C   0  0  0  0  0  0  0  0  0  0  0  0
  186.3750  178.0840  143.1610 N   0  0  0  0  0  0  0  0  0  0  0  0
  185.1760  178.5930  141.3610 C   0  0  0  0  0  0  0  0  0  0  0  0
  183.9130  178.4320  143.5840 C   0  0  0  0  0  1  0  0  0  0  0  0
  185.1310  178.3730  142.7240 C   0  0  0  0  0  0  0  0  0  0  0  0
  187.0210  178.5320  139.9040 O   0  0  0  0  0  0  0  0  0  0  0  0
  187.2270  178.1030  142.1490 N   0  0  0  0  0  2  0  0  0  0  0  0
  186.7600  177.7870  144.5330 C   0  0  0  0  0  1  0  0  0  0  0  0
  180.7850  178.3070  137.3520 O   0  0  0  0  0  1  0  0  0  0  0  0
  181.5710  177.7380  136.3490 C   0  0  0  0  0  2  0  0  0  0  0  0
  185.5020  176.4480  134.6560 O   0  0  0  0  0  0  0  0  0  0  0  0
  185.9720  176.7030  135.7580 C   0  0  0  0  0  0  0  0  0  0  0  0
  187.4120  177.1120  135.8680 C   0  0  1  0  0  3  0  0  0  0  0  0
  187.9900  176.6350  137.1270 C   0  0  1  0  0  3  0  0  0  0  0  0
  188.2790  175.9200  135.8760 N   0  0  0  0  0  2  0  0  0  0  0  0
  188.9590  178.9210  137.0770 C   0  0  0  0  0  1  0  0  0  0  0  0
  189.1980  177.4840  137.4900 C   0  0  0  0  0  2  0  0  0  0  0  0
  183.1100  173.1610  136.9150 C   0  0  0  0  0  2  0  0  0  0  0  0
  184.4570  171.2990  135.9850 C   0  0  0  0  0  1  0  0  0  0  0  0
  182.1050  171.5580  135.2820 C   0  0  0  0  0  1  0  0  0  0  0  0
  183.3610  172.3000  135.6860 C   0  0  0  0  0  3  0  0  0  0  0  0
  1 31  1  0  0  0  0
  1  6  1  0  0  0  0
  2 25  1  6  0  0  0
  2  3  1  0  0  0  0
  2  6  1  0  0  0  0
  3  9  1  1  0  0  0
  5 23  1  6  0  0  0
  5  3  1  0  0  0  0
  6  4  2  0  0  0  0
  7  1  1  0  0  0  0
  7  5  1  0  0  0  0
  8  9  1  0  0  0  0
  8 11  2  0  0  0  0
  9 13  1  0  0  0  0
 10 16  1  1  0  0  0
 11 10  1  0  0  0  0
 13 12  2  0  0  0  0
 13 10  1  0  0  0  0
 14 16  1  0  0  0  0
 14 20  1  0  0  0  0
 15 21  1  0  0  0  0
 16 18  2  0  0  0  0
 18 15  1  0  0  0  0
 18 17  1  0  0  0  0
 19 14  2  0  0  0  0
 20 15  1  0  0  0  0
 23 22  1  0  0  0  0
 24 25  2  0  0  0  0
 26 25  1  1  0  0  0
 26 28  1  0  0  0  0
 26 27  1  0  0  0  0
 27 30  1  6  0  0  0
 28 27  1  0  0  0  0
 29 30  1  0  0  0  0
 33 34  1  0  0  0  0
 34 32  1  0  0  0  0
 34 31  1  0  0  0  0
M  END
>  <MODEL>
2

>  <REMARK>
 VINA RESULT:      -5.7      2.383      6.232
  Name = 
  8 active torsions:
  status: ('A' for Active; 'I' for Inactive)
    1  A    between atoms: C_1  and  C_18
    2  A    between atoms: C_2  and  N_3
    3  A    between atoms: C_2  and  C_28
    4  A    between atoms: C_8  and  C_13
    5  A    between atoms: N_10  and  C_20
    6  A    between atoms: C_14  and  C_18
    7  A    between atoms: C_19  and  C_31
    8  A    between atoms: C_27  and  C_34
                            x       y       z     vdW  Elec       q    Type
                         _______ _______ _______ _____ _____    ______ ____

>  <TORSDO>
F 8

$$$$
=
 OpenBabel11032421253D

 34 37  0  0  1  0  0  0  0  0999 V2000
  188.6880  173.8720  135.5830 N   0  0  0  0  0  0  0  0  0  0  0  0
  190.2140  175.6470  136.5680 C   0  0  1  0  0  3  0  0  0  0  0  0
  189.1460  176.6970  136.1740 C   0  0  1  0  0  3  0  0  0  0  0  0
  190.1980  173.3700  137.2950 O   0  0  0  0  0  0  0  0  0  0  0  0
  187.8690  176.1600  135.5050 C   0  0  2  0  0  3  0  0  0  0  0  0
  189.7130  174.2320  136.5150 C   0  0  0  0  0  0  0  0  0  0  0  0
  188.1570  174.9000  134.6980 C   0  0  0  0  0  2  0  0  0  0  0  0
  189.5130  178.7220  137.6030 N   0  0  0  0  0  0  0  0  0  0  0  0
  188.8160  177.5430  137.3120 N   0  0  0  0  0  0  0  0  0  0  0  0
  187.9750  178.2940  139.3380 C   0  0  1  0  0  3  0  0  0  0  0  0
  188.9300  179.2650  138.7840 N   0  0  0  0  0  0  0  0  0  0  0  0
  187.0860  176.2820  138.3120 O   0  0  0  0  0  0  0  0  0  0  0  0
  187.8900  177.2580  138.3200 C   0  0  0  0  0  0  0  0  0  0  0  0
  189.6560  177.0140  140.8620 C   0  0  0  0  0  0  0  0  0  0  0  0
  188.7290  177.2400  142.7820 N   0  0  0  0  0  0  0  0  0  0  0  0
  188.4990  177.7370  140.6290 C   0  0  0  0  0  0  0  0  0  0  0  0
  186.6560  178.5570  142.2090 C   0  0  0  0  0  1  0  0  0  0  0  0
  187.9360  177.8620  141.8840 C   0  0  0  0  0  0  0  0  0  0  0  0
  190.4990  176.6750  139.9930 O   0  0  0  0  0  0  0  0  0  0  0  0
  189.7800  176.7160  142.1720 N   0  0  0  0  0  2  0  0  0  0  0  0
  188.4950  177.1380  144.2150 C   0  0  0  0  0  1  0  0  0  0  0  0
  186.1360  177.7680  135.1560 O   0  0  0  0  0  1  0  0  0  0  0  0
  187.2960  177.2320  134.5940 C   0  0  0  0  0  2  0  0  0  0  0  0
  191.4070  176.2320  134.5990 O   0  0  0  0  0  0  0  0  0  0  0  0
  191.4690  175.8010  135.7440 C   0  0  0  0  0  0  0  0  0  0  0  0
  192.7780  175.2870  136.2670 C   0  0  1  0  0  3  0  0  0  0  0  0
  193.8990  175.8960  135.5450 C   0  0  1  0  0  3  0  0  0  0  0  0
  193.5450  176.3840  136.8850 N   0  0  0  0  0  2  0  0  0  0  0  0
  195.2170  174.4340  137.0590 C   0  0  0  0  0  1  0  0  0  0  0  0
  195.1270  175.0070  135.6610 C   0  0  0  0  0  2  0  0  0  0  0  0
  188.0890  172.5410  135.5960 C   0  0  0  0  0  2  0  0  0  0  0  0
  185.9500  171.3110  135.3490 C   0  0  0  0  0  1  0  0  0  0  0  0
  186.2020  172.9390  137.1870 C   0  0  0  0  0  1  0  0  0  0  0  0
  186.5780  172.6290  135.7540 C   0  0  0  0  0  3  0  0  0  0  0  0
  1 31  1  0  0  0  0
  1  6  1  0  0  0  0
  2 25  1  6  0  0  0
  3  2  1  0  0  0  0
  3  9  1  1  0  0  0
  5 23  1  6  0  0  0
  5  3  1  0  0  0  0
  6  2  1  0  0  0  0
  6  4  2  0  0  0  0
  7  5  1  0  0  0  0
  7  1  1  0  0  0  0
  8 11  2  0  0  0  0
  9  8  1  0  0  0  0
  9 13  1  0  0  0  0
 10 16  1  1  0  0  0
 11 10  1  0  0  0  0
 12 13  2  0  0  0  0
 13 10  1  0  0  0  0
 14 20  1  0  0  0  0
 15 21  1  0  0  0  0
 16 14  1  0  0  0  0
 16 18  2  0  0  0  0
 18 17  1  0  0  0  0
 18 15  1  0  0  0  0
 19 14  2  0  0  0  0
 20 15  1  0  0  0  0
 23 22  1  0  0  0  0
 24 25  2  0  0  0  0
 26 25  1  6  0  0  0
 26 28  1  0  0  0  0
 27 30  1  1  0  0  0
 27 26  1  0  0  0  0
 27 28  1  0  0  0  0
 30 29  1  0  0  0  0
 31 34  1  0  0  0  0
 32 34  1  0  0  0  0
 34 33  1  0  0  0  0
M  END
>  <MODEL>
3

>  <REMARK>
 VINA RESULT:      -5.7      3.711      7.471
  Name = 
  8 active torsions:
  status: ('A' for Active; 'I' for Inactive)
    1  A    between atoms: C_1  and  C_18
    2  A    between atoms: C_2  and  N_3
    3  A    between atoms: C_2  and  C_28
    4  A    between atoms: C_8  and  C_13
    5  A    between atoms: N_10  and  C_20
    6  A    between atoms: C_14  and  C_18
    7  A    between atoms: C_19  and  C_31
    8  A    between atoms: C_27  and  C_34
                            x       y       z     vdW  Elec       q    Type
                         _______ _______ _______ _____ _____    ______ ____

>  <TORSDO>
F 8

$$$$
=
 OpenBabel11032421253D

 34 37  0  0  1  0  0  0  0  0999 V2000
  188.9220  176.4080  138.1060 N   0  0  0  0  0  0  0  0  0  0  0  0
  191.0860  176.1400  139.4080 C   0  0  1  0  0  3  0  0  0  0  0  0
  190.5060  177.1210  140.4560 C   0  0  1  0  0  3  0  0  0  0  0  0
  190.2040  174.4600  137.9550 O   0  0  0  0  0  0  0  0  0  0  0  0
  189.0830  177.6450  140.1930 C   0  0  2  0  0  3  0  0  0  0  0  0
  190.0590  175.6080  138.4490 C   0  0  0  0  0  0  0  0  0  0  0  0
  188.7950  177.7320  138.6990 C   0  0  0  0  0  2  0  0  0  0  0  0
  190.0590  175.3180  142.1380 N   0  0  0  0  0  0  0  0  0  0  0  0
  190.6100  176.5600  141.7960 N   0  0  0  0  0  0  0  0  0  0  0  0
  190.9100  176.3430  144.0840 C   0  0  1  0  0  3  0  0  0  0  0  0
  190.3380  175.1110  143.5190 N   0  0  0  0  0  0  0  0  0  0  0  0
  191.7260  178.3110  142.9220 O   0  0  0  0  0  0  0  0  0  0  0  0
  191.1280  177.1970  142.9270 C   0  0  0  0  0  0  0  0  0  0  0  0
  188.6740  177.4820  144.7880 C   0  0  0  0  0  0  0  0  0  0  0  0
  188.9790  177.7230  146.8960 N   0  0  0  0  0  0  0  0  0  0  0  0
  189.9360  176.9710  145.0380 C   0  0  0  0  0  0  0  0  0  0  0  0
  191.2910  176.7640  147.2030 C   0  0  0  0  0  1  0  0  0  0  0  0
  190.0920  177.1420  146.4000 C   0  0  0  0  0  0  0  0  0  0  0  0
  188.1050  177.5190  143.6670 O   0  0  0  0  0  0  0  0  0  0  0  0
  188.1070  177.9370  145.9240 N   0  0  0  0  0  2  0  0  0  0  0  0
  188.7380  178.0770  148.2870 C   0  0  0  0  0  1  0  0  0  0  0  0
  187.5950  179.2590  141.1380 O   0  0  0  0  0  1  0  0  0  0  0  0
  188.9340  179.0180  140.8250 C   0  0  0  0  0  2  0  0  0  0  0  0
  192.9150  177.6400  139.1790 O   0  0  0  0  0  0  0  0  0  0  0  0
  192.2470  176.7520  138.6620 C   0  0  0  0  0  0  0  0  0  0  0  0
  192.4950  176.3850  137.2290 C   0  0  1  0  0  3  0  0  0  0  0  0
  193.9300  176.4070  136.9310 C   0  0  1  0  0  3  0  0  0  0  0  0
  193.2520  175.1230  137.1510 N   0  0  0  0  0  2  0  0  0  0  0  0
  193.3570  175.5490  134.6710 C   0  0  0  0  0  1  0  0  0  0  0  0
  194.1400  176.5950  135.4370 C   0  0  0  0  0  2  0  0  0  0  0  0
  187.8420  175.8710  137.2830 C   0  0  0  0  0  2  0  0  0  0  0  0
  189.0200  176.5640  135.2140 C   0  0  0  0  0  1  0  0  0  0  0  0
  186.6000  176.0890  135.1260 C   0  0  0  0  0  1  0  0  0  0  0  0
  187.7170  176.6480  135.9810 C   0  0  0  0  0  3  0  0  0  0  0  0
  1  6  1  0  0  0  0
  1  7  1  0  0  0  0
  2 25  1  6  0  0  0
  2  3  1  0  0  0  0
  3  9  1  1  0  0  0
  4  6  2  0  0  0  0
  5  3  1  0  0  0  0
  5 23  1  6  0  0  0
  6  2  1  0  0  0  0
  7  5  1  0  0  0  0
  8 11  2  0  0  0  0
  9  8  1  0  0  0  0
  9 13  1  0  0  0  0
 10 16  1  1  0  0  0
 11 10  1  0  0  0  0
 12 13  2  0  0  0  0
 13 10  1  0  0  0  0
 14 16  1  0  0  0  0
 14 20  1  0  0  0  0
 15 21  1  0  0  0  0
 16 18  2  0  0  0  0
 18 15  1  0  0  0  0
 18 17  1  0  0  0  0
 19 14  2  0  0  0  0
 20 15  1  0  0  0  0
 23 22  1  0  0  0  0
 25 24  2  0  0  0  0
 26 25  1  1  0  0  0
 27 30  1  6  0  0  0
 27 28  1  0  0  0  0
 27 26  1  0  0  0  0
 28 26  1  0  0  0  0
 29 30  1  0  0  0  0
 31  1  1  0  0  0  0
 32 34  1  0  0  0  0
 33 34  1  0  0  0  0
 34 31  1  0  0  0  0
M  END
>  <MODEL>
4

>  <REMARK>
 VINA RESULT:      -5.5      4.025      8.335
  Name = 
  8 active torsions:
  status: ('A' for Active; 'I' for Inactive)
    1  A    between atoms: C_1  and  C_18
    2  A    between atoms: C_2  and  N_3
    3  A    between atoms: C_2  and  C_28
    4  A    between atoms: C_8  and  C_13
    5  A    between atoms: N_10  and  C_20
    6  A    between atoms: C_14  and  C_18
    7  A    between atoms: C_19  and  C_31
    8  A    between atoms: C_27  and  C_34
                            x       y       z     vdW  Elec       q    Type
                         _______ _______ _______ _____ _____    ______ ____

>  <TORSDO>
F 8

$$$$
=
 OpenBabel11032421253D

 34 37  0  0  1  0  0  0  0  0999 V2000
  183.0390  174.7360  136.2690 N   0  0  0  0  0  0  0  0  0  0  0  0
  184.2530  176.5860  137.5140 C   0  0  1  0  0  3  0  0  0  0  0  0
  183.0450  177.5040  137.2040 C   0  0  1  0  0  3  0  0  0  0  0  0
  184.5710  174.2610  137.9680 O   0  0  0  0  0  0  0  0  0  0  0  0
  181.8800  176.8670  136.4270 C   0  0  2  0  0  3  0  0  0  0  0  0
  183.9770  175.1290  137.2760 C   0  0  0  0  0  0  0  0  0  0  0  0
  182.3750  175.7720  135.4900 C   0  0  0  0  0  2  0  0  0  0  0  0
  182.4230  179.5340  138.5330 N   0  0  0  0  0  0  0  0  0  0  0  0
  182.5640  178.1460  138.4190 N   0  0  0  0  0  0  0  0  0  0  0  0
  181.9900  178.5450  140.6300 C   0  0  1  0  0  3  0  0  0  0  0  0
  181.9550  179.7940  139.8530 N   0  0  0  0  0  0  0  0  0  0  0  0
  182.3200  176.2740  139.8400 O   0  0  0  0  0  0  0  0  0  0  0  0
  182.3120  177.5240  139.6450 C   0  0  0  0  0  0  0  0  0  0  0  0
  184.4300  178.6720  141.5370 C   0  0  0  0  0  0  0  0  0  0  0  0
  184.0790  178.7900  143.6490 N   0  0  0  0  0  0  0  0  0  0  0  0
  183.0540  178.6270  141.6850 C   0  0  0  0  0  0  0  0  0  0  0  0
  181.5620  178.6950  143.7670 C   0  0  0  0  0  1  0  0  0  0  0  0
  182.8710  178.7080  143.0520 C   0  0  0  0  0  0  0  0  0  0  0  0
  185.0530  178.6400  140.4460 O   0  0  0  0  0  0  0  0  0  0  0  0
  185.0380  178.7670  142.7370 N   0  0  0  0  0  2  0  0  0  0  0  0
  184.3300  178.8900  145.0790 C   0  0  0  0  0  1  0  0  0  0  0  0
  179.9400  178.2460  136.2150 O   0  0  0  0  0  1  0  0  0  0  0  0
  181.1680  177.9430  135.6260 C   0  0  0  0  0  2  0  0  0  0  0  0
  185.5380  176.9230  135.5440 O   0  0  0  0  0  0  0  0  0  0  0  0
  185.4870  177.0260  136.7640 C   0  0  0  0  0  0  0  0  0  0  0  0
  186.7130  177.4490  137.5180 C   0  0  1  0  0  3  0  0  0  0  0  0
  187.6370  178.1700  136.6390 C   0  0  1  0  0  3  0  0  0  0  0  0
  186.7910  178.9200  137.5780 N   0  0  0  0  0  2  0  0  0  0  0  0
  189.0560  178.6280  138.6260 C   0  0  0  0  0  1  0  0  0  0  0  0
  189.0460  178.0990  137.2080 C   0  0  0  0  0  2  0  0  0  0  0  0
  182.6510  173.3380  136.1020 C   0  0  0  0  0  2  0  0  0  0  0  0
  180.7720  171.7220  136.0430 C   0  0  0  0  0  1  0  0  0  0  0  0
  180.7530  173.5370  137.7150 C   0  0  0  0  0  1  0  0  0  0  0  0
  181.1530  173.1640  136.3040 C   0  0  0  0  0  3  0  0  0  0  0  0
  1  6  1  0  0  0  0
  2 25  1  6  0  0  0
  3  2  1  0  0  0  0
  3  9  1  1  0  0  0
  5 23  1  6  0  0  0
  5  3  1  0  0  0  0
  6  2  1  0  0  0  0
  6  4  2  0  0  0  0
  7  1  1  0  0  0  0
  7  5  1  0  0  0  0
  8 11  2  0  0  0  0
  9  8  1  0  0  0  0
  9 13  1  0  0  0  0
 10 16  1  1  0  0  0
 11 10  1  0  0  0  0
 13 12  2  0  0  0  0
 13 10  1  0  0  0  0
 14 16  1  0  0  0  0
 14 20  1  0  0  0  0
 15 21  1  0  0  0  0
 16 18  2  0  0  0  0
 18 15  1  0  0  0  0
 18 17  1  0  0  0  0
 19 14  2  0  0  0  0
 20 15  1  0  0  0  0
 23 22  1  0  0  0  0
 24 25  2  0  0  0  0
 26 25  1  6  0  0  0
 26 28  1  0  0  0  0
 27 30  1  1  0  0  0
 27 26  1  0  0  0  0
 27 28  1  0  0  0  0
 30 29  1  0  0  0  0
 31  1  1  0  0  0  0
 31 34  1  0  0  0  0
 32 34  1  0  0  0  0
 34 33  1  0  0  0  0
M  END
>  <MODEL>
5

>  <REMARK>
 VINA RESULT:      -5.4      2.572      6.733
  Name = 
  8 active torsions:
  status: ('A' for Active; 'I' for Inactive)
    1  A    between atoms: C_1  and  C_18
    2  A    between atoms: C_2  and  N_3
    3  A    between atoms: C_2  and  C_28
    4  A    between atoms: C_8  and  C_13
    5  A    between atoms: N_10  and  C_20
    6  A    between atoms: C_14  and  C_18
    7  A    between atoms: C_19  and  C_31
    8  A    between atoms: C_27  and  C_34
                            x       y       z     vdW  Elec       q    Type
                         _______ _______ _______ _____ _____    ______ ____

>  <TORSDO>
F 8

$$$$
=
 OpenBabel11032421253D

 34 37  0  0  1  0  0  0  0  0999 V2000
  186.0140  177.6440  138.5460 N   0  0  0  0  0  0  0  0  0  0  0  0
  188.4140  177.5000  139.3630 C   0  0  1  0  0  3  0  0  0  0  0  0
  187.9390  178.1510  140.6850 C   0  0  1  0  0  3  0  0  0  0  0  0
  187.4770  176.0040  137.7520 O   0  0  0  0  0  0  0  0  0  0  0  0
  186.4370  178.4690  140.7940 C   0  0  2  0  0  3  0  0  0  0  0  0
  187.2900  176.9960  138.5030 C   0  0  0  0  0  0  0  0  0  0  0  0
  185.8410  178.7890  139.4290 C   0  0  0  0  0  2  0  0  0  0  0  0
  187.8630  176.1050  142.1290 N   0  0  0  0  0  0  0  0  0  0  0  0
  188.3850  177.3690  141.8300 N   0  0  0  0  0  0  0  0  0  0  0  0
  189.3220  176.7620  143.8620 C   0  0  1  0  0  3  0  0  0  0  0  0
  188.5170  175.6600  143.3150 N   0  0  0  0  0  0  0  0  0  0  0  0
  189.9150  178.8730  142.8200 O   0  0  0  0  0  0  0  0  0  0  0  0
  189.2590  177.7920  142.8360 C   0  0  0  0  0  0  0  0  0  0  0  0
  187.4280  177.6690  145.4040 C   0  0  0  0  0  0  0  0  0  0  0  0
  188.4540  177.8060  147.2810 N   0  0  0  0  0  0  0  0  0  0  0  0
  188.7230  177.2490  145.1480 C   0  0  0  0  0  0  0  0  0  0  0  0
  190.7720  177.0240  146.6690 C   0  0  0  0  0  1  0  0  0  0  0  0
  189.3460  177.3500  146.3760 C   0  0  0  0  0  0  0  0  0  0  0  0
  186.4950  177.7270  144.5640 O   0  0  0  0  0  0  0  0  0  0  0  0
  187.2820  178.0070  146.7020 N   0  0  0  0  0  2  0  0  0  0  0  0
  188.7080  178.0540  148.6930 C   0  0  0  0  0  1  0  0  0  0  0  0
  184.9520  179.6400  142.2540 O   0  0  0  0  0  1  0  0  0  0  0  0
  186.2450  179.6510  141.7280 C   0  0  0  0  0  2  0  0  0  0  0  0
  188.8760  179.4950  138.1590 O   0  0  0  0  0  0  0  0  0  0  0  0
  189.3090  178.4300  138.5810 C   0  0  0  0  0  0  0  0  0  0  0  0
  190.6880  177.9890  138.1860 C   0  0  1  0  0  3  0  0  0  0  0  0
  190.9070  176.5860  138.5510 C   0  0  1  0  0  3  0  0  0  0  0  0
  190.6100  176.9370  137.1560 N   0  0  0  0  0  2  0  0  0  0  0  0
  192.9870  176.0330  137.3110 C   0  0  0  0  0  1  0  0  0  0  0  0
  192.3980  176.3160  138.6770 C   0  0  0  0  0  2  0  0  0  0  0  0
  184.8670  177.1000  137.8250 C   0  0  0  0  0  2  0  0  0  0  0  0
  182.6080  178.0340  137.4060 C   0  0  0  0  0  1  0  0  0  0  0  0
  182.9190  176.3910  139.2210 C   0  0  0  0  0  1  0  0  0  0  0  0
  183.5620  177.5390  138.4730 C   0  0  0  0  0  3  0  0  0  0  0  0
  1  7  1  0  0  0  0
  2 25  1  6  0  0  0
  2  3  1  0  0  0  0
  3  5  1  0  0  0  0
  3  9  1  1  0  0  0
  4  6  2  0  0  0  0
  5 23  1  1  0  0  0
  6  1  1  0  0  0  0
  6  2  1  0  0  0  0
  7  5  1  0  0  0  0
  8 11  2  0  0  0  0
  9  8  1  0  0  0  0
  9 13  1  0  0  0  0
 10 16  1  1  0  0  0
 11 10  1  0  0  0  0
 12 13  2  0  0  0  0
 13 10  1  0  0  0  0
 14 20  1  0  0  0  0
 15 21  1  0  0  0  0
 16 14  1  0  0  0  0
 16 18  2  0  0  0  0
 18 17  1  0  0  0  0
 18 15  1  0  0  0  0
 19 14  2  0  0  0  0
 20 15  1  0  0  0  0
 23 22  1  0  0  0  0
 24 25  2  0  0  0  0
 26 27  1  0  0  0  0
 26 25  1  1  0  0  0
 27 30  1  6  0  0  0
 28 26  1  0  0  0  0
 28 27  1  0  0  0  0
 29 30  1  0  0  0  0
 31 34  1  0  0  0  0
 31  1  1  0  0  0  0
 32 34  1  0  0  0  0
 34 33  1  0  0  0  0
M  END
>  <MODEL>
6

>  <REMARK>
 VINA RESULT:      -5.3      2.824      6.975
  Name = 
  8 active torsions:
  status: ('A' for Active; 'I' for Inactive)
    1  A    between atoms: C_1  and  C_18
    2  A    between atoms: C_2  and  N_3
    3  A    between atoms: C_2  and  C_28
    4  A    between atoms: C_8  and  C_13
    5  A    between atoms: N_10  and  C_20
    6  A    between atoms: C_14  and  C_18
    7  A    between atoms: C_19  and  C_31
    8  A    between atoms: C_27  and  C_34
                            x       y       z     vdW  Elec       q    Type
                         _______ _______ _______ _____ _____    ______ ____

>  <TORSDO>
F 8

$$$$
=
 OpenBabel11032421253D

 34 37  0  0  1  0  0  0  0  0999 V2000
  191.8370  176.2960  137.3660 N   0  0  0  0  0  0  0  0  0  0  0  0
  189.4750  175.6360  136.7100 C   0  0  1  0  0  3  0  0  0  0  0  0
  188.9840  176.3490  137.9940 C   0  0  1  0  0  3  0  0  0  0  0  0
  191.2400  175.9630  135.1320 O   0  0  0  0  0  0  0  0  0  0  0  0
  190.0620  177.0230  138.8600 C   0  0  2  0  0  3  0  0  0  0  0  0
  190.8920  175.9700  136.3420 C   0  0  0  0  0  0  0  0  0  0  0  0
  191.3940  176.2900  138.7530 C   0  0  0  0  0  2  0  0  0  0  0  0
  188.1250  178.6630  137.5670 N   0  0  0  0  0  0  0  0  0  0  0  0
  187.9120  177.2840  137.6820 N   0  0  0  0  0  0  0  0  0  0  0  0
  185.8130  178.2280  137.4080 C   0  0  1  0  0  3  0  0  0  0  0  0
  186.8600  179.2520  137.2780 N   0  0  0  0  0  0  0  0  0  0  0  0
  186.0580  175.8220  137.6150 O   0  0  0  0  0  0  0  0  0  0  0  0
  186.5500  176.9870  137.5900 C   0  0  0  0  0  0  0  0  0  0  0  0
  185.3320  178.8570  139.8900 C   0  0  0  0  0  0  0  0  0  0  0  0
  183.1880  178.8770  139.9040 N   0  0  0  0  0  0  0  0  0  0  0  0
  184.9520  178.5210  138.6020 C   0  0  0  0  0  0  0  0  0  0  0  0
  182.6450  178.2500  137.5230 C   0  0  0  0  0  1  0  0  0  0  0  0
  183.5730  178.5470  138.6530 C   0  0  0  0  0  0  0  0  0  0  0  0
  186.5140  178.9700  140.3020 O   0  0  0  0  0  0  0  0  0  0  0  0
  184.2510  179.0670  140.6700 N   0  0  0  0  0  2  0  0  0  0  0  0
  181.8190  179.0110  140.3790 C   0  0  0  0  0  1  0  0  0  0  0  0
  190.4830  176.3050  141.1000 O   0  0  0  0  0  1  0  0  0  0  0  0
  189.6000  177.0390  140.3070 C   0  0  0  0  0  2  0  0  0  0  0  0
  190.1850  173.4290  137.2280 O   0  0  0  0  0  0  0  0  0  0  0  0
  189.2840  174.1410  136.8010 C   0  0  0  0  0  0  0  0  0  0  0  0
  188.0510  173.5050  136.2300 C   0  0  1  0  0  3  0  0  0  0  0  0
  188.2090  172.0500  136.1510 C   0  0  1  0  0  3  0  0  0  0  0  0
  187.4140  172.6380  137.2380 N   0  0  0  0  0  2  0  0  0  0  0  0
  185.8320  171.8410  135.4620 C   0  0  0  0  0  1  0  0  0  0  0  0
  187.2600  171.4880  135.1050 C   0  0  0  0  0  2  0  0  0  0  0  0
  193.1840  176.7520  137.0340 C   0  0  0  0  0  2  0  0  0  0  0  0
  195.0270  176.1280  135.4980 C   0  0  0  0  0  1  0  0  0  0  0  0
  194.7790  174.9260  137.6400 C   0  0  0  0  0  1  0  0  0  0  0  0
  194.0320  175.6020  136.5110 C   0  0  0  0  0  3  0  0  0  0  0  0
  1  7  1  0  0  0  0
  2 25  1  1  0  0  0
  2  3  1  0  0  0  0
  3  9  1  6  0  0  0
  3  5  1  0  0  0  0
  4  6  2  0  0  0  0
  5 23  1  1  0  0  0
  6  2  1  0  0  0  0
  6  1  1  0  0  0  0
  7  5  1  0  0  0  0
  8  9  1  0  0  0  0
 10 13  1  0  0  0  0
 10 16  1  1  0  0  0
 11 10  1  0  0  0  0
 11  8  2  0  0  0  0
 13 12  2  0  0  0  0
 13  9  1  0  0  0  0
 14 19  2  0  0  0  0
 14 20  1  0  0  0  0
 15 21  1  0  0  0  0
 15 20  1  0  0  0  0
 16 18  2  0  0  0  0
 16 14  1  0  0  0  0
 17 18  1  0  0  0  0
 18 15  1  0  0  0  0
 23 22  1  0  0  0  0
 25 24  2  0  0  0  0
 26 25  1  1  0  0  0
 26 28  1  0  0  0  0
 27 30  1  6  0  0  0
 27 26  1  0  0  0  0
 27 28  1  0  0  0  0
 30 29  1  0  0  0  0
 31  1  1  0  0  0  0
 32 34  1  0  0  0  0
 34 31  1  0  0  0  0
 34 33  1  0  0  0  0
M  END
>  <MODEL>
7

>  <REMARK>
 VINA RESULT:      -5.3      2.575      8.599
  Name = 
  8 active torsions:
  status: ('A' for Active; 'I' for Inactive)
    1  A    between atoms: C_1  and  C_18
    2  A    between atoms: C_2  and  N_3
    3  A    between atoms: C_2  and  C_28
    4  A    between atoms: C_8  and  C_13
    5  A    between atoms: N_10  and  C_20
    6  A    between atoms: C_14  and  C_18
    7  A    between atoms: C_19  and  C_31
    8  A    between atoms: C_27  and  C_34
                            x       y       z     vdW  Elec       q    Type
                         _______ _______ _______ _____ _____    ______ ____

>  <TORSDO>
F 8

$$$$
=
 OpenBabel11032421253D

 34 37  0  0  1  0  0  0  0  0999 V2000
  180.7730  178.5220  140.8920 N   0  0  0  0  0  0  0  0  0  0  0  0
  181.1130  178.3630  138.3800 C   0  0  1  0  0  3  0  0  0  0  0  0
  182.6370  178.3260  138.6500 C   0  0  1  0  0  3  0  0  0  0  0  0
  179.1520  177.5780  139.4990 O   0  0  0  0  0  0  0  0  0  0  0  0
  183.0750  178.3690  140.1240 C   0  0  2  0  0  3  0  0  0  0  0  0
  180.2800  178.1260  139.6080 C   0  0  0  0  0  0  0  0  0  0  0  0
  182.0830  179.1550  140.9720 C   0  0  0  0  0  2  0  0  0  0  0  0
  183.9330  177.3410  136.7450 N   0  0  0  0  0  0  0  0  0  0  0  0
  183.2520  177.2000  137.9610 N   0  0  0  0  0  0  0  0  0  0  0  0
  183.7880  175.0490  137.2820 C   0  0  1  0  0  3  0  0  0  0  0  0
  184.3760  176.0410  136.3690 N   0  0  0  0  0  0  0  0  0  0  0  0
  182.6270  175.4190  139.3810 O   0  0  0  0  0  0  0  0  0  0  0  0
  183.1500  175.8520  138.3140 C   0  0  0  0  0  0  0  0  0  0  0  0
  181.6560  174.6140  135.8500 C   0  0  0  0  0  0  0  0  0  0  0  0
  181.7160  172.4800  135.6580 N   0  0  0  0  0  0  0  0  0  0  0  0
  182.7790  174.2120  136.5530 C   0  0  0  0  0  0  0  0  0  0  0  0
  183.7870  171.8950  136.9740 C   0  0  0  0  0  1  0  0  0  0  0  0
  182.7830  172.8400  136.4030 C   0  0  0  0  0  0  0  0  0  0  0  0
  181.2650  175.7990  135.7050 O   0  0  0  0  0  0  0  0  0  0  0  0
  181.0200  173.5510  135.3160 N   0  0  0  0  0  2  0  0  0  0  0  0
  181.3530  171.1240  135.2690 C   0  0  0  0  0  1  0  0  0  0  0  0
  184.5400  180.0810  139.3280 O   0  0  0  0  0  1  0  0  0  0  0  0
  184.4490  179.0090  140.2180 C   0  0  0  0  0  2  0  0  0  0  0  0
  179.9560  179.6150  136.7260 O   0  0  0  0  0  0  0  0  0  0  0  0
  180.7040  179.6440  137.6950 C   0  0  0  0  0  0  0  0  0  0  0  0
  181.3310  180.9450  138.1020 C   0  0  1  0  0  3  0  0  0  0  0  0
  180.4950  182.0750  137.6850 C   0  0  1  0  0  3  0  0  0  0  0  0
  180.4770  181.6350  139.0870 N   0  0  0  0  0  2  0  0  0  0  0  0
  181.1490  183.9750  136.2260 C   0  0  0  0  0  1  0  0  0  0  0  0
  181.3450  183.3310  137.5820 C   0  0  0  0  0  2  0  0  0  0  0  0
  180.0490  178.1890  142.1150 C   0  0  0  0  0  2  0  0  0  0  0  0
  179.0770  180.4580  142.3520 C   0  0  0  0  0  1  0  0  0  0  0  0
  179.3080  179.0270  144.3500 C   0  0  0  0  0  1  0  0  0  0  0  0
  179.9330  179.4040  143.0240 C   0  0  0  0  0  3  0  0  0  0  0  0
  1  7  1  0  0  0  0
  1 31  1  0  0  0  0
  2 25  1  1  0  0  0
  2  3  1  0  0  0  0
  2  6  1  0  0  0  0
  3  9  1  1  0  0  0
  3  5  1  0  0  0  0
  4  6  2  0  0  0  0
  5 23  1  6  0  0  0
  5  7  1  0  0  0  0
  6  1  1  0  0  0  0
  8  9  1  0  0  0  0
  9 13  1  0  0  0  0
 10 16  1  6  0  0  0
 10 13  1  0  0  0  0
 11  8  2  0  0  0  0
 11 10  1  0  0  0  0
 13 12  2  0  0  0  0
 14 16  1  0  0  0  0
 15 18  1  0  0  0  0
 18 16  2  0  0  0  0
 18 17  1  0  0  0  0
 19 14  2  0  0  0  0
 20 15  1  0  0  0  0
 20 14  1  0  0  0  0
 21 15  1  0  0  0  0
 22 23  1  0  0  0  0
 24 25  2  0  0  0  0
 26 25  1  6  0  0  0
 26 28  1  0  0  0  0
 27 30  1  1  0  0  0
 27 26  1  0  0  0  0
 27 28  1  0  0  0  0
 29 30  1  0  0  0  0
 31 34  1  0  0  0  0
 32 34  1  0  0  0  0
 34 33  1  0  0  0  0
M  END
>  <MODEL>
8

>  <REMARK>
 VINA RESULT:      -5.3      4.450      7.046
  Name = 
  8 active torsions:
  status: ('A' for Active; 'I' for Inactive)
    1  A    between atoms: C_1  and  C_18
    2  A    between atoms: C_2  and  N_3
    3  A    between atoms: C_2  and  C_28
    4  A    between atoms: C_8  and  C_13
    5  A    between atoms: N_10  and  C_20
    6  A    between atoms: C_14  and  C_18
    7  A    between atoms: C_19  and  C_31
    8  A    between atoms: C_27  and  C_34
                            x       y       z     vdW  Elec       q    Type
                         _______ _______ _______ _____ _____    ______ ____

>  <TORSDO>
F 8

$$$$
=
 OpenBabel11032421253D

 34 37  0  0  1  0  0  0  0  0999 V2000
  182.9820  178.7240  142.0020 N   0  0  0  0  0  0  0  0  0  0  0  0
  181.1220  178.7480  140.2740 C   0  0  1  0  0  3  0  0  0  0  0  0
  182.1160  178.0920  139.2850 C   0  0  1  0  0  3  0  0  0  0  0  0
  180.7320  178.6560  142.6300 O   0  0  0  0  0  0  0  0  0  0  0  0
  183.5230  177.7850  139.8260 C   0  0  2  0  0  3  0  0  0  0  0  0
  181.5820  178.7080  141.7030 C   0  0  0  0  0  0  0  0  0  0  0  0
  183.9310  178.7860  140.9000 C   0  0  0  0  0  2  0  0  0  0  0  0
  180.9800  175.8640  139.4340 N   0  0  0  0  0  0  0  0  0  0  0  0
  181.5270  176.9080  138.6760 N   0  0  0  0  0  0  0  0  0  0  0  0
  180.9720  175.2460  137.1580 C   0  0  1  0  0  3  0  0  0  0  0  0
  180.5230  174.8810  138.5090 N   0  0  0  0  0  0  0  0  0  0  0  0
  181.9290  177.3400  136.3890 O   0  0  0  0  0  0  0  0  0  0  0  0
  181.5360  176.5780  137.3180 C   0  0  0  0  0  0  0  0  0  0  0  0
  183.2890  174.0550  137.1730 C   0  0  0  0  0  0  0  0  0  0  0  0
  183.0480  172.6610  135.5620 N   0  0  0  0  0  0  0  0  0  0  0  0
  182.0140  174.2760  136.6820 C   0  0  0  0  0  0  0  0  0  0  0  0
  180.7090  173.1760  134.7720 C   0  0  0  0  0  1  0  0  0  0  0  0
  181.8980  173.3620  135.6540 C   0  0  0  0  0  0  0  0  0  0  0  0
  183.8220  174.6620  138.1360 O   0  0  0  0  0  0  0  0  0  0  0  0
  183.9060  173.0750  136.4810 N   0  0  0  0  0  2  0  0  0  0  0  0
  183.3390  171.6020  134.6070 C   0  0  0  0  0  1  0  0  0  0  0  0
  185.4910  178.7980  138.9260 O   0  0  0  0  0  1  0  0  0  0  0  0
  184.5190  177.8280  138.6800 C   0  0  0  0  0  2  0  0  0  0  0  0
  180.0790  180.8610  140.5780 O   0  0  0  0  0  0  0  0  0  0  0  0
  180.7830  180.1600  139.8610 C   0  0  0  0  0  0  0  0  0  0  0  0
  181.1810  180.6610  138.5040 C   0  0  1  0  0  3  0  0  0  0  0  0
  180.9520  182.1050  138.3990 C   0  0  1  0  0  3  0  0  0  0  0  0
  182.3130  181.5980  138.6200 N   0  0  0  0  0  2  0  0  0  0  0  0
  180.7400  184.0040  136.8110 C   0  0  0  0  0  1  0  0  0  0  0  0
  180.8120  182.4960  136.9370 C   0  0  0  0  0  2  0  0  0  0  0  0
  183.4640  178.5540  143.3700 C   0  0  0  0  0  2  0  0  0  0  0  0
  185.0710  179.7580  144.8250 C   0  0  0  0  0  1  0  0  0  0  0  0
  185.8690  177.8770  143.4400 C   0  0  0  0  0  1  0  0  0  0  0  0
  184.9000  179.0380  143.5030 C   0  0  0  0  0  3  0  0  0  0  0  0
  1 31  1  0  0  0  0
  2 25  1  6  0  0  0
  2  6  1  0  0  0  0
  3  9  1  1  0  0  0
  3  5  1  0  0  0  0
  3  2  1  0  0  0  0
  5 23  1  6  0  0  0
  5  7  1  0  0  0  0
  6  1  1  0  0  0  0
  6  4  2  0  0  0  0
  7  1  1  0  0  0  0
  9  8  1  0  0  0  0
 10 16  1  1  0  0  0
 10 13  1  0  0  0  0
 10 11  1  0  0  0  0
 11  8  2  0  0  0  0
 12 13  2  0  0  0  0
 13  9  1  0  0  0  0
 14 19  2  0  0  0  0
 15 18  1  0  0  0  0
 15 20  1  0  0  0  0
 16 14  1  0  0  0  0
 17 18  1  0  0  0  0
 18 16  2  0  0  0  0
 20 14  1  0  0  0  0
 21 15  1  0  0  0  0
 23 22  1  0  0  0  0
 25 24  2  0  0  0  0
 26 28  1  0  0  0  0
 26 25  1  1  0  0  0
 27 30  1  6  0  0  0
 27 26  1  0  0  0  0
 27 28  1  0  0  0  0
 29 30  1  0  0  0  0
 31 34  1  0  0  0  0
 33 34  1  0  0  0  0
 34 32  1  0  0  0  0
M  END
>  <MODEL>
9

>  <REMARK>
 VINA RESULT:      -5.2      4.271      7.319
  Name = 
  8 active torsions:
  status: ('A' for Active; 'I' for Inactive)
    1  A    between atoms: C_1  and  C_18
    2  A    between atoms: C_2  and  N_3
    3  A    between atoms: C_2  and  C_28
    4  A    between atoms: C_8  and  C_13
    5  A    between atoms: N_10  and  C_20
    6  A    between atoms: C_14  and  C_18
    7  A    between atoms: C_19  and  C_31
    8  A    between atoms: C_27  and  C_34
                            x       y       z     vdW  Elec       q    Type
                         _______ _______ _______ _____ _____    ______ ____

>  <TORSDO>
F 8

$$$$
