=
 OpenBabel11032420083D

 28 30  0  0  1  0  0  0  0  0999 V2000
  188.8700  176.6560  143.8740 C   0  0  0  0  0  0  0  0  0  0  0  0
  189.4840  177.0040  145.0120 C   0  0  0  0  0  3  0  0  0  0  0  0
  190.9440  177.1210  145.0820 C   0  0  0  0  0  0  0  0  0  0  0  0
  191.7490  176.7910  143.9060 C   0  0  0  0  0  3  0  0  0  0  0  0
  191.4990  177.4840  146.1510 O   0  0  0  0  0  0  0  0  0  0  0  0
  189.6520  176.4380  142.5950 C   0  0  2  0  0  3  0  0  0  0  0  0
  191.1550  176.4580  142.7600 C   0  0  0  0  0  3  0  0  0  0  0  0
  190.6120  176.1130  138.4420 C   0  0  0  0  0  0  0  0  0  0  0  0
  189.5790  177.3170  140.2190 C   0  0  0  0  0  0  0  0  0  0  0  0
  189.4830  178.2000  137.9790 C   0  0  0  0  0  0  0  0  0  0  0  0
  190.2120  177.1000  137.5270 C   0  0  0  0  0  2  0  0  0  0  0  0
  189.0880  179.1570  137.1070 F   0  0  0  0  0  0  0  0  0  0  0  0
  190.2840  176.2470  139.7560 N   0  0  0  0  0  0  0  0  0  0  0  0
  189.1620  178.3120  139.3320 C   0  0  0  0  0  3  0  0  0  0  0  0
  189.2500  177.4280  141.6050 N   0  0  0  0  0  0  0  0  0  0  0  0
  191.3480  174.9950  138.0370 O   0  0  0  0  0  0  0  0  0  0  0  0
  189.7920  173.4430  137.3700 O   0  0  0  0  0  0  0  0  0  0  0  0
  190.8610  174.0600  137.1260 C   0  0  0  0  0  3  0  0  0  0  0  0
  187.4410  176.5420  143.8080 N   0  0  0  0  0  2  0  0  0  0  0  0
  185.9170  178.0920  145.0340 C   0  0  0  0  0  0  0  0  0  0  0  0
  186.4660  177.5940  143.8640 C   0  0  0  0  0  0  0  0  0  0  0  0
  185.8670  178.4970  142.5800 S   0  0  0  0  0  0  0  0  0  0  0  0
  184.8910  179.5250  143.4930 C   0  0  0  0  0  3  0  0  0  0  0  0
  185.0410  179.1660  144.8320 C   0  0  0  0  0  3  0  0  0  0  0  0
  186.2500  177.5690  146.3900 C   0  0  0  0  0  2  0  0  0  0  0  0
  187.0180  178.5080  147.0800 O   0  0  0  0  0  0  0  0  0  0  0  0
  187.5650  177.7930  148.1440 C   0  0  0  0  0  2  0  0  0  0  0  0
  188.9540  178.3140  148.4440 C   0  0  0  0  0  1  0  0  0  0  0  0
  1  2  2  0  0  0  0
  2  3  1  0  0  0  0
  3  5  2  0  0  0  0
  4  3  1  0  0  0  0
  6 15  1  6  0  0  0
  6  7  1  0  0  0  0
  6  1  1  0  0  0  0
  7  4  2  0  0  0  0
  8 13  2  0  0  0  0
  9 15  2  0  0  0  0
 10 14  2  0  0  0  0
 11 10  1  0  0  0  0
 11  8  1  0  0  0  0
 12 10  1  0  0  0  0
 13  9  1  0  0  0  0
 14  9  1  0  0  0  0
 16  8  1  0  0  0  0
 18 17  2  0  0  0  0
 18 16  1  0  0  0  0
 19 21  1  0  0  0  0
 19  1  1  0  0  0  0
 20 25  1  0  0  0  0
 21 20  2  0  0  0  0
 22 23  1  0  0  0  0
 22 21  1  0  0  0  0
 23 24  2  0  0  0  0
 24 20  1  0  0  0  0
 25 26  1  0  0  0  0
 26 27  1  0  0  0  0
 27 28  1  0  0  0  0
M  END
>  <MODEL>
1

>  <REMARK>
 VINA RESULT:      -8.1      0.000      0.000
  Name = 
  8 active torsions:
  status: ('A' for Active; 'I' for Inactive)
    1  A    between atoms: C_1  and  C_13
    2  A    between atoms: C_2  and  O_26
    3  A    between atoms: C_3  and  N_16
    4  A    between atoms: C_5  and  N_16
    5  A    between atoms: C_12  and  O_25
    6  A    between atoms: C_13  and  O_25
    7  A    between atoms: N_22  and  C_27
    8  A    between atoms: C_23  and  O_26
                            x       y       z     vdW  Elec       q    Type
                         _______ _______ _______ _____ _____    ______ ____

>  <TORSDO>
F 8

$$$$
=
 OpenBabel11032420083D

 28 30  0  0  1  0  0  0  0  0999 V2000
  188.8220  176.7580  144.1110 C   0  0  0  0  0  0  0  0  0  0  0  0
  189.5640  177.0370  145.1900 C   0  0  0  0  0  3  0  0  0  0  0  0
  191.0280  176.9760  145.1420 C   0  0  0  0  0  0  0  0  0  0  0  0
  191.6900  176.5400  143.9110 C   0  0  0  0  0  3  0  0  0  0  0  0
  191.7080  177.2750  146.1570 O   0  0  0  0  0  0  0  0  0  0  0  0
  189.4660  176.4360  142.7770 C   0  0  2  0  0  3  0  0  0  0  0  0
  190.9690  176.2740  142.8220 C   0  0  0  0  0  3  0  0  0  0  0  0
  190.4800  176.1790  138.6330 C   0  0  0  0  0  0  0  0  0  0  0  0
  189.4550  177.3720  140.4220 C   0  0  0  0  0  0  0  0  0  0  0  0
  189.4200  178.3090  138.2030 C   0  0  0  0  0  0  0  0  0  0  0  0
  190.1230  177.1980  137.7350 C   0  0  0  0  0  2  0  0  0  0  0  0
  189.0660  179.2970  137.3470 F   0  0  0  0  0  0  0  0  0  0  0  0
  190.1350  176.2920  139.9440 N   0  0  0  0  0  0  0  0  0  0  0  0
  189.0820  178.3990  139.5530 C   0  0  0  0  0  3  0  0  0  0  0  0
  189.1080  177.4610  141.8050 N   0  0  0  0  0  0  0  0  0  0  0  0
  191.1890  175.0500  138.2120 O   0  0  0  0  0  0  0  0  0  0  0  0
  189.8490  173.4060  137.3290 O   0  0  0  0  0  0  0  0  0  0  0  0
  190.7700  174.2460  137.1540 C   0  0  0  0  0  3  0  0  0  0  0  0
  187.3900  176.8190  144.1600 N   0  0  0  0  0  2  0  0  0  0  0  0
  185.4210  178.2900  144.5950 C   0  0  0  0  0  0  0  0  0  0  0  0
  186.5670  177.6340  145.0090 C   0  0  0  0  0  0  0  0  0  0  0  0
  186.7450  177.8840  146.6620 S   0  0  0  0  0  0  0  0  0  0  0  0
  185.3730  178.8420  146.8700 C   0  0  0  0  0  3  0  0  0  0  0  0
  184.7530  178.9620  145.6270 C   0  0  0  0  0  3  0  0  0  0  0  0
  184.9110  178.2570  143.1940 C   0  0  0  0  0  2  0  0  0  0  0  0
  185.2360  179.4500  142.5470 O   0  0  0  0  0  0  0  0  0  0  0  0
  185.8320  179.0450  141.3530 C   0  0  0  0  0  2  0  0  0  0  0  0
  184.7970  179.0360  140.2480 C   0  0  0  0  0  1  0  0  0  0  0  0
  1 19  1  0  0  0  0
  1  2  2  0  0  0  0
  3  2  1  0  0  0  0
  3  5  2  0  0  0  0
  4  3  1  0  0  0  0
  6 15  1  6  0  0  0
  6  7  1  0  0  0  0
  6  1  1  0  0  0  0
  7  4  2  0  0  0  0
  8 13  2  0  0  0  0
  9 15  2  0  0  0  0
 10 14  2  0  0  0  0
 11 10  1  0  0  0  0
 11  8  1  0  0  0  0
 12 10  1  0  0  0  0
 13  9  1  0  0  0  0
 14  9  1  0  0  0  0
 16  8  1  0  0  0  0
 18 17  2  0  0  0  0
 18 16  1  0  0  0  0
 19 21  1  0  0  0  0
 20 21  2  0  0  0  0
 20 24  1  0  0  0  0
 21 22  1  0  0  0  0
 22 23  1  0  0  0  0
 24 23  2  0  0  0  0
 25 20  1  0  0  0  0
 26 25  1  0  0  0  0
 27 26  1  0  0  0  0
 28 27  1  0  0  0  0
M  END
>  <MODEL>
2

>  <REMARK>
 VINA RESULT:      -8.0      1.579      2.716
  Name = 
  8 active torsions:
  status: ('A' for Active; 'I' for Inactive)
    1  A    between atoms: C_1  and  C_13
    2  A    between atoms: C_2  and  O_26
    3  A    between atoms: C_3  and  N_16
    4  A    between atoms: C_5  and  N_16
    5  A    between atoms: C_12  and  O_25
    6  A    between atoms: C_13  and  O_25
    7  A    between atoms: N_22  and  C_27
    8  A    between atoms: C_23  and  O_26
                            x       y       z     vdW  Elec       q    Type
                         _______ _______ _______ _____ _____    ______ ____

>  <TORSDO>
F 8

$$$$
=
 OpenBabel11032420083D

 28 30  0  0  1  0  0  0  0  0999 V2000
  188.8810  176.7140  143.7910 C   0  0  0  0  0  0  0  0  0  0  0  0
  189.5800  177.0780  144.8730 C   0  0  0  0  0  3  0  0  0  0  0  0
  191.0360  177.2420  144.8150 C   0  0  0  0  0  0  0  0  0  0  0  0
  191.7460  176.9420  143.5710 C   0  0  0  0  0  3  0  0  0  0  0  0
  191.6720  177.6190  145.8330 O   0  0  0  0  0  0  0  0  0  0  0  0
  189.5530  176.5250  142.4460 C   0  0  2  0  0  3  0  0  0  0  0  0
  191.0640  176.5940  142.4790 C   0  0  0  0  0  3  0  0  0  0  0  0
  190.5760  176.5380  138.2960 C   0  0  0  0  0  0  0  0  0  0  0  0
  189.3840  177.5080  140.1160 C   0  0  0  0  0  0  0  0  0  0  0  0
  189.1920  178.4840  137.9220 C   0  0  0  0  0  0  0  0  0  0  0  0
  190.0590  177.5110  137.4260 C   0  0  0  0  0  2  0  0  0  0  0  0
  188.6830  179.4260  137.0930 F   0  0  0  0  0  0  0  0  0  0  0  0
  190.2240  176.5620  139.6100 N   0  0  0  0  0  0  0  0  0  0  0  0
  188.8500  178.4860  139.2750 C   0  0  0  0  0  3  0  0  0  0  0  0
  189.0350  177.5050  141.5020 N   0  0  0  0  0  0  0  0  0  0  0  0
  191.4520  175.5450  137.8460 O   0  0  0  0  0  0  0  0  0  0  0  0
  193.5010  176.5840  137.8880 O   0  0  0  0  0  0  0  0  0  0  0  0
  192.6930  175.8330  137.2820 C   0  0  0  0  0  3  0  0  0  0  0  0
  187.4560  176.5540  143.8490 N   0  0  0  0  0  2  0  0  0  0  0  0
  186.0450  178.0300  145.2830 C   0  0  0  0  0  0  0  0  0  0  0  0
  186.4590  177.5680  144.0460 C   0  0  0  0  0  0  0  0  0  0  0  0
  185.6710  178.4640  142.8620 S   0  0  0  0  0  0  0  0  0  0  0  0
  184.7820  179.4430  143.9080 C   0  0  0  0  0  3  0  0  0  0  0  0
  185.1120  179.0740  145.2110 C   0  0  0  0  0  3  0  0  0  0  0  0
  186.5650  177.5040  146.5780 C   0  0  0  0  0  2  0  0  0  0  0  0
  186.9770  178.5650  147.3850 O   0  0  0  0  0  0  0  0  0  0  0  0
  187.6560  177.9550  148.4390 C   0  0  0  0  0  2  0  0  0  0  0  0
  189.1390  178.2260  148.3110 C   0  0  0  0  0  1  0  0  0  0  0  0
  1 19  1  0  0  0  0
  1  2  2  0  0  0  0
  3  2  1  0  0  0  0
  3  5  2  0  0  0  0
  4  3  1  0  0  0  0
  6 15  1  6  0  0  0
  6  7  1  0  0  0  0
  6  1  1  0  0  0  0
  7  4  2  0  0  0  0
  8 13  2  0  0  0  0
  9 15  2  0  0  0  0
 10 14  2  0  0  0  0
 11 10  1  0  0  0  0
 11  8  1  0  0  0  0
 12 10  1  0  0  0  0
 13  9  1  0  0  0  0
 14  9  1  0  0  0  0
 16  8  1  0  0  0  0
 18 16  1  0  0  0  0
 18 17  2  0  0  0  0
 19 21  1  0  0  0  0
 20 25  1  0  0  0  0
 21 20  2  0  0  0  0
 22 23  1  0  0  0  0
 22 21  1  0  0  0  0
 23 24  2  0  0  0  0
 24 20  1  0  0  0  0
 25 26  1  0  0  0  0
 26 27  1  0  0  0  0
 28 27  1  0  0  0  0
M  END
>  <MODEL>
3

>  <REMARK>
 VINA RESULT:      -7.8      0.781      1.095
  Name = 
  8 active torsions:
  status: ('A' for Active; 'I' for Inactive)
    1  A    between atoms: C_1  and  C_13
    2  A    between atoms: C_2  and  O_26
    3  A    between atoms: C_3  and  N_16
    4  A    between atoms: C_5  and  N_16
    5  A    between atoms: C_12  and  O_25
    6  A    between atoms: C_13  and  O_25
    7  A    between atoms: N_22  and  C_27
    8  A    between atoms: C_23  and  O_26
                            x       y       z     vdW  Elec       q    Type
                         _______ _______ _______ _____ _____    ______ ____

>  <TORSDO>
F 8

$$$$
=
 OpenBabel11032420083D

 28 30  0  0  1  0  0  0  0  0999 V2000
  188.3960  177.9180  139.0820 C   0  0  0  0  0  0  0  0  0  0  0  0
  188.9600  176.9540  138.3450 C   0  0  0  0  0  3  0  0  0  0  0  0
  190.1140  176.1970  138.8410 C   0  0  0  0  0  0  0  0  0  0  0  0
  190.6990  176.5440  140.1370 C   0  0  0  0  0  3  0  0  0  0  0  0
  190.6090  175.2710  138.1480 O   0  0  0  0  0  0  0  0  0  0  0  0
  188.8790  178.2200  140.4860 C   0  0  2  0  0  3  0  0  0  0  0  0
  190.1400  177.4900  140.8910 C   0  0  0  0  0  3  0  0  0  0  0  0
  189.5610  177.7530  144.6800 C   0  0  0  0  0  0  0  0  0  0  0  0
  188.0500  177.7740  142.8390 C   0  0  0  0  0  0  0  0  0  0  0  0
  187.2090  177.3410  145.0550 C   0  0  0  0  0  0  0  0  0  0  0  0
  188.5040  177.4670  145.5580 C   0  0  0  0  0  3  0  0  0  0  0  0
  186.1800  177.0690  145.8910 F   0  0  0  0  0  0  0  0  0  0  0  0
  189.3060  177.9000  143.3520 N   0  0  0  0  0  0  0  0  0  0  0  0
  186.9770  177.4950  143.6880 C   0  0  0  0  0  2  0  0  0  0  0  0
  187.8150  177.9350  141.4390 N   0  0  0  0  0  0  0  0  0  0  0  0
  190.8760  177.8840  145.1370 O   0  0  0  0  0  0  0  0  0  0  0  0
  191.9150  176.9170  146.9430 O   0  0  0  0  0  0  0  0  0  0  0  0
  191.5760  176.8370  145.7340 C   0  0  0  0  0  3  0  0  0  0  0  0
  187.2660  178.6580  138.5950 N   0  0  0  0  0  2  0  0  0  0  0  0
  184.7990  178.3520  138.8170 C   0  0  0  0  0  0  0  0  0  0  0  0
  185.9980  178.1480  138.1550 C   0  0  0  0  0  0  0  0  0  0  0  0
  185.6750  177.3070  136.7370 S   0  0  0  0  0  0  0  0  0  0  0  0
  184.0080  177.1790  136.9520 C   0  0  0  0  0  3  0  0  0  0  0  0
  183.6900  177.8150  138.1510 C   0  0  0  0  0  3  0  0  0  0  0  0
  184.6810  179.1060  140.0980 C   0  0  0  0  0  2  0  0  0  0  0  0
  184.5180  178.2130  141.1570 O   0  0  0  0  0  0  0  0  0  0  0  0
  183.3440  178.6280  141.7840 C   0  0  0  0  0  2  0  0  0  0  0  0
  183.5970  178.8100  143.2650 C   0  0  0  0  0  1  0  0  0  0  0  0
  1  6  1  0  0  0  0
  2  3  1  0  0  0  0
  2  1  2  0  0  0  0
  3  4  1  0  0  0  0
  4  7  2  0  0  0  0
  5  3  2  0  0  0  0
  6  7  1  0  0  0  0
  6 15  1  1  0  0  0
  8 16  1  0  0  0  0
  8 11  1  0  0  0  0
  9 13  1  0  0  0  0
  9 14  1  0  0  0  0
 10 11  2  0  0  0  0
 10 12  1  0  0  0  0
 13  8  2  0  0  0  0
 14 10  1  0  0  0  0
 15  9  2  0  0  0  0
 16 18  1  0  0  0  0
 18 17  2  0  0  0  0
 19  1  1  0  0  0  0
 20 25  1  0  0  0  0
 21 19  1  0  0  0  0
 21 20  2  0  0  0  0
 22 23  1  0  0  0  0
 22 21  1  0  0  0  0
 23 24  2  0  0  0  0
 24 20  1  0  0  0  0
 25 26  1  0  0  0  0
 26 27  1  0  0  0  0
 27 28  1  0  0  0  0
M  END
>  <MODEL>
4

>  <REMARK>
 VINA RESULT:      -7.1      3.383      6.562
  Name = 
  8 active torsions:
  status: ('A' for Active; 'I' for Inactive)
    1  A    between atoms: C_1  and  C_13
    2  A    between atoms: C_2  and  O_26
    3  A    between atoms: C_3  and  N_16
    4  A    between atoms: C_5  and  N_16
    5  A    between atoms: C_12  and  O_25
    6  A    between atoms: C_13  and  O_25
    7  A    between atoms: N_22  and  C_27
    8  A    between atoms: C_23  and  O_26
                            x       y       z     vdW  Elec       q    Type
                         _______ _______ _______ _____ _____    ______ ____

>  <TORSDO>
F 8

$$$$
=
 OpenBabel11032420083D

 28 30  0  0  1  0  0  0  0  0999 V2000
  187.5540  177.4790  143.4970 C   0  0  0  0  0  0  0  0  0  0  0  0
  186.2190  177.4200  143.4060 C   0  0  0  0  0  3  0  0  0  0  0  0
  185.5040  178.0730  142.3050 C   0  0  0  0  0  0  0  0  0  0  0  0
  186.2550  178.8550  141.3220 C   0  0  0  0  0  3  0  0  0  0  0  0
  184.2530  177.9770  142.2180 O   0  0  0  0  0  0  0  0  0  0  0  0
  188.3850  178.1600  142.4290 C   0  0  2  0  0  3  0  0  0  0  0  0
  187.5850  178.9110  141.3870 C   0  0  0  0  0  3  0  0  0  0  0  0
  189.3730  178.3040  138.2720 C   0  0  0  0  0  0  0  0  0  0  0  0
  189.5650  177.2280  140.3890 C   0  0  0  0  0  0  0  0  0  0  0  0
  190.7040  176.2970  138.4810 C   0  0  0  0  0  0  0  0  0  0  0  0
  190.1960  177.3270  137.6900 C   0  0  0  0  0  2  0  0  0  0  0  0
  191.5010  175.3500  137.9320 F   0  0  0  0  0  0  0  0  0  0  0  0
  189.0850  178.2290  139.6000 N   0  0  0  0  0  0  0  0  0  0  0  0
  190.3890  176.2440  139.8390 C   0  0  0  0  0  3  0  0  0  0  0  0
  189.2430  177.1770  141.7800 N   0  0  0  0  0  0  0  0  0  0  0  0
  188.8370  179.3530  137.5190 O   0  0  0  0  0  0  0  0  0  0  0  0
  186.5960  178.8890  137.3160 O   0  0  0  0  0  0  0  0  0  0  0  0
  187.6750  179.2200  136.7610 C   0  0  0  0  0  3  0  0  0  0  0  0
  188.2520  176.8400  144.5750 N   0  0  0  0  0  2  0  0  0  0  0  0
  189.5170  177.2190  146.6930 C   0  0  0  0  0  0  0  0  0  0  0  0
  188.3560  177.2700  145.9410 C   0  0  0  0  0  0  0  0  0  0  0  0
  187.1620  178.0010  146.8710 S   0  0  0  0  0  0  0  0  0  0  0  0
  188.1030  178.2510  148.2480 C   0  0  0  0  0  3  0  0  0  0  0  0
  189.3810  177.7640  147.9760 C   0  0  0  0  0  3  0  0  0  0  0  0
  190.8080  176.6750  146.1820 C   0  0  0  0  0  2  0  0  0  0  0  0
  191.6670  177.7270  145.8590 O   0  0  0  0  0  0  0  0  0  0  0  0
  191.6620  177.7630  144.4660 C   0  0  0  0  0  2  0  0  0  0  0  0
  191.3930  179.1770  143.9970 C   0  0  0  0  0  1  0  0  0  0  0  0
  1 19  1  0  0  0  0
  2  1  2  0  0  0  0
  3  2  1  0  0  0  0
  4  7  2  0  0  0  0
  4  3  1  0  0  0  0
  5  3  2  0  0  0  0
  6 15  1  6  0  0  0
  6  1  1  0  0  0  0
  7  6  1  0  0  0  0
  8 13  2  0  0  0  0
  9 15  2  0  0  0  0
 10 14  2  0  0  0  0
 11  8  1  0  0  0  0
 11 10  1  0  0  0  0
 12 10  1  0  0  0  0
 13  9  1  0  0  0  0
 14  9  1  0  0  0  0
 16  8  1  0  0  0  0
 18 17  2  0  0  0  0
 18 16  1  0  0  0  0
 19 21  1  0  0  0  0
 20 24  1  0  0  0  0
 21 20  2  0  0  0  0
 21 22  1  0  0  0  0
 22 23  1  0  0  0  0
 24 23  2  0  0  0  0
 25 20  1  0  0  0  0
 26 25  1  0  0  0  0
 27 26  1  0  0  0  0
 28 27  1  0  0  0  0
M  END
>  <MODEL>
5

>  <REMARK>
 VINA RESULT:      -6.8      2.602      4.428
  Name = 
  8 active torsions:
  status: ('A' for Active; 'I' for Inactive)
    1  A    between atoms: C_1  and  C_13
    2  A    between atoms: C_2  and  O_26
    3  A    between atoms: C_3  and  N_16
    4  A    between atoms: C_5  and  N_16
    5  A    between atoms: C_12  and  O_25
    6  A    between atoms: C_13  and  O_25
    7  A    between atoms: N_22  and  C_27
    8  A    between atoms: C_23  and  O_26
                            x       y       z     vdW  Elec       q    Type
                         _______ _______ _______ _____ _____    ______ ____

>  <TORSDO>
F 8

$$$$
=
 OpenBabel11032420083D

 28 30  0  0  1  0  0  0  0  0999 V2000
  189.6720  176.9730  139.9740 C   0  0  0  0  0  0  0  0  0  0  0  0
  188.4300  177.4720  139.9430 C   0  0  0  0  0  3  0  0  0  0  0  0
  187.8880  178.0830  138.7250 C   0  0  0  0  0  0  0  0  0  0  0  0
  188.7400  178.2060  137.5410 C   0  0  0  0  0  3  0  0  0  0  0  0
  186.7070  178.5150  138.7050 O   0  0  0  0  0  0  0  0  0  0  0  0
  190.5430  176.9530  138.7340 C   0  0  2  0  0  3  0  0  0  0  0  0
  189.9730  177.7000  137.5490 C   0  0  0  0  0  3  0  0  0  0  0  0
  193.9960  175.8010  136.4930 C   0  0  0  0  0  0  0  0  0  0  0  0
  191.9780  175.1950  137.6060 C   0  0  0  0  0  0  0  0  0  0  0  0
  193.3040  173.4860  136.5460 C   0  0  0  0  0  0  0  0  0  0  0  0
  194.2190  174.4590  136.1470 C   0  0  0  0  0  2  0  0  0  0  0  0
  193.5090  172.1870  136.2210 F   0  0  0  0  0  0  0  0  0  0  0  0
  192.8880  176.1300  137.2120 N   0  0  0  0  0  0  0  0  0  0  0  0
  192.1760  173.8520  137.2800 C   0  0  0  0  0  3  0  0  0  0  0  0
  190.8250  175.5740  138.3600 N   0  0  0  0  0  0  0  0  0  0  0  0
  194.8820  176.8130  136.1110 O   0  0  0  0  0  0  0  0  0  0  0  0
  197.1430  176.5650  135.7860 O   0  0  0  0  0  0  0  0  0  0  0  0
  195.9860  176.5800  135.2930 C   0  0  0  0  0  3  0  0  0  0  0  0
  190.2000  176.3750  141.1660 N   0  0  0  0  0  2  0  0  0  0  0  0
  189.4280  176.9140  143.4780 C   0  0  0  0  0  0  0  0  0  0  0  0
  190.3650  176.9770  142.4600 C   0  0  0  0  0  0  0  0  0  0  0  0
  191.7210  177.7760  143.0460 S   0  0  0  0  0  0  0  0  0  0  0  0
  191.1320  178.0660  144.5980 C   0  0  0  0  0  3  0  0  0  0  0  0
  189.8510  177.5180  144.6690 C   0  0  0  0  0  3  0  0  0  0  0  0
  188.1080  176.2350  143.3440 C   0  0  0  0  0  2  0  0  0  0  0  0
  187.1360  176.9530  144.0420 O   0  0  0  0  0  0  0  0  0  0  0  0
  186.5860  177.8080  143.0890 C   0  0  0  0  0  2  0  0  0  0  0  0
  185.2840  178.3770  143.6100 C   0  0  0  0  0  1  0  0  0  0  0  0
  1 19  1  0  0  0  0
  2  1  2  0  0  0  0
  3  2  1  0  0  0  0
  4  7  2  0  0  0  0
  4  3  1  0  0  0  0
  5  3  2  0  0  0  0
  6 15  1  6  0  0  0
  6  1  1  0  0  0  0
  7  6  1  0  0  0  0
  8 13  2  0  0  0  0
  9 15  2  0  0  0  0
 10 14  2  0  0  0  0
 11  8  1  0  0  0  0
 11 10  1  0  0  0  0
 12 10  1  0  0  0  0
 13  9  1  0  0  0  0
 14  9  1  0  0  0  0
 16  8  1  0  0  0  0
 18 17  2  0  0  0  0
 18 16  1  0  0  0  0
 19 21  1  0  0  0  0
 20 24  1  0  0  0  0
 21 22  1  0  0  0  0
 21 20  2  0  0  0  0
 22 23  1  0  0  0  0
 23 24  2  0  0  0  0
 25 20  1  0  0  0  0
 25 26  1  0  0  0  0
 27 28  1  0  0  0  0
 27 26  1  0  0  0  0
M  END
>  <MODEL>
6

>  <REMARK>
 VINA RESULT:      -6.7      3.344      5.547
  Name = 
  8 active torsions:
  status: ('A' for Active; 'I' for Inactive)
    1  A    between atoms: C_1  and  C_13
    2  A    between atoms: C_2  and  O_26
    3  A    between atoms: C_3  and  N_16
    4  A    between atoms: C_5  and  N_16
    5  A    between atoms: C_12  and  O_25
    6  A    between atoms: C_13  and  O_25
    7  A    between atoms: N_22  and  C_27
    8  A    between atoms: C_23  and  O_26
                            x       y       z     vdW  Elec       q    Type
                         _______ _______ _______ _____ _____    ______ ____

>  <TORSDO>
F 8

$$$$
=
 OpenBabel11032420083D

 28 30  0  0  1  0  0  0  0  0999 V2000
  185.7170  178.5500  143.2090 C   0  0  0  0  0  0  0  0  0  0  0  0
  185.9480  178.3450  144.5120 C   0  0  0  0  0  3  0  0  0  0  0  0
  184.8790  178.4890  145.5040 C   0  0  0  0  0  0  0  0  0  0  0  0
  183.5500  178.9250  145.0730 C   0  0  0  0  0  3  0  0  0  0  0  0
  185.1070  178.2580  146.7200 O   0  0  0  0  0  0  0  0  0  0  0  0
  184.3260  178.8690  142.6980 C   0  0  2  0  0  3  0  0  0  0  0  0
  183.2970  179.1180  143.7780 C   0  0  0  0  0  3  0  0  0  0  0  0
  182.5190  179.5760  138.8900 C   0  0  0  0  0  0  0  0  0  0  0  0
  183.2650  178.0400  140.5510 C   0  0  0  0  0  0  0  0  0  0  0  0
  182.2580  177.2000  138.5300 C   0  0  0  0  0  0  0  0  0  0  0  0
  182.0880  178.5100  138.0840 C   0  0  0  0  0  2  0  0  0  0  0  0
  181.8500  176.1630  137.7620 F   0  0  0  0  0  0  0  0  0  0  0  0
  183.0950  179.3130  140.0940 N   0  0  0  0  0  0  0  0  0  0  0  0
  182.8500  176.9600  139.7710 C   0  0  0  0  0  3  0  0  0  0  0  0
  183.8730  177.7980  141.8210 N   0  0  0  0  0  0  0  0  0  0  0  0
  182.3650  180.9060  138.4880 O   0  0  0  0  0  0  0  0  0  0  0  0
  180.3600  181.5830  139.3820 O   0  0  0  0  0  0  0  0  0  0  0  0
  181.1200  181.5230  138.3810 C   0  0  0  0  0  3  0  0  0  0  0  0
  186.7650  178.4090  142.2390 N   0  0  0  0  0  2  0  0  0  0  0  0
  188.9080  177.5050  141.3350 C   0  0  0  0  0  0  0  0  0  0  0  0
  187.9100  177.5440  142.2930 C   0  0  0  0  0  0  0  0  0  0  0  0
  188.3360  176.4950  143.5350 S   0  0  0  0  0  0  0  0  0  0  0  0
  189.7900  175.9680  142.8640 C   0  0  0  0  0  3  0  0  0  0  0  0
  189.9560  176.6300  141.6490 C   0  0  0  0  0  3  0  0  0  0  0  0
  188.9010  178.3420  140.1000 C   0  0  0  0  0  2  0  0  0  0  0  0
  188.0640  177.7630  139.1450 O   0  0  0  0  0  0  0  0  0  0  0  0
  188.8940  177.5420  138.0460 C   0  0  0  0  0  2  0  0  0  0  0  0
  189.0370  178.8240  137.2540 C   0  0  0  0  0  1  0  0  0  0  0  0
  1  2  2  0  0  0  0
  2  3  1  0  0  0  0
  3  5  2  0  0  0  0
  4  3  1  0  0  0  0
  6 15  1  1  0  0  0
  6  1  1  0  0  0  0
  6  7  1  0  0  0  0
  7  4  2  0  0  0  0
  8 13  2  0  0  0  0
  9 15  2  0  0  0  0
 10 14  2  0  0  0  0
 11 10  1  0  0  0  0
 11  8  1  0  0  0  0
 12 10  1  0  0  0  0
 13  9  1  0  0  0  0
 14  9  1  0  0  0  0
 16  8  1  0  0  0  0
 18 16  1  0  0  0  0
 18 17  2  0  0  0  0
 19 21  1  0  0  0  0
 19  1  1  0  0  0  0
 20 24  1  0  0  0  0
 20 21  2  0  0  0  0
 21 22  1  0  0  0  0
 23 22  1  0  0  0  0
 24 23  2  0  0  0  0
 25 20  1  0  0  0  0
 26 25  1  0  0  0  0
 27 26  1  0  0  0  0
 28 27  1  0  0  0  0
M  END
>  <MODEL>
7

>  <REMARK>
 VINA RESULT:      -6.5      4.549      7.586
  Name = 
  8 active torsions:
  status: ('A' for Active; 'I' for Inactive)
    1  A    between atoms: C_1  and  C_13
    2  A    between atoms: C_2  and  O_26
    3  A    between atoms: C_3  and  N_16
    4  A    between atoms: C_5  and  N_16
    5  A    between atoms: C_12  and  O_25
    6  A    between atoms: C_13  and  O_25
    7  A    between atoms: N_22  and  C_27
    8  A    between atoms: C_23  and  O_26
                            x       y       z     vdW  Elec       q    Type
                         _______ _______ _______ _____ _____    ______ ____

>  <TORSDO>
F 8

$$$$
=
 OpenBabel11032420083D

 28 30  0  0  1  0  0  0  0  0999 V2000
  186.3940  177.9080  143.5610 C   0  0  0  0  0  0  0  0  0  0  0  0
  186.3700  178.0070  144.8960 C   0  0  0  0  0  3  0  0  0  0  0  0
  185.4000  178.8720  145.5760 C   0  0  0  0  0  0  0  0  0  0  0  0
  184.4840  179.6900  144.7800 C   0  0  0  0  0  3  0  0  0  0  0  0
  185.3700  178.9250  146.8320 O   0  0  0  0  0  0  0  0  0  0  0  0
  185.3760  178.6290  142.7010 C   0  0  2  0  0  3  0  0  0  0  0  0
  184.4820  179.5920  143.4510 C   0  0  0  0  0  3  0  0  0  0  0  0
  183.0480  179.6010  139.2500 C   0  0  0  0  0  0  0  0  0  0  0  0
  183.7820  177.9850  140.8390 C   0  0  0  0  0  0  0  0  0  0  0  0
  182.2640  177.3200  139.0910 C   0  0  0  0  0  0  0  0  0  0  0  0
  182.2710  178.6270  138.6040 C   0  0  0  0  0  2  0  0  0  0  0  0
  181.5210  176.3700  138.4740 F   0  0  0  0  0  0  0  0  0  0  0  0
  183.7810  179.2540  140.3430 N   0  0  0  0  0  0  0  0  0  0  0  0
  183.0230  176.9940  140.2140 C   0  0  0  0  0  3  0  0  0  0  0  0
  184.5630  177.6530  141.9880 N   0  0  0  0  0  0  0  0  0  0  0  0
  183.0830  180.9250  138.8020 O   0  0  0  0  0  0  0  0  0  0  0  0
  180.9300  181.6770  139.0830 O   0  0  0  0  0  0  0  0  0  0  0  0
  181.9500  181.5990  138.3500 C   0  0  0  0  0  3  0  0  0  0  0  0
  187.3440  177.0610  142.8980 N   0  0  0  0  0  2  0  0  0  0  0  0
  189.5530  176.9620  141.7420 C   0  0  0  0  0  0  0  0  0  0  0  0
  188.2450  177.4060  141.8350 C   0  0  0  0  0  0  0  0  0  0  0  0
  187.9010  178.3090  140.4600 S   0  0  0  0  0  0  0  0  0  0  0  0
  189.4150  178.1590  139.7340 C   0  0  0  0  0  3  0  0  0  0  0  0
  190.2070  177.3780  140.5750 C   0  0  0  0  0  3  0  0  0  0  0  0
  190.2030  176.0890  142.7610 C   0  0  0  0  0  2  0  0  0  0  0  0
  191.2560  176.7760  143.3670 O   0  0  0  0  0  0  0  0  0  0  0  0
  190.9520  176.7460  144.7270 C   0  0  0  0  0  2  0  0  0  0  0  0
  190.1850  177.9950  145.1030 C   0  0  0  0  0  1  0  0  0  0  0  0
  1  2  2  0  0  0  0
  2  3  1  0  0  0  0
  3  5  2  0  0  0  0
  4  3  1  0  0  0  0
  6 15  1  1  0  0  0
  6  7  1  0  0  0  0
  6  1  1  0  0  0  0
  7  4  2  0  0  0  0
  8 13  2  0  0  0  0
  9 15  2  0  0  0  0
 10 14  2  0  0  0  0
 11 10  1  0  0  0  0
 11  8  1  0  0  0  0
 12 10  1  0  0  0  0
 13  9  1  0  0  0  0
 14  9  1  0  0  0  0
 16  8  1  0  0  0  0
 18 16  1  0  0  0  0
 18 17  2  0  0  0  0
 19  1  1  0  0  0  0
 20 21  2  0  0  0  0
 20 25  1  0  0  0  0
 21 19  1  0  0  0  0
 22 21  1  0  0  0  0
 23 22  1  0  0  0  0
 23 24  2  0  0  0  0
 24 20  1  0  0  0  0
 25 26  1  0  0  0  0
 26 27  1  0  0  0  0
 27 28  1  0  0  0  0
M  END
>  <MODEL>
8

>  <REMARK>
 VINA RESULT:      -6.5      4.226      6.706
  Name = 
  8 active torsions:
  status: ('A' for Active; 'I' for Inactive)
    1  A    between atoms: C_1  and  C_13
    2  A    between atoms: C_2  and  O_26
    3  A    between atoms: C_3  and  N_16
    4  A    between atoms: C_5  and  N_16
    5  A    between atoms: C_12  and  O_25
    6  A    between atoms: C_13  and  O_25
    7  A    between atoms: N_22  and  C_27
    8  A    between atoms: C_23  and  O_26
                            x       y       z     vdW  Elec       q    Type
                         _______ _______ _______ _____ _____    ______ ____

>  <TORSDO>
F 8

$$$$
=
 OpenBabel11032420083D

 28 30  0  0  1  0  0  0  0  0999 V2000
  185.0410  178.6030  138.9120 C   0  0  0  0  0  0  0  0  0  0  0  0
  186.0430  178.2860  138.0830 C   0  0  0  0  0  3  0  0  0  0  0  0
  185.8020  177.5020  136.8670 C   0  0  0  0  0  0  0  0  0  0  0  0
  184.4550  177.0020  136.5880 C   0  0  0  0  0  3  0  0  0  0  0  0
  186.7500  177.2430  136.0830 O   0  0  0  0  0  0  0  0  0  0  0  0
  183.6080  178.2270  138.5950 C   0  0  2  0  0  3  0  0  0  0  0  0
  183.4430  177.3220  137.3940 C   0  0  0  0  0  3  0  0  0  0  0  0
  180.2830  179.2330  141.0860 C   0  0  0  0  0  0  0  0  0  0  0  0
  181.7020  179.7640  139.2480 C   0  0  0  0  0  0  0  0  0  0  0  0
  179.9020  181.2590  139.8240 C   0  0  0  0  0  0  0  0  0  0  0  0
  179.5430  180.4050  140.8660 C   0  0  0  0  0  3  0  0  0  0  0  0
  179.1990  182.3950  139.6030 F   0  0  0  0  0  0  0  0  0  0  0  0
  181.3390  178.9470  140.2760 N   0  0  0  0  0  0  0  0  0  0  0  0
  180.9880  180.9400  139.0080 C   0  0  0  0  0  2  0  0  0  0  0  0
  182.8160  179.4360  138.4150 N   0  0  0  0  0  0  0  0  0  0  0  0
  179.9580  178.3440  142.1150 O   0  0  0  0  0  0  0  0  0  0  0  0
  179.6800  177.8630  144.3440 O   0  0  0  0  0  0  0  0  0  0  0  0
  180.0160  178.6950  143.4620 C   0  0  0  0  0  3  0  0  0  0  0  0
  185.2780  179.3710  140.1010 N   0  0  0  0  0  2  0  0  0  0  0  0
  186.5870  178.5230  142.0490 C   0  0  0  0  0  0  0  0  0  0  0  0
  185.3960  178.8970  141.4510 C   0  0  0  0  0  0  0  0  0  0  0  0
  184.1760  178.7890  142.6030 S   0  0  0  0  0  0  0  0  0  0  0  0
  185.1450  178.2530  143.8740 C   0  0  0  0  0  3  0  0  0  0  0  0
  186.4520  178.1640  143.3970 C   0  0  0  0  0  3  0  0  0  0  0  0
  187.9030  178.5350  141.3480 C   0  0  0  0  0  2  0  0  0  0  0  0
  188.9000  178.0770  142.2100 O   0  0  0  0  0  0  0  0  0  0  0  0
  189.8170  177.4440  141.3720 C   0  0  0  0  0  2  0  0  0  0  0  0
  189.3260  177.5080  139.9420 C   0  0  0  0  0  1  0  0  0  0  0  0
  1 19  1  0  0  0  0
  2  1  2  0  0  0  0
  3  2  1  0  0  0  0
  4  3  1  0  0  0  0
  4  7  2  0  0  0  0
  5  3  2  0  0  0  0
  6 15  1  6  0  0  0
  6  1  1  0  0  0  0
  7  6  1  0  0  0  0
  8 16  1  0  0  0  0
  9 13  1  0  0  0  0
 10 11  2  0  0  0  0
 11  8  1  0  0  0  0
 12 10  1  0  0  0  0
 13  8  2  0  0  0  0
 14  9  1  0  0  0  0
 14 10  1  0  0  0  0
 15  9  2  0  0  0  0
 16 18  1  0  0  0  0
 18 17  2  0  0  0  0
 19 21  1  0  0  0  0
 20 24  1  0  0  0  0
 21 20  2  0  0  0  0
 21 22  1  0  0  0  0
 22 23  1  0  0  0  0
 24 23  2  0  0  0  0
 25 20  1  0  0  0  0
 25 26  1  0  0  0  0
 27 26  1  0  0  0  0
 28 27  1  0  0  0  0
M  END
>  <MODEL>
9

>  <REMARK>
 VINA RESULT:      -6.3      5.295      8.621
  Name = 
  8 active torsions:
  status: ('A' for Active; 'I' for Inactive)
    1  A    between atoms: C_1  and  C_13
    2  A    between atoms: C_2  and  O_26
    3  A    between atoms: C_3  and  N_16
    4  A    between atoms: C_5  and  N_16
    5  A    between atoms: C_12  and  O_25
    6  A    between atoms: C_13  and  O_25
    7  A    between atoms: N_22  and  C_27
    8  A    between atoms: C_23  and  O_26
                            x       y       z     vdW  Elec       q    Type
                         _______ _______ _______ _____ _____    ______ ____

>  <TORSDO>
F 8

$$$$
