=
 OpenBabel11042410363D

 44 48  0  0  1  0  0  0  0  0999 V2000
  186.1330  177.4170  137.2580 C   0  0  2  0  0  3  0  0  0  0  0  0
  184.7870  176.8900  137.3020 N   0  0  0  0  0  2  0  0  0  0  0  0
  186.3360  178.5420  139.2190 N   0  0  0  0  0  2  0  0  0  0  0  0
  183.7470  177.8380  139.2230 C   0  0  0  0  0  0  0  0  0  0  0  0
  185.6250  178.7070  140.4380 C   0  0  0  0  0  3  0  0  0  0  0  0
  184.3360  178.4310  140.4850 C   0  0  0  0  0  0  0  0  0  0  0  0
  182.2470  178.0030  139.0840 C   0  0  0  0  0  2  0  0  0  0  0  0
  182.8410  176.6210  139.3110 C   0  0  0  0  0  2  0  0  0  0  0  0
  184.4030  178.0990  137.9190 N   0  0  1  0  0  0  0  0  0  0  0  0
  185.7320  178.6220  137.9470 N   0  0  2  0  0  0  0  0  0  0  0  0
  182.2100  178.7870  141.8120 C   0  0  0  0  0  3  0  0  0  0  0  0
  180.1600  179.1130  143.0400 O   0  0  0  0  0  1  0  0  0  0  0  0
  182.2520  178.9440  144.2240 C   0  0  0  0  0  3  0  0  0  0  0  0
  183.6040  178.6190  141.7740 C   0  0  0  0  0  0  0  0  0  0  0  0
  181.5380  178.9500  143.0260 C   0  0  0  0  0  0  0  0  0  0  0  0
  183.6390  178.7780  144.2100 C   0  0  0  0  0  0  0  0  0  0  0  0
  184.3080  178.6070  142.9930 C   0  0  0  0  0  3  0  0  0  0  0  0
  184.3990  178.7310  145.4890 C   0  0  0  0  0  2  0  0  0  0  0  0
  185.7270  178.0260  145.2740 C   0  0  0  0  0  2  0  0  0  0  0  0
  186.1180  179.0450  147.3100 C   0  0  0  0  0  1  0  0  0  0  0  0
  186.4030  177.8360  146.5500 N   0  0  0  0  0  0  0  0  0  0  0  0
  187.8570  177.7720  146.3260 C   0  0  1  0  0  3  0  0  0  0  0  0
  188.5670  177.2990  147.5700 C   0  0  0  0  0  3  0  0  0  0  0  0
  189.2100  178.1470  148.3720 C   0  0  0  0  0  2  0  0  0  0  0  0
  188.1610  176.8950  145.2600 O   0  0  0  0  0  0  0  0  0  0  0  0
  189.0570  177.5220  144.3580 C   0  0  2  0  0  3  0  0  0  0  0  0
  188.4640  177.7410  142.9660 C   0  0  0  0  0  2  0  0  0  0  0  0
  189.5580  177.6760  141.9170 C   0  0  0  0  0  1  0  0  0  0  0  0
  190.4290  176.8510  144.3100 C   0  0  0  0  0  2  0  0  0  0  0  0
  191.4340  177.6410  145.1280 C   0  0  0  0  0  2  0  0  0  0  0  0
  191.8450  176.8780  146.2180 O   0  0  0  0  0  1  0  0  0  0  0  0
  186.5130  177.7500  135.8220 C   0  0  0  0  0  2  0  0  0  0  0  0
  187.8470  178.2440  135.7650 O   0  0  0  0  0  0  0  0  0  0  0  0
  190.6870  177.1560  137.8640 C   0  0  0  0  0  3  0  0  0  0  0  0
  188.9530  177.5080  136.2030 C   0  0  0  0  0  0  0  0  0  0  0  0
  190.5310  175.6780  135.9570 C   0  0  0  0  0  3  0  0  0  0  0  0
  191.1660  176.0510  137.1500 C   0  0  0  0  0  0  0  0  0  0  0  0
  189.4320  176.4000  135.4850 C   0  0  0  0  0  3  0  0  0  0  0  0
  189.5880  177.8810  137.3930 C   0  0  0  0  0  3  0  0  0  0  0  0
  194.5430  174.8510  137.9450 O   0  0  0  0  0  0  0  0  0  0  0  0
  192.2870  175.3260  137.6730 N   0  0  0  0  0  2  0  0  0  0  0  0
  193.6720  175.6130  137.4450 C   0  0  0  0  0  0  0  0  0  0  0  0
  194.0590  176.7170  136.6810 O   0  0  0  0  0  0  0  0  0  0  0  0
  194.4610  176.5900  135.3250 C   0  0  0  0  0  1  0  0  0  0  0  0
  1 32  1  6  0  0  0
  1  2  1  0  0  0  0
  1 10  1  0  0  0  0
  3  5  1  0  0  0  0
  4  8  1  0  0  0  0
  4  6  1  0  0  0  0
  5  6  2  0  0  0  0
  6 14  1  0  0  0  0
  7  4  1  0  0  0  0
  7  8  1  0  0  0  0
  9  2  1  6  0  0  0
  9 10  1  0  0  0  0
  9  4  1  0  0  0  0
 10  3  1  1  0  0  0
 11 15  1  0  0  0  0
 14 11  2  0  0  0  0
 14 17  1  0  0  0  0
 15 12  1  0  0  0  0
 15 13  2  0  0  0  0
 16 13  1  0  0  0  0
 16 18  1  0  0  0  0
 17 16  2  0  0  0  0
 19 18  1  0  0  0  0
 19 21  1  0  0  0  0
 21 20  1  0  0  0  0
 22 21  1  0  0  0  0
 22 23  1  1  0  0  0
 23 24  2  0  0  0  0
 25 22  1  0  0  0  0
 26 27  1  6  0  0  0
 26 25  1  0  0  0  0
 28 27  1  0  0  0  0
 29 26  1  0  0  0  0
 29 30  1  0  0  0  0
 30 31  1  0  0  0  0
 33 32  1  0  0  0  0
 33 35  1  0  0  0  0
 35 39  2  0  0  0  0
 36 37  1  0  0  0  0
 37 41  1  0  0  0  0
 37 34  2  0  0  0  0
 38 36  2  0  0  0  0
 38 35  1  0  0  0  0
 39 34  1  0  0  0  0
 42 41  1  0  0  0  0
 42 40  2  0  0  0  0
 43 42  1  0  0  0  0
 44 43  1  0  0  0  0
M  END
>  <MODEL>
1

>  <REMARK>
 VINA RESULT:      -8.3      0.000      0.000
  Name = 
  16 active torsions:
  status: ('A' for Active; 'I' for Inactive)
    1  A    between atoms: C_1  and  C_40
    2  A    between atoms: O_3  and  C_24
    3  A    between atoms: C_7  and  C_41
    4  A    between atoms: O_8  and  C_13
    5  A    between atoms: O_8  and  C_28
    6  A    between atoms: C_9  and  O_17
    7  A    between atoms: C_13  and  C_14
    8  A    between atoms: C_13  and  C_41
    9  A    between atoms: C_16  and  C_28
   10  A    between atoms: O_17  and  C_40
   11  A    between atoms: C_18  and  N_26
   12  A    between atoms: C_18  and  C_42
   13  A    between atoms: N_19  and  C_20
   14  A    between atoms: N_26  and  C_28
   15  A    between atoms: C_29  and  C_33
   16  A    between atoms: C_37  and  C_42
                            x       y       z     vdW  Elec       q    Type
                         _______ _______ _______ _____ _____    ______ ____

>  <TORSDO>
F 16

$$$$
=
 OpenBabel11042410363D

 44 48  0  0  1  0  0  0  0  0999 V2000
  186.7610  177.5420  137.6640 C   0  0  2  0  0  3  0  0  0  0  0  0
  185.3530  177.2200  137.5750 N   0  0  0  0  0  2  0  0  0  0  0  0
  186.9770  178.4430  139.7370 N   0  0  0  0  0  2  0  0  0  0  0  0
  184.3210  178.1360  139.5160 C   0  0  0  0  0  0  0  0  0  0  0  0
  186.2100  178.6020  140.9210 C   0  0  0  0  0  3  0  0  0  0  0  0
  184.8940  178.5180  140.8640 C   0  0  0  0  0  0  0  0  0  0  0  0
  182.8750  178.5350  139.3050 C   0  0  0  0  0  2  0  0  0  0  0  0
  183.2470  177.0650  139.4280 C   0  0  0  0  0  2  0  0  0  0  0  0
  185.1010  178.4120  138.2860 N   0  0  1  0  0  0  0  0  0  0  0  0
  186.4860  178.7260  138.4450 N   0  0  2  0  0  0  0  0  0  0  0  0
  182.7180  178.9220  142.0910 C   0  0  0  0  0  3  0  0  0  0  0  0
  180.6210  179.2950  143.2230 O   0  0  0  0  0  1  0  0  0  0  0  0
  182.6400  179.0010  144.5060 C   0  0  0  0  0  3  0  0  0  0  0  0
  184.1040  178.6960  142.1190 C   0  0  0  0  0  0  0  0  0  0  0  0
  181.9910  179.0750  143.2750 C   0  0  0  0  0  0  0  0  0  0  0  0
  184.0180  178.7780  144.5570 C   0  0  0  0  0  0  0  0  0  0  0  0
  184.7420  178.6170  143.3720 C   0  0  0  0  0  3  0  0  0  0  0  0
  184.7070  178.6600  145.8710 C   0  0  0  0  0  2  0  0  0  0  0  0
  186.2120  178.7090  145.6700 C   0  0  0  0  0  2  0  0  0  0  0  0
  187.3010  178.1420  147.6280 C   0  0  0  0  0  1  0  0  0  0  0  0
  186.8440  177.5930  146.3590 N   0  0  0  0  0  0  0  0  0  0  0  0
  188.0290  177.1580  145.5990 C   0  0  1  0  0  3  0  0  0  0  0  0
  187.8030  177.3250  144.1180 C   0  0  0  0  0  3  0  0  0  0  0  0
  187.9600  176.3110  143.2680 C   0  0  0  0  0  2  0  0  0  0  0  0
  189.1680  177.9050  145.9800 O   0  0  0  0  0  0  0  0  0  0  0  0
  190.3250  177.0900  145.9070 C   0  0  2  0  0  3  0  0  0  0  0  0
  190.7420  176.5050  147.2570 C   0  0  0  0  0  2  0  0  0  0  0  0
  192.1300  175.9000  147.1580 C   0  0  0  0  0  1  0  0  0  0  0  0
  191.4890  177.7620  145.1780 C   0  0  0  0  0  2  0  0  0  0  0  0
  190.9690  178.7070  144.1100 C   0  0  0  0  0  2  0  0  0  0  0  0
  191.2400  178.1760  142.8510 O   0  0  0  0  0  1  0  0  0  0  0  0
  187.2890  177.9430  136.2940 C   0  0  0  0  0  2  0  0  0  0  0  0
  188.1130  176.9120  135.7600 O   0  0  0  0  0  0  0  0  0  0  0  0
  191.1820  176.8210  137.8160 C   0  0  0  0  0  3  0  0  0  0  0  0
  189.4590  176.7530  136.1090 C   0  0  0  0  0  0  0  0  0  0  0  0
  191.7560  176.1970  135.5520 C   0  0  0  0  0  3  0  0  0  0  0  0
  192.1450  176.4270  136.8800 C   0  0  0  0  0  0  0  0  0  0  0  0
  190.4220  176.3590  135.1680 C   0  0  0  0  0  3  0  0  0  0  0  0
  189.8470  176.9840  137.4330 C   0  0  0  0  0  3  0  0  0  0  0  0
  195.3220  175.0550  138.1040 O   0  0  0  0  0  0  0  0  0  0  0  0
  193.5010  176.2580  137.3140 N   0  0  0  0  0  2  0  0  0  0  0  0
  194.1270  175.0310  137.7060 C   0  0  0  0  0  0  0  0  0  0  0  0
  193.4290  173.8210  137.6530 O   0  0  0  0  0  0  0  0  0  0  0  0
  193.4060  173.0170  136.4830 C   0  0  0  0  0  1  0  0  0  0  0  0
  1 32  1  6  0  0  0
  1 10  1  0  0  0  0
  2  1  1  0  0  0  0
  3  5  1  0  0  0  0
  4  6  1  0  0  0  0
  6  5  2  0  0  0  0
  6 14  1  0  0  0  0
  7  8  1  0  0  0  0
  7  4  1  0  0  0  0
  8  4  1  0  0  0  0
  9  2  1  6  0  0  0
  9 10  1  0  0  0  0
  9  4  1  0  0  0  0
 10  3  1  1  0  0  0
 11 14  2  0  0  0  0
 11 15  1  0  0  0  0
 12 15  1  0  0  0  0
 13 16  1  0  0  0  0
 14 17  1  0  0  0  0
 15 13  2  0  0  0  0
 16 18  1  0  0  0  0
 17 16  2  0  0  0  0
 19 18  1  0  0  0  0
 19 21  1  0  0  0  0
 21 20  1  0  0  0  0
 22 23  1  6  0  0  0
 22 25  1  0  0  0  0
 22 21  1  0  0  0  0
 24 23  2  0  0  0  0
 26 29  1  1  0  0  0
 26 25  1  0  0  0  0
 26 27  1  0  0  0  0
 28 27  1  0  0  0  0
 30 29  1  0  0  0  0
 31 30  1  0  0  0  0
 33 35  1  0  0  0  0
 33 32  1  0  0  0  0
 35 39  2  0  0  0  0
 36 37  1  0  0  0  0
 37 41  1  0  0  0  0
 37 34  2  0  0  0  0
 38 36  2  0  0  0  0
 38 35  1  0  0  0  0
 39 34  1  0  0  0  0
 41 42  1  0  0  0  0
 42 40  2  0  0  0  0
 43 42  1  0  0  0  0
 44 43  1  0  0  0  0
M  END
>  <MODEL>
2

>  <REMARK>
 VINA RESULT:      -8.2      1.283      2.031
  Name = 
  16 active torsions:
  status: ('A' for Active; 'I' for Inactive)
    1  A    between atoms: C_1  and  C_40
    2  A    between atoms: O_3  and  C_24
    3  A    between atoms: C_7  and  C_41
    4  A    between atoms: O_8  and  C_13
    5  A    between atoms: O_8  and  C_28
    6  A    between atoms: C_9  and  O_17
    7  A    between atoms: C_13  and  C_14
    8  A    between atoms: C_13  and  C_41
    9  A    between atoms: C_16  and  C_28
   10  A    between atoms: O_17  and  C_40
   11  A    between atoms: C_18  and  N_26
   12  A    between atoms: C_18  and  C_42
   13  A    between atoms: N_19  and  C_20
   14  A    between atoms: N_26  and  C_28
   15  A    between atoms: C_29  and  C_33
   16  A    between atoms: C_37  and  C_42
                            x       y       z     vdW  Elec       q    Type
                         _______ _______ _______ _____ _____    ______ ____

>  <TORSDO>
F 16

$$$$
=
 OpenBabel11042410363D

 44 48  0  0  1  0  0  0  0  0999 V2000
  188.3440  178.6620  137.4140 C   0  0  2  0  0  3  0  0  0  0  0  0
  188.9570  178.7000  138.7240 N   0  0  0  0  0  2  0  0  0  0  0  0
  186.1200  178.5660  137.8630 N   0  0  0  0  0  2  0  0  0  0  0  0
  187.2120  178.3420  140.3040 C   0  0  0  0  0  0  0  0  0  0  0  0
  185.2450  178.6950  138.9740 C   0  0  0  0  0  3  0  0  0  0  0  0
  185.7150  178.5390  140.1980 C   0  0  0  0  0  0  0  0  0  0  0  0
  187.6740  177.6650  141.5780 C   0  0  0  0  0  2  0  0  0  0  0  0
  188.0060  179.1290  141.3330 C   0  0  0  0  0  2  0  0  0  0  0  0
  187.9600  177.7960  139.1460 N   0  0  1  0  0  0  0  0  0  0  0  0
  187.2950  177.7850  137.8820 N   0  0  2  0  0  0  0  0  0  0  0  0
  183.3850  178.7030  141.1720 C   0  0  0  0  0  3  0  0  0  0  0  0
  181.1470  178.8420  142.0620 O   0  0  0  0  0  1  0  0  0  0  0  0
  183.0370  178.8920  143.5580 C   0  0  0  0  0  3  0  0  0  0  0  0
  184.7770  178.6710  141.3540 C   0  0  0  0  0  0  0  0  0  0  0  0
  182.5200  178.8140  142.2650 C   0  0  0  0  0  0  0  0  0  0  0  0
  184.4190  178.8620  143.7610 C   0  0  0  0  0  0  0  0  0  0  0  0
  185.2810  178.7430  142.6660 C   0  0  0  0  0  3  0  0  0  0  0  0
  184.9710  178.9060  145.1420 C   0  0  0  0  0  2  0  0  0  0  0  0
  186.3720  178.3180  145.1550 C   0  0  0  0  0  2  0  0  0  0  0  0
  185.8430  178.4450  147.4010 C   0  0  0  0  0  1  0  0  0  0  0  0
  186.6360  177.6890  146.4420 N   0  0  0  0  0  0  0  0  0  0  0  0
  188.0570  177.8650  146.7880 C   0  0  1  0  0  3  0  0  0  0  0  0
  188.2880  177.5840  148.2510 C   0  0  0  0  0  3  0  0  0  0  0  0
  189.1450  178.3040  148.9740 C   0  0  0  0  0  2  0  0  0  0  0  0
  188.8690  177.0000  146.0190 O   0  0  0  0  0  0  0  0  0  0  0  0
  190.1260  177.6090  145.7740 C   0  0  2  0  0  3  0  0  0  0  0  0
  190.1500  178.4640  144.5060 C   0  0  0  0  0  2  0  0  0  0  0  0
  191.4840  178.3140  143.8000 C   0  0  0  0  0  1  0  0  0  0  0  0
  191.2930  176.6240  145.8370 C   0  0  0  0  0  2  0  0  0  0  0  0
  191.4340  176.0580  147.2370 C   0  0  0  0  0  2  0  0  0  0  0  0
  192.4180  176.7640  147.9250 O   0  0  0  0  0  1  0  0  0  0  0  0
  189.2430  177.9120  136.4420 C   0  0  0  0  0  2  0  0  0  0  0  0
  189.7610  176.7350  137.0540 O   0  0  0  0  0  0  0  0  0  0  0  0
  193.0780  175.6510  135.8400 C   0  0  0  0  0  3  0  0  0  0  0  0
  191.1220  176.4120  137.0570 C   0  0  0  0  0  0  0  0  0  0  0  0
  193.2650  176.2140  138.1830 C   0  0  0  0  0  3  0  0  0  0  0  0
  193.8610  175.7720  136.9940 C   0  0  0  0  0  0  0  0  0  0  0  0
  191.9040  176.5330  138.2170 C   0  0  0  0  0  3  0  0  0  0  0  0
  191.7170  175.9690  135.8710 C   0  0  0  0  0  3  0  0  0  0  0  0
  197.1300  174.1240  137.2660 O   0  0  0  0  0  0  0  0  0  0  0  0
  195.2560  175.4490  136.9180 N   0  0  0  0  0  2  0  0  0  0  0  0
  195.8790  174.2390  137.3660 C   0  0  0  0  0  0  0  0  0  0  0  0
  195.1190  173.2000  137.9090 O   0  0  0  0  0  0  0  0  0  0  0  0
  195.0110  171.9360  137.2720 C   0  0  0  0  0  1  0  0  0  0  0  0
  1 32  1  6  0  0  0
  1 10  1  0  0  0  0
  1  2  1  0  0  0  0
  3  5  1  0  0  0  0
  4  8  1  0  0  0  0
  4  7  1  0  0  0  0
  5  6  2  0  0  0  0
  6  4  1  0  0  0  0
  6 14  1  0  0  0  0
  8  7  1  0  0  0  0
  9  2  1  6  0  0  0
  9  4  1  0  0  0  0
 10  3  1  1  0  0  0
 10  9  1  0  0  0  0
 11 14  2  0  0  0  0
 11 15  1  0  0  0  0
 12 15  1  0  0  0  0
 13 16  1  0  0  0  0
 14 17  1  0  0  0  0
 15 13  2  0  0  0  0
 16 18  1  0  0  0  0
 17 16  2  0  0  0  0
 18 19  1  0  0  0  0
 19 21  1  0  0  0  0
 21 22  1  0  0  0  0
 21 20  1  0  0  0  0
 22 23  1  1  0  0  0
 23 24  2  0  0  0  0
 25 22  1  0  0  0  0
 26 27  1  6  0  0  0
 26 29  1  0  0  0  0
 26 25  1  0  0  0  0
 28 27  1  0  0  0  0
 29 30  1  0  0  0  0
 30 31  1  0  0  0  0
 32 33  1  0  0  0  0
 33 35  1  0  0  0  0
 34 39  2  0  0  0  0
 34 37  1  0  0  0  0
 35 38  2  0  0  0  0
 36 38  1  0  0  0  0
 37 36  2  0  0  0  0
 39 35  1  0  0  0  0
 40 42  2  0  0  0  0
 41 37  1  0  0  0  0
 41 42  1  0  0  0  0
 42 43  1  0  0  0  0
 44 43  1  0  0  0  0
M  END
>  <MODEL>
3

>  <REMARK>
 VINA RESULT:      -8.0      1.614      2.720
  Name = 
  16 active torsions:
  status: ('A' for Active; 'I' for Inactive)
    1  A    between atoms: C_1  and  C_40
    2  A    between atoms: O_3  and  C_24
    3  A    between atoms: C_7  and  C_41
    4  A    between atoms: O_8  and  C_13
    5  A    between atoms: O_8  and  C_28
    6  A    between atoms: C_9  and  O_17
    7  A    between atoms: C_13  and  C_14
    8  A    between atoms: C_13  and  C_41
    9  A    between atoms: C_16  and  C_28
   10  A    between atoms: O_17  and  C_40
   11  A    between atoms: C_18  and  N_26
   12  A    between atoms: C_18  and  C_42
   13  A    between atoms: N_19  and  C_20
   14  A    between atoms: N_26  and  C_28
   15  A    between atoms: C_29  and  C_33
   16  A    between atoms: C_37  and  C_42
                            x       y       z     vdW  Elec       q    Type
                         _______ _______ _______ _____ _____    ______ ____

>  <TORSDO>
F 16

$$$$
=
 OpenBabel11042410363D

 44 48  0  0  1  0  0  0  0  0999 V2000
  187.6460  177.5400  137.8040 C   0  0  2  0  0  3  0  0  0  0  0  0
  186.2200  177.5580  137.5600 N   0  0  0  0  0  2  0  0  0  0  0  0
  187.8240  178.0960  139.9980 N   0  0  0  0  0  2  0  0  0  0  0  0
  185.2030  178.4250  139.5310 C   0  0  0  0  0  0  0  0  0  0  0  0
  186.9850  178.2700  141.1310 C   0  0  0  0  0  3  0  0  0  0  0  0
  185.6950  178.4920  140.9600 C   0  0  0  0  0  0  0  0  0  0  0  0
  183.9050  179.1630  139.2710 C   0  0  0  0  0  2  0  0  0  0  0  0
  183.9420  177.6440  139.2020 C   0  0  0  0  0  2  0  0  0  0  0  0
  186.1520  178.6740  138.4200 N   0  0  1  0  0  0  0  0  0  0  0  0
  187.5470  178.6460  138.7290 N   0  0  2  0  0  0  0  0  0  0  0  0
  183.4500  178.9190  142.0490 C   0  0  0  0  0  3  0  0  0  0  0  0
  181.2910  179.3130  143.0480 O   0  0  0  0  0  1  0  0  0  0  0  0
  183.2230  179.0060  144.4550 C   0  0  0  0  0  3  0  0  0  0  0  0
  184.8300  178.6810  142.1640 C   0  0  0  0  0  0  0  0  0  0  0  0
  182.6520  179.0810  143.1850 C   0  0  0  0  0  0  0  0  0  0  0  0
  184.5940  178.7700  144.5920 C   0  0  0  0  0  0  0  0  0  0  0  0
  185.3880  178.6000  143.4540 C   0  0  0  0  0  3  0  0  0  0  0  0
  185.1990  178.6500  145.9460 C   0  0  0  0  0  2  0  0  0  0  0  0
  186.7140  178.6700  145.8370 C   0  0  0  0  0  2  0  0  0  0  0  0
  187.5130  177.6530  147.7520 C   0  0  0  0  0  1  0  0  0  0  0  0
  187.2660  177.4190  146.3360 N   0  0  0  0  0  0  0  0  0  0  0  0
  188.5630  177.1640  145.6850 C   0  0  1  0  0  3  0  0  0  0  0  0
  188.4030  177.0990  144.1870 C   0  0  0  0  0  3  0  0  0  0  0  0
  187.8900  176.0270  143.5850 C   0  0  0  0  0  2  0  0  0  0  0  0
  189.4910  178.1810  146.0060 O   0  0  0  0  0  0  0  0  0  0  0  0
  190.7830  177.6210  146.1700 C   0  0  2  0  0  3  0  0  0  0  0  0
  191.5580  177.4890  144.8580 C   0  0  0  0  0  2  0  0  0  0  0  0
  191.6490  178.8360  144.1670 C   0  0  0  0  0  1  0  0  0  0  0  0
  190.7790  176.3240  146.9790 C   0  0  0  0  0  2  0  0  0  0  0  0
  192.1840  175.7640  147.0880 C   0  0  0  0  0  2  0  0  0  0  0  0
  192.7510  176.1670  148.2950 O   0  0  0  0  0  1  0  0  0  0  0  0
  188.3910  177.9840  136.5530 C   0  0  0  0  0  2  0  0  0  0  0  0
  189.0790  176.8820  135.9690 O   0  0  0  0  0  0  0  0  0  0  0  0
  192.6030  175.9680  135.3360 C   0  0  0  0  0  3  0  0  0  0  0  0
  190.4310  176.6150  136.2060 C   0  0  0  0  0  0  0  0  0  0  0  0
  192.3500  176.4700  137.6880 C   0  0  0  0  0  3  0  0  0  0  0  0
  193.1640  176.0870  136.6120 C   0  0  0  0  0  0  0  0  0  0  0  0
  190.9920  176.7330  137.4870 C   0  0  0  0  0  3  0  0  0  0  0  0
  191.2440  176.2300  135.1340 C   0  0  0  0  0  3  0  0  0  0  0  0
  196.4160  174.4960  137.2220 O   0  0  0  0  0  0  0  0  0  0  0  0
  194.5640  175.8230  136.7770 N   0  0  0  0  0  2  0  0  0  0  0  0
  195.1670  174.5560  137.0650 C   0  0  0  0  0  0  0  0  0  0  0  0
  194.3890  173.4000  137.1740 O   0  0  0  0  0  0  0  0  0  0  0  0
  194.9410  172.1570  137.5800 C   0  0  0  0  0  1  0  0  0  0  0  0
  1 32  1  6  0  0  0
  1 10  1  0  0  0  0
  2  1  1  0  0  0  0
  3  5  1  0  0  0  0
  4  6  1  0  0  0  0
  6  5  2  0  0  0  0
  6 14  1  0  0  0  0
  7  4  1  0  0  0  0
  8  7  1  0  0  0  0
  8  4  1  0  0  0  0
  9  2  1  6  0  0  0
  9 10  1  0  0  0  0
  9  4  1  0  0  0  0
 10  3  1  1  0  0  0
 11 14  2  0  0  0  0
 11 15  1  0  0  0  0
 12 15  1  0  0  0  0
 13 16  1  0  0  0  0
 14 17  1  0  0  0  0
 15 13  2  0  0  0  0
 16 18  1  0  0  0  0
 17 16  2  0  0  0  0
 19 18  1  0  0  0  0
 19 21  1  0  0  0  0
 21 20  1  0  0  0  0
 22 23  1  6  0  0  0
 22 25  1  0  0  0  0
 22 21  1  0  0  0  0
 24 23  2  0  0  0  0
 25 26  1  0  0  0  0
 26 27  1  6  0  0  0
 26 29  1  0  0  0  0
 28 27  1  0  0  0  0
 29 30  1  0  0  0  0
 30 31  1  0  0  0  0
 33 35  1  0  0  0  0
 33 32  1  0  0  0  0
 34 37  1  0  0  0  0
 35 38  2  0  0  0  0
 37 41  1  0  0  0  0
 37 36  2  0  0  0  0
 38 36  1  0  0  0  0
 39 34  2  0  0  0  0
 39 35  1  0  0  0  0
 41 42  1  0  0  0  0
 42 43  1  0  0  0  0
 42 40  2  0  0  0  0
 43 44  1  0  0  0  0
M  END
>  <MODEL>
4

>  <REMARK>
 VINA RESULT:      -7.9      1.529      2.355
  Name = 
  16 active torsions:
  status: ('A' for Active; 'I' for Inactive)
    1  A    between atoms: C_1  and  C_40
    2  A    between atoms: O_3  and  C_24
    3  A    between atoms: C_7  and  C_41
    4  A    between atoms: O_8  and  C_13
    5  A    between atoms: O_8  and  C_28
    6  A    between atoms: C_9  and  O_17
    7  A    between atoms: C_13  and  C_14
    8  A    between atoms: C_13  and  C_41
    9  A    between atoms: C_16  and  C_28
   10  A    between atoms: O_17  and  C_40
   11  A    between atoms: C_18  and  N_26
   12  A    between atoms: C_18  and  C_42
   13  A    between atoms: N_19  and  C_20
   14  A    between atoms: N_26  and  C_28
   15  A    between atoms: C_29  and  C_33
   16  A    between atoms: C_37  and  C_42
                            x       y       z     vdW  Elec       q    Type
                         _______ _______ _______ _____ _____    ______ ____

>  <TORSDO>
F 16

$$$$
=
 OpenBabel11042410363D

 44 48  0  0  1  0  0  0  0  0999 V2000
  182.5180  178.6390  143.6620 C   0  0  2  0  0  3  0  0  0  0  0  0
  182.7860  178.7690  145.0780 N   0  0  0  0  0  2  0  0  0  0  0  0
  184.5510  178.1620  142.7700 N   0  0  0  0  0  2  0  0  0  0  0  0
  185.1520  178.6770  145.3340 C   0  0  0  0  0  0  0  0  0  0  0  0
  185.8590  177.8200  143.2070 C   0  0  0  0  0  3  0  0  0  0  0  0
  186.2300  178.1010  144.4420 C   0  0  0  0  0  0  0  0  0  0  0  0
  185.6660  179.4590  146.5250 C   0  0  0  0  0  2  0  0  0  0  0  0
  184.9610  178.1290  146.7380 C   0  0  0  0  0  2  0  0  0  0  0  0
  184.0040  179.3890  144.7250 N   0  0  1  0  0  0  0  0  0  0  0  0
  183.7970  179.2200  143.3210 N   0  0  2  0  0  0  0  0  0  0  0  0
  187.9930  177.7890  146.2310 C   0  0  0  0  0  3  0  0  0  0  0  0
  189.6410  177.4900  147.9670 O   0  0  0  0  0  1  0  0  0  0  0  0
  190.2200  177.0270  145.6740 C   0  0  0  0  0  3  0  0  0  0  0  0
  187.6130  177.7400  144.8800 C   0  0  0  0  0  0  0  0  0  0  0  0
  189.2870  177.4360  146.6260 C   0  0  0  0  0  0  0  0  0  0  0  0
  189.8620  176.9720  144.3240 C   0  0  0  0  0  0  0  0  0  0  0  0
  188.5650  177.3170  143.9320 C   0  0  0  0  0  3  0  0  0  0  0  0
  190.8430  176.4980  143.3110 C   0  0  0  0  0  2  0  0  0  0  0  0
  190.1130  176.0510  142.0560 C   0  0  0  0  0  2  0  0  0  0  0  0
  191.7790  177.4790  141.3300 C   0  0  0  0  0  1  0  0  0  0  0  0
  190.8740  176.4330  140.8740 N   0  0  0  0  0  0  0  0  0  0  0  0
  189.9630  177.0230  139.8770 C   0  0  1  0  0  3  0  0  0  0  0  0
  189.1910  178.1720  140.4750 C   0  0  0  0  0  3  0  0  0  0  0  0
  187.8760  178.2970  140.2990 C   0  0  0  0  0  2  0  0  0  0  0  0
  190.6850  177.4870  138.7540 O   0  0  0  0  0  0  0  0  0  0  0  0
  190.0350  177.0820  137.5610 C   0  0  2  0  0  3  0  0  0  0  0  0
  189.2360  178.2020  136.8940 C   0  0  0  0  0  2  0  0  0  0  0  0
  187.9450  177.6510  136.3190 C   0  0  0  0  0  1  0  0  0  0  0  0
  189.2200  175.8000  137.7260 C   0  0  0  0  0  2  0  0  0  0  0  0
  189.9690  174.6170  137.1440 C   0  0  0  0  0  2  0  0  0  0  0  0
  191.1050  174.3650  137.9110 O   0  0  0  0  0  1  0  0  0  0  0  0
  181.4000  179.5880  143.2570 C   0  0  0  0  0  2  0  0  0  0  0  0
  180.6320  179.0260  142.1970 O   0  0  0  0  0  0  0  0  0  0  0  0
  179.6930  180.9500  139.1860 C   0  0  0  0  0  3  0  0  0  0  0  0
  180.6620  179.5180  140.8880 C   0  0  0  0  0  0  0  0  0  0  0  0
  181.6660  179.6480  138.6810 C   0  0  0  0  0  3  0  0  0  0  0  0
  180.6840  180.5630  138.2770 C   0  0  0  0  0  0  0  0  0  0  0  0
  181.6570  179.1270  139.9780 C   0  0  0  0  0  3  0  0  0  0  0  0
  179.6820  180.4300  140.4840 C   0  0  0  0  0  3  0  0  0  0  0  0
  180.7310  182.8570  135.4100 O   0  0  0  0  0  0  0  0  0  0  0  0
  180.6700  181.1280  136.9590 N   0  0  0  0  0  2  0  0  0  0  0  0
  180.8070  182.5140  136.6210 C   0  0  0  0  0  0  0  0  0  0  0  0
  181.0200  183.4750  137.6120 O   0  0  0  0  0  0  0  0  0  0  0  0
  181.5120  184.7720  137.3080 C   0  0  0  0  0  1  0  0  0  0  0  0
  1 32  1  6  0  0  0
  1  2  1  0  0  0  0
  3  5  1  0  0  0  0
  4  7  1  0  0  0  0
  4  8  1  0  0  0  0
  5  6  2  0  0  0  0
  6 14  1  0  0  0  0
  6  4  1  0  0  0  0
  7  8  1  0  0  0  0
  9  2  1  1  0  0  0
  9  4  1  0  0  0  0
 10  3  1  1  0  0  0
 10  1  1  0  0  0  0
 10  9  1  0  0  0  0
 11 15  1  0  0  0  0
 13 15  2  0  0  0  0
 14 11  2  0  0  0  0
 15 12  1  0  0  0  0
 16 13  1  0  0  0  0
 17 16  2  0  0  0  0
 17 14  1  0  0  0  0
 18 16  1  0  0  0  0
 19 18  1  0  0  0  0
 21 20  1  0  0  0  0
 21 19  1  0  0  0  0
 22 23  1  1  0  0  0
 22 21  1  0  0  0  0
 24 23  2  0  0  0  0
 25 22  1  0  0  0  0
 26 27  1  1  0  0  0
 26 29  1  0  0  0  0
 26 25  1  0  0  0  0
 28 27  1  0  0  0  0
 30 29  1  0  0  0  0
 30 31  1  0  0  0  0
 33 32  1  0  0  0  0
 34 39  1  0  0  0  0
 35 33  1  0  0  0  0
 36 38  2  0  0  0  0
 37 36  1  0  0  0  0
 37 34  2  0  0  0  0
 38 35  1  0  0  0  0
 39 35  2  0  0  0  0
 40 42  2  0  0  0  0
 41 37  1  0  0  0  0
 42 41  1  0  0  0  0
 42 43  1  0  0  0  0
 44 43  1  0  0  0  0
M  END
>  <MODEL>
5

>  <REMARK>
 VINA RESULT:      -7.9      3.119      8.930
  Name = 
  16 active torsions:
  status: ('A' for Active; 'I' for Inactive)
    1  A    between atoms: C_1  and  C_40
    2  A    between atoms: O_3  and  C_24
    3  A    between atoms: C_7  and  C_41
    4  A    between atoms: O_8  and  C_13
    5  A    between atoms: O_8  and  C_28
    6  A    between atoms: C_9  and  O_17
    7  A    between atoms: C_13  and  C_14
    8  A    between atoms: C_13  and  C_41
    9  A    between atoms: C_16  and  C_28
   10  A    between atoms: O_17  and  C_40
   11  A    between atoms: C_18  and  N_26
   12  A    between atoms: C_18  and  C_42
   13  A    between atoms: N_19  and  C_20
   14  A    between atoms: N_26  and  C_28
   15  A    between atoms: C_29  and  C_33
   16  A    between atoms: C_37  and  C_42
                            x       y       z     vdW  Elec       q    Type
                         _______ _______ _______ _____ _____    ______ ____

>  <TORSDO>
F 16

$$$$
=
 OpenBabel11042410363D

 44 48  0  0  1  0  0  0  0  0999 V2000
  191.9420  177.1900  141.6320 C   0  0  2  0  0  3  0  0  0  0  0  0
  190.8240  176.2730  141.5790 N   0  0  0  0  0  2  0  0  0  0  0  0
  191.4550  178.5320  143.3970 N   0  0  0  0  0  2  0  0  0  0  0  0
  189.2290  177.0510  143.1680 C   0  0  0  0  0  0  0  0  0  0  0  0
  190.5230  178.5990  144.4670 C   0  0  0  0  0  3  0  0  0  0  0  0
  189.3850  177.9360  144.3850 C   0  0  0  0  0  0  0  0  0  0  0  0
  187.7970  176.7180  142.8050 C   0  0  0  0  0  2  0  0  0  0  0  0
  188.7210  175.6280  143.3270 C   0  0  0  0  0  2  0  0  0  0  0  0
  189.9980  177.3590  141.9380 N   0  0  1  0  0  0  0  0  0  0  0  0
  191.0880  178.2750  142.0590 N   0  0  2  0  0  0  0  0  0  0  0  0
  188.8250  177.8780  146.8530 C   0  0  0  0  0  3  0  0  0  0  0  0
  188.3360  177.8300  149.2140 O   0  0  0  0  0  1  0  0  0  0  0  0
  186.5620  178.2260  147.6310 C   0  0  0  0  0  3  0  0  0  0  0  0
  188.4140  178.0250  145.5180 C   0  0  0  0  0  0  0  0  0  0  0  0
  187.9070  177.9760  147.9020 C   0  0  0  0  0  0  0  0  0  0  0  0
  186.1320  178.3760  146.3100 C   0  0  0  0  0  0  0  0  0  0  0  0
  187.0540  178.2850  145.2620 C   0  0  0  0  0  3  0  0  0  0  0  0
  184.7050  178.6820  146.0200 C   0  0  0  0  0  2  0  0  0  0  0  0
  184.3580  178.2330  144.6100 C   0  0  0  0  0  2  0  0  0  0  0  0
  182.1530  178.8090  144.2260 C   0  0  0  0  0  1  0  0  0  0  0  0
  183.5210  179.2330  143.9610 N   0  0  0  0  0  0  0  0  0  0  0  0
  183.7400  179.1800  142.5050 C   0  0  1  0  0  3  0  0  0  0  0  0
  185.1010  178.6120  142.1910 C   0  0  0  0  0  3  0  0  0  0  0  0
  186.0840  179.3770  141.7170 C   0  0  0  0  0  2  0  0  0  0  0  0
  182.7520  178.3830  141.8810 O   0  0  0  0  0  0  0  0  0  0  0  0
  182.3340  178.9920  140.6710 C   0  0  2  0  0  3  0  0  0  0  0  0
  180.8590  179.3990  140.6740 C   0  0  0  0  0  2  0  0  0  0  0  0
  180.0210  178.3210  141.3350 C   0  0  0  0  0  1  0  0  0  0  0  0
  182.7160  178.1880  139.4290 C   0  0  0  0  0  2  0  0  0  0  0  0
  183.9560  178.7730  138.7800 C   0  0  0  0  0  2  0  0  0  0  0  0
  184.0460  180.1280  139.0940 O   0  0  0  0  0  1  0  0  0  0  0  0
  192.4540  177.4640  140.2250 C   0  0  0  0  0  2  0  0  0  0  0  0
  191.8910  176.5350  139.3030 O   0  0  0  0  0  0  0  0  0  0  0  0
  189.4030  176.2240  136.5900 C   0  0  0  0  0  3  0  0  0  0  0  0
  190.8420  176.8600  138.4360 C   0  0  0  0  0  0  0  0  0  0  0  0
  189.1120  178.3750  137.6550 C   0  0  0  0  0  3  0  0  0  0  0  0
  188.7240  177.4450  136.6800 C   0  0  0  0  0  0  0  0  0  0  0  0
  190.1640  178.0860  138.5290 C   0  0  0  0  0  3  0  0  0  0  0  0
  190.4560  175.9340  137.4620 C   0  0  0  0  0  3  0  0  0  0  0  0
  185.4730  177.4810  134.9740 O   0  0  0  0  0  0  0  0  0  0  0  0
  187.6410  177.7010  135.7760 N   0  0  0  0  0  2  0  0  0  0  0  0
  186.3040  177.1960  135.8780 C   0  0  0  0  0  0  0  0  0  0  0  0
  185.9210  176.3980  136.9590 O   0  0  0  0  0  0  0  0  0  0  0  0
  185.4130  175.0840  136.7810 C   0  0  0  0  0  1  0  0  0  0  0  0
  1 32  1  6  0  0  0
  1 10  1  0  0  0  0
  2  1  1  0  0  0  0
  3  5  1  0  0  0  0
  4  8  1  0  0  0  0
  4  6  1  0  0  0  0
  6  5  2  0  0  0  0
  6 14  1  0  0  0  0
  7  4  1  0  0  0  0
  7  8  1  0  0  0  0
  9  2  1  1  0  0  0
  9 10  1  0  0  0  0
  9  4  1  0  0  0  0
 10  3  1  1  0  0  0
 11 15  1  0  0  0  0
 13 15  2  0  0  0  0
 14 11  2  0  0  0  0
 15 12  1  0  0  0  0
 16 13  1  0  0  0  0
 17 14  1  0  0  0  0
 17 16  2  0  0  0  0
 18 16  1  0  0  0  0
 19 18  1  0  0  0  0
 21 20  1  0  0  0  0
 21 19  1  0  0  0  0
 22 23  1  1  0  0  0
 22 21  1  0  0  0  0
 24 23  2  0  0  0  0
 25 22  1  0  0  0  0
 26 29  1  6  0  0  0
 26 27  1  0  0  0  0
 26 25  1  0  0  0  0
 27 28  1  0  0  0  0
 30 31  1  0  0  0  0
 30 29  1  0  0  0  0
 33 32  1  0  0  0  0
 34 37  2  0  0  0  0
 34 39  1  0  0  0  0
 35 38  1  0  0  0  0
 35 33  1  0  0  0  0
 36 38  2  0  0  0  0
 37 36  1  0  0  0  0
 39 35  2  0  0  0  0
 40 42  2  0  0  0  0
 41 42  1  0  0  0  0
 41 37  1  0  0  0  0
 42 43  1  0  0  0  0
 44 43  1  0  0  0  0
M  END
>  <MODEL>
6

>  <REMARK>
 VINA RESULT:      -7.6      2.493      6.785
  Name = 
  16 active torsions:
  status: ('A' for Active; 'I' for Inactive)
    1  A    between atoms: C_1  and  C_40
    2  A    between atoms: O_3  and  C_24
    3  A    between atoms: C_7  and  C_41
    4  A    between atoms: O_8  and  C_13
    5  A    between atoms: O_8  and  C_28
    6  A    between atoms: C_9  and  O_17
    7  A    between atoms: C_13  and  C_14
    8  A    between atoms: C_13  and  C_41
    9  A    between atoms: C_16  and  C_28
   10  A    between atoms: O_17  and  C_40
   11  A    between atoms: C_18  and  N_26
   12  A    between atoms: C_18  and  C_42
   13  A    between atoms: N_19  and  C_20
   14  A    between atoms: N_26  and  C_28
   15  A    between atoms: C_29  and  C_33
   16  A    between atoms: C_37  and  C_42
                            x       y       z     vdW  Elec       q    Type
                         _______ _______ _______ _____ _____    ______ ____

>  <TORSDO>
F 16

$$$$
=
 OpenBabel11042410363D

 44 48  0  0  1  0  0  0  0  0999 V2000
  183.5360  179.2860  143.8640 C   0  0  2  0  0  3  0  0  0  0  0  0
  182.1040  179.3940  143.6860 N   0  0  0  0  0  2  0  0  0  0  0  0
  184.3180  178.9610  141.7580 N   0  0  0  0  0  2  0  0  0  0  0  0
  181.6600  178.8640  141.4080 C   0  0  0  0  0  0  0  0  0  0  0  0
  183.8430  179.0030  140.4200 C   0  0  0  0  0  3  0  0  0  0  0  0
  182.5480  178.9020  140.1830 C   0  0  0  0  0  0  0  0  0  0  0  0
  180.2960  178.2440  141.1820 C   0  0  0  0  0  2  0  0  0  0  0  0
  180.4150  179.7340  141.4660 C   0  0  0  0  0  2  0  0  0  0  0  0
  182.2160  178.3930  142.6990 N   0  0  1  0  0  0  0  0  0  0  0  0
  183.6390  178.3060  142.8070 N   0  0  2  0  0  0  0  0  0  0  0  0
  181.6170  180.1320  138.1760 C   0  0  0  0  0  3  0  0  0  0  0  0
  180.7430  181.3430  136.2820 O   0  0  0  0  0  1  0  0  0  0  0  0
  181.1950  178.9830  136.0900 C   0  0  0  0  0  3  0  0  0  0  0  0
  182.0680  178.9410  138.7680 C   0  0  0  0  0  0  0  0  0  0  0  0
  181.1820  180.1540  136.8480 C   0  0  0  0  0  0  0  0  0  0  0  0
  181.6400  177.7870  136.6600 C   0  0  0  0  0  0  0  0  0  0  0  0
  182.0820  177.7700  137.9870 C   0  0  0  0  0  3  0  0  0  0  0  0
  181.6920  176.5450  135.8420 C   0  0  0  0  0  2  0  0  0  0  0  0
  182.9870  176.5050  135.0490 C   0  0  0  0  0  2  0  0  0  0  0  0
  182.4740  174.2760  135.3820 C   0  0  0  0  0  1  0  0  0  0  0  0
  183.5890  175.1820  135.1450 N   0  0  0  0  0  0  0  0  0  0  0  0
  184.4720  175.1340  136.3240 C   0  0  1  0  0  3  0  0  0  0  0  0
  184.0980  173.9830  137.2230 C   0  0  0  0  0  3  0  0  0  0  0  0
  185.0010  173.0920  137.6290 C   0  0  0  0  0  2  0  0  0  0  0  0
  185.8230  174.9920  135.9310 O   0  0  0  0  0  0  0  0  0  0  0  0
  186.5030  176.2260  136.0870 C   0  0  2  0  0  3  0  0  0  0  0  0
  188.0220  176.0760  136.1740 C   0  0  0  0  0  2  0  0  0  0  0  0
  188.3800  174.7480  136.8150 C   0  0  0  0  0  1  0  0  0  0  0  0
  185.9360  177.0870  137.2160 C   0  0  0  0  0  2  0  0  0  0  0  0
  186.8580  178.2560  137.5040 C   0  0  0  0  0  2  0  0  0  0  0  0
  186.8870  178.4940  138.8770 O   0  0  0  0  0  1  0  0  0  0  0  0
  183.8440  178.6290  145.2030 C   0  0  0  0  0  2  0  0  0  0  0  0
  184.9600  179.2630  145.8200 O   0  0  0  0  0  0  0  0  0  0  0  0
  187.9230  177.9810  147.6180 C   0  0  0  0  0  3  0  0  0  0  0  0
  186.1730  178.6070  146.0580 C   0  0  0  0  0  0  0  0  0  0  0  0
  188.0510  177.2590  145.3140 C   0  0  0  0  0  3  0  0  0  0  0  0
  188.5970  177.2880  146.6060 C   0  0  0  0  0  0  0  0  0  0  0  0
  186.8480  177.9140  145.0400 C   0  0  0  0  0  3  0  0  0  0  0  0
  186.7190  178.6370  147.3460 C   0  0  0  0  0  3  0  0  0  0  0  0
  192.0680  176.0940  146.6580 O   0  0  0  0  0  0  0  0  0  0  0  0
  189.8220  176.6160  146.9270 N   0  0  0  0  0  2  0  0  0  0  0  0
  191.0890  176.7940  146.2830 C   0  0  0  0  0  0  0  0  0  0  0  0
  191.2450  177.7250  145.2530 O   0  0  0  0  0  0  0  0  0  0  0  0
  191.6620  177.3430  143.9510 C   0  0  0  0  0  1  0  0  0  0  0  0
  1 32  1  1  0  0  0
  2  1  1  0  0  0  0
  4  8  1  0  0  0  0
  4  9  1  0  0  0  0
  5  3  1  0  0  0  0
  6  5  2  0  0  0  0
  6  4  1  0  0  0  0
  7  4  1  0  0  0  0
  7  8  1  0  0  0  0
  9 10  1  0  0  0  0
  9  2  1  1  0  0  0
 10  3  1  6  0  0  0
 10  1  1  0  0  0  0
 11 14  1  0  0  0  0
 12 15  1  0  0  0  0
 13 16  2  0  0  0  0
 13 15  1  0  0  0  0
 14  6  1  0  0  0  0
 15 11  2  0  0  0  0
 16 17  1  0  0  0  0
 17 14  2  0  0  0  0
 18 16  1  0  0  0  0
 19 21  1  0  0  0  0
 19 18  1  0  0  0  0
 21 20  1  0  0  0  0
 21 22  1  0  0  0  0
 22 23  1  1  0  0  0
 23 24  2  0  0  0  0
 25 26  1  0  0  0  0
 25 22  1  0  0  0  0
 26 27  1  1  0  0  0
 26 29  1  0  0  0  0
 27 28  1  0  0  0  0
 29 30  1  0  0  0  0
 30 31  1  0  0  0  0
 32 33  1  0  0  0  0
 33 35  1  0  0  0  0
 35 39  2  0  0  0  0
 36 37  1  0  0  0  0
 37 41  1  0  0  0  0
 37 34  2  0  0  0  0
 38 36  2  0  0  0  0
 38 35  1  0  0  0  0
 39 34  1  0  0  0  0
 42 40  2  0  0  0  0
 42 41  1  0  0  0  0
 43 42  1  0  0  0  0
 44 43  1  0  0  0  0
M  END
>  <MODEL>
7

>  <REMARK>
 VINA RESULT:      -7.6      3.344      8.516
  Name = 
  16 active torsions:
  status: ('A' for Active; 'I' for Inactive)
    1  A    between atoms: C_1  and  C_40
    2  A    between atoms: O_3  and  C_24
    3  A    between atoms: C_7  and  C_41
    4  A    between atoms: O_8  and  C_13
    5  A    between atoms: O_8  and  C_28
    6  A    between atoms: C_9  and  O_17
    7  A    between atoms: C_13  and  C_14
    8  A    between atoms: C_13  and  C_41
    9  A    between atoms: C_16  and  C_28
   10  A    between atoms: O_17  and  C_40
   11  A    between atoms: C_18  and  N_26
   12  A    between atoms: C_18  and  C_42
   13  A    between atoms: N_19  and  C_20
   14  A    between atoms: N_26  and  C_28
   15  A    between atoms: C_29  and  C_33
   16  A    between atoms: C_37  and  C_42
                            x       y       z     vdW  Elec       q    Type
                         _______ _______ _______ _____ _____    ______ ____

>  <TORSDO>
F 16

$$$$
=
 OpenBabel11042410363D

 44 48  0  0  1  0  0  0  0  0999 V2000
  182.5260  178.6080  143.3440 C   0  0  2  0  0  3  0  0  0  0  0  0
  182.6540  178.6840  144.7830 N   0  0  0  0  0  2  0  0  0  0  0  0
  184.6480  178.2230  142.6330 N   0  0  0  0  0  2  0  0  0  0  0  0
  184.9870  178.6410  145.2610 C   0  0  0  0  0  0  0  0  0  0  0  0
  185.9180  177.8960  143.1790 C   0  0  0  0  0  3  0  0  0  0  0  0
  186.1610  178.1320  144.4540 C   0  0  0  0  0  0  0  0  0  0  0  0
  185.3620  179.3840  146.5270 C   0  0  0  0  0  2  0  0  0  0  0  0
  184.6790  178.0280  146.6170 C   0  0  0  0  0  2  0  0  0  0  0  0
  183.8810  179.3490  144.5740 N   0  0  1  0  0  0  0  0  0  0  0  0
  183.8140  179.2360  143.1510 N   0  0  2  0  0  0  0  0  0  0  0  0
  187.7770  177.8620  146.3840 C   0  0  0  0  0  3  0  0  0  0  0  0
  189.2800  177.6030  148.2520 O   0  0  0  0  0  1  0  0  0  0  0  0
  190.0450  177.1070  146.0210 C   0  0  0  0  0  3  0  0  0  0  0  0
  187.5060  177.7880  145.0080 C   0  0  0  0  0  0  0  0  0  0  0  0
  189.0360  177.5250  146.8880 C   0  0  0  0  0  0  0  0  0  0  0  0
  189.7970  177.0260  144.6480 C   0  0  0  0  0  0  0  0  0  0  0  0
  188.5340  177.3560  144.1480 C   0  0  0  0  0  3  0  0  0  0  0  0
  190.8600  176.5420  143.7250 C   0  0  0  0  0  2  0  0  0  0  0  0
  190.2270  175.9540  142.4750 C   0  0  0  0  0  2  0  0  0  0  0  0
  191.6710  177.5860  141.7060 C   0  0  0  0  0  1  0  0  0  0  0  0
  190.9680  176.3790  141.2950 N   0  0  0  0  0  0  0  0  0  0  0  0
  190.0180  176.7460  140.2300 C   0  0  1  0  0  3  0  0  0  0  0  0
  189.4950  178.1440  140.4410 C   0  0  0  0  0  3  0  0  0  0  0  0
  188.2020  178.3800  140.6600 C   0  0  0  0  0  2  0  0  0  0  0  0
  190.6380  176.6720  138.9620 O   0  0  0  0  0  0  0  0  0  0  0  0
  189.6530  176.5450  137.9500 C   0  0  2  0  0  3  0  0  0  0  0  0
  189.5640  175.1360  137.3620 C   0  0  0  0  0  2  0  0  0  0  0  0
  190.9540  174.5490  137.1990 C   0  0  0  0  0  1  0  0  0  0  0  0
  189.7570  177.6220  136.8710 C   0  0  0  0  0  2  0  0  0  0  0  0
  188.4810  178.4410  136.8170 C   0  0  0  0  0  2  0  0  0  0  0  0
  188.7150  179.6990  137.3680 O   0  0  0  0  0  1  0  0  0  0  0  0
  181.4240  179.5460  142.8720 C   0  0  0  0  0  2  0  0  0  0  0  0
  180.5590  178.8740  141.9610 O   0  0  0  0  0  0  0  0  0  0  0  0
  181.1720  176.4990  139.1970 C   0  0  0  0  0  3  0  0  0  0  0  0
  180.9910  178.3730  140.7280 C   0  0  0  0  0  0  0  0  0  0  0  0
  182.0410  178.6630  138.5570 C   0  0  0  0  0  3  0  0  0  0  0  0
  181.8120  177.3130  138.2550 C   0  0  0  0  0  0  0  0  0  0  0  0
  181.6340  179.1910  139.7850 C   0  0  0  0  0  3  0  0  0  0  0  0
  180.7640  177.0260  140.4260 C   0  0  0  0  0  3  0  0  0  0  0  0
  183.6960  175.7950  135.4930 O   0  0  0  0  0  0  0  0  0  0  0  0
  182.2040  176.7390  137.0000 N   0  0  0  0  0  2  0  0  0  0  0  0
  183.4990  176.2320  136.6590 C   0  0  0  0  0  0  0  0  0  0  0  0
  184.5340  176.2200  137.5980 O   0  0  0  0  0  0  0  0  0  0  0  0
  185.8960  176.1190  137.2140 C   0  0  0  0  0  1  0  0  0  0  0  0
  1 32  1  6  0  0  0
  1  2  1  0  0  0  0
  3  5  1  0  0  0  0
  4  7  1  0  0  0  0
  4  8  1  0  0  0  0
  5  6  2  0  0  0  0
  6 14  1  0  0  0  0
  6  4  1  0  0  0  0
  7  8  1  0  0  0  0
  9  2  1  1  0  0  0
  9  4  1  0  0  0  0
 10  3  1  1  0  0  0
 10  1  1  0  0  0  0
 10  9  1  0  0  0  0
 11 15  1  0  0  0  0
 13 15  2  0  0  0  0
 14 11  2  0  0  0  0
 15 12  1  0  0  0  0
 16 13  1  0  0  0  0
 17 16  2  0  0  0  0
 17 14  1  0  0  0  0
 18 16  1  0  0  0  0
 19 18  1  0  0  0  0
 21 20  1  0  0  0  0
 21 19  1  0  0  0  0
 22 23  1  1  0  0  0
 22 21  1  0  0  0  0
 23 24  2  0  0  0  0
 25 22  1  0  0  0  0
 26 29  1  6  0  0  0
 26 25  1  0  0  0  0
 27 26  1  0  0  0  0
 28 27  1  0  0  0  0
 30 29  1  0  0  0  0
 30 31  1  0  0  0  0
 33 32  1  0  0  0  0
 34 39  1  0  0  0  0
 35 33  1  0  0  0  0
 36 38  2  0  0  0  0
 37 36  1  0  0  0  0
 37 34  2  0  0  0  0
 38 35  1  0  0  0  0
 39 35  2  0  0  0  0
 40 42  2  0  0  0  0
 41 37  1  0  0  0  0
 42 41  1  0  0  0  0
 42 43  1  0  0  0  0
 44 43  1  0  0  0  0
M  END
>  <MODEL>
8

>  <REMARK>
 VINA RESULT:      -7.6      2.313      7.894
  Name = 
  16 active torsions:
  status: ('A' for Active; 'I' for Inactive)
    1  A    between atoms: C_1  and  C_40
    2  A    between atoms: O_3  and  C_24
    3  A    between atoms: C_7  and  C_41
    4  A    between atoms: O_8  and  C_13
    5  A    between atoms: O_8  and  C_28
    6  A    between atoms: C_9  and  O_17
    7  A    between atoms: C_13  and  C_14
    8  A    between atoms: C_13  and  C_41
    9  A    between atoms: C_16  and  C_28
   10  A    between atoms: O_17  and  C_40
   11  A    between atoms: C_18  and  N_26
   12  A    between atoms: C_18  and  C_42
   13  A    between atoms: N_19  and  C_20
   14  A    between atoms: N_26  and  C_28
   15  A    between atoms: C_29  and  C_33
   16  A    between atoms: C_37  and  C_42
                            x       y       z     vdW  Elec       q    Type
                         _______ _______ _______ _____ _____    ______ ____

>  <TORSDO>
F 16

$$$$
=
 OpenBabel11042410363D

 44 48  0  0  1  0  0  0  0  0999 V2000
  189.0090  177.9440  146.2300 C   0  0  2  0  0  3  0  0  0  0  0  0
  187.9260  178.4300  147.0560 N   0  0  0  0  0  2  0  0  0  0  0  0
  188.0350  177.6110  144.2060 N   0  0  0  0  0  2  0  0  0  0  0  0
  185.9380  178.2290  145.7600 C   0  0  0  0  0  0  0  0  0  0  0  0
  186.8070  177.8890  143.5490 C   0  0  0  0  0  3  0  0  0  0  0  0
  185.7270  178.1440  144.2640 C   0  0  0  0  0  0  0  0  0  0  0  0
  184.6910  178.0020  146.5900 C   0  0  0  0  0  2  0  0  0  0  0  0
  185.3310  179.3810  146.5450 C   0  0  0  0  0  2  0  0  0  0  0  0
  187.0860  177.5220  146.3770 N   0  0  1  0  0  0  0  0  0  0  0  0
  188.1200  177.0650  145.5040 N   0  0  2  0  0  0  0  0  0  0  0  0
  183.2380  178.6030  144.2560 C   0  0  0  0  0  3  0  0  0  0  0  0
  180.8680  179.0520  144.2930 O   0  0  0  0  0  1  0  0  0  0  0  0
  182.0420  178.9830  142.1890 C   0  0  0  0  0  3  0  0  0  0  0  0
  184.4420  178.4260  143.5550 C   0  0  0  0  0  0  0  0  0  0  0  0
  182.0460  178.8780  143.5800 C   0  0  0  0  0  0  0  0  0  0  0  0
  183.2290  178.8100  141.4720 C   0  0  0  0  0  0  0  0  0  0  0  0
  184.4210  178.5430  142.1520 C   0  0  0  0  0  3  0  0  0  0  0  0
  183.2350  178.9610  139.9920 C   0  0  0  0  0  2  0  0  0  0  0  0
  184.1440  177.9130  139.3710 C   0  0  0  0  0  2  0  0  0  0  0  0
  182.8370  176.0500  138.9700 C   0  0  0  0  0  1  0  0  0  0  0  0
  183.4370  177.2030  138.3140 N   0  0  0  0  0  0  0  0  0  0  0  0
  184.4100  176.7080  137.3250 C   0  0  1  0  0  3  0  0  0  0  0  0
  183.9800  177.0700  135.9260 C   0  0  0  0  0  3  0  0  0  0  0  0
  183.2350  176.2470  135.1890 C   0  0  0  0  0  2  0  0  0  0  0  0
  185.6920  177.2520  137.5690 O   0  0  0  0  0  0  0  0  0  0  0  0
  186.6350  176.6880  136.6730 C   0  0  2  0  0  3  0  0  0  0  0  0
  187.3700  175.4760  137.2490 C   0  0  0  0  0  2  0  0  0  0  0  0
  186.8240  174.1980  136.6420 C   0  0  0  0  0  1  0  0  0  0  0  0
  187.5890  177.7210  136.0760 C   0  0  0  0  0  2  0  0  0  0  0  0
  187.5600  179.0020  136.8890 C   0  0  0  0  0  2  0  0  0  0  0  0
  188.8620  179.3700  137.2180 O   0  0  0  0  0  1  0  0  0  0  0  0
  189.9720  177.1180  147.0710 C   0  0  0  0  0  2  0  0  0  0  0  0
  191.2230  176.9840  146.4030 O   0  0  0  0  0  0  0  0  0  0  0  0
  191.7390  178.3180  142.9960 C   0  0  0  0  0  3  0  0  0  0  0  0
  191.3520  177.0210  145.0100 C   0  0  0  0  0  0  0  0  0  0  0  0
  191.4030  175.9280  142.8420 C   0  0  0  0  0  3  0  0  0  0  0  0
  191.6460  177.1590  142.2160 C   0  0  0  0  0  0  0  0  0  0  0  0
  191.2570  175.8580  144.2300 C   0  0  0  0  0  3  0  0  0  0  0  0
  191.5920  178.2490  144.3850 C   0  0  0  0  0  3  0  0  0  0  0  0
  191.1150  177.2110  138.5840 O   0  0  0  0  0  0  0  0  0  0  0  0
  191.8150  177.2680  140.7960 N   0  0  0  0  0  2  0  0  0  0  0  0
  190.7950  177.1280  139.8000 C   0  0  0  0  0  0  0  0  0  0  0  0
  189.4660  176.9000  140.1640 O   0  0  0  0  0  0  0  0  0  0  0  0
  188.5560  177.9650  140.3940 C   0  0  0  0  0  1  0  0  0  0  0  0
  1  2  1  0  0  0  0
  1 32  1  1  0  0  0
  4  9  1  0  0  0  0
  4  8  1  0  0  0  0
  4  7  1  0  0  0  0
  5  3  1  0  0  0  0
  5  6  2  0  0  0  0
  6  4  1  0  0  0  0
  8  7  1  0  0  0  0
  9  2  1  1  0  0  0
 10  3  1  6  0  0  0
 10  1  1  0  0  0  0
 10  9  1  0  0  0  0
 13 15  2  0  0  0  0
 14 11  2  0  0  0  0
 14  6  1  0  0  0  0
 15 11  1  0  0  0  0
 15 12  1  0  0  0  0
 16 17  2  0  0  0  0
 16 13  1  0  0  0  0
 17 14  1  0  0  0  0
 18 16  1  0  0  0  0
 19 18  1  0  0  0  0
 21 20  1  0  0  0  0
 21 19  1  0  0  0  0
 22 23  1  6  0  0  0
 22 25  1  0  0  0  0
 22 21  1  0  0  0  0
 24 23  2  0  0  0  0
 26 29  1  1  0  0  0
 26 27  1  0  0  0  0
 26 25  1  0  0  0  0
 28 27  1  0  0  0  0
 29 30  1  0  0  0  0
 30 31  1  0  0  0  0
 33 32  1  0  0  0  0
 34 39  1  0  0  0  0
 35 33  1  0  0  0  0
 36 38  2  0  0  0  0
 37 36  1  0  0  0  0
 37 34  2  0  0  0  0
 38 35  1  0  0  0  0
 39 35  2  0  0  0  0
 40 42  2  0  0  0  0
 41 37  1  0  0  0  0
 42 43  1  0  0  0  0
 42 41  1  0  0  0  0
 43 44  1  0  0  0  0
M  END
>  <MODEL>
9

>  <REMARK>
 VINA RESULT:      -7.4      2.173      7.542
  Name = 
  16 active torsions:
  status: ('A' for Active; 'I' for Inactive)
    1  A    between atoms: C_1  and  C_40
    2  A    between atoms: O_3  and  C_24
    3  A    between atoms: C_7  and  C_41
    4  A    between atoms: O_8  and  C_13
    5  A    between atoms: O_8  and  C_28
    6  A    between atoms: C_9  and  O_17
    7  A    between atoms: C_13  and  C_14
    8  A    between atoms: C_13  and  C_41
    9  A    between atoms: C_16  and  C_28
   10  A    between atoms: O_17  and  C_40
   11  A    between atoms: C_18  and  N_26
   12  A    between atoms: C_18  and  C_42
   13  A    between atoms: N_19  and  C_20
   14  A    between atoms: N_26  and  C_28
   15  A    between atoms: C_29  and  C_33
   16  A    between atoms: C_37  and  C_42
                            x       y       z     vdW  Elec       q    Type
                         _______ _______ _______ _____ _____    ______ ____

>  <TORSDO>
F 16

$$$$
