=
 OpenBabel11042410553D

 26 29  0  0  1  0  0  0  0  0999 V2000
  182.6070  178.4130  138.5730 C   0  0  1  0  0  3  0  0  0  0  0  0
  186.7950  178.1420  138.8270 S   0  0  0  0  0  0  0  0  0  0  0  0
  181.7580  177.5160  139.1100 C   0  0  1  0  0  3  0  0  0  0  0  0
  185.3240  176.6120  136.8760 C   0  0  2  0  0  3  0  0  0  0  0  0
  183.1700  179.5990  139.3610 C   0  0  1  0  0  3  0  0  0  0  0  0
  182.0540  176.0840  138.9050 C   0  0  0  0  0  0  0  0  0  0  0  0
  186.1810  177.8800  137.1060 C   0  0  0  0  0  2  0  0  0  0  0  0
  183.4830  177.9830  137.5280 N   0  0  0  0  0  2  0  0  0  0  0  0
  180.0570  179.2140  139.9220 C   0  0  0  0  0  1  0  0  0  0  0  0
  185.2280  176.3490  135.3860 C   0  0  0  0  0  1  0  0  0  0  0  0
  185.2270  178.5730  141.1340 C   0  0  0  0  0  2  0  0  0  0  0  0
  180.6160  177.8700  139.9170 N   0  0  0  0  0  0  0  0  0  0  0  0
  182.9190  179.5900  140.8890 C   0  0  0  0  0  2  0  0  0  0  0  0
  181.2740  175.1740  139.4910 C   0  0  0  0  0  3  0  0  0  0  0  0
  179.8160  176.8160  140.4660 C   0  0  0  0  0  3  0  0  0  0  0  0
  183.3570  175.6660  138.2760 C   0  0  0  0  0  2  0  0  0  0  0  0
  180.1270  175.5680  140.2630 N   0  0  0  0  0  0  0  0  0  0  0  0
  185.1980  178.5520  139.6180 C   0  0  1  0  0  3  0  0  0  0  0  0
  183.9440  176.7740  137.4400 C   0  0  2  0  0  3  0  0  0  0  0  0
  184.5740  179.7260  139.1220 O   0  0  0  0  0  0  0  0  0  0  0  0
  183.7740  178.5330  141.6020 C   0  0  2  0  0  3  0  0  0  0  0  0
  183.6510  178.8920  144.2440 C   0  0  0  0  0  0  0  0  0  0  0  0
  183.7060  178.7290  143.0510 C   0  0  0  0  0  0  0  0  0  0  0  0
  183.5850  179.0820  145.6310 N   0  0  0  0  0  2  0  0  0  0  0  0
  184.4780  178.4820  146.4530 O   0  0  0  0  0  0  0  0  0  0  0  0
  185.7030  179.0790  146.1530 C   0  0  0  0  0  1  0  0  0  0  0  0
  1  8  1  1  0  0  0
  1  3  1  0  0  0  0
  1  5  1  0  0  0  0
  2 18  1  0  0  0  0
  3  6  1  1  0  0  0
  3 12  1  0  0  0  0
  4 10  1  6  0  0  0
  4  7  1  0  0  0  0
  4 19  1  0  0  0  0
  5 13  1  1  0  0  0
  6 14  2  0  0  0  0
  7  2  1  0  0  0  0
 11 21  1  0  0  0  0
 12  9  1  0  0  0  0
 12 15  1  0  0  0  0
 13 21  1  0  0  0  0
 14 17  1  0  0  0  0
 16  6  1  0  0  0  0
 17 15  2  0  0  0  0
 18 11  1  1  0  0  0
 19  8  1  0  0  0  0
 19 16  1  1  0  0  0
 20  5  1  0  0  0  0
 20 18  1  0  0  0  0
 21 23  1  1  0  0  0
 22 24  1  0  0  0  0
 23 22  3  0  0  0  0
 24 25  1  0  0  0  0
 26 25  1  0  0  0  0
M  END
>  <MODEL>
1

>  <REMARK>
 VINA RESULT:      -5.8      0.000      0.000
  Name = 
  3 active torsions:
  status: ('A' for Active; 'I' for Inactive)
    1  A    between atoms: C_7  and  N_9
    2  A    between atoms: N_9  and  O_14
    3  A    between atoms: C_12  and  C_26
                            x       y       z     vdW  Elec       q    Type
                         _______ _______ _______ _____ _____    ______ ____

>  <TORSDO>
F 3

$$$$
=
 OpenBabel11042410553D

 26 29  0  0  1  0  0  0  0  0999 V2000
  188.5580  176.0000  135.8480 C   0  0  1  0  0  3  0  0  0  0  0  0
  192.2660  176.3230  137.8020 S   0  0  0  0  0  0  0  0  0  0  0  0
  187.5300  175.2550  136.2960 C   0  0  1  0  0  3  0  0  0  0  0  0
  191.6590  174.0500  136.1370 C   0  0  2  0  0  3  0  0  0  0  0  0
  188.7970  177.4440  136.3000 C   0  0  1  0  0  3  0  0  0  0  0  0
  187.8290  173.8850  136.7620 C   0  0  0  0  0  0  0  0  0  0  0  0
  192.3960  175.4090  136.2030 C   0  0  0  0  0  2  0  0  0  0  0  0
  189.7670  175.3380  135.4650 N   0  0  0  0  0  2  0  0  0  0  0  0
  185.7130  176.9190  135.6940 C   0  0  0  0  0  1  0  0  0  0  0  0
  192.1670  173.2750  134.9370 C   0  0  0  0  0  1  0  0  0  0  0  0
  189.9140  177.3460  138.9770 C   0  0  0  0  0  2  0  0  0  0  0  0
  186.1730  175.7320  136.4000 N   0  0  0  0  0  0  0  0  0  0  0  0
  187.9460  177.9380  137.4940 C   0  0  0  0  0  2  0  0  0  0  0  0
  186.8440  173.1530  137.2830 C   0  0  0  0  0  3  0  0  0  0  0  0
  185.1790  174.8500  136.9360 C   0  0  0  0  0  3  0  0  0  0  0  0
  189.2580  173.4290  136.8940 C   0  0  0  0  0  2  0  0  0  0  0  0
  185.4980  173.6550  137.3420 N   0  0  0  0  0  0  0  0  0  0  0  0
  190.5020  176.7950  137.6940 C   0  0  1  0  0  3  0  0  0  0  0  0
  190.1760  174.2360  136.0140 C   0  0  2  0  0  3  0  0  0  0  0  0
  190.1810  177.6410  136.6010 O   0  0  0  0  0  0  0  0  0  0  0  0
  188.3950  177.3030  138.8180 C   0  0  2  0  0  3  0  0  0  0  0  0
  187.2220  178.5430  140.8690 C   0  0  0  0  0  0  0  0  0  0  0  0
  187.7520  177.9830  139.9430 C   0  0  0  0  0  0  0  0  0  0  0  0
  186.6030  179.1960  141.9450 N   0  0  0  0  0  2  0  0  0  0  0  0
  185.3030  179.5680  141.8710 O   0  0  0  0  0  0  0  0  0  0  0  0
  184.5800  178.4130  142.1740 C   0  0  0  0  0  1  0  0  0  0  0  0
  1  8  1  1  0  0  0
  1  3  1  0  0  0  0
  1  5  1  0  0  0  0
  3 12  1  0  0  0  0
  3  6  1  1  0  0  0
  4 10  1  6  0  0  0
  4  7  1  0  0  0  0
  5 20  1  0  0  0  0
  5 13  1  1  0  0  0
  6 16  1  0  0  0  0
  6 14  2  0  0  0  0
  7  2  1  0  0  0  0
  8 19  1  0  0  0  0
  9 12  1  0  0  0  0
 12 15  1  0  0  0  0
 13 21  1  0  0  0  0
 14 17  1  0  0  0  0
 15 17  2  0  0  0  0
 18  2  1  0  0  0  0
 18 11  1  1  0  0  0
 19  4  1  0  0  0  0
 19 16  1  1  0  0  0
 20 18  1  0  0  0  0
 21 11  1  0  0  0  0
 21 23  1  1  0  0  0
 22 24  1  0  0  0  0
 23 22  3  0  0  0  0
 25 24  1  0  0  0  0
 25 26  1  0  0  0  0
M  END
>  <MODEL>
2

>  <REMARK>
 VINA RESULT:      -5.1      4.460      6.283
  Name = 
  3 active torsions:
  status: ('A' for Active; 'I' for Inactive)
    1  A    between atoms: C_7  and  N_9
    2  A    between atoms: N_9  and  O_14
    3  A    between atoms: C_12  and  C_26
                            x       y       z     vdW  Elec       q    Type
                         _______ _______ _______ _____ _____    ______ ____

>  <TORSDO>
F 3

$$$$
=
 OpenBabel11042410553D

 26 29  0  0  1  0  0  0  0  0999 V2000
  189.0230  177.0390  136.1870 C   0  0  1  0  0  3  0  0  0  0  0  0
  191.0210  177.1730  139.8830 S   0  0  0  0  0  0  0  0  0  0  0  0
  188.0050  176.2020  135.9080 C   0  0  1  0  0  3  0  0  0  0  0  0
  191.6670  175.1650  137.9190 C   0  0  2  0  0  3  0  0  0  0  0  0
  188.8180  178.4030  136.8530 C   0  0  1  0  0  3  0  0  0  0  0  0
  188.1540  174.7870  136.3050 C   0  0  0  0  0  0  0  0  0  0  0  0
  192.0960  176.5200  138.5310 C   0  0  0  0  0  2  0  0  0  0  0  0
  190.3110  176.4810  136.4630 N   0  0  0  0  0  2  0  0  0  0  0  0
  186.6330  177.8820  134.5930 C   0  0  0  0  0  1  0  0  0  0  0  0
  192.8250  174.5990  137.1210 C   0  0  0  0  0  1  0  0  0  0  0  0
  188.3110  177.9300  139.6720 C   0  0  0  0  0  2  0  0  0  0  0  0
  186.7660  176.6160  135.2990 N   0  0  0  0  0  0  0  0  0  0  0  0
  187.4070  178.6810  137.4260 C   0  0  0  0  0  2  0  0  0  0  0  0
  187.1310  173.9530  136.1120 C   0  0  0  0  0  3  0  0  0  0  0  0
  185.7440  175.6310  135.0950 C   0  0  0  0  0  3  0  0  0  0  0  0
  189.3240  174.3610  137.1520 C   0  0  0  0  0  2  0  0  0  0  0  0
  185.9220  174.3980  135.4740 N   0  0  0  0  0  0  0  0  0  0  0  0
  189.5570  177.6010  138.8740 C   0  0  1  0  0  3  0  0  0  0  0  0
  190.4770  175.3220  137.0200 C   0  0  2  0  0  3  0  0  0  0  0  0
  189.7870  178.5950  137.8870 O   0  0  0  0  0  0  0  0  0  0  0  0
  187.1360  177.8640  138.6980 C   0  0  2  0  0  3  0  0  0  0  0  0
  184.9100  178.7360  139.8850 C   0  0  0  0  0  0  0  0  0  0  0  0
  185.9160  178.3430  139.3490 C   0  0  0  0  0  0  0  0  0  0  0  0
  183.7420  179.1930  140.5110 N   0  0  0  0  0  2  0  0  0  0  0  0
  183.1710  178.4790  141.5100 O   0  0  0  0  0  0  0  0  0  0  0  0
  184.0280  178.6350  142.6000 C   0  0  0  0  0  1  0  0  0  0  0  0
  1  8  1  1  0  0  0
  1  5  1  0  0  0  0
  3  1  1  0  0  0  0
  3  6  1  1  0  0  0
  4 10  1  6  0  0  0
  4  7  1  0  0  0  0
  5 13  1  1  0  0  0
  5 20  1  0  0  0  0
  6 16  1  0  0  0  0
  7  2  1  0  0  0  0
  8 19  1  0  0  0  0
  9 12  1  0  0  0  0
 12  3  1  0  0  0  0
 13 21  1  0  0  0  0
 14  6  2  0  0  0  0
 15 12  1  0  0  0  0
 15 17  2  0  0  0  0
 17 14  1  0  0  0  0
 18 11  1  1  0  0  0
 18  2  1  0  0  0  0
 19 16  1  1  0  0  0
 19  4  1  0  0  0  0
 20 18  1  0  0  0  0
 21 23  1  1  0  0  0
 21 11  1  0  0  0  0
 22 24  1  0  0  0  0
 23 22  3  0  0  0  0
 24 25  1  0  0  0  0
 25 26  1  0  0  0  0
M  END
>  <MODEL>
3

>  <REMARK>
 VINA RESULT:      -5.0      4.027      6.239
  Name = 
  3 active torsions:
  status: ('A' for Active; 'I' for Inactive)
    1  A    between atoms: C_7  and  N_9
    2  A    between atoms: N_9  and  O_14
    3  A    between atoms: C_12  and  C_26
                            x       y       z     vdW  Elec       q    Type
                         _______ _______ _______ _____ _____    ______ ____

>  <TORSDO>
F 3

$$$$
=
 OpenBabel11042410553D

 26 29  0  0  1  0  0  0  0  0999 V2000
  181.1170  177.8530  139.4380 C   0  0  1  0  0  3  0  0  0  0  0  0
  183.1270  178.9750  142.9570 S   0  0  0  0  0  0  0  0  0  0  0  0
  180.9740  178.6500  138.3620 C   0  0  1  0  0  3  0  0  0  0  0  0
  180.4100  179.8050  142.4710 C   0  0  2  0  0  3  0  0  0  0  0  0
  182.3440  176.9630  139.6570 C   0  0  1  0  0  3  0  0  0  0  0  0
  180.5670  180.0500  138.5970 C   0  0  0  0  0  0  0  0  0  0  0  0
  181.3080  178.7920  143.2190 C   0  0  0  0  0  2  0  0  0  0  0  0
  180.4990  178.2460  140.6670 N   0  0  0  0  0  2  0  0  0  0  0  0
  181.3460  176.8320  136.6340 C   0  0  0  0  0  1  0  0  0  0  0  0
  179.0200  179.7670  143.0740 C   0  0  0  0  0  1  0  0  0  0  0  0
  184.5220  178.6770  140.5220 C   0  0  0  0  0  2  0  0  0  0  0  0
  181.2500  178.2340  137.0100 N   0  0  0  0  0  0  0  0  0  0  0  0
  183.5430  177.2030  138.7070 C   0  0  0  0  0  2  0  0  0  0  0  0
  180.4940  180.8820  137.5570 C   0  0  0  0  0  3  0  0  0  0  0  0
  181.0990  179.1960  135.9570 C   0  0  0  0  0  3  0  0  0  0  0  0
  180.5000  180.5910  140.0010 C   0  0  0  0  0  2  0  0  0  0  0  0
  180.7470  180.4220  136.2190 N   0  0  0  0  0  0  0  0  0  0  0  0
  183.2010  178.4140  141.2170 C   0  0  1  0  0  3  0  0  0  0  0  0
  180.3220  179.4850  141.0080 C   0  0  2  0  0  3  0  0  0  0  0  0
  182.7940  177.0700  141.0100 O   0  0  0  0  0  0  0  0  0  0  0  0
  184.2690  178.5190  139.0240 C   0  0  2  0  0  3  0  0  0  0  0  0
  186.5750  178.6350  137.6860 C   0  0  0  0  0  0  0  0  0  0  0  0
  185.5330  178.5820  138.2900 C   0  0  0  0  0  0  0  0  0  0  0  0
  187.7880  178.6960  136.9850 N   0  0  0  0  0  2  0  0  0  0  0  0
  188.8410  179.3820  137.4890 O   0  0  0  0  0  0  0  0  0  0  0  0
  189.2390  178.6580  138.6140 C   0  0  0  0  0  1  0  0  0  0  0  0
  1  5  1  0  0  0  0
  1  8  1  1  0  0  0
  2  7  1  0  0  0  0
  3  6  1  1  0  0  0
  3  1  1  0  0  0  0
  4 10  1  1  0  0  0
  4  7  1  0  0  0  0
  5 13  1  6  0  0  0
  5 20  1  0  0  0  0
  6 16  1  0  0  0  0
  8 19  1  0  0  0  0
  9 12  1  0  0  0  0
 12  3  1  0  0  0  0
 13 21  1  0  0  0  0
 14  6  2  0  0  0  0
 15 17  2  0  0  0  0
 15 12  1  0  0  0  0
 17 14  1  0  0  0  0
 18 11  1  1  0  0  0
 18  2  1  0  0  0  0
 19 16  1  6  0  0  0
 19  4  1  0  0  0  0
 20 18  1  0  0  0  0
 21 23  1  6  0  0  0
 21 11  1  0  0  0  0
 22 23  3  0  0  0  0
 24 25  1  0  0  0  0
 24 22  1  0  0  0  0
 25 26  1  0  0  0  0
M  END
>  <MODEL>
4

>  <REMARK>
 VINA RESULT:      -4.8      2.846      5.877
  Name = 
  3 active torsions:
  status: ('A' for Active; 'I' for Inactive)
    1  A    between atoms: C_7  and  N_9
    2  A    between atoms: N_9  and  O_14
    3  A    between atoms: C_12  and  C_26
                            x       y       z     vdW  Elec       q    Type
                         _______ _______ _______ _____ _____    ______ ____

>  <TORSDO>
F 3

$$$$
=
 OpenBabel11042410553D

 26 29  0  0  1  0  0  0  0  0999 V2000
  187.1990  176.2140  135.8660 C   0  0  1  0  0  3  0  0  0  0  0  0
  191.0080  176.7720  137.5570 S   0  0  0  0  0  0  0  0  0  0  0  0
  186.2370  175.4440  136.4090 C   0  0  1  0  0  3  0  0  0  0  0  0
  190.3980  174.4100  136.0210 C   0  0  2  0  0  3  0  0  0  0  0  0
  187.4020  177.6830  136.2480 C   0  0  1  0  0  3  0  0  0  0  0  0
  186.6270  174.1080  136.9050 C   0  0  0  0  0  0  0  0  0  0  0  0
  191.0760  175.8000  135.9880 C   0  0  0  0  0  2  0  0  0  0  0  0
  188.4100  175.5880  135.4290 N   0  0  0  0  0  2  0  0  0  0  0  0
  184.3120  177.0040  135.8680 C   0  0  0  0  0  1  0  0  0  0  0  0
  190.8610  173.6100  134.8200 C   0  0  0  0  0  1  0  0  0  0  0  0
  188.6940  177.7400  138.8470 C   0  0  0  0  0  2  0  0  0  0  0  0
  184.8700  175.8670  136.5850 N   0  0  0  0  0  0  0  0  0  0  0  0
  186.6090  178.1880  137.4770 C   0  0  0  0  0  2  0  0  0  0  0  0
  185.7120  173.3560  137.5170 C   0  0  0  0  0  3  0  0  0  0  0  0
  183.9530  174.9660  137.2180 C   0  0  0  0  0  3  0  0  0  0  0  0
  188.0810  173.7180  136.9590 C   0  0  0  0  0  2  0  0  0  0  0  0
  184.3510  173.8020  137.6470 N   0  0  0  0  0  0  0  0  0  0  0  0
  189.2220  177.1640  137.5490 C   0  0  1  0  0  3  0  0  0  0  0  0
  188.9030  174.5280  135.9900 C   0  0  2  0  0  3  0  0  0  0  0  0
  188.7920  177.9510  136.4490 O   0  0  0  0  0  0  0  0  0  0  0  0
  187.1710  177.6260  138.7910 C   0  0  2  0  0  3  0  0  0  0  0  0
  186.0780  178.8970  140.8680 C   0  0  0  0  0  0  0  0  0  0  0  0
  186.5720  178.3220  139.9300 C   0  0  0  0  0  0  0  0  0  0  0  0
  185.5020  179.5640  141.9580 N   0  0  0  0  0  2  0  0  0  0  0  0
  184.3940  179.0720  142.5610 O   0  0  0  0  0  0  0  0  0  0  0  0
  184.7960  178.7700  143.8630 C   0  0  0  0  0  1  0  0  0  0  0  0
  1  8  1  1  0  0  0
  1  5  1  0  0  0  0
  1  3  1  0  0  0  0
  3 12  1  0  0  0  0
  3  6  1  1  0  0  0
  4 10  1  6  0  0  0
  5 20  1  0  0  0  0
  5 13  1  1  0  0  0
  6 16  1  0  0  0  0
  6 14  2  0  0  0  0
  7  4  1  0  0  0  0
  7  2  1  0  0  0  0
  8 19  1  0  0  0  0
  9 12  1  0  0  0  0
 12 15  1  0  0  0  0
 13 21  1  0  0  0  0
 14 17  1  0  0  0  0
 15 17  2  0  0  0  0
 18  2  1  0  0  0  0
 18 11  1  1  0  0  0
 19  4  1  0  0  0  0
 19 16  1  1  0  0  0
 20 18  1  0  0  0  0
 21 11  1  0  0  0  0
 21 23  1  1  0  0  0
 22 24  1  0  0  0  0
 23 22  3  0  0  0  0
 24 25  1  0  0  0  0
 25 26  1  0  0  0  0
M  END
>  <MODEL>
5

>  <REMARK>
 VINA RESULT:      -4.8      3.571      5.149
  Name = 
  3 active torsions:
  status: ('A' for Active; 'I' for Inactive)
    1  A    between atoms: C_7  and  N_9
    2  A    between atoms: N_9  and  O_14
    3  A    between atoms: C_12  and  C_26
                            x       y       z     vdW  Elec       q    Type
                         _______ _______ _______ _____ _____    ______ ____

>  <TORSDO>
F 3

$$$$
=
 OpenBabel11042410553D

 26 29  0  0  1  0  0  0  0  0999 V2000
  181.9910  177.0260  138.8900 C   0  0  1  0  0  3  0  0  0  0  0  0
  179.8440  176.8410  135.2800 S   0  0  0  0  0  0  0  0  0  0  0  0
  183.2110  177.5820  139.0160 C   0  0  1  0  0  3  0  0  0  0  0  0
  181.9350  174.9440  135.8620 C   0  0  2  0  0  3  0  0  0  0  0  0
  180.6950  177.8350  139.0000 C   0  0  1  0  0  3  0  0  0  0  0  0
  184.2240  177.2480  137.9940 C   0  0  0  0  0  0  0  0  0  0  0  0
  180.4050  175.1750  135.8450 C   0  0  0  0  0  2  0  0  0  0  0  0
  181.8480  175.8710  138.0590 N   0  0  0  0  0  2  0  0  0  0  0  0
  182.7750  178.6750  141.2620 C   0  0  0  0  0  1  0  0  0  0  0  0
  182.2050  173.4570  135.9740 C   0  0  0  0  0  1  0  0  0  0  0  0
  180.3780  179.3170  136.5240 C   0  0  0  0  0  2  0  0  0  0  0  0
  183.5670  178.5200  140.0500 N   0  0  0  0  0  0  0  0  0  0  0  0
  180.8460  179.3750  139.0140 C   0  0  0  0  0  2  0  0  0  0  0  0
  185.4160  177.8430  138.0490 C   0  0  0  0  0  3  0  0  0  0  0  0
  184.8900  179.0720  140.0460 C   0  0  0  0  0  3  0  0  0  0  0  0
  183.8300  176.4650  136.7690 C   0  0  0  0  0  2  0  0  0  0  0  0
  185.7420  178.7520  139.1150 N   0  0  0  0  0  0  0  0  0  0  0  0
  180.4100  177.8150  136.7210 C   0  0  1  0  0  3  0  0  0  0  0  0
  182.5840  175.6540  137.0130 C   0  0  2  0  0  3  0  0  0  0  0  0
  179.7950  177.4660  137.9510 O   0  0  0  0  0  0  0  0  0  0  0  0
  181.2350  179.9240  137.6330 C   0  0  2  0  0  3  0  0  0  0  0  0
  181.0120  182.5840  137.6130 C   0  0  0  0  0  0  0  0  0  0  0  0
  181.1130  181.3830  137.6230 C   0  0  0  0  0  0  0  0  0  0  0  0
  180.8930  183.9810  137.6000 N   0  0  0  0  0  2  0  0  0  0  0  0
  181.5610  184.7220  136.6850 O   0  0  0  0  0  0  0  0  0  0  0  0
  180.9180  184.4640  135.4730 C   0  0  0  0  0  1  0  0  0  0  0  0
  1  8  1  6  0  0  0
  1  5  1  0  0  0  0
  1  3  1  0  0  0  0
  2  7  1  0  0  0  0
  2 18  1  0  0  0  0
  3  6  1  6  0  0  0
  3 12  1  0  0  0  0
  4 10  1  1  0  0  0
  4 19  1  0  0  0  0
  5 13  1  6  0  0  0
  6 14  2  0  0  0  0
  7  4  1  0  0  0  0
 11 21  1  0  0  0  0
 12  9  1  0  0  0  0
 14 17  1  0  0  0  0
 15 12  1  0  0  0  0
 16  6  1  0  0  0  0
 17 15  2  0  0  0  0
 18 11  1  6  0  0  0
 18 20  1  0  0  0  0
 19 16  1  6  0  0  0
 19  8  1  0  0  0  0
 20  5  1  0  0  0  0
 21 23  1  1  0  0  0
 21 13  1  0  0  0  0
 22 23  3  0  0  0  0
 24 22  1  0  0  0  0
 25 24  1  0  0  0  0
 26 25  1  0  0  0  0
M  END
>  <MODEL>
6

>  <REMARK>
 VINA RESULT:      -4.7      3.584      6.021
  Name = 
  3 active torsions:
  status: ('A' for Active; 'I' for Inactive)
    1  A    between atoms: C_7  and  N_9
    2  A    between atoms: N_9  and  O_14
    3  A    between atoms: C_12  and  C_26
                            x       y       z     vdW  Elec       q    Type
                         _______ _______ _______ _____ _____    ______ ____

>  <TORSDO>
F 3

$$$$
=
 OpenBabel11042410553D

 26 29  0  0  1  0  0  0  0  0999 V2000
  187.3900  175.0570  135.0580 C   0  0  1  0  0  3  0  0  0  0  0  0
  190.9750  176.2440  136.9070 S   0  0  0  0  0  0  0  0  0  0  0  0
  186.4130  174.3680  135.6770 C   0  0  1  0  0  3  0  0  0  0  0  0
  190.6330  173.5580  135.9190 C   0  0  2  0  0  3  0  0  0  0  0  0
  187.4860  176.5850  135.1020 C   0  0  1  0  0  3  0  0  0  0  0  0
  186.8090  173.2100  136.5050 C   0  0  0  0  0  0  0  0  0  0  0  0
  191.2470  174.9470  135.6220 C   0  0  0  0  0  2  0  0  0  0  0  0
  188.6660  174.4320  134.8910 N   0  0  0  0  0  2  0  0  0  0  0  0
  184.4850  175.6290  134.6150 C   0  0  0  0  0  1  0  0  0  0  0  0
  191.2540  172.5380  134.9860 C   0  0  0  0  0  1  0  0  0  0  0  0
  188.4970  177.3230  137.7210 C   0  0  0  0  0  2  0  0  0  0  0  0
  185.0170  174.7270  135.6250 N   0  0  0  0  0  0  0  0  0  0  0  0
  186.5470  177.3030  136.1020 C   0  0  0  0  0  2  0  0  0  0  0  0
  185.8700  172.5580  137.1920 C   0  0  0  0  0  3  0  0  0  0  0  0
  184.0810  173.9330  136.3670 C   0  0  0  0  0  3  0  0  0  0  0  0
  188.2650  172.9440  136.7800 C   0  0  0  0  0  2  0  0  0  0  0  0
  184.4850  172.9290  137.0900 N   0  0  0  0  0  0  0  0  0  0  0  0
  189.1820  176.5020  136.6460 C   0  0  1  0  0  3  0  0  0  0  0  0
  189.1460  173.5640  135.7260 C   0  0  2  0  0  3  0  0  0  0  0  0
  188.8340  176.9860  135.3590 O   0  0  0  0  0  0  0  0  0  0  0  0
  186.9950  177.0960  137.5560 C   0  0  2  0  0  3  0  0  0  0  0  0
  185.6380  178.7290  139.1720 C   0  0  0  0  0  0  0  0  0  0  0  0
  186.2510  177.9910  138.4410 C   0  0  0  0  0  0  0  0  0  0  0  0
  184.9270  179.5890  140.0200 N   0  0  0  0  0  2  0  0  0  0  0  0
  185.3050  179.7530  141.3100 O   0  0  0  0  0  0  0  0  0  0  0  0
  184.8330  178.6170  141.9720 C   0  0  0  0  0  1  0  0  0  0  0  0
  1  8  1  1  0  0  0
  1  5  1  0  0  0  0
  1  3  1  0  0  0  0
  3  6  1  1  0  0  0
  4 10  1  6  0  0  0
  5 20  1  0  0  0  0
  5 13  1  1  0  0  0
  6 16  1  0  0  0  0
  6 14  2  0  0  0  0
  7  4  1  0  0  0  0
  7  2  1  0  0  0  0
  8 19  1  0  0  0  0
  9 12  1  0  0  0  0
 12  3  1  0  0  0  0
 12 15  1  0  0  0  0
 13 21  1  0  0  0  0
 15 17  2  0  0  0  0
 17 14  1  0  0  0  0
 18  2  1  0  0  0  0
 18 11  1  1  0  0  0
 19  4  1  0  0  0  0
 19 16  1  1  0  0  0
 20 18  1  0  0  0  0
 21 11  1  0  0  0  0
 21 23  1  1  0  0  0
 22 24  1  0  0  0  0
 23 22  3  0  0  0  0
 24 25  1  0  0  0  0
 25 26  1  0  0  0  0
M  END
>  <MODEL>
7

>  <REMARK>
 VINA RESULT:      -4.7      4.020      6.095
  Name = 
  3 active torsions:
  status: ('A' for Active; 'I' for Inactive)
    1  A    between atoms: C_7  and  N_9
    2  A    between atoms: N_9  and  O_14
    3  A    between atoms: C_12  and  C_26
                            x       y       z     vdW  Elec       q    Type
                         _______ _______ _______ _____ _____    ______ ____

>  <TORSDO>
F 3

$$$$
=
 OpenBabel11042410553D

 26 29  0  0  1  0  0  0  0  0999 V2000
  188.9350  177.0650  136.7810 C   0  0  1  0  0  3  0  0  0  0  0  0
  192.6400  176.2340  138.5890 S   0  0  0  0  0  0  0  0  0  0  0  0
  187.8310  176.3120  136.9410 C   0  0  1  0  0  3  0  0  0  0  0  0
  191.8120  174.8540  136.1970 C   0  0  2  0  0  3  0  0  0  0  0  0
  189.3210  178.1900  137.7470 C   0  0  1  0  0  3  0  0  0  0  0  0
  187.9800  174.8460  136.8340 C   0  0  0  0  0  0  0  0  0  0  0  0
  192.6870  176.0000  136.7570 C   0  0  0  0  0  2  0  0  0  0  0  0
  190.0710  176.4840  136.1340 N   0  0  0  0  0  2  0  0  0  0  0  0
  186.2040  178.2530  137.0860 C   0  0  0  0  0  1  0  0  0  0  0  0
  192.2470  174.5550  134.7760 C   0  0  0  0  0  1  0  0  0  0  0  0
  190.3970  176.9550  140.1430 C   0  0  0  0  0  2  0  0  0  0  0  0
  186.5310  176.8460  137.2650 N   0  0  0  0  0  0  0  0  0  0  0  0
  188.5160  178.2680  139.0660 C   0  0  0  0  0  2  0  0  0  0  0  0
  186.9190  174.0720  137.0650 C   0  0  0  0  0  3  0  0  0  0  0  0
  185.4450  175.9300  137.4520 C   0  0  0  0  0  3  0  0  0  0  0  0
  189.3520  174.2330  136.7350 C   0  0  0  0  0  2  0  0  0  0  0  0
  185.6320  174.6450  137.3560 N   0  0  0  0  0  0  0  0  0  0  0  0
  190.9360  176.8860  138.7280 C   0  0  1  0  0  3  0  0  0  0  0  0
  190.3580  175.2210  136.2030 C   0  0  2  0  0  3  0  0  0  0  0  0
  190.7150  178.1160  138.0560 O   0  0  0  0  0  0  0  0  0  0  0  0
  188.8840  177.1290  140.0280 C   0  0  2  0  0  3  0  0  0  0  0  0
  187.8290  177.5910  142.4360 C   0  0  0  0  0  0  0  0  0  0  0  0
  188.3050  177.3820  141.3480 C   0  0  0  0  0  0  0  0  0  0  0  0
  187.2780  177.8340  143.7020 N   0  0  0  0  0  2  0  0  0  0  0  0
  187.9640  177.5180  144.8260 O   0  0  0  0  0  0  0  0  0  0  0  0
  187.1190  177.8780  145.8770 C   0  0  0  0  0  1  0  0  0  0  0  0
  1  8  1  1  0  0  0
  1  3  1  0  0  0  0
  1  5  1  0  0  0  0
  2 18  1  0  0  0  0
  3  6  1  1  0  0  0
  3 12  1  0  0  0  0
  4 10  1  6  0  0  0
  4 19  1  0  0  0  0
  4  7  1  0  0  0  0
  5 20  1  0  0  0  0
  5 13  1  1  0  0  0
  6 14  2  0  0  0  0
  7  2  1  0  0  0  0
  8 19  1  0  0  0  0
  9 12  1  0  0  0  0
 12 15  1  0  0  0  0
 13 21  1  0  0  0  0
 14 17  1  0  0  0  0
 16  6  1  0  0  0  0
 17 15  2  0  0  0  0
 18 11  1  1  0  0  0
 19 16  1  1  0  0  0
 20 18  1  0  0  0  0
 21 11  1  0  0  0  0
 21 23  1  1  0  0  0
 22 24  1  0  0  0  0
 23 22  3  0  0  0  0
 24 25  1  0  0  0  0
 25 26  1  0  0  0  0
M  END
>  <MODEL>
8

>  <REMARK>
 VINA RESULT:      -4.7      4.485      6.072
  Name = 
  3 active torsions:
  status: ('A' for Active; 'I' for Inactive)
    1  A    between atoms: C_7  and  N_9
    2  A    between atoms: N_9  and  O_14
    3  A    between atoms: C_12  and  C_26
                            x       y       z     vdW  Elec       q    Type
                         _______ _______ _______ _____ _____    ______ ____

>  <TORSDO>
F 3

$$$$
=
 OpenBabel11042410553D

 26 29  0  0  1  0  0  0  0  0999 V2000
  180.4410  177.0930  139.0690 C   0  0  1  0  0  3  0  0  0  0  0  0
  181.4580  176.9370  134.9930 S   0  0  0  0  0  0  0  0  0  0  0  0
  181.2450  177.5860  140.0300 C   0  0  1  0  0  3  0  0  0  0  0  0
  182.4260  174.9480  136.8410 C   0  0  2  0  0  3  0  0  0  0  0  0
  179.4900  177.9700  138.2500 C   0  0  1  0  0  3  0  0  0  0  0  0
  182.6640  177.1770  140.0130 C   0  0  0  0  0  0  0  0  0  0  0  0
  181.3680  175.2580  135.7550 C   0  0  0  0  0  2  0  0  0  0  0  0
  180.8650  175.9270  138.3560 N   0  0  0  0  0  2  0  0  0  0  0  0
  179.4110  178.7530  141.3380 C   0  0  0  0  0  1  0  0  0  0  0  0
  182.4590  173.4510  137.0810 C   0  0  0  0  0  1  0  0  0  0  0  0
  181.0900  179.4100  136.3020 C   0  0  0  0  0  2  0  0  0  0  0  0
  180.8170  178.5290  141.0340 N   0  0  0  0  0  0  0  0  0  0  0  0
  179.6690  179.5000  138.3980 C   0  0  0  0  0  2  0  0  0  0  0  0
  183.5000  177.7110  140.9050 C   0  0  0  0  0  3  0  0  0  0  0  0
  181.7850  179.0110  141.9750 C   0  0  0  0  0  3  0  0  0  0  0  0
  183.2070  176.3880  138.8520 C   0  0  0  0  0  2  0  0  0  0  0  0
  183.0270  178.6260  141.9090 N   0  0  0  0  0  0  0  0  0  0  0  0
  180.8940  177.9120  136.4340 C   0  0  1  0  0  3  0  0  0  0  0  0
  182.1110  175.6480  138.1290 C   0  0  2  0  0  3  0  0  0  0  0  0
  179.5740  177.6240  136.8650 O   0  0  0  0  0  0  0  0  0  0  0  0
  180.9460  179.9970  137.7050 C   0  0  2  0  0  3  0  0  0  0  0  0
  180.9450  182.6630  137.5880 C   0  0  0  0  0  0  0  0  0  0  0  0
  180.9450  181.4590  137.6410 C   0  0  0  0  0  0  0  0  0  0  0  0
  180.9460  184.0630  137.5250 N   0  0  0  0  0  2  0  0  0  0  0  0
  181.5560  184.7070  136.5020 O   0  0  0  0  0  0  0  0  0  0  0  0
  180.8040  184.3810  135.3710 C   0  0  0  0  0  1  0  0  0  0  0  0
  1  8  1  6  0  0  0
  1  3  1  0  0  0  0
  2  7  1  0  0  0  0
  2 18  1  0  0  0  0
  3  6  1  6  0  0  0
  3 12  1  0  0  0  0
  4 10  1  1  0  0  0
  4 19  1  0  0  0  0
  5 13  1  6  0  0  0
  5  1  1  0  0  0  0
  6 14  2  0  0  0  0
  7  4  1  0  0  0  0
 11 21  1  0  0  0  0
 12  9  1  0  0  0  0
 12 15  1  0  0  0  0
 14 17  1  0  0  0  0
 16  6  1  0  0  0  0
 17 15  2  0  0  0  0
 18 11  1  6  0  0  0
 18 20  1  0  0  0  0
 19  8  1  0  0  0  0
 19 16  1  6  0  0  0
 20  5  1  0  0  0  0
 21 23  1  6  0  0  0
 21 13  1  0  0  0  0
 22 23  3  0  0  0  0
 24 22  1  0  0  0  0
 25 24  1  0  0  0  0
 26 25  1  0  0  0  0
M  END
>  <MODEL>
9

>  <REMARK>
 VINA RESULT:      -4.6      3.642      5.787
  Name = 
  3 active torsions:
  status: ('A' for Active; 'I' for Inactive)
    1  A    between atoms: C_7  and  N_9
    2  A    between atoms: N_9  and  O_14
    3  A    between atoms: C_12  and  C_26
                            x       y       z     vdW  Elec       q    Type
                         _______ _______ _______ _____ _____    ______ ____

>  <TORSDO>
F 3

$$$$
