=
 OpenBabel11042412223D

 44 49  0  0  1  0  0  0  0  0999 V2000
  190.6570  176.9330  140.7520 C   0  0  0  0  0  0  0  0  0  0  0  0
  191.2740  176.9060  138.4030 C   0  0  0  0  0  0  0  0  0  0  0  0
  189.6060  177.4510  145.5130 C   0  0  1  0  0  3  0  0  0  0  0  0
  190.9860  176.6800  142.0250 C   0  0  0  0  0  3  0  0  0  0  0  0
  189.1280  177.7330  139.0910 N   0  0  0  0  0  0  0  0  0  0  0  0
  187.2890  178.0850  146.1690 C   0  0  0  0  0  3  0  0  0  0  0  0
  187.6010  178.0160  147.4690 C   0  0  0  0  0  3  0  0  0  0  0  0
  188.1140  177.3420  145.1450 C   0  0  1  0  0  3  0  0  0  0  0  0
  191.5750  176.6520  139.7430 C   0  0  0  0  0  3  0  0  0  0  0  0
  188.7870  177.3270  147.8940 N   0  0  0  0  0  2  0  0  0  0  0  0
  189.7860  176.9660  146.9340 C   0  0  0  0  0  0  0  0  0  0  0  0
  191.5610  176.2630  144.7460 O   0  0  0  0  0  0  0  0  0  0  0  0
  190.8060  176.3270  147.3020 O   0  0  0  0  0  0  0  0  0  0  0  0
  184.9530  179.0220  141.4200 C   0  0  0  0  0  1  0  0  0  0  0  0
  190.0090  177.4610  138.0900 C   0  0  0  0  0  0  0  0  0  0  0  0
  187.8150  177.7030  143.6910 C   0  0  0  0  0  0  0  0  0  0  0  0
  189.4030  177.4890  140.4020 C   0  0  0  0  0  0  0  0  0  0  0  0
  190.0700  176.9710  143.0910 N   0  0  0  0  0  0  0  0  0  0  0  0
  188.4770  177.7660  141.3400 C   0  0  0  0  0  0  0  0  0  0  0  0
  190.4640  176.8150  144.4590 C   0  0  0  0  0  0  0  0  0  0  0  0
  186.4850  178.0850  143.2430 N   0  0  0  0  0  0  0  0  0  0  0  0
  188.7710  177.4960  142.7590 C   0  0  0  0  0  0  0  0  0  0  0  0
  187.2010  178.3050  140.9830 N   0  0  0  0  0  0  0  0  0  0  0  0
  186.2660  178.4680  141.8660 C   0  0  0  0  0  0  0  0  0  0  0  0
  188.3600  178.4500  136.7210 O   0  0  0  0  0  1  0  0  0  0  0  0
  189.6010  177.8110  136.6990 C   0  0  0  0  0  2  0  0  0  0  0  0
  185.3110  177.8840  144.0890 C   0  0  0  0  0  2  0  0  0  0  0  0
  184.6360  179.2120  144.3700 C   0  0  0  0  0  2  0  0  0  0  0  0
  183.1880  178.9640  144.7340 C   0  0  0  0  0  2  0  0  0  0  0  0
  182.2880  179.7320  143.7860 C   0  0  0  0  0  2  0  0  0  0  0  0
  180.0210  180.7420  142.9470 O   0  0  0  0  0  1  0  0  0  0  0  0
  180.4850  180.2290  140.5530 O   0  0  0  0  0  1  0  0  0  0  0  0
  179.9930  179.3950  142.7540 N   0  0  0  0  0  0  0  0  0  0  0  0
  180.3290  179.0890  141.3540 C   0  0  2  0  0  0  0  0  0  0  0  0
  181.2770  178.7800  143.1440 C   0  0  1  0  0  3  0  0  0  0  0  0
  181.6660  178.4740  141.7110 C   0  0  0  0  0  2  0  0  0  0  0  0
  178.9310  178.2920  139.5770 O   0  0  0  0  0  0  0  0  0  0  0  0
  179.3740  178.1070  140.7430 C   0  0  0  0  0  0  0  0  0  0  0  0
  179.0290  176.9490  141.4310 O   0  0  0  0  0  1  0  0  0  0  0  0
  192.2820  176.5900  137.4300 N   0  0  0  0  0  2  0  0  0  0  0  0
  192.7740  175.2620  137.0970 C   0  0  0  0  0  2  0  0  0  0  0  0
  194.2370  175.1850  137.3700 C   0  0  0  0  0  0  0  0  0  0  0  0
  194.7620  174.1870  138.3430 C   0  0  0  0  0  1  0  0  0  0  0  0
  195.0080  175.9140  136.7720 O   0  0  0  0  0  0  0  0  0  0  0  0
  1  4  2  0  0  0  0
  2  9  2  0  0  0  0
  3 20  1  6  0  0  0
  3 11  1  0  0  0  0
  4 18  1  0  0  0  0
  5 17  1  0  0  0  0
  6  7  2  0  0  0  0
  7 10  1  0  0  0  0
  8  3  1  0  0  0  0
  8  6  1  1  0  0  0
  9  1  1  0  0  0  0
 11 13  2  0  0  0  0
 11 10  1  0  0  0  0
 14 24  1  0  0  0  0
 15  2  1  0  0  0  0
 15  5  2  0  0  0  0
 16  8  1  0  0  0  0
 17  1  1  0  0  0  0
 17 19  2  0  0  0  0
 18 20  1  0  0  0  0
 19 22  1  0  0  0  0
 20 12  2  0  0  0  0
 21 16  1  0  0  0  0
 21 27  1  0  0  0  0
 22 18  1  0  0  0  0
 22 16  2  0  0  0  0
 23 19  1  0  0  0  0
 23 24  2  0  0  0  0
 24 21  1  0  0  0  0
 26 25  1  0  0  0  0
 26 15  1  0  0  0  0
 27 28  1  0  0  0  0
 28 29  1  0  0  0  0
 30 29  1  0  0  0  0
 33 31  1  0  0  0  0
 33 35  1  0  0  0  0
 34 32  1  6  0  0  0
 34 36  1  0  0  0  0
 34 33  1  0  0  0  0
 35 30  1  6  0  0  0
 36 35  1  0  0  0  0
 37 38  2  0  0  0  0
 38 34  1  0  0  0  0
 38 39  1  0  0  0  0
 40  2  1  0  0  0  0
 41 42  1  0  0  0  0
 41 40  1  0  0  0  0
 42 43  1  0  0  0  0
 44 42  2  0  0  0  0
M  END
>  <MODEL>
1

>  <REMARK>
 VINA RESULT:      -9.6      0.000      0.000
  Name = 
  10 active torsions:
  status: ('A' for Active; 'I' for Inactive)
    1  A    between atoms: C_2  and  N_32
    2  A    between atoms: C_5  and  C_11
    3  A    between atoms: C_5  and  N_36
    4  A    between atoms: C_6  and  C_15
    5  A    between atoms: C_6  and  N_32
    6  A    between atoms: C_11  and  C_24
    7  A    between atoms: C_24  and  C_40
    8  A    between atoms: CA_25  and  C_43
    9  A    between atoms: C_26  and  C_37
   10  A    between atoms: C_35  and  C_40
                            x       y       z     vdW  Elec       q    Type
                         _______ _______ _______ _____ _____    ______ ____

>  <TORSDO>
F 10

$$$$
=
 OpenBabel11042412223D

 44 49  0  0  1  0  0  0  0  0999 V2000
  184.6020  178.5610  143.5260 C   0  0  0  0  0  0  0  0  0  0  0  0
  182.5840  178.9750  142.2410 C   0  0  0  0  0  0  0  0  0  0  0  0
  188.5570  177.2340  146.1040 C   0  0  1  0  0  3  0  0  0  0  0  0
  185.1910  178.4300  144.7210 C   0  0  0  0  0  3  0  0  0  0  0  0
  184.6700  178.5470  141.1330 N   0  0  0  0  0  0  0  0  0  0  0  0
  190.7440  177.0360  144.9310 C   0  0  0  0  0  3  0  0  0  0  0  0
  191.3690  176.7300  146.0740 C   0  0  0  0  0  3  0  0  0  0  0  0
  189.4260  177.7750  144.9550 C   0  0  1  0  0  3  0  0  0  0  0  0
  183.2380  178.8380  143.4660 C   0  0  0  0  0  3  0  0  0  0  0  0
  190.7430  177.0020  147.3380 N   0  0  0  0  0  2  0  0  0  0  0  0
  189.3490  177.3250  147.3890 C   0  0  0  0  0  0  0  0  0  0  0  0
  186.5510  178.0660  147.1570 O   0  0  0  0  0  0  0  0  0  0  0  0
  188.8110  177.6020  148.4920 O   0  0  0  0  0  0  0  0  0  0  0  0
  189.3740  177.7900  139.7880 C   0  0  0  0  0  1  0  0  0  0  0  0
  183.3390  178.8230  141.0520 C   0  0  0  0  0  0  0  0  0  0  0  0
  188.6980  177.8370  143.6130 C   0  0  0  0  0  0  0  0  0  0  0  0
  185.3250  178.4130  142.3180 C   0  0  0  0  0  0  0  0  0  0  0  0
  186.5910  178.1300  144.8200 N   0  0  0  0  0  0  0  0  0  0  0  0
  186.6470  178.1570  142.3240 C   0  0  0  0  0  0  0  0  0  0  0  0
  187.1980  177.8710  146.0910 C   0  0  0  0  0  0  0  0  0  0  0  0
  189.4080  177.8950  142.3450 N   0  0  0  0  0  0  0  0  0  0  0  0
  187.3600  178.0180  143.6070 C   0  0  0  0  0  0  0  0  0  0  0  0
  187.3820  178.0330  141.1020 N   0  0  0  0  0  0  0  0  0  0  0  0
  188.6710  177.8990  141.1010 C   0  0  0  0  0  0  0  0  0  0  0  0
  183.4520  179.8160  138.9140 O   0  0  0  0  0  1  0  0  0  0  0  0
  182.7340  178.9070  139.6920 C   0  0  0  0  0  2  0  0  0  0  0  0
  190.8420  178.1700  142.2880 C   0  0  0  0  0  2  0  0  0  0  0  0
  191.5510  177.0890  141.4970 C   0  0  0  0  0  2  0  0  0  0  0  0
  192.5970  177.7300  140.6100 C   0  0  0  0  0  2  0  0  0  0  0  0
  193.3710  176.6510  139.8780 C   0  0  0  0  0  2  0  0  0  0  0  0
  194.9280  175.3040  138.2580 O   0  0  0  0  0  1  0  0  0  0  0  0
  193.1030  173.7880  137.4950 O   0  0  0  0  0  1  0  0  0  0  0  0
  194.0310  176.0060  137.5120 N   0  0  0  0  0  0  0  0  0  0  0  0
  192.9210  175.1250  137.1150 C   0  0  2  0  0  0  0  0  0  0  0  0
  193.0790  176.7310  138.3780 C   0  0  1  0  0  3  0  0  0  0  0  0
  191.9200  175.8250  138.0100 C   0  0  0  0  0  2  0  0  0  0  0  0
  193.1840  174.5250  134.8090 O   0  0  0  0  0  0  0  0  0  0  0  0
  192.5930  175.2480  135.6570 C   0  0  0  0  0  0  0  0  0  0  0  0
  191.5840  176.1080  135.2390 O   0  0  0  0  0  1  0  0  0  0  0  0
  181.1760  179.2560  142.2740 N   0  0  0  0  0  2  0  0  0  0  0  0
  180.1050  178.2840  142.4340 C   0  0  0  0  0  2  0  0  0  0  0  0
  179.6070  178.3120  143.8380 C   0  0  0  0  0  0  0  0  0  0  0  0
  178.9320  179.5290  144.3660 C   0  0  0  0  0  1  0  0  0  0  0  0
  179.7190  177.3250  144.5430 O   0  0  0  0  0  0  0  0  0  0  0  0
  1  4  2  0  0  0  0
  2 40  1  0  0  0  0
  2  9  2  0  0  0  0
  3 20  1  1  0  0  0
  3 11  1  0  0  0  0
  4 18  1  0  0  0  0
  5 17  1  0  0  0  0
  6  7  2  0  0  0  0
  7 10  1  0  0  0  0
  8  6  1  6  0  0  0
  8  3  1  0  0  0  0
  9  1  1  0  0  0  0
 10 11  1  0  0  0  0
 11 13  2  0  0  0  0
 14 24  1  0  0  0  0
 15  5  2  0  0  0  0
 15  2  1  0  0  0  0
 16  8  1  0  0  0  0
 17 19  2  0  0  0  0
 17  1  1  0  0  0  0
 18 20  1  0  0  0  0
 19 22  1  0  0  0  0
 20 12  2  0  0  0  0
 21 16  1  0  0  0  0
 22 16  2  0  0  0  0
 22 18  1  0  0  0  0
 23 19  1  0  0  0  0
 24 23  2  0  0  0  0
 24 21  1  0  0  0  0
 25 26  1  0  0  0  0
 26 15  1  0  0  0  0
 27 21  1  0  0  0  0
 28 27  1  0  0  0  0
 29 28  1  0  0  0  0
 30 29  1  0  0  0  0
 33 31  1  0  0  0  0
 33 35  1  0  0  0  0
 34 32  1  1  0  0  0
 34 33  1  0  0  0  0
 34 36  1  0  0  0  0
 35 30  1  1  0  0  0
 36 35  1  0  0  0  0
 37 38  2  0  0  0  0
 38 34  1  0  0  0  0
 39 38  1  0  0  0  0
 40 41  1  0  0  0  0
 41 42  1  0  0  0  0
 42 43  1  0  0  0  0
 42 44  2  0  0  0  0
M  END
>  <MODEL>
2

>  <REMARK>
 VINA RESULT:      -9.1      2.028      9.596
  Name = 
  10 active torsions:
  status: ('A' for Active; 'I' for Inactive)
    1  A    between atoms: C_2  and  N_32
    2  A    between atoms: C_5  and  C_11
    3  A    between atoms: C_5  and  N_36
    4  A    between atoms: C_6  and  C_15
    5  A    between atoms: C_6  and  N_32
    6  A    between atoms: C_11  and  C_24
    7  A    between atoms: C_24  and  C_40
    8  A    between atoms: CA_25  and  C_43
    9  A    between atoms: C_26  and  C_37
   10  A    between atoms: C_35  and  C_40
                            x       y       z     vdW  Elec       q    Type
                         _______ _______ _______ _____ _____    ______ ____

>  <TORSDO>
F 10

$$$$
=
 OpenBabel11042412223D

 44 49  0  0  1  0  0  0  0  0999 V2000
  188.1640  177.9540  143.3280 C   0  0  0  0  0  0  0  0  0  0  0  0
  188.2620  177.9360  145.7540 C   0  0  0  0  0  0  0  0  0  0  0  0
  187.9130  177.4890  138.4530 C   0  0  1  0  0  3  0  0  0  0  0  0
  188.8070  177.8880  142.1550 C   0  0  0  0  0  3  0  0  0  0  0  0
  186.1560  178.1400  144.6200 N   0  0  0  0  0  0  0  0  0  0  0  0
  185.7470  177.9470  137.3130 C   0  0  0  0  0  3  0  0  0  0  0  0
  186.2930  177.7250  136.1110 C   0  0  0  0  0  3  0  0  0  0  0  0
  186.6170  178.3210  138.4900 C   0  0  1  0  0  3  0  0  0  0  0  0
  188.8950  177.8770  144.5110 C   0  0  0  0  0  3  0  0  0  0  0  0
  187.7200  177.7310  135.9510 N   0  0  0  0  0  2  0  0  0  0  0  0
  188.5680  177.6830  137.1040 C   0  0  0  0  0  0  0  0  0  0  0  0
  190.0140  177.7000  139.6220 O   0  0  0  0  0  0  0  0  0  0  0  0
  189.8170  177.7280  136.9640 O   0  0  0  0  0  0  0  0  0  0  0  0
  182.3990  178.7130  141.4480 C   0  0  0  0  0  1  0  0  0  0  0  0
  186.8530  178.0720  145.7880 C   0  0  0  0  0  0  0  0  0  0  0  0
  185.9130  178.2960  139.8460 C   0  0  0  0  0  0  0  0  0  0  0  0
  186.7560  178.0880  143.4000 C   0  0  0  0  0  0  0  0  0  0  0  0
  188.0840  177.9490  140.9170 N   0  0  0  0  0  0  0  0  0  0  0  0
  186.0070  178.1790  142.2840 C   0  0  0  0  0  0  0  0  0  0  0  0
  188.7540  177.7580  139.6670 C   0  0  0  0  0  0  0  0  0  0  0  0
  184.5050  178.6290  139.9960 N   0  0  0  0  0  0  0  0  0  0  0  0
  186.6560  178.1290  140.9610 C   0  0  0  0  0  0  0  0  0  0  0  0
  184.5870  178.3390  142.3590 N   0  0  0  0  0  0  0  0  0  0  0  0
  183.8740  178.5390  141.2950 C   0  0  0  0  0  0  0  0  0  0  0  0
  185.6810  179.4110  147.3390 O   0  0  0  0  0  1  0  0  0  0  0  0
  186.0730  178.1010  147.0580 C   0  0  0  0  0  2  0  0  0  0  0  0
  183.7540  179.2650  138.9160 C   0  0  0  0  0  2  0  0  0  0  0  0
  182.5900  178.3870  138.5020 C   0  0  0  0  0  2  0  0  0  0  0  0
  181.7670  179.1150  137.4600 C   0  0  0  0  0  2  0  0  0  0  0  0
  180.3460  179.2800  137.9610 C   0  0  0  0  0  2  0  0  0  0  0  0
  180.4020  181.2570  139.6780 O   0  0  0  0  0  1  0  0  0  0  0  0
  181.9960  182.6100  138.3220 O   0  0  0  0  0  1  0  0  0  0  0  0
  179.7870  181.6870  138.5420 N   0  0  0  0  0  0  0  0  0  0  0  0
  180.7470  182.4330  137.7120 C   0  0  2  0  0  0  0  0  0  0  0  0
  179.7900  180.6320  137.5100 C   0  0  1  0  0  3  0  0  0  0  0  0
  180.7980  181.3620  136.6430 C   0  0  0  0  0  2  0  0  0  0  0  0
  180.5990  184.8260  137.6830 O   0  0  0  0  0  1  0  0  0  0  0  0
  180.1810  183.7310  137.2180 C   0  0  0  0  0  0  0  0  0  0  0  0
  179.2440  183.7370  136.1910 O   0  0  0  0  0  0  0  0  0  0  0  0
  189.0940  177.8440  146.9210 N   0  0  0  0  0  2  0  0  0  0  0  0
  189.7400  176.6440  147.4300 C   0  0  0  0  0  2  0  0  0  0  0  0
  191.2050  176.7130  147.1720 C   0  0  0  0  0  0  0  0  0  0  0  0
  191.7430  176.3580  145.8290 C   0  0  0  0  0  1  0  0  0  0  0  0
  191.9610  177.0950  148.0470 O   0  0  0  0  0  0  0  0  0  0  0  0
  1 17  1  0  0  0  0
  1  9  1  0  0  0  0
  2 15  1  0  0  0  0
  2 40  1  0  0  0  0
  3 11  1  6  0  0  0
  3  8  1  0  0  0  0
  3 20  1  0  0  0  0
  4  1  2  0  0  0  0
  5 15  2  0  0  0  0
  7  6  2  0  0  0  0
  8  6  1  6  0  0  0
  8 16  1  0  0  0  0
  9  2  2  0  0  0  0
 10  7  1  0  0  0  0
 10 11  1  0  0  0  0
 12 20  2  0  0  0  0
 13 11  2  0  0  0  0
 15 26  1  0  0  0  0
 16 21  1  0  0  0  0
 16 22  2  0  0  0  0
 17  5  1  0  0  0  0
 18 22  1  0  0  0  0
 18  4  1  0  0  0  0
 19 23  1  0  0  0  0
 19 17  2  0  0  0  0
 20 18  1  0  0  0  0
 21 24  1  0  0  0  0
 22 19  1  0  0  0  0
 24 14  1  0  0  0  0
 24 23  2  0  0  0  0
 26 25  1  0  0  0  0
 27 21  1  0  0  0  0
 28 27  1  0  0  0  0
 29 30  1  0  0  0  0
 29 28  1  0  0  0  0
 33 31  1  0  0  0  0
 34 32  1  1  0  0  0
 34 33  1  0  0  0  0
 35 30  1  1  0  0  0
 35 33  1  0  0  0  0
 36 35  1  0  0  0  0
 36 34  1  0  0  0  0
 38 37  1  0  0  0  0
 38 34  1  0  0  0  0
 39 38  2  0  0  0  0
 40 41  1  0  0  0  0
 42 41  1  0  0  0  0
 42 44  2  0  0  0  0
 43 42  1  0  0  0  0
M  END
>  <MODEL>
3

>  <REMARK>
 VINA RESULT:      -8.7      3.019      7.219
  Name = 
  10 active torsions:
  status: ('A' for Active; 'I' for Inactive)
    1  A    between atoms: C_2  and  N_32
    2  A    between atoms: C_5  and  C_11
    3  A    between atoms: C_5  and  N_36
    4  A    between atoms: C_6  and  C_15
    5  A    between atoms: C_6  and  N_32
    6  A    between atoms: C_11  and  C_24
    7  A    between atoms: C_24  and  C_40
    8  A    between atoms: CA_25  and  C_43
    9  A    between atoms: C_26  and  C_37
   10  A    between atoms: C_35  and  C_40
                            x       y       z     vdW  Elec       q    Type
                         _______ _______ _______ _____ _____    ______ ____

>  <TORSDO>
F 10

$$$$
=
 OpenBabel11042412223D

 44 49  0  0  1  0  0  0  0  0999 V2000
  189.1570  177.3230  140.7800 C   0  0  0  0  0  0  0  0  0  0  0  0
  190.6300  177.0540  138.8690 C   0  0  0  0  0  0  0  0  0  0  0  0
  186.3850  178.3230  144.7000 C   0  0  1  0  0  3  0  0  0  0  0  0
  188.9500  177.1810  142.0950 C   0  0  0  0  0  3  0  0  0  0  0  0
  188.4460  178.0140  138.6000 N   0  0  0  0  0  0  0  0  0  0  0  0
  184.0430  179.0930  144.3490 C   0  0  0  0  0  3  0  0  0  0  0  0
  183.8240  179.1370  145.6690 C   0  0  0  0  0  3  0  0  0  0  0  0
  185.1480  178.2300  143.7870 C   0  0  1  0  0  3  0  0  0  0  0  0
  190.3720  176.9170  140.2340 C   0  0  0  0  0  3  0  0  0  0  0  0
  184.7040  178.4520  146.5730 N   0  0  0  0  0  2  0  0  0  0  0  0
  185.9690  177.9680  146.1090 C   0  0  0  0  0  0  0  0  0  0  0  0
  188.3990  177.0030  144.8480 O   0  0  0  0  0  0  0  0  0  0  0  0
  186.7210  177.3330  146.8920 O   0  0  0  0  0  0  0  0  0  0  0  0
  183.7930  179.6570  139.0090 C   0  0  0  0  0  1  0  0  0  0  0  0
  189.6250  177.6190  138.0460 C   0  0  0  0  0  0  0  0  0  0  0  0
  185.4590  178.4620  142.3100 C   0  0  0  0  0  0  0  0  0  0  0  0
  188.1760  177.8860  139.9280 C   0  0  0  0  0  0  0  0  0  0  0  0
  187.7150  177.6010  142.6940 N   0  0  0  0  0  0  0  0  0  0  0  0
  186.9810  178.2810  140.4070 C   0  0  0  0  0  0  0  0  0  0  0  0
  187.5390  177.5620  144.1150 C   0  0  0  0  0  0  0  0  0  0  0  0
  184.4340  178.8440  141.3510 N   0  0  0  0  0  0  0  0  0  0  0  0
  186.6840  178.1360  141.8430 C   0  0  0  0  0  0  0  0  0  0  0  0
  185.9810  178.8260  139.5400 N   0  0  0  0  0  0  0  0  0  0  0  0
  184.7910  179.1040  139.9730 C   0  0  0  0  0  0  0  0  0  0  0  0
  188.6660  177.4450  135.8960 O   0  0  0  0  0  1  0  0  0  0  0  0
  189.8110  177.8500  136.5850 C   0  0  0  0  0  2  0  0  0  0  0  0
  183.0140  178.7640  141.6830 C   0  0  0  0  0  2  0  0  0  0  0  0
  182.3850  177.5640  141.0040 C   0  0  0  0  0  2  0  0  0  0  0  0
  180.9990  177.9360  140.5240 C   0  0  0  0  0  2  0  0  0  0  0  0
  180.7660  177.3500  139.1450 C   0  0  0  0  0  2  0  0  0  0  0  0
  179.9380  174.9500  138.5000 O   0  0  0  0  0  1  0  0  0  0  0  0
  180.8750  175.0640  136.1930 O   0  0  0  0  0  1  0  0  0  0  0  0
  181.2980  174.9380  138.5570 N   0  0  0  0  0  0  0  0  0  0  0  0
  181.8510  175.0690  137.1990 C   0  0  2  0  0  0  0  0  0  0  0  0
  181.8250  176.2870  138.8470 C   0  0  1  0  0  3  0  0  0  0  0  0
  182.3840  176.4650  137.4490 C   0  0  0  0  0  2  0  0  0  0  0  0
  182.7930  173.2130  136.0110 O   0  0  0  0  0  0  0  0  0  0  0  0
  182.9330  174.0670  136.9280 C   0  0  0  0  0  0  0  0  0  0  0  0
  184.1270  174.1200  137.6380 O   0  0  0  0  0  1  0  0  0  0  0  0
  191.9120  176.6140  138.3930 N   0  0  0  0  0  2  0  0  0  0  0  0
  192.1800  175.4100  137.6220 C   0  0  0  0  0  2  0  0  0  0  0  0
  193.5430  175.4870  137.0260 C   0  0  0  0  0  0  0  0  0  0  0  0
  194.3150  174.2400  136.7640 C   0  0  0  0  0  1  0  0  0  0  0  0
  194.0140  176.5690  136.7190 O   0  0  0  0  0  0  0  0  0  0  0  0
  1  4  2  0  0  0  0
  2  9  2  0  0  0  0
  3 20  1  6  0  0  0
  3 11  1  0  0  0  0
  4 18  1  0  0  0  0
  5 17  1  0  0  0  0
  6  7  2  0  0  0  0
  7 10  1  0  0  0  0
  8  6  1  1  0  0  0
  8  3  1  0  0  0  0
  9  1  1  0  0  0  0
 11 10  1  0  0  0  0
 11 13  2  0  0  0  0
 14 24  1  0  0  0  0
 15  5  2  0  0  0  0
 15  2  1  0  0  0  0
 16  8  1  0  0  0  0
 17 19  2  0  0  0  0
 17  1  1  0  0  0  0
 18 20  1  0  0  0  0
 19 22  1  0  0  0  0
 20 12  2  0  0  0  0
 21 27  1  0  0  0  0
 21 16  1  0  0  0  0
 22 16  2  0  0  0  0
 22 18  1  0  0  0  0
 23 24  2  0  0  0  0
 23 19  1  0  0  0  0
 24 21  1  0  0  0  0
 25 26  1  0  0  0  0
 26 15  1  0  0  0  0
 28 27  1  0  0  0  0
 29 28  1  0  0  0  0
 30 29  1  0  0  0  0
 31 33  1  0  0  0  0
 33 35  1  0  0  0  0
 34 32  1  6  0  0  0
 34 36  1  0  0  0  0
 34 33  1  0  0  0  0
 35 30  1  6  0  0  0
 36 35  1  0  0  0  0
 37 38  2  0  0  0  0
 38 34  1  0  0  0  0
 38 39  1  0  0  0  0
 40  2  1  0  0  0  0
 41 40  1  0  0  0  0
 42 41  1  0  0  0  0
 43 42  1  0  0  0  0
 44 42  2  0  0  0  0
M  END
>  <MODEL>
4

>  <REMARK>
 VINA RESULT:      -8.6      2.918      3.847
  Name = 
  10 active torsions:
  status: ('A' for Active; 'I' for Inactive)
    1  A    between atoms: C_2  and  N_32
    2  A    between atoms: C_5  and  C_11
    3  A    between atoms: C_5  and  N_36
    4  A    between atoms: C_6  and  C_15
    5  A    between atoms: C_6  and  N_32
    6  A    between atoms: C_11  and  C_24
    7  A    between atoms: C_24  and  C_40
    8  A    between atoms: CA_25  and  C_43
    9  A    between atoms: C_26  and  C_37
   10  A    between atoms: C_35  and  C_40
                            x       y       z     vdW  Elec       q    Type
                         _______ _______ _______ _____ _____    ______ ____

>  <TORSDO>
F 10

$$$$
=
 OpenBabel11042412223D

 44 49  0  0  1  0  0  0  0  0999 V2000
  188.2930  177.9440  143.3220 C   0  0  0  0  0  0  0  0  0  0  0  0
  188.3980  177.9370  145.7470 C   0  0  0  0  0  0  0  0  0  0  0  0
  188.0320  177.4570  138.4490 C   0  0  1  0  0  3  0  0  0  0  0  0
  188.9330  177.8780  142.1480 C   0  0  0  0  0  3  0  0  0  0  0  0
  186.2880  178.1210  144.6190 N   0  0  0  0  0  0  0  0  0  0  0  0
  185.8590  177.8930  137.3130 C   0  0  0  0  0  3  0  0  0  0  0  0
  186.4040  177.6700  136.1120 C   0  0  0  0  0  3  0  0  0  0  0  0
  186.7300  178.2790  138.4870 C   0  0  1  0  0  3  0  0  0  0  0  0
  189.0280  177.8780  144.5030 C   0  0  0  0  0  3  0  0  0  0  0  0
  187.8300  177.6860  135.9470 N   0  0  0  0  0  2  0  0  0  0  0  0
  188.6810  177.6490  137.0980 C   0  0  0  0  0  0  0  0  0  0  0  0
  190.1340  177.6880  139.6110 O   0  0  0  0  0  0  0  0  0  0  0  0
  189.9300  177.7030  136.9540 O   0  0  0  0  0  0  0  0  0  0  0  0
  182.5170  178.6530  141.4550 C   0  0  0  0  0  1  0  0  0  0  0  0
  186.9880  178.0630  145.7850 C   0  0  0  0  0  0  0  0  0  0  0  0
  186.0300  178.2550  139.8440 C   0  0  0  0  0  0  0  0  0  0  0  0
  186.8840  178.0680  143.3970 C   0  0  0  0  0  0  0  0  0  0  0  0
  188.2060  177.9280  140.9120 N   0  0  0  0  0  0  0  0  0  0  0  0
  186.1320  178.1480  142.2830 C   0  0  0  0  0  0  0  0  0  0  0  0
  188.8750  177.7370  139.6600 C   0  0  0  0  0  0  0  0  0  0  0  0
  184.6200  178.5780  139.9970 N   0  0  0  0  0  0  0  0  0  0  0  0
  186.7770  178.0980  140.9590 C   0  0  0  0  0  0  0  0  0  0  0  0
  184.7100  178.2990  142.3610 N   0  0  0  0  0  0  0  0  0  0  0  0
  183.9930  178.4890  141.2980 C   0  0  0  0  0  0  0  0  0  0  0  0
  184.9410  178.6200  146.8200 O   0  0  0  0  0  1  0  0  0  0  0  0
  186.2110  178.0920  147.0570 C   0  0  0  0  0  2  0  0  0  0  0  0
  183.8610  179.2040  138.9170 C   0  0  0  0  0  2  0  0  0  0  0  0
  182.6300  178.3790  138.5970 C   0  0  0  0  0  2  0  0  0  0  0  0
  182.5310  178.2000  137.0980 C   0  0  0  0  0  2  0  0  0  0  0  0
  181.9630  176.8280  136.7880 C   0  0  0  0  0  2  0  0  0  0  0  0
  180.9380  174.5680  137.6270 O   0  0  0  0  0  1  0  0  0  0  0  0
  181.9750  173.2260  135.8010 O   0  0  0  0  0  1  0  0  0  0  0  0
  182.2870  174.5220  137.8020 N   0  0  0  0  0  0  0  0  0  0  0  0
  182.9050  173.7830  136.6890 C   0  0  2  0  0  0  0  0  0  0  0  0
  182.9280  175.7460  137.2790 C   0  0  1  0  0  3  0  0  0  0  0  0
  183.5580  175.0190  136.1070 C   0  0  0  0  0  2  0  0  0  0  0  0
  183.8060  171.5640  136.7910 O   0  0  0  0  0  0  0  0  0  0  0  0
  183.8970  172.7640  137.1660 C   0  0  0  0  0  0  0  0  0  0  0  0
  184.9650  173.1520  137.9670 O   0  0  0  0  0  1  0  0  0  0  0  0
  189.2340  177.8570  146.9130 N   0  0  0  0  0  2  0  0  0  0  0  0
  189.8210  176.6490  147.4740 C   0  0  0  0  0  2  0  0  0  0  0  0
  191.2950  176.6600  147.2580 C   0  0  0  0  0  0  0  0  0  0  0  0
  191.8590  176.2450  145.9430 C   0  0  0  0  0  1  0  0  0  0  0  0
  192.0380  177.0420  148.1440 O   0  0  0  0  0  0  0  0  0  0  0  0
  1 17  1  0  0  0  0
  1  9  1  0  0  0  0
  2 15  1  0  0  0  0
  2 40  1  0  0  0  0
  3 11  1  6  0  0  0
  3  8  1  0  0  0  0
  3 20  1  0  0  0  0
  4  1  2  0  0  0  0
  5 15  2  0  0  0  0
  7  6  2  0  0  0  0
  8  6  1  6  0  0  0
  8 16  1  0  0  0  0
  9  2  2  0  0  0  0
 10  7  1  0  0  0  0
 10 11  1  0  0  0  0
 12 20  2  0  0  0  0
 13 11  2  0  0  0  0
 15 26  1  0  0  0  0
 16 21  1  0  0  0  0
 16 22  2  0  0  0  0
 17  5  1  0  0  0  0
 18 22  1  0  0  0  0
 18  4  1  0  0  0  0
 19 23  1  0  0  0  0
 19 17  2  0  0  0  0
 20 18  1  0  0  0  0
 21 24  1  0  0  0  0
 22 19  1  0  0  0  0
 24 14  1  0  0  0  0
 24 23  2  0  0  0  0
 25 26  1  0  0  0  0
 27 21  1  0  0  0  0
 28 27  1  0  0  0  0
 29 28  1  0  0  0  0
 30 29  1  0  0  0  0
 31 33  1  0  0  0  0
 34 32  1  6  0  0  0
 34 38  1  0  0  0  0
 34 33  1  0  0  0  0
 35 30  1  6  0  0  0
 35 33  1  0  0  0  0
 36 34  1  0  0  0  0
 36 35  1  0  0  0  0
 37 38  2  0  0  0  0
 38 39  1  0  0  0  0
 40 41  1  0  0  0  0
 42 41  1  0  0  0  0
 42 44  2  0  0  0  0
 43 42  1  0  0  0  0
M  END
>  <MODEL>
5

>  <REMARK>
 VINA RESULT:      -8.5      3.759      7.584
  Name = 
  10 active torsions:
  status: ('A' for Active; 'I' for Inactive)
    1  A    between atoms: C_2  and  N_32
    2  A    between atoms: C_5  and  C_11
    3  A    between atoms: C_5  and  N_36
    4  A    between atoms: C_6  and  C_15
    5  A    between atoms: C_6  and  N_32
    6  A    between atoms: C_11  and  C_24
    7  A    between atoms: C_24  and  C_40
    8  A    between atoms: CA_25  and  C_43
    9  A    between atoms: C_26  and  C_37
   10  A    between atoms: C_35  and  C_40
                            x       y       z     vdW  Elec       q    Type
                         _______ _______ _______ _____ _____    ______ ____

>  <TORSDO>
F 10

$$$$
=
 OpenBabel11042412223D

 44 49  0  0  1  0  0  0  0  0999 V2000
  186.9160  177.8100  143.8200 C   0  0  0  0  0  0  0  0  0  0  0  0
  189.2370  177.3200  144.3390 C   0  0  0  0  0  0  0  0  0  0  0  0
  182.3440  179.2870  142.8360 C   0  0  1  0  0  3  0  0  0  0  0  0
  185.6600  177.9910  144.2480 C   0  0  0  0  0  3  0  0  0  0  0  0
  188.5560  177.7430  142.0770 N   0  0  0  0  0  0  0  0  0  0  0  0
  181.6300  179.4790  140.4590 C   0  0  0  0  0  3  0  0  0  0  0  0
  180.3920  179.8340  140.8240 C   0  0  0  0  0  3  0  0  0  0  0  0
  182.5200  178.7200  141.4150 C   0  0  1  0  0  3  0  0  0  0  0  0
  187.9140  177.5100  144.7440 C   0  0  0  0  0  3  0  0  0  0  0  0
  179.9350  179.5950  142.1640 N   0  0  0  0  0  2  0  0  0  0  0  0
  180.8750  179.2520  143.1880 C   0  0  0  0  0  0  0  0  0  0  0  0
  182.9930  178.4590  145.0080 O   0  0  0  0  0  0  0  0  0  0  0  0
  180.4680  179.0040  144.3530 O   0  0  0  0  0  0  0  0  0  0  0  0
  186.2000  178.5290  137.7930 C   0  0  0  0  0  1  0  0  0  0  0  0
  189.5460  177.4430  142.9630 C   0  0  0  0  0  0  0  0  0  0  0  0
  183.9800  178.6010  140.9800 C   0  0  0  0  0  0  0  0  0  0  0  0
  187.2610  177.9280  142.4520 C   0  0  0  0  0  0  0  0  0  0  0  0
  184.6100  178.3160  143.3260 N   0  0  0  0  0  0  0  0  0  0  0  0
  186.3300  178.2050  141.5200 C   0  0  0  0  0  0  0  0  0  0  0  0
  183.2930  178.6280  143.7950 C   0  0  0  0  0  0  0  0  0  0  0  0
  184.3690  178.5120  139.5820 N   0  0  0  0  0  0  0  0  0  0  0  0
  184.9250  178.3990  141.9230 C   0  0  0  0  0  0  0  0  0  0  0  0
  186.6760  178.2990  140.1340 N   0  0  0  0  0  0  0  0  0  0  0  0
  185.7690  178.4540  139.2210 C   0  0  0  0  0  0  0  0  0  0  0  0
  191.7010  178.3960  142.8320 O   0  0  0  0  0  1  0  0  0  0  0  0
  190.9300  177.3040  142.4280 C   0  0  0  0  0  2  0  0  0  0  0  0
  183.3840  178.2580  138.5330 C   0  0  0  0  0  2  0  0  0  0  0  0
  183.0870  176.7750  138.4430 C   0  0  0  0  0  2  0  0  0  0  0  0
  183.1530  176.3430  136.9930 C   0  0  0  0  0  2  0  0  0  0  0  0
  183.6840  174.9260  136.9100 C   0  0  0  0  0  2  0  0  0  0  0  0
  184.7940  172.6280  137.5020 O   0  0  0  0  0  1  0  0  0  0  0  0
  186.2440  172.6160  135.4750 O   0  0  0  0  0  1  0  0  0  0  0  0
  185.7370  173.6040  137.6080 N   0  0  0  0  0  0  0  0  0  0  0  0
  186.5530  173.6380  136.3830 C   0  0  2  0  0  0  0  0  0  0  0  0
  185.1840  174.9150  137.2150 C   0  0  1  0  0  3  0  0  0  0  0  0
  185.9910  174.9700  135.9330 C   0  0  0  0  0  2  0  0  0  0  0  0
  188.6980  172.6270  136.7380 O   0  0  0  0  0  0  0  0  0  0  0  0
  188.0210  173.6900  136.6820 C   0  0  0  0  0  0  0  0  0  0  0  0
  188.6610  174.9170  136.8260 O   0  0  0  0  0  1  0  0  0  0  0  0
  190.2010  177.0180  145.3600 N   0  0  0  0  0  2  0  0  0  0  0  0
  190.0170  177.1740  146.7950 C   0  0  0  0  0  2  0  0  0  0  0  0
  191.2680  176.7890  147.5070 C   0  0  0  0  0  0  0  0  0  0  0  0
  192.0580  175.6140  147.0440 C   0  0  0  0  0  1  0  0  0  0  0  0
  191.6650  177.4570  148.4460 O   0  0  0  0  0  0  0  0  0  0  0  0
  1  4  2  0  0  0  0
  1  9  1  0  0  0  0
  2  9  2  0  0  0  0
  2 40  1  0  0  0  0
  3 11  1  1  0  0  0
  3 20  1  0  0  0  0
  5 17  1  0  0  0  0
  5 15  2  0  0  0  0
  6  7  2  0  0  0  0
  7 10  1  0  0  0  0
  8  6  1  6  0  0  0
  8  3  1  0  0  0  0
 10 11  1  0  0  0  0
 11 13  2  0  0  0  0
 14 24  1  0  0  0  0
 15  2  1  0  0  0  0
 16  8  1  0  0  0  0
 16 22  2  0  0  0  0
 17  1  1  0  0  0  0
 18 20  1  0  0  0  0
 18  4  1  0  0  0  0
 19 22  1  0  0  0  0
 19 17  2  0  0  0  0
 20 12  2  0  0  0  0
 21 16  1  0  0  0  0
 22 18  1  0  0  0  0
 23 19  1  0  0  0  0
 24 21  1  0  0  0  0
 24 23  2  0  0  0  0
 26 25  1  0  0  0  0
 26 15  1  0  0  0  0
 27 21  1  0  0  0  0
 28 27  1  0  0  0  0
 29 28  1  0  0  0  0
 30 29  1  0  0  0  0
 31 33  1  0  0  0  0
 34 32  1  6  0  0  0
 34 38  1  0  0  0  0
 34 33  1  0  0  0  0
 35 30  1  6  0  0  0
 35 33  1  0  0  0  0
 36 34  1  0  0  0  0
 36 35  1  0  0  0  0
 38 37  2  0  0  0  0
 38 39  1  0  0  0  0
 40 41  1  0  0  0  0
 41 42  1  0  0  0  0
 42 44  2  0  0  0  0
 43 42  1  0  0  0  0
M  END
>  <MODEL>
6

>  <REMARK>
 VINA RESULT:      -8.3      3.224      7.952
  Name = 
  10 active torsions:
  status: ('A' for Active; 'I' for Inactive)
    1  A    between atoms: C_2  and  N_32
    2  A    between atoms: C_5  and  C_11
    3  A    between atoms: C_5  and  N_36
    4  A    between atoms: C_6  and  C_15
    5  A    between atoms: C_6  and  N_32
    6  A    between atoms: C_11  and  C_24
    7  A    between atoms: C_24  and  C_40
    8  A    between atoms: CA_25  and  C_43
    9  A    between atoms: C_26  and  C_37
   10  A    between atoms: C_35  and  C_40
                            x       y       z     vdW  Elec       q    Type
                         _______ _______ _______ _____ _____    ______ ____

>  <TORSDO>
F 10

$$$$
=
 OpenBabel11042412223D

 44 49  0  0  1  0  0  0  0  0999 V2000
  188.5800  177.8080  143.3790 C   0  0  0  0  0  0  0  0  0  0  0  0
  188.7350  177.7310  145.8010 C   0  0  0  0  0  0  0  0  0  0  0  0
  188.2010  177.4650  138.5020 C   0  0  1  0  0  3  0  0  0  0  0  0
  189.1930  177.7540  142.1900 C   0  0  0  0  0  3  0  0  0  0  0  0
  186.6090  178.0140  144.7240 N   0  0  0  0  0  0  0  0  0  0  0  0
  186.0210  178.0030  137.4260 C   0  0  0  0  0  3  0  0  0  0  0  0
  186.5320  177.7950  136.2070 C   0  0  0  0  0  3  0  0  0  0  0  0
  186.9280  178.3270  138.5900 C   0  0  1  0  0  3  0  0  0  0  0  0
  189.3370  177.6860  144.5420 C   0  0  0  0  0  3  0  0  0  0  0  0
  187.9550  177.7690  136.0120 N   0  0  0  0  0  2  0  0  0  0  0  0
  188.8280  177.6730  137.1420 C   0  0  0  0  0  0  0  0  0  0  0  0
  190.3340  177.5950  139.6240 O   0  0  0  0  0  0  0  0  0  0  0  0
  190.0750  177.6910  136.9730 O   0  0  0  0  0  0  0  0  0  0  0  0
  182.7930  178.7550  141.6580 C   0  0  0  0  0  1  0  0  0  0  0  0
  187.3310  177.9020  145.8720 C   0  0  0  0  0  0  0  0  0  0  0  0
  186.2560  178.2880  139.9610 C   0  0  0  0  0  0  0  0  0  0  0  0
  187.1780  177.9750  143.4880 C   0  0  0  0  0  0  0  0  0  0  0  0
  188.4420  177.8620  140.9720 N   0  0  0  0  0  0  0  0  0  0  0  0
  186.4050  178.1110  142.3940 C   0  0  0  0  0  0  0  0  0  0  0  0
  189.0780  177.6830  139.7010 C   0  0  0  0  0  0  0  0  0  0  0  0
  184.8610  178.6530  140.1540 N   0  0  0  0  0  0  0  0  0  0  0  0
  187.0210  178.0760  141.0550 C   0  0  0  0  0  0  0  0  0  0  0  0
  184.9920  178.3060  142.5060 N   0  0  0  0  0  0  0  0  0  0  0  0
  184.2590  178.5480  141.4650 C   0  0  0  0  0  0  0  0  0  0  0  0
  185.5620  178.8710  147.0980 O   0  0  0  0  0  1  0  0  0  0  0  0
  186.5820  177.9200  147.1620 C   0  0  0  0  0  2  0  0  0  0  0  0
  184.1010  179.3320  139.1070 C   0  0  0  0  0  2  0  0  0  0  0  0
  183.3530  178.3200  138.2640 C   0  0  0  0  0  2  0  0  0  0  0  0
  181.9590  178.8400  137.9870 C   0  0  0  0  0  2  0  0  0  0  0  0
  181.2440  177.8950  137.0410 C   0  0  0  0  0  2  0  0  0  0  0  0
  181.8340  175.3740  137.4450 O   0  0  0  0  0  1  0  0  0  0  0  0
  181.9840  175.6330  139.9190 O   0  0  0  0  0  1  0  0  0  0  0  0
  180.5960  175.6160  137.9560 N   0  0  0  0  0  0  0  0  0  0  0  0
  180.6940  175.8310  139.4080 C   0  0  2  0  0  0  0  0  0  0  0  0
  180.2390  177.0430  137.8200 C   0  0  1  0  0  3  0  0  0  0  0  0
  180.3570  177.3040  139.3080 C   0  0  0  0  0  2  0  0  0  0  0  0
  179.0340  175.5770  141.1200 O   0  0  0  0  0  1  0  0  0  0  0  0
  179.6680  175.0440  140.1690 C   0  0  0  0  0  0  0  0  0  0  0  0
  179.3590  173.7450  139.7820 O   0  0  0  0  0  0  0  0  0  0  0  0
  189.5920  177.5910  146.9450 N   0  0  0  0  0  2  0  0  0  0  0  0
  190.2120  176.3620  147.4150 C   0  0  0  0  0  2  0  0  0  0  0  0
  191.6640  176.3720  147.0820 C   0  0  0  0  0  0  0  0  0  0  0  0
  192.6370  175.6660  147.9620 C   0  0  0  0  0  1  0  0  0  0  0  0
  192.0540  176.9270  146.0700 O   0  0  0  0  0  0  0  0  0  0  0  0
  1 17  1  0  0  0  0
  1  9  1  0  0  0  0
  2 15  1  0  0  0  0
  2 40  1  0  0  0  0
  3 11  1  6  0  0  0
  3  8  1  0  0  0  0
  3 20  1  0  0  0  0
  4  1  2  0  0  0  0
  5 15  2  0  0  0  0
  7  6  2  0  0  0  0
  8  6  1  6  0  0  0
  8 16  1  0  0  0  0
  9  2  2  0  0  0  0
 10  7  1  0  0  0  0
 10 11  1  0  0  0  0
 12 20  2  0  0  0  0
 13 11  2  0  0  0  0
 15 26  1  0  0  0  0
 16 21  1  0  0  0  0
 16 22  2  0  0  0  0
 17  5  1  0  0  0  0
 18 22  1  0  0  0  0
 18  4  1  0  0  0  0
 19 23  1  0  0  0  0
 19 17  2  0  0  0  0
 20 18  1  0  0  0  0
 21 24  1  0  0  0  0
 22 19  1  0  0  0  0
 24 14  1  0  0  0  0
 24 23  2  0  0  0  0
 25 26  1  0  0  0  0
 27 21  1  0  0  0  0
 28 27  1  0  0  0  0
 29 28  1  0  0  0  0
 30 29  1  0  0  0  0
 31 33  1  0  0  0  0
 33 34  1  0  0  0  0
 34 32  1  1  0  0  0
 34 38  1  0  0  0  0
 35 30  1  6  0  0  0
 35 33  1  0  0  0  0
 35 36  1  0  0  0  0
 36 34  1  0  0  0  0
 38 37  1  0  0  0  0
 39 38  2  0  0  0  0
 40 41  1  0  0  0  0
 42 41  1  0  0  0  0
 42 43  1  0  0  0  0
 44 42  2  0  0  0  0
M  END
>  <MODEL>
7

>  <REMARK>
 VINA RESULT:      -8.3      2.829      6.944
  Name = 
  10 active torsions:
  status: ('A' for Active; 'I' for Inactive)
    1  A    between atoms: C_2  and  N_32
    2  A    between atoms: C_5  and  C_11
    3  A    between atoms: C_5  and  N_36
    4  A    between atoms: C_6  and  C_15
    5  A    between atoms: C_6  and  N_32
    6  A    between atoms: C_11  and  C_24
    7  A    between atoms: C_24  and  C_40
    8  A    between atoms: CA_25  and  C_43
    9  A    between atoms: C_26  and  C_37
   10  A    between atoms: C_35  and  C_40
                            x       y       z     vdW  Elec       q    Type
                         _______ _______ _______ _____ _____    ______ ____

>  <TORSDO>
F 10

$$$$
=
 OpenBabel11042412223D

 44 49  0  0  1  0  0  0  0  0999 V2000
  187.1350  177.7450  143.8110 C   0  0  0  0  0  0  0  0  0  0  0  0
  189.0550  177.2810  145.2230 C   0  0  0  0  0  0  0  0  0  0  0  0
  183.3240  179.1690  141.0730 C   0  0  1  0  0  3  0  0  0  0  0  0
  185.8100  177.8930  143.6930 C   0  0  0  0  0  3  0  0  0  0  0  0
  189.3450  177.7510  142.8880 N   0  0  0  0  0  0  0  0  0  0  0  0
  183.6360  179.4100  138.6140 C   0  0  0  0  0  3  0  0  0  0  0  0
  182.3480  179.7340  138.4480 C   0  0  0  0  0  3  0  0  0  0  0  0
  184.0790  178.6420  139.8380 C   0  0  1  0  0  3  0  0  0  0  0  0
  187.6780  177.4380  145.0560 C   0  0  0  0  0  3  0  0  0  0  0  0
  181.3910  179.4540  139.4810 N   0  0  0  0  0  2  0  0  0  0  0  0
  181.8400  179.1000  140.7940 C   0  0  0  0  0  0  0  0  0  0  0  0
  183.0530  178.2960  143.3060 O   0  0  0  0  0  0  0  0  0  0  0  0
  181.0010  178.8150  141.6870 O   0  0  0  0  0  0  0  0  0  0  0  0
  188.9190  178.6070  138.0300 C   0  0  0  0  0  1  0  0  0  0  0  0
  189.8950  177.4450  144.0950 C   0  0  0  0  0  0  0  0  0  0  0  0
  185.5910  178.5590  140.0340 C   0  0  0  0  0  0  0  0  0  0  0  0
  188.0050  177.9040  142.7050 C   0  0  0  0  0  0  0  0  0  0  0  0
  185.2180  178.2240  142.4280 N   0  0  0  0  0  0  0  0  0  0  0  0
  187.5270  178.1890  141.4780 C   0  0  0  0  0  0  0  0  0  0  0  0
  183.8170  178.5010  142.3240 C   0  0  0  0  0  0  0  0  0  0  0  0
  186.5190  178.5130  138.9150 N   0  0  0  0  0  0  0  0  0  0  0  0
  186.0750  178.3490  141.2770 C   0  0  0  0  0  0  0  0  0  0  0  0
  188.4050  178.3250  140.3560 N   0  0  0  0  0  0  0  0  0  0  0  0
  187.9450  178.4880  139.1550 C   0  0  0  0  0  0  0  0  0  0  0  0
  191.8970  177.0860  142.8980 O   0  0  0  0  0  1  0  0  0  0  0  0
  191.3800  177.3430  144.1690 C   0  0  0  0  0  2  0  0  0  0  0  0
  186.0540  178.2690  137.5510 C   0  0  0  0  0  2  0  0  0  0  0  0
  186.0350  176.7810  137.2630 C   0  0  0  0  0  2  0  0  0  0  0  0
  185.1780  176.5240  136.0430 C   0  0  0  0  0  2  0  0  0  0  0  0
  185.0370  175.0300  135.8280 C   0  0  0  0  0  2  0  0  0  0  0  0
  184.4480  173.6380  137.9680 O   0  0  0  0  0  1  0  0  0  0  0  0
  183.0020  175.4230  138.9350 O   0  0  0  0  0  1  0  0  0  0  0  0
  183.3220  173.7730  137.2160 N   0  0  0  0  0  0  0  0  0  0  0  0
  182.4980  174.8690  137.7500 C   0  0  2  0  0  0  0  0  0  0  0  0
  183.5790  174.6120  136.0280 C   0  0  1  0  0  3  0  0  0  0  0  0
  182.7590  175.7700  136.5610 C   0  0  0  0  0  2  0  0  0  0  0  0
  180.4120  174.7860  138.9280 O   0  0  0  0  0  1  0  0  0  0  0  0
  181.0560  174.4810  137.8880 C   0  0  0  0  0  0  0  0  0  0  0  0
  180.4010  173.8460  136.8390 O   0  0  0  0  0  0  0  0  0  0  0  0
  189.5270  176.9690  146.5430 N   0  0  0  0  0  2  0  0  0  0  0  0
  188.7100  176.8010  147.7360 C   0  0  0  0  0  2  0  0  0  0  0  0
  188.4520  178.1290  148.3600 C   0  0  0  0  0  0  0  0  0  0  0  0
  187.1910  178.8620  148.0580 C   0  0  0  0  0  1  0  0  0  0  0  0
  189.2560  178.5990  149.1460 O   0  0  0  0  0  0  0  0  0  0  0  0
  1  9  1  0  0  0  0
  2 40  1  0  0  0  0
  3 11  1  6  0  0  0
  3 20  1  0  0  0  0
  4  1  2  0  0  0  0
  5 15  2  0  0  0  0
  7  6  2  0  0  0  0
  7 10  1  0  0  0  0
  8  6  1  6  0  0  0
  8 16  1  0  0  0  0
  8  3  1  0  0  0  0
  9  2  2  0  0  0  0
 10 11  1  0  0  0  0
 11 13  2  0  0  0  0
 14 24  1  0  0  0  0
 15 26  1  0  0  0  0
 15  2  1  0  0  0  0
 16 22  2  0  0  0  0
 17  5  1  0  0  0  0
 17  1  1  0  0  0  0
 18  4  1  0  0  0  0
 19 17  2  0  0  0  0
 20 18  1  0  0  0  0
 20 12  2  0  0  0  0
 21 24  1  0  0  0  0
 21 16  1  0  0  0  0
 22 19  1  0  0  0  0
 22 18  1  0  0  0  0
 23 19  1  0  0  0  0
 24 23  2  0  0  0  0
 25 26  1  0  0  0  0
 27 21  1  0  0  0  0
 28 27  1  0  0  0  0
 29 28  1  0  0  0  0
 30 29  1  0  0  0  0
 33 34  1  0  0  0  0
 33 31  1  0  0  0  0
 34 38  1  0  0  0  0
 34 32  1  1  0  0  0
 35 30  1  1  0  0  0
 35 36  1  0  0  0  0
 35 33  1  0  0  0  0
 36 34  1  0  0  0  0
 38 37  1  0  0  0  0
 39 38  2  0  0  0  0
 40 41  1  0  0  0  0
 41 42  1  0  0  0  0
 42 44  2  0  0  0  0
 43 42  1  0  0  0  0
M  END
>  <MODEL>
8

>  <REMARK>
 VINA RESULT:      -8.2      3.308      7.795
  Name = 
  10 active torsions:
  status: ('A' for Active; 'I' for Inactive)
    1  A    between atoms: C_2  and  N_32
    2  A    between atoms: C_5  and  C_11
    3  A    between atoms: C_5  and  N_36
    4  A    between atoms: C_6  and  C_15
    5  A    between atoms: C_6  and  N_32
    6  A    between atoms: C_11  and  C_24
    7  A    between atoms: C_24  and  C_40
    8  A    between atoms: CA_25  and  C_43
    9  A    between atoms: C_26  and  C_37
   10  A    between atoms: C_35  and  C_40
                            x       y       z     vdW  Elec       q    Type
                         _______ _______ _______ _____ _____    ______ ____

>  <TORSDO>
F 10

$$$$
=
 OpenBabel11042412223D

 44 49  0  0  1  0  0  0  0  0999 V2000
  184.7300  178.5320  142.9070 C   0  0  0  0  0  0  0  0  0  0  0  0
  182.5750  179.1430  141.9720 C   0  0  0  0  0  0  0  0  0  0  0  0
  188.9300  176.8160  144.7680 C   0  0  1  0  0  3  0  0  0  0  0  0
  185.4820  178.2890  143.9880 C   0  0  0  0  0  3  0  0  0  0  0  0
  184.4380  178.6720  140.5350 N   0  0  0  0  0  0  0  0  0  0  0  0
  190.9000  176.5730  143.2640 C   0  0  0  0  0  3  0  0  0  0  0  0
  191.6670  176.1580  144.2780 C   0  0  0  0  0  3  0  0  0  0  0  0
  189.6520  177.3820  143.5310 C   0  0  1  0  0  3  0  0  0  0  0  0
  183.3940  178.8890  143.0730 C   0  0  0  0  0  3  0  0  0  0  0  0
  191.2560  176.3800  145.6360 N   0  0  0  0  0  2  0  0  0  0  0  0
  189.9100  176.7780  145.9190 C   0  0  0  0  0  0  0  0  0  0  0  0
  187.1640  177.6900  146.1620 O   0  0  0  0  0  0  0  0  0  0  0  0
  189.5630  177.0110  147.1060 O   0  0  0  0  0  0  0  0  0  0  0  0
  188.8280  177.7400  138.4430 C   0  0  0  0  0  1  0  0  0  0  0  0
  183.1310  179.0280  140.6750 C   0  0  0  0  0  0  0  0  0  0  0  0
  188.7370  177.5730  142.3230 C   0  0  0  0  0  0  0  0  0  0  0  0
  185.2530  178.4230  141.5960 C   0  0  0  0  0  0  0  0  0  0  0  0
  186.8580  177.9050  143.8540 N   0  0  0  0  0  0  0  0  0  0  0  0
  186.5410  178.0930  141.3850 C   0  0  0  0  0  0  0  0  0  0  0  0
  187.6300  177.5290  145.0000 C   0  0  0  0  0  0  0  0  0  0  0  0
  189.2510  177.6740  140.9660 N   0  0  0  0  0  0  0  0  0  0  0  0
  187.4270  177.8300  142.5330 C   0  0  0  0  0  0  0  0  0  0  0  0
  187.0750  178.0090  140.0590 N   0  0  0  0  0  0  0  0  0  0  0  0
  188.3380  177.8020  139.8520 C   0  0  0  0  0  0  0  0  0  0  0  0
  182.7160  180.4330  138.8250 O   0  0  0  0  0  1  0  0  0  0  0  0
  182.3360  179.2340  139.4310 C   0  0  0  0  0  2  0  0  0  0  0  0
  190.6750  177.8710  140.7060 C   0  0  0  0  0  2  0  0  0  0  0  0
  191.2160  176.7280  139.8710 C   0  0  0  0  0  2  0  0  0  0  0  0
  192.5640  177.1230  139.3050 C   0  0  0  0  0  2  0  0  0  0  0  0
  192.7080  176.5650  137.9020 C   0  0  0  0  0  2  0  0  0  0  0  0
  193.6610  175.5580  135.6800 O   0  0  0  0  0  1  0  0  0  0  0  0
  196.0110  175.5190  136.5090 O   0  0  0  0  0  1  0  0  0  0  0  0
  193.7850  174.6260  136.6650 N   0  0  0  0  0  0  0  0  0  0  0  0
  195.1560  174.6480  137.1970 C   0  0  2  0  0  0  0  0  0  0  0  0
  193.3270  175.1670  137.9610 C   0  0  1  0  0  3  0  0  0  0  0  0
  194.7300  175.2270  138.5310 C   0  0  0  0  0  2  0  0  0  0  0  0
  196.6720  172.9100  136.5440 O   0  0  0  0  0  0  0  0  0  0  0  0
  195.7420  173.2730  137.3140 C   0  0  0  0  0  0  0  0  0  0  0  0
  195.3110  172.4140  138.3190 O   0  0  0  0  0  1  0  0  0  0  0  0
  181.2090  179.5010  142.2370 N   0  0  0  0  0  2  0  0  0  0  0  0
  180.0750  178.5910  142.3020 C   0  0  0  0  0  2  0  0  0  0  0  0
  179.6200  178.4560  143.7140 C   0  0  0  0  0  0  0  0  0  0  0  0
  178.9320  179.5920  144.3880 C   0  0  0  0  0  1  0  0  0  0  0  0
  179.7770  177.4030  144.3070 O   0  0  0  0  0  0  0  0  0  0  0  0
  1  9  1  0  0  0  0
  1  4  2  0  0  0  0
  2 40  1  0  0  0  0
  2  9  2  0  0  0  0
  3 20  1  1  0  0  0
  3 11  1  0  0  0  0
  5 15  2  0  0  0  0
  5 17  1  0  0  0  0
  6  7  2  0  0  0  0
  7 10  1  0  0  0  0
  8  6  1  6  0  0  0
  8  3  1  0  0  0  0
 10 11  1  0  0  0  0
 11 13  2  0  0  0  0
 14 24  1  0  0  0  0
 15  2  1  0  0  0  0
 16 22  2  0  0  0  0
 16  8  1  0  0  0  0
 17  1  1  0  0  0  0
 18  4  1  0  0  0  0
 18 20  1  0  0  0  0
 19 17  2  0  0  0  0
 19 22  1  0  0  0  0
 20 12  2  0  0  0  0
 21 16  1  0  0  0  0
 22 18  1  0  0  0  0
 23 19  1  0  0  0  0
 24 23  2  0  0  0  0
 24 21  1  0  0  0  0
 25 26  1  0  0  0  0
 26 15  1  0  0  0  0
 27 21  1  0  0  0  0
 28 27  1  0  0  0  0
 29 28  1  0  0  0  0
 30 29  1  0  0  0  0
 31 33  1  0  0  0  0
 33 34  1  0  0  0  0
 33 35  1  0  0  0  0
 34 32  1  6  0  0  0
 34 38  1  0  0  0  0
 34 36  1  0  0  0  0
 35 30  1  6  0  0  0
 35 36  1  0  0  0  0
 37 38  2  0  0  0  0
 38 39  1  0  0  0  0
 40 41  1  0  0  0  0
 41 42  1  0  0  0  0
 42 44  2  0  0  0  0
 42 43  1  0  0  0  0
M  END
>  <MODEL>
9

>  <REMARK>
 VINA RESULT:      -7.9      2.008     10.252
  Name = 
  10 active torsions:
  status: ('A' for Active; 'I' for Inactive)
    1  A    between atoms: C_2  and  N_32
    2  A    between atoms: C_5  and  C_11
    3  A    between atoms: C_5  and  N_36
    4  A    between atoms: C_6  and  C_15
    5  A    between atoms: C_6  and  N_32
    6  A    between atoms: C_11  and  C_24
    7  A    between atoms: C_24  and  C_40
    8  A    between atoms: CA_25  and  C_43
    9  A    between atoms: C_26  and  C_37
   10  A    between atoms: C_35  and  C_40
                            x       y       z     vdW  Elec       q    Type
                         _______ _______ _______ _____ _____    ______ ____

>  <TORSDO>
F 10

$$$$
