=
 OpenBabel11032419513D

 27 29  0  0  1  0  0  0  0  0999 V2000
  187.5650  177.7120  144.1140 C   0  0  1  0  0  3  0  0  0  0  0  0
  190.0070  177.3950  147.7130 C   0  0  0  0  0  2  0  0  0  0  0  0
  189.8910  177.4930  145.0990 C   0  0  1  0  0  3  0  0  0  0  0  0
  188.4200  177.8570  145.3800 C   0  0  2  0  0  3  0  0  0  0  0  0
  190.5420  178.5940  144.2770 C   0  0  0  0  0  1  0  0  0  0  0  0
  187.8580  177.0760  146.5460 C   0  0  0  0  0  3  0  0  0  0  0  0
  190.6750  177.2660  146.3730 C   0  0  0  0  0  0  0  0  0  0  0  0
  188.6030  176.8650  147.6370 C   0  0  0  0  0  3  0  0  0  0  0  0
  191.8580  176.9660  146.3180 O   0  0  0  0  0  0  0  0  0  0  0  0
  188.0700  176.6800  143.2080 N   0  0  0  0  0  2  0  0  0  0  0  0
  188.4340  177.3150  142.0110 N   0  0  0  0  0  2  0  0  0  0  0  0
  189.5940  176.9210  141.2730 C   0  0  0  0  0  0  0  0  0  0  0  0
  190.3640  176.0320  141.7270 O   0  0  0  0  0  0  0  0  0  0  0  0
  188.9990  178.7340  137.9860 C   0  0  0  0  0  2  0  0  0  0  0  0
  188.6470  178.0450  139.2870 C   0  0  2  0  0  3  0  0  0  0  0  0
  189.9200  177.5970  139.9810 C   0  0  2  0  0  3  0  0  0  0  0  0
  189.3620  176.7970  138.8190 C   0  0  2  0  0  3  0  0  0  0  0  0
  189.7120  177.4850  137.5170 C   0  0  0  0  0  2  0  0  0  0  0  0
  186.1920  177.5510  144.3940 O   0  0  0  0  0  0  0  0  0  0  0  0
  185.6460  178.7540  144.3990 O   0  0  0  0  0  0  0  0  0  0  0  0
  184.2690  178.5230  144.3260 C   0  0  1  0  0  3  0  0  0  0  0  0
  183.6350  179.0670  145.4430 O   0  0  0  0  0  1  0  0  0  0  0  0
  183.6940  179.1060  143.0370 C   0  0  0  0  0  2  0  0  0  0  0  0
  184.1430  178.3460  141.7920 C   0  0  0  0  0  2  0  0  0  0  0  0
  184.5740  179.5320  139.6040 N   0  0  0  0  0  1  0  0  0  0  0  0
  186.0990  179.6330  141.3520 O   0  0  0  0  0  0  0  0  0  0  0  0
  185.0000  179.2010  140.9210 C   0  0  0  0  0  0  0  0  0  0  0  0
  1 10  1  1  0  0  0
  1 19  1  0  0  0  0
  3  5  1  1  0  0  0
  3  4  1  0  0  0  0
  3  7  1  0  0  0  0
  4  1  1  6  0  0  0
  4  6  1  0  0  0  0
  6  8  2  0  0  0  0
  7  2  1  0  0  0  0
  8  2  1  0  0  0  0
  9  7  2  0  0  0  0
 11 10  1  0  0  0  0
 12 13  2  0  0  0  0
 12 11  1  0  0  0  0
 15 14  1  6  0  0  0
 15 16  1  0  0  0  0
 16 12  1  1  0  0  0
 17 18  1  6  0  0  0
 17 15  1  0  0  0  0
 17 16  1  0  0  0  0
 18 14  1  0  0  0  0
 19 20  1  0  0  0  0
 21 20  1  0  0  0  0
 21 22  1  1  0  0  0
 23 21  1  0  0  0  0
 24 23  1  0  0  0  0
 25 27  1  0  0  0  0
 27 26  2  0  0  0  0
 27 24  1  0  0  0  0
M  END
>  <MODEL>
1

>  <REMARK>
 VINA RESULT:      -8.0      0.000      0.000
  Name = 
  10 active torsions:
  status: ('A' for Active; 'I' for Inactive)
    1  A    between atoms: C_2  and  O_11
    2  A    between atoms: C_2  and  C_14
    3  A    between atoms: C_4  and  C_14
    4  A    between atoms: C_4  and  C_18
    5  A    between atoms: C_5  and  C_23
    6  A    between atoms: O_11  and  O_24
    7  A    between atoms: N_17  and  N_21
    8  A    between atoms: C_19  and  C_25
    9  A    between atoms: N_21  and  C_23
   10  A    between atoms: C_23  and  O_24
                            x       y       z     vdW  Elec       q    Type
                         _______ _______ _______ _____ _____    ______ ____

>  <TORSDO>
F 10

$$$$
=
 OpenBabel11032419513D

 27 29  0  0  1  0  0  0  0  0999 V2000
  188.4510  177.7440  143.0180 C   0  0  1  0  0  3  0  0  0  0  0  0
  188.7130  177.6070  147.3690 C   0  0  0  0  0  2  0  0  0  0  0  0
  189.8850  177.2630  145.0530 C   0  0  1  0  0  3  0  0  0  0  0  0
  188.6040  177.9450  144.5320 C   0  0  2  0  0  3  0  0  0  0  0  0
  191.1030  178.0580  144.6100 C   0  0  0  0  0  1  0  0  0  0  0  0
  187.3780  177.5030  145.2980 C   0  0  0  0  0  3  0  0  0  0  0  0
  189.8810  177.1190  146.5590 C   0  0  0  0  0  0  0  0  0  0  0  0
  187.4330  177.3500  146.6260 C   0  0  0  0  0  3  0  0  0  0  0  0
  190.8270  176.5940  147.1260 O   0  0  0  0  0  0  0  0  0  0  0  0
  189.2040  176.5930  142.5230 N   0  0  0  0  0  2  0  0  0  0  0  0
  189.4200  176.7920  141.1510 N   0  0  0  0  0  2  0  0  0  0  0  0
  190.7090  177.1360  140.6340 C   0  0  0  0  0  0  0  0  0  0  0  0
  191.6730  177.3420  141.4200 O   0  0  0  0  0  0  0  0  0  0  0  0
  190.0790  176.6640  136.9170 C   0  0  0  0  0  2  0  0  0  0  0  0
  189.8720  176.4810  138.4050 C   0  0  2  0  0  3  0  0  0  0  0  0
  190.9020  177.2970  139.1620 C   0  0  2  0  0  3  0  0  0  0  0  0
  191.2890  175.9690  138.5390 C   0  0  2  0  0  3  0  0  0  0  0  0
  191.4960  176.1500  137.0510 C   0  0  0  0  0  2  0  0  0  0  0  0
  187.1030  177.7210  142.6020 O   0  0  0  0  0  0  0  0  0  0  0  0
  187.0140  178.4590  141.5100 O   0  0  0  0  0  0  0  0  0  0  0  0
  185.9010  179.2780  141.7210 C   0  0  1  0  0  3  0  0  0  0  0  0
  185.2260  179.4840  140.5180 O   0  0  0  0  0  1  0  0  0  0  0  0
  184.9730  178.6630  142.7660 C   0  0  0  0  0  2  0  0  0  0  0  0
  184.5850  179.6480  143.8660 C   0  0  0  0  0  2  0  0  0  0  0  0
  184.0990  178.8200  146.2030 N   0  0  0  0  0  1  0  0  0  0  0  0
  182.5190  178.6490  144.5080 O   0  0  0  0  0  0  0  0  0  0  0  0
  183.6710  179.0120  144.8580 C   0  0  0  0  0  0  0  0  0  0  0  0
  1 10  1  1  0  0  0
  3  5  1  1  0  0  0
  3  7  1  0  0  0  0
  4  1  1  6  0  0  0
  4  3  1  0  0  0  0
  4  6  1  0  0  0  0
  6  8  2  0  0  0  0
  7  9  2  0  0  0  0
  7  2  1  0  0  0  0
  8  2  1  0  0  0  0
 11 10  1  0  0  0  0
 12 11  1  0  0  0  0
 12 13  2  0  0  0  0
 14 18  1  0  0  0  0
 15 14  1  6  0  0  0
 15 17  1  0  0  0  0
 15 16  1  0  0  0  0
 16 12  1  1  0  0  0
 17 18  1  6  0  0  0
 17 16  1  0  0  0  0
 19  1  1  0  0  0  0
 20 21  1  0  0  0  0
 20 19  1  0  0  0  0
 21 22  1  6  0  0  0
 21 23  1  0  0  0  0
 23 24  1  0  0  0  0
 24 27  1  0  0  0  0
 26 27  2  0  0  0  0
 27 25  1  0  0  0  0
M  END
>  <MODEL>
2

>  <REMARK>
 VINA RESULT:      -7.7      1.756      2.645
  Name = 
  10 active torsions:
  status: ('A' for Active; 'I' for Inactive)
    1  A    between atoms: C_2  and  O_11
    2  A    between atoms: C_2  and  C_14
    3  A    between atoms: C_4  and  C_14
    4  A    between atoms: C_4  and  C_18
    5  A    between atoms: C_5  and  C_23
    6  A    between atoms: O_11  and  O_24
    7  A    between atoms: N_17  and  N_21
    8  A    between atoms: C_19  and  C_25
    9  A    between atoms: N_21  and  C_23
   10  A    between atoms: C_23  and  O_24
                            x       y       z     vdW  Elec       q    Type
                         _______ _______ _______ _____ _____    ______ ____

>  <TORSDO>
F 10

$$$$
=
 OpenBabel11032419513D

 27 29  0  0  1  0  0  0  0  0999 V2000
  188.8980  177.1090  141.4630 C   0  0  1  0  0  3  0  0  0  0  0  0
  192.7270  177.3780  139.3960 C   0  0  0  0  0  2  0  0  0  0  0  0
  190.2540  176.5190  139.4050 C   0  0  1  0  0  3  0  0  0  0  0  0
  190.1560  177.4280  140.6460 C   0  0  2  0  0  3  0  0  0  0  0  0
  189.2200  176.9470  138.3760 C   0  0  0  0  0  1  0  0  0  0  0  0
  191.4140  177.3770  141.4830 C   0  0  0  0  0  3  0  0  0  0  0  0
  191.6370  176.5410  138.7900 C   0  0  0  0  0  0  0  0  0  0  0  0
  192.6150  177.3570  140.8940 C   0  0  0  0  0  3  0  0  0  0  0  0
  191.8760  175.8690  137.7990 O   0  0  0  0  0  0  0  0  0  0  0  0
  189.1830  176.2990  142.6470 N   0  0  0  0  0  2  0  0  0  0  0  0
  188.7430  177.0230  143.7660 N   0  0  0  0  0  2  0  0  0  0  0  0
  189.5720  177.2040  144.9180 C   0  0  0  0  0  0  0  0  0  0  0  0
  190.7010  176.6480  144.9810 O   0  0  0  0  0  0  0  0  0  0  0  0
  188.7250  178.0830  148.5170 C   0  0  0  0  0  2  0  0  0  0  0  0
  189.2220  177.2390  147.3630 C   0  0  2  0  0  3  0  0  0  0  0  0
  189.0780  178.0180  146.0690 C   0  0  2  0  0  3  0  0  0  0  0  0
  187.8680  177.3510  146.6970 C   0  0  2  0  0  3  0  0  0  0  0  0
  187.3690  178.1940  147.8520 C   0  0  0  0  0  2  0  0  0  0  0  0
  188.1390  178.2580  141.7720 O   0  0  0  0  0  0  0  0  0  0  0  0
  187.0580  178.2340  141.0130 O   0  0  0  0  0  0  0  0  0  0  0  0
  186.1080  178.9790  141.7190 C   0  0  1  0  0  3  0  0  0  0  0  0
  185.2770  179.6570  140.8280 O   0  0  0  0  0  1  0  0  0  0  0  0
  185.2930  178.0730  142.6400 C   0  0  0  0  0  2  0  0  0  0  0  0
  185.4610  178.4250  144.1160 C   0  0  0  0  0  2  0  0  0  0  0  0
  183.0870  179.2470  143.8500 N   0  0  0  0  0  1  0  0  0  0  0  0
  184.0600  179.0260  145.9480 O   0  0  0  0  0  0  0  0  0  0  0  0
  184.1790  178.9130  144.7010 C   0  0  0  0  0  0  0  0  0  0  0  0
  1 19  1  1  0  0  0
  1 10  1  0  0  0  0
  2  8  1  0  0  0  0
  3  5  1  6  0  0  0
  3  4  1  0  0  0  0
  4  1  1  1  0  0  0
  4  6  1  0  0  0  0
  7  2  1  0  0  0  0
  7  3  1  0  0  0  0
  8  6  2  0  0  0  0
  9  7  2  0  0  0  0
 10 11  1  0  0  0  0
 11 12  1  0  0  0  0
 12 13  2  0  0  0  0
 15 14  1  1  0  0  0
 16 12  1  6  0  0  0
 16 17  1  0  0  0  0
 16 15  1  0  0  0  0
 17 15  1  0  0  0  0
 17 18  1  1  0  0  0
 18 14  1  0  0  0  0
 20 21  1  0  0  0  0
 20 19  1  0  0  0  0
 21 22  1  6  0  0  0
 21 23  1  0  0  0  0
 23 24  1  0  0  0  0
 24 27  1  0  0  0  0
 25 27  1  0  0  0  0
 27 26  2  0  0  0  0
M  END
>  <MODEL>
3

>  <REMARK>
 VINA RESULT:      -7.7      1.880      5.997
  Name = 
  10 active torsions:
  status: ('A' for Active; 'I' for Inactive)
    1  A    between atoms: C_2  and  O_11
    2  A    between atoms: C_2  and  C_14
    3  A    between atoms: C_4  and  C_14
    4  A    between atoms: C_4  and  C_18
    5  A    between atoms: C_5  and  C_23
    6  A    between atoms: O_11  and  O_24
    7  A    between atoms: N_17  and  N_21
    8  A    between atoms: C_19  and  C_25
    9  A    between atoms: N_21  and  C_23
   10  A    between atoms: C_23  and  O_24
                            x       y       z     vdW  Elec       q    Type
                         _______ _______ _______ _____ _____    ______ ____

>  <TORSDO>
F 10

$$$$
=
 OpenBabel11032419513D

 27 29  0  0  1  0  0  0  0  0999 V2000
  187.8110  177.2050  143.2900 C   0  0  1  0  0  3  0  0  0  0  0  0
  184.7160  178.5270  146.0620 C   0  0  0  0  0  2  0  0  0  0  0  0
  185.6500  178.4880  143.6160 C   0  0  1  0  0  3  0  0  0  0  0  0
  186.6110  177.4430  144.2160 C   0  0  2  0  0  3  0  0  0  0  0  0
  184.8950  177.8760  142.4470 C   0  0  0  0  0  1  0  0  0  0  0  0
  187.0320  177.8060  145.6220 C   0  0  0  0  0  3  0  0  0  0  0  0
  184.6710  179.0180  144.6420 C   0  0  0  0  0  0  0  0  0  0  0  0
  186.1410  178.3100  146.4830 C   0  0  0  0  0  3  0  0  0  0  0  0
  183.8440  179.8570  144.3220 O   0  0  0  0  0  0  0  0  0  0  0  0
  188.0680  178.3340  142.3970 N   0  0  0  0  0  2  0  0  0  0  0  0
  188.4580  177.8070  141.1560 N   0  0  0  0  0  2  0  0  0  0  0  0
  187.7440  178.1070  139.9540 C   0  0  0  0  0  0  0  0  0  0  0  0
  186.6930  178.8020  139.9960 O   0  0  0  0  0  0  0  0  0  0  0  0
  190.1960  177.0190  137.2630 C   0  0  0  0  0  2  0  0  0  0  0  0
  189.7350  177.5870  138.5880 C   0  0  2  0  0  3  0  0  0  0  0  0
  188.2190  177.5580  138.6490 C   0  0  2  0  0  3  0  0  0  0  0  0
  188.9310  178.6390  137.8570 C   0  0  2  0  0  3  0  0  0  0  0  0
  189.3930  178.0730  136.5310 C   0  0  0  0  0  2  0  0  0  0  0  0
  188.9700  176.8000  143.9870 O   0  0  0  0  0  0  0  0  0  0  0  0
  189.6280  175.9610  143.2070 O   0  0  0  0  0  0  0  0  0  0  0  0
  190.9780  176.2350  143.4450 C   0  0  1  0  0  3  0  0  0  0  0  0
  191.5180  176.9370  142.3680 O   0  0  0  0  0  1  0  0  0  0  0  0
  191.1460  177.0200  144.7440 C   0  0  0  0  0  2  0  0  0  0  0  0
  191.7900  176.1950  145.8550 C   0  0  0  0  0  2  0  0  0  0  0  0
  189.9810  176.9190  147.4620 N   0  0  0  0  0  1  0  0  0  0  0  0
  192.2120  176.8600  148.1040 O   0  0  0  0  0  0  0  0  0  0  0  0
  191.3590  176.6750  147.1990 C   0  0  0  0  0  0  0  0  0  0  0  0
  1 10  1  1  0  0  0
  1 19  1  0  0  0  0
  2  8  1  0  0  0  0
  3  5  1  6  0  0  0
  3  4  1  0  0  0  0
  3  7  1  0  0  0  0
  4  1  1  6  0  0  0
  4  6  1  0  0  0  0
  6  8  2  0  0  0  0
  7  2  1  0  0  0  0
  9  7  2  0  0  0  0
 11 10  1  0  0  0  0
 12 13  2  0  0  0  0
 12 11  1  0  0  0  0
 15 14  1  6  0  0  0
 15 16  1  0  0  0  0
 16 12  1  1  0  0  0
 17 18  1  6  0  0  0
 17 15  1  0  0  0  0
 17 16  1  0  0  0  0
 18 14  1  0  0  0  0
 20 21  1  0  0  0  0
 20 19  1  0  0  0  0
 21 22  1  6  0  0  0
 21 23  1  0  0  0  0
 23 24  1  0  0  0  0
 24 27  1  0  0  0  0
 27 25  1  0  0  0  0
 27 26  2  0  0  0  0
M  END
>  <MODEL>
4

>  <REMARK>
 VINA RESULT:      -7.6      1.824      5.628
  Name = 
  10 active torsions:
  status: ('A' for Active; 'I' for Inactive)
    1  A    between atoms: C_2  and  O_11
    2  A    between atoms: C_2  and  C_14
    3  A    between atoms: C_4  and  C_14
    4  A    between atoms: C_4  and  C_18
    5  A    between atoms: C_5  and  C_23
    6  A    between atoms: O_11  and  O_24
    7  A    between atoms: N_17  and  N_21
    8  A    between atoms: C_19  and  C_25
    9  A    between atoms: N_21  and  C_23
   10  A    between atoms: C_23  and  O_24
                            x       y       z     vdW  Elec       q    Type
                         _______ _______ _______ _____ _____    ______ ____

>  <TORSDO>
F 10

$$$$
=
 OpenBabel11032419513D

 27 29  0  0  1  0  0  0  0  0999 V2000
  189.0730  178.1710  140.8510 C   0  0  1  0  0  3  0  0  0  0  0  0
  190.8120  175.5020  137.8740 C   0  0  0  0  0  2  0  0  0  0  0  0
  191.1510  177.4480  139.5920 C   0  0  1  0  0  3  0  0  0  0  0  0
  189.7140  177.0680  139.9990 C   0  0  2  0  0  3  0  0  0  0  0  0
  192.0690  177.3430  140.7990 C   0  0  0  0  0  1  0  0  0  0  0  0
  188.8670  176.7000  138.8020 C   0  0  0  0  0  3  0  0  0  0  0  0
  191.6740  176.5800  138.4670 C   0  0  0  0  0  0  0  0  0  0  0  0
  189.3840  175.9640  137.8110 C   0  0  0  0  0  3  0  0  0  0  0  0
  192.7990  176.7600  138.0290 O   0  0  0  0  0  0  0  0  0  0  0  0
  187.6710  178.4060  140.5090 N   0  0  0  0  0  2  0  0  0  0  0  0
  186.9990  178.7330  141.6970 N   0  0  0  0  0  2  0  0  0  0  0  0
  185.6740  179.2720  141.6880 C   0  0  0  0  0  0  0  0  0  0  0  0
  185.1030  179.5350  140.5950 O   0  0  0  0  0  0  0  0  0  0  0  0
  184.5810  178.8040  145.2970 C   0  0  0  0  0  2  0  0  0  0  0  0
  185.2850  178.4830  143.9960 C   0  0  2  0  0  3  0  0  0  0  0  0
  184.9810  179.5660  142.9780 C   0  0  2  0  0  3  0  0  0  0  0  0
  183.9550  178.4890  143.2750 C   0  0  2  0  0  3  0  0  0  0  0  0
  183.2500  178.8080  144.5770 C   0  0  0  0  0  2  0  0  0  0  0  0
  189.2600  177.9730  142.2350 O   0  0  0  0  0  0  0  0  0  0  0  0
  189.0660  176.6890  142.4800 O   0  0  0  0  0  0  0  0  0  0  0  0
  189.4460  176.5170  143.8150 C   0  0  1  0  0  3  0  0  0  0  0  0
  190.8170  176.2740  143.8910 O   0  0  0  0  0  1  0  0  0  0  0  0
  189.0640  177.7410  144.6440 C   0  0  0  0  0  2  0  0  0  0  0  0
  188.2770  177.3820  145.9010 C   0  0  0  0  0  2  0  0  0  0  0  0
  188.8820  178.2660  148.1890 N   0  0  0  0  0  1  0  0  0  0  0  0
  190.1420  176.6060  147.1650 O   0  0  0  0  0  0  0  0  0  0  0  0
  189.1570  177.3850  147.1050 C   0  0  0  0  0  0  0  0  0  0  0  0
  1 10  1  1  0  0  0
  1 19  1  0  0  0  0
  2  7  1  0  0  0  0
  3  4  1  0  0  0  0
  3  5  1  1  0  0  0
  4  1  1  6  0  0  0
  6  4  1  0  0  0  0
  7  3  1  0  0  0  0
  8  2  1  0  0  0  0
  8  6  2  0  0  0  0
  9  7  2  0  0  0  0
 10 11  1  0  0  0  0
 12 11  1  0  0  0  0
 13 12  2  0  0  0  0
 15 14  1  1  0  0  0
 16 12  1  6  0  0  0
 16 17  1  0  0  0  0
 16 15  1  0  0  0  0
 17 15  1  0  0  0  0
 17 18  1  1  0  0  0
 18 14  1  0  0  0  0
 19 20  1  0  0  0  0
 20 21  1  0  0  0  0
 21 22  1  6  0  0  0
 21 23  1  0  0  0  0
 23 24  1  0  0  0  0
 24 27  1  0  0  0  0
 27 26  2  0  0  0  0
 27 25  1  0  0  0  0
M  END
>  <MODEL>
5

>  <REMARK>
 VINA RESULT:      -7.5      2.052      6.829
  Name = 
  10 active torsions:
  status: ('A' for Active; 'I' for Inactive)
    1  A    between atoms: C_2  and  O_11
    2  A    between atoms: C_2  and  C_14
    3  A    between atoms: C_4  and  C_14
    4  A    between atoms: C_4  and  C_18
    5  A    between atoms: C_5  and  C_23
    6  A    between atoms: O_11  and  O_24
    7  A    between atoms: N_17  and  N_21
    8  A    between atoms: C_19  and  C_25
    9  A    between atoms: N_21  and  C_23
   10  A    between atoms: C_23  and  O_24
                            x       y       z     vdW  Elec       q    Type
                         _______ _______ _______ _____ _____    ______ ____

>  <TORSDO>
F 10

$$$$
=
 OpenBabel11032419513D

 27 29  0  0  1  0  0  0  0  0999 V2000
  187.7730  177.3510  142.3560 C   0  0  1  0  0  3  0  0  0  0  0  0
  185.3390  178.3800  145.8240 C   0  0  0  0  0  2  0  0  0  0  0  0
  185.7280  178.5580  143.2410 C   0  0  1  0  0  3  0  0  0  0  0  0
  186.7990  177.4890  143.5330 C   0  0  2  0  0  3  0  0  0  0  0  0
  184.7420  178.0270  142.2120 C   0  0  0  0  0  1  0  0  0  0  0  0
  187.5090  177.7460  144.8420 C   0  0  0  0  0  3  0  0  0  0  0  0
  184.9900  178.9830  144.4920 C   0  0  0  0  0  0  0  0  0  0  0  0
  186.8220  178.1600  145.9130 C   0  0  0  0  0  3  0  0  0  0  0  0
  184.1100  179.8280  144.4270 O   0  0  0  0  0  0  0  0  0  0  0  0
  188.1450  178.6410  141.7770 N   0  0  0  0  0  2  0  0  0  0  0  0
  187.7980  178.6060  140.4180 N   0  0  0  0  0  2  0  0  0  0  0  0
  188.7470  178.2470  139.4080 C   0  0  0  0  0  0  0  0  0  0  0  0
  189.9480  178.0240  139.7170 O   0  0  0  0  0  0  0  0  0  0  0  0
  186.4430  177.7520  136.4260 C   0  0  0  0  0  2  0  0  0  0  0  0
  186.8550  177.8050  137.8820 C   0  0  2  0  0  3  0  0  0  0  0  0
  188.3220  178.1820  137.9780 C   0  0  2  0  0  3  0  0  0  0  0  0
  187.9200  176.7630  137.6190 C   0  0  2  0  0  3  0  0  0  0  0  0
  187.5070  176.7080  136.1630 C   0  0  0  0  0  2  0  0  0  0  0  0
  188.9000  176.5610  142.6680 O   0  0  0  0  0  0  0  0  0  0  0  0
  189.9100  177.3840  142.8910 O   0  0  0  0  0  0  0  0  0  0  0  0
  191.0480  176.5720  142.8500 C   0  0  1  0  0  3  0  0  0  0  0  0
  192.0940  177.2530  142.2280 O   0  0  0  0  0  1  0  0  0  0  0  0
  191.4460  176.1340  144.2570 C   0  0  0  0  0  2  0  0  0  0  0  0
  191.3690  177.2680  145.2750 C   0  0  0  0  0  2  0  0  0  0  0  0
  192.2840  176.1580  147.3520 N   0  0  0  0  0  1  0  0  0  0  0  0
  190.0580  176.8070  147.2110 O   0  0  0  0  0  0  0  0  0  0  0  0
  191.1850  176.7380  146.6570 C   0  0  0  0  0  0  0  0  0  0  0  0
  1 10  1  1  0  0  0
  1 19  1  0  0  0  0
  2  8  1  0  0  0  0
  3  5  1  6  0  0  0
  3  4  1  0  0  0  0
  3  7  1  0  0  0  0
  4  1  1  6  0  0  0
  4  6  1  0  0  0  0
  6  8  2  0  0  0  0
  7  2  1  0  0  0  0
  9  7  2  0  0  0  0
 11 10  1  0  0  0  0
 12 13  2  0  0  0  0
 12 11  1  0  0  0  0
 15 14  1  6  0  0  0
 15 16  1  0  0  0  0
 16 12  1  1  0  0  0
 17 18  1  6  0  0  0
 17 15  1  0  0  0  0
 17 16  1  0  0  0  0
 18 14  1  0  0  0  0
 19 20  1  0  0  0  0
 21 22  1  1  0  0  0
 21 20  1  0  0  0  0
 21 23  1  0  0  0  0
 23 24  1  0  0  0  0
 24 27  1  0  0  0  0
 27 26  2  0  0  0  0
 27 25  1  0  0  0  0
M  END
>  <MODEL>
6

>  <REMARK>
 VINA RESULT:      -7.5      2.122      5.605
  Name = 
  10 active torsions:
  status: ('A' for Active; 'I' for Inactive)
    1  A    between atoms: C_2  and  O_11
    2  A    between atoms: C_2  and  C_14
    3  A    between atoms: C_4  and  C_14
    4  A    between atoms: C_4  and  C_18
    5  A    between atoms: C_5  and  C_23
    6  A    between atoms: O_11  and  O_24
    7  A    between atoms: N_17  and  N_21
    8  A    between atoms: C_19  and  C_25
    9  A    between atoms: N_21  and  C_23
   10  A    between atoms: C_23  and  O_24
                            x       y       z     vdW  Elec       q    Type
                         _______ _______ _______ _____ _____    ______ ____

>  <TORSDO>
F 10

$$$$
=
 OpenBabel11032419513D

 27 29  0  0  1  0  0  0  0  0999 V2000
  186.6540  177.5250  143.3190 C   0  0  1  0  0  3  0  0  0  0  0  0
  187.2430  177.9950  147.6140 C   0  0  0  0  0  2  0  0  0  0  0  0
  185.9040  178.6520  145.4620 C   0  0  1  0  0  3  0  0  0  0  0  0
  186.7070  177.4860  144.8520 C   0  0  2  0  0  3  0  0  0  0  0  0
  184.4160  178.3900  145.2950 C   0  0  0  0  0  1  0  0  0  0  0  0
  188.1230  177.4410  145.3780 C   0  0  0  0  0  3  0  0  0  0  0  0
  186.2310  178.8660  146.9240 C   0  0  0  0  0  0  0  0  0  0  0  0
  188.3700  177.6760  146.6720 C   0  0  0  0  0  3  0  0  0  0  0  0
  185.6780  179.7560  147.5510 O   0  0  0  0  0  0  0  0  0  0  0  0
  186.6040  178.8880  142.7900 N   0  0  0  0  0  2  0  0  0  0  0  0
  185.3600  179.0480  142.1620 N   0  0  0  0  0  2  0  0  0  0  0  0
  185.2100  178.9140  140.7450 C   0  0  0  0  0  0  0  0  0  0  0  0
  186.2190  178.7180  140.0150 O   0  0  0  0  0  0  0  0  0  0  0  0
  181.4230  178.7800  140.4610 C   0  0  0  0  0  2  0  0  0  0  0  0
  182.7830  178.6260  141.1060 C   0  0  2  0  0  3  0  0  0  0  0  0
  183.8590  179.0510  140.1240 C   0  0  2  0  0  3  0  0  0  0  0  0
  183.2030  177.6880  139.9960 C   0  0  2  0  0  3  0  0  0  0  0  0
  181.8420  177.8410  139.3510 C   0  0  0  0  0  2  0  0  0  0  0  0
  187.6720  176.7550  142.7160 O   0  0  0  0  0  0  0  0  0  0  0  0
  188.4370  177.5830  142.0260 O   0  0  0  0  0  0  0  0  0  0  0  0
  189.5130  176.7990  141.5940 C   0  0  1  0  0  3  0  0  0  0  0  0
  190.3780  177.5680  140.8160 O   0  0  0  0  0  1  0  0  0  0  0  0
  190.2470  176.1920  142.7870 C   0  0  0  0  0  2  0  0  0  0  0  0
  191.5840  176.8730  143.0680 C   0  0  0  0  0  2  0  0  0  0  0  0
  191.0710  179.1840  143.9500 N   0  0  0  0  0  1  0  0  0  0  0  0
  191.7170  177.4660  145.3720 O   0  0  0  0  0  0  0  0  0  0  0  0
  191.4680  177.8390  144.1970 C   0  0  0  0  0  0  0  0  0  0  0  0
  1 19  1  6  0  0  0
  3  5  1  1  0  0  0
  3  7  1  0  0  0  0
  4  1  1  6  0  0  0
  4  6  1  0  0  0  0
  4  3  1  0  0  0  0
  6  8  2  0  0  0  0
  7  9  2  0  0  0  0
  7  2  1  0  0  0  0
  8  2  1  0  0  0  0
 10  1  1  0  0  0  0
 11 10  1  0  0  0  0
 12 11  1  0  0  0  0
 13 12  2  0  0  0  0
 15 14  1  6  0  0  0
 16 12  1  1  0  0  0
 16 15  1  0  0  0  0
 17 18  1  6  0  0  0
 17 16  1  0  0  0  0
 17 15  1  0  0  0  0
 18 14  1  0  0  0  0
 20 19  1  0  0  0  0
 21 22  1  1  0  0  0
 21 20  1  0  0  0  0
 21 23  1  0  0  0  0
 23 24  1  0  0  0  0
 24 27  1  0  0  0  0
 25 27  1  0  0  0  0
 27 26  2  0  0  0  0
M  END
>  <MODEL>
7

>  <REMARK>
 VINA RESULT:      -7.4      2.219      5.660
  Name = 
  10 active torsions:
  status: ('A' for Active; 'I' for Inactive)
    1  A    between atoms: C_2  and  O_11
    2  A    between atoms: C_2  and  C_14
    3  A    between atoms: C_4  and  C_14
    4  A    between atoms: C_4  and  C_18
    5  A    between atoms: C_5  and  C_23
    6  A    between atoms: O_11  and  O_24
    7  A    between atoms: N_17  and  N_21
    8  A    between atoms: C_19  and  C_25
    9  A    between atoms: N_21  and  C_23
   10  A    between atoms: C_23  and  O_24
                            x       y       z     vdW  Elec       q    Type
                         _______ _______ _______ _____ _____    ______ ____

>  <TORSDO>
F 10

$$$$
=
 OpenBabel11032419513D

 27 29  0  0  1  0  0  0  0  0999 V2000
  188.0100  177.2250  144.2810 C   0  0  1  0  0  3  0  0  0  0  0  0
  184.1880  178.6270  145.8430 C   0  0  0  0  0  2  0  0  0  0  0  0
  185.9490  178.6510  143.9050 C   0  0  1  0  0  3  0  0  0  0  0  0
  186.5690  177.5040  144.7270 C   0  0  2  0  0  3  0  0  0  0  0  0
  185.6450  178.1650  142.4970 C   0  0  0  0  0  1  0  0  0  0  0  0
  186.4640  177.7540  146.2140 C   0  0  0  0  0  3  0  0  0  0  0  0
  184.6920  179.1980  144.5470 C   0  0  0  0  0  0  0  0  0  0  0  0
  185.3470  178.2770  146.7320 C   0  0  0  0  0  3  0  0  0  0  0  0
  184.0840  180.1150  144.0180 O   0  0  0  0  0  0  0  0  0  0  0  0
  188.0840  176.2840  143.1640 N   0  0  0  0  0  2  0  0  0  0  0  0
  188.4400  177.0170  142.0220 N   0  0  0  0  0  2  0  0  0  0  0  0
  189.6630  176.7710  141.3210 C   0  0  0  0  0  0  0  0  0  0  0  0
  190.4900  175.9290  141.7630 O   0  0  0  0  0  0  0  0  0  0  0  0
  189.0560  178.6240  138.0590 C   0  0  0  0  0  2  0  0  0  0  0  0
  188.7130  177.8310  139.3010 C   0  0  2  0  0  3  0  0  0  0  0  0
  189.9810  177.5470  140.0850 C   0  0  2  0  0  3  0  0  0  0  0  0
  189.6450  176.7260  138.8540 C   0  0  2  0  0  3  0  0  0  0  0  0
  189.9870  177.5180  137.6090 C   0  0  0  0  0  2  0  0  0  0  0  0
  188.7460  178.4040  144.0370 O   0  0  0  0  0  0  0  0  0  0  0  0
  189.6610  178.5030  144.9850 O   0  0  0  0  0  0  0  0  0  0  0  0
  190.8630  178.1540  144.3610 C   0  0  1  0  0  3  0  0  0  0  0  0
  191.7050  179.2630  144.2970 O   0  0  0  0  0  1  0  0  0  0  0  0
  191.5370  177.0010  145.1000 C   0  0  0  0  0  2  0  0  0  0  0  0
  190.9300  176.7450  146.4770 C   0  0  0  0  0  2  0  0  0  0  0  0
  192.8040  175.2530  147.2780 N   0  0  0  0  0  1  0  0  0  0  0  0
  192.1540  177.1270  148.4860 O   0  0  0  0  0  0  0  0  0  0  0  0
  191.9850  176.4010  147.4730 C   0  0  0  0  0  0  0  0  0  0  0  0
  1 10  1  6  0  0  0
  2  8  1  0  0  0  0
  3  5  1  6  0  0  0
  3  7  1  0  0  0  0
  3  4  1  0  0  0  0
  4  1  1  6  0  0  0
  4  6  1  0  0  0  0
  6  8  2  0  0  0  0
  7  2  1  0  0  0  0
  9  7  2  0  0  0  0
 11 10  1  0  0  0  0
 12 13  2  0  0  0  0
 12 11  1  0  0  0  0
 15 14  1  6  0  0  0
 15 16  1  0  0  0  0
 16 12  1  1  0  0  0
 17 18  1  6  0  0  0
 17 15  1  0  0  0  0
 17 16  1  0  0  0  0
 18 14  1  0  0  0  0
 19  1  1  0  0  0  0
 19 20  1  0  0  0  0
 21 22  1  1  0  0  0
 21 20  1  0  0  0  0
 21 23  1  0  0  0  0
 23 24  1  0  0  0  0
 24 27  1  0  0  0  0
 25 27  1  0  0  0  0
 27 26  2  0  0  0  0
M  END
>  <MODEL>
8

>  <REMARK>
 VINA RESULT:      -7.4      1.948      5.568
  Name = 
  10 active torsions:
  status: ('A' for Active; 'I' for Inactive)
    1  A    between atoms: C_2  and  O_11
    2  A    between atoms: C_2  and  C_14
    3  A    between atoms: C_4  and  C_14
    4  A    between atoms: C_4  and  C_18
    5  A    between atoms: C_5  and  C_23
    6  A    between atoms: O_11  and  O_24
    7  A    between atoms: N_17  and  N_21
    8  A    between atoms: C_19  and  C_25
    9  A    between atoms: N_21  and  C_23
   10  A    between atoms: C_23  and  O_24
                            x       y       z     vdW  Elec       q    Type
                         _______ _______ _______ _____ _____    ______ ____

>  <TORSDO>
F 10

$$$$
=
 OpenBabel11032419513D

 27 29  0  0  1  0  0  0  0  0999 V2000
  189.0110  177.8370  140.4580 C   0  0  1  0  0  3  0  0  0  0  0  0
  188.0910  176.6240  136.3720 C   0  0  0  0  0  2  0  0  0  0  0  0
  189.9030  177.1190  138.1960 C   0  0  1  0  0  3  0  0  0  0  0  0
  188.6680  177.1730  139.1180 C   0  0  2  0  0  3  0  0  0  0  0  0
  190.8770  176.0710  138.7080 C   0  0  0  0  0  1  0  0  0  0  0  0
  187.4850  177.8240  138.4380 C   0  0  0  0  0  3  0  0  0  0  0  0
  189.5290  176.8210  136.7600 C   0  0  0  0  0  0  0  0  0  0  0  0
  187.2170  177.5620  137.1540 C   0  0  0  0  0  3  0  0  0  0  0  0
  190.3980  176.7490  135.9040 O   0  0  0  0  0  0  0  0  0  0  0  0
  188.0950  178.9240  140.8000 N   0  0  0  0  0  2  0  0  0  0  0  0
  187.3120  178.4880  141.8800 N   0  0  0  0  0  2  0  0  0  0  0  0
  185.9180  178.7980  141.9720 C   0  0  0  0  0  0  0  0  0  0  0  0
  185.3740  179.5400  141.1100 O   0  0  0  0  0  0  0  0  0  0  0  0
  183.2410  178.7330  144.6680 C   0  0  0  0  0  2  0  0  0  0  0  0
  184.0490  179.2830  143.5120 C   0  0  2  0  0  3  0  0  0  0  0  0
  185.1150  178.2770  143.1180 C   0  0  2  0  0  3  0  0  0  0  0  0
  185.3120  179.1600  144.3360 C   0  0  2  0  0  3  0  0  0  0  0  0
  184.5040  178.6120  145.4940 C   0  0  0  0  0  2  0  0  0  0  0  0
  189.1530  176.9070  141.5090 O   0  0  0  0  0  0  0  0  0  0  0  0
  190.3690  177.0540  142.0060 O   0  0  0  0  0  0  0  0  0  0  0  0
  190.2830  176.5640  143.3130 C   0  0  1  0  0  3  0  0  0  0  0  0
  191.4900  175.9680  143.6770 O   0  0  0  0  0  1  0  0  0  0  0  0
  189.9150  177.6840  144.2840 C   0  0  0  0  0  2  0  0  0  0  0  0
  188.6720  177.3660  145.1100 C   0  0  0  0  0  2  0  0  0  0  0  0
  190.3660  176.8180  146.9020 N   0  0  0  0  0  1  0  0  0  0  0  0
  188.1360  177.1980  147.4260 O   0  0  0  0  0  0  0  0  0  0  0  0
  189.0250  177.1250  146.5390 C   0  0  0  0  0  0  0  0  0  0  0  0
  1 10  1  1  0  0  0
  1 19  1  0  0  0  0
  2  7  1  0  0  0  0
  2  8  1  0  0  0  0
  3  5  1  1  0  0  0
  3  4  1  0  0  0  0
  4  1  1  1  0  0  0
  6  4  1  0  0  0  0
  7  3  1  0  0  0  0
  8  6  2  0  0  0  0
  9  7  2  0  0  0  0
 10 11  1  0  0  0  0
 11 12  1  0  0  0  0
 13 12  2  0  0  0  0
 14 18  1  0  0  0  0
 15 17  1  0  0  0  0
 15 14  1  1  0  0  0
 16 12  1  6  0  0  0
 16 15  1  0  0  0  0
 16 17  1  0  0  0  0
 17 18  1  1  0  0  0
 19 20  1  0  0  0  0
 20 21  1  0  0  0  0
 21 22  1  1  0  0  0
 21 23  1  0  0  0  0
 23 24  1  0  0  0  0
 24 27  1  0  0  0  0
 27 25  1  0  0  0  0
 27 26  2  0  0  0  0
M  END
>  <MODEL>
9

>  <REMARK>
 VINA RESULT:      -7.3      2.075      7.337
  Name = 
  10 active torsions:
  status: ('A' for Active; 'I' for Inactive)
    1  A    between atoms: C_2  and  O_11
    2  A    between atoms: C_2  and  C_14
    3  A    between atoms: C_4  and  C_14
    4  A    between atoms: C_4  and  C_18
    5  A    between atoms: C_5  and  C_23
    6  A    between atoms: O_11  and  O_24
    7  A    between atoms: N_17  and  N_21
    8  A    between atoms: C_19  and  C_25
    9  A    between atoms: N_21  and  C_23
   10  A    between atoms: C_23  and  O_24
                            x       y       z     vdW  Elec       q    Type
                         _______ _______ _______ _____ _____    ______ ____

>  <TORSDO>
F 10

$$$$
