=
 OpenBabel11042411243D

 57 59  0  0  1  0  0  0  0  0999 V2000
  189.5670  177.3720  142.0070 C   0  0  0  0  0  0  0  0  0  0  0  0
  193.2960  177.3820  139.9970 N   0  0  0  0  0  1  0  0  0  0  0  0
  191.9950  177.4550  142.0540 C   0  0  0  0  0  3  0  0  0  0  0  0
  190.8380  177.3070  139.9280 C   0  0  0  0  0  0  0  0  0  0  0  0
  192.0370  177.3810  140.6600 C   0  0  0  0  0  0  0  0  0  0  0  0
  190.7690  177.4520  142.7230 C   0  0  0  0  0  3  0  0  0  0  0  0
  189.6140  177.2970  140.6030 C   0  0  0  0  0  3  0  0  0  0  0  0
  188.2770  177.3580  142.7340 C   0  0  0  0  0  0  0  0  0  0  0  0
  188.0350  176.4380  143.6670 C   0  0  0  0  0  2  0  0  0  0  0  0
  187.2890  178.3490  142.4280 N   0  0  0  0  0  2  0  0  0  0  0  0
  186.7810  178.5990  141.0880 C   0  0  0  0  0  2  0  0  0  0  0  0
  185.3070  178.9390  141.1670 C   0  0  0  0  0  2  0  0  0  0  0  0
  184.7870  178.6220  142.5530 C   0  0  0  0  0  2  0  0  0  0  0  0
  183.3130  178.2910  142.4640 C   0  0  0  0  0  2  0  0  0  0  0  0
  182.7450  178.8530  141.1780 C   0  0  0  0  0  2  0  0  0  0  0  0
  181.5150  178.1300  140.8330 N   0  0  0  0  0  0  0  0  0  0  0  0
  178.9770  179.0380  140.7540 O   0  0  0  0  0  0  0  0  0  0  0  0
  180.1410  178.8150  141.6940 P   0  0  0  0  0  0  0  0  0  0  0  0
  179.6700  177.7770  142.9420 O   0  0  0  0  0  1  0  0  0  0  0  0
  180.5980  180.3010  142.3610 O   0  0  0  0  0  1  0  0  0  0  0  0
  181.2320  178.0470  139.4380 N   0  0  0  0  0  0  0  0  0  0  0  0
  180.9880  178.7930  136.3800 C   0  0  0  0  0  2  0  0  0  0  0  0
  182.3250  178.5750  138.5660 C   0  0  1  0  0  3  0  0  0  0  0  0
  181.3180  180.9810  138.6090 C   0  0  0  0  0  2  0  0  0  0  0  0
  182.2190  178.2090  137.0700 C   0  0  0  0  0  2  0  0  0  0  0  0
  180.3560  180.5860  137.4930 C   0  0  0  0  0  2  0  0  0  0  0  0
  181.0570  180.1890  136.3530 O   0  0  0  0  0  0  0  0  0  0  0  0
  182.5620  180.0860  138.7350 C   0  0  0  0  0  2  0  0  0  0  0  0
  180.4430  175.5580  140.5530 O   0  0  0  0  0  1  0  0  0  0  0  0
  180.9150  176.3330  139.1270 P   0  0  0  0  0  0  0  0  0  0  0  0
  179.8250  176.1840  138.0890 O   0  0  0  0  0  0  0  0  0  0  0  0
  182.3240  175.5930  138.5550 O   0  0  0  0  0  1  0  0  0  0  0  0
  190.8480  177.2160  138.4370 C   0  0  0  0  0  2  0  0  0  0  0  0
  191.3670  175.8610  137.9990 C   0  0  0  0  0  2  0  0  0  0  0  0
  190.2890  175.0280  137.7050 O   0  0  0  0  0  0  0  0  0  0  0  0
  190.0830  175.1850  136.3340 C   0  0  0  0  0  2  0  0  0  0  0  0
  190.4040  173.9020  135.5670 C   0  0  1  0  0  3  0  0  0  0  0  0
  192.8050  173.3850  135.6580 C   0  0  0  0  0  0  0  0  0  0  0  0
  193.1800  174.3680  134.5950 C   0  0  0  0  0  1  0  0  0  0  0  0
  191.5860  173.2170  136.0630 N   0  0  0  0  0  0  0  0  0  0  0  0
  193.9120  172.5850  136.2810 C   0  0  1  0  0  3  0  0  0  0  0  0
  194.2040  173.0990  137.6860 C   0  0  0  0  0  2  0  0  0  0  0  0
  195.5170  173.8660  137.7350 C   0  0  0  0  0  2  0  0  0  0  0  0
  196.4150  173.4490  136.5860 C   0  0  0  0  0  1  0  0  0  0  0  0
  193.5740  171.0940  136.3170 C   0  0  0  0  0  2  0  0  0  0  0  0
  195.0340  169.6330  137.6490 C   0  0  0  0  0  2  0  0  0  0  0  0
  194.7970  170.2530  136.4960 C   0  0  0  0  0  3  0  0  0  0  0  0
  189.2040  172.9760  135.3760 C   0  0  0  0  0  2  0  0  0  0  0  0
  188.2290  172.1300  137.3710 O   0  0  0  0  0  1  0  0  0  0  0  0
  188.1720  173.2030  136.4740 C   0  0  2  0  0  3  0  0  0  0  0  0
  184.5120  174.4850  136.0410 C   0  0  0  0  0  2  0  0  0  0  0  0
  183.5570  172.9370  136.0440 S   0  0  0  0  0  0  0  0  0  0  0  0
  186.0910  171.9790  135.7080 C   0  0  0  0  0  2  0  0  0  0  0  0
  184.7640  172.0940  134.9780 C   0  0  0  0  0  2  0  0  0  0  0  0
  186.4920  175.6610  136.8820 C   0  0  0  0  0  1  0  0  0  0  0  0
  185.8720  174.2870  136.7010 C   0  0  2  0  0  3  0  0  0  0  0  0
  186.7650  173.3500  135.8580 C   0  0  1  0  0  3  0  0  0  0  0  0
  1  6  1  0  0  0  0
  1  8  1  0  0  0  0
  2  5  1  0  0  0  0
  3  6  2  0  0  0  0
  4  7  1  0  0  0  0
  4  5  2  0  0  0  0
  5  3  1  0  0  0  0
  7  1  2  0  0  0  0
  8  9  2  0  0  0  0
 10  8  1  0  0  0  0
 11 12  1  0  0  0  0
 11 10  1  0  0  0  0
 12 13  1  0  0  0  0
 14 13  1  0  0  0  0
 15 14  1  0  0  0  0
 16 15  1  0  0  0  0
 16 18  1  0  0  0  0
 17 18  2  0  0  0  0
 18 20  1  0  0  0  0
 18 19  1  0  0  0  0
 21 16  1  0  0  0  0
 22 25  1  0  0  0  0
 23 28  1  0  0  0  0
 23 21  1  1  0  0  0
 24 28  1  0  0  0  0
 25 23  1  0  0  0  0
 26 24  1  0  0  0  0
 27 22  1  0  0  0  0
 27 26  1  0  0  0  0
 30 21  1  0  0  0  0
 30 29  1  0  0  0  0
 31 30  2  0  0  0  0
 32 30  1  0  0  0  0
 33  4  1  0  0  0  0
 34 33  1  0  0  0  0
 35 34  1  0  0  0  0
 36 35  1  0  0  0  0
 37 48  1  1  0  0  0
 37 40  1  0  0  0  0
 37 36  1  0  0  0  0
 38 40  2  0  0  0  0
 38 41  1  0  0  0  0
 39 38  1  0  0  0  0
 41 45  1  1  0  0  0
 41 42  1  0  0  0  0
 42 43  1  0  0  0  0
 44 43  1  0  0  0  0
 45 47  1  0  0  0  0
 47 46  2  0  0  0  0
 48 50  1  0  0  0  0
 50 49  1  1  0  0  0
 51 52  1  0  0  0  0
 51 56  1  0  0  0  0
 53 57  1  0  0  0  0
 54 53  1  0  0  0  0
 54 52  1  0  0  0  0
 56 55  1  6  0  0  0
 57 50  1  1  0  0  0
 57 56  1  0  0  0  0
M  END
>  <MODEL>
1

>  <REMARK>
 VINA RESULT:      -5.3      0.000      0.000
  Name = 
  26 active torsions:
  status: ('A' for Active; 'I' for Inactive)
    1  A    between atoms: C_1  and  C_27
    2  A    between atoms: C_4  and  C_27
    3  A    between atoms: C_4  and  C_54
    4  A    between atoms: C_5  and  C_16
    5  A    between atoms: C_6  and  C_35
    6  A    between atoms: P_8  and  N_55
    7  A    between atoms: C_9  and  C_21
    8  A    between atoms: C_9  and  O_29
    9  A    between atoms: C_10  and  C_42
   10  A    between atoms: C_10  and  N_55
   11  A    between atoms: C_14  and  C_30
   12  A    between atoms: C_14  and  N_52
   13  A    between atoms: C_14  and  C_53
   14  A    between atoms: C_16  and  N_49
   15  A    between atoms: P_18  and  N_28
   16  A    between atoms: C_19  and  C_23
   17  A    between atoms: C_19  and  C_42
   18  A    between atoms: C_21  and  C_31
   19  A    between atoms: C_23  and  C_46
   20  A    between atoms: C_27  and  C_35
   21  A    between atoms: N_28  and  C_34
   22  A    between atoms: N_28  and  N_55
   23  A    between atoms: O_29  and  C_30
   24  A    between atoms: C_32  and  C_53
   25  A    between atoms: C_32  and  C_57
   26  A    between atoms: C_46  and  N_49
                            x       y       z     vdW  Elec       q    Type
                         _______ _______ _______ _____ _____    ______ ____

>  <TORSDO>
F 26

$$$$
=
 OpenBabel11042411243D

 57 59  0  0  1  0  0  0  0  0999 V2000
  189.7780  175.8390  136.8600 C   0  0  0  0  0  0  0  0  0  0  0  0
  193.5540  176.7400  138.5560 N   0  0  0  0  0  1  0  0  0  0  0  0
  192.2060  175.7930  136.7630 C   0  0  0  0  0  3  0  0  0  0  0  0
  191.0980  176.7860  138.6770 C   0  0  0  0  0  0  0  0  0  0  0  0
  192.2790  176.4400  137.9980 C   0  0  0  0  0  0  0  0  0  0  0  0
  190.9650  175.4940  136.1970 C   0  0  0  0  0  3  0  0  0  0  0  0
  189.8570  176.4900  138.1040 C   0  0  0  0  0  3  0  0  0  0  0  0
  188.4710  175.5230  136.2390 C   0  0  0  0  0  0  0  0  0  0  0  0
  188.4010  175.1390  134.9660 C   0  0  0  0  0  2  0  0  0  0  0  0
  187.2780  175.6310  137.0250 N   0  0  0  0  0  2  0  0  0  0  0  0
  186.7790  176.8840  137.5710 C   0  0  0  0  0  2  0  0  0  0  0  0
  185.7470  177.4640  136.6270 C   0  0  0  0  0  2  0  0  0  0  0  0
  184.6750  176.4320  136.3490 C   0  0  0  0  0  2  0  0  0  0  0  0
  183.9750  176.0840  137.6440 C   0  0  0  0  0  2  0  0  0  0  0  0
  183.2530  177.3050  138.1730 C   0  0  0  0  0  2  0  0  0  0  0  0
  181.8780  177.3170  137.6610 N   0  0  0  0  0  0  0  0  0  0  0  0
  181.5200  175.7080  139.7960 O   0  0  0  0  0  1  0  0  0  0  0  0
  180.9180  176.0750  138.4580 P   0  0  0  0  0  0  0  0  0  0  0  0
  179.3350  176.6270  138.6810 O   0  0  0  0  0  1  0  0  0  0  0  0
  180.8840  174.6970  137.4770 O   0  0  0  0  0  0  0  0  0  0  0  0
  181.2140  178.5770  137.7360 N   0  0  0  0  0  0  0  0  0  0  0  0
  180.1360  181.2860  138.9490 C   0  0  0  0  0  2  0  0  0  0  0  0
  182.0380  179.6600  138.3520 C   0  0  1  0  0  3  0  0  0  0  0  0
  181.2830  178.9880  140.7580 C   0  0  0  0  0  2  0  0  0  0  0  0
  181.4660  181.0880  138.2230 C   0  0  0  0  0  2  0  0  0  0  0  0
  180.0060  179.8010  140.5710 C   0  0  0  0  0  2  0  0  0  0  0  0
  180.3050  181.1430  140.3290 O   0  0  0  0  0  0  0  0  0  0  0  0
  182.4340  179.3680  139.8100 C   0  0  0  0  0  2  0  0  0  0  0  0
  179.1260  178.6200  135.8120 O   0  0  0  0  0  1  0  0  0  0  0  0
  180.7600  178.9660  136.0690 P   0  0  0  0  0  0  0  0  0  0  0  0
  181.0170  180.4280  135.7850 O   0  0  0  0  0  1  0  0  0  0  0  0
  181.6800  178.0300  135.0020 O   0  0  0  0  0  0  0  0  0  0  0  0
  191.1400  177.4870  139.9950 C   0  0  0  0  0  2  0  0  0  0  0  0
  192.5200  177.3610  140.6100 C   0  0  0  0  0  2  0  0  0  0  0  0
  192.3940  177.0900  141.9710 O   0  0  0  0  0  0  0  0  0  0  0  0
  191.6340  178.1460  142.4740 C   0  0  0  0  0  2  0  0  0  0  0  0
  190.3770  177.6450  143.1860 C   0  0  1  0  0  3  0  0  0  0  0  0
  191.1320  176.5790  145.2680 C   0  0  0  0  0  0  0  0  0  0  0  0
  191.7810  175.4200  144.5810 C   0  0  0  0  0  1  0  0  0  0  0  0
  190.5390  177.5360  144.6260 N   0  0  0  0  0  0  0  0  0  0  0  0
  191.2030  176.6230  146.7670 C   0  0  1  0  0  3  0  0  0  0  0  0
  189.7990  176.6490  147.3590 C   0  0  0  0  0  2  0  0  0  0  0  0
  189.4940  177.9910  148.0060 C   0  0  0  0  0  2  0  0  0  0  0  0
  188.1500  177.9460  148.7090 C   0  0  0  0  0  1  0  0  0  0  0  0
  191.9960  175.4380  147.3250 C   0  0  0  0  0  2  0  0  0  0  0  0
  192.7770  177.0170  149.0380 C   0  0  0  0  0  2  0  0  0  0  0  0
  192.9480  175.8650  148.3960 C   0  0  0  0  0  3  0  0  0  0  0  0
  189.0980  178.3740  142.7750 C   0  0  0  0  0  2  0  0  0  0  0  0
  187.6970  177.6280  141.0060 O   0  0  0  0  0  1  0  0  0  0  0  0
  188.0300  177.3780  142.3420 C   0  0  2  0  0  3  0  0  0  0  0  0
  184.7160  178.8160  143.8150 C   0  0  0  0  0  2  0  0  0  0  0  0
  185.1410  179.0520  145.5680 S   0  0  0  0  0  0  0  0  0  0  0  0
  187.2170  177.4860  144.7380 C   0  0  0  0  0  2  0  0  0  0  0  0
  186.0070  177.4570  145.6570 C   0  0  0  0  0  2  0  0  0  0  0  0
  185.5280  178.8140  141.5020 C   0  0  0  0  0  1  0  0  0  0  0  0
  185.9710  178.7580  142.9530 C   0  0  2  0  0  3  0  0  0  0  0  0
  186.7960  177.4900  143.2620 C   0  0  1  0  0  3  0  0  0  0  0  0
  1  7  1  0  0  0  0
  3  5  2  0  0  0  0
  4 33  1  0  0  0  0
  5  2  1  0  0  0  0
  5  4  1  0  0  0  0
  6  3  1  0  0  0  0
  6  1  2  0  0  0  0
  7  4  2  0  0  0  0
  8  1  1  0  0  0  0
  8 10  1  0  0  0  0
  9  8  2  0  0  0  0
 10 11  1  0  0  0  0
 12 11  1  0  0  0  0
 13 12  1  0  0  0  0
 13 14  1  0  0  0  0
 14 15  1  0  0  0  0
 16 21  1  0  0  0  0
 16 15  1  0  0  0  0
 16 18  1  0  0  0  0
 18 19  1  0  0  0  0
 18 17  1  0  0  0  0
 20 18  2  0  0  0  0
 22 27  1  0  0  0  0
 23 21  1  1  0  0  0
 23 28  1  0  0  0  0
 25 23  1  0  0  0  0
 25 22  1  0  0  0  0
 26 24  1  0  0  0  0
 27 26  1  0  0  0  0
 28 24  1  0  0  0  0
 29 30  1  0  0  0  0
 30 21  1  0  0  0  0
 31 30  1  0  0  0  0
 32 30  2  0  0  0  0
 33 34  1  0  0  0  0
 34 35  1  0  0  0  0
 35 36  1  0  0  0  0
 37 36  1  1  0  0  0
 37 40  1  0  0  0  0
 38 41  1  0  0  0  0
 39 38  1  0  0  0  0
 40 38  2  0  0  0  0
 41 45  1  1  0  0  0
 41 42  1  0  0  0  0
 42 43  1  0  0  0  0
 43 44  1  0  0  0  0
 45 47  1  0  0  0  0
 47 46  2  0  0  0  0
 48 37  1  0  0  0  0
 50 49  1  6  0  0  0
 50 48  1  0  0  0  0
 51 52  1  0  0  0  0
 52 54  1  0  0  0  0
 53 54  1  0  0  0  0
 56 55  1  6  0  0  0
 56 57  1  0  0  0  0
 56 51  1  0  0  0  0
 57 50  1  6  0  0  0
 57 53  1  0  0  0  0
M  END
>  <MODEL>
2

>  <REMARK>
 VINA RESULT:      -5.2      3.238      7.403
  Name = 
  26 active torsions:
  status: ('A' for Active; 'I' for Inactive)
    1  A    between atoms: C_1  and  C_27
    2  A    between atoms: C_4  and  C_27
    3  A    between atoms: C_4  and  C_54
    4  A    between atoms: C_5  and  C_16
    5  A    between atoms: C_6  and  C_35
    6  A    between atoms: P_8  and  N_55
    7  A    between atoms: C_9  and  C_21
    8  A    between atoms: C_9  and  O_29
    9  A    between atoms: C_10  and  C_42
   10  A    between atoms: C_10  and  N_55
   11  A    between atoms: C_14  and  C_30
   12  A    between atoms: C_14  and  N_52
   13  A    between atoms: C_14  and  C_53
   14  A    between atoms: C_16  and  N_49
   15  A    between atoms: P_18  and  N_28
   16  A    between atoms: C_19  and  C_23
   17  A    between atoms: C_19  and  C_42
   18  A    between atoms: C_21  and  C_31
   19  A    between atoms: C_23  and  C_46
   20  A    between atoms: C_27  and  C_35
   21  A    between atoms: N_28  and  C_34
   22  A    between atoms: N_28  and  N_55
   23  A    between atoms: O_29  and  C_30
   24  A    between atoms: C_32  and  C_53
   25  A    between atoms: C_32  and  C_57
   26  A    between atoms: C_46  and  N_49
                            x       y       z     vdW  Elec       q    Type
                         _______ _______ _______ _____ _____    ______ ____

>  <TORSDO>
F 26

$$$$
=
 OpenBabel11042411243D

 57 59  0  0  1  0  0  0  0  0999 V2000
  189.7200  175.8300  137.1670 C   0  0  0  0  0  0  0  0  0  0  0  0
  193.4410  177.0050  138.8150 N   0  0  0  0  0  1  0  0  0  0  0  0
  192.1450  175.9350  137.0530 C   0  0  0  0  0  3  0  0  0  0  0  0
  190.9880  176.9000  138.9530 C   0  0  0  0  0  0  0  0  0  0  0  0
  192.1850  176.6130  138.2730 C   0  0  0  0  0  0  0  0  0  0  0  0
  190.9220  175.5450  136.5040 C   0  0  0  0  0  3  0  0  0  0  0  0
  189.7650  176.5140  138.3950 C   0  0  0  0  0  3  0  0  0  0  0  0
  188.4310  175.4200  136.5630 C   0  0  0  0  0  0  0  0  0  0  0  0
  188.4050  174.7620  135.4050 C   0  0  0  0  0  2  0  0  0  0  0  0
  187.2080  175.7320  137.2410 N   0  0  0  0  0  2  0  0  0  0  0  0
  186.6810  177.0810  137.3770 C   0  0  0  0  0  2  0  0  0  0  0  0
  185.5470  177.2770  136.3930 C   0  0  0  0  0  2  0  0  0  0  0  0
  184.4590  176.2590  136.6630 C   0  0  0  0  0  2  0  0  0  0  0  0
  183.8840  176.5040  138.0410 C   0  0  0  0  0  2  0  0  0  0  0  0
  182.9850  177.7220  138.0050 C   0  0  0  0  0  2  0  0  0  0  0  0
  181.6810  177.3480  137.4460 N   0  0  0  0  0  0  0  0  0  0  0  0
  181.2960  176.4880  139.9730 O   0  0  0  0  0  1  0  0  0  0  0  0
  180.8260  176.2770  138.5510 P   0  0  0  0  0  0  0  0  0  0  0  0
  179.1620  176.5640  138.4560 O   0  0  0  0  0  1  0  0  0  0  0  0
  181.1310  174.6740  138.1070 O   0  0  0  0  0  0  0  0  0  0  0  0
  180.8450  178.4410  137.0730 N   0  0  0  0  0  0  0  0  0  0  0  0
  179.2580  181.1680  137.2050 C   0  0  0  0  0  2  0  0  0  0  0  0
  181.4140  179.7810  137.4110 C   0  0  1  0  0  3  0  0  0  0  0  0
  180.3360  179.7390  139.7860 C   0  0  0  0  0  2  0  0  0  0  0  0
  180.7080  180.9880  136.7590 C   0  0  0  0  0  2  0  0  0  0  0  0
  179.0240  180.2340  139.1870 C   0  0  0  0  0  2  0  0  0  0  0  0
  179.1980  181.4730  138.5680 O   0  0  0  0  0  0  0  0  0  0  0  0
  181.5810  180.0070  138.9240 C   0  0  0  0  0  2  0  0  0  0  0  0
  178.9450  178.0210  135.0060 O   0  0  0  0  0  1  0  0  0  0  0  0
  180.5870  178.2590  135.3310 P   0  0  0  0  0  0  0  0  0  0  0  0
  181.0730  179.4890  134.5990 O   0  0  0  0  0  0  0  0  0  0  0  0
  181.4440  176.9130  134.7720 O   0  0  0  0  0  1  0  0  0  0  0  0
  190.9940  177.6330  140.2550 C   0  0  0  0  0  2  0  0  0  0  0  0
  192.3630  177.5400  140.9000 C   0  0  0  0  0  2  0  0  0  0  0  0
  192.2350  176.9830  142.1710 O   0  0  0  0  0  0  0  0  0  0  0  0
  191.5970  177.9680  142.9270 C   0  0  0  0  0  2  0  0  0  0  0  0
  190.2820  177.4600  143.5170 C   0  0  1  0  0  3  0  0  0  0  0  0
  190.8880  176.5710  145.7280 C   0  0  0  0  0  0  0  0  0  0  0  0
  191.7320  175.4630  145.1840 C   0  0  0  0  0  1  0  0  0  0  0  0
  190.2790  177.4290  144.9700 N   0  0  0  0  0  0  0  0  0  0  0  0
  190.7730  176.6850  147.2200 C   0  0  1  0  0  3  0  0  0  0  0  0
  192.1350  177.0040  147.8280 C   0  0  0  0  0  2  0  0  0  0  0  0
  192.6230  175.8720  148.7190 C   0  0  0  0  0  2  0  0  0  0  0  0
  193.6490  176.3870  149.7110 C   0  0  0  0  0  1  0  0  0  0  0  0
  189.7470  177.7460  147.6240 C   0  0  0  0  0  2  0  0  0  0  0  0
  187.2970  177.9340  147.6190 C   0  0  0  0  0  2  0  0  0  0  0  0
  188.3750  177.1670  147.7560 C   0  0  0  0  0  3  0  0  0  0  0  0
  189.0380  178.1200  142.9240 C   0  0  0  0  0  2  0  0  0  0  0  0
  187.6200  176.3840  143.7130 O   0  0  0  0  0  1  0  0  0  0  0  0
  187.8030  177.7710  143.7450 C   0  0  2  0  0  3  0  0  0  0  0  0
  184.0790  178.8880  143.4180 C   0  0  0  0  0  2  0  0  0  0  0  0
  183.7010  178.4740  141.6880 S   0  0  0  0  0  0  0  0  0  0  0  0
  186.4240  178.2790  141.6820 C   0  0  0  0  0  2  0  0  0  0  0  0
  185.2970  179.1150  141.1000 C   0  0  0  0  0  2  0  0  0  0  0  0
  185.3660  178.3030  145.4210 C   0  0  0  0  0  1  0  0  0  0  0  0
  185.2760  178.0900  143.9200 C   0  0  2  0  0  3  0  0  0  0  0  0
  186.5700  178.5160  143.1920 C   0  0  1  0  0  3  0  0  0  0  0  0
  1  7  1  0  0  0  0
  3  5  2  0  0  0  0
  4 33  1  0  0  0  0
  5  2  1  0  0  0  0
  5  4  1  0  0  0  0
  6  3  1  0  0  0  0
  6  1  2  0  0  0  0
  7  4  2  0  0  0  0
  8  1  1  0  0  0  0
  8 10  1  0  0  0  0
  9  8  2  0  0  0  0
 10 11  1  0  0  0  0
 12 13  1  0  0  0  0
 12 11  1  0  0  0  0
 13 14  1  0  0  0  0
 15 14  1  0  0  0  0
 16 15  1  0  0  0  0
 16 18  1  0  0  0  0
 18 17  1  0  0  0  0
 19 18  1  0  0  0  0
 20 18  2  0  0  0  0
 21 16  1  0  0  0  0
 22 27  1  0  0  0  0
 23 21  1  1  0  0  0
 23 28  1  0  0  0  0
 25 22  1  0  0  0  0
 25 23  1  0  0  0  0
 26 24  1  0  0  0  0
 27 26  1  0  0  0  0
 28 24  1  0  0  0  0
 29 30  1  0  0  0  0
 30 21  1  0  0  0  0
 31 30  2  0  0  0  0
 32 30  1  0  0  0  0
 33 34  1  0  0  0  0
 34 35  1  0  0  0  0
 35 36  1  0  0  0  0
 36 37  1  0  0  0  0
 37 48  1  1  0  0  0
 37 40  1  0  0  0  0
 38 41  1  0  0  0  0
 39 38  1  0  0  0  0
 40 38  2  0  0  0  0
 41 45  1  6  0  0  0
 41 42  1  0  0  0  0
 42 43  1  0  0  0  0
 43 44  1  0  0  0  0
 45 47  1  0  0  0  0
 46 47  2  0  0  0  0
 48 50  1  0  0  0  0
 50 49  1  6  0  0  0
 51 56  1  0  0  0  0
 52 51  1  0  0  0  0
 53 57  1  0  0  0  0
 54 53  1  0  0  0  0
 54 52  1  0  0  0  0
 56 55  1  1  0  0  0
 57 50  1  1  0  0  0
 57 56  1  0  0  0  0
M  END
>  <MODEL>
3

>  <REMARK>
 VINA RESULT:      -4.8      3.156      7.376
  Name = 
  26 active torsions:
  status: ('A' for Active; 'I' for Inactive)
    1  A    between atoms: C_1  and  C_27
    2  A    between atoms: C_4  and  C_27
    3  A    between atoms: C_4  and  C_54
    4  A    between atoms: C_5  and  C_16
    5  A    between atoms: C_6  and  C_35
    6  A    between atoms: P_8  and  N_55
    7  A    between atoms: C_9  and  C_21
    8  A    between atoms: C_9  and  O_29
    9  A    between atoms: C_10  and  C_42
   10  A    between atoms: C_10  and  N_55
   11  A    between atoms: C_14  and  C_30
   12  A    between atoms: C_14  and  N_52
   13  A    between atoms: C_14  and  C_53
   14  A    between atoms: C_16  and  N_49
   15  A    between atoms: P_18  and  N_28
   16  A    between atoms: C_19  and  C_23
   17  A    between atoms: C_19  and  C_42
   18  A    between atoms: C_21  and  C_31
   19  A    between atoms: C_23  and  C_46
   20  A    between atoms: C_27  and  C_35
   21  A    between atoms: N_28  and  C_34
   22  A    between atoms: N_28  and  N_55
   23  A    between atoms: O_29  and  C_30
   24  A    between atoms: C_32  and  C_53
   25  A    between atoms: C_32  and  C_57
   26  A    between atoms: C_46  and  N_49
                            x       y       z     vdW  Elec       q    Type
                         _______ _______ _______ _____ _____    ______ ____

>  <TORSDO>
F 26

$$$$
=
 OpenBabel11042411243D

 57 59  0  0  1  0  0  0  0  0999 V2000
  189.0840  174.4220  136.6770 C   0  0  0  0  0  0  0  0  0  0  0  0
  192.4790  176.5830  138.0020 N   0  0  0  0  0  1  0  0  0  0  0  0
  191.4580  174.5280  137.1870 C   0  0  0  0  0  3  0  0  0  0  0  0
  190.0720  176.4930  137.5010 C   0  0  0  0  0  0  0  0  0  0  0  0
  191.3300  175.8670  137.5620 C   0  0  0  0  0  0  0  0  0  0  0  0
  190.3440  173.8100  136.7490 C   0  0  0  0  0  3  0  0  0  0  0  0
  188.9600  175.7710  137.0550 C   0  0  0  0  0  3  0  0  0  0  0  0
  187.9160  173.6480  136.1990 C   0  0  0  0  0  0  0  0  0  0  0  0
  187.5880  173.6440  134.9080 C   0  0  0  0  0  2  0  0  0  0  0  0
  187.1420  172.8940  137.1400 N   0  0  0  0  0  2  0  0  0  0  0  0
  185.7250  172.6070  136.9760 C   0  0  0  0  0  2  0  0  0  0  0  0
  184.9130  173.7040  137.6340 C   0  0  0  0  0  2  0  0  0  0  0  0
  184.6820  174.8270  136.6450 C   0  0  0  0  0  2  0  0  0  0  0  0
  185.1380  176.1300  137.2620 C   0  0  0  0  0  2  0  0  0  0  0  0
  184.1370  177.2200  136.9400 C   0  0  0  0  0  2  0  0  0  0  0  0
  183.1040  177.2530  137.9820 N   0  0  0  0  0  0  0  0  0  0  0  0
  183.2110  178.4130  140.4140 O   0  0  0  0  0  1  0  0  0  0  0  0
  183.2430  178.7260  138.9350 P   0  0  0  0  0  0  0  0  0  0  0  0
  184.6870  179.5220  138.5560 O   0  0  0  0  0  0  0  0  0  0  0  0
  181.9440  179.7440  138.5630 O   0  0  0  0  0  1  0  0  0  0  0  0
  181.7660  177.0930  137.5140 N   0  0  0  0  0  0  0  0  0  0  0  0
  179.1020  176.9960  135.8220 C   0  0  0  0  0  2  0  0  0  0  0  0
  181.6620  176.8840  136.0380 C   0  0  1  0  0  3  0  0  0  0  0  0
  181.1120  179.4020  135.6300 C   0  0  0  0  0  2  0  0  0  0  0  0
  180.3720  176.1910  135.5530 C   0  0  0  0  0  2  0  0  0  0  0  0
  179.6500  179.1240  135.9670 C   0  0  0  0  0  2  0  0  0  0  0  0
  179.1090  178.1850  135.0880 O   0  0  0  0  0  0  0  0  0  0  0  0
  181.9260  178.1620  135.2230 C   0  0  0  0  0  2  0  0  0  0  0  0
  179.5910  176.0950  139.0410 O   0  0  0  0  0  1  0  0  0  0  0  0
  181.1160  175.7170  138.4190 P   0  0  0  0  0  0  0  0  0  0  0  0
  181.0070  174.5050  137.5210 O   0  0  0  0  0  0  0  0  0  0  0  0
  182.1470  175.3530  139.7090 O   0  0  0  0  0  1  0  0  0  0  0  0
  189.9020  177.9260  137.8840 C   0  0  0  0  0  2  0  0  0  0  0  0
  189.9250  178.0700  139.3930 C   0  0  0  0  0  2  0  0  0  0  0  0
  189.8130  176.8100  139.9770 O   0  0  0  0  0  0  0  0  0  0  0  0
  188.8350  176.9600  140.9600 C   0  0  0  0  0  2  0  0  0  0  0  0
  189.2070  178.0530  141.9620 C   0  0  1  0  0  3  0  0  0  0  0  0
  187.3260  177.7160  143.5080 C   0  0  0  0  0  0  0  0  0  0  0  0
  187.5170  176.2360  143.6090 C   0  0  0  0  0  1  0  0  0  0  0  0
  188.0890  178.4770  142.7890 N   0  0  0  0  0  0  0  0  0  0  0  0
  186.2060  178.3240  144.3020 C   0  0  1  0  0  3  0  0  0  0  0  0
  184.9130  178.2920  143.4960 C   0  0  0  0  0  2  0  0  0  0  0  0
  183.9360  179.3560  143.9720 C   0  0  0  0  0  2  0  0  0  0  0  0
  182.5580  178.7530  144.1760 C   0  0  0  0  0  1  0  0  0  0  0  0
  186.0180  177.6100  145.6420 C   0  0  0  0  0  2  0  0  0  0  0  0
  187.0510  178.4150  147.7220 C   0  0  0  0  0  2  0  0  0  0  0  0
  187.1920  177.8100  146.5460 C   0  0  0  0  0  3  0  0  0  0  0  0
  190.4740  177.7570  142.7630 C   0  0  0  0  0  2  0  0  0  0  0  0
  190.9610  179.7400  143.9790 O   0  0  0  0  0  1  0  0  0  0  0  0
  190.4270  178.4540  144.1170 C   0  0  2  0  0  3  0  0  0  0  0  0
  192.1590  175.3630  145.7520 C   0  0  0  0  0  2  0  0  0  0  0  0
  191.3030  175.2410  147.3520 S   0  0  0  0  0  0  0  0  0  0  0  0
  190.5310  177.7310  146.5420 C   0  0  0  0  0  2  0  0  0  0  0  0
  191.3590  177.0390  147.6120 C   0  0  0  0  0  2  0  0  0  0  0  0
  191.9840  175.9890  143.3880 C   0  0  0  0  0  1  0  0  0  0  0  0
  191.3250  176.1490  144.7470 C   0  0  2  0  0  3  0  0  0  0  0  0
  191.2030  177.6300  145.1650 C   0  0  1  0  0  3  0  0  0  0  0  0
  1  6  2  0  0  0  0
  1  7  1  0  0  0  0
  3  5  2  0  0  0  0
  4  5  1  0  0  0  0
  4 33  1  0  0  0  0
  5  2  1  0  0  0  0
  6  3  1  0  0  0  0
  7  4  2  0  0  0  0
  8  1  1  0  0  0  0
  8 10  1  0  0  0  0
  9  8  2  0  0  0  0
 11 10  1  0  0  0  0
 11 12  1  0  0  0  0
 13 14  1  0  0  0  0
 13 12  1  0  0  0  0
 15 14  1  0  0  0  0
 15 16  1  0  0  0  0
 16 18  1  0  0  0  0
 18 17  1  0  0  0  0
 19 18  2  0  0  0  0
 20 18  1  0  0  0  0
 21 16  1  0  0  0  0
 21 30  1  0  0  0  0
 23 21  1  1  0  0  0
 24 26  1  0  0  0  0
 25 22  1  0  0  0  0
 25 23  1  0  0  0  0
 27 22  1  0  0  0  0
 27 26  1  0  0  0  0
 28 24  1  0  0  0  0
 28 23  1  0  0  0  0
 30 29  1  0  0  0  0
 30 32  1  0  0  0  0
 31 30  2  0  0  0  0
 33 34  1  0  0  0  0
 34 35  1  0  0  0  0
 35 36  1  0  0  0  0
 37 36  1  1  0  0  0
 37 48  1  0  0  0  0
 37 40  1  0  0  0  0
 38 39  1  0  0  0  0
 38 41  1  0  0  0  0
 40 38  2  0  0  0  0
 41 42  1  6  0  0  0
 41 45  1  0  0  0  0
 42 43  1  0  0  0  0
 43 44  1  0  0  0  0
 45 47  1  0  0  0  0
 47 46  2  0  0  0  0
 48 50  1  0  0  0  0
 50 49  1  6  0  0  0
 51 52  1  0  0  0  0
 52 54  1  0  0  0  0
 53 54  1  0  0  0  0
 56 55  1  6  0  0  0
 56 57  1  0  0  0  0
 56 51  1  0  0  0  0
 57 50  1  6  0  0  0
 57 53  1  0  0  0  0
M  END
>  <MODEL>
4

>  <REMARK>
 VINA RESULT:      -4.7      3.274      8.292
  Name = 
  26 active torsions:
  status: ('A' for Active; 'I' for Inactive)
    1  A    between atoms: C_1  and  C_27
    2  A    between atoms: C_4  and  C_27
    3  A    between atoms: C_4  and  C_54
    4  A    between atoms: C_5  and  C_16
    5  A    between atoms: C_6  and  C_35
    6  A    between atoms: P_8  and  N_55
    7  A    between atoms: C_9  and  C_21
    8  A    between atoms: C_9  and  O_29
    9  A    between atoms: C_10  and  C_42
   10  A    between atoms: C_10  and  N_55
   11  A    between atoms: C_14  and  C_30
   12  A    between atoms: C_14  and  N_52
   13  A    between atoms: C_14  and  C_53
   14  A    between atoms: C_16  and  N_49
   15  A    between atoms: P_18  and  N_28
   16  A    between atoms: C_19  and  C_23
   17  A    between atoms: C_19  and  C_42
   18  A    between atoms: C_21  and  C_31
   19  A    between atoms: C_23  and  C_46
   20  A    between atoms: C_27  and  C_35
   21  A    between atoms: N_28  and  C_34
   22  A    between atoms: N_28  and  N_55
   23  A    between atoms: O_29  and  C_30
   24  A    between atoms: C_32  and  C_53
   25  A    between atoms: C_32  and  C_57
   26  A    between atoms: C_46  and  N_49
                            x       y       z     vdW  Elec       q    Type
                         _______ _______ _______ _____ _____    ______ ____

>  <TORSDO>
F 26

$$$$
=
 OpenBabel11042411243D

 57 59  0  0  1  0  0  0  0  0999 V2000
  190.5630  175.8200  136.7520 C   0  0  0  0  0  0  0  0  0  0  0  0
  193.3380  177.1110  139.6820 N   0  0  0  0  0  1  0  0  0  0  0  0
  192.8440  175.9970  137.5740 C   0  0  0  0  0  3  0  0  0  0  0  0
  191.0220  176.9330  138.8720 C   0  0  0  0  0  0  0  0  0  0  0  0
  192.3950  176.6800  138.7060 C   0  0  0  0  0  0  0  0  0  0  0  0
  191.9350  175.5700  136.6040 C   0  0  0  0  0  3  0  0  0  0  0  0
  190.1160  176.5080  137.8950 C   0  0  0  0  0  3  0  0  0  0  0  0
  189.6160  175.3690  135.7070 C   0  0  0  0  0  0  0  0  0  0  0  0
  189.4470  176.0800  134.5940 C   0  0  0  0  0  2  0  0  0  0  0  0
  188.8820  174.1540  135.9040 N   0  0  0  0  0  2  0  0  0  0  0  0
  187.4410  174.1000  136.0930 C   0  0  0  0  0  2  0  0  0  0  0  0
  187.0970  172.9180  136.9740 C   0  0  0  0  0  2  0  0  0  0  0  0
  185.9090  172.1810  136.3940 C   0  0  0  0  0  2  0  0  0  0  0  0
  185.0360  173.1610  135.6420 C   0  0  0  0  0  2  0  0  0  0  0  0
  184.1490  173.9020  136.6210 C   0  0  0  0  0  2  0  0  0  0  0  0
  182.9280  174.3400  135.9340 N   0  0  0  0  0  0  0  0  0  0  0  0
  182.3600  171.9660  134.7890 O   0  0  0  0  0  0  0  0  0  0  0  0
  181.8110  172.9930  135.7540 P   0  0  0  0  0  0  0  0  0  0  0  0
  181.5380  172.2670  137.2580 O   0  0  0  0  0  1  0  0  0  0  0  0
  180.3410  173.5770  135.1540 O   0  0  0  0  0  1  0  0  0  0  0  0
  182.2660  175.4540  136.5280 N   0  0  0  0  0  0  0  0  0  0  0  0
  181.4720  177.8170  138.4680 C   0  0  0  0  0  2  0  0  0  0  0  0
  182.1840  175.3870  138.0190 C   0  0  1  0  0  3  0  0  0  0  0  0
  179.5760  175.3640  137.9640 C   0  0  0  0  0  2  0  0  0  0  0  0
  182.4790  176.7060  138.7630 C   0  0  0  0  0  2  0  0  0  0  0  0
  179.5770  176.8850  137.8410 C   0  0  0  0  0  2  0  0  0  0  0  0
  180.2050  177.4690  138.9420 O   0  0  0  0  0  0  0  0  0  0  0  0
  180.8740  174.7610  138.5280 C   0  0  0  0  0  2  0  0  0  0  0  0
  184.3470  177.2920  137.1220 O   0  0  0  0  0  1  0  0  0  0  0  0
  183.1670  176.8780  135.9850 P   0  0  0  0  0  0  0  0  0  0  0  0
  183.8260  176.6020  134.6520 O   0  0  0  0  0  0  0  0  0  0  0  0
  182.1070  178.1850  135.8130 O   0  0  0  0  0  1  0  0  0  0  0  0
  190.5100  177.6690  140.0670 C   0  0  0  0  0  2  0  0  0  0  0  0
  189.4100  178.6290  139.6580 C   0  0  0  0  0  2  0  0  0  0  0  0
  188.2400  178.3060  140.3410 O   0  0  0  0  0  0  0  0  0  0  0  0
  188.6610  177.5240  141.4170 C   0  0  0  0  0  2  0  0  0  0  0  0
  187.7190  177.6580  142.6130 C   0  0  1  0  0  3  0  0  0  0  0  0
  189.5830  177.3260  144.1810 C   0  0  0  0  0  0  0  0  0  0  0  0
  190.4150  176.5440  143.2150 C   0  0  0  0  0  1  0  0  0  0  0  0
  188.4170  177.8050  143.8790 N   0  0  0  0  0  0  0  0  0  0  0  0
  190.1560  177.5700  145.5460 C   0  0  1  0  0  3  0  0  0  0  0  0
  189.1750  177.1080  146.6180 C   0  0  0  0  0  2  0  0  0  0  0  0
  188.2410  178.2340  147.0370 C   0  0  0  0  0  2  0  0  0  0  0  0
  188.0880  178.2590  148.5460 C   0  0  0  0  0  1  0  0  0  0  0  0
  191.5060  176.8700  145.7210 C   0  0  0  0  0  2  0  0  0  0  0  0
  192.4520  175.2280  147.2850 C   0  0  0  0  0  2  0  0  0  0  0  0
  191.6420  176.2630  147.0810 C   0  0  0  0  0  3  0  0  0  0  0  0
  186.6040  178.6840  142.4140 C   0  0  0  0  0  2  0  0  0  0  0  0
  185.1840  177.9140  140.6710 O   0  0  0  0  0  1  0  0  0  0  0  0
  185.2940  177.9900  142.0640 C   0  0  2  0  0  3  0  0  0  0  0  0
  182.7510  179.1710  144.7780 C   0  0  0  0  0  2  0  0  0  0  0  0
  181.1520  178.7610  144.0140 S   0  0  0  0  0  0  0  0  0  0  0  0
  182.8250  178.5190  141.8700 C   0  0  0  0  0  2  0  0  0  0  0  0
  181.6790  179.3740  142.3870 C   0  0  0  0  0  2  0  0  0  0  0  0
  185.1160  178.5650  145.0080 C   0  0  0  0  0  1  0  0  0  0  0  0
  183.8770  178.3530  144.1560 C   0  0  2  0  0  3  0  0  0  0  0  0
  184.1060  178.7550  142.6830 C   0  0  1  0  0  3  0  0  0  0  0  0
  1  7  1  0  0  0  0
  3  5  2  0  0  0  0
  4 33  1  0  0  0  0
  5  4  1  0  0  0  0
  5  2  1  0  0  0  0
  6  1  2  0  0  0  0
  6  3  1  0  0  0  0
  7  4  2  0  0  0  0
  8 10  1  0  0  0  0
  8  1  1  0  0  0  0
  9  8  2  0  0  0  0
 10 11  1  0  0  0  0
 11 12  1  0  0  0  0
 13 12  1  0  0  0  0
 14 13  1  0  0  0  0
 14 15  1  0  0  0  0
 16 21  1  0  0  0  0
 16 15  1  0  0  0  0
 17 18  2  0  0  0  0
 18 16  1  0  0  0  0
 18 19  1  0  0  0  0
 20 18  1  0  0  0  0
 22 25  1  0  0  0  0
 22 27  1  0  0  0  0
 23 21  1  6  0  0  0
 23 28  1  0  0  0  0
 23 25  1  0  0  0  0
 24 28  1  0  0  0  0
 26 24  1  0  0  0  0
 26 27  1  0  0  0  0
 30 21  1  0  0  0  0
 30 29  1  0  0  0  0
 31 30  2  0  0  0  0
 32 30  1  0  0  0  0
 34 33  1  0  0  0  0
 34 35  1  0  0  0  0
 35 36  1  0  0  0  0
 37 36  1  6  0  0  0
 37 40  1  0  0  0  0
 38 41  1  0  0  0  0
 39 38  1  0  0  0  0
 40 38  2  0  0  0  0
 41 45  1  6  0  0  0
 41 42  1  0  0  0  0
 42 43  1  0  0  0  0
 43 44  1  0  0  0  0
 45 47  1  0  0  0  0
 47 46  2  0  0  0  0
 48 37  1  0  0  0  0
 50 49  1  6  0  0  0
 50 48  1  0  0  0  0
 52 51  1  0  0  0  0
 53 54  1  0  0  0  0
 53 57  1  0  0  0  0
 54 52  1  0  0  0  0
 56 51  1  0  0  0  0
 56 55  1  1  0  0  0
 57 50  1  6  0  0  0
 57 56  1  0  0  0  0
M  END
>  <MODEL>
5

>  <REMARK>
 VINA RESULT:      -4.6      3.242      7.883
  Name = 
  26 active torsions:
  status: ('A' for Active; 'I' for Inactive)
    1  A    between atoms: C_1  and  C_27
    2  A    between atoms: C_4  and  C_27
    3  A    between atoms: C_4  and  C_54
    4  A    between atoms: C_5  and  C_16
    5  A    between atoms: C_6  and  C_35
    6  A    between atoms: P_8  and  N_55
    7  A    between atoms: C_9  and  C_21
    8  A    between atoms: C_9  and  O_29
    9  A    between atoms: C_10  and  C_42
   10  A    between atoms: C_10  and  N_55
   11  A    between atoms: C_14  and  C_30
   12  A    between atoms: C_14  and  N_52
   13  A    between atoms: C_14  and  C_53
   14  A    between atoms: C_16  and  N_49
   15  A    between atoms: P_18  and  N_28
   16  A    between atoms: C_19  and  C_23
   17  A    between atoms: C_19  and  C_42
   18  A    between atoms: C_21  and  C_31
   19  A    between atoms: C_23  and  C_46
   20  A    between atoms: C_27  and  C_35
   21  A    between atoms: N_28  and  C_34
   22  A    between atoms: N_28  and  N_55
   23  A    between atoms: O_29  and  C_30
   24  A    between atoms: C_32  and  C_53
   25  A    between atoms: C_32  and  C_57
   26  A    between atoms: C_46  and  N_49
                            x       y       z     vdW  Elec       q    Type
                         _______ _______ _______ _____ _____    ______ ____

>  <TORSDO>
F 26

$$$$
=
 OpenBabel11042411243D

 57 59  0  0  1  0  0  0  0  0999 V2000
  189.5960  175.6270  136.5570 C   0  0  0  0  0  0  0  0  0  0  0  0
  193.2570  176.3980  138.5460 N   0  0  0  0  0  1  0  0  0  0  0  0
  191.9630  175.1800  136.8810 C   0  0  0  0  0  3  0  0  0  0  0  0
  190.8590  176.8580  138.2400 C   0  0  0  0  0  0  0  0  0  0  0  0
  192.0200  176.1460  137.8870 C   0  0  0  0  0  0  0  0  0  0  0  0
  190.7600  174.9210  136.2210 C   0  0  0  0  0  3  0  0  0  0  0  0
  189.6590  176.5990  137.5720 C   0  0  0  0  0  3  0  0  0  0  0  0
  188.3320  175.3480  135.8380 C   0  0  0  0  0  0  0  0  0  0  0  0
  188.1500  175.7850  134.5940 C   0  0  0  0  0  2  0  0  0  0  0  0
  187.3050  174.5940  136.4940 N   0  0  0  0  0  2  0  0  0  0  0  0
  186.0690  174.1780  135.8480 C   0  0  0  0  0  2  0  0  0  0  0  0
  184.9520  175.1140  136.2580 C   0  0  0  0  0  2  0  0  0  0  0  0
  184.3450  175.7510  135.0260 C   0  0  0  0  0  2  0  0  0  0  0  0
  183.8410  177.1320  135.3810 C   0  0  0  0  0  2  0  0  0  0  0  0
  182.3350  177.0980  135.5350 C   0  0  0  0  0  2  0  0  0  0  0  0
  181.9290  178.0600  136.5650 N   0  0  0  0  0  0  0  0  0  0  0  0
  179.9150  178.3760  134.7990 O   0  0  0  0  0  0  0  0  0  0  0  0
  180.5660  179.0210  136.0020 P   0  0  0  0  0  0  0  0  0  0  0  0
  179.4280  179.1850  137.2420 O   0  0  0  0  0  1  0  0  0  0  0  0
  181.1230  180.5570  135.5640 O   0  0  0  0  0  1  0  0  0  0  0  0
  181.6400  177.4960  137.8420 N   0  0  0  0  0  0  0  0  0  0  0  0
  180.7280  175.6260  140.2180 C   0  0  0  0  0  2  0  0  0  0  0  0
  181.7300  176.0050  137.8790 C   0  0  1  0  0  3  0  0  0  0  0  0
  179.1620  175.7510  137.4980 C   0  0  0  0  0  2  0  0  0  0  0  0
  181.9100  175.3830  139.2800 C   0  0  0  0  0  2  0  0  0  0  0  0
  178.9310  175.9660  138.9900 C   0  0  0  0  0  2  0  0  0  0  0  0
  179.5830  174.9850  139.7390 O   0  0  0  0  0  0  0  0  0  0  0  0
  180.5850  175.3070  137.1230 C   0  0  0  0  0  2  0  0  0  0  0  0
  183.3150  179.7340  138.3410 O   0  0  0  0  0  0  0  0  0  0  0  0
  182.7890  178.2500  138.9580 P   0  0  0  0  0  0  0  0  0  0  0  0
  182.1420  178.4670  140.3070 O   0  0  0  0  0  1  0  0  0  0  0  0
  184.1340  177.2430  139.1490 O   0  0  0  0  0  1  0  0  0  0  0  0
  190.8880  177.9040  139.3060 C   0  0  0  0  0  2  0  0  0  0  0  0
  191.2110  177.2760  140.6470 C   0  0  0  0  0  2  0  0  0  0  0  0
  190.2940  176.2610  140.9120 O   0  0  0  0  0  0  0  0  0  0  0  0
  189.0970  176.9250  141.1830 C   0  0  0  0  0  2  0  0  0  0  0  0
  189.3060  178.0850  142.1560 C   0  0  1  0  0  3  0  0  0  0  0  0
  187.2560  177.7600  143.4750 C   0  0  0  0  0  0  0  0  0  0  0  0
  187.4800  176.2960  143.6850 C   0  0  0  0  0  1  0  0  0  0  0  0
  188.0800  178.5100  142.8120 N   0  0  0  0  0  0  0  0  0  0  0  0
  186.0270  178.3660  144.0870 C   0  0  1  0  0  3  0  0  0  0  0  0
  184.9410  178.5310  143.0300 C   0  0  0  0  0  2  0  0  0  0  0  0
  183.5540  178.3540  143.6280 C   0  0  0  0  0  2  0  0  0  0  0  0
  182.8430  179.6920  143.7170 C   0  0  0  0  0  1  0  0  0  0  0  0
  185.5110  177.5260  145.2570 C   0  0  0  0  0  2  0  0  0  0  0  0
  185.9970  179.5150  146.6160 C   0  0  0  0  0  2  0  0  0  0  0  0
  185.3950  178.3340  146.5100 C   0  0  0  0  0  3  0  0  0  0  0  0
  190.4710  177.8830  143.1240 C   0  0  0  0  0  2  0  0  0  0  0  0
  190.5920  179.3460  144.9920 O   0  0  0  0  0  1  0  0  0  0  0  0
  190.0270  178.1420  144.5580 C   0  0  2  0  0  3  0  0  0  0  0  0
  190.4670  176.0470  147.8200 C   0  0  0  0  0  2  0  0  0  0  0  0
  192.2640  175.7680  147.8610 S   0  0  0  0  0  0  0  0  0  0  0  0
  191.9370  176.6550  145.3000 C   0  0  0  0  0  2  0  0  0  0  0  0
  192.3320  175.4120  146.0810 C   0  0  0  0  0  2  0  0  0  0  0  0
  188.6530  177.5620  147.1670 C   0  0  0  0  0  1  0  0  0  0  0  0
  190.1230  177.2480  146.9470 C   0  0  2  0  0  3  0  0  0  0  0  0
  190.4430  176.9640  145.4630 C   0  0  1  0  0  3  0  0  0  0  0  0
  1  7  1  0  0  0  0
  3  5  2  0  0  0  0
  4 33  1  0  0  0  0
  5  4  1  0  0  0  0
  5  2  1  0  0  0  0
  6  1  2  0  0  0  0
  6  3  1  0  0  0  0
  7  4  2  0  0  0  0
  8 10  1  0  0  0  0
  8  1  1  0  0  0  0
  9  8  2  0  0  0  0
 11 12  1  0  0  0  0
 11 10  1  0  0  0  0
 13 14  1  0  0  0  0
 13 12  1  0  0  0  0
 14 15  1  0  0  0  0
 15 16  1  0  0  0  0
 16 21  1  0  0  0  0
 17 18  2  0  0  0  0
 18 16  1  0  0  0  0
 18 19  1  0  0  0  0
 20 18  1  0  0  0  0
 21 30  1  0  0  0  0
 23 21  1  1  0  0  0
 23 25  1  0  0  0  0
 24 26  1  0  0  0  0
 25 22  1  0  0  0  0
 26 27  1  0  0  0  0
 27 22  1  0  0  0  0
 28 24  1  0  0  0  0
 28 23  1  0  0  0  0
 29 30  2  0  0  0  0
 30 32  1  0  0  0  0
 30 31  1  0  0  0  0
 33 34  1  0  0  0  0
 34 35  1  0  0  0  0
 35 36  1  0  0  0  0
 37 36  1  1  0  0  0
 37 40  1  0  0  0  0
 37 48  1  0  0  0  0
 38 39  1  0  0  0  0
 38 41  1  0  0  0  0
 40 38  2  0  0  0  0
 41 42  1  6  0  0  0
 41 45  1  0  0  0  0
 42 43  1  0  0  0  0
 43 44  1  0  0  0  0
 45 47  1  0  0  0  0
 47 46  2  0  0  0  0
 48 50  1  0  0  0  0
 50 49  1  1  0  0  0
 51 52  1  0  0  0  0
 53 57  1  0  0  0  0
 53 54  1  0  0  0  0
 54 52  1  0  0  0  0
 56 55  1  6  0  0  0
 56 51  1  0  0  0  0
 57 50  1  6  0  0  0
 57 56  1  0  0  0  0
M  END
>  <MODEL>
6

>  <REMARK>
 VINA RESULT:      -4.1      3.445      8.650
  Name = 
  26 active torsions:
  status: ('A' for Active; 'I' for Inactive)
    1  A    between atoms: C_1  and  C_27
    2  A    between atoms: C_4  and  C_27
    3  A    between atoms: C_4  and  C_54
    4  A    between atoms: C_5  and  C_16
    5  A    between atoms: C_6  and  C_35
    6  A    between atoms: P_8  and  N_55
    7  A    between atoms: C_9  and  C_21
    8  A    between atoms: C_9  and  O_29
    9  A    between atoms: C_10  and  C_42
   10  A    between atoms: C_10  and  N_55
   11  A    between atoms: C_14  and  C_30
   12  A    between atoms: C_14  and  N_52
   13  A    between atoms: C_14  and  C_53
   14  A    between atoms: C_16  and  N_49
   15  A    between atoms: P_18  and  N_28
   16  A    between atoms: C_19  and  C_23
   17  A    between atoms: C_19  and  C_42
   18  A    between atoms: C_21  and  C_31
   19  A    between atoms: C_23  and  C_46
   20  A    between atoms: C_27  and  C_35
   21  A    between atoms: N_28  and  C_34
   22  A    between atoms: N_28  and  N_55
   23  A    between atoms: O_29  and  C_30
   24  A    between atoms: C_32  and  C_53
   25  A    between atoms: C_32  and  C_57
   26  A    between atoms: C_46  and  N_49
                            x       y       z     vdW  Elec       q    Type
                         _______ _______ _______ _____ _____    ______ ____

>  <TORSDO>
F 26

$$$$
=
 OpenBabel11042411243D

 57 59  0  0  1  0  0  0  0  0999 V2000
  189.2510  177.5480  143.8560 C   0  0  0  0  0  0  0  0  0  0  0  0
  185.1080  178.0460  143.1240 N   0  0  0  0  0  1  0  0  0  0  0  0
  186.9400  177.4020  144.5930 C   0  0  0  0  0  3  0  0  0  0  0  0
  187.4400  178.1910  142.3560 C   0  0  0  0  0  0  0  0  0  0  0  0
  186.5020  177.8800  143.3560 C   0  0  0  0  0  0  0  0  0  0  0  0
  188.3040  177.2360  144.8410 C   0  0  0  0  0  3  0  0  0  0  0  0
  188.8050  178.0300  142.6110 C   0  0  0  0  0  3  0  0  0  0  0  0
  190.6940  177.3770  144.1410 C   0  0  0  0  0  0  0  0  0  0  0  0
  191.1320  177.3080  145.3970 C   0  0  0  0  0  2  0  0  0  0  0  0
  191.6170  177.2790  143.0500 N   0  0  0  0  0  2  0  0  0  0  0  0
  191.2860  176.6970  141.7590 C   0  0  0  0  0  2  0  0  0  0  0  0
  191.8340  177.5790  140.6570 C   0  0  0  0  0  2  0  0  0  0  0  0
  192.0120  176.7630  139.3940 C   0  0  0  0  0  2  0  0  0  0  0  0
  193.4650  176.8110  138.9750 C   0  0  0  0  0  2  0  0  0  0  0  0
  193.6140  176.2050  137.5950 C   0  0  0  0  0  2  0  0  0  0  0  0
  193.6300  174.7430  137.7060 N   0  0  0  0  0  0  0  0  0  0  0  0
  192.4620  172.5970  136.5630 O   0  0  0  0  0  1  0  0  0  0  0  0
  192.2250  174.0520  136.9020 P   0  0  0  0  0  0  0  0  0  0  0  0
  190.8680  174.1870  137.9010 O   0  0  0  0  0  1  0  0  0  0  0  0
  191.9390  174.9070  135.4710 O   0  0  0  0  0  0  0  0  0  0  0  0
  194.8230  174.1130  137.2420 N   0  0  0  0  0  0  0  0  0  0  0  0
  197.7250  173.6080  136.1040 C   0  0  0  0  0  2  0  0  0  0  0  0
  195.4350  174.7780  136.0520 C   0  0  1  0  0  3  0  0  0  0  0  0
  195.1490  172.6320  134.5950 C   0  0  0  0  0  2  0  0  0  0  0  0
  196.9700  174.9350  136.0930 C   0  0  0  0  0  2  0  0  0  0  0  0
  196.4380  172.0720  135.1870 C   0  0  0  0  0  2  0  0  0  0  0  0
  197.5160  172.9150  134.9090 O   0  0  0  0  0  0  0  0  0  0  0  0
  194.9920  174.1570  134.7150 C   0  0  0  0  0  2  0  0  0  0  0  0
  196.7640  172.6490  138.7090 O   0  0  0  0  0  1  0  0  0  0  0  0
  195.9220  174.1130  138.6310 P   0  0  0  0  0  0  0  0  0  0  0  0
  196.9060  175.2550  138.5180 O   0  0  0  0  0  0  0  0  0  0  0  0
  195.0300  174.2950  140.0560 O   0  0  0  0  0  1  0  0  0  0  0  0
  187.0070  178.7140  141.0250 C   0  0  0  0  0  2  0  0  0  0  0  0
  187.8630  178.1190  139.9250 C   0  0  0  0  0  2  0  0  0  0  0  0
  187.0580  177.3740  139.0680 O   0  0  0  0  0  0  0  0  0  0  0  0
  186.1220  178.2850  138.5770 C   0  0  0  0  0  2  0  0  0  0  0  0
  185.0210  177.5860  137.7800 C   0  0  1  0  0  3  0  0  0  0  0  0
  182.7990  177.7630  138.8170 C   0  0  0  0  0  0  0  0  0  0  0  0
  183.0020  176.6000  139.7350 C   0  0  0  0  0  1  0  0  0  0  0  0
  183.7050  178.1710  137.9860 N   0  0  0  0  0  0  0  0  0  0  0  0
  181.4850  178.4850  138.8970 C   0  0  1  0  0  3  0  0  0  0  0  0
  180.5850  178.0670  137.7390 C   0  0  0  0  0  2  0  0  0  0  0  0
  180.6060  179.0980  136.6200 C   0  0  0  0  0  2  0  0  0  0  0  0
  181.2530  178.5150  135.3780 C   0  0  0  0  0  1  0  0  0  0  0  0
  180.7860  178.2320  140.2340 C   0  0  0  0  0  2  0  0  0  0  0  0
  180.0360  180.4090  141.0920 C   0  0  0  0  0  2  0  0  0  0  0  0
  179.7300  179.2530  140.5090 C   0  0  0  0  0  3  0  0  0  0  0  0
  185.3620  177.3700  136.3060 C   0  0  0  0  0  2  0  0  0  0  0  0
  186.6780  176.0890  134.7980 O   0  0  0  0  0  1  0  0  0  0  0  0
  186.3100  176.1880  136.1440 C   0  0  2  0  0  3  0  0  0  0  0  0
  185.7180  172.3660  136.6560 C   0  0  0  0  0  2  0  0  0  0  0  0
  184.0220  172.1510  136.0340 S   0  0  0  0  0  0  0  0  0  0  0  0
  184.1510  174.8690  136.2500 C   0  0  0  0  0  2  0  0  0  0  0  0
  183.4420  173.6670  136.8510 C   0  0  0  0  0  2  0  0  0  0  0  0
  187.8210  173.6090  136.4550 C   0  0  0  0  0  1  0  0  0  0  0  0
  186.3460  173.6360  136.0960 C   0  0  2  0  0  3  0  0  0  0  0  0
  185.6350  174.8940  136.6420 C   0  0  1  0  0  3  0  0  0  0  0  0
  1  8  1  0  0  0  0
  1  6  1  0  0  0  0
  2  5  1  0  0  0  0
  3  6  2  0  0  0  0
  4  7  1  0  0  0  0
  4  5  2  0  0  0  0
  5  3  1  0  0  0  0
  7  1  2  0  0  0  0
  8  9  2  0  0  0  0
 10  8  1  0  0  0  0
 11 10  1  0  0  0  0
 12 11  1  0  0  0  0
 13 12  1  0  0  0  0
 14 13  1  0  0  0  0
 15 16  1  0  0  0  0
 15 14  1  0  0  0  0
 17 18  1  0  0  0  0
 18 16  1  0  0  0  0
 18 19  1  0  0  0  0
 20 18  2  0  0  0  0
 21 16  1  0  0  0  0
 21 30  1  0  0  0  0
 23 25  1  0  0  0  0
 23 21  1  1  0  0  0
 24 28  1  0  0  0  0
 24 26  1  0  0  0  0
 25 22  1  0  0  0  0
 27 26  1  0  0  0  0
 27 22  1  0  0  0  0
 28 23  1  0  0  0  0
 30 29  1  0  0  0  0
 30 32  1  0  0  0  0
 31 30  2  0  0  0  0
 33  4  1  0  0  0  0
 34 33  1  0  0  0  0
 35 34  1  0  0  0  0
 36 35  1  0  0  0  0
 37 48  1  6  0  0  0
 37 40  1  0  0  0  0
 37 36  1  0  0  0  0
 38 41  1  0  0  0  0
 38 39  1  0  0  0  0
 40 38  2  0  0  0  0
 41 42  1  6  0  0  0
 41 45  1  0  0  0  0
 43 42  1  0  0  0  0
 44 43  1  0  0  0  0
 45 47  1  0  0  0  0
 47 46  2  0  0  0  0
 50 49  1  6  0  0  0
 50 48  1  0  0  0  0
 52 51  1  0  0  0  0
 52 54  1  0  0  0  0
 53 57  1  0  0  0  0
 53 54  1  0  0  0  0
 56 55  1  1  0  0  0
 56 57  1  0  0  0  0
 56 51  1  0  0  0  0
 57 50  1  6  0  0  0
M  END
>  <MODEL>
7

>  <REMARK>
 VINA RESULT:      -3.7      4.005     11.129
  Name = 
  26 active torsions:
  status: ('A' for Active; 'I' for Inactive)
    1  A    between atoms: C_1  and  C_27
    2  A    between atoms: C_4  and  C_27
    3  A    between atoms: C_4  and  C_54
    4  A    between atoms: C_5  and  C_16
    5  A    between atoms: C_6  and  C_35
    6  A    between atoms: P_8  and  N_55
    7  A    between atoms: C_9  and  C_21
    8  A    between atoms: C_9  and  O_29
    9  A    between atoms: C_10  and  C_42
   10  A    between atoms: C_10  and  N_55
   11  A    between atoms: C_14  and  C_30
   12  A    between atoms: C_14  and  N_52
   13  A    between atoms: C_14  and  C_53
   14  A    between atoms: C_16  and  N_49
   15  A    between atoms: P_18  and  N_28
   16  A    between atoms: C_19  and  C_23
   17  A    between atoms: C_19  and  C_42
   18  A    between atoms: C_21  and  C_31
   19  A    between atoms: C_23  and  C_46
   20  A    between atoms: C_27  and  C_35
   21  A    between atoms: N_28  and  C_34
   22  A    between atoms: N_28  and  N_55
   23  A    between atoms: O_29  and  C_30
   24  A    between atoms: C_32  and  C_53
   25  A    between atoms: C_32  and  C_57
   26  A    between atoms: C_46  and  N_49
                            x       y       z     vdW  Elec       q    Type
                         _______ _______ _______ _____ _____    ______ ____

>  <TORSDO>
F 26

$$$$
=
 OpenBabel11042411243D

 57 59  0  0  1  0  0  0  0  0999 V2000
  189.4990  174.9770  136.5070 C   0  0  0  0  0  0  0  0  0  0  0  0
  193.0160  176.7340  138.0850 N   0  0  0  0  0  1  0  0  0  0  0  0
  191.9120  175.2650  136.4870 C   0  0  0  0  0  3  0  0  0  0  0  0
  190.5730  176.4470  138.1270 C   0  0  0  0  0  0  0  0  0  0  0  0
  191.8270  176.1480  137.5660 C   0  0  0  0  0  0  0  0  0  0  0  0
  190.7570  174.6820  135.9620 C   0  0  0  0  0  3  0  0  0  0  0  0
  189.4190  175.8660  137.5940 C   0  0  0  0  0  3  0  0  0  0  0  0
  188.2840  174.3580  135.9300 C   0  0  0  0  0  0  0  0  0  0  0  0
  188.3580  173.6320  134.8150 C   0  0  0  0  0  2  0  0  0  0  0  0
  187.0230  174.5450  136.5850 N   0  0  0  0  0  2  0  0  0  0  0  0
  186.2130  175.7460  136.4550 C   0  0  0  0  0  2  0  0  0  0  0  0
  184.8140  175.3600  136.0220 C   0  0  0  0  0  2  0  0  0  0  0  0
  184.6450  173.8600  136.1270 C   0  0  0  0  0  2  0  0  0  0  0  0
  183.5490  173.5540  137.1230 C   0  0  0  0  0  2  0  0  0  0  0  0
  182.9420  174.8490  137.6210 C   0  0  0  0  0  2  0  0  0  0  0  0
  181.7970  175.2060  136.7760 N   0  0  0  0  0  0  0  0  0  0  0  0
  180.8780  172.9890  135.5450 O   0  0  0  0  0  0  0  0  0  0  0  0
  180.6310  173.8880  136.7360 P   0  0  0  0  0  0  0  0  0  0  0  0
  180.7400  172.9820  138.1610 O   0  0  0  0  0  1  0  0  0  0  0  0
  179.0740  174.5370  136.6180 O   0  0  0  0  0  1  0  0  0  0  0  0
  181.1480  176.4280  137.1200 N   0  0  0  0  0  0  0  0  0  0  0  0
  179.8540  178.7340  138.8450 C   0  0  0  0  0  2  0  0  0  0  0  0
  181.8000  177.1650  138.2440 C   0  0  1  0  0  3  0  0  0  0  0  0
  180.3970  175.8740  140.0240 C   0  0  0  0  0  2  0  0  0  0  0  0
  181.3250  178.6180  138.4520 C   0  0  0  0  0  2  0  0  0  0  0  0
  179.2420  176.8460  139.8020 C   0  0  0  0  0  2  0  0  0  0  0  0
  179.6330  178.1540  140.0970 O   0  0  0  0  0  0  0  0  0  0  0  0
  181.7730  176.3930  139.5750 C   0  0  0  0  0  2  0  0  0  0  0  0
  182.6980  177.5220  135.0070 O   0  0  0  0  0  1  0  0  0  0  0  0
  181.1320  177.3840  135.6300 P   0  0  0  0  0  0  0  0  0  0  0  0
  180.2370  176.7320  134.6000 O   0  0  0  0  0  0  0  0  0  0  0  0
  180.5480  178.9360  135.9620 O   0  0  0  0  0  1  0  0  0  0  0  0
  190.4460  177.3950  139.2750 C   0  0  0  0  0  2  0  0  0  0  0  0
  191.7070  177.3680  140.1170 C   0  0  0  0  0  2  0  0  0  0  0  0
  191.4330  176.7450  141.3330 O   0  0  0  0  0  0  0  0  0  0  0  0
  190.4830  177.5630  141.9450 C   0  0  0  0  0  2  0  0  0  0  0  0
  189.4890  176.7480  142.7730 C   0  0  1  0  0  3  0  0  0  0  0  0
  190.5270  176.9860  144.9890 C   0  0  0  0  0  0  0  0  0  0  0  0
  191.8770  176.5230  144.5390 C   0  0  0  0  0  1  0  0  0  0  0  0
  189.5130  177.0820  144.1880 N   0  0  0  0  0  0  0  0  0  0  0  0
  190.3740  177.3700  146.4320 C   0  0  1  0  0  3  0  0  0  0  0  0
  188.9470  177.8330  146.7020 C   0  0  0  0  0  2  0  0  0  0  0  0
  188.7370  178.1510  148.1750 C   0  0  0  0  0  2  0  0  0  0  0  0
  187.2680  178.4080  148.4550 C   0  0  0  0  0  1  0  0  0  0  0  0
  190.7450  176.2140  147.3630 C   0  0  0  0  0  2  0  0  0  0  0  0
  192.7770  175.4520  148.5160 C   0  0  0  0  0  2  0  0  0  0  0  0
  192.2270  176.0290  147.4520 C   0  0  0  0  0  3  0  0  0  0  0  0
  188.0790  176.7050  142.1860 C   0  0  0  0  0  2  0  0  0  0  0  0
  188.2540  178.9360  142.9840 O   0  0  0  0  0  1  0  0  0  0  0  0
  187.4390  178.0870  142.2270 C   0  0  2  0  0  3  0  0  0  0  0  0
  183.6320  178.8250  142.6600 C   0  0  0  0  0  2  0  0  0  0  0  0
  183.5360  179.3540  144.3980 S   0  0  0  0  0  0  0  0  0  0  0  0
  186.0360  178.2610  144.3280 C   0  0  0  0  0  2  0  0  0  0  0  0
  184.6650  178.0400  144.9450 C   0  0  0  0  0  2  0  0  0  0  0  0
  184.9910  178.7620  140.6200 C   0  0  0  0  0  1  0  0  0  0  0  0
  185.0500  178.9800  142.1220 C   0  0  2  0  0  3  0  0  0  0  0  0
  186.0160  177.9960  142.8170 C   0  0  1  0  0  3  0  0  0  0  0  0
  1  7  1  0  0  0  0
  3  5  2  0  0  0  0
  4 33  1  0  0  0  0
  5  2  1  0  0  0  0
  5  4  1  0  0  0  0
  6  3  1  0  0  0  0
  6  1  2  0  0  0  0
  7  4  2  0  0  0  0
  8  1  1  0  0  0  0
  8 10  1  0  0  0  0
  9  8  2  0  0  0  0
 11 10  1  0  0  0  0
 12 13  1  0  0  0  0
 12 11  1  0  0  0  0
 13 14  1  0  0  0  0
 14 15  1  0  0  0  0
 16 21  1  0  0  0  0
 16 15  1  0  0  0  0
 17 18  2  0  0  0  0
 18 16  1  0  0  0  0
 18 19  1  0  0  0  0
 20 18  1  0  0  0  0
 22 27  1  0  0  0  0
 23 21  1  6  0  0  0
 23 25  1  0  0  0  0
 23 28  1  0  0  0  0
 25 22  1  0  0  0  0
 26 24  1  0  0  0  0
 26 27  1  0  0  0  0
 28 24  1  0  0  0  0
 29 30  1  0  0  0  0
 30 32  1  0  0  0  0
 30 21  1  0  0  0  0
 31 30  2  0  0  0  0
 33 34  1  0  0  0  0
 34 35  1  0  0  0  0
 35 36  1  0  0  0  0
 37 36  1  6  0  0  0
 37 40  1  0  0  0  0
 38 41  1  0  0  0  0
 39 38  1  0  0  0  0
 40 38  2  0  0  0  0
 41 42  1  6  0  0  0
 41 45  1  0  0  0  0
 42 43  1  0  0  0  0
 43 44  1  0  0  0  0
 45 47  1  0  0  0  0
 47 46  2  0  0  0  0
 48 50  1  0  0  0  0
 48 37  1  0  0  0  0
 50 49  1  1  0  0  0
 51 52  1  0  0  0  0
 52 54  1  0  0  0  0
 53 54  1  0  0  0  0
 56 55  1  6  0  0  0
 56 51  1  0  0  0  0
 56 57  1  0  0  0  0
 57 50  1  6  0  0  0
 57 53  1  0  0  0  0
M  END
>  <MODEL>
8

>  <REMARK>
 VINA RESULT:      -3.7      3.191      7.679
  Name = 
  26 active torsions:
  status: ('A' for Active; 'I' for Inactive)
    1  A    between atoms: C_1  and  C_27
    2  A    between atoms: C_4  and  C_27
    3  A    between atoms: C_4  and  C_54
    4  A    between atoms: C_5  and  C_16
    5  A    between atoms: C_6  and  C_35
    6  A    between atoms: P_8  and  N_55
    7  A    between atoms: C_9  and  C_21
    8  A    between atoms: C_9  and  O_29
    9  A    between atoms: C_10  and  C_42
   10  A    between atoms: C_10  and  N_55
   11  A    between atoms: C_14  and  C_30
   12  A    between atoms: C_14  and  N_52
   13  A    between atoms: C_14  and  C_53
   14  A    between atoms: C_16  and  N_49
   15  A    between atoms: P_18  and  N_28
   16  A    between atoms: C_19  and  C_23
   17  A    between atoms: C_19  and  C_42
   18  A    between atoms: C_21  and  C_31
   19  A    between atoms: C_23  and  C_46
   20  A    between atoms: C_27  and  C_35
   21  A    between atoms: N_28  and  C_34
   22  A    between atoms: N_28  and  N_55
   23  A    between atoms: O_29  and  C_30
   24  A    between atoms: C_32  and  C_53
   25  A    between atoms: C_32  and  C_57
   26  A    between atoms: C_46  and  N_49
                            x       y       z     vdW  Elec       q    Type
                         _______ _______ _______ _____ _____    ______ ____

>  <TORSDO>
F 26

$$$$
=
 OpenBabel11042411243D

 57 59  0  0  1  0  0  0  0  0999 V2000
  189.5160  174.9550  136.4940 C   0  0  0  0  0  0  0  0  0  0  0  0
  193.1540  176.3180  138.1830 N   0  0  0  0  0  1  0  0  0  0  0  0
  191.9450  175.0090  136.5230 C   0  0  0  0  0  3  0  0  0  0  0  0
  190.6950  176.2680  138.1760 C   0  0  0  0  0  0  0  0  0  0  0  0
  191.9250  175.8640  137.6270 C   0  0  0  0  0  0  0  0  0  0  0  0
  190.7500  174.5560  135.9610 C   0  0  0  0  0  3  0  0  0  0  0  0
  189.5000  175.8170  137.6050 C   0  0  0  0  0  3  0  0  0  0  0  0
  188.2580  174.4750  135.8770 C   0  0  0  0  0  0  0  0  0  0  0  0
  188.2850  173.7490  134.7610 C   0  0  0  0  0  2  0  0  0  0  0  0
  187.0060  174.7940  136.4980 N   0  0  0  0  0  2  0  0  0  0  0  0
  186.2270  175.9810  136.1830 C   0  0  0  0  0  2  0  0  0  0  0  0
  184.8250  175.5690  135.7860 C   0  0  0  0  0  2  0  0  0  0  0  0
  184.5240  174.1940  136.3420 C   0  0  0  0  0  2  0  0  0  0  0  0
  183.7280  174.3410  137.6200 C   0  0  0  0  0  2  0  0  0  0  0  0
  183.1760  175.7480  137.7130 C   0  0  0  0  0  2  0  0  0  0  0  0
  181.7110  175.7010  137.6400 N   0  0  0  0  0  0  0  0  0  0  0  0
  179.8590  176.2560  139.5200 O   0  0  0  0  0  1  0  0  0  0  0  0
  181.0300  175.3460  139.2230 P   0  0  0  0  0  0  0  0  0  0  0  0
  180.5230  173.7340  139.2820 O   0  0  0  0  0  0  0  0  0  0  0  0
  182.2220  175.5890  140.3990 O   0  0  0  0  0  1  0  0  0  0  0  0
  181.0940  176.8620  137.0860 N   0  0  0  0  0  0  0  0  0  0  0  0
  180.5480  179.9680  136.9160 C   0  0  0  0  0  2  0  0  0  0  0  0
  182.0640  177.9080  136.6400 C   0  0  1  0  0  3  0  0  0  0  0  0
  182.4470  178.7250  139.0880 C   0  0  0  0  0  2  0  0  0  0  0  0
  181.4410  179.1550  135.9790 C   0  0  0  0  0  2  0  0  0  0  0  0
  181.1850  179.5770  138.9890 C   0  0  0  0  0  2  0  0  0  0  0  0
  181.3010  180.5130  137.9590 O   0  0  0  0  0  0  0  0  0  0  0  0
  183.0610  178.3210  137.7370 C   0  0  0  0  0  2  0  0  0  0  0  0
  179.1340  177.5160  135.1390 O   0  0  0  0  0  1  0  0  0  0  0  0
  180.1040  176.2700  135.7440 P   0  0  0  0  0  0  0  0  0  0  0  0
  180.9870  175.7370  134.6380 O   0  0  0  0  0  0  0  0  0  0  0  0
  179.0970  175.0260  136.2910 O   0  0  0  0  0  1  0  0  0  0  0  0
  190.6370  177.1900  139.3490 C   0  0  0  0  0  2  0  0  0  0  0  0
  192.0040  177.3010  139.9950 C   0  0  0  0  0  2  0  0  0  0  0  0
  191.9140  176.9180  141.3310 O   0  0  0  0  0  0  0  0  0  0  0  0
  191.1480  177.9150  141.9350 C   0  0  0  0  0  2  0  0  0  0  0  0
  189.9890  177.3250  142.7380 C   0  0  1  0  0  3  0  0  0  0  0  0
  191.0310  177.7500  144.9240 C   0  0  0  0  0  0  0  0  0  0  0  0
  191.5470  179.1030  144.5500 C   0  0  0  0  0  1  0  0  0  0  0  0
  190.3460  177.0080  144.1120 N   0  0  0  0  0  0  0  0  0  0  0  0
  191.3150  177.2630  146.3150 C   0  0  1  0  0  3  0  0  0  0  0  0
  190.0130  176.8970  147.0180 C   0  0  0  0  0  2  0  0  0  0  0  0
  189.1110  178.1110  147.1840 C   0  0  0  0  0  2  0  0  0  0  0  0
  188.5570  178.1670  148.5950 C   0  0  0  0  0  1  0  0  0  0  0  0
  192.2710  176.0680  146.3070 C   0  0  0  0  0  2  0  0  0  0  0  0
  192.1740  175.8380  148.7510 C   0  0  0  0  0  2  0  0  0  0  0  0
  192.1520  175.2550  147.5560 C   0  0  0  0  0  3  0  0  0  0  0  0
  188.6850  178.1120  142.6190 C   0  0  0  0  0  2  0  0  0  0  0  0
  187.5210  176.2830  143.5900 O   0  0  0  0  0  1  0  0  0  0  0  0
  187.6920  177.6680  143.6850 C   0  0  2  0  0  3  0  0  0  0  0  0
  184.2400  179.2150  144.6440 C   0  0  0  0  0  2  0  0  0  0  0  0
  183.1140  178.4090  143.4650 S   0  0  0  0  0  0  0  0  0  0  0  0
  185.5370  177.8030  142.3620 C   0  0  0  0  0  2  0  0  0  0  0  0
  184.2800  178.6120  142.0860 C   0  0  0  0  0  2  0  0  0  0  0  0
  186.2850  179.0050  145.9800 C   0  0  0  0  0  1  0  0  0  0  0  0
  185.5230  178.4090  144.8100 C   0  0  2  0  0  3  0  0  0  0  0  0
  186.3540  178.4160  143.5080 C   0  0  1  0  0  3  0  0  0  0  0  0
  1  7  1  0  0  0  0
  3  5  2  0  0  0  0
  4 33  1  0  0  0  0
  5  4  1  0  0  0  0
  5  2  1  0  0  0  0
  6  1  2  0  0  0  0
  6  3  1  0  0  0  0
  7  4  2  0  0  0  0
  8  1  1  0  0  0  0
  8 10  1  0  0  0  0
  9  8  2  0  0  0  0
 11 10  1  0  0  0  0
 12 11  1  0  0  0  0
 12 13  1  0  0  0  0
 13 14  1  0  0  0  0
 14 15  1  0  0  0  0
 16 15  1  0  0  0  0
 16 18  1  0  0  0  0
 18 19  2  0  0  0  0
 18 17  1  0  0  0  0
 18 20  1  0  0  0  0
 21 16  1  0  0  0  0
 22 27  1  0  0  0  0
 23 21  1  1  0  0  0
 23 28  1  0  0  0  0
 25 23  1  0  0  0  0
 25 22  1  0  0  0  0
 26 24  1  0  0  0  0
 27 26  1  0  0  0  0
 28 24  1  0  0  0  0
 29 30  1  0  0  0  0
 30 32  1  0  0  0  0
 30 21  1  0  0  0  0
 31 30  2  0  0  0  0
 33 34  1  0  0  0  0
 34 35  1  0  0  0  0
 35 36  1  0  0  0  0
 37 36  1  1  0  0  0
 37 40  1  0  0  0  0
 38 41  1  0  0  0  0
 39 38  1  0  0  0  0
 40 38  2  0  0  0  0
 41 45  1  6  0  0  0
 41 42  1  0  0  0  0
 42 43  1  0  0  0  0
 43 44  1  0  0  0  0
 45 47  1  0  0  0  0
 47 46  2  0  0  0  0
 48 37  1  0  0  0  0
 48 50  1  0  0  0  0
 50 49  1  6  0  0  0
 51 56  1  0  0  0  0
 52 51  1  0  0  0  0
 53 57  1  0  0  0  0
 54 53  1  0  0  0  0
 54 52  1  0  0  0  0
 56 55  1  1  0  0  0
 57 50  1  1  0  0  0
 57 56  1  0  0  0  0
M  END
>  <MODEL>
9

>  <REMARK>
 VINA RESULT:      -3.6      2.952      7.367
  Name = 
  26 active torsions:
  status: ('A' for Active; 'I' for Inactive)
    1  A    between atoms: C_1  and  C_27
    2  A    between atoms: C_4  and  C_27
    3  A    between atoms: C_4  and  C_54
    4  A    between atoms: C_5  and  C_16
    5  A    between atoms: C_6  and  C_35
    6  A    between atoms: P_8  and  N_55
    7  A    between atoms: C_9  and  C_21
    8  A    between atoms: C_9  and  O_29
    9  A    between atoms: C_10  and  C_42
   10  A    between atoms: C_10  and  N_55
   11  A    between atoms: C_14  and  C_30
   12  A    between atoms: C_14  and  N_52
   13  A    between atoms: C_14  and  C_53
   14  A    between atoms: C_16  and  N_49
   15  A    between atoms: P_18  and  N_28
   16  A    between atoms: C_19  and  C_23
   17  A    between atoms: C_19  and  C_42
   18  A    between atoms: C_21  and  C_31
   19  A    between atoms: C_23  and  C_46
   20  A    between atoms: C_27  and  C_35
   21  A    between atoms: N_28  and  C_34
   22  A    between atoms: N_28  and  N_55
   23  A    between atoms: O_29  and  C_30
   24  A    between atoms: C_32  and  C_53
   25  A    between atoms: C_32  and  C_57
   26  A    between atoms: C_46  and  N_49
                            x       y       z     vdW  Elec       q    Type
                         _______ _______ _______ _____ _____    ______ ____

>  <TORSDO>
F 26

$$$$
