=
 OpenBabel11042411003D

 29 33  0  0  1  0  0  0  0  0999 V2000
  192.0320  176.9040  147.9480 N   0  0  0  0  0  1  0  0  0  0  0  0
  189.6660  177.2150  147.6210 N   0  0  0  0  0  0  0  0  0  0  0  0
  189.9250  176.8300  144.8930 C   0  0  0  0  0  0  0  0  0  0  0  0
  184.9110  179.4340  143.1400 C   0  0  0  0  0  1  0  0  0  0  0  0
  187.7550  177.1510  143.1750 C   0  0  2  0  0  3  0  0  0  0  0  0
  189.2250  177.3050  141.3300 N   0  0  0  0  0  0  0  0  0  0  0  0
  191.0460  176.7610  145.7210 C   0  0  0  0  0  3  0  0  0  0  0  0
  187.4140  176.9880  144.6040 C   0  0  1  0  0  3  0  0  0  0  0  0
  188.5520  177.2740  146.8430 C   0  0  0  0  0  3  0  0  0  0  0  0
  188.2380  177.8960  140.5810 C   0  0  1  0  0  3  0  0  0  0  0  0
  189.0190  176.9870  142.6390 C   0  0  0  0  0  0  0  0  0  0  0  0
  187.0180  178.2690  141.1940 C   0  0  0  0  0  3  0  0  0  0  0  0
  188.6530  177.1040  145.4600 C   0  0  0  0  0  0  0  0  0  0  0  0
  185.8600  178.3750  143.4360 N   0  0  0  0  0  0  0  0  0  0  0  0
  190.0750  176.6680  143.5010 O   0  0  0  0  0  0  0  0  0  0  0  0
  186.8150  177.8720  142.5180 C   0  0  0  0  0  0  0  0  0  0  0  0
  186.3130  178.0540  144.7940 C   0  0  0  0  0  2  0  0  0  0  0  0
  190.8950  176.9630  147.0950 C   0  0  0  0  0  0  0  0  0  0  0  0
  188.1190  177.3220  138.1440 N   0  0  0  0  0  2  0  0  0  0  0  0
  189.0550  179.3300  138.8770 O   0  0  0  0  0  0  0  0  0  0  0  0
  188.4960  178.2380  139.1750 C   0  0  0  0  0  0  0  0  0  0  0  0
  187.4660  176.8150  135.7850 C   0  0  1  0  0  3  0  0  0  0  0  0
  187.2110  178.2750  136.1240 C   0  0  0  0  0  2  0  0  0  0  0  0
  188.4020  177.5780  136.7380 C   0  0  1  0  0  3  0  0  0  0  0  0
  185.3590  176.5270  137.1180 C   0  0  0  0  0  1  0  0  0  0  0  0
  186.5270  175.9270  136.4830 N   0  0  0  0  0  0  0  0  0  0  0  0
  186.8790  174.5670  136.7930 C   0  0  0  0  0  0  0  0  0  0  0  0
  185.9080  173.6600  137.4740 C   0  0  0  0  0  1  0  0  0  0  0  0
  188.0160  174.1180  136.4920 O   0  0  0  0  0  0  0  0  0  0  0  0
  3 13  2  0  0  0  0
  3  7  1  0  0  0  0
  4 14  1  0  0  0  0
  5 16  1  1  0  0  0
  5  8  1  0  0  0  0
  6 11  2  0  0  0  0
  7 18  2  0  0  0  0
  8 17  1  1  0  0  0
  8 13  1  0  0  0  0
  9  2  2  0  0  0  0
 10 21  1  1  0  0  0
 10 12  1  0  0  0  0
 10  6  1  0  0  0  0
 11  5  1  0  0  0  0
 11 15  1  0  0  0  0
 12 16  2  0  0  0  0
 13  9  1  0  0  0  0
 14 17  1  0  0  0  0
 15  3  1  0  0  0  0
 16 14  1  0  0  0  0
 18  2  1  0  0  0  0
 18  1  1  0  0  0  0
 19 21  1  0  0  0  0
 20 21  2  0  0  0  0
 22 23  1  0  0  0  0
 22 26  1  1  0  0  0
 22 24  1  0  0  0  0
 23 24  1  0  0  0  0
 24 19  1  1  0  0  0
 26 27  1  0  0  0  0
 26 25  1  0  0  0  0
 27 28  1  0  0  0  0
 29 27  2  0  0  0  0
M  END
>  <MODEL>
1

>  <REMARK>
 VINA RESULT:      -9.1      0.000      0.000
  Name = 
  3 active torsions:
  status: ('A' for Active; 'I' for Inactive)
    1  A    between atoms: N_2  and  C_25
    2  A    between atoms: N_6  and  C_11
    3  A    between atoms: C_14  and  C_18
                            x       y       z     vdW  Elec       q    Type
                         _______ _______ _______ _____ _____    ______ ____

>  <TORSDO>
F 3

$$$$
=
 OpenBabel11042411003D

 29 33  0  0  1  0  0  0  0  0999 V2000
  192.2760  177.5940  140.3480 N   0  0  0  0  0  1  0  0  0  0  0  0
  191.9770  177.2490  142.7130 N   0  0  0  0  0  0  0  0  0  0  0  0
  189.2240  177.2690  142.4340 C   0  0  0  0  0  0  0  0  0  0  0  0
  187.7660  178.5090  148.0320 C   0  0  0  0  0  1  0  0  0  0  0  0
  187.5450  177.1480  144.6550 C   0  0  2  0  0  3  0  0  0  0  0  0
  185.7380  177.9270  143.3450 N   0  0  0  0  0  0  0  0  0  0  0  0
  190.0430  177.4300  141.3170 C   0  0  0  0  0  3  0  0  0  0  0  0
  188.9440  176.7320  144.8930 C   0  0  1  0  0  3  0  0  0  0  0  0
  191.2050  177.0750  143.8190 C   0  0  0  0  0  3  0  0  0  0  0  0
  185.0590  178.2920  144.4810 C   0  0  1  0  0  3  0  0  0  0  0  0
  187.0000  177.4160  143.4130 C   0  0  0  0  0  0  0  0  0  0  0  0
  185.7060  178.2260  145.7380 C   0  0  0  0  0  3  0  0  0  0  0  0
  189.8120  177.0990  143.7150 C   0  0  0  0  0  0  0  0  0  0  0  0
  187.9390  177.7390  146.8130 N   0  0  0  0  0  0  0  0  0  0  0  0
  187.8230  177.3170  142.2860 O   0  0  0  0  0  0  0  0  0  0  0  0
  186.9730  177.6390  145.7800 C   0  0  0  0  0  0  0  0  0  0  0  0
  189.2520  177.4090  146.2470 C   0  0  0  0  0  2  0  0  0  0  0  0
  191.4310  177.4220  141.4790 C   0  0  0  0  0  0  0  0  0  0  0  0
  183.0340  178.8380  143.1090 N   0  0  0  0  0  2  0  0  0  0  0  0
  183.1360  179.3460  145.3840 O   0  0  0  0  0  0  0  0  0  0  0  0
  183.7040  178.8510  144.3720 C   0  0  0  0  0  0  0  0  0  0  0  0
  181.0990  179.1160  141.5510 C   0  0  1  0  0  3  0  0  0  0  0  0
  180.7030  178.3190  142.7840 C   0  0  0  0  0  2  0  0  0  0  0  0
  181.7160  179.4300  142.9250 C   0  0  1  0  0  3  0  0  0  0  0  0
  183.1450  179.0310  140.1010 C   0  0  0  0  0  1  0  0  0  0  0  0
  181.9940  178.3460  140.6770 N   0  0  0  0  0  0  0  0  0  0  0  0
  181.6070  177.0600  140.1630 C   0  0  0  0  0  0  0  0  0  0  0  0
  182.5340  176.2680  139.3020 C   0  0  0  0  0  1  0  0  0  0  0  0
  180.4750  176.5780  140.4340 O   0  0  0  0  0  0  0  0  0  0  0  0
  1 18  1  0  0  0  0
  2  9  1  0  0  0  0
  3 13  1  0  0  0  0
  5 11  1  6  0  0  0
  5  8  1  0  0  0  0
  5 16  1  0  0  0  0
  6 11  2  0  0  0  0
  6 10  1  0  0  0  0
  7 18  1  0  0  0  0
  7  3  2  0  0  0  0
  8 17  1  1  0  0  0
 10 21  1  6  0  0  0
 10 12  1  0  0  0  0
 12 16  2  0  0  0  0
 13  9  2  0  0  0  0
 13  8  1  0  0  0  0
 14  4  1  0  0  0  0
 15  3  1  0  0  0  0
 15 11  1  0  0  0  0
 16 14  1  0  0  0  0
 17 14  1  0  0  0  0
 18  2  2  0  0  0  0
 19 21  1  0  0  0  0
 21 20  2  0  0  0  0
 22 26  1  6  0  0  0
 22 23  1  0  0  0  0
 22 24  1  0  0  0  0
 23 24  1  0  0  0  0
 24 19  1  6  0  0  0
 25 26  1  0  0  0  0
 27 29  2  0  0  0  0
 27 26  1  0  0  0  0
 28 27  1  0  0  0  0
M  END
>  <MODEL>
2

>  <REMARK>
 VINA RESULT:      -8.9      3.504      5.760
  Name = 
  3 active torsions:
  status: ('A' for Active; 'I' for Inactive)
    1  A    between atoms: N_2  and  C_25
    2  A    between atoms: N_6  and  C_11
    3  A    between atoms: C_14  and  C_18
                            x       y       z     vdW  Elec       q    Type
                         _______ _______ _______ _____ _____    ______ ____

>  <TORSDO>
F 3

$$$$
=
 OpenBabel11042411003D

 29 33  0  0  1  0  0  0  0  0999 V2000
  191.8780  177.2050  146.8120 N   0  0  0  0  0  1  0  0  0  0  0  0
  189.5300  177.4070  147.3140 N   0  0  0  0  0  0  0  0  0  0  0  0
  188.8730  177.2090  144.6330 C   0  0  0  0  0  0  0  0  0  0  0  0
  183.4850  179.6410  144.8490 C   0  0  0  0  0  1  0  0  0  0  0  0
  186.2450  177.5190  143.7620 C   0  0  2  0  0  3  0  0  0  0  0  0
  187.0070  177.8690  141.5510 N   0  0  0  0  0  0  0  0  0  0  0  0
  190.2080  177.1500  145.0340 C   0  0  0  0  0  3  0  0  0  0  0  0
  186.4070  177.2480  145.2060 C   0  0  1  0  0  3  0  0  0  0  0  0
  188.2190  177.4540  146.9550 C   0  0  0  0  0  3  0  0  0  0  0  0
  185.8080  178.4520  141.2200 C   0  0  1  0  0  3  0  0  0  0  0  0
  187.2610  177.4590  142.8260 C   0  0  0  0  0  0  0  0  0  0  0  0
  184.8540  178.7170  142.2310 C   0  0  0  0  0  3  0  0  0  0  0  0
  187.8560  177.3770  145.6090 C   0  0  0  0  0  0  0  0  0  0  0  0
  184.5090  178.6190  144.7310 N   0  0  0  0  0  0  0  0  0  0  0  0
  188.5530  177.1440  143.2610 O   0  0  0  0  0  0  0  0  0  0  0  0
  185.1180  178.2270  143.5110 C   0  0  0  0  0  0  0  0  0  0  0  0
  185.4000  178.2380  145.8320 C   0  0  0  0  0  2  0  0  0  0  0  0
  190.5200  177.2570  146.3920 C   0  0  0  0  0  0  0  0  0  0  0  0
  186.1530  178.1680  138.7540 N   0  0  0  0  0  2  0  0  0  0  0  0
  184.8640  179.9140  139.6100 O   0  0  0  0  0  0  0  0  0  0  0  0
  185.5710  178.8950  139.8390 C   0  0  0  0  0  0  0  0  0  0  0  0
  187.1750  178.1550  136.4730 C   0  0  1  0  0  3  0  0  0  0  0  0
  185.8770  177.3640  136.4990 C   0  0  0  0  0  2  0  0  0  0  0  0
  186.0030  178.5910  137.3690 C   0  0  1  0  0  3  0  0  0  0  0  0
  188.1460  176.0190  137.3610 C   0  0  0  0  0  1  0  0  0  0  0  0
  188.2410  177.4660  137.2100 N   0  0  0  0  0  0  0  0  0  0  0  0
  189.1880  178.1980  138.0080 C   0  0  0  0  0  0  0  0  0  0  0  0
  190.2900  177.4950  138.7290 C   0  0  0  0  0  1  0  0  0  0  0  0
  189.1030  179.4510  138.1100 O   0  0  0  0  0  0  0  0  0  0  0  0
  3  7  2  0  0  0  0
  3 13  1  0  0  0  0
  5 11  1  1  0  0  0
  5  8  1  0  0  0  0
  6 11  2  0  0  0  0
  7 18  1  0  0  0  0
  8 13  1  0  0  0  0
  8 17  1  1  0  0  0
  9  2  1  0  0  0  0
 10 21  1  1  0  0  0
 10  6  1  0  0  0  0
 10 12  1  0  0  0  0
 11 15  1  0  0  0  0
 12 16  2  0  0  0  0
 13  9  2  0  0  0  0
 14  4  1  0  0  0  0
 14 17  1  0  0  0  0
 15  3  1  0  0  0  0
 16  5  1  0  0  0  0
 16 14  1  0  0  0  0
 18  1  1  0  0  0  0
 18  2  2  0  0  0  0
 19 21  1  0  0  0  0
 20 21  2  0  0  0  0
 22 23  1  0  0  0  0
 22 26  1  1  0  0  0
 22 24  1  0  0  0  0
 23 24  1  0  0  0  0
 24 19  1  1  0  0  0
 26 25  1  0  0  0  0
 26 27  1  0  0  0  0
 27 29  2  0  0  0  0
 27 28  1  0  0  0  0
M  END
>  <MODEL>
3

>  <REMARK>
 VINA RESULT:      -8.6      1.791      2.594
  Name = 
  3 active torsions:
  status: ('A' for Active; 'I' for Inactive)
    1  A    between atoms: N_2  and  C_25
    2  A    between atoms: N_6  and  C_11
    3  A    between atoms: C_14  and  C_18
                            x       y       z     vdW  Elec       q    Type
                         _______ _______ _______ _____ _____    ______ ____

>  <TORSDO>
F 3

$$$$
=
 OpenBabel11042411003D

 29 33  0  0  1  0  0  0  0  0999 V2000
  192.0580  176.7520  147.5100 N   0  0  0  0  0  1  0  0  0  0  0  0
  189.6830  177.1550  147.5240 N   0  0  0  0  0  0  0  0  0  0  0  0
  189.5500  176.8530  144.7760 C   0  0  0  0  0  0  0  0  0  0  0  0
  184.4470  179.6850  143.8090 C   0  0  0  0  0  1  0  0  0  0  0  0
  187.1790  177.3050  143.3840 C   0  0  2  0  0  3  0  0  0  0  0  0
  188.3870  177.4710  141.3590 N   0  0  0  0  0  0  0  0  0  0  0  0
  190.7700  176.7180  145.4380 C   0  0  0  0  0  3  0  0  0  0  0  0
  187.0320  177.1070  144.8420 C   0  0  1  0  0  3  0  0  0  0  0  0
  188.4760  177.2780  146.9080 C   0  0  0  0  0  3  0  0  0  0  0  0
  187.3290  178.1210  140.7710 C   0  0  1  0  0  3  0  0  0  0  0  0
  188.3510  177.1170  142.6740 C   0  0  0  0  0  0  0  0  0  0  0  0
  186.2210  178.5130  141.5580 C   0  0  0  0  0  3  0  0  0  0  0  0
  188.3790  177.1510  145.5210 C   0  0  0  0  0  0  0  0  0  0  0  0
  185.3860  178.5840  143.9400 N   0  0  0  0  0  0  0  0  0  0  0  0
  189.5010  176.7330  143.3720 O   0  0  0  0  0  0  0  0  0  0  0  0
  186.1860  178.0800  142.8850 C   0  0  0  0  0  0  0  0  0  0  0  0
  186.0090  178.2020  145.2130 C   0  0  0  0  0  2  0  0  0  0  0  0
  190.8180  176.8790  146.8250 C   0  0  0  0  0  0  0  0  0  0  0  0
  188.6660  178.4660  138.6790 N   0  0  0  0  0  2  0  0  0  0  0  0
  186.3670  178.8600  138.7330 O   0  0  0  0  0  0  0  0  0  0  0  0
  187.4060  178.5000  139.3530 C   0  0  0  0  0  0  0  0  0  0  0  0
  189.5900  177.8720  136.4330 C   0  0  1  0  0  3  0  0  0  0  0  0
  188.0700  177.9130  136.4090 C   0  0  0  0  0  2  0  0  0  0  0  0
  188.8150  178.8860  137.2920 C   0  0  1  0  0  3  0  0  0  0  0  0
  191.0700  176.9700  138.2480 C   0  0  0  0  0  1  0  0  0  0  0  0
  190.0850  176.7220  137.2010 N   0  0  0  0  0  0  0  0  0  0  0  0
  189.8470  175.3740  136.7610 C   0  0  0  0  0  0  0  0  0  0  0  0
  190.3250  174.2090  137.5620 C   0  0  0  0  0  1  0  0  0  0  0  0
  189.2280  175.1530  135.6870 O   0  0  0  0  0  0  0  0  0  0  0  0
  3  7  2  0  0  0  0
  3 13  1  0  0  0  0
  4 14  1  0  0  0  0
  5 11  1  1  0  0  0
  5  8  1  0  0  0  0
  6 11  2  0  0  0  0
  7 18  1  0  0  0  0
  8 17  1  1  0  0  0
  8 13  1  0  0  0  0
  9  2  1  0  0  0  0
 10 21  1  1  0  0  0
 10  6  1  0  0  0  0
 10 12  1  0  0  0  0
 11 15  1  0  0  0  0
 12 16  2  0  0  0  0
 13  9  2  0  0  0  0
 14 17  1  0  0  0  0
 15  3  1  0  0  0  0
 16  5  1  0  0  0  0
 16 14  1  0  0  0  0
 18  1  1  0  0  0  0
 18  2  2  0  0  0  0
 19 21  1  0  0  0  0
 20 21  2  0  0  0  0
 22 26  1  1  0  0  0
 22 24  1  0  0  0  0
 23 22  1  0  0  0  0
 23 24  1  0  0  0  0
 24 19  1  1  0  0  0
 26 25  1  0  0  0  0
 27 26  1  0  0  0  0
 27 28  1  0  0  0  0
 29 27  2  0  0  0  0
M  END
>  <MODEL>
4

>  <REMARK>
 VINA RESULT:      -8.4      1.611      1.920
  Name = 
  3 active torsions:
  status: ('A' for Active; 'I' for Inactive)
    1  A    between atoms: N_2  and  C_25
    2  A    between atoms: N_6  and  C_11
    3  A    between atoms: C_14  and  C_18
                            x       y       z     vdW  Elec       q    Type
                         _______ _______ _______ _____ _____    ______ ____

>  <TORSDO>
F 3

$$$$
=
 OpenBabel11042411003D

 29 33  0  0  1  0  0  0  0  0999 V2000
  178.9310  177.8790  140.7410 N   0  0  0  0  0  1  0  0  0  0  0  0
  179.8890  178.4360  142.8800 N   0  0  0  0  0  0  0  0  0  0  0  0
  182.4140  178.6480  141.7670 C   0  0  0  0  0  0  0  0  0  0  0  0
  185.6220  177.9950  146.6940 C   0  0  0  0  0  1  0  0  0  0  0  0
  184.6600  179.0980  143.3530 C   0  0  2  0  0  3  0  0  0  0  0  0
  186.0630  178.3880  141.5880 N   0  0  0  0  0  0  0  0  0  0  0  0
  181.3190  178.3240  140.9660 C   0  0  0  0  0  3  0  0  0  0  0  0
  183.3610  179.4010  143.9910 C   0  0  1  0  0  3  0  0  0  0  0  0
  180.9340  178.7680  143.6850 C   0  0  0  0  0  3  0  0  0  0  0  0
  187.0890  178.1780  142.4750 C   0  0  1  0  0  3  0  0  0  0  0  0
  184.8310  178.7840  142.0180 C   0  0  0  0  0  0  0  0  0  0  0  0
  186.8480  178.2830  143.8660 C   0  0  0  0  0  3  0  0  0  0  0  0
  182.2240  178.8630  143.1570 C   0  0  0  0  0  0  0  0  0  0  0  0
  185.0040  178.6460  145.5530 N   0  0  0  0  0  0  0  0  0  0  0  0
  183.7010  178.7180  141.1960 O   0  0  0  0  0  0  0  0  0  0  0  0
  185.5960  178.7520  144.2690 C   0  0  0  0  0  0  0  0  0  0  0  0
  183.5530  178.8090  145.4050 C   0  0  0  0  0  2  0  0  0  0  0  0
  180.0530  178.2170  141.5470 C   0  0  0  0  0  0  0  0  0  0  0  0
  189.2670  176.9910  142.8380 N   0  0  0  0  0  2  0  0  0  0  0  0
  188.7670  178.0240  140.8060 O   0  0  0  0  0  0  0  0  0  0  0  0
  188.4010  177.7390  141.9800 C   0  0  0  0  0  0  0  0  0  0  0  0
  191.6510  176.7250  143.5390 C   0  0  1  0  0  3  0  0  0  0  0  0
  191.0120  175.3780  143.2420 C   0  0  0  0  0  2  0  0  0  0  0  0
  190.6010  176.5790  142.4240 C   0  0  1  0  0  3  0  0  0  0  0  0
  190.5880  178.6780  144.7010 C   0  0  0  0  0  1  0  0  0  0  0  0
  191.1110  177.3190  144.7690 N   0  0  0  0  0  0  0  0  0  0  0  0
  191.3500  176.7170  146.0530 C   0  0  0  0  0  0  0  0  0  0  0  0
  190.7710  177.3070  147.2960 C   0  0  0  0  0  1  0  0  0  0  0  0
  192.0530  175.6770  146.1500 O   0  0  0  0  0  0  0  0  0  0  0  0
  1 18  1  0  0  0  0
  2  9  1  0  0  0  0
  3 13  1  0  0  0  0
  5 11  1  6  0  0  0
  5  8  1  0  0  0  0
  5 16  1  0  0  0  0
  6 11  2  0  0  0  0
  6 10  1  0  0  0  0
  7 18  1  0  0  0  0
  7  3  2  0  0  0  0
  8 17  1  1  0  0  0
 10 21  1  1  0  0  0
 10 12  1  0  0  0  0
 12 16  2  0  0  0  0
 13  9  2  0  0  0  0
 13  8  1  0  0  0  0
 14  4  1  0  0  0  0
 15  3  1  0  0  0  0
 15 11  1  0  0  0  0
 16 14  1  0  0  0  0
 17 14  1  0  0  0  0
 18  2  2  0  0  0  0
 20 21  2  0  0  0  0
 21 19  1  0  0  0  0
 22 26  1  1  0  0  0
 23 22  1  0  0  0  0
 24 19  1  1  0  0  0
 24 23  1  0  0  0  0
 24 22  1  0  0  0  0
 25 26  1  0  0  0  0
 26 27  1  0  0  0  0
 27 29  2  0  0  0  0
 27 28  1  0  0  0  0
M  END
>  <MODEL>
5

>  <REMARK>
 VINA RESULT:      -8.2      3.610      7.727
  Name = 
  3 active torsions:
  status: ('A' for Active; 'I' for Inactive)
    1  A    between atoms: N_2  and  C_25
    2  A    between atoms: N_6  and  C_11
    3  A    between atoms: C_14  and  C_18
                            x       y       z     vdW  Elec       q    Type
                         _______ _______ _______ _____ _____    ______ ____

>  <TORSDO>
F 3

$$$$
=
 OpenBabel11042411003D

 29 33  0  0  1  0  0  0  0  0999 V2000
  189.5130  178.2510  149.2430 N   0  0  0  0  0  1  0  0  0  0  0  0
  187.4940  178.3550  147.9340 N   0  0  0  0  0  0  0  0  0  0  0  0
  188.8110  177.3810  145.7040 C   0  0  0  0  0  0  0  0  0  0  0  0
  185.0420  179.2550  141.5470 C   0  0  0  0  0  1  0  0  0  0  0  0
  187.5310  177.1920  143.2360 C   0  0  2  0  0  3  0  0  0  0  0  0
  189.6240  177.0060  142.1520 N   0  0  0  0  0  0  0  0  0  0  0  0
  189.5000  177.5600  146.9030 C   0  0  0  0  0  3  0  0  0  0  0  0
  186.6370  177.3370  144.4050 C   0  0  1  0  0  3  0  0  0  0  0  0
  186.7900  178.1780  146.7830 C   0  0  0  0  0  3  0  0  0  0  0  0
  189.0470  177.3600  140.9580 C   0  0  1  0  0  3  0  0  0  0  0  0
  188.8950  176.9800  143.3040 C   0  0  0  0  0  0  0  0  0  0  0  0
  187.7010  177.7960  140.9290 C   0  0  0  0  0  3  0  0  0  0  0  0
  187.4310  177.7070  145.6340 C   0  0  0  0  0  0  0  0  0  0  0  0
  185.7450  178.3410  142.4300 N   0  0  0  0  0  0  0  0  0  0  0  0
  189.5010  176.9190  144.5640 O   0  0  0  0  0  0  0  0  0  0  0  0
  186.9660  177.6960  142.1130 C   0  0  0  0  0  0  0  0  0  0  0  0
  185.6000  178.3580  143.8900 C   0  0  0  0  0  2  0  0  0  0  0  0
  188.8190  178.0570  148.0170 C   0  0  0  0  0  0  0  0  0  0  0  0
  189.2470  177.1580  138.4670 N   0  0  0  0  0  2  0  0  0  0  0  0
  191.1040  177.6130  139.8050 O   0  0  0  0  0  0  0  0  0  0  0  0
  189.8640  177.3900  139.7360 C   0  0  0  0  0  0  0  0  0  0  0  0
  189.2280  176.5100  136.0530 C   0  0  1  0  0  3  0  0  0  0  0  0
  189.3450  178.0170  136.2180 C   0  0  0  0  0  2  0  0  0  0  0  0
  190.0120  177.1170  137.2290 C   0  0  1  0  0  3  0  0  0  0  0  0
  186.8410  177.0160  136.6430 C   0  0  0  0  0  1  0  0  0  0  0  0
  187.8940  176.0280  136.4350 N   0  0  0  0  0  0  0  0  0  0  0  0
  187.6900  174.6750  136.8780 C   0  0  0  0  0  0  0  0  0  0  0  0
  186.3270  174.1810  137.2330 C   0  0  0  0  0  1  0  0  0  0  0  0
  188.6630  173.8810  136.9720 O   0  0  0  0  0  0  0  0  0  0  0  0
  2 18  1  0  0  0  0
  3  7  1  0  0  0  0
  4 14  1  0  0  0  0
  5 16  1  6  0  0  0
  5 11  1  0  0  0  0
  5  8  1  0  0  0  0
  6 11  2  0  0  0  0
  7 18  2  0  0  0  0
  8 17  1  6  0  0  0
  8 13  1  0  0  0  0
  9  2  2  0  0  0  0
 10 21  1  1  0  0  0
 10  6  1  0  0  0  0
 11 15  1  0  0  0  0
 12 10  1  0  0  0  0
 12 16  2  0  0  0  0
 13  3  2  0  0  0  0
 13  9  1  0  0  0  0
 14 17  1  0  0  0  0
 15  3  1  0  0  0  0
 16 14  1  0  0  0  0
 18  1  1  0  0  0  0
 19 21  1  0  0  0  0
 21 20  2  0  0  0  0
 22 23  1  0  0  0  0
 22 26  1  1  0  0  0
 22 24  1  0  0  0  0
 23 24  1  0  0  0  0
 24 19  1  1  0  0  0
 26 25  1  0  0  0  0
 26 27  1  0  0  0  0
 27 29  2  0  0  0  0
 27 28  1  0  0  0  0
M  END
>  <MODEL>
6

>  <REMARK>
 VINA RESULT:      -8.2      1.390      1.611
  Name = 
  3 active torsions:
  status: ('A' for Active; 'I' for Inactive)
    1  A    between atoms: N_2  and  C_25
    2  A    between atoms: N_6  and  C_11
    3  A    between atoms: C_14  and  C_18
                            x       y       z     vdW  Elec       q    Type
                         _______ _______ _______ _____ _____    ______ ____

>  <TORSDO>
F 3

$$$$
=
 OpenBabel11042411003D

 29 33  0  0  1  0  0  0  0  0999 V2000
  183.9090  178.5950  146.2130 N   0  0  0  0  0  1  0  0  0  0  0  0
  186.2220  178.1280  146.6950 N   0  0  0  0  0  0  0  0  0  0  0  0
  186.8840  178.3010  144.0140 C   0  0  0  0  0  0  0  0  0  0  0  0
  191.9740  175.2900  144.1510 C   0  0  0  0  0  1  0  0  0  0  0  0
  189.4580  177.7210  143.1190 C   0  0  2  0  0  3  0  0  0  0  0  0
  188.6510  177.4960  140.9090 N   0  0  0  0  0  0  0  0  0  0  0  0
  185.5660  178.4990  144.4250 C   0  0  0  0  0  3  0  0  0  0  0  0
  189.3340  177.9820  144.5690 C   0  0  1  0  0  3  0  0  0  0  0  0
  187.5190  177.9450  146.3270 C   0  0  0  0  0  3  0  0  0  0  0  0
  189.7770  176.7920  140.5600 C   0  0  1  0  0  3  0  0  0  0  0  0
  188.4500  177.9090  142.1920 C   0  0  0  0  0  0  0  0  0  0  0  0
  190.7020  176.4050  141.5590 C   0  0  0  0  0  3  0  0  0  0  0  0
  187.8810  178.0060  144.9800 C   0  0  0  0  0  0  0  0  0  0  0  0
  191.0670  176.4210  144.0570 N   0  0  0  0  0  0  0  0  0  0  0  0
  187.2020  178.3550  142.6410 O   0  0  0  0  0  0  0  0  0  0  0  0
  190.5000  176.8980  142.8490 C   0  0  0  0  0  0  0  0  0  0  0  0
  190.2290  176.8770  145.1720 C   0  0  0  0  0  2  0  0  0  0  0  0
  185.2510  178.4030  145.7830 C   0  0  0  0  0  0  0  0  0  0  0  0
  188.9200  176.5810  138.2140 N   0  0  0  0  0  2  0  0  0  0  0  0
  191.0200  175.7650  138.8200 O   0  0  0  0  0  0  0  0  0  0  0  0
  189.9580  176.3500  139.1690 C   0  0  0  0  0  0  0  0  0  0  0  0
  187.9440  176.7250  135.9170 C   0  0  1  0  0  3  0  0  0  0  0  0
  189.3550  177.2900  135.9520 C   0  0  0  0  0  2  0  0  0  0  0  0
  189.0160  176.1150  136.8370 C   0  0  1  0  0  3  0  0  0  0  0  0
  187.4170  178.9560  136.9380 C   0  0  0  0  0  1  0  0  0  0  0  0
  186.9970  177.5940  136.6280 N   0  0  0  0  0  0  0  0  0  0  0  0
  185.8220  177.0560  137.2590 C   0  0  0  0  0  0  0  0  0  0  0  0
  184.8470  177.9480  137.9520 C   0  0  0  0  0  1  0  0  0  0  0  0
  185.5960  175.8170  137.2360 O   0  0  0  0  0  0  0  0  0  0  0  0
  3  7  2  0  0  0  0
  3 13  1  0  0  0  0
  5 11  1  1  0  0  0
  5  8  1  0  0  0  0
  6 11  2  0  0  0  0
  7 18  1  0  0  0  0
  8 13  1  0  0  0  0
  8 17  1  1  0  0  0
  9  2  1  0  0  0  0
 10 21  1  1  0  0  0
 10  6  1  0  0  0  0
 10 12  1  0  0  0  0
 11 15  1  0  0  0  0
 12 16  2  0  0  0  0
 13  9  2  0  0  0  0
 14  4  1  0  0  0  0
 14 17  1  0  0  0  0
 15  3  1  0  0  0  0
 16  5  1  0  0  0  0
 16 14  1  0  0  0  0
 18  1  1  0  0  0  0
 18  2  2  0  0  0  0
 19 21  1  0  0  0  0
 20 21  2  0  0  0  0
 22 23  1  0  0  0  0
 22 26  1  1  0  0  0
 22 24  1  0  0  0  0
 23 24  1  0  0  0  0
 24 19  1  1  0  0  0
 26 25  1  0  0  0  0
 26 27  1  0  0  0  0
 27 28  1  0  0  0  0
 29 27  2  0  0  0  0
M  END
>  <MODEL>
7

>  <REMARK>
 VINA RESULT:      -8.0      2.163      3.834
  Name = 
  3 active torsions:
  status: ('A' for Active; 'I' for Inactive)
    1  A    between atoms: N_2  and  C_25
    2  A    between atoms: N_6  and  C_11
    3  A    between atoms: C_14  and  C_18
                            x       y       z     vdW  Elec       q    Type
                         _______ _______ _______ _____ _____    ______ ____

>  <TORSDO>
F 3

$$$$
=
 OpenBabel11042411003D

 29 33  0  0  1  0  0  0  0  0999 V2000
  192.2570  178.6240  144.3920 N   0  0  0  0  0  1  0  0  0  0  0  0
  190.1580  178.1190  145.4620 N   0  0  0  0  0  0  0  0  0  0  0  0
  188.8370  178.1480  143.0300 C   0  0  0  0  0  0  0  0  0  0  0  0
  183.3300  179.0020  145.0130 C   0  0  0  0  0  1  0  0  0  0  0  0
  186.0680  177.8720  142.8850 C   0  0  2  0  0  3  0  0  0  0  0  0
  186.0870  178.7320  140.6830 N   0  0  0  0  0  0  0  0  0  0  0  0
  190.2100  178.3870  143.0850 C   0  0  0  0  0  3  0  0  0  0  0  0
  186.6830  177.4460  144.1610 C   0  0  1  0  0  3  0  0  0  0  0  0
  188.8220  177.8670  145.4390 C   0  0  0  0  0  3  0  0  0  0  0  0
  184.7460  179.0170  140.7730 C   0  0  1  0  0  3  0  0  0  0  0  0
  186.7700  178.2220  141.7460 C   0  0  0  0  0  0  0  0  0  0  0  0
  184.0790  178.8680  142.0120 C   0  0  0  0  0  3  0  0  0  0  0  0
  188.1220  177.8950  144.2300 C   0  0  0  0  0  0  0  0  0  0  0  0
  184.4770  178.3180  144.4440 N   0  0  0  0  0  0  0  0  0  0  0  0
  188.1690  178.2010  141.7900 O   0  0  0  0  0  0  0  0  0  0  0  0
  184.7900  178.2840  143.0620 C   0  0  0  0  0  0  0  0  0  0  0  0
  185.7010  178.0300  145.2000 C   0  0  0  0  0  2  0  0  0  0  0  0
  190.8580  178.3730  144.3230 C   0  0  0  0  0  0  0  0  0  0  0  0
  182.6400  179.3470  139.4560 N   0  0  0  0  0  2  0  0  0  0  0  0
  184.6710  180.2540  138.7510 O   0  0  0  0  0  0  0  0  0  0  0  0
  184.0420  179.5780  139.6120 C   0  0  0  0  0  0  0  0  0  0  0  0
  180.3760  179.8350  138.5150 C   0  0  1  0  0  3  0  0  0  0  0  0
  181.1930  181.1080  138.6710 C   0  0  0  0  0  2  0  0  0  0  0  0
  181.8990  179.8270  138.2970 C   0  0  1  0  0  3  0  0  0  0  0  0
  180.0150  180.1750  140.9750 C   0  0  0  0  0  1  0  0  0  0  0  0
  179.9750  179.2880  139.8170 N   0  0  0  0  0  0  0  0  0  0  0  0
  179.8300  177.8710  140.0170 C   0  0  0  0  0  0  0  0  0  0  0  0
  179.3890  177.3240  141.3340 C   0  0  0  0  0  1  0  0  0  0  0  0
  180.0720  177.0660  139.0790 O   0  0  0  0  0  0  0  0  0  0  0  0
  3  7  2  0  0  0  0
  3 13  1  0  0  0  0
  5 11  1  1  0  0  0
  5 16  1  0  0  0  0
  5  8  1  0  0  0  0
  6 10  1  0  0  0  0
  6 11  2  0  0  0  0
  7 18  1  0  0  0  0
  8 13  1  0  0  0  0
  8 17  1  1  0  0  0
  9  2  1  0  0  0  0
 10 21  1  1  0  0  0
 10 12  1  0  0  0  0
 11 15  1  0  0  0  0
 12 16  2  0  0  0  0
 13  9  2  0  0  0  0
 14  4  1  0  0  0  0
 14 17  1  0  0  0  0
 15  3  1  0  0  0  0
 16 14  1  0  0  0  0
 18  1  1  0  0  0  0
 18  2  2  0  0  0  0
 19 21  1  0  0  0  0
 20 21  2  0  0  0  0
 22 23  1  0  0  0  0
 22 26  1  1  0  0  0
 24 22  1  0  0  0  0
 24 23  1  0  0  0  0
 24 19  1  1  0  0  0
 26 27  1  0  0  0  0
 26 25  1  0  0  0  0
 27 28  1  0  0  0  0
 29 27  2  0  0  0  0
M  END
>  <MODEL>
8

>  <REMARK>
 VINA RESULT:      -8.0      3.988      4.949
  Name = 
  3 active torsions:
  status: ('A' for Active; 'I' for Inactive)
    1  A    between atoms: N_2  and  C_25
    2  A    between atoms: N_6  and  C_11
    3  A    between atoms: C_14  and  C_18
                            x       y       z     vdW  Elec       q    Type
                         _______ _______ _______ _____ _____    ______ ____

>  <TORSDO>
F 3

$$$$
=
 OpenBabel11042411003D

 29 33  0  0  1  0  0  0  0  0999 V2000
  191.2130  173.8830  135.4980 N   0  0  0  0  0  1  0  0  0  0  0  0
  189.4840  175.5140  135.8900 N   0  0  0  0  0  0  0  0  0  0  0  0
  190.5920  176.1980  138.3320 C   0  0  0  0  0  0  0  0  0  0  0  0
  185.8290  178.6730  140.8170 C   0  0  0  0  0  1  0  0  0  0  0  0
  189.3280  178.0000  140.0400 C   0  0  2  0  0  3  0  0  0  0  0  0
  190.6580  177.2430  141.8420 N   0  0  0  0  0  0  0  0  0  0  0  0
  191.1920  175.2200  137.5390 C   0  0  0  0  0  3  0  0  0  0  0  0
  188.8650  178.0240  138.6360 C   0  0  1  0  0  3  0  0  0  0  0  0
  188.8840  176.4820  136.6340 C   0  0  0  0  0  3  0  0  0  0  0  0
  189.7640  177.7740  142.7380 C   0  0  1  0  0  3  0  0  0  0  0  0
  190.4230  177.2920  140.5000 C   0  0  0  0  0  0  0  0  0  0  0  0
  188.5340  178.3000  142.2750 C   0  0  0  0  0  3  0  0  0  0  0  0
  189.4080  176.8360  137.8800 C   0  0  0  0  0  0  0  0  0  0  0  0
  187.1350  178.5710  140.1900 N   0  0  0  0  0  0  0  0  0  0  0  0
  191.1460  176.5120  139.5900 O   0  0  0  0  0  0  0  0  0  0  0  0
  188.3530  178.3940  140.8930 C   0  0  0  0  0  0  0  0  0  0  0  0
  187.3330  178.1230  138.8070 C   0  0  0  0  0  2  0  0  0  0  0  0
  190.6140  174.8850  136.3120 C   0  0  0  0  0  0  0  0  0  0  0  0
  189.0190  178.0370  145.1170 N   0  0  0  0  0  2  0  0  0  0  0  0
  191.1780  177.3290  144.5880 O   0  0  0  0  0  0  0  0  0  0  0  0
  190.0420  177.6930  144.1790 C   0  0  0  0  0  0  0  0  0  0  0  0
  187.9620  177.8640  147.3750 C   0  0  1  0  0  3  0  0  0  0  0  0
  188.8730  176.6780  147.1020 C   0  0  0  0  0  2  0  0  0  0  0  0
  189.2520  178.0330  146.5540 C   0  0  1  0  0  3  0  0  0  0  0  0
  186.7260  176.8880  145.4220 C   0  0  0  0  0  1  0  0  0  0  0  0
  186.7510  177.8160  146.5460 N   0  0  0  0  0  0  0  0  0  0  0  0
  185.7420  178.8380  146.6420 C   0  0  0  0  0  0  0  0  0  0  0  0
  184.4980  178.7660  145.8210 C   0  0  0  0  0  1  0  0  0  0  0  0
  185.8930  179.8120  147.4250 O   0  0  0  0  0  0  0  0  0  0  0  0
  1 18  1  0  0  0  0
  2 18  2  0  0  0  0
  2  9  1  0  0  0  0
  3 15  1  0  0  0  0
  5 11  1  1  0  0  0
  5 16  1  0  0  0  0
  6 10  1  0  0  0  0
  7  3  2  0  0  0  0
  8 17  1  1  0  0  0
  8  5  1  0  0  0  0
  9 13  2  0  0  0  0
 10 21  1  1  0  0  0
 11  6  2  0  0  0  0
 12 10  1  0  0  0  0
 13  3  1  0  0  0  0
 13  8  1  0  0  0  0
 14  4  1  0  0  0  0
 14 16  1  0  0  0  0
 15 11  1  0  0  0  0
 16 12  2  0  0  0  0
 17 14  1  0  0  0  0
 18  7  1  0  0  0  0
 21 20  2  0  0  0  0
 21 19  1  0  0  0  0
 22 26  1  6  0  0  0
 23 22  1  0  0  0  0
 24 19  1  6  0  0  0
 24 23  1  0  0  0  0
 24 22  1  0  0  0  0
 25 26  1  0  0  0  0
 26 27  1  0  0  0  0
 27 29  2  0  0  0  0
 28 27  1  0  0  0  0
M  END
>  <MODEL>
9

>  <REMARK>
 VINA RESULT:      -7.8      2.555      8.041
  Name = 
  3 active torsions:
  status: ('A' for Active; 'I' for Inactive)
    1  A    between atoms: N_2  and  C_25
    2  A    between atoms: N_6  and  C_11
    3  A    between atoms: C_14  and  C_18
                            x       y       z     vdW  Elec       q    Type
                         _______ _______ _______ _____ _____    ______ ____

>  <TORSDO>
F 3

$$$$
