=
 OpenBabel11032420453D

 47 51  0  0  1  0  0  0  0  0999 V2000
  187.4980  178.0700  138.0200 C   0  0  0  0  0  0  0  0  0  0  0  0
  186.4780  178.6210  138.7340 N   0  0  0  0  0  0  0  0  0  0  0  0
  185.2030  178.1510  138.6430 C   0  0  0  0  0  0  0  0  0  0  0  0
  184.9150  177.0770  137.7980 C   0  0  0  0  0  3  0  0  0  0  0  0
  187.2460  176.9940  137.1660 C   0  0  0  0  0  3  0  0  0  0  0  0
  185.9430  176.4900  137.0570 C   0  0  0  0  0  0  0  0  0  0  0  0
  182.7940  177.9710  139.2970 C   0  0  1  0  0  3  0  0  0  0  0  0
  184.3130  178.3970  144.3950 C   0  0  0  0  0  1  0  0  0  0  0  0
  184.1020  178.7950  139.4270 C   0  0  1  0  0  3  0  0  0  0  0  0
  182.3090  179.4980  143.5750 N   0  0  0  0  0  2  0  0  0  0  0  0
  182.2610  178.6020  141.5840 C   0  0  0  0  0  0  0  0  0  0  0  0
  183.7130  179.2380  143.2890 C   0  0  2  0  0  3  0  0  0  0  0  0
  184.5260  178.9970  140.8740 C   0  0  0  0  0  0  0  0  0  0  0  0
  185.5620  179.5900  141.1300 O   0  0  0  0  0  0  0  0  0  0  0  0
  181.5220  179.1510  142.4780 N   0  0  0  0  0  0  0  0  0  0  0  0
  183.6790  178.4370  141.9860 C   0  0  2  0  0  3  0  0  0  0  0  0
  181.8320  178.3430  140.2860 O   0  0  0  0  0  0  0  0  0  0  0  0
  181.4400  176.9840  137.6060 F   0  0  0  0  0  0  0  0  0  0  0  0
  182.1910  178.1060  137.9040 C   0  0  0  0  0  3  0  0  0  0  0  0
  181.3920  179.2340  137.8300 F   0  0  0  0  0  0  0  0  0  0  0  0
  188.8860  178.6140  138.1320 C   0  0  2  0  0  3  0  0  0  0  0  0
  189.6680  178.3790  136.8470 C   0  0  0  0  0  1  0  0  0  0  0  0
  189.5970  178.0870  139.3870 C   0  0  2  0  0  3  0  0  0  0  0  0
  190.3560  175.8220  139.0430 O   0  0  0  0  0  1  0  0  0  0  0  0
  190.7590  177.1590  139.0340 C   0  0  0  0  0  2  0  0  0  0  0  0
  188.6460  177.4600  140.4060 C   0  0  0  0  0  2  0  0  0  0  0  0
  188.7030  178.2190  141.7190 C   0  0  0  0  0  2  0  0  0  0  0  0
  187.7510  177.7040  142.5970 O   0  0  0  0  0  0  0  0  0  0  0  0
  188.3960  176.6360  143.2250 C   0  0  0  0  0  2  0  0  0  0  0  0
  189.4730  177.8040  148.0760 C   0  0  0  0  0  2  0  0  0  0  0  0
  189.8830  177.0280  146.8160 C   0  0  1  0  0  3  0  0  0  0  0  0
  188.7760  176.9190  145.7190 C   0  0  1  0  0  3  0  0  0  0  0  0
  191.5770  176.5910  145.4150 C   0  0  0  0  0  2  0  0  0  0  0  0
  187.9880  177.6250  148.3730 C   0  0  0  0  0  2  0  0  0  0  0  0
  187.2020  178.1310  147.2030 C   0  0  0  0  0  3  0  0  0  0  0  0
  190.7410  176.5230  144.1280 C   0  0  0  0  0  2  0  0  0  0  0  0
  187.5820  177.8110  145.9610 C   0  0  0  0  0  3  0  0  0  0  0  0
  191.0740  177.5620  146.2950 O   0  0  0  0  0  0  0  0  0  0  0  0
  189.3450  177.1350  144.3080 C   0  0  1  0  0  3  0  0  0  0  0  0
  185.6400  175.3960  136.1880 N   0  0  0  0  0  2  0  0  0  0  0  0
  186.1380  174.0410  136.3950 C   0  0  2  0  0  3  0  0  0  0  0  0
  186.7900  173.6010  135.2400 O   0  0  0  0  0  1  0  0  0  0  0  0
  185.0100  173.0710  136.7810 C   0  0  2  0  0  0  0  0  0  0  0  0
  184.9470  172.9440  138.1580 F   0  0  0  0  0  0  0  0  0  0  0  0
  185.2930  171.8180  136.2370 O   0  0  0  0  0  1  0  0  0  0  0  0
  182.6910  173.5330  137.2630 O   0  0  0  0  0  1  0  0  0  0  0  0
  183.6520  173.5320  136.2500 C   0  0  0  0  0  2  0  0  0  0  0  0
  1 21  1  0  0  0  0
  1  2  1  0  0  0  0
  3  2  2  0  0  0  0
  4  3  1  0  0  0  0
  5  1  2  0  0  0  0
  6  5  1  0  0  0  0
  6  4  2  0  0  0  0
  7 19  1  6  0  0  0
  7  9  1  0  0  0  0
  7 17  1  0  0  0  0
  9  3  1  6  0  0  0
  9 13  1  0  0  0  0
 11 16  1  0  0  0  0
 11 15  2  0  0  0  0
 12 10  1  0  0  0  0
 12  8  1  1  0  0  0
 13 14  2  0  0  0  0
 15 10  1  0  0  0  0
 16 13  1  6  0  0  0
 16 12  1  0  0  0  0
 17 11  1  0  0  0  0
 18 19  1  0  0  0  0
 20 19  1  0  0  0  0
 21 22  1  6  0  0  0
 21 23  1  0  0  0  0
 23 25  1  6  0  0  0
 23 26  1  0  0  0  0
 25 24  1  0  0  0  0
 26 27  1  0  0  0  0
 27 28  1  0  0  0  0
 28 29  1  0  0  0  0
 30 34  1  0  0  0  0
 31 30  1  1  0  0  0
 32 37  1  1  0  0  0
 32 31  1  0  0  0  0
 33 38  1  0  0  0  0
 35 34  1  0  0  0  0
 36 39  1  0  0  0  0
 36 33  1  0  0  0  0
 37 35  2  0  0  0  0
 38 31  1  0  0  0  0
 39 29  1  6  0  0  0
 39 32  1  0  0  0  0
 40 41  1  0  0  0  0
 40  6  1  0  0  0  0
 41 42  1  6  0  0  0
 41 43  1  0  0  0  0
 43 45  1  6  0  0  0
 43 44  1  0  0  0  0
 47 43  1  0  0  0  0
 47 46  1  0  0  0  0
M  END
>  <MODEL>
1

>  <REMARK>
 VINA RESULT:      -8.7      0.000      0.000
  Name = 
  14 active torsions:
  status: ('A' for Active; 'I' for Inactive)
    1  A    between atoms: C_1  and  C_32
    2  A    between atoms: C_1  and  C_39
    3  A    between atoms: C_2  and  C_28
    4  A    between atoms: C_4  and  C_18
    5  A    between atoms: C_6  and  C_33
    6  A    between atoms: C_6  and  C_44
    7  A    between atoms: C_7  and  C_16
    8  A    between atoms: O_8  and  C_10
    9  A    between atoms: O_8  and  C_39
   10  A    between atoms: C_10  and  C_42
   11  A    between atoms: C_18  and  C_32
   12  A    between atoms: C_32  and  C_36
   13  A    between atoms: C_33  and  N_34
   14  A    between atoms: N_34  and  C_38
                            x       y       z     vdW  Elec       q    Type
                         _______ _______ _______ _____ _____    ______ ____

>  <TORSDO>
F 14

$$$$
=
 OpenBabel11032420453D

 47 51  0  0  1  0  0  0  0  0999 V2000
  188.8490  177.8250  139.9250 C   0  0  0  0  0  0  0  0  0  0  0  0
  189.2100  177.2910  141.1250 N   0  0  0  0  0  0  0  0  0  0  0  0
  188.4110  177.3890  142.2230 C   0  0  0  0  0  0  0  0  0  0  0  0
  187.1840  178.0510  142.1360 C   0  0  0  0  0  3  0  0  0  0  0  0
  187.6280  178.4940  139.8030 C   0  0  0  0  0  3  0  0  0  0  0  0
  186.7860  178.6030  140.9160 C   0  0  0  0  0  0  0  0  0  0  0  0
  190.2920  177.2710  143.8700 C   0  0  1  0  0  3  0  0  0  0  0  0
  186.8440  178.7490  147.6670 C   0  0  0  0  0  1  0  0  0  0  0  0
  188.8500  176.8080  143.5320 C   0  0  1  0  0  3  0  0  0  0  0  0
  188.5480  177.0680  148.0880 N   0  0  0  0  0  2  0  0  0  0  0  0
  189.6540  177.2800  146.2170 C   0  0  0  0  0  0  0  0  0  0  0  0
  187.5290  177.5060  147.1430 C   0  0  2  0  0  3  0  0  0  0  0  0
  187.8520  177.1510  144.6280 C   0  0  0  0  0  0  0  0  0  0  0  0
  186.6680  176.8880  144.4810 O   0  0  0  0  0  0  0  0  0  0  0  0
  189.7680  176.8960  147.4360 N   0  0  0  0  0  0  0  0  0  0  0  0
  188.3240  177.8430  145.8790 C   0  0  2  0  0  3  0  0  0  0  0  0
  190.6150  177.0350  145.2420 O   0  0  0  0  0  0  0  0  0  0  0  0
  192.2010  177.5360  142.4750 F   0  0  0  0  0  0  0  0  0  0  0  0
  191.3160  176.5960  142.9670 C   0  0  0  0  0  3  0  0  0  0  0  0
  192.0100  175.6230  143.6650 F   0  0  0  0  0  0  0  0  0  0  0  0
  189.7520  177.7130  138.7390 C   0  0  2  0  0  3  0  0  0  0  0  0
  189.1090  178.3330  137.5050 C   0  0  0  0  0  1  0  0  0  0  0  0
  190.2200  176.2670  138.5240 C   0  0  2  0  0  3  0  0  0  0  0  0
  192.3730  176.9620  139.3650 O   0  0  0  0  0  1  0  0  0  0  0  0
  191.7410  176.1740  138.4010 C   0  0  0  0  0  2  0  0  0  0  0  0
  189.5040  175.5600  137.3730 C   0  0  0  0  0  2  0  0  0  0  0  0
  190.0390  174.1510  137.2010 C   0  0  0  0  0  2  0  0  0  0  0  0
  188.9760  173.2550  137.1090 O   0  0  0  0  0  0  0  0  0  0  0  0
  188.0750  173.8700  136.2350 C   0  0  0  0  0  2  0  0  0  0  0  0
  183.2000  175.3150  136.6770 C   0  0  0  0  0  2  0  0  0  0  0  0
  184.1860  174.2330  136.2140 C   0  0  1  0  0  3  0  0  0  0  0  0
  185.6770  174.6930  136.1260 C   0  0  1  0  0  3  0  0  0  0  0  0
  184.6720  172.0470  136.3110 C   0  0  0  0  0  2  0  0  0  0  0  0
  183.6430  176.6980  136.2110 C   0  0  0  0  0  2  0  0  0  0  0  0
  184.9970  176.9840  136.7850 C   0  0  0  0  0  3  0  0  0  0  0  0
  186.1990  172.1970  136.3410 C   0  0  0  0  0  2  0  0  0  0  0  0
  185.9420  176.0390  136.7570 C   0  0  0  0  0  3  0  0  0  0  0  0
  184.0460  173.0880  137.0160 O   0  0  0  0  0  0  0  0  0  0  0  0
  186.6370  173.6290  136.6790 C   0  0  1  0  0  3  0  0  0  0  0  0
  185.5330  179.2870  140.8360 N   0  0  0  0  0  2  0  0  0  0  0  0
  184.5730  179.0850  139.7570 C   0  0  2  0  0  3  0  0  0  0  0  0
  184.5050  180.2380  138.9700 O   0  0  0  0  0  1  0  0  0  0  0  0
  183.1820  178.7140  140.2940 C   0  0  2  0  0  0  0  0  0  0  0  0
  182.2630  179.6850  139.9360 F   0  0  0  0  0  0  0  0  0  0  0  0
  183.2410  178.6590  141.6870 O   0  0  0  0  0  1  0  0  0  0  0  0
  181.4830  177.0010  140.3370 O   0  0  0  0  0  1  0  0  0  0  0  0
  182.7130  177.3540  139.7770 C   0  0  0  0  0  2  0  0  0  0  0  0
  1  2  1  0  0  0  0
  2  3  2  0  0  0  0
  4  3  1  0  0  0  0
  5  1  2  0  0  0  0
  5  6  1  0  0  0  0
  6  4  2  0  0  0  0
  7 19  1  6  0  0  0
  7 17  1  0  0  0  0
  9  3  1  6  0  0  0
  9  7  1  0  0  0  0
  9 13  1  0  0  0  0
 11 15  2  0  0  0  0
 12  8  1  1  0  0  0
 12 10  1  0  0  0  0
 14 13  2  0  0  0  0
 15 10  1  0  0  0  0
 16 13  1  6  0  0  0
 16 11  1  0  0  0  0
 16 12  1  0  0  0  0
 17 11  1  0  0  0  0
 18 19  1  0  0  0  0
 19 20  1  0  0  0  0
 21 22  1  6  0  0  0
 21  1  1  0  0  0  0
 23 26  1  6  0  0  0
 23 21  1  0  0  0  0
 25 23  1  0  0  0  0
 25 24  1  0  0  0  0
 27 26  1  0  0  0  0
 28 27  1  0  0  0  0
 29 28  1  0  0  0  0
 31 30  1  1  0  0  0
 31 38  1  0  0  0  0
 32 31  1  0  0  0  0
 32 39  1  0  0  0  0
 32 37  1  1  0  0  0
 33 36  1  0  0  0  0
 33 38  1  0  0  0  0
 34 30  1  0  0  0  0
 34 35  1  0  0  0  0
 36 39  1  0  0  0  0
 37 35  2  0  0  0  0
 39 29  1  6  0  0  0
 40  6  1  0  0  0  0
 41 42  1  1  0  0  0
 41 43  1  0  0  0  0
 41 40  1  0  0  0  0
 43 44  1  6  0  0  0
 43 45  1  0  0  0  0
 47 43  1  0  0  0  0
 47 46  1  0  0  0  0
M  END
>  <MODEL>
2

>  <REMARK>
 VINA RESULT:      -8.7      3.086      7.924
  Name = 
  14 active torsions:
  status: ('A' for Active; 'I' for Inactive)
    1  A    between atoms: C_1  and  C_32
    2  A    between atoms: C_1  and  C_39
    3  A    between atoms: C_2  and  C_28
    4  A    between atoms: C_4  and  C_18
    5  A    between atoms: C_6  and  C_33
    6  A    between atoms: C_6  and  C_44
    7  A    between atoms: C_7  and  C_16
    8  A    between atoms: O_8  and  C_10
    9  A    between atoms: O_8  and  C_39
   10  A    between atoms: C_10  and  C_42
   11  A    between atoms: C_18  and  C_32
   12  A    between atoms: C_32  and  C_36
   13  A    between atoms: C_33  and  N_34
   14  A    between atoms: N_34  and  C_38
                            x       y       z     vdW  Elec       q    Type
                         _______ _______ _______ _____ _____    ______ ____

>  <TORSDO>
F 14

$$$$
=
 OpenBabel11032420453D

 47 51  0  0  1  0  0  0  0  0999 V2000
  185.2820  178.8940  140.3640 C   0  0  0  0  0  0  0  0  0  0  0  0
  186.0770  178.3290  139.4140 N   0  0  0  0  0  0  0  0  0  0  0  0
  185.6140  178.0490  138.1650 C   0  0  0  0  0  0  0  0  0  0  0  0
  184.2900  178.3420  137.8300 C   0  0  0  0  0  3  0  0  0  0  0  0
  183.9530  179.2010  140.0630 C   0  0  0  0  0  3  0  0  0  0  0  0
  183.4540  178.9270  138.7830 C   0  0  0  0  0  0  0  0  0  0  0  0
  187.9840  177.4390  137.6380 C   0  0  1  0  0  3  0  0  0  0  0  0
  186.3380  172.4330  136.7920 C   0  0  0  0  0  1  0  0  0  0  0  0
  186.5110  177.4060  137.1520 C   0  0  1  0  0  3  0  0  0  0  0  0
  188.0180  173.4700  135.3750 N   0  0  0  0  0  2  0  0  0  0  0  0
  188.3130  175.2950  136.5380 C   0  0  0  0  0  0  0  0  0  0  0  0
  186.7250  173.6740  136.0160 C   0  0  2  0  0  3  0  0  0  0  0  0
  186.0310  175.9980  136.8330 C   0  0  0  0  0  0  0  0  0  0  0  0
  184.8760  175.8110  136.4810 O   0  0  0  0  0  0  0  0  0  0  0  0
  188.8810  174.5190  135.6880 N   0  0  0  0  0  0  0  0  0  0  0  0
  186.9750  174.8350  136.9810 C   0  0  2  0  0  3  0  0  0  0  0  0
  188.8100  176.5470  136.8860 O   0  0  0  0  0  0  0  0  0  0  0  0
  189.3970  179.0610  138.6560 F   0  0  0  0  0  0  0  0  0  0  0  0
  188.5530  178.8510  137.5820 C   0  0  0  0  0  3  0  0  0  0  0  0
  189.2470  179.0470  136.4000 F   0  0  0  0  0  0  0  0  0  0  0  0
  185.8150  179.1800  141.7310 C   0  0  2  0  0  3  0  0  0  0  0  0
  187.2990  178.8490  141.8160 C   0  0  0  0  0  1  0  0  0  0  0  0
  184.9720  178.4970  142.8170 C   0  0  2  0  0  3  0  0  0  0  0  0
  182.7750  179.1400  143.5830 O   0  0  0  0  0  1  0  0  0  0  0  0
  184.1240  179.5030  143.5960 C   0  0  0  0  0  2  0  0  0  0  0  0
  185.7880  177.5930  143.7410 C   0  0  0  0  0  2  0  0  0  0  0  0
  185.8020  178.1500  145.1510 C   0  0  0  0  0  2  0  0  0  0  0  0
  186.5360  177.3040  145.9810 O   0  0  0  0  0  0  0  0  0  0  0  0
  187.6400  178.0670  146.3700 C   0  0  0  0  0  2  0  0  0  0  0  0
  191.8140  175.9260  144.3570 C   0  0  0  0  0  2  0  0  0  0  0  0
  191.2210  176.7820  145.4860 C   0  0  1  0  0  3  0  0  0  0  0  0
  189.7750  177.3110  145.2240 C   0  0  1  0  0  3  0  0  0  0  0  0
  191.1140  177.0450  147.7090 C   0  0  0  0  0  2  0  0  0  0  0  0
  191.3040  176.3850  142.9950 C   0  0  0  0  0  2  0  0  0  0  0  0
  189.8110  176.2630  142.9770 C   0  0  0  0  0  3  0  0  0  0  0  0
  189.6500  177.5040  147.7730 C   0  0  0  0  0  2  0  0  0  0  0  0
  189.0990  176.6830  144.0280 C   0  0  0  0  0  3  0  0  0  0  0  0
  191.3020  176.0840  146.7030 O   0  0  0  0  0  0  0  0  0  0  0  0
  188.8890  177.2010  146.4750 C   0  0  1  0  0  3  0  0  0  0  0  0
  182.0970  179.2180  138.4370 N   0  0  0  0  0  2  0  0  0  0  0  0
  181.2670  180.1720  139.1630 C   0  0  2  0  0  3  0  0  0  0  0  0
  180.0240  179.5950  139.4360 O   0  0  0  0  0  1  0  0  0  0  0  0
  181.0950  181.4860  138.3850 C   0  0  2  0  0  0  0  0  0  0  0  0
  182.2030  182.2940  138.5720 F   0  0  0  0  0  0  0  0  0  0  0  0
  179.9760  182.1550  138.8820 O   0  0  0  0  0  1  0  0  0  0  0  0
  180.5060  182.4190  136.2400 O   0  0  0  0  0  1  0  0  0  0  0  0
  180.8880  181.2440  136.8900 C   0  0  0  0  0  2  0  0  0  0  0  0
  1 21  1  0  0  0  0
  2  1  2  0  0  0  0
  3  2  1  0  0  0  0
  4  3  2  0  0  0  0
  4  6  1  0  0  0  0
  5  1  1  0  0  0  0
  6  5  2  0  0  0  0
  7 19  1  6  0  0  0
  9  7  1  0  0  0  0
  9  3  1  1  0  0  0
 10 15  1  0  0  0  0
 10 12  1  0  0  0  0
 11 17  1  0  0  0  0
 12  8  1  1  0  0  0
 12 16  1  0  0  0  0
 13 16  1  0  0  0  0
 13  9  1  0  0  0  0
 14 13  2  0  0  0  0
 15 11  2  0  0  0  0
 16 11  1  6  0  0  0
 17  7  1  0  0  0  0
 19 18  1  0  0  0  0
 20 19  1  0  0  0  0
 21 22  1  6  0  0  0
 21 23  1  0  0  0  0
 23 25  1  1  0  0  0
 23 26  1  0  0  0  0
 24 25  1  0  0  0  0
 26 27  1  0  0  0  0
 27 28  1  0  0  0  0
 28 29  1  0  0  0  0
 31 30  1  6  0  0  0
 31 38  1  0  0  0  0
 32 37  1  6  0  0  0
 32 31  1  0  0  0  0
 32 39  1  0  0  0  0
 33 36  1  0  0  0  0
 34 30  1  0  0  0  0
 35 34  1  0  0  0  0
 35 37  2  0  0  0  0
 38 33  1  0  0  0  0
 39 29  1  6  0  0  0
 39 36  1  0  0  0  0
 40  6  1  0  0  0  0
 40 41  1  0  0  0  0
 41 42  1  6  0  0  0
 43 44  1  1  0  0  0
 43 45  1  0  0  0  0
 43 41  1  0  0  0  0
 46 47  1  0  0  0  0
 47 43  1  0  0  0  0
M  END
>  <MODEL>
3

>  <REMARK>
 VINA RESULT:      -8.4      2.702      6.669
  Name = 
  14 active torsions:
  status: ('A' for Active; 'I' for Inactive)
    1  A    between atoms: C_1  and  C_32
    2  A    between atoms: C_1  and  C_39
    3  A    between atoms: C_2  and  C_28
    4  A    between atoms: C_4  and  C_18
    5  A    between atoms: C_6  and  C_33
    6  A    between atoms: C_6  and  C_44
    7  A    between atoms: C_7  and  C_16
    8  A    between atoms: O_8  and  C_10
    9  A    between atoms: O_8  and  C_39
   10  A    between atoms: C_10  and  C_42
   11  A    between atoms: C_18  and  C_32
   12  A    between atoms: C_32  and  C_36
   13  A    between atoms: C_33  and  N_34
   14  A    between atoms: N_34  and  C_38
                            x       y       z     vdW  Elec       q    Type
                         _______ _______ _______ _____ _____    ______ ____

>  <TORSDO>
F 14

$$$$
=
 OpenBabel11032420453D

 47 51  0  0  1  0  0  0  0  0999 V2000
  185.1900  177.1330  137.4560 C   0  0  0  0  0  0  0  0  0  0  0  0
  184.5350  178.1530  138.0770 N   0  0  0  0  0  0  0  0  0  0  0  0
  183.3000  177.9830  138.6240 C   0  0  0  0  0  0  0  0  0  0  0  0
  182.6720  176.7380  138.5560 C   0  0  0  0  0  3  0  0  0  0  0  0
  184.5920  175.8740  137.3700 C   0  0  0  0  0  3  0  0  0  0  0  0
  183.3240  175.6730  137.9290 C   0  0  0  0  0  0  0  0  0  0  0  0
  181.2210  179.3770  138.6110 C   0  0  1  0  0  3  0  0  0  0  0  0
  180.6860  178.3380  143.8190 C   0  0  0  0  0  1  0  0  0  0  0  0
  182.5990  179.1320  139.2800 C   0  0  1  0  0  3  0  0  0  0  0  0
  180.1970  180.5380  142.9100 N   0  0  0  0  0  2  0  0  0  0  0  0
  180.3680  180.0370  140.7910 C   0  0  0  0  0  0  0  0  0  0  0  0
  181.1590  179.4430  142.8990 C   0  0  2  0  0  3  0  0  0  0  0  0
  182.4900  178.9030  140.7810 C   0  0  0  0  0  0  0  0  0  0  0  0
  183.4900  178.6530  141.4350 O   0  0  0  0  0  0  0  0  0  0  0  0
  179.8310  180.8700  141.6070 N   0  0  0  0  0  0  0  0  0  0  0  0
  181.1420  178.9560  141.4480 C   0  0  2  0  0  3  0  0  0  0  0  0
  180.3850  180.2160  139.4120 O   0  0  0  0  0  0  0  0  0  0  0  0
  180.4450  179.4240  136.3620 F   0  0  0  0  0  0  0  0  0  0  0  0
  181.3800  179.9740  137.2190 C   0  0  0  0  0  3  0  0  0  0  0  0
  181.2240  181.3480  137.2600 F   0  0  0  0  0  0  0  0  0  0  0  0
  186.5420  177.3520  136.8540 C   0  0  2  0  0  3  0  0  0  0  0  0
  187.1410  176.0370  136.3720 C   0  0  0  0  0  1  0  0  0  0  0  0
  187.4610  178.1330  137.8030 C   0  0  2  0  0  3  0  0  0  0  0  0
  188.9510  180.0200  137.6040 O   0  0  0  0  0  1  0  0  0  0  0  0
  188.6330  178.7740  137.0610 C   0  0  0  0  0  2  0  0  0  0  0  0
  187.9190  177.3180  139.0130 C   0  0  0  0  0  2  0  0  0  0  0  0
  188.2200  178.2330  140.1840 C   0  0  0  0  0  2  0  0  0  0  0  0
  188.5140  177.4670  141.3120 O   0  0  0  0  0  0  0  0  0  0  0  0
  187.3800  177.5830  142.1180 C   0  0  0  0  0  2  0  0  0  0  0  0
  186.2160  178.3530  147.0290 C   0  0  0  0  0  2  0  0  0  0  0  0
  187.0980  177.6100  146.0150 C   0  0  1  0  0  3  0  0  0  0  0  0
  186.6050  177.6820  144.5340 C   0  0  1  0  0  3  0  0  0  0  0  0
  189.2080  177.0750  145.4820 C   0  0  0  0  0  2  0  0  0  0  0  0
  184.7490  178.3160  146.6120 C   0  0  0  0  0  2  0  0  0  0  0  0
  184.6180  178.9690  145.2700 C   0  0  0  0  0  3  0  0  0  0  0  0
  189.0450  177.1700  143.9580 C   0  0  0  0  0  2  0  0  0  0  0  0
  185.4970  178.6820  144.3040 C   0  0  0  0  0  3  0  0  0  0  0  0
  188.4290  178.0430  146.1360 O   0  0  0  0  0  0  0  0  0  0  0  0
  187.7660  177.9160  143.5550 C   0  0  1  0  0  3  0  0  0  0  0  0
  182.6720  174.4020  137.8550 N   0  0  0  0  0  2  0  0  0  0  0  0
  181.5940  174.1030  136.9200 C   0  0  2  0  0  3  0  0  0  0  0  0
  180.5800  173.4070  137.5830 O   0  0  0  0  0  1  0  0  0  0  0  0
  182.0960  173.3030  135.7070 C   0  0  2  0  0  0  0  0  0  0  0  0
  182.6050  174.1650  134.7510 F   0  0  0  0  0  0  0  0  0  0  0  0
  181.0170  172.6160  135.1490 O   0  0  0  0  0  1  0  0  0  0  0  0
  182.5990  171.0390  136.3730 O   0  0  0  0  0  1  0  0  0  0  0  0
  183.1670  172.2850  136.0970 C   0  0  0  0  0  2  0  0  0  0  0  0
  1  2  1  0  0  0  0
  2  3  2  0  0  0  0
  4  3  1  0  0  0  0
  5  1  2  0  0  0  0
  5  6  1  0  0  0  0
  6  4  2  0  0  0  0
  7 19  1  6  0  0  0
  7  9  1  0  0  0  0
  7 17  1  0  0  0  0
  9  3  1  6  0  0  0
  9 13  1  0  0  0  0
 11 16  1  0  0  0  0
 11 15  2  0  0  0  0
 12 10  1  0  0  0  0
 12  8  1  1  0  0  0
 13 14  2  0  0  0  0
 15 10  1  0  0  0  0
 16 13  1  6  0  0  0
 16 12  1  0  0  0  0
 17 11  1  0  0  0  0
 18 19  1  0  0  0  0
 19 20  1  0  0  0  0
 21 22  1  1  0  0  0
 21  1  1  0  0  0  0
 21 23  1  0  0  0  0
 23 25  1  6  0  0  0
 23 26  1  0  0  0  0
 25 24  1  0  0  0  0
 26 27  1  0  0  0  0
 27 28  1  0  0  0  0
 28 29  1  0  0  0  0
 31 38  1  0  0  0  0
 31 30  1  1  0  0  0
 32 37  1  1  0  0  0
 32 31  1  0  0  0  0
 33 38  1  0  0  0  0
 34 30  1  0  0  0  0
 35 34  1  0  0  0  0
 36 33  1  0  0  0  0
 37 35  2  0  0  0  0
 39 29  1  6  0  0  0
 39 36  1  0  0  0  0
 39 32  1  0  0  0  0
 40  6  1  0  0  0  0
 41 42  1  1  0  0  0
 41 40  1  0  0  0  0
 43 44  1  6  0  0  0
 43 47  1  0  0  0  0
 43 41  1  0  0  0  0
 45 43  1  0  0  0  0
 47 46  1  0  0  0  0
M  END
>  <MODEL>
4

>  <REMARK>
 VINA RESULT:      -8.3      2.076      2.955
  Name = 
  14 active torsions:
  status: ('A' for Active; 'I' for Inactive)
    1  A    between atoms: C_1  and  C_32
    2  A    between atoms: C_1  and  C_39
    3  A    between atoms: C_2  and  C_28
    4  A    between atoms: C_4  and  C_18
    5  A    between atoms: C_6  and  C_33
    6  A    between atoms: C_6  and  C_44
    7  A    between atoms: C_7  and  C_16
    8  A    between atoms: O_8  and  C_10
    9  A    between atoms: O_8  and  C_39
   10  A    between atoms: C_10  and  C_42
   11  A    between atoms: C_18  and  C_32
   12  A    between atoms: C_32  and  C_36
   13  A    between atoms: C_33  and  N_34
   14  A    between atoms: N_34  and  C_38
                            x       y       z     vdW  Elec       q    Type
                         _______ _______ _______ _____ _____    ______ ____

>  <TORSDO>
F 14

$$$$
=
 OpenBabel11032420453D

 47 51  0  0  1  0  0  0  0  0999 V2000
  187.7020  177.7940  138.8240 C   0  0  0  0  0  0  0  0  0  0  0  0
  187.5530  178.1690  140.1240 N   0  0  0  0  0  0  0  0  0  0  0  0
  188.4770  177.8530  141.0720 C   0  0  0  0  0  0  0  0  0  0  0  0
  189.6150  177.1230  140.7210 C   0  0  0  0  0  3  0  0  0  0  0  0
  188.8290  177.0630  138.4370 C   0  0  0  0  0  3  0  0  0  0  0  0
  189.7960  176.7290  139.3930 C   0  0  0  0  0  0  0  0  0  0  0  0
  187.0250  177.5520  143.0890 C   0  0  1  0  0  3  0  0  0  0  0  0
  191.4230  176.4010  145.8840 C   0  0  0  0  0  1  0  0  0  0  0  0
  188.2690  178.2640  142.4970 C   0  0  1  0  0  3  0  0  0  0  0  0
  189.6380  177.7500  146.8310 N   0  0  0  0  0  2  0  0  0  0  0  0
  188.1760  177.4870  145.2300 C   0  0  0  0  0  0  0  0  0  0  0  0
  190.4650  177.5490  145.6490 C   0  0  2  0  0  3  0  0  0  0  0  0
  189.5300  178.0150  143.3130 C   0  0  0  0  0  0  0  0  0  0  0  0
  190.5990  178.4770  142.9430 O   0  0  0  0  0  0  0  0  0  0  0  0
  188.2890  177.7650  146.4780 N   0  0  0  0  0  0  0  0  0  0  0  0
  189.4600  177.1730  144.5580 C   0  0  2  0  0  3  0  0  0  0  0  0
  186.9920  177.6380  144.5150 O   0  0  0  0  0  0  0  0  0  0  0  0
  184.6760  177.8370  143.3450 F   0  0  0  0  0  0  0  0  0  0  0  0
  185.7360  178.1110  142.5010 C   0  0  0  0  0  3  0  0  0  0  0  0
  185.8420  179.4780  142.3140 F   0  0  0  0  0  0  0  0  0  0  0  0
  186.6650  178.1460  137.8060 C   0  0  2  0  0  3  0  0  0  0  0  0
  185.4310  178.7420  138.4700 C   0  0  0  0  0  1  0  0  0  0  0  0
  186.3520  176.9570  136.8870 C   0  0  2  0  0  3  0  0  0  0  0  0
  185.6390  177.6070  134.6750 O   0  0  0  0  0  1  0  0  0  0  0  0
  186.7490  177.2370  135.4380 C   0  0  0  0  0  2  0  0  0  0  0  0
  184.9110  176.4600  137.0060 C   0  0  0  0  0  2  0  0  0  0  0  0
  184.8840  174.9560  137.2060 C   0  0  0  0  0  2  0  0  0  0  0  0
  183.8590  174.6200  138.0890 O   0  0  0  0  0  0  0  0  0  0  0  0
  182.8710  175.5810  137.8590 C   0  0  0  0  0  2  0  0  0  0  0  0
  180.0230  177.7400  141.5050 C   0  0  0  0  0  2  0  0  0  0  0  0
  180.0510  176.9020  140.2180 C   0  0  1  0  0  3  0  0  0  0  0  0
  181.4120  176.9160  139.4500 C   0  0  1  0  0  3  0  0  0  0  0  0
  179.3140  175.0180  139.2530 C   0  0  0  0  0  2  0  0  0  0  0  0
  180.9250  178.9640  141.3830 C   0  0  0  0  0  2  0  0  0  0  0  0
  182.3250  178.5020  141.1230 C   0  0  0  0  0  3  0  0  0  0  0  0
  180.5830  174.7140  138.4430 C   0  0  0  0  0  2  0  0  0  0  0  0
  182.5490  177.5330  140.2290 C   0  0  0  0  0  3  0  0  0  0  0  0
  179.6300  175.5900  140.4960 O   0  0  0  0  0  0  0  0  0  0  0  0
  181.7930  175.5200  138.9350 C   0  0  1  0  0  3  0  0  0  0  0  0
  190.9590  175.9750  139.0420 N   0  0  0  0  0  2  0  0  0  0  0  0
  191.2040  175.4510  137.7040 C   0  0  2  0  0  3  0  0  0  0  0  0
  190.9300  174.0810  137.6810 O   0  0  0  0  0  1  0  0  0  0  0  0
  192.6450  175.7220  137.2400 C   0  0  2  0  0  0  0  0  0  0  0  0
  193.1340  176.8580  137.8610 F   0  0  0  0  0  0  0  0  0  0  0  0
  192.6360  175.9440  135.8630 O   0  0  0  0  0  1  0  0  0  0  0  0
  194.3910  174.2640  136.4370 O   0  0  0  0  0  1  0  0  0  0  0  0
  193.5720  174.5430  137.5330 C   0  0  0  0  0  2  0  0  0  0  0  0
  1  2  1  0  0  0  0
  2  3  2  0  0  0  0
  4  3  1  0  0  0  0
  5  1  2  0  0  0  0
  5  6  1  0  0  0  0
  6  4  2  0  0  0  0
  7 19  1  6  0  0  0
  7 17  1  0  0  0  0
  9  3  1  6  0  0  0
  9  7  1  0  0  0  0
  9 13  1  0  0  0  0
 11 15  2  0  0  0  0
 12  8  1  1  0  0  0
 12 10  1  0  0  0  0
 14 13  2  0  0  0  0
 15 10  1  0  0  0  0
 16 13  1  6  0  0  0
 16 11  1  0  0  0  0
 16 12  1  0  0  0  0
 17 11  1  0  0  0  0
 19 18  1  0  0  0  0
 20 19  1  0  0  0  0
 21 22  1  1  0  0  0
 21  1  1  0  0  0  0
 23 25  1  6  0  0  0
 23 26  1  0  0  0  0
 23 21  1  0  0  0  0
 24 25  1  0  0  0  0
 26 27  1  0  0  0  0
 27 28  1  0  0  0  0
 29 28  1  0  0  0  0
 31 38  1  0  0  0  0
 31 30  1  1  0  0  0
 32 31  1  0  0  0  0
 32 37  1  1  0  0  0
 33 38  1  0  0  0  0
 34 30  1  0  0  0  0
 35 34  1  0  0  0  0
 36 39  1  0  0  0  0
 36 33  1  0  0  0  0
 37 35  2  0  0  0  0
 39 29  1  6  0  0  0
 39 32  1  0  0  0  0
 40  6  1  0  0  0  0
 41 42  1  1  0  0  0
 41 40  1  0  0  0  0
 43 45  1  6  0  0  0
 43 47  1  0  0  0  0
 43 41  1  0  0  0  0
 43 44  1  0  0  0  0
 46 47  1  0  0  0  0
M  END
>  <MODEL>
5

>  <REMARK>
 VINA RESULT:      -8.2      3.363      7.591
  Name = 
  14 active torsions:
  status: ('A' for Active; 'I' for Inactive)
    1  A    between atoms: C_1  and  C_32
    2  A    between atoms: C_1  and  C_39
    3  A    between atoms: C_2  and  C_28
    4  A    between atoms: C_4  and  C_18
    5  A    between atoms: C_6  and  C_33
    6  A    between atoms: C_6  and  C_44
    7  A    between atoms: C_7  and  C_16
    8  A    between atoms: O_8  and  C_10
    9  A    between atoms: O_8  and  C_39
   10  A    between atoms: C_10  and  C_42
   11  A    between atoms: C_18  and  C_32
   12  A    between atoms: C_32  and  C_36
   13  A    between atoms: C_33  and  N_34
   14  A    between atoms: N_34  and  C_38
                            x       y       z     vdW  Elec       q    Type
                         _______ _______ _______ _____ _____    ______ ____

>  <TORSDO>
F 14

$$$$
=
 OpenBabel11032420453D

 47 51  0  0  1  0  0  0  0  0999 V2000
  186.5170  177.8760  143.4530 C   0  0  0  0  0  0  0  0  0  0  0  0
  187.2810  177.8880  142.3260 N   0  0  0  0  0  0  0  0  0  0  0  0
  188.6420  177.8960  142.3830 C   0  0  0  0  0  0  0  0  0  0  0  0
  189.2880  177.8940  143.6210 C   0  0  0  0  0  3  0  0  0  0  0  0
  187.1300  177.8720  144.7080 C   0  0  0  0  0  3  0  0  0  0  0  0
  188.5280  177.8760  144.7930 C   0  0  0  0  0  0  0  0  0  0  0  0
  190.5050  176.7930  141.1280 C   0  0  1  0  0  3  0  0  0  0  0  0
  187.2200  176.3720  136.9430 C   0  0  0  0  0  1  0  0  0  0  0  0
  189.4510  177.9310  141.1240 C   0  0  1  0  0  3  0  0  0  0  0  0
  189.5650  176.9430  136.6590 N   0  0  0  0  0  2  0  0  0  0  0  0
  190.2090  176.6160  138.7200 C   0  0  0  0  0  0  0  0  0  0  0  0
  188.3660  177.2290  137.4360 C   0  0  2  0  0  3  0  0  0  0  0  0
  188.5420  177.8830  139.9040 C   0  0  0  0  0  0  0  0  0  0  0  0
  187.6330  178.6910  139.7870 O   0  0  0  0  0  0  0  0  0  0  0  0
  190.6310  176.6530  137.5080 N   0  0  0  0  0  0  0  0  0  0  0  0
  188.7470  176.8190  138.8610 C   0  0  2  0  0  3  0  0  0  0  0  0
  191.0520  176.5730  139.8250 O   0  0  0  0  0  0  0  0  0  0  0  0
  191.6410  176.1010  143.1010 F   0  0  0  0  0  0  0  0  0  0  0  0
  191.6220  177.0770  142.1230 C   0  0  0  0  0  3  0  0  0  0  0  0
  192.8470  177.1150  141.4800 F   0  0  0  0  0  0  0  0  0  0  0  0
  185.0240  177.8780  143.3600 C   0  0  2  0  0  3  0  0  0  0  0  0
  184.5700  177.9560  141.9080 C   0  0  0  0  0  1  0  0  0  0  0  0
  184.4070  178.9620  144.2540 C   0  0  2  0  0  3  0  0  0  0  0  0
  185.1510  179.3760  146.5120 O   0  0  0  0  0  1  0  0  0  0  0  0
  184.3660  178.5340  145.7210 C   0  0  0  0  0  2  0  0  0  0  0  0
  183.0480  179.4570  143.7590 C   0  0  0  0  0  2  0  0  0  0  0  0
  181.9300  178.6270  144.3620 C   0  0  0  0  0  2  0  0  0  0  0  0
  180.7680  178.7910  143.6090 O   0  0  0  0  0  0  0  0  0  0  0  0
  181.2040  179.3670  142.4130 C   0  0  0  0  0  2  0  0  0  0  0  0
  181.2610  177.4030  137.7020 C   0  0  0  0  0  2  0  0  0  0  0  0
  180.8650  177.2110  139.1730 C   0  0  1  0  0  3  0  0  0  0  0  0
  181.5180  178.2220  140.1700 C   0  0  1  0  0  3  0  0  0  0  0  0
  179.1900  176.6480  140.5520 C   0  0  0  0  0  2  0  0  0  0  0  0
  182.6890  177.9230  137.5800 C   0  0  0  0  0  2  0  0  0  0  0  0
  182.7820  179.2370  138.2930 C   0  0  0  0  0  3  0  0  0  0  0  0
  179.5370  177.6320  141.6780 C   0  0  0  0  0  2  0  0  0  0  0  0
  182.2190  179.3790  139.4980 C   0  0  0  0  0  3  0  0  0  0  0  0
  179.4650  177.2030  139.2910 O   0  0  0  0  0  0  0  0  0  0  0  0
  180.5120  178.7240  141.2170 C   0  0  1  0  0  3  0  0  0  0  0  0
  189.1950  177.8820  146.0580 N   0  0  0  0  0  2  0  0  0  0  0  0
  189.7020  176.6780  146.7060 C   0  0  2  0  0  3  0  0  0  0  0  0
  188.9110  176.3770  147.8170 O   0  0  0  0  0  1  0  0  0  0  0  0
  191.1760  176.8290  147.1160 C   0  0  2  0  0  0  0  0  0  0  0  0
  191.2690  177.5830  148.2730 F   0  0  0  0  0  0  0  0  0  0  0  0
  191.8560  177.5000  146.0990 O   0  0  0  0  0  1  0  0  0  0  0  0
  193.0050  175.6090  148.1100 O   0  0  0  0  0  1  0  0  0  0  0  0
  191.8510  175.4750  147.3360 C   0  0  0  0  0  2  0  0  0  0  0  0
  1  5  1  0  0  0  0
  2  3  1  0  0  0  0
  2  1  2  0  0  0  0
  3  4  2  0  0  0  0
  4  6  1  0  0  0  0
  5  6  2  0  0  0  0
  6 40  1  0  0  0  0
  7 19  1  1  0  0  0
  9  7  1  0  0  0  0
  9  3  1  1  0  0  0
 10 12  1  0  0  0  0
 10 15  1  0  0  0  0
 11 17  1  0  0  0  0
 12  8  1  6  0  0  0
 12 16  1  0  0  0  0
 13  9  1  0  0  0  0
 14 13  2  0  0  0  0
 15 11  2  0  0  0  0
 16 11  1  6  0  0  0
 16 13  1  0  0  0  0
 17  7  1  0  0  0  0
 19 18  1  0  0  0  0
 20 19  1  0  0  0  0
 21 22  1  6  0  0  0
 21  1  1  0  0  0  0
 21 23  1  0  0  0  0
 23 26  1  6  0  0  0
 23 25  1  0  0  0  0
 25 24  1  0  0  0  0
 26 27  1  0  0  0  0
 28 27  1  0  0  0  0
 29 28  1  0  0  0  0
 31 30  1  6  0  0  0
 31 38  1  0  0  0  0
 31 32  1  0  0  0  0
 32 37  1  6  0  0  0
 32 39  1  0  0  0  0
 33 36  1  0  0  0  0
 34 30  1  0  0  0  0
 34 35  1  0  0  0  0
 35 37  2  0  0  0  0
 38 33  1  0  0  0  0
 39 36  1  0  0  0  0
 39 29  1  1  0  0  0
 40 41  1  0  0  0  0
 41 43  1  0  0  0  0
 41 42  1  1  0  0  0
 43 45  1  6  0  0  0
 43 47  1  0  0  0  0
 43 44  1  0  0  0  0
 47 46  1  0  0  0  0
M  END
>  <MODEL>
6

>  <REMARK>
 VINA RESULT:      -8.2      3.948      9.770
  Name = 
  14 active torsions:
  status: ('A' for Active; 'I' for Inactive)
    1  A    between atoms: C_1  and  C_32
    2  A    between atoms: C_1  and  C_39
    3  A    between atoms: C_2  and  C_28
    4  A    between atoms: C_4  and  C_18
    5  A    between atoms: C_6  and  C_33
    6  A    between atoms: C_6  and  C_44
    7  A    between atoms: C_7  and  C_16
    8  A    between atoms: O_8  and  C_10
    9  A    between atoms: O_8  and  C_39
   10  A    between atoms: C_10  and  C_42
   11  A    between atoms: C_18  and  C_32
   12  A    between atoms: C_32  and  C_36
   13  A    between atoms: C_33  and  N_34
   14  A    between atoms: N_34  and  C_38
                            x       y       z     vdW  Elec       q    Type
                         _______ _______ _______ _____ _____    ______ ____

>  <TORSDO>
F 14

$$$$
=
 OpenBabel11032420453D

 47 51  0  0  1  0  0  0  0  0999 V2000
  188.9020  177.9590  139.8560 C   0  0  0  0  0  0  0  0  0  0  0  0
  189.2420  177.5760  141.1180 N   0  0  0  0  0  0  0  0  0  0  0  0
  188.3670  177.6760  142.1570 C   0  0  0  0  0  0  0  0  0  0  0  0
  187.0840  178.1830  141.9430 C   0  0  0  0  0  3  0  0  0  0  0  0
  187.6260  178.4700  139.6060 C   0  0  0  0  0  3  0  0  0  0  0  0
  186.7070  178.5790  140.6570 C   0  0  0  0  0  0  0  0  0  0  0  0
  189.9660  178.1400  144.0270 C   0  0  1  0  0  3  0  0  0  0  0  0
  185.7690  178.5590  147.2970 C   0  0  0  0  0  1  0  0  0  0  0  0
  188.7820  177.2650  143.5370 C   0  0  1  0  0  3  0  0  0  0  0  0
  187.8210  177.4660  148.0040 N   0  0  0  0  0  2  0  0  0  0  0  0
  189.0520  177.9810  146.2740 C   0  0  0  0  0  0  0  0  0  0  0  0
  186.8520  177.5710  146.9210 C   0  0  2  0  0  3  0  0  0  0  0  0
  187.5920  177.3060  144.4850 C   0  0  0  0  0  0  0  0  0  0  0  0
  186.5690  176.7000  144.2070 O   0  0  0  0  0  0  0  0  0  0  0  0
  189.1120  177.6590  147.5160 N   0  0  0  0  0  0  0  0  0  0  0  0
  187.6720  178.1180  145.7490 C   0  0  2  0  0  3  0  0  0  0  0  0
  190.1620  178.0240  145.4380 O   0  0  0  0  0  0  0  0  0  0  0  0
  192.3280  178.4090  143.9020 F   0  0  0  0  0  0  0  0  0  0  0  0
  191.2530  177.7920  143.2890 C   0  0  0  0  0  3  0  0  0  0  0  0
  191.4480  176.4220  143.2760 F   0  0  0  0  0  0  0  0  0  0  0  0
  189.8870  177.8490  138.7370 C   0  0  2  0  0  3  0  0  0  0  0  0
  189.2090  178.0770  137.3920 C   0  0  0  0  0  1  0  0  0  0  0  0
  190.6760  176.5340  138.8090 C   0  0  2  0  0  3  0  0  0  0  0  0
  192.4910  177.4230  140.1280 O   0  0  0  0  0  1  0  0  0  0  0  0
  192.1800  176.7790  138.9290 C   0  0  0  0  0  2  0  0  0  0  0  0
  190.3370  175.5590  137.6820 C   0  0  0  0  0  2  0  0  0  0  0  0
  191.3420  175.6840  136.5530 C   0  0  0  0  0  2  0  0  0  0  0  0
  191.7460  174.4140  136.1430 O   0  0  0  0  0  0  0  0  0  0  0  0
  193.1380  174.5000  136.0590 C   0  0  0  0  0  2  0  0  0  0  0  0
  195.4860  170.3190  137.8080 C   0  0  0  0  0  2  0  0  0  0  0  0
  195.5090  171.8490  137.6730 C   0  0  1  0  0  3  0  0  0  0  0  0
  194.4950  172.4350  136.6400 C   0  0  1  0  0  3  0  0  0  0  0  0
  195.7680  173.7740  138.7910 C   0  0  0  0  0  2  0  0  0  0  0  0
  195.1370  169.6550  136.4810 C   0  0  0  0  0  2  0  0  0  0  0  0
  193.7850  170.1340  136.0480 C   0  0  0  0  0  3  0  0  0  0  0  0
  194.7360  174.5900  137.9990 C   0  0  0  0  0  2  0  0  0  0  0  0
  193.4820  171.4330  136.1380 C   0  0  0  0  0  3  0  0  0  0  0  0
  195.3560  172.4400  138.9380 O   0  0  0  0  0  0  0  0  0  0  0  0
  193.8000  173.6980  137.1730 C   0  0  1  0  0  3  0  0  0  0  0  0
  185.3950  179.1050  140.4460 N   0  0  0  0  0  2  0  0  0  0  0  0
  184.7960  179.2700  139.1260 C   0  0  2  0  0  3  0  0  0  0  0  0
  184.1190  180.4910  139.0700 O   0  0  0  0  0  1  0  0  0  0  0  0
  183.8500  178.1100  138.7800 C   0  0  2  0  0  0  0  0  0  0  0  0
  184.5760  177.0340  138.3000 F   0  0  0  0  0  0  0  0  0  0  0  0
  182.9760  178.5310  137.7770 O   0  0  0  0  0  1  0  0  0  0  0  0
  182.6980  176.3110  139.9020 O   0  0  0  0  0  1  0  0  0  0  0  0
  183.0220  177.6670  139.9860 C   0  0  0  0  0  2  0  0  0  0  0  0
  1  2  1  0  0  0  0
  2  3  2  0  0  0  0
  4  3  1  0  0  0  0
  5  1  2  0  0  0  0
  5  6  1  0  0  0  0
  6  4  2  0  0  0  0
  7 19  1  6  0  0  0
  7 17  1  0  0  0  0
  9  3  1  6  0  0  0
  9  7  1  0  0  0  0
  9 13  1  0  0  0  0
 11 15  2  0  0  0  0
 12  8  1  1  0  0  0
 12 10  1  0  0  0  0
 14 13  2  0  0  0  0
 15 10  1  0  0  0  0
 16 13  1  6  0  0  0
 16 11  1  0  0  0  0
 16 12  1  0  0  0  0
 17 11  1  0  0  0  0
 19 18  1  0  0  0  0
 20 19  1  0  0  0  0
 21 22  1  6  0  0  0
 21 23  1  0  0  0  0
 21  1  1  0  0  0  0
 23 26  1  6  0  0  0
 23 25  1  0  0  0  0
 25 24  1  0  0  0  0
 27 26  1  0  0  0  0
 28 27  1  0  0  0  0
 29 28  1  0  0  0  0
 31 30  1  1  0  0  0
 31 38  1  0  0  0  0
 32 37  1  1  0  0  0
 32 39  1  0  0  0  0
 32 31  1  0  0  0  0
 33 38  1  0  0  0  0
 34 30  1  0  0  0  0
 35 37  2  0  0  0  0
 35 34  1  0  0  0  0
 36 33  1  0  0  0  0
 39 29  1  6  0  0  0
 39 36  1  0  0  0  0
 40  6  1  0  0  0  0
 41 42  1  1  0  0  0
 41 40  1  0  0  0  0
 43 45  1  6  0  0  0
 43 41  1  0  0  0  0
 43 47  1  0  0  0  0
 44 43  1  0  0  0  0
 46 47  1  0  0  0  0
M  END
>  <MODEL>
7

>  <REMARK>
 VINA RESULT:      -8.2      4.477      7.957
  Name = 
  14 active torsions:
  status: ('A' for Active; 'I' for Inactive)
    1  A    between atoms: C_1  and  C_32
    2  A    between atoms: C_1  and  C_39
    3  A    between atoms: C_2  and  C_28
    4  A    between atoms: C_4  and  C_18
    5  A    between atoms: C_6  and  C_33
    6  A    between atoms: C_6  and  C_44
    7  A    between atoms: C_7  and  C_16
    8  A    between atoms: O_8  and  C_10
    9  A    between atoms: O_8  and  C_39
   10  A    between atoms: C_10  and  C_42
   11  A    between atoms: C_18  and  C_32
   12  A    between atoms: C_32  and  C_36
   13  A    between atoms: C_33  and  N_34
   14  A    between atoms: N_34  and  C_38
                            x       y       z     vdW  Elec       q    Type
                         _______ _______ _______ _____ _____    ______ ____

>  <TORSDO>
F 14

$$$$
=
 OpenBabel11032420453D

 47 51  0  0  1  0  0  0  0  0999 V2000
  185.2260  179.0270  140.5240 C   0  0  0  0  0  0  0  0  0  0  0  0
  186.1040  178.4400  139.6650 N   0  0  0  0  0  0  0  0  0  0  0  0
  185.7540  178.1210  138.3880 C   0  0  0  0  0  0  0  0  0  0  0  0
  184.4630  178.3950  137.9300 C   0  0  0  0  0  3  0  0  0  0  0  0
  183.9270  179.3150  140.0990 C   0  0  0  0  0  3  0  0  0  0  0  0
  183.5440  179.0010  138.7890 C   0  0  0  0  0  0  0  0  0  0  0  0
  188.0850  177.2250  138.2140 C   0  0  1  0  0  3  0  0  0  0  0  0
  186.0120  172.6220  136.4810 C   0  0  0  0  0  1  0  0  0  0  0  0
  186.7390  177.4560  137.4770 C   0  0  1  0  0  3  0  0  0  0  0  0
  188.0480  173.5350  135.5200 N   0  0  0  0  0  2  0  0  0  0  0  0
  188.3440  175.1740  136.9330 C   0  0  0  0  0  0  0  0  0  0  0  0
  186.6940  173.8620  135.9440 C   0  0  2  0  0  3  0  0  0  0  0  0
  186.1550  176.1720  136.9070 C   0  0  0  0  0  0  0  0  0  0  0  0
  185.0740  176.1920  136.3380 O   0  0  0  0  0  0  0  0  0  0  0  0
  188.9610  174.4100  136.1070 N   0  0  0  0  0  0  0  0  0  0  0  0
  186.8980  174.8740  137.0740 C   0  0  2  0  0  3  0  0  0  0  0  0
  188.9190  176.2990  137.5150 O   0  0  0  0  0  0  0  0  0  0  0  0
  189.8470  178.3520  139.3490 F   0  0  0  0  0  0  0  0  0  0  0  0
  188.8280  178.5360  138.4340 C   0  0  0  0  0  3  0  0  0  0  0  0
  189.3520  179.0010  137.2410 F   0  0  0  0  0  0  0  0  0  0  0  0
  185.6360  179.3550  141.9240 C   0  0  2  0  0  3  0  0  0  0  0  0
  187.0970  178.9990  142.1610 C   0  0  0  0  0  1  0  0  0  0  0  0
  184.6800  178.7320  142.9510 C   0  0  2  0  0  3  0  0  0  0  0  0
  182.3050  178.9810  143.3020 O   0  0  0  0  0  1  0  0  0  0  0  0
  183.5200  179.6690  143.2890 C   0  0  0  0  0  2  0  0  0  0  0  0
  185.3860  178.2120  144.2020 C   0  0  0  0  0  2  0  0  0  0  0  0
  185.2300  179.1950  145.3460 C   0  0  0  0  0  2  0  0  0  0  0  0
  185.9540  178.7460  146.4500 O   0  0  0  0  0  0  0  0  0  0  0  0
  186.3450  177.4490  146.1080 C   0  0  0  0  0  2  0  0  0  0  0  0
  191.3940  177.1370  145.4200 C   0  0  0  0  0  2  0  0  0  0  0  0
  190.2410  177.6950  146.2660 C   0  0  1  0  0  3  0  0  0  0  0  0
  188.8290  177.5990  145.6040 C   0  0  1  0  0  3  0  0  0  0  0  0
  189.4530  177.9180  148.3520 C   0  0  0  0  0  2  0  0  0  0  0  0
  191.1300  177.3380  143.9310 C   0  0  0  0  0  2  0  0  0  0  0  0
  189.8620  176.6290  143.5700 C   0  0  0  0  0  3  0  0  0  0  0  0
  187.9650  177.7530  148.0090 C   0  0  0  0  0  2  0  0  0  0  0  0
  188.7910  176.7400  144.3630 C   0  0  0  0  0  3  0  0  0  0  0  0
  190.2550  177.1010  147.5390 O   0  0  0  0  0  0  0  0  0  0  0  0
  187.7540  177.1570  146.6100 C   0  0  1  0  0  3  0  0  0  0  0  0
  182.2220  179.2720  138.3170 N   0  0  0  0  0  2  0  0  0  0  0  0
  181.1460  178.2870  138.3260 C   0  0  2  0  0  3  0  0  0  0  0  0
  180.3840  178.4170  137.1620 O   0  0  0  0  0  1  0  0  0  0  0  0
  180.2570  178.4250  139.5720 C   0  0  2  0  0  0  0  0  0  0  0  0
  178.9320  178.2130  139.2330 F   0  0  0  0  0  0  0  0  0  0  0  0
  180.3810  179.7240  140.0660 O   0  0  0  0  0  1  0  0  0  0  0  0
  179.5470  177.0010  141.3860 O   0  0  0  0  0  1  0  0  0  0  0  0
  180.6630  177.4480  140.6750 C   0  0  0  0  0  2  0  0  0  0  0  0
  1 21  1  0  0  0  0
  2  1  2  0  0  0  0
  3  2  1  0  0  0  0
  4  3  2  0  0  0  0
  4  6  1  0  0  0  0
  5  1  1  0  0  0  0
  6  5  2  0  0  0  0
  7 19  1  6  0  0  0
  9  7  1  0  0  0  0
  9  3  1  1  0  0  0
 10 12  1  0  0  0  0
 10 15  1  0  0  0  0
 11 16  1  0  0  0  0
 11 17  1  0  0  0  0
 12  8  1  1  0  0  0
 12 16  1  0  0  0  0
 13  9  1  0  0  0  0
 14 13  2  0  0  0  0
 15 11  2  0  0  0  0
 16 13  1  6  0  0  0
 17  7  1  0  0  0  0
 19 18  1  0  0  0  0
 20 19  1  0  0  0  0
 21 22  1  1  0  0  0
 21 23  1  0  0  0  0
 23 25  1  1  0  0  0
 23 26  1  0  0  0  0
 25 24  1  0  0  0  0
 26 27  1  0  0  0  0
 27 28  1  0  0  0  0
 29 28  1  0  0  0  0
 31 30  1  6  0  0  0
 31 38  1  0  0  0  0
 32 37  1  6  0  0  0
 32 31  1  0  0  0  0
 32 39  1  0  0  0  0
 34 30  1  0  0  0  0
 35 34  1  0  0  0  0
 35 37  2  0  0  0  0
 36 33  1  0  0  0  0
 38 33  1  0  0  0  0
 39 29  1  6  0  0  0
 39 36  1  0  0  0  0
 40 41  1  0  0  0  0
 40  6  1  0  0  0  0
 41 42  1  6  0  0  0
 41 43  1  0  0  0  0
 43 44  1  6  0  0  0
 43 45  1  0  0  0  0
 43 47  1  0  0  0  0
 47 46  1  0  0  0  0
M  END
>  <MODEL>
8

>  <REMARK>
 VINA RESULT:      -8.1      2.425      6.342
  Name = 
  14 active torsions:
  status: ('A' for Active; 'I' for Inactive)
    1  A    between atoms: C_1  and  C_32
    2  A    between atoms: C_1  and  C_39
    3  A    between atoms: C_2  and  C_28
    4  A    between atoms: C_4  and  C_18
    5  A    between atoms: C_6  and  C_33
    6  A    between atoms: C_6  and  C_44
    7  A    between atoms: C_7  and  C_16
    8  A    between atoms: O_8  and  C_10
    9  A    between atoms: O_8  and  C_39
   10  A    between atoms: C_10  and  C_42
   11  A    between atoms: C_18  and  C_32
   12  A    between atoms: C_32  and  C_36
   13  A    between atoms: C_33  and  N_34
   14  A    between atoms: N_34  and  C_38
                            x       y       z     vdW  Elec       q    Type
                         _______ _______ _______ _____ _____    ______ ____

>  <TORSDO>
F 14

$$$$
=
 OpenBabel11032420453D

 47 51  0  0  1  0  0  0  0  0999 V2000
  188.9940  177.7400  139.9980 C   0  0  0  0  0  0  0  0  0  0  0  0
  189.3180  177.2350  141.2200 N   0  0  0  0  0  0  0  0  0  0  0  0
  188.5060  177.3990  142.3010 C   0  0  0  0  0  0  0  0  0  0  0  0
  187.3070  178.1030  142.1730 C   0  0  0  0  0  3  0  0  0  0  0  0
  187.8020  178.4490  139.8330 C   0  0  0  0  0  3  0  0  0  0  0  0
  186.9480  178.6280  140.9290 C   0  0  0  0  0  0  0  0  0  0  0  0
  190.3020  177.3850  144.0460 C   0  0  1  0  0  3  0  0  0  0  0  0
  186.5890  178.7070  147.6450 C   0  0  0  0  0  1  0  0  0  0  0  0
  188.9050  176.8490  143.6360 C   0  0  1  0  0  3  0  0  0  0  0  0
  188.3500  177.1160  148.1680 N   0  0  0  0  0  2  0  0  0  0  0  0
  189.5410  177.3740  146.3560 C   0  0  0  0  0  0  0  0  0  0  0  0
  187.3620  177.4970  147.1670 C   0  0  2  0  0  3  0  0  0  0  0  0
  187.8340  177.1470  144.6760 C   0  0  0  0  0  0  0  0  0  0  0  0
  186.6750  176.8230  144.4690 O   0  0  0  0  0  0  0  0  0  0  0  0
  189.6090  177.0010  147.5830 N   0  0  0  0  0  0  0  0  0  0  0  0
  188.2050  177.8670  145.9440 C   0  0  2  0  0  3  0  0  0  0  0  0
  190.5640  177.1720  145.4350 O   0  0  0  0  0  0  0  0  0  0  0  0
  192.4010  177.6850  142.9660 F   0  0  0  0  0  0  0  0  0  0  0  0
  191.4040  176.7570  143.2030 C   0  0  0  0  0  3  0  0  0  0  0  0
  191.9380  175.6550  143.8470 F   0  0  0  0  0  0  0  0  0  0  0  0
  189.9100  177.5540  138.8300 C   0  0  2  0  0  3  0  0  0  0  0  0
  189.1240  177.4920  137.5270 C   0  0  0  0  0  1  0  0  0  0  0  0
  190.8480  176.3570  139.0370 C   0  0  2  0  0  3  0  0  0  0  0  0
  192.5970  177.5540  140.1920 O   0  0  0  0  0  1  0  0  0  0  0  0
  192.3160  176.7820  139.0620 C   0  0  0  0  0  2  0  0  0  0  0  0
  190.5950  175.2100  138.0590 C   0  0  0  0  0  2  0  0  0  0  0  0
  191.7800  175.0370  137.1280 C   0  0  0  0  0  2  0  0  0  0  0  0
  192.3280  173.7660  137.2980 O   0  0  0  0  0  0  0  0  0  0  0  0
  193.6730  174.0020  137.5900 C   0  0  0  0  0  2  0  0  0  0  0  0
  198.2620  172.2970  136.1410 C   0  0  0  0  0  2  0  0  0  0  0  0
  196.8070  171.9470  136.4870 C   0  0  1  0  0  3  0  0  0  0  0  0
  196.0070  173.0820  137.2030 C   0  0  1  0  0  3  0  0  0  0  0  0
  194.9830  170.8450  135.7920 C   0  0  0  0  0  2  0  0  0  0  0  0
  198.8600  173.2430  137.1760 C   0  0  0  0  0  2  0  0  0  0  0  0
  198.0420  174.4980  137.2060 C   0  0  0  0  0  3  0  0  0  0  0  0
  193.9480  171.8540  136.3090 C   0  0  0  0  0  2  0  0  0  0  0  0
  196.7080  174.4190  137.2030 C   0  0  0  0  0  3  0  0  0  0  0  0
  196.1410  171.4950  135.3350 O   0  0  0  0  0  0  0  0  0  0  0  0
  194.5790  173.2100  136.6530 C   0  0  1  0  0  3  0  0  0  0  0  0
  185.7230  179.3540  140.8060 N   0  0  0  0  0  2  0  0  0  0  0  0
  184.6680  179.0010  139.8620 C   0  0  2  0  0  3  0  0  0  0  0  0
  184.3190  180.1250  139.1100 O   0  0  0  0  0  1  0  0  0  0  0  0
  183.4360  178.4220  140.5740 C   0  0  2  0  0  0  0  0  0  0  0  0
  183.1970  177.1320  140.1330 F   0  0  0  0  0  0  0  0  0  0  0  0
  182.3270  179.2060  140.2540 O   0  0  0  0  0  1  0  0  0  0  0  0
  182.5060  179.0170  142.7200 O   0  0  0  0  0  1  0  0  0  0  0  0
  183.6010  178.4180  142.0940 C   0  0  0  0  0  2  0  0  0  0  0  0
  1  2  1  0  0  0  0
  2  3  2  0  0  0  0
  4  3  1  0  0  0  0
  5  1  2  0  0  0  0
  5  6  1  0  0  0  0
  6  4  2  0  0  0  0
  7 19  1  6  0  0  0
  7 17  1  0  0  0  0
  9  3  1  6  0  0  0
  9  7  1  0  0  0  0
  9 13  1  0  0  0  0
 11 15  2  0  0  0  0
 12  8  1  1  0  0  0
 12 10  1  0  0  0  0
 14 13  2  0  0  0  0
 15 10  1  0  0  0  0
 16 13  1  6  0  0  0
 16 11  1  0  0  0  0
 16 12  1  0  0  0  0
 17 11  1  0  0  0  0
 18 19  1  0  0  0  0
 19 20  1  0  0  0  0
 21 22  1  6  0  0  0
 21 23  1  0  0  0  0
 21  1  1  0  0  0  0
 23 26  1  6  0  0  0
 23 25  1  0  0  0  0
 25 24  1  0  0  0  0
 27 28  1  0  0  0  0
 27 26  1  0  0  0  0
 28 29  1  0  0  0  0
 30 34  1  0  0  0  0
 31 30  1  6  0  0  0
 31 32  1  0  0  0  0
 32 37  1  6  0  0  0
 33 36  1  0  0  0  0
 34 35  1  0  0  0  0
 36 39  1  0  0  0  0
 37 35  2  0  0  0  0
 38 33  1  0  0  0  0
 38 31  1  0  0  0  0
 39 32  1  0  0  0  0
 39 29  1  1  0  0  0
 40  6  1  0  0  0  0
 41 42  1  1  0  0  0
 41 43  1  0  0  0  0
 41 40  1  0  0  0  0
 43 44  1  6  0  0  0
 43 47  1  0  0  0  0
 45 43  1  0  0  0  0
 47 46  1  0  0  0  0
M  END
>  <MODEL>
9

>  <REMARK>
 VINA RESULT:      -8.0      4.782      8.615
  Name = 
  14 active torsions:
  status: ('A' for Active; 'I' for Inactive)
    1  A    between atoms: C_1  and  C_32
    2  A    between atoms: C_1  and  C_39
    3  A    between atoms: C_2  and  C_28
    4  A    between atoms: C_4  and  C_18
    5  A    between atoms: C_6  and  C_33
    6  A    between atoms: C_6  and  C_44
    7  A    between atoms: C_7  and  C_16
    8  A    between atoms: O_8  and  C_10
    9  A    between atoms: O_8  and  C_39
   10  A    between atoms: C_10  and  C_42
   11  A    between atoms: C_18  and  C_32
   12  A    between atoms: C_32  and  C_36
   13  A    between atoms: C_33  and  N_34
   14  A    between atoms: N_34  and  C_38
                            x       y       z     vdW  Elec       q    Type
                         _______ _______ _______ _____ _____    ______ ____

>  <TORSDO>
F 14

$$$$
