=
 OpenBabel11042410343D

 38 42  0  0  1  0  0  0  0  0999 V2000
  188.2920  177.7430  142.1460 C   0  0  0  0  0  0  0  0  0  0  0  0
  190.4840  177.1840  141.3450 N   0  0  0  0  0  0  0  0  0  0  0  0
  186.1960  177.9740  144.0600 C   0  0  0  0  0  3  0  0  0  0  0  0
  191.0610  177.1050  140.1190 C   0  0  0  0  0  3  0  0  0  0  0  0
  186.7070  178.3350  140.3870 C   0  0  0  0  0  0  0  0  0  0  0  0
  188.9570  177.7080  139.8720 C   0  0  0  0  0  0  0  0  0  0  0  0
  186.9960  178.1490  141.7600 C   0  0  0  0  0  0  0  0  0  0  0  0
  188.6420  177.6450  143.6040 C   0  0  0  0  0  2  0  0  0  0  0  0
  187.7010  178.1080  139.4220 C   0  0  0  0  0  3  0  0  0  0  0  0
  189.2220  177.5450  141.1750 N   0  0  0  0  0  0  0  0  0  0  0  0
  187.4280  177.1680  144.4270 C   0  0  1  0  0  3  0  0  0  0  0  0
  190.0990  177.4350  139.1670 C   0  0  0  0  0  0  0  0  0  0  0  0
  185.9830  178.3830  142.8070 C   0  0  0  0  0  3  0  0  0  0  0  0
  187.1100  178.4360  147.9660 C   0  0  0  0  0  2  0  0  0  0  0  0
  186.9320  178.3520  146.4430 C   0  0  0  0  0  2  0  0  0  0  0  0
  189.4800  177.6630  147.5610 C   0  0  0  0  0  2  0  0  0  0  0  0
  189.1170  177.5630  146.0700 C   0  0  0  0  0  2  0  0  0  0  0  0
  187.6980  177.2370  145.8710 N   0  0  0  0  0  0  0  0  0  0  0  0
  188.2540  177.5530  148.4680 C   0  0  0  0  0  2  0  0  0  0  0  0
  189.5440  175.3140  137.2580 O   0  0  0  0  0  0  0  0  0  0  0  0
  190.2510  177.4960  137.7450 N   0  0  0  0  0  2  0  0  0  0  0  0
  189.9640  176.4250  136.8400 C   0  0  0  0  0  0  0  0  0  0  0  0
  190.1660  176.6280  135.3820 C   0  0  0  0  0  1  0  0  0  0  0  0
  183.9300  178.8500  140.1440 C   0  0  1  0  0  3  0  0  0  0  0  0
  185.4120  178.7560  139.9630 N   0  0  0  0  0  0  0  0  0  0  0  0
  184.3580  178.5700  137.8580 O   0  0  0  0  0  1  0  0  0  0  0  0
  184.4760  179.3910  138.9850 C   0  0  1  0  0  3  0  0  0  0  0  0
  183.3170  177.4520  140.0140 C   0  0  0  0  0  2  0  0  0  0  0  0
  181.2170  176.2910  139.9750 O   0  0  0  0  0  1  0  0  0  0  0  0
  181.8300  177.5050  139.6680 C   0  0  1  0  0  3  0  0  0  0  0  0
  181.1150  178.6420  140.3880 C   0  0  0  0  0  2  0  0  0  0  0  0
  178.9310  178.3820  141.3240 O   0  0  0  0  0  1  0  0  0  0  0  0
  180.2840  178.1230  141.5500 C   0  0  2  0  0  3  0  0  0  0  0  0
  180.1300  178.2700  144.2600 O   0  0  0  0  0  1  0  0  0  0  0  0
  180.8020  178.9440  143.0840 P   0  0  2  0  0  0  0  0  0  0  0  0
  180.3340  180.5690  143.0220 O   0  0  0  0  0  0  0  0  0  0  0  0
  182.4880  178.8290  143.2340 O   0  0  0  0  0  0  0  0  0  0  0  0
  182.7640  179.1290  144.5690 C   0  0  0  0  0  1  0  0  0  0  0  0
  1  8  1  0  0  0  0
  3 11  1  0  0  0  0
  4  2  2  0  0  0  0
  5  7  1  0  0  0  0
  6 10  1  0  0  0  0
  7  1  2  0  0  0  0
  7 13  1  0  0  0  0
  9  6  1  0  0  0  0
  9  5  2  0  0  0  0
 10  2  1  0  0  0  0
 10  1  1  0  0  0  0
 11  8  1  6  0  0  0
 11 18  1  0  0  0  0
 12  6  2  0  0  0  0
 12  4  1  0  0  0  0
 13  3  2  0  0  0  0
 14 19  1  0  0  0  0
 15 14  1  0  0  0  0
 16 19  1  0  0  0  0
 17 16  1  0  0  0  0
 18 17  1  0  0  0  0
 18 15  1  0  0  0  0
 21 12  1  0  0  0  0
 22 20  2  0  0  0  0
 22 21  1  0  0  0  0
 23 22  1  0  0  0  0
 24 28  1  6  0  0  0
 25 24  1  0  0  0  0
 25  5  1  0  0  0  0
 27 26  1  6  0  0  0
 27 25  1  0  0  0  0
 27 24  1  0  0  0  0
 30 29  1  1  0  0  0
 30 28  1  0  0  0  0
 30 31  1  0  0  0  0
 31 33  1  0  0  0  0
 33 32  1  6  0  0  0
 33 35  1  0  0  0  0
 35 36  2  6  0  0  0
 35 37  1  0  0  0  0
 35 34  1  0  0  0  0
 37 38  1  0  0  0  0
M  END
>  <MODEL>
1

>  <REMARK>
 VINA RESULT:      -8.4      0.000      0.000
  Name = 
  9 active torsions:
  status: ('A' for Active; 'I' for Inactive)
    1  A    between atoms: C_2  and  C_18
    2  A    between atoms: C_2  and  C_23
    3  A    between atoms: N_7  and  C_36
    4  A    between atoms: O_8  and  P_16
    5  A    between atoms: CA_12  and  C_20
    6  A    between atoms: C_13  and  N_19
    7  A    between atoms: P_16  and  C_18
    8  A    between atoms: C_20  and  C_23
    9  A    between atoms: N_30  and  C_35
                            x       y       z     vdW  Elec       q    Type
                         _______ _______ _______ _____ _____    ______ ____

>  <TORSDO>
F 9

$$$$
=
 OpenBabel11042410343D

 38 42  0  0  1  0  0  0  0  0999 V2000
  188.6300  177.7060  142.6370 C   0  0  0  0  0  0  0  0  0  0  0  0
  190.9820  177.2580  142.7890 N   0  0  0  0  0  0  0  0  0  0  0  0
  186.1910  178.4290  141.3560 C   0  0  0  0  0  3  0  0  0  0  0  0
  191.8520  177.0590  143.8120 C   0  0  0  0  0  3  0  0  0  0  0  0
  187.4920  177.8130  144.7930 C   0  0  0  0  0  0  0  0  0  0  0  0
  189.8450  177.4090  144.6490 C   0  0  0  0  0  0  0  0  0  0  0  0
  187.4430  177.8840  143.3800 C   0  0  0  0  0  0  0  0  0  0  0  0
  188.5740  177.6730  141.1350 C   0  0  0  0  0  2  0  0  0  0  0  0
  188.7130  177.5740  145.4430 C   0  0  0  0  0  3  0  0  0  0  0  0
  189.7840  177.4670  143.3120 N   0  0  0  0  0  0  0  0  0  0  0  0
  187.4940  178.6380  140.6070 C   0  0  1  0  0  3  0  0  0  0  0  0
  191.1420  177.1530  145.0060 C   0  0  0  0  0  0  0  0  0  0  0  0
  186.1800  178.1260  142.6570 C   0  0  0  0  0  3  0  0  0  0  0  0
  185.6180  178.0110  137.3950 C   0  0  0  0  0  2  0  0  0  0  0  0
  185.9060  178.1120  138.9000 C   0  0  0  0  0  2  0  0  0  0  0  0
  187.9780  177.1390  137.1730 C   0  0  0  0  0  2  0  0  0  0  0  0
  188.1280  177.3680  138.6850 C   0  0  0  0  0  2  0  0  0  0  0  0
  187.3020  178.4880  139.1570 N   0  0  0  0  0  0  0  0  0  0  0  0
  186.8960  178.0260  136.5540 C   0  0  0  0  0  2  0  0  0  0  0  0
  192.3430  174.7760  146.1730 O   0  0  0  0  0  0  0  0  0  0  0  0
  191.6390  177.0060  146.3410 N   0  0  0  0  0  2  0  0  0  0  0  0
  192.2250  175.8140  146.8750 C   0  0  0  0  0  0  0  0  0  0  0  0
  192.7010  175.8030  148.2820 C   0  0  0  0  0  1  0  0  0  0  0  0
  184.8240  177.9560  145.7410 C   0  0  1  0  0  3  0  0  0  0  0  0
  186.3100  177.9780  145.5750 N   0  0  0  0  0  0  0  0  0  0  0  0
  185.6620  179.7360  147.0110 O   0  0  0  0  0  1  0  0  0  0  0  0
  185.5910  178.3500  146.8320 C   0  0  1  0  0  3  0  0  0  0  0  0
  184.2070  179.0810  144.9050 C   0  0  0  0  0  2  0  0  0  0  0  0
  181.8640  178.5710  144.8160 O   0  0  0  0  0  1  0  0  0  0  0  0
  183.0340  178.5920  144.0580 C   0  0  1  0  0  3  0  0  0  0  0  0
  182.8290  179.4460  142.8130 C   0  0  0  0  0  2  0  0  0  0  0  0
  182.6230  178.8830  140.4990 O   0  0  0  0  0  1  0  0  0  0  0  0
  182.0380  178.6970  141.7530 C   0  0  2  0  0  3  0  0  0  0  0  0
  180.2190  180.5200  142.6240 O   0  0  0  0  0  1  0  0  0  0  0  0
  180.3320  179.3150  141.7160 P   0  0  2  0  0  0  0  0  0  0  0  0
  179.2950  178.0960  142.2660 O   0  0  0  0  0  0  0  0  0  0  0  0
  179.9310  179.7460  140.1250 O   0  0  0  0  0  0  0  0  0  0  0  0
  179.7600  181.1310  140.1470 C   0  0  0  0  0  1  0  0  0  0  0  0
  1 10  1  0  0  0  0
  1  7  2  0  0  0  0
  2 10  1  0  0  0  0
  2  4  2  0  0  0  0
  3 13  2  0  0  0  0
  4 12  1  0  0  0  0
  5  9  2  0  0  0  0
  5 25  1  0  0  0  0
  6 12  2  0  0  0  0
  6  9  1  0  0  0  0
  7  5  1  0  0  0  0
  8  1  1  0  0  0  0
 10  6  1  0  0  0  0
 11 18  1  6  0  0  0
 11  8  1  0  0  0  0
 11  3  1  0  0  0  0
 12 21  1  0  0  0  0
 13  7  1  0  0  0  0
 14 15  1  0  0  0  0
 15 18  1  0  0  0  0
 16 17  1  0  0  0  0
 17 18  1  0  0  0  0
 19 16  1  0  0  0  0
 19 14  1  0  0  0  0
 20 22  2  0  0  0  0
 21 22  1  0  0  0  0
 22 23  1  0  0  0  0
 24 28  1  6  0  0  0
 24 27  1  0  0  0  0
 25 24  1  0  0  0  0
 25 27  1  0  0  0  0
 27 26  1  6  0  0  0
 30 29  1  1  0  0  0
 30 28  1  0  0  0  0
 31 30  1  0  0  0  0
 33 32  1  6  0  0  0
 33 31  1  0  0  0  0
 35 33  1  0  0  0  0
 35 36  2  1  0  0  0
 35 34  1  0  0  0  0
 37 38  1  0  0  0  0
 37 35  1  0  0  0  0
M  END
>  <MODEL>
2

>  <REMARK>
 VINA RESULT:      -8.3      2.604      6.354
  Name = 
  9 active torsions:
  status: ('A' for Active; 'I' for Inactive)
    1  A    between atoms: C_2  and  C_18
    2  A    between atoms: C_2  and  C_23
    3  A    between atoms: N_7  and  C_36
    4  A    between atoms: O_8  and  P_16
    5  A    between atoms: CA_12  and  C_20
    6  A    between atoms: C_13  and  N_19
    7  A    between atoms: P_16  and  C_18
    8  A    between atoms: C_20  and  C_23
    9  A    between atoms: N_30  and  C_35
                            x       y       z     vdW  Elec       q    Type
                         _______ _______ _______ _____ _____    ______ ____

>  <TORSDO>
F 9

$$$$
=
 OpenBabel11042410343D

 38 42  0  0  1  0  0  0  0  0999 V2000
  188.0960  177.7890  142.1990 C   0  0  0  0  0  0  0  0  0  0  0  0
  190.2970  177.3790  141.3340 N   0  0  0  0  0  0  0  0  0  0  0  0
  186.0440  177.8660  144.1710 C   0  0  0  0  0  3  0  0  0  0  0  0
  190.8440  177.3510  140.0920 C   0  0  0  0  0  3  0  0  0  0  0  0
  186.4310  178.3000  140.4910 C   0  0  0  0  0  0  0  0  0  0  0  0
  188.7010  177.8220  139.9080 C   0  0  0  0  0  0  0  0  0  0  0  0
  186.7680  178.1170  141.8530 C   0  0  0  0  0  0  0  0  0  0  0  0
  188.4920  177.6970  143.6470 C   0  0  0  0  0  2  0  0  0  0  0  0
  187.4110  178.1470  139.4970 C   0  0  0  0  0  3  0  0  0  0  0  0
  189.0100  177.6620  141.2010 N   0  0  0  0  0  0  0  0  0  0  0  0
  187.3330  177.1360  144.4940 C   0  0  1  0  0  3  0  0  0  0  0  0
  189.8390  177.6300  139.1700 C   0  0  0  0  0  0  0  0  0  0  0  0
  185.7710  178.2750  142.9290 C   0  0  0  0  0  3  0  0  0  0  0  0
  187.1210  178.4250  148.0340 C   0  0  0  0  0  2  0  0  0  0  0  0
  186.9060  178.3380  146.5150 C   0  0  0  0  0  2  0  0  0  0  0  0
  189.4650  177.6020  147.5790 C   0  0  0  0  0  2  0  0  0  0  0  0
  189.0660  177.5030  146.0980 C   0  0  0  0  0  2  0  0  0  0  0  0
  187.6370  177.2060  145.9310 N   0  0  0  0  0  0  0  0  0  0  0  0
  188.2580  177.5200  148.5140 C   0  0  0  0  0  2  0  0  0  0  0  0
  189.2930  175.5210  137.2440 O   0  0  0  0  0  0  0  0  0  0  0  0
  189.9480  177.7160  137.7450 N   0  0  0  0  0  2  0  0  0  0  0  0
  189.6670  176.6510  136.8320 C   0  0  0  0  0  0  0  0  0  0  0  0
  189.8220  176.8810  135.3730 C   0  0  0  0  0  1  0  0  0  0  0  0
  183.7540  178.2930  139.5580 C   0  0  1  0  0  3  0  0  0  0  0  0
  185.1010  178.6430  140.1060 N   0  0  0  0  0  0  0  0  0  0  0  0
  184.3030  180.4390  138.7980 O   0  0  0  0  0  1  0  0  0  0  0  0
  183.9910  179.6220  139.8900 C   0  0  1  0  0  3  0  0  0  0  0  0
  183.8930  177.9300  138.0760 C   0  0  0  0  0  2  0  0  0  0  0  0
  182.8390  175.7750  138.1460 O   0  0  0  0  0  1  0  0  0  0  0  0
  184.0400  176.4250  137.8630 C   0  0  1  0  0  3  0  0  0  0  0  0
  184.4900  176.0870  136.4480 C   0  0  0  0  0  2  0  0  0  0  0  0
  186.5450  175.5910  135.3320 O   0  0  0  0  0  1  0  0  0  0  0  0
  185.7780  175.2800  136.4560 C   0  0  2  0  0  3  0  0  0  0  0  0
  184.1830  173.2710  135.5530 O   0  0  0  0  0  0  0  0  0  0  0  0
  185.3860  173.5070  136.4400 P   0  0  2  0  0  0  0  0  0  0  0  0
  185.0280  173.0110  138.0180 O   0  0  0  0  0  1  0  0  0  0  0  0
  186.7230  172.6470  135.8490 O   0  0  0  0  0  0  0  0  0  0  0  0
  187.5520  172.4420  136.9530 C   0  0  0  0  0  1  0  0  0  0  0  0
  1  8  1  0  0  0  0
  3 11  1  0  0  0  0
  4  2  2  0  0  0  0
  5  7  1  0  0  0  0
  6 10  1  0  0  0  0
  7  1  2  0  0  0  0
  7 13  1  0  0  0  0
  9  6  1  0  0  0  0
  9  5  2  0  0  0  0
 10  2  1  0  0  0  0
 10  1  1  0  0  0  0
 11  8  1  6  0  0  0
 11 18  1  0  0  0  0
 12  6  2  0  0  0  0
 12  4  1  0  0  0  0
 13  3  2  0  0  0  0
 14 19  1  0  0  0  0
 15 14  1  0  0  0  0
 16 19  1  0  0  0  0
 17 16  1  0  0  0  0
 18 17  1  0  0  0  0
 18 15  1  0  0  0  0
 21 12  1  0  0  0  0
 22 20  2  0  0  0  0
 22 21  1  0  0  0  0
 23 22  1  0  0  0  0
 24 28  1  6  0  0  0
 24 27  1  0  0  0  0
 24 25  1  0  0  0  0
 25  5  1  0  0  0  0
 27 26  1  6  0  0  0
 27 25  1  0  0  0  0
 30 28  1  0  0  0  0
 30 29  1  6  0  0  0
 31 33  1  0  0  0  0
 31 30  1  0  0  0  0
 33 32  1  6  0  0  0
 35 34  2  6  0  0  0
 35 33  1  0  0  0  0
 35 36  1  0  0  0  0
 37 35  1  0  0  0  0
 37 38  1  0  0  0  0
M  END
>  <MODEL>
3

>  <REMARK>
 VINA RESULT:      -8.1      2.775      4.529
  Name = 
  9 active torsions:
  status: ('A' for Active; 'I' for Inactive)
    1  A    between atoms: C_2  and  C_18
    2  A    between atoms: C_2  and  C_23
    3  A    between atoms: N_7  and  C_36
    4  A    between atoms: O_8  and  P_16
    5  A    between atoms: CA_12  and  C_20
    6  A    between atoms: C_13  and  N_19
    7  A    between atoms: P_16  and  C_18
    8  A    between atoms: C_20  and  C_23
    9  A    between atoms: N_30  and  C_35
                            x       y       z     vdW  Elec       q    Type
                         _______ _______ _______ _____ _____    ______ ____

>  <TORSDO>
F 9

$$$$
=
 OpenBabel11042410343D

 38 42  0  0  1  0  0  0  0  0999 V2000
  188.2800  177.9940  142.3560 C   0  0  0  0  0  0  0  0  0  0  0  0
  186.0900  178.8010  142.9150 N   0  0  0  0  0  0  0  0  0  0  0  0
  190.9840  177.2460  142.8400 C   0  0  0  0  0  3  0  0  0  0  0  0
  185.0030  179.1860  142.1990 C   0  0  0  0  0  3  0  0  0  0  0  0
  188.6830  177.7790  139.9590 C   0  0  0  0  0  0  0  0  0  0  0  0
  186.5950  178.5870  140.7990 C   0  0  0  0  0  0  0  0  0  0  0  0
  189.1400  177.6460  141.2920 C   0  0  0  0  0  0  0  0  0  0  0  0
  188.7120  177.7570  143.7760 C   0  0  0  0  0  2  0  0  0  0  0  0
  187.3890  178.2620  139.7030 C   0  0  0  0  0  3  0  0  0  0  0  0
  187.0340  178.4460  142.0570 N   0  0  0  0  0  0  0  0  0  0  0  0
  190.2290  177.9840  143.9300 C   0  0  1  0  0  3  0  0  0  0  0  0
  185.3090  179.0570  140.8470 C   0  0  0  0  0  0  0  0  0  0  0  0
  190.4890  177.1370  141.6050 C   0  0  0  0  0  3  0  0  0  0  0  0
  192.0820  175.9260  146.4920 C   0  0  0  0  0  2  0  0  0  0  0  0
  191.4980  176.3590  145.1390 C   0  0  0  0  0  2  0  0  0  0  0  0
  189.9420  176.8000  147.5070 C   0  0  0  0  0  2  0  0  0  0  0  0
  189.5340  177.2390  146.0910 C   0  0  0  0  0  2  0  0  0  0  0  0
  190.6990  177.5850  145.2650 N   0  0  0  0  0  0  0  0  0  0  0  0
  191.4580  176.6830  147.6660 C   0  0  0  0  0  2  0  0  0  0  0  0
  183.2610  177.3300  139.7170 O   0  0  0  0  0  0  0  0  0  0  0  0
  184.4690  179.3390  139.7220 N   0  0  0  0  0  2  0  0  0  0  0  0
  183.4700  178.4590  139.1980 C   0  0  0  0  0  0  0  0  0  0  0  0
  182.6670  178.8830  138.0220 C   0  0  0  0  0  1  0  0  0  0  0  0
  189.7920  177.2970  137.3950 C   0  0  1  0  0  3  0  0  0  0  0  0
  189.5220  177.4270  138.8600 N   0  0  0  0  0  0  0  0  0  0  0  0
  190.7960  175.4770  138.4740 O   0  0  0  0  0  1  0  0  0  0  0  0
  190.7760  176.8610  138.2750 C   0  0  1  0  0  3  0  0  0  0  0  0
  188.8810  176.2130  136.8090 C   0  0  0  0  0  2  0  0  0  0  0  0
  187.6370  178.0450  135.8850 O   0  0  0  0  0  1  0  0  0  0  0  0
  187.5100  176.7640  136.4200 C   0  0  1  0  0  3  0  0  0  0  0  0
  186.7890  175.8580  135.4300 C   0  0  0  0  0  2  0  0  0  0  0  0
  185.2680  175.8690  137.2740 O   0  0  0  0  0  1  0  0  0  0  0  0
  185.5210  175.2780  136.0350 C   0  0  2  0  0  3  0  0  0  0  0  0
  184.8170  172.7650  135.2730 O   0  0  0  0  0  0  0  0  0  0  0  0
  185.7150  173.4860  136.2540 P   0  0  2  0  0  0  0  0  0  0  0  0
  185.2680  173.0750  137.8340 O   0  0  0  0  0  1  0  0  0  0  0  0
  187.3350  173.0640  135.9790 O   0  0  0  0  0  0  0  0  0  0  0  0
  187.7210  172.3230  137.0970 C   0  0  0  0  0  1  0  0  0  0  0  0
  1  8  1  0  0  0  0
  4  2  2  0  0  0  0
  5  7  1  0  0  0  0
  6 12  2  0  0  0  0
  6 10  1  0  0  0  0
  7 13  1  0  0  0  0
  7  1  2  0  0  0  0
  8 11  1  0  0  0  0
  9  5  2  0  0  0  0
  9  6  1  0  0  0  0
 10  1  1  0  0  0  0
 10  2  1  0  0  0  0
 11  3  1  6  0  0  0
 11 18  1  0  0  0  0
 12  4  1  0  0  0  0
 13  3  2  0  0  0  0
 14 19  1  0  0  0  0
 15 18  1  0  0  0  0
 15 14  1  0  0  0  0
 16 19  1  0  0  0  0
 17 16  1  0  0  0  0
 18 17  1  0  0  0  0
 21 12  1  0  0  0  0
 22 20  2  0  0  0  0
 22 21  1  0  0  0  0
 23 22  1  0  0  0  0
 24 28  1  1  0  0  0
 24 27  1  0  0  0  0
 24 25  1  0  0  0  0
 25  5  1  0  0  0  0
 27 26  1  1  0  0  0
 27 25  1  0  0  0  0
 30 29  1  6  0  0  0
 30 28  1  0  0  0  0
 31 33  1  0  0  0  0
 31 30  1  0  0  0  0
 33 35  1  0  0  0  0
 33 32  1  1  0  0  0
 35 34  2  6  0  0  0
 35 36  1  0  0  0  0
 37 35  1  0  0  0  0
 37 38  1  0  0  0  0
M  END
>  <MODEL>
4

>  <REMARK>
 VINA RESULT:      -8.0      2.996      6.389
  Name = 
  9 active torsions:
  status: ('A' for Active; 'I' for Inactive)
    1  A    between atoms: C_2  and  C_18
    2  A    between atoms: C_2  and  C_23
    3  A    between atoms: N_7  and  C_36
    4  A    between atoms: O_8  and  P_16
    5  A    between atoms: CA_12  and  C_20
    6  A    between atoms: C_13  and  N_19
    7  A    between atoms: P_16  and  C_18
    8  A    between atoms: C_20  and  C_23
    9  A    between atoms: N_30  and  C_35
                            x       y       z     vdW  Elec       q    Type
                         _______ _______ _______ _____ _____    ______ ____

>  <TORSDO>
F 9

$$$$
=
 OpenBabel11042410343D

 38 42  0  0  1  0  0  0  0  0999 V2000
  185.8570  178.3350  143.1240 C   0  0  0  0  0  0  0  0  0  0  0  0
  186.0520  177.8630  145.4690 N   0  0  0  0  0  0  0  0  0  0  0  0
  184.5060  178.9020  140.6830 C   0  0  0  0  0  3  0  0  0  0  0  0
  187.0600  177.4530  146.2800 C   0  0  0  0  0  3  0  0  0  0  0  0
  187.9310  178.0430  141.8720 C   0  0  0  0  0  0  0  0  0  0  0  0
  187.8290  177.6150  144.2230 C   0  0  0  0  0  0  0  0  0  0  0  0
  186.5580  178.3870  141.9000 C   0  0  0  0  0  0  0  0  0  0  0  0
  184.4290  178.8000  143.1890 C   0  0  0  0  0  2  0  0  0  0  0  0
  188.5820  177.6460  143.0510 C   0  0  0  0  0  3  0  0  0  0  0  0
  186.5340  177.9540  144.2400 N   0  0  0  0  0  0  0  0  0  0  0  0
  183.6860  178.4640  141.8810 C   0  0  1  0  0  3  0  0  0  0  0  0
  188.2010  177.2880  145.5000 C   0  0  0  0  0  0  0  0  0  0  0  0
  185.8390  178.8160  140.6860 C   0  0  0  0  0  3  0  0  0  0  0  0
  180.3940  179.6780  143.2670 C   0  0  0  0  0  2  0  0  0  0  0  0
  181.7700  178.9980  143.2050 C   0  0  0  0  0  2  0  0  0  0  0  0
  180.0480  178.8120  140.9210 C   0  0  0  0  0  2  0  0  0  0  0  0
  181.4780  178.2520  140.9930 C   0  0  0  0  0  2  0  0  0  0  0  0
  182.3450  179.0660  141.8560 N   0  0  0  0  0  0  0  0  0  0  0  0
  179.8330  179.9850  141.8780 C   0  0  0  0  0  2  0  0  0  0  0  0
  189.4340  177.7660  148.0890 O   0  0  0  0  0  0  0  0  0  0  0  0
  189.5060  176.8750  145.9220 N   0  0  0  0  0  2  0  0  0  0  0  0
  190.0740  177.1310  147.2100 C   0  0  0  0  0  0  0  0  0  0  0  0
  191.4430  176.6410  147.5140 C   0  0  0  0  0  1  0  0  0  0  0  0
  188.7860  178.3700  139.1890 C   0  0  1  0  0  3  0  0  0  0  0  0
  188.6730  178.0950  140.6540 N   0  0  0  0  0  0  0  0  0  0  0  0
  190.1120  176.5020  139.6730 O   0  0  0  0  0  1  0  0  0  0  0  0
  189.9090  177.8750  139.8420 C   0  0  1  0  0  3  0  0  0  0  0  0
  187.9460  177.3460  138.4180 C   0  0  0  0  0  2  0  0  0  0  0  0
  187.5750  179.1320  136.8590 O   0  0  0  0  0  1  0  0  0  0  0  0
  186.9800  178.0130  137.4420 C   0  0  1  0  0  3  0  0  0  0  0  0
  186.5080  177.0540  136.3560 C   0  0  0  0  0  2  0  0  0  0  0  0
  184.4650  177.5680  137.4850 O   0  0  0  0  0  1  0  0  0  0  0  0
  185.0100  176.8120  136.4460 C   0  0  2  0  0  3  0  0  0  0  0  0
  184.1570  174.4120  135.4960 O   0  0  0  0  0  0  0  0  0  0  0  0
  184.6940  175.0520  136.7570 P   0  0  2  0  0  0  0  0  0  0  0  0
  183.5480  174.9100  137.9940 O   0  0  0  0  0  1  0  0  0  0  0  0
  186.1440  174.3000  137.2190 O   0  0  0  0  0  0  0  0  0  0  0  0
  185.7880  173.0020  137.5890 C   0  0  0  0  0  1  0  0  0  0  0  0
  1  8  1  0  0  0  0
  1 10  1  0  0  0  0
  2  4  2  0  0  0  0
  3 13  2  0  0  0  0
  5  7  1  0  0  0  0
  5  9  2  0  0  0  0
  6 10  1  0  0  0  0
  6 12  2  0  0  0  0
  7  1  2  0  0  0  0
  9  6  1  0  0  0  0
 10  2  1  0  0  0  0
 11  3  1  6  0  0  0
 11  8  1  0  0  0  0
 12 21  1  0  0  0  0
 12  4  1  0  0  0  0
 13  7  1  0  0  0  0
 15 14  1  0  0  0  0
 16 17  1  0  0  0  0
 16 19  1  0  0  0  0
 17 18  1  0  0  0  0
 18 11  1  0  0  0  0
 18 15  1  0  0  0  0
 19 14  1  0  0  0  0
 21 22  1  0  0  0  0
 22 23  1  0  0  0  0
 22 20  2  0  0  0  0
 24 28  1  6  0  0  0
 24 27  1  0  0  0  0
 24 25  1  0  0  0  0
 25  5  1  0  0  0  0
 27 26  1  6  0  0  0
 27 25  1  0  0  0  0
 30 29  1  6  0  0  0
 30 28  1  0  0  0  0
 31 33  1  0  0  0  0
 31 30  1  0  0  0  0
 33 35  1  0  0  0  0
 33 32  1  1  0  0  0
 35 34  2  6  0  0  0
 35 37  1  0  0  0  0
 35 36  1  0  0  0  0
 37 38  1  0  0  0  0
M  END
>  <MODEL>
5

>  <REMARK>
 VINA RESULT:      -8.0      3.165      7.217
  Name = 
  9 active torsions:
  status: ('A' for Active; 'I' for Inactive)
    1  A    between atoms: C_2  and  C_18
    2  A    between atoms: C_2  and  C_23
    3  A    between atoms: N_7  and  C_36
    4  A    between atoms: O_8  and  P_16
    5  A    between atoms: CA_12  and  C_20
    6  A    between atoms: C_13  and  N_19
    7  A    between atoms: P_16  and  C_18
    8  A    between atoms: C_20  and  C_23
    9  A    between atoms: N_30  and  C_35
                            x       y       z     vdW  Elec       q    Type
                         _______ _______ _______ _____ _____    ______ ____

>  <TORSDO>
F 9

$$$$
=
 OpenBabel11042410343D

 38 42  0  0  1  0  0  0  0  0999 V2000
  188.0840  177.8370  142.1660 C   0  0  0  0  0  0  0  0  0  0  0  0
  190.2880  177.4920  141.2820 N   0  0  0  0  0  0  0  0  0  0  0  0
  186.0450  177.8430  144.1530 C   0  0  0  0  0  3  0  0  0  0  0  0
  190.8270  177.4890  140.0360 C   0  0  0  0  0  3  0  0  0  0  0  0
  186.3930  178.3180  140.4750 C   0  0  0  0  0  0  0  0  0  0  0  0
  188.6700  177.9040  139.8720 C   0  0  0  0  0  0  0  0  0  0  0  0
  186.7450  178.1320  141.8330 C   0  0  0  0  0  0  0  0  0  0  0  0
  188.4930  177.7430  143.6100 C   0  0  0  0  0  2  0  0  0  0  0  0
  187.3690  178.1990  139.4720 C   0  0  0  0  0  3  0  0  0  0  0  0
  188.9940  177.7420  141.1610 N   0  0  0  0  0  0  0  0  0  0  0  0
  187.3560  177.1450  144.4620 C   0  0  1  0  0  3  0  0  0  0  0  0
  189.8070  177.7490  139.1240 C   0  0  0  0  0  0  0  0  0  0  0  0
  185.7520  178.2550  142.9170 C   0  0  0  0  0  3  0  0  0  0  0  0
  187.1570  178.4170  148.0080 C   0  0  0  0  0  2  0  0  0  0  0  0
  186.9330  178.3350  146.4910 C   0  0  0  0  0  2  0  0  0  0  0  0
  189.5040  177.6150  147.5340 C   0  0  0  0  0  2  0  0  0  0  0  0
  189.0960  177.5190  146.0550 C   0  0  0  0  0  2  0  0  0  0  0  0
  187.6680  177.2110  145.8970 N   0  0  0  0  0  0  0  0  0  0  0  0
  188.3040  177.5190  148.4770 C   0  0  0  0  0  2  0  0  0  0  0  0
  189.0890  175.7150  137.1750 O   0  0  0  0  0  0  0  0  0  0  0  0
  189.9030  177.8500  137.6990 N   0  0  0  0  0  2  0  0  0  0  0  0
  189.5360  176.8210  136.7740 C   0  0  0  0  0  0  0  0  0  0  0  0
  189.6870  177.0630  135.3160 C   0  0  0  0  0  1  0  0  0  0  0  0
  183.7330  178.2670  139.4970 C   0  0  1  0  0  3  0  0  0  0  0  0
  185.0510  178.6280  140.1030 N   0  0  0  0  0  0  0  0  0  0  0  0
  184.1740  180.5050  138.9710 O   0  0  0  0  0  1  0  0  0  0  0  0
  183.8940  179.5650  139.9670 C   0  0  1  0  0  3  0  0  0  0  0  0
  183.9100  178.0670  137.9880 C   0  0  0  0  0  2  0  0  0  0  0  0
  185.0310  176.0540  137.3150 O   0  0  0  0  0  1  0  0  0  0  0  0
  183.7750  176.6010  137.5820 C   0  0  1  0  0  3  0  0  0  0  0  0
  183.0680  175.7730  138.6480 C   0  0  0  0  0  2  0  0  0  0  0  0
  181.7660  175.2890  136.7030 O   0  0  0  0  0  1  0  0  0  0  0  0
  181.9160  174.9780  138.0550 C   0  0  2  0  0  3  0  0  0  0  0  0
  179.7730  174.1090  139.4840 O   0  0  0  0  0  1  0  0  0  0  0  0
  180.3800  175.3810  138.9360 P   0  0  2  0  0  0  0  0  0  0  0  0
  179.2980  176.1010  137.8520 O   0  0  0  0  0  0  0  0  0  0  0  0
  180.7310  176.4520  140.2050 O   0  0  0  0  0  0  0  0  0  0  0  0
  180.0640  177.6360  139.8870 C   0  0  0  0  0  1  0  0  0  0  0  0
  1  8  1  0  0  0  0
  3 11  1  0  0  0  0
  4  2  2  0  0  0  0
  5  7  1  0  0  0  0
  6 10  1  0  0  0  0
  7  1  2  0  0  0  0
  7 13  1  0  0  0  0
  9  6  1  0  0  0  0
  9  5  2  0  0  0  0
 10  2  1  0  0  0  0
 10  1  1  0  0  0  0
 11  8  1  6  0  0  0
 11 18  1  0  0  0  0
 12  6  2  0  0  0  0
 12  4  1  0  0  0  0
 13  3  2  0  0  0  0
 14 19  1  0  0  0  0
 15 14  1  0  0  0  0
 16 19  1  0  0  0  0
 17 16  1  0  0  0  0
 18 17  1  0  0  0  0
 18 15  1  0  0  0  0
 21 12  1  0  0  0  0
 22 20  2  0  0  0  0
 22 21  1  0  0  0  0
 23 22  1  0  0  0  0
 24 28  1  6  0  0  0
 24 27  1  0  0  0  0
 24 25  1  0  0  0  0
 25  5  1  0  0  0  0
 27 26  1  6  0  0  0
 27 25  1  0  0  0  0
 30 29  1  1  0  0  0
 30 28  1  0  0  0  0
 30 31  1  0  0  0  0
 33 32  1  6  0  0  0
 33 31  1  0  0  0  0
 33 35  1  0  0  0  0
 35 36  2  6  0  0  0
 35 34  1  0  0  0  0
 35 37  1  0  0  0  0
 38 37  1  0  0  0  0
M  END
>  <MODEL>
6

>  <REMARK>
 VINA RESULT:      -7.9      1.875      2.771
  Name = 
  9 active torsions:
  status: ('A' for Active; 'I' for Inactive)
    1  A    between atoms: C_2  and  C_18
    2  A    between atoms: C_2  and  C_23
    3  A    between atoms: N_7  and  C_36
    4  A    between atoms: O_8  and  P_16
    5  A    between atoms: CA_12  and  C_20
    6  A    between atoms: C_13  and  N_19
    7  A    between atoms: P_16  and  C_18
    8  A    between atoms: C_20  and  C_23
    9  A    between atoms: N_30  and  C_35
                            x       y       z     vdW  Elec       q    Type
                         _______ _______ _______ _____ _____    ______ ____

>  <TORSDO>
F 9

$$$$
=
 OpenBabel11042410343D

 38 42  0  0  1  0  0  0  0  0999 V2000
  186.0120  178.2570  143.2160 C   0  0  0  0  0  0  0  0  0  0  0  0
  186.1620  177.8390  145.5750 N   0  0  0  0  0  0  0  0  0  0  0  0
  184.7070  178.7810  140.7400 C   0  0  0  0  0  3  0  0  0  0  0  0
  187.1530  177.4360  146.4110 C   0  0  0  0  0  3  0  0  0  0  0  0
  188.1020  177.9150  142.0050 C   0  0  0  0  0  0  0  0  0  0  0  0
  187.9580  177.5430  144.3640 C   0  0  0  0  0  0  0  0  0  0  0  0
  186.7330  178.2730  142.0030 C   0  0  0  0  0  0  0  0  0  0  0  0
  184.5880  178.7380  143.2460 C   0  0  0  0  0  2  0  0  0  0  0  0
  188.7290  177.5380  143.2040 C   0  0  0  0  0  3  0  0  0  0  0  0
  186.6660  177.8950  144.3510 N   0  0  0  0  0  0  0  0  0  0  0  0
  183.8620  178.3790  141.9340 C   0  0  1  0  0  3  0  0  0  0  0  0
  188.3050  177.2410  145.6540 C   0  0  0  0  0  0  0  0  0  0  0  0
  186.0380  178.6820  140.7670 C   0  0  0  0  0  3  0  0  0  0  0  0
  180.5080  179.5400  143.2120 C   0  0  0  0  0  2  0  0  0  0  0  0
  181.8800  178.8520  143.1830 C   0  0  0  0  0  2  0  0  0  0  0  0
  180.2840  178.8180  140.8020 C   0  0  0  0  0  2  0  0  0  0  0  0
  181.7040  178.2410  140.9180 C   0  0  0  0  0  2  0  0  0  0  0  0
  182.5280  178.9940  141.8730 N   0  0  0  0  0  0  0  0  0  0  0  0
  180.0240  179.9350  141.8140 C   0  0  0  0  0  2  0  0  0  0  0  0
  189.5330  177.8340  148.2220 O   0  0  0  0  0  0  0  0  0  0  0  0
  189.5980  176.8250  146.1070 N   0  0  0  0  0  2  0  0  0  0  0  0
  190.1640  177.1390  147.3830 C   0  0  0  0  0  0  0  0  0  0  0  0
  191.5210  176.6380  147.7230 C   0  0  0  0  0  1  0  0  0  0  0  0
  189.0010  178.1570  139.3280 C   0  0  1  0  0  3  0  0  0  0  0  0
  188.8640  177.9310  140.8000 N   0  0  0  0  0  0  0  0  0  0  0  0
  190.3310  176.3150  139.8970 O   0  0  0  0  0  1  0  0  0  0  0  0
  190.1160  177.6920  140.0160 C   0  0  1  0  0  3  0  0  0  0  0  0
  188.1800  177.1010  138.5780 C   0  0  0  0  0  2  0  0  0  0  0  0
  188.9740  178.4340  136.7470 O   0  0  0  0  0  1  0  0  0  0  0  0
  188.2730  177.2700  137.0630 C   0  0  1  0  0  3  0  0  0  0  0  0
  188.9320  176.0710  136.3920 C   0  0  0  0  0  2  0  0  0  0  0  0
  190.7460  176.5300  134.9060 O   0  0  0  0  0  1  0  0  0  0  0  0
  190.4300  176.2770  136.2410 C   0  0  2  0  0  3  0  0  0  0  0  0
  191.9230  174.0990  135.5950 O   0  0  0  0  0  0  0  0  0  0  0  0
  191.3080  174.7870  136.7940 P   0  0  2  0  0  0  0  0  0  0  0  0
  190.2040  173.7430  137.5380 O   0  0  0  0  0  1  0  0  0  0  0  0
  192.5210  175.2320  137.8940 O   0  0  0  0  0  0  0  0  0  0  0  0
  193.3250  176.1460  137.2120 C   0  0  0  0  0  1  0  0  0  0  0  0
  1  8  1  0  0  0  0
  1 10  1  0  0  0  0
  2  4  2  0  0  0  0
  3 13  2  0  0  0  0
  5  9  2  0  0  0  0
  6 12  2  0  0  0  0
  7  5  1  0  0  0  0
  7  1  2  0  0  0  0
  9  6  1  0  0  0  0
 10  6  1  0  0  0  0
 10  2  1  0  0  0  0
 11  3  1  6  0  0  0
 11  8  1  0  0  0  0
 12 21  1  0  0  0  0
 12  4  1  0  0  0  0
 13  7  1  0  0  0  0
 15 14  1  0  0  0  0
 16 17  1  0  0  0  0
 16 19  1  0  0  0  0
 17 18  1  0  0  0  0
 18 11  1  0  0  0  0
 18 15  1  0  0  0  0
 19 14  1  0  0  0  0
 21 22  1  0  0  0  0
 22 23  1  0  0  0  0
 22 20  2  0  0  0  0
 24 28  1  6  0  0  0
 24 27  1  0  0  0  0
 24 25  1  0  0  0  0
 25  5  1  0  0  0  0
 27 26  1  6  0  0  0
 27 25  1  0  0  0  0
 30 29  1  1  0  0  0
 30 28  1  0  0  0  0
 31 30  1  0  0  0  0
 33 32  1  6  0  0  0
 33 31  1  0  0  0  0
 33 35  1  0  0  0  0
 35 34  2  6  0  0  0
 35 36  1  0  0  0  0
 35 37  1  0  0  0  0
 38 37  1  0  0  0  0
M  END
>  <MODEL>
7

>  <REMARK>
 VINA RESULT:      -7.9      4.451      8.530
  Name = 
  9 active torsions:
  status: ('A' for Active; 'I' for Inactive)
    1  A    between atoms: C_2  and  C_18
    2  A    between atoms: C_2  and  C_23
    3  A    between atoms: N_7  and  C_36
    4  A    between atoms: O_8  and  P_16
    5  A    between atoms: CA_12  and  C_20
    6  A    between atoms: C_13  and  N_19
    7  A    between atoms: P_16  and  C_18
    8  A    between atoms: C_20  and  C_23
    9  A    between atoms: N_30  and  C_35
                            x       y       z     vdW  Elec       q    Type
                         _______ _______ _______ _____ _____    ______ ____

>  <TORSDO>
F 9

$$$$
=
 OpenBabel11042410343D

 38 42  0  0  1  0  0  0  0  0999 V2000
  188.0550  177.7810  142.1610 C   0  0  0  0  0  0  0  0  0  0  0  0
  190.1930  177.1960  141.2420 N   0  0  0  0  0  0  0  0  0  0  0  0
  186.0570  178.0000  144.1780 C   0  0  0  0  0  3  0  0  0  0  0  0
  190.7110  177.1440  139.9890 C   0  0  0  0  0  3  0  0  0  0  0  0
  186.4070  178.4690  140.4980 C   0  0  0  0  0  0  0  0  0  0  0  0
  188.6140  177.8040  139.8590 C   0  0  0  0  0  0  0  0  0  0  0  0
  186.7530  178.2300  141.8500 C   0  0  0  0  0  0  0  0  0  0  0  0
  188.4690  177.6270  143.5980 C   0  0  0  0  0  2  0  0  0  0  0  0
  187.3500  178.2490  139.4810 C   0  0  0  0  0  3  0  0  0  0  0  0
  188.9340  177.5940  141.1420 N   0  0  0  0  0  0  0  0  0  0  0  0
  187.2830  177.1540  144.4610 C   0  0  1  0  0  3  0  0  0  0  0  0
  189.7150  177.5280  139.0940 C   0  0  0  0  0  0  0  0  0  0  0  0
  185.7960  178.4550  142.9490 C   0  0  0  0  0  3  0  0  0  0  0  0
  187.1420  178.2970  148.0540 C   0  0  0  0  0  2  0  0  0  0  0  0
  186.8920  178.2680  146.5390 C   0  0  0  0  0  2  0  0  0  0  0  0
  189.4830  177.5220  147.5110 C   0  0  0  0  0  2  0  0  0  0  0  0
  189.0500  177.4770  146.0370 C   0  0  0  0  0  2  0  0  0  0  0  0
  187.6200  177.1690  145.8920 N   0  0  0  0  0  0  0  0  0  0  0  0
  188.3000  177.3870  148.4700 C   0  0  0  0  0  2  0  0  0  0  0  0
  188.5970  175.6920  137.1350 O   0  0  0  0  0  0  0  0  0  0  0  0
  189.8030  177.6310  137.6680 N   0  0  0  0  0  2  0  0  0  0  0  0
  189.2350  176.7030  136.7390 C   0  0  0  0  0  0  0  0  0  0  0  0
  189.4030  176.9350  135.2810 C   0  0  0  0  0  1  0  0  0  0  0  0
  183.6530  179.1400  140.4450 C   0  0  1  0  0  3  0  0  0  0  0  0
  185.1040  178.9330  140.1490 N   0  0  0  0  0  0  0  0  0  0  0  0
  183.8540  178.6300  138.1690 O   0  0  0  0  0  1  0  0  0  0  0  0
  184.1210  179.5390  139.1980 C   0  0  1  0  0  3  0  0  0  0  0  0
  182.9520  177.7790  140.5010 C   0  0  0  0  0  2  0  0  0  0  0  0
  181.2370  179.1610  141.4550 O   0  0  0  0  0  1  0  0  0  0  0  0
  181.4830  177.9050  140.9000 C   0  0  1  0  0  3  0  0  0  0  0  0
  180.5460  177.6680  139.7220 C   0  0  0  0  0  2  0  0  0  0  0  0
  179.4620  176.4010  141.4340 O   0  0  0  0  0  1  0  0  0  0  0  0
  179.4900  176.6280  140.0580 C   0  0  2  0  0  3  0  0  0  0  0  0
  178.9670  174.9350  137.9950 O   0  0  0  0  0  0  0  0  0  0  0  0
  179.8700  175.0730  139.2010 P   0  0  2  0  0  0  0  0  0  0  0  0
  179.5970  173.7820  140.2610 O   0  0  0  0  0  1  0  0  0  0  0  0
  181.4950  175.0910  138.7120 O   0  0  0  0  0  0  0  0  0  0  0  0
  181.5410  174.3220  137.5480 C   0  0  0  0  0  1  0  0  0  0  0  0
  1  8  1  0  0  0  0
  3 11  1  0  0  0  0
  4  2  2  0  0  0  0
  5  7  1  0  0  0  0
  6 10  1  0  0  0  0
  7  1  2  0  0  0  0
  7 13  1  0  0  0  0
  9  6  1  0  0  0  0
  9  5  2  0  0  0  0
 10  2  1  0  0  0  0
 10  1  1  0  0  0  0
 11  8  1  6  0  0  0
 11 18  1  0  0  0  0
 12  6  2  0  0  0  0
 12  4  1  0  0  0  0
 13  3  2  0  0  0  0
 14 19  1  0  0  0  0
 15 14  1  0  0  0  0
 16 19  1  0  0  0  0
 17 16  1  0  0  0  0
 18 17  1  0  0  0  0
 18 15  1  0  0  0  0
 21 12  1  0  0  0  0
 22 20  2  0  0  0  0
 22 21  1  0  0  0  0
 23 22  1  0  0  0  0
 24 28  1  6  0  0  0
 25 24  1  0  0  0  0
 25  5  1  0  0  0  0
 27 26  1  6  0  0  0
 27 25  1  0  0  0  0
 27 24  1  0  0  0  0
 28 30  1  0  0  0  0
 30 29  1  6  0  0  0
 31 33  1  0  0  0  0
 31 30  1  0  0  0  0
 33 32  1  1  0  0  0
 35 34  2  6  0  0  0
 35 33  1  0  0  0  0
 35 36  1  0  0  0  0
 37 35  1  0  0  0  0
 38 37  1  0  0  0  0
M  END
>  <MODEL>
8

>  <REMARK>
 VINA RESULT:      -7.9      1.544      2.689
  Name = 
  9 active torsions:
  status: ('A' for Active; 'I' for Inactive)
    1  A    between atoms: C_2  and  C_18
    2  A    between atoms: C_2  and  C_23
    3  A    between atoms: N_7  and  C_36
    4  A    between atoms: O_8  and  P_16
    5  A    between atoms: CA_12  and  C_20
    6  A    between atoms: C_13  and  N_19
    7  A    between atoms: P_16  and  C_18
    8  A    between atoms: C_20  and  C_23
    9  A    between atoms: N_30  and  C_35
                            x       y       z     vdW  Elec       q    Type
                         _______ _______ _______ _____ _____    ______ ____

>  <TORSDO>
F 9

$$$$
=
 OpenBabel11042410343D

 38 42  0  0  1  0  0  0  0  0999 V2000
  188.3130  177.7500  142.2290 C   0  0  0  0  0  0  0  0  0  0  0  0
  190.4990  177.1840  141.4150 N   0  0  0  0  0  0  0  0  0  0  0  0
  186.2280  177.9820  144.1540 C   0  0  0  0  0  3  0  0  0  0  0  0
  191.0700  177.1100  140.1860 C   0  0  0  0  0  3  0  0  0  0  0  0
  186.7230  178.3600  140.4810 C   0  0  0  0  0  0  0  0  0  0  0  0
  188.9670  177.7240  139.9520 C   0  0  0  0  0  0  0  0  0  0  0  0
  187.0180  178.1650  141.8520 C   0  0  0  0  0  0  0  0  0  0  0  0
  188.6700  177.6420  143.6850 C   0  0  0  0  0  2  0  0  0  0  0  0
  187.7120  178.1330  139.5100 C   0  0  0  0  0  3  0  0  0  0  0  0
  189.2380  177.5530  141.2530 N   0  0  0  0  0  0  0  0  0  0  0  0
  187.4580  177.1680  144.5110 C   0  0  1  0  0  3  0  0  0  0  0  0
  190.1050  177.4490  139.2410 C   0  0  0  0  0  0  0  0  0  0  0  0
  186.0110  178.3990  142.9040 C   0  0  0  0  0  3  0  0  0  0  0  0
  187.1540  178.4110  148.0600 C   0  0  0  0  0  2  0  0  0  0  0  0
  186.9680  178.3360  146.5380 C   0  0  0  0  0  2  0  0  0  0  0  0
  189.5240  177.6480  147.6380 C   0  0  0  0  0  2  0  0  0  0  0  0
  189.1530  177.5570  146.1490 C   0  0  0  0  0  2  0  0  0  0  0  0
  187.7340  177.2280  145.9540 N   0  0  0  0  0  0  0  0  0  0  0  0
  188.3030  177.5270  148.5510 C   0  0  0  0  0  2  0  0  0  0  0  0
  189.2370  175.4670  137.2980 O   0  0  0  0  0  0  0  0  0  0  0  0
  190.2510  177.5170  137.8180 N   0  0  0  0  0  2  0  0  0  0  0  0
  189.8060  176.5160  136.8960 C   0  0  0  0  0  0  0  0  0  0  0  0
  190.0210  176.7180  135.4400 C   0  0  0  0  0  1  0  0  0  0  0  0
  184.0010  179.1370  140.3440 C   0  0  1  0  0  3  0  0  0  0  0  0
  185.4280  178.7890  140.0660 N   0  0  0  0  0  0  0  0  0  0  0  0
  184.0850  178.0680  138.2630 O   0  0  0  0  0  1  0  0  0  0  0  0
  184.4320  179.1890  139.0240 C   0  0  1  0  0  3  0  0  0  0  0  0
  183.2460  177.8700  140.7600 C   0  0  0  0  0  2  0  0  0  0  0  0
  181.8270  178.9540  142.3640 O   0  0  0  0  0  1  0  0  0  0  0  0
  181.8170  178.1730  141.2080 C   0  0  1  0  0  3  0  0  0  0  0  0
  181.0100  178.8700  140.1200 C   0  0  0  0  0  2  0  0  0  0  0  0
  179.1220  179.7400  141.2980 O   0  0  0  0  0  1  0  0  0  0  0  0
  180.3070  180.1050  140.6590 C   0  0  2  0  0  3  0  0  0  0  0  0
  179.0230  182.3400  139.7940 O   0  0  0  0  0  1  0  0  0  0  0  0
  179.9260  181.2360  139.2910 P   0  0  2  0  0  0  0  0  0  0  0  0
  179.1340  180.3720  138.0700 O   0  0  0  0  0  0  0  0  0  0  0  0
  181.3720  181.8940  138.6940 O   0  0  0  0  0  0  0  0  0  0  0  0
  180.9940  182.7260  137.6400 C   0  0  0  0  0  1  0  0  0  0  0  0
  1  8  1  0  0  0  0
  3 11  1  0  0  0  0
  4  2  2  0  0  0  0
  5  7  1  0  0  0  0
  6 10  1  0  0  0  0
  7  1  2  0  0  0  0
  7 13  1  0  0  0  0
  9  6  1  0  0  0  0
  9  5  2  0  0  0  0
 10  2  1  0  0  0  0
 10  1  1  0  0  0  0
 11  8  1  6  0  0  0
 11 18  1  0  0  0  0
 12  6  2  0  0  0  0
 12  4  1  0  0  0  0
 13  3  2  0  0  0  0
 14 19  1  0  0  0  0
 15 14  1  0  0  0  0
 16 19  1  0  0  0  0
 17 16  1  0  0  0  0
 18 17  1  0  0  0  0
 18 15  1  0  0  0  0
 21 12  1  0  0  0  0
 22 20  2  0  0  0  0
 22 21  1  0  0  0  0
 23 22  1  0  0  0  0
 24 28  1  6  0  0  0
 25 24  1  0  0  0  0
 25  5  1  0  0  0  0
 27 26  1  6  0  0  0
 27 25  1  0  0  0  0
 27 24  1  0  0  0  0
 28 30  1  0  0  0  0
 30 29  1  1  0  0  0
 31 33  1  0  0  0  0
 31 30  1  0  0  0  0
 33 32  1  6  0  0  0
 35 36  2  6  0  0  0
 35 34  1  0  0  0  0
 35 33  1  0  0  0  0
 37 35  1  0  0  0  0
 38 37  1  0  0  0  0
M  END
>  <MODEL>
9

>  <REMARK>
 VINA RESULT:      -7.8      1.658      2.317
  Name = 
  9 active torsions:
  status: ('A' for Active; 'I' for Inactive)
    1  A    between atoms: C_2  and  C_18
    2  A    between atoms: C_2  and  C_23
    3  A    between atoms: N_7  and  C_36
    4  A    between atoms: O_8  and  P_16
    5  A    between atoms: CA_12  and  C_20
    6  A    between atoms: C_13  and  N_19
    7  A    between atoms: P_16  and  C_18
    8  A    between atoms: C_20  and  C_23
    9  A    between atoms: N_30  and  C_35
                            x       y       z     vdW  Elec       q    Type
                         _______ _______ _______ _____ _____    ______ ____

>  <TORSDO>
F 9

$$$$
