=
 OpenBabel11042413353D

 52 57  0  0  1  0  0  0  0  0999 V2000
  189.5830  176.7630  140.3840 C   0  0  2  0  0  3  0  0  0  0  0  0
  190.2080  177.0210  137.6150 C   0  0  0  0  0  2  0  0  0  0  0  0
  190.3250  175.7630  138.4900 C   0  0  2  0  0  3  0  0  0  0  0  0
  190.6960  176.1300  139.7940 O   0  0  0  0  0  0  0  0  0  0  0  0
  189.1230  177.9230  138.1890 C   0  0  1  0  0  3  0  0  0  0  0  0
  189.2870  178.1150  139.7040 C   0  0  1  0  0  3  0  0  0  0  0  0
  189.1610  179.1560  137.5370 O   0  0  0  0  0  1  0  0  0  0  0  0
  193.2510  173.9430  136.1050 C   0  0  0  0  0  2  0  0  0  0  0  0
  191.8360  173.3800  136.0190 C   0  0  0  0  0  2  0  0  0  0  0  0
  193.5690  174.2890  137.4890 N   0  0  0  0  0  0  0  0  0  0  0  0
  191.2700  174.7720  137.9600 N   0  0  1  0  0  0  0  0  0  0  0  0
  190.8640  174.4030  136.6010 C   0  0  0  0  0  2  0  0  0  0  0  0
  192.6320  175.3220  137.9210 C   0  0  0  0  0  2  0  0  0  0  0  0
  194.8900  174.8990  137.4880 C   0  0  0  0  0  2  0  0  0  0  0  0
  195.5860  172.7420  138.3620 C   0  0  0  0  0  2  0  0  0  0  0  0
  196.7640  173.3610  137.7360 N   0  0  0  0  0  2  0  0  0  0  0  0
  195.7920  174.1810  138.4740 C   0  0  1  0  0  3  0  0  0  0  0  0
  189.8280  176.9510  141.8840 C   0  0  2  0  0  3  0  0  0  0  0  0
  191.1720  176.7240  142.2050 O   0  0  0  0  0  0  0  0  0  0  0  0
  191.6590  177.9090  142.5070 O   0  0  0  0  0  0  0  0  0  0  0  0
  191.6680  177.9410  143.8230 O   0  0  0  0  0  1  0  0  0  0  0  0
  188.9410  176.0050  142.6750 C   0  0  0  0  0  2  0  0  0  0  0  0
  187.9600  176.7860  143.5330 C   0  0  0  0  0  2  0  0  0  0  0  0
  188.4860  176.9400  144.9500 C   0  0  0  0  0  2  0  0  0  0  0  0
  187.9490  178.2180  145.5790 C   0  0  0  0  0  2  0  0  0  0  0  0
  185.9790  177.0140  146.2010 F   0  0  0  0  0  0  0  0  0  0  0  0
  187.5170  177.4540  147.7970 F   0  0  0  0  0  0  0  0  0  0  0  0
  186.2510  179.1140  146.9600 F   0  0  0  0  0  0  0  0  0  0  0  0
  186.9040  177.9370  146.6550 C   0  0  0  0  0  0  0  0  0  0  0  0
  188.0000  178.7030  140.2790 C   0  0  0  0  0  2  0  0  0  0  0  0
  186.5620  178.2430  139.2670 S   0  0  0  0  0  0  0  0  0  0  0  0
  185.4450  178.2510  140.7070 C   0  0  2  0  0  3  0  0  0  0  0  0
  184.0640  178.4380  140.2870 N   0  0  0  0  0  0  0  0  0  0  0  0
  182.1110  179.2910  139.3100 C   0  0  0  0  0  0  0  0  0  0  0  0
  184.2060  180.4760  139.0930 O   0  0  0  0  0  0  0  0  0  0  0  0
  182.9800  177.5140  140.5860 C   0  0  0  0  0  2  0  0  0  0  0  0
  180.4350  177.5170  139.9510 C   0  0  0  0  0  1  0  0  0  0  0  0
  183.5300  179.5020  139.5180 C   0  0  0  0  0  0  0  0  0  0  0  0
  181.7860  178.1450  139.9220 C   0  0  0  0  0  0  0  0  0  0  0  0
  180.2650  183.2830  137.9360 N   0  0  0  0  0  2  0  0  0  0  0  0
  180.4120  181.1970  139.1750 C   0  0  0  0  0  2  0  0  0  0  0  0
  180.4660  183.5370  136.5180 C   0  0  0  0  0  2  0  0  0  0  0  0
  180.1050  181.1840  136.7510 C   0  0  2  0  0  3  0  0  0  0  0  0
  179.7380  181.9280  138.0280 C   0  0  2  0  0  3  0  0  0  0  0  0
  181.2300  180.1620  138.5740 N   0  0  0  0  0  0  0  0  0  0  0  0
  181.1170  180.1190  137.1300 C   0  0  0  0  0  2  0  0  0  0  0  0
  180.1740  182.1770  134.5940 O   0  0  0  0  0  1  0  0  0  0  0  0
  180.7560  182.2110  135.8600 C   0  0  1  0  0  3  0  0  0  0  0  0
  185.8580  179.3100  141.7160 C   0  0  0  0  0  2  0  0  0  0  0  0
  185.0390  179.1850  142.9260 C   0  0  0  0  0  0  0  0  0  0  0  0
  183.5080  178.9540  145.0980 C   0  0  0  0  0  1  0  0  0  0  0  0
  184.3510  179.0810  143.9100 C   0  0  0  0  0  0  0  0  0  0  0  0
  1 18  1  1  0  0  0
  2  5  1  0  0  0  0
  3  2  1  6  0  0  0
  3  4  1  0  0  0  0
  4  1  1  0  0  0  0
  5  7  1  6  0  0  0
  5  6  1  0  0  0  0
  6 30  1  1  0  0  0
  6  1  1  0  0  0  0
  8 10  1  0  0  0  0
  9  8  1  0  0  0  0
  9 12  1  0  0  0  0
 10 13  1  0  0  0  0
 11 12  1  6  0  0  0
 11  3  1  0  0  0  0
 13 11  1  0  0  0  0
 14 10  1  0  0  0  0
 15 17  1  0  0  0  0
 16 15  1  0  0  0  0
 16 17  1  0  0  0  0
 17 14  1  6  0  0  0
 18 19  1  0  0  0  0
 18 22  1  1  0  0  0
 19 20  1  0  0  0  0
 20 21  1  0  0  0  0
 22 23  1  0  0  0  0
 23 24  1  0  0  0  0
 24 25  1  0  0  0  0
 25 29  1  0  0  0  0
 26 29  1  0  0  0  0
 29 28  1  0  0  0  0
 29 27  1  0  0  0  0
 31 30  1  0  0  0  0
 31 32  1  0  0  0  0
 32 49  1  1  0  0  0
 33 36  1  0  0  0  0
 33 32  1  0  0  0  0
 34 38  1  0  0  0  0
 34 39  2  0  0  0  0
 35 38  2  0  0  0  0
 38 33  1  0  0  0  0
 39 37  1  0  0  0  0
 39 36  1  0  0  0  0
 40 44  1  0  0  0  0
 42 40  1  0  0  0  0
 43 46  1  1  0  0  0
 43 44  1  0  0  0  0
 44 41  1  1  0  0  0
 45 41  1  0  0  0  0
 45 34  1  0  0  0  0
 46 45  1  0  0  0  0
 48 47  1  6  0  0  0
 48 42  1  0  0  0  0
 48 43  1  0  0  0  0
 49 50  1  0  0  0  0
 50 52  3  0  0  0  0
 52 51  1  0  0  0  0
M  END
>  <MODEL>
1

>  <REMARK>
 VINA RESULT:      -7.9      0.000      0.000
  Name = 
  18 active torsions:
  status: ('A' for Active; 'I' for Inactive)
    1  A    between atoms: C_5  and  C_16
    2  A    between atoms: C_8  and  C_27
    3  A    between atoms: N_9  and  C_41
    4  A    between atoms: C_11  and  C_32
    5  A    between atoms: C_11  and  C_42
    6  A    between atoms: C_12  and  S_15
    7  A    between atoms: C_12  and  C_40
    8  A    between atoms: O_13  and  O_18
    9  A    between atoms: C_14  and  C_16
   10  A    between atoms: C_14  and  C_43
   11  A    between atoms: S_15  and  C_49
   12  A    between atoms: C_16  and  O_18
   13  A    between atoms: N_19  and  C_49
   14  A    between atoms: N_21  and  C_30
   15  A    between atoms: N_24  and  C_26
   16  A    between atoms: C_27  and  C_49
   17  A    between atoms: C_41  and  C_52
   18  A    between atoms: C_42  and  C_43
                            x       y       z     vdW  Elec       q    Type
                         _______ _______ _______ _____ _____    ______ ____

>  <TORSDO>
F 18

$$$$
=
 OpenBabel11042413353D

 52 57  0  0  1  0  0  0  0  0999 V2000
  189.2310  176.9320  140.7310 C   0  0  2  0  0  3  0  0  0  0  0  0
  189.5390  177.1670  137.9080 C   0  0  0  0  0  2  0  0  0  0  0  0
  189.8160  175.9340  138.7820 C   0  0  2  0  0  3  0  0  0  0  0  0
  190.3050  176.3460  140.0330 O   0  0  0  0  0  0  0  0  0  0  0  0
  188.4770  178.0240  138.5830 C   0  0  1  0  0  3  0  0  0  0  0  0
  188.7930  178.2540  140.0690 C   0  0  1  0  0  3  0  0  0  0  0  0
  188.3800  179.2450  137.9140 O   0  0  0  0  0  1  0  0  0  0  0  0
  192.6610  174.2700  136.1940 C   0  0  0  0  0  2  0  0  0  0  0  0
  191.2500  173.6930  136.1390 C   0  0  0  0  0  2  0  0  0  0  0  0
  193.0320  174.5520  137.5800 N   0  0  0  0  0  0  0  0  0  0  0  0
  190.7490  174.9820  138.1660 N   0  0  1  0  0  0  0  0  0  0  0  0
  190.2920  174.6740  136.8080 C   0  0  0  0  0  2  0  0  0  0  0  0
  192.1020  175.5510  138.1000 C   0  0  0  0  0  2  0  0  0  0  0  0
  194.3450  175.1780  137.5560 C   0  0  0  0  0  2  0  0  0  0  0  0
  196.0670  174.2060  138.9670 C   0  0  0  0  0  2  0  0  0  0  0  0
  195.0650  173.1580  138.7140 N   0  0  0  0  0  2  0  0  0  0  0  0
  195.4260  174.1180  137.6600 C   0  0  1  0  0  3  0  0  0  0  0  0
  189.6250  177.1620  142.1930 C   0  0  2  0  0  3  0  0  0  0  0  0
  190.9570  176.7900  142.4180 O   0  0  0  0  0  0  0  0  0  0  0  0
  191.6460  177.9080  142.3320 O   0  0  0  0  0  0  0  0  0  0  0  0
  191.4860  178.4880  143.5040 O   0  0  0  0  0  1  0  0  0  0  0  0
  188.7070  176.3690  143.1070 C   0  0  0  0  0  2  0  0  0  0  0  0
  187.9010  177.3040  143.9930 C   0  0  0  0  0  2  0  0  0  0  0  0
  188.0560  176.9270  145.4570 C   0  0  0  0  0  2  0  0  0  0  0  0
  189.1350  177.7770  146.1130 C   0  0  0  0  0  2  0  0  0  0  0  0
  189.1150  178.6610  148.3340 F   0  0  0  0  0  0  0  0  0  0  0  0
  188.3080  176.5770  148.0000 F   0  0  0  0  0  0  0  0  0  0  0  0
  190.5190  176.9710  147.8520 F   0  0  0  0  0  0  0  0  0  0  0  0
  189.2650  177.4950  147.6060 C   0  0  0  0  0  0  0  0  0  0  0  0
  187.5460  178.7870  140.7720 C   0  0  0  0  0  2  0  0  0  0  0  0
  186.0380  178.3370  139.8600 S   0  0  0  0  0  0  0  0  0  0  0  0
  185.0420  178.2680  141.3850 C   0  0  2  0  0  3  0  0  0  0  0  0
  183.6260  178.1520  141.0690 N   0  0  0  0  0  0  0  0  0  0  0  0
  181.5830  177.4890  140.1300 C   0  0  0  0  0  0  0  0  0  0  0  0
  183.6570  176.5130  139.3630 O   0  0  0  0  0  0  0  0  0  0  0  0
  182.5700  178.9070  141.7290 C   0  0  0  0  0  2  0  0  0  0  0  0
  179.9630  178.9050  141.4480 C   0  0  0  0  0  1  0  0  0  0  0  0
  183.0200  177.3010  140.1100 C   0  0  0  0  0  0  0  0  0  0  0  0
  181.3150  178.4120  141.0620 C   0  0  0  0  0  0  0  0  0  0  0  0
  179.7760  175.8360  136.2270 N   0  0  0  0  0  2  0  0  0  0  0  0
  180.0280  177.3580  138.1050 C   0  0  0  0  0  2  0  0  0  0  0  0
  179.7030  174.3830  136.2120 C   0  0  0  0  0  2  0  0  0  0  0  0
  179.2350  175.0730  138.4540 C   0  0  2  0  0  3  0  0  0  0  0  0
  179.1870  176.2530  137.4920 C   0  0  2  0  0  3  0  0  0  0  0  0
  180.6330  176.7970  139.2960 N   0  0  0  0  0  0  0  0  0  0  0  0
  180.2270  175.4290  139.5460 C   0  0  0  0  0  2  0  0  0  0  0  0
  178.9330  172.8060  137.8120 O   0  0  0  0  0  1  0  0  0  0  0  0
  179.7610  173.9150  137.6450 C   0  0  1  0  0  3  0  0  0  0  0  0
  185.3100  179.4730  142.2710 C   0  0  0  0  0  2  0  0  0  0  0  0
  185.0780  179.1150  143.6740 C   0  0  0  0  0  0  0  0  0  0  0  0
  184.6220  178.4320  146.2120 C   0  0  0  0  0  1  0  0  0  0  0  0
  184.8750  178.8100  144.8220 C   0  0  0  0  0  0  0  0  0  0  0  0
  1 18  1  1  0  0  0
  2  5  1  0  0  0  0
  3  2  1  6  0  0  0
  3  4  1  0  0  0  0
  4  1  1  0  0  0  0
  5  7  1  6  0  0  0
  5  6  1  0  0  0  0
  6  1  1  0  0  0  0
  6 30  1  1  0  0  0
  8 10  1  0  0  0  0
  9  8  1  0  0  0  0
  9 12  1  0  0  0  0
 10 13  1  0  0  0  0
 11 12  1  6  0  0  0
 11  3  1  0  0  0  0
 13 11  1  0  0  0  0
 14 10  1  0  0  0  0
 16 15  1  0  0  0  0
 17 14  1  1  0  0  0
 17 16  1  0  0  0  0
 17 15  1  0  0  0  0
 18 19  1  0  0  0  0
 18 22  1  1  0  0  0
 20 19  1  0  0  0  0
 20 21  1  0  0  0  0
 22 23  1  0  0  0  0
 23 24  1  0  0  0  0
 24 25  1  0  0  0  0
 25 29  1  0  0  0  0
 29 28  1  0  0  0  0
 29 27  1  0  0  0  0
 29 26  1  0  0  0  0
 31 30  1  0  0  0  0
 31 32  1  0  0  0  0
 32 49  1  6  0  0  0
 33 32  1  0  0  0  0
 33 36  1  0  0  0  0
 34 39  2  0  0  0  0
 35 38  2  0  0  0  0
 38 34  1  0  0  0  0
 38 33  1  0  0  0  0
 39 37  1  0  0  0  0
 39 36  1  0  0  0  0
 40 44  1  0  0  0  0
 41 45  1  0  0  0  0
 42 40  1  0  0  0  0
 42 48  1  0  0  0  0
 43 46  1  1  0  0  0
 44 41  1  1  0  0  0
 44 43  1  0  0  0  0
 45 46  1  0  0  0  0
 45 34  1  0  0  0  0
 48 47  1  6  0  0  0
 48 43  1  0  0  0  0
 49 50  1  0  0  0  0
 50 52  3  0  0  0  0
 52 51  1  0  0  0  0
M  END
>  <MODEL>
2

>  <REMARK>
 VINA RESULT:      -7.1      2.504      3.268
  Name = 
  18 active torsions:
  status: ('A' for Active; 'I' for Inactive)
    1  A    between atoms: C_5  and  C_16
    2  A    between atoms: C_8  and  C_27
    3  A    between atoms: N_9  and  C_41
    4  A    between atoms: C_11  and  C_32
    5  A    between atoms: C_11  and  C_42
    6  A    between atoms: C_12  and  S_15
    7  A    between atoms: C_12  and  C_40
    8  A    between atoms: O_13  and  O_18
    9  A    between atoms: C_14  and  C_16
   10  A    between atoms: C_14  and  C_43
   11  A    between atoms: S_15  and  C_49
   12  A    between atoms: C_16  and  O_18
   13  A    between atoms: N_19  and  C_49
   14  A    between atoms: N_21  and  C_30
   15  A    between atoms: N_24  and  C_26
   16  A    between atoms: C_27  and  C_49
   17  A    between atoms: C_41  and  C_52
   18  A    between atoms: C_42  and  C_43
                            x       y       z     vdW  Elec       q    Type
                         _______ _______ _______ _____ _____    ______ ____

>  <TORSDO>
F 18

$$$$
=
 OpenBabel11042413353D

 52 57  0  0  1  0  0  0  0  0999 V2000
  183.1820  179.1170  141.8400 C   0  0  2  0  0  3  0  0  0  0  0  0
  182.9350  178.6930  139.0330 C   0  0  0  0  0  2  0  0  0  0  0  0
  182.3070  179.8180  139.8710 C   0  0  2  0  0  3  0  0  0  0  0  0
  181.9750  179.3260  141.1440 O   0  0  0  0  0  0  0  0  0  0  0  0
  184.2110  178.2220  139.7160 C   0  0  1  0  0  3  0  0  0  0  0  0
  183.9920  177.9640  141.2140 C   0  0  1  0  0  3  0  0  0  0  0  0
  184.6660  177.0620  139.0860 O   0  0  0  0  0  1  0  0  0  0  0  0
  179.3800  182.6100  138.7750 C   0  0  0  0  0  2  0  0  0  0  0  0
  178.9370  181.4500  139.6620 C   0  0  0  0  0  2  0  0  0  0  0  0
  180.3300  182.1370  137.7690 N   0  0  0  0  0  0  0  0  0  0  0  0
  181.1250  180.4220  139.2410 N   0  0  1  0  0  0  0  0  0  0  0  0
  180.1730  180.8090  140.2860 C   0  0  0  0  0  2  0  0  0  0  0  0
  181.5010  181.6140  138.4680 C   0  0  0  0  0  2  0  0  0  0  0  0
  180.7780  183.2990  137.0190 C   0  0  0  0  0  2  0  0  0  0  0  0
  180.6790  182.6410  134.6830 C   0  0  0  0  0  2  0  0  0  0  0  0
  179.4910  182.0810  135.3460 N   0  0  0  0  0  2  0  0  0  0  0  0
  180.0010  183.4090  135.7200 C   0  0  1  0  0  3  0  0  0  0  0  0
  182.8870  178.8340  143.3170 C   0  0  2  0  0  3  0  0  0  0  0  0
  181.5900  179.2390  143.6550 O   0  0  0  0  0  0  0  0  0  0  0  0
  180.9950  178.1510  144.0960 O   0  0  0  0  0  0  0  0  0  0  0  0
  179.7110  178.4450  144.0840 O   0  0  0  0  0  1  0  0  0  0  0  0
  183.8980  179.5550  144.1920 C   0  0  0  0  0  2  0  0  0  0  0  0
  184.1170  178.7950  145.4890 C   0  0  0  0  0  2  0  0  0  0  0  0
  185.5760  178.3930  145.6390 C   0  0  0  0  0  2  0  0  0  0  0  0
  186.1260  178.8810  146.9720 C   0  0  0  0  0  2  0  0  0  0  0  0
  188.4940  178.6580  147.2130 F   0  0  0  0  0  0  0  0  0  0  0  0
  187.1640  177.7910  148.8210 F   0  0  0  0  0  0  0  0  0  0  0  0
  187.2690  176.8180  146.7940 F   0  0  0  0  0  0  0  0  0  0  0  0
  187.2900  178.0260  147.4630 C   0  0  0  0  0  0  0  0  0  0  0  0
  185.3480  177.8570  141.9110 C   0  0  0  0  0  2  0  0  0  0  0  0
  186.4260  179.2490  141.4580 S   0  0  0  0  0  0  0  0  0  0  0  0
  187.9380  178.2790  141.7660 C   0  0  2  0  0  3  0  0  0  0  0  0
  188.5180  177.8170  140.5120 N   0  0  0  0  0  0  0  0  0  0  0  0
  189.9110  176.8030  138.9230 C   0  0  0  0  0  0  0  0  0  0  0  0
  190.4600  176.7000  141.2750 O   0  0  0  0  0  0  0  0  0  0  0  0
  187.9320  178.0460  139.2000 C   0  0  0  0  0  2  0  0  0  0  0  0
  188.6690  177.3230  136.7890 C   0  0  0  0  0  1  0  0  0  0  0  0
  189.7070  177.0670  140.3340 C   0  0  0  0  0  0  0  0  0  0  0  0
  188.8900  177.3630  138.2620 C   0  0  0  0  0  0  0  0  0  0  0  0
  192.2000  174.3560  135.7600 N   0  0  0  0  0  2  0  0  0  0  0  0
  190.9020  174.7420  137.7780 C   0  0  0  0  0  2  0  0  0  0  0  0
  193.3930  175.0350  135.2780 C   0  0  0  0  0  2  0  0  0  0  0  0
  193.2040  175.5440  137.6070 C   0  0  2  0  0  3  0  0  0  0  0  0
  192.2700  174.4070  137.2140 C   0  0  2  0  0  3  0  0  0  0  0  0
  191.0130  176.0670  138.3560 N   0  0  0  0  0  0  0  0  0  0  0  0
  192.3500  176.6150  138.2610 C   0  0  0  0  0  2  0  0  0  0  0  0
  195.1610  176.1500  136.4040 O   0  0  0  0  0  1  0  0  0  0  0  0
  193.7720  176.0650  136.3120 C   0  0  1  0  0  3  0  0  0  0  0  0
  187.6640  177.1150  142.7040 C   0  0  0  0  0  2  0  0  0  0  0  0
  188.6940  177.0670  143.7460 C   0  0  0  0  0  0  0  0  0  0  0  0
  190.5790  176.9340  145.6290 C   0  0  0  0  0  1  0  0  0  0  0  0
  189.5450  177.0120  144.5980 C   0  0  0  0  0  0  0  0  0  0  0  0
  1 18  1  1  0  0  0
  2  5  1  0  0  0  0
  3  2  1  6  0  0  0
  3  4  1  0  0  0  0
  4  1  1  0  0  0  0
  5  7  1  6  0  0  0
  5  6  1  0  0  0  0
  6  1  1  0  0  0  0
  6 30  1  1  0  0  0
  8  9  1  0  0  0  0
  9 12  1  0  0  0  0
 10 13  1  0  0  0  0
 10  8  1  0  0  0  0
 11 13  1  1  0  0  0
 11  3  1  0  0  0  0
 11 12  1  0  0  0  0
 14 10  1  0  0  0  0
 15 16  1  0  0  0  0
 15 17  1  0  0  0  0
 16 17  1  0  0  0  0
 17 14  1  1  0  0  0
 18 19  1  0  0  0  0
 18 22  1  1  0  0  0
 19 20  1  0  0  0  0
 21 20  1  0  0  0  0
 22 23  1  0  0  0  0
 23 24  1  0  0  0  0
 24 25  1  0  0  0  0
 25 29  1  0  0  0  0
 26 29  1  0  0  0  0
 28 29  1  0  0  0  0
 29 27  1  0  0  0  0
 31 32  1  0  0  0  0
 31 30  1  0  0  0  0
 32 49  1  1  0  0  0
 33 32  1  0  0  0  0
 34 38  1  0  0  0  0
 36 33  1  0  0  0  0
 37 39  1  0  0  0  0
 38 33  1  0  0  0  0
 38 35  2  0  0  0  0
 39 34  2  0  0  0  0
 39 36  1  0  0  0  0
 40 44  1  0  0  0  0
 41 45  1  0  0  0  0
 42 40  1  0  0  0  0
 42 48  1  0  0  0  0
 43 46  1  6  0  0  0
 44 43  1  0  0  0  0
 44 41  1  1  0  0  0
 45 34  1  0  0  0  0
 46 45  1  0  0  0  0
 48 47  1  1  0  0  0
 48 43  1  0  0  0  0
 49 50  1  0  0  0  0
 50 52  3  0  0  0  0
 52 51  1  0  0  0  0
M  END
>  <MODEL>
3

>  <REMARK>
 VINA RESULT:      -6.8      2.324     10.446
  Name = 
  18 active torsions:
  status: ('A' for Active; 'I' for Inactive)
    1  A    between atoms: C_5  and  C_16
    2  A    between atoms: C_8  and  C_27
    3  A    between atoms: N_9  and  C_41
    4  A    between atoms: C_11  and  C_32
    5  A    between atoms: C_11  and  C_42
    6  A    between atoms: C_12  and  S_15
    7  A    between atoms: C_12  and  C_40
    8  A    between atoms: O_13  and  O_18
    9  A    between atoms: C_14  and  C_16
   10  A    between atoms: C_14  and  C_43
   11  A    between atoms: S_15  and  C_49
   12  A    between atoms: C_16  and  O_18
   13  A    between atoms: N_19  and  C_49
   14  A    between atoms: N_21  and  C_30
   15  A    between atoms: N_24  and  C_26
   16  A    between atoms: C_27  and  C_49
   17  A    between atoms: C_41  and  C_52
   18  A    between atoms: C_42  and  C_43
                            x       y       z     vdW  Elec       q    Type
                         _______ _______ _______ _____ _____    ______ ____

>  <TORSDO>
F 18

$$$$
=
 OpenBabel11042413353D

 52 57  0  0  1  0  0  0  0  0999 V2000
  185.6370  178.5820  141.0500 C   0  0  2  0  0  3  0  0  0  0  0  0
  184.9070  178.6890  138.2970 C   0  0  0  0  0  2  0  0  0  0  0  0
  184.2320  179.4080  139.4760 C   0  0  2  0  0  3  0  0  0  0  0  0
  184.2950  178.5960  140.6200 O   0  0  0  0  0  0  0  0  0  0  0  0
  186.3720  178.4510  138.6380 C   0  0  1  0  0  3  0  0  0  0  0  0
  186.5370  177.8430  140.0400 C   0  0  1  0  0  3  0  0  0  0  0  0
  186.9340  177.6100  137.6760 O   0  0  0  0  0  1  0  0  0  0  0  0
  180.0710  179.1840  139.0220 C   0  0  0  0  0  2  0  0  0  0  0  0
  180.8990  179.3850  137.7560 C   0  0  0  0  0  2  0  0  0  0  0  0
  180.6310  179.9750  140.1170 N   0  0  0  0  0  0  0  0  0  0  0  0
  182.8380  179.7860  139.2050 N   0  0  1  0  0  0  0  0  0  0  0  0
  182.3500  179.0210  138.0540 C   0  0  0  0  0  2  0  0  0  0  0  0
  181.9880  179.4990  140.3690 C   0  0  0  0  0  2  0  0  0  0  0  0
  179.8540  179.6710  141.3080 C   0  0  0  0  0  2  0  0  0  0  0  0
  180.3180  178.9090  143.5680 C   0  0  0  0  0  2  0  0  0  0  0  0
  179.6100  177.8200  142.8760 N   0  0  0  0  0  2  0  0  0  0  0  0
  180.5890  178.6520  142.1590 C   0  0  1  0  0  3  0  0  0  0  0  0
  185.7320  177.9350  142.4350 C   0  0  2  0  0  3  0  0  0  0  0  0
  184.6160  178.2600  143.2180 O   0  0  0  0  0  0  0  0  0  0  0  0
  184.8340  179.4890  143.6340 O   0  0  0  0  0  0  0  0  0  0  0  0
  183.7250  179.8310  144.2580 O   0  0  0  0  0  1  0  0  0  0  0  0
  187.0020  178.3920  143.1330 C   0  0  0  0  0  2  0  0  0  0  0  0
  187.5250  177.3030  144.0540 C   0  0  0  0  0  2  0  0  0  0  0  0
  188.2910  177.9060  145.2210 C   0  0  0  0  0  2  0  0  0  0  0  0
  187.5990  177.5770  146.5360 C   0  0  0  0  0  2  0  0  0  0  0  0
  189.7320  176.8040  147.2880 F   0  0  0  0  0  0  0  0  0  0  0  0
  188.9150  178.7190  148.1640 F   0  0  0  0  0  0  0  0  0  0  0  0
  187.9930  176.7420  148.7130 F   0  0  0  0  0  0  0  0  0  0  0  0
  188.5850  177.4610  147.6940 C   0  0  0  0  0  0  0  0  0  0  0  0
  187.9970  177.9660  140.4720 C   0  0  0  0  0  2  0  0  0  0  0  0
  189.0610  178.4050  139.0650 S   0  0  0  0  0  0  0  0  0  0  0  0
  190.5140  177.5960  139.8100 C   0  0  2  0  0  3  0  0  0  0  0  0
  191.1250  176.6680  138.8690 N   0  0  0  0  0  0  0  0  0  0  0  0
  192.6820  175.4560  137.6030 C   0  0  0  0  0  0  0  0  0  0  0  0
  193.4230  177.1710  139.1370 O   0  0  0  0  0  0  0  0  0  0  0  0
  190.3860  175.7190  138.0500 C   0  0  0  0  0  2  0  0  0  0  0  0
  191.1600  173.9030  136.3230 C   0  0  0  0  0  1  0  0  0  0  0  0
  192.5060  176.5000  138.5930 C   0  0  0  0  0  0  0  0  0  0  0  0
  191.4640  175.0000  137.2850 C   0  0  0  0  0  0  0  0  0  0  0  0
  197.1570  175.6760  136.5280 N   0  0  0  0  0  2  0  0  0  0  0  0
  194.7590  175.7580  136.1430 C   0  0  0  0  0  2  0  0  0  0  0  0
  197.9530  174.6770  137.2230 C   0  0  0  0  0  2  0  0  0  0  0  0
  195.8570  173.6480  136.7020 C   0  0  2  0  0  3  0  0  0  0  0  0
  196.0330  174.9570  135.9440 C   0  0  2  0  0  3  0  0  0  0  0  0
  193.9440  175.0040  137.0730 N   0  0  0  0  0  0  0  0  0  0  0  0
  194.5520  173.7500  137.4710 C   0  0  0  0  0  2  0  0  0  0  0  0
  197.6480  172.3460  137.5640 O   0  0  0  0  0  1  0  0  0  0  0  0
  197.0130  173.5830  137.6680 C   0  0  1  0  0  3  0  0  0  0  0  0
  190.1490  176.8980  141.1100 C   0  0  0  0  0  2  0  0  0  0  0  0
  190.7440  177.6170  142.2400 C   0  0  0  0  0  0  0  0  0  0  0  0
  191.8710  178.9140  144.2810 C   0  0  0  0  0  1  0  0  0  0  0  0
  191.2490  178.2040  143.1640 C   0  0  0  0  0  0  0  0  0  0  0  0
  1 18  1  1  0  0  0
  2  5  1  0  0  0  0
  3  2  1  6  0  0  0
  3  4  1  0  0  0  0
  4  1  1  0  0  0  0
  5  7  1  6  0  0  0
  5  6  1  0  0  0  0
  6 30  1  1  0  0  0
  6  1  1  0  0  0  0
  8 10  1  0  0  0  0
  9 12  1  0  0  0  0
  9  8  1  0  0  0  0
 10 13  1  0  0  0  0
 10 14  1  0  0  0  0
 11 12  1  6  0  0  0
 11  3  1  0  0  0  0
 11 13  1  0  0  0  0
 16 15  1  0  0  0  0
 17 14  1  6  0  0  0
 17 16  1  0  0  0  0
 17 15  1  0  0  0  0
 18 22  1  1  0  0  0
 18 19  1  0  0  0  0
 19 20  1  0  0  0  0
 20 21  1  0  0  0  0
 22 23  1  0  0  0  0
 23 24  1  0  0  0  0
 24 25  1  0  0  0  0
 25 29  1  0  0  0  0
 26 29  1  0  0  0  0
 29 27  1  0  0  0  0
 29 28  1  0  0  0  0
 31 32  1  0  0  0  0
 31 30  1  0  0  0  0
 32 49  1  1  0  0  0
 33 32  1  0  0  0  0
 34 38  1  0  0  0  0
 36 33  1  0  0  0  0
 37 39  1  0  0  0  0
 38 33  1  0  0  0  0
 38 35  2  0  0  0  0
 39 34  2  0  0  0  0
 39 36  1  0  0  0  0
 40 42  1  0  0  0  0
 41 45  1  0  0  0  0
 42 48  1  0  0  0  0
 43 46  1  1  0  0  0
 43 48  1  0  0  0  0
 44 41  1  1  0  0  0
 44 40  1  0  0  0  0
 44 43  1  0  0  0  0
 45 46  1  0  0  0  0
 45 34  1  0  0  0  0
 48 47  1  6  0  0  0
 49 50  1  0  0  0  0
 50 52  3  0  0  0  0
 52 51  1  0  0  0  0
M  END
>  <MODEL>
4

>  <REMARK>
 VINA RESULT:      -6.6      2.507     10.864
  Name = 
  18 active torsions:
  status: ('A' for Active; 'I' for Inactive)
    1  A    between atoms: C_5  and  C_16
    2  A    between atoms: C_8  and  C_27
    3  A    between atoms: N_9  and  C_41
    4  A    between atoms: C_11  and  C_32
    5  A    between atoms: C_11  and  C_42
    6  A    between atoms: C_12  and  S_15
    7  A    between atoms: C_12  and  C_40
    8  A    between atoms: O_13  and  O_18
    9  A    between atoms: C_14  and  C_16
   10  A    between atoms: C_14  and  C_43
   11  A    between atoms: S_15  and  C_49
   12  A    between atoms: C_16  and  O_18
   13  A    between atoms: N_19  and  C_49
   14  A    between atoms: N_21  and  C_30
   15  A    between atoms: N_24  and  C_26
   16  A    between atoms: C_27  and  C_49
   17  A    between atoms: C_41  and  C_52
   18  A    between atoms: C_42  and  C_43
                            x       y       z     vdW  Elec       q    Type
                         _______ _______ _______ _____ _____    ______ ____

>  <TORSDO>
F 18

$$$$
=
 OpenBabel11042413353D

 52 57  0  0  1  0  0  0  0  0999 V2000
  187.9690  178.7050  141.3820 C   0  0  2  0  0  3  0  0  0  0  0  0
  185.2180  178.8690  140.6550 C   0  0  0  0  0  2  0  0  0  0  0  0
  185.8840  179.3990  141.9350 C   0  0  2  0  0  3  0  0  0  0  0  0
  186.9250  178.5370  142.3140 O   0  0  0  0  0  0  0  0  0  0  0  0
  186.2510  178.8400  139.5370 C   0  0  1  0  0  3  0  0  0  0  0  0
  187.5620  178.1790  139.9910 C   0  0  1  0  0  3  0  0  0  0  0  0
  185.7200  178.1590  138.4400 O   0  0  0  0  0  1  0  0  0  0  0  0
  183.4520  178.5690  145.2460 C   0  0  0  0  0  2  0  0  0  0  0  0
  182.7500  178.9270  143.9400 C   0  0  0  0  0  2  0  0  0  0  0  0
  184.6400  179.4040  145.4210 N   0  0  0  0  0  0  0  0  0  0  0  0
  184.9440  179.5720  143.0500 N   0  0  1  0  0  0  0  0  0  0  0  0
  183.7420  178.7750  142.7900 C   0  0  0  0  0  2  0  0  0  0  0  0
  185.5500  179.1290  144.3130 C   0  0  0  0  0  2  0  0  0  0  0  0
  185.3080  178.9540  146.6320 C   0  0  0  0  0  2  0  0  0  0  0  0
  187.3590  177.9900  147.5070 C   0  0  0  0  0  2  0  0  0  0  0  0
  186.8830  177.1050  146.4320 N   0  0  0  0  0  2  0  0  0  0  0  0
  186.7410  178.5640  146.3170 C   0  0  1  0  0  3  0  0  0  0  0  0
  189.2310  177.9960  141.8820 C   0  0  2  0  0  3  0  0  0  0  0  0
  189.1400  176.6110  141.6850 O   0  0  0  0  0  0  0  0  0  0  0  0
  189.2120  176.0870  142.8890 O   0  0  0  0  0  0  0  0  0  0  0  0
  190.2160  175.2380  142.8240 O   0  0  0  0  0  1  0  0  0  0  0  0
  189.4420  178.2940  143.3560 C   0  0  0  0  0  2  0  0  0  0  0  0
  190.8760  178.7270  143.6120 C   0  0  0  0  0  2  0  0  0  0  0  0
  191.5140  177.8680  144.6930 C   0  0  0  0  0  2  0  0  0  0  0  0
  190.4980  177.5390  145.7770 C   0  0  0  0  0  2  0  0  0  0  0  0
  191.5280  177.4790  147.9330 F   0  0  0  0  0  0  0  0  0  0  0  0
  190.1540  175.7830  147.3530 F   0  0  0  0  0  0  0  0  0  0  0  0
  192.1740  175.9840  146.3820 F   0  0  0  0  0  0  0  0  0  0  0  0
  191.0960  176.6830  146.8890 C   0  0  0  0  0  0  0  0  0  0  0  0
  188.6640  178.5000  138.9820 C   0  0  0  0  0  2  0  0  0  0  0  0
  188.3530  177.6760  137.3920 S   0  0  0  0  0  0  0  0  0  0  0  0
  189.0000  176.0850  138.0010 C   0  0  2  0  0  3  0  0  0  0  0  0
  190.4560  176.0890  138.0060 N   0  0  0  0  0  0  0  0  0  0  0  0
  192.7030  175.8190  137.3950 C   0  0  0  0  0  0  0  0  0  0  0  0
  190.9360  175.0710  135.9240 O   0  0  0  0  0  0  0  0  0  0  0  0
  191.2750  176.6290  139.0810 C   0  0  0  0  0  2  0  0  0  0  0  0
  193.8710  176.8410  139.3840 C   0  0  0  0  0  1  0  0  0  0  0  0
  191.3260  175.6050  136.9960 C   0  0  0  0  0  0  0  0  0  0  0  0
  192.6820  176.4100  138.5960 C   0  0  0  0  0  0  0  0  0  0  0  0
  197.0080  176.1730  135.7900 N   0  0  0  0  0  2  0  0  0  0  0  0
  194.5850  176.3650  135.7530 C   0  0  0  0  0  2  0  0  0  0  0  0
  197.8450  175.0460  136.1710 C   0  0  0  0  0  2  0  0  0  0  0  0
  195.6590  174.1700  135.7510 C   0  0  2  0  0  3  0  0  0  0  0  0
  195.7890  175.5980  135.2380 C   0  0  2  0  0  3  0  0  0  0  0  0
  193.8670  175.4580  136.6250 N   0  0  0  0  0  0  0  0  0  0  0  0
  194.4700  174.1420  136.6930 C   0  0  0  0  0  2  0  0  0  0  0  0
  197.4910  172.6990  136.1030 O   0  0  0  0  0  1  0  0  0  0  0  0
  196.9260  173.9020  136.5230 C   0  0  1  0  0  3  0  0  0  0  0  0
  188.4580  174.9230  137.1850 C   0  0  0  0  0  2  0  0  0  0  0  0
  187.1750  175.2980  136.5830 C   0  0  0  0  0  0  0  0  0  0  0  0
  184.8300  176.0090  135.5280 C   0  0  0  0  0  1  0  0  0  0  0  0
  186.1170  175.6170  136.1030 C   0  0  0  0  0  0  0  0  0  0  0  0
  1 18  1  1  0  0  0
  1  4  1  0  0  0  0
  3  2  1  6  0  0  0
  3  4  1  0  0  0  0
  3 11  1  0  0  0  0
  5  7  1  6  0  0  0
  5  6  1  0  0  0  0
  5  2  1  0  0  0  0
  6 30  1  6  0  0  0
  6  1  1  0  0  0  0
  8 10  1  0  0  0  0
  9  8  1  0  0  0  0
 10 14  1  0  0  0  0
 11 12  1  6  0  0  0
 11 13  1  0  0  0  0
 12  9  1  0  0  0  0
 13 10  1  0  0  0  0
 16 15  1  0  0  0  0
 17 16  1  0  0  0  0
 17 14  1  1  0  0  0
 17 15  1  0  0  0  0
 18 22  1  1  0  0  0
 19 18  1  0  0  0  0
 19 20  1  0  0  0  0
 21 20  1  0  0  0  0
 22 23  1  0  0  0  0
 23 24  1  0  0  0  0
 24 25  1  0  0  0  0
 25 29  1  0  0  0  0
 28 29  1  0  0  0  0
 29 27  1  0  0  0  0
 29 26  1  0  0  0  0
 31 32  1  0  0  0  0
 31 30  1  0  0  0  0
 32 49  1  6  0  0  0
 32 33  1  0  0  0  0
 33 36  1  0  0  0  0
 34 39  2  0  0  0  0
 35 38  2  0  0  0  0
 38 34  1  0  0  0  0
 38 33  1  0  0  0  0
 39 36  1  0  0  0  0
 39 37  1  0  0  0  0
 40 42  1  0  0  0  0
 41 45  1  0  0  0  0
 42 48  1  0  0  0  0
 43 48  1  0  0  0  0
 43 46  1  1  0  0  0
 44 43  1  0  0  0  0
 44 41  1  1  0  0  0
 44 40  1  0  0  0  0
 45 46  1  0  0  0  0
 45 34  1  0  0  0  0
 48 47  1  6  0  0  0
 50 49  1  0  0  0  0
 51 52  1  0  0  0  0
 52 50  3  0  0  0  0
M  END
>  <MODEL>
5

>  <REMARK>
 VINA RESULT:      -6.5      3.615     10.368
  Name = 
  18 active torsions:
  status: ('A' for Active; 'I' for Inactive)
    1  A    between atoms: C_5  and  C_16
    2  A    between atoms: C_8  and  C_27
    3  A    between atoms: N_9  and  C_41
    4  A    between atoms: C_11  and  C_32
    5  A    between atoms: C_11  and  C_42
    6  A    between atoms: C_12  and  S_15
    7  A    between atoms: C_12  and  C_40
    8  A    between atoms: O_13  and  O_18
    9  A    between atoms: C_14  and  C_16
   10  A    between atoms: C_14  and  C_43
   11  A    between atoms: S_15  and  C_49
   12  A    between atoms: C_16  and  O_18
   13  A    between atoms: N_19  and  C_49
   14  A    between atoms: N_21  and  C_30
   15  A    between atoms: N_24  and  C_26
   16  A    between atoms: C_27  and  C_49
   17  A    between atoms: C_41  and  C_52
   18  A    between atoms: C_42  and  C_43
                            x       y       z     vdW  Elec       q    Type
                         _______ _______ _______ _____ _____    ______ ____

>  <TORSDO>
F 18

$$$$
=
 OpenBabel11042413353D

 52 57  0  0  1  0  0  0  0  0999 V2000
  185.5540  178.7900  140.9320 C   0  0  2  0  0  3  0  0  0  0  0  0
  184.8730  178.4260  138.1880 C   0  0  0  0  0  2  0  0  0  0  0  0
  184.1660  179.3200  139.2200 C   0  0  2  0  0  3  0  0  0  0  0  0
  184.2200  178.7100  140.4840 O   0  0  0  0  0  0  0  0  0  0  0  0
  186.3350  178.2720  138.5870 C   0  0  1  0  0  3  0  0  0  0  0  0
  186.4820  177.9090  140.0730 C   0  0  1  0  0  3  0  0  0  0  0  0
  186.9260  177.2930  137.7880 O   0  0  0  0  0  1  0  0  0  0  0  0
  180.3380  181.0240  139.2690 C   0  0  0  0  0  2  0  0  0  0  0  0
  180.4480  179.5510  139.6490 C   0  0  0  0  0  2  0  0  0  0  0  0
  181.2410  181.3240  138.1580 N   0  0  0  0  0  0  0  0  0  0  0  0
  182.7730  179.6240  138.8680 N   0  0  1  0  0  0  0  0  0  0  0  0
  181.9030  179.2360  139.9820 C   0  0  0  0  0  2  0  0  0  0  0  0
  182.6060  181.0600  138.6050 C   0  0  0  0  0  2  0  0  0  0  0  0
  181.1540  182.7530  137.9060 C   0  0  0  0  0  2  0  0  0  0  0  0
  179.7140  184.4800  136.9860 C   0  0  0  0  0  2  0  0  0  0  0  0
  179.6500  183.3260  136.0750 N   0  0  0  0  0  2  0  0  0  0  0  0
  179.7320  183.1280  137.5300 C   0  0  1  0  0  3  0  0  0  0  0  0
  185.6320  178.3840  142.4060 C   0  0  2  0  0  3  0  0  0  0  0  0
  184.9790  179.3200  143.2190 O   0  0  0  0  0  0  0  0  0  0  0  0
  184.1810  178.6100  143.9880 O   0  0  0  0  0  0  0  0  0  0  0  0
  184.0850  179.3060  145.1020 O   0  0  0  0  0  1  0  0  0  0  0  0
  187.0850  178.2570  142.8310 C   0  0  0  0  0  2  0  0  0  0  0  0
  187.2240  177.2490  143.9580 C   0  0  0  0  0  2  0  0  0  0  0  0
  188.0610  177.8190  145.0920 C   0  0  0  0  0  2  0  0  0  0  0  0
  187.2700  177.8060  146.3930 C   0  0  0  0  0  2  0  0  0  0  0  0
  187.7750  178.6500  148.5720 F   0  0  0  0  0  0  0  0  0  0  0  0
  188.1390  176.4590  148.1580 F   0  0  0  0  0  0  0  0  0  0  0  0
  189.4700  178.0200  147.2340 F   0  0  0  0  0  0  0  0  0  0  0  0
  188.1750  177.7320  147.6180 C   0  0  0  0  0  0  0  0  0  0  0  0
  187.9330  178.1260  140.5020 C   0  0  0  0  0  2  0  0  0  0  0  0
  188.9930  178.4760  139.0680 S   0  0  0  0  0  0  0  0  0  0  0  0
  190.4190  177.6200  139.8140 C   0  0  2  0  0  3  0  0  0  0  0  0
  191.0260  176.7030  138.8580 N   0  0  0  0  0  0  0  0  0  0  0  0
  192.5780  175.4960  137.5820 C   0  0  0  0  0  0  0  0  0  0  0  0
  193.3270  177.1640  139.1630 O   0  0  0  0  0  0  0  0  0  0  0  0
  190.2810  175.7850  138.0090 C   0  0  0  0  0  2  0  0  0  0  0  0
  191.0470  173.9970  136.2500 C   0  0  0  0  0  1  0  0  0  0  0  0
  192.4070  176.5200  138.5940 C   0  0  0  0  0  0  0  0  0  0  0  0
  191.3570  175.0670  137.2400 C   0  0  0  0  0  0  0  0  0  0  0  0
  197.0520  175.7000  136.4980 N   0  0  0  0  0  2  0  0  0  0  0  0
  194.6530  175.7790  136.1150 C   0  0  0  0  0  2  0  0  0  0  0  0
  197.8470  174.7080  137.2040 C   0  0  0  0  0  2  0  0  0  0  0  0
  195.7510  173.6750  136.7000 C   0  0  2  0  0  3  0  0  0  0  0  0
  195.9260  174.9740  135.9250 C   0  0  2  0  0  3  0  0  0  0  0  0
  193.8390  175.0360  137.0560 N   0  0  0  0  0  0  0  0  0  0  0  0
  194.4470  173.7880  137.4690 C   0  0  0  0  0  2  0  0  0  0  0  0
  197.5410  172.3830  137.5750 O   0  0  0  0  0  1  0  0  0  0  0  0
  196.9080  173.6220  137.6640 C   0  0  1  0  0  3  0  0  0  0  0  0
  190.0190  176.8960  141.0890 C   0  0  0  0  0  2  0  0  0  0  0  0
  190.6300  177.5590  142.2450 C   0  0  0  0  0  0  0  0  0  0  0  0
  191.7880  178.7580  144.3280 C   0  0  0  0  0  1  0  0  0  0  0  0
  191.1490  178.1010  143.1870 C   0  0  0  0  0  0  0  0  0  0  0  0
  1 18  1  1  0  0  0
  2  5  1  0  0  0  0
  3  2  1  6  0  0  0
  3  4  1  0  0  0  0
  4  1  1  0  0  0  0
  5  7  1  6  0  0  0
  5  6  1  0  0  0  0
  6 30  1  1  0  0  0
  6  1  1  0  0  0  0
  8  9  1  0  0  0  0
  9 12  1  0  0  0  0
 10 13  1  0  0  0  0
 10  8  1  0  0  0  0
 11 13  1  1  0  0  0
 11  3  1  0  0  0  0
 11 12  1  0  0  0  0
 14 10  1  0  0  0  0
 15 17  1  0  0  0  0
 16 15  1  0  0  0  0
 16 17  1  0  0  0  0
 17 14  1  6  0  0  0
 18 22  1  1  0  0  0
 18 19  1  0  0  0  0
 19 20  1  0  0  0  0
 20 21  1  0  0  0  0
 22 23  1  0  0  0  0
 23 24  1  0  0  0  0
 24 25  1  0  0  0  0
 25 29  1  0  0  0  0
 28 29  1  0  0  0  0
 29 27  1  0  0  0  0
 29 26  1  0  0  0  0
 31 32  1  0  0  0  0
 31 30  1  0  0  0  0
 32 49  1  1  0  0  0
 33 32  1  0  0  0  0
 34 38  1  0  0  0  0
 36 33  1  0  0  0  0
 37 39  1  0  0  0  0
 38 33  1  0  0  0  0
 38 35  2  0  0  0  0
 39 34  2  0  0  0  0
 39 36  1  0  0  0  0
 40 42  1  0  0  0  0
 41 45  1  0  0  0  0
 42 48  1  0  0  0  0
 43 46  1  1  0  0  0
 43 48  1  0  0  0  0
 44 41  1  1  0  0  0
 44 40  1  0  0  0  0
 44 43  1  0  0  0  0
 45 46  1  0  0  0  0
 45 34  1  0  0  0  0
 48 47  1  6  0  0  0
 49 50  1  0  0  0  0
 50 52  3  0  0  0  0
 52 51  1  0  0  0  0
M  END
>  <MODEL>
6

>  <REMARK>
 VINA RESULT:      -6.4      2.342     11.043
  Name = 
  18 active torsions:
  status: ('A' for Active; 'I' for Inactive)
    1  A    between atoms: C_5  and  C_16
    2  A    between atoms: C_8  and  C_27
    3  A    between atoms: N_9  and  C_41
    4  A    between atoms: C_11  and  C_32
    5  A    between atoms: C_11  and  C_42
    6  A    between atoms: C_12  and  S_15
    7  A    between atoms: C_12  and  C_40
    8  A    between atoms: O_13  and  O_18
    9  A    between atoms: C_14  and  C_16
   10  A    between atoms: C_14  and  C_43
   11  A    between atoms: S_15  and  C_49
   12  A    between atoms: C_16  and  O_18
   13  A    between atoms: N_19  and  C_49
   14  A    between atoms: N_21  and  C_30
   15  A    between atoms: N_24  and  C_26
   16  A    between atoms: C_27  and  C_49
   17  A    between atoms: C_41  and  C_52
   18  A    between atoms: C_42  and  C_43
                            x       y       z     vdW  Elec       q    Type
                         _______ _______ _______ _____ _____    ______ ____

>  <TORSDO>
F 18

$$$$
=
 OpenBabel11042413353D

 52 57  0  0  1  0  0  0  0  0999 V2000
  185.8650  179.0350  140.7970 C   0  0  2  0  0  3  0  0  0  0  0  0
  185.1300  178.2180  138.1680 C   0  0  0  0  0  2  0  0  0  0  0  0
  184.3810  179.1910  139.0920 C   0  0  2  0  0  3  0  0  0  0  0  0
  184.5300  178.7790  140.4270 O   0  0  0  0  0  0  0  0  0  0  0  0
  186.6120  178.2460  138.5180 C   0  0  1  0  0  3  0  0  0  0  0  0
  186.8400  178.1180  140.0320 C   0  0  1  0  0  3  0  0  0  0  0  0
  187.2620  177.2130  137.8410 O   0  0  0  0  0  1  0  0  0  0  0  0
  180.3350  180.2620  139.3160 C   0  0  0  0  0  2  0  0  0  0  0  0
  180.6740  178.7850  139.4900 C   0  0  0  0  0  2  0  0  0  0  0  0
  181.1750  180.8480  138.2720 N   0  0  0  0  0  0  0  0  0  0  0  0
  182.9550  179.3230  138.7640 N   0  0  1  0  0  0  0  0  0  0  0  0
  182.1620  178.6540  139.7990 C   0  0  0  0  0  2  0  0  0  0  0  0
  182.5670  180.7380  138.6990 C   0  0  0  0  0  2  0  0  0  0  0  0
  180.8670  182.2690  138.2180 C   0  0  0  0  0  2  0  0  0  0  0  0
  180.8050  182.5300  135.8040 C   0  0  0  0  0  2  0  0  0  0  0  0
  179.9510  181.3800  136.1410 N   0  0  0  0  0  2  0  0  0  0  0  0
  179.9920  182.5640  137.0140 C   0  0  1  0  0  3  0  0  0  0  0  0
  186.0280  178.8580  142.3100 C   0  0  2  0  0  3  0  0  0  0  0  0
  185.9800  177.5040  142.6640 O   0  0  0  0  0  0  0  0  0  0  0  0
  187.0440  177.3070  143.4140 O   0  0  0  0  0  0  0  0  0  0  0  0
  186.8230  176.1530  144.0090 O   0  0  0  0  0  1  0  0  0  0  0  0
  184.9360  179.6210  143.0400 C   0  0  0  0  0  2  0  0  0  0  0  0
  183.8950  178.6630  143.5930 C   0  0  0  0  0  2  0  0  0  0  0  0
  183.8800  178.7000  145.1120 C   0  0  0  0  0  2  0  0  0  0  0  0
  185.1710  179.3100  145.6400 C   0  0  0  0  0  2  0  0  0  0  0  0
  186.3910  177.4940  146.6040 F   0  0  0  0  0  0  0  0  0  0  0  0
  186.4340  179.4940  147.6540 F   0  0  0  0  0  0  0  0  0  0  0  0
  184.5580  178.2520  147.6640 F   0  0  0  0  0  0  0  0  0  0  0  0
  185.6560  178.6230  146.9130 C   0  0  0  0  0  0  0  0  0  0  0  0
  188.2780  178.5160  140.3600 C   0  0  0  0  0  2  0  0  0  0  0  0
  189.4000  178.0970  138.9920 S   0  0  0  0  0  0  0  0  0  0  0  0
  190.2440  176.8140  139.9740 C   0  0  2  0  0  3  0  0  0  0  0  0
  190.4820  177.2790  141.3330 N   0  0  0  0  0  0  0  0  0  0  0  0
  190.6140  177.4080  143.6700 C   0  0  0  0  0  0  0  0  0  0  0  0
  189.6840  175.4480  142.6030 O   0  0  0  0  0  0  0  0  0  0  0  0
  191.0800  178.5620  141.6720 C   0  0  0  0  0  2  0  0  0  0  0  0
  191.6870  179.6710  143.9690 C   0  0  0  0  0  1  0  0  0  0  0  0
  190.2070  176.5920  142.5420 C   0  0  0  0  0  0  0  0  0  0  0  0
  191.1200  178.5450  143.1760 C   0  0  0  0  0  0  0  0  0  0  0  0
  191.7340  177.2780  148.1370 N   0  0  0  0  0  2  0  0  0  0  0  0
  191.5630  176.4710  145.8510 C   0  0  0  0  0  2  0  0  0  0  0  0
  190.7190  177.8780  148.9890 C   0  0  0  0  0  2  0  0  0  0  0  0
  189.5610  176.7560  147.2230 C   0  0  2  0  0  3  0  0  0  0  0  0
  191.0270  176.3490  147.2660 C   0  0  2  0  0  3  0  0  0  0  0  0
  190.4930  177.0420  145.0580 N   0  0  0  0  0  0  0  0  0  0  0  0
  189.2810  177.2660  145.8210 C   0  0  0  0  0  2  0  0  0  0  0  0
  188.3580  177.6390  149.0720 O   0  0  0  0  0  1  0  0  0  0  0  0
  189.4270  177.8860  148.2110 C   0  0  1  0  0  3  0  0  0  0  0  0
  191.5390  176.3770  139.3100 C   0  0  0  0  0  2  0  0  0  0  0  0
  191.2410  175.4710  138.1960 C   0  0  0  0  0  0  0  0  0  0  0  0
  190.7150  173.7860  136.1960 C   0  0  0  0  0  1  0  0  0  0  0  0
  191.0020  174.7130  137.2900 C   0  0  0  0  0  0  0  0  0  0  0  0
  1 18  1  1  0  0  0
  2  5  1  0  0  0  0
  3  2  1  6  0  0  0
  3  4  1  0  0  0  0
  4  1  1  0  0  0  0
  5  7  1  6  0  0  0
  5  6  1  0  0  0  0
  6 30  1  6  0  0  0
  6  1  1  0  0  0  0
  8  9  1  0  0  0  0
  9 12  1  0  0  0  0
 10 13  1  0  0  0  0
 10  8  1  0  0  0  0
 11 13  1  1  0  0  0
 11  3  1  0  0  0  0
 11 12  1  0  0  0  0
 14 10  1  0  0  0  0
 15 16  1  0  0  0  0
 15 17  1  0  0  0  0
 16 17  1  0  0  0  0
 17 14  1  1  0  0  0
 18 19  1  0  0  0  0
 18 22  1  1  0  0  0
 19 20  1  0  0  0  0
 20 21  1  0  0  0  0
 22 23  1  0  0  0  0
 23 24  1  0  0  0  0
 24 25  1  0  0  0  0
 25 29  1  0  0  0  0
 26 29  1  0  0  0  0
 29 27  1  0  0  0  0
 29 28  1  0  0  0  0
 31 32  1  0  0  0  0
 31 30  1  0  0  0  0
 32 49  1  6  0  0  0
 32 33  1  0  0  0  0
 33 36  1  0  0  0  0
 33 38  1  0  0  0  0
 34 45  1  0  0  0  0
 36 39  1  0  0  0  0
 38 35  2  0  0  0  0
 38 34  1  0  0  0  0
 39 34  2  0  0  0  0
 39 37  1  0  0  0  0
 40 42  1  0  0  0  0
 43 46  1  6  0  0  0
 43 44  1  0  0  0  0
 43 48  1  0  0  0  0
 44 41  1  6  0  0  0
 44 40  1  0  0  0  0
 45 46  1  0  0  0  0
 45 41  1  0  0  0  0
 48 42  1  0  0  0  0
 48 47  1  1  0  0  0
 50 49  1  0  0  0  0
 51 52  1  0  0  0  0
 52 50  3  0  0  0  0
M  END
>  <MODEL>
7

>  <REMARK>
 VINA RESULT:      -6.1      2.957     10.332
  Name = 
  18 active torsions:
  status: ('A' for Active; 'I' for Inactive)
    1  A    between atoms: C_5  and  C_16
    2  A    between atoms: C_8  and  C_27
    3  A    between atoms: N_9  and  C_41
    4  A    between atoms: C_11  and  C_32
    5  A    between atoms: C_11  and  C_42
    6  A    between atoms: C_12  and  S_15
    7  A    between atoms: C_12  and  C_40
    8  A    between atoms: O_13  and  O_18
    9  A    between atoms: C_14  and  C_16
   10  A    between atoms: C_14  and  C_43
   11  A    between atoms: S_15  and  C_49
   12  A    between atoms: C_16  and  O_18
   13  A    between atoms: N_19  and  C_49
   14  A    between atoms: N_21  and  C_30
   15  A    between atoms: N_24  and  C_26
   16  A    between atoms: C_27  and  C_49
   17  A    between atoms: C_41  and  C_52
   18  A    between atoms: C_42  and  C_43
                            x       y       z     vdW  Elec       q    Type
                         _______ _______ _______ _____ _____    ______ ____

>  <TORSDO>
F 18

$$$$
=
 OpenBabel11042413353D

 52 57  0  0  1  0  0  0  0  0999 V2000
  185.3640  179.1530  140.8580 C   0  0  2  0  0  3  0  0  0  0  0  0
  184.7670  178.5050  138.1470 C   0  0  0  0  0  2  0  0  0  0  0  0
  183.9970  179.4580  139.0750 C   0  0  2  0  0  3  0  0  0  0  0  0
  184.0460  178.9720  140.3920 O   0  0  0  0  0  0  0  0  0  0  0  0
  186.2230  178.4540  138.5890 C   0  0  1  0  0  3  0  0  0  0  0  0
  186.3500  178.2380  140.1040 C   0  0  1  0  0  3  0  0  0  0  0  0
  186.8750  177.4320  137.8970 O   0  0  0  0  0  1  0  0  0  0  0  0
  179.9940  180.6990  139.1010 C   0  0  0  0  0  2  0  0  0  0  0  0
  180.2590  179.2020  139.2340 C   0  0  0  0  0  2  0  0  0  0  0  0
  180.9200  181.2870  138.1340 N   0  0  0  0  0  0  0  0  0  0  0  0
  182.6020  179.6660  138.6680 N   0  0  1  0  0  0  0  0  0  0  0  0
  181.7190  178.9940  139.6260 C   0  0  0  0  0  2  0  0  0  0  0  0
  182.2770  181.0990  138.6380 C   0  0  0  0  0  2  0  0  0  0  0  0
  180.6760  182.7200  138.1200 C   0  0  0  0  0  2  0  0  0  0  0  0
  180.9190  184.6120  136.6140 C   0  0  0  0  0  2  0  0  0  0  0  0
  182.0180  184.6850  137.5910 N   0  0  0  0  0  2  0  0  0  0  0  0
  181.5570  183.3860  137.0790 C   0  0  1  0  0  3  0  0  0  0  0  0
  185.4230  178.8910  142.3650 C   0  0  2  0  0  3  0  0  0  0  0  0
  186.3940  177.9260  142.6680 O   0  0  0  0  0  0  0  0  0  0  0  0
  186.7710  178.1930  143.9000 O   0  0  0  0  0  0  0  0  0  0  0  0
  186.4330  177.1240  144.5910 O   0  0  0  0  0  1  0  0  0  0  0  0
  184.0640  178.4300  142.8640 C   0  0  0  0  0  2  0  0  0  0  0  0
  183.5540  179.3580  143.9530 C   0  0  0  0  0  2  0  0  0  0  0  0
  182.1290  178.9990  144.3430 C   0  0  0  0  0  2  0  0  0  0  0  0
  181.2120  179.0790  143.1320 C   0  0  0  0  0  2  0  0  0  0  0  0
  179.1130  178.2620  142.3290 F   0  0  0  0  0  0  0  0  0  0  0  0
  179.7720  177.6700  144.4070 F   0  0  0  0  0  0  0  0  0  0  0  0
  179.1220  179.7830  143.9870 F   0  0  0  0  0  0  0  0  0  0  0  0
  179.7770  178.6840  143.4660 C   0  0  0  0  0  0  0  0  0  0  0  0
  187.7790  178.5590  140.5410 C   0  0  0  0  0  2  0  0  0  0  0  0
  188.9610  178.2260  139.2010 S   0  0  0  0  0  0  0  0  0  0  0  0
  189.6960  176.8160  140.0930 C   0  0  2  0  0  3  0  0  0  0  0  0
  190.1290  177.2190  141.4240 N   0  0  0  0  0  0  0  0  0  0  0  0
  190.4390  177.3300  143.7450 C   0  0  0  0  0  0  0  0  0  0  0  0
  188.9870  175.6540  142.7840 O   0  0  0  0  0  0  0  0  0  0  0  0
  191.0450  178.3170  141.6960 C   0  0  0  0  0  2  0  0  0  0  0  0
  192.0550  179.2590  143.9250 C   0  0  0  0  0  1  0  0  0  0  0  0
  189.7720  176.6320  142.6640 C   0  0  0  0  0  0  0  0  0  0  0  0
  191.1770  178.3020  143.1950 C   0  0  0  0  0  0  0  0  0  0  0  0
  191.6350  177.2700  148.1950 N   0  0  0  0  0  2  0  0  0  0  0  0
  191.3680  176.4040  145.9400 C   0  0  0  0  0  2  0  0  0  0  0  0
  190.6770  177.9600  149.0440 C   0  0  0  0  0  2  0  0  0  0  0  0
  189.4150  176.8610  147.3350 C   0  0  2  0  0  3  0  0  0  0  0  0
  190.8530  176.3610  147.3670 C   0  0  2  0  0  3  0  0  0  0  0  0
  190.3220  177.0180  145.1470 N   0  0  0  0  0  0  0  0  0  0  0  0
  189.1420  177.3430  145.9220 C   0  0  0  0  0  2  0  0  0  0  0  0
  188.3070  177.8770  149.1750 O   0  0  0  0  0  1  0  0  0  0  0  0
  189.3730  178.0280  148.2880 C   0  0  1  0  0  3  0  0  0  0  0  0
  190.8430  176.2040  139.3060 C   0  0  0  0  0  2  0  0  0  0  0  0
  190.3580  175.7540  137.9980 C   0  0  0  0  0  0  0  0  0  0  0  0
  189.5210  174.9390  135.5990 C   0  0  0  0  0  1  0  0  0  0  0  0
  189.9760  175.3850  136.9160 C   0  0  0  0  0  0  0  0  0  0  0  0
  1 18  1  1  0  0  0
  2  5  1  0  0  0  0
  3  2  1  6  0  0  0
  3  4  1  0  0  0  0
  4  1  1  0  0  0  0
  5  7  1  6  0  0  0
  5  6  1  0  0  0  0
  6 30  1  1  0  0  0
  6  1  1  0  0  0  0
  8  9  1  0  0  0  0
  9 12  1  0  0  0  0
 10 13  1  0  0  0  0
 10  8  1  0  0  0  0
 11 13  1  1  0  0  0
 11  3  1  0  0  0  0
 11 12  1  0  0  0  0
 14 10  1  0  0  0  0
 15 17  1  0  0  0  0
 15 16  1  0  0  0  0
 17 16  1  0  0  0  0
 17 14  1  1  0  0  0
 18 19  1  0  0  0  0
 18 22  1  6  0  0  0
 19 20  1  0  0  0  0
 20 21  1  0  0  0  0
 22 23  1  0  0  0  0
 23 24  1  0  0  0  0
 25 29  1  0  0  0  0
 25 24  1  0  0  0  0
 26 29  1  0  0  0  0
 29 28  1  0  0  0  0
 29 27  1  0  0  0  0
 31 32  1  0  0  0  0
 31 30  1  0  0  0  0
 32 49  1  6  0  0  0
 32 33  1  0  0  0  0
 33 36  1  0  0  0  0
 33 38  1  0  0  0  0
 34 45  1  0  0  0  0
 36 39  1  0  0  0  0
 38 35  2  0  0  0  0
 38 34  1  0  0  0  0
 39 34  2  0  0  0  0
 39 37  1  0  0  0  0
 40 42  1  0  0  0  0
 43 46  1  6  0  0  0
 43 44  1  0  0  0  0
 43 48  1  0  0  0  0
 44 41  1  6  0  0  0
 44 40  1  0  0  0  0
 45 46  1  0  0  0  0
 45 41  1  0  0  0  0
 48 42  1  0  0  0  0
 48 47  1  1  0  0  0
 50 49  1  0  0  0  0
 51 52  1  0  0  0  0
 52 50  3  0  0  0  0
M  END
>  <MODEL>
8

>  <REMARK>
 VINA RESULT:      -6.0      3.530     10.658
  Name = 
  18 active torsions:
  status: ('A' for Active; 'I' for Inactive)
    1  A    between atoms: C_5  and  C_16
    2  A    between atoms: C_8  and  C_27
    3  A    between atoms: N_9  and  C_41
    4  A    between atoms: C_11  and  C_32
    5  A    between atoms: C_11  and  C_42
    6  A    between atoms: C_12  and  S_15
    7  A    between atoms: C_12  and  C_40
    8  A    between atoms: O_13  and  O_18
    9  A    between atoms: C_14  and  C_16
   10  A    between atoms: C_14  and  C_43
   11  A    between atoms: S_15  and  C_49
   12  A    between atoms: C_16  and  O_18
   13  A    between atoms: N_19  and  C_49
   14  A    between atoms: N_21  and  C_30
   15  A    between atoms: N_24  and  C_26
   16  A    between atoms: C_27  and  C_49
   17  A    between atoms: C_41  and  C_52
   18  A    between atoms: C_42  and  C_43
                            x       y       z     vdW  Elec       q    Type
                         _______ _______ _______ _____ _____    ______ ____

>  <TORSDO>
F 18

$$$$
=
 OpenBabel11042413353D

 52 57  0  0  1  0  0  0  0  0999 V2000
  186.0020  177.0240  137.1770 C   0  0  2  0  0  3  0  0  0  0  0  0
  184.2930  178.5210  138.8960 C   0  0  0  0  0  2  0  0  0  0  0  0
  183.8820  177.5120  137.8130 C   0  0  2  0  0  3  0  0  0  0  0  0
  184.7850  177.5830  136.7390 O   0  0  0  0  0  0  0  0  0  0  0  0
  185.6800  178.1600  139.4080 C   0  0  1  0  0  3  0  0  0  0  0  0
  186.6630  177.9060  138.2550 C   0  0  1  0  0  3  0  0  0  0  0  0
  186.1490  179.1900  140.2260 O   0  0  0  0  0  1  0  0  0  0  0  0
  179.7480  178.1960  137.7580 C   0  0  0  0  0  2  0  0  0  0  0  0
  180.2270  176.8030  137.3620 C   0  0  0  0  0  2  0  0  0  0  0  0
  180.6490  179.2100  137.2120 N   0  0  0  0  0  0  0  0  0  0  0  0
  182.5090  177.7040  137.3280 N   0  0  1  0  0  0  0  0  0  0  0  0
  181.6650  176.6230  137.8410 C   0  0  0  0  0  2  0  0  0  0  0  0
  181.9730  178.9930  137.7880 C   0  0  0  0  0  2  0  0  0  0  0  0
  180.1900  180.5010  137.6970 C   0  0  0  0  0  2  0  0  0  0  0  0
  180.3400  181.2530  135.3920 C   0  0  0  0  0  2  0  0  0  0  0  0
  179.5060  182.2250  136.1160 N   0  0  0  0  0  2  0  0  0  0  0  0
  180.6670  181.6030  136.7690 C   0  0  1  0  0  3  0  0  0  0  0  0
  186.9430  176.8280  135.9840 C   0  0  2  0  0  3  0  0  0  0  0  0
  187.1340  178.0320  135.2940 O   0  0  0  0  0  0  0  0  0  0  0  0
  188.2940  177.9000  134.6860 O   0  0  0  0  0  0  0  0  0  0  0  0
  189.1810  178.3150  135.5670 O   0  0  0  0  0  1  0  0  0  0  0  0
  186.3750  175.7780  135.0450 C   0  0  0  0  0  2  0  0  0  0  0  0
  187.2250  174.5190  135.0770 C   0  0  0  0  0  2  0  0  0  0  0  0
  186.3640  173.2950  135.3490 C   0  0  0  0  0  2  0  0  0  0  0  0
  185.0570  173.7030  136.0140 C   0  0  0  0  0  2  0  0  0  0  0  0
  186.1100  172.6720  137.8970 F   0  0  0  0  0  0  0  0  0  0  0  0
  184.2900  173.9610  138.2570 F   0  0  0  0  0  0  0  0  0  0  0  0
  184.0750  171.9530  137.2650 F   0  0  0  0  0  0  0  0  0  0  0  0
  184.8850  173.0640  137.3880 C   0  0  0  0  0  0  0  0  0  0  0  0
  187.9060  177.2020  138.7980 C   0  0  0  0  0  2  0  0  0  0  0  0
  189.1580  178.4070  139.3310 S   0  0  0  0  0  0  0  0  0  0  0  0
  190.1990  177.1120  140.0800 C   0  0  2  0  0  3  0  0  0  0  0  0
  190.1770  177.2100  141.5330 N   0  0  0  0  0  0  0  0  0  0  0  0
  189.4680  177.2900  143.7650 C   0  0  0  0  0  0  0  0  0  0  0  0
  187.8560  177.0790  141.9770 O   0  0  0  0  0  0  0  0  0  0  0  0
  191.3620  177.3370  142.3680 C   0  0  0  0  0  2  0  0  0  0  0  0
  191.6780  177.4820  144.9680 C   0  0  0  0  0  1  0  0  0  0  0  0
  189.0430  177.1810  142.3840 C   0  0  0  0  0  0  0  0  0  0  0  0
  190.8040  177.3790  143.7650 C   0  0  0  0  0  0  0  0  0  0  0  0
  187.9900  178.4810  147.9640 N   0  0  0  0  0  2  0  0  0  0  0  0
  189.0400  177.0810  146.2780 C   0  0  0  0  0  2  0  0  0  0  0  0
  186.7070  179.1650  147.9360 C   0  0  0  0  0  2  0  0  0  0  0  0
  186.6320  177.4900  146.2300 C   0  0  2  0  0  3  0  0  0  0  0  0
  187.8200  177.2790  147.1580 C   0  0  2  0  0  3  0  0  0  0  0  0
  188.5980  177.2950  144.9140 N   0  0  0  0  0  0  0  0  0  0  0  0
  187.1790  177.5740  144.8170 C   0  0  0  0  0  2  0  0  0  0  0  0
  184.6660  178.6890  146.8180 O   0  0  0  0  0  1  0  0  0  0  0  0
  186.0410  178.8190  146.6270 C   0  0  1  0  0  3  0  0  0  0  0  0
  191.6220  177.1740  139.5480 C   0  0  0  0  0  2  0  0  0  0  0  0
  191.6840  176.5370  138.2290 C   0  0  0  0  0  0  0  0  0  0  0  0
  191.7480  175.3750  135.8290 C   0  0  0  0  0  1  0  0  0  0  0  0
  191.7170  176.0120  137.1450 C   0  0  0  0  0  0  0  0  0  0  0  0
  1 18  1  6  0  0  0
  1  6  1  0  0  0  0
  2  5  1  0  0  0  0
  3  2  1  1  0  0  0
  4  1  1  0  0  0  0
  4  3  1  0  0  0  0
  5  7  1  1  0  0  0
  6 30  1  1  0  0  0
  6  5  1  0  0  0  0
  9  8  1  0  0  0  0
  9 12  1  0  0  0  0
 10 14  1  0  0  0  0
 10  8  1  0  0  0  0
 10 13  1  0  0  0  0
 11 13  1  1  0  0  0
 11  3  1  0  0  0  0
 11 12  1  0  0  0  0
 15 16  1  0  0  0  0
 15 17  1  0  0  0  0
 16 17  1  0  0  0  0
 17 14  1  1  0  0  0
 18 22  1  6  0  0  0
 19 18  1  0  0  0  0
 20 19  1  0  0  0  0
 20 21  1  0  0  0  0
 22 23  1  0  0  0  0
 23 24  1  0  0  0  0
 24 25  1  0  0  0  0
 25 29  1  0  0  0  0
 28 29  1  0  0  0  0
 29 26  1  0  0  0  0
 29 27  1  0  0  0  0
 30 31  1  0  0  0  0
 31 32  1  0  0  0  0
 32 49  1  6  0  0  0
 32 33  1  0  0  0  0
 33 36  1  0  0  0  0
 33 38  1  0  0  0  0
 34 39  2  0  0  0  0
 34 45  1  0  0  0  0
 35 38  2  0  0  0  0
 36 39  1  0  0  0  0
 38 34  1  0  0  0  0
 39 37  1  0  0  0  0
 42 40  1  0  0  0  0
 43 46  1  6  0  0  0
 43 48  1  0  0  0  0
 43 44  1  0  0  0  0
 44 41  1  6  0  0  0
 44 40  1  0  0  0  0
 45 41  1  0  0  0  0
 46 45  1  0  0  0  0
 48 47  1  1  0  0  0
 48 42  1  0  0  0  0
 50 49  1  0  0  0  0
 51 52  1  0  0  0  0
 52 50  3  0  0  0  0
M  END
>  <MODEL>
9

>  <REMARK>
 VINA RESULT:      -6.0      3.896     10.448
  Name = 
  18 active torsions:
  status: ('A' for Active; 'I' for Inactive)
    1  A    between atoms: C_5  and  C_16
    2  A    between atoms: C_8  and  C_27
    3  A    between atoms: N_9  and  C_41
    4  A    between atoms: C_11  and  C_32
    5  A    between atoms: C_11  and  C_42
    6  A    between atoms: C_12  and  S_15
    7  A    between atoms: C_12  and  C_40
    8  A    between atoms: O_13  and  O_18
    9  A    between atoms: C_14  and  C_16
   10  A    between atoms: C_14  and  C_43
   11  A    between atoms: S_15  and  C_49
   12  A    between atoms: C_16  and  O_18
   13  A    between atoms: N_19  and  C_49
   14  A    between atoms: N_21  and  C_30
   15  A    between atoms: N_24  and  C_26
   16  A    between atoms: C_27  and  C_49
   17  A    between atoms: C_41  and  C_52
   18  A    between atoms: C_42  and  C_43
                            x       y       z     vdW  Elec       q    Type
                         _______ _______ _______ _____ _____    ______ ____

>  <TORSDO>
F 18

$$$$
