=
 OpenBabel11032421233D

 58 66  0  0  1  0  0  0  0  0999 V2000
  184.7020  177.4040  137.7590 C   0  0  1  0  0  3  0  0  0  0  0  0
  183.7330  177.7710  135.6000 O   0  0  0  0  0  0  0  0  0  0  0  0
  182.4480  177.6940  134.9780 C   0  0  0  0  0  2  0  0  0  0  0  0
  182.7770  175.2670  135.1510 C   0  0  0  0  0  3  0  0  0  0  0  0
  183.9620  175.5260  136.1150 C   0  0  1  0  0  3  0  0  0  0  0  0
  182.1200  176.2960  134.5940 C   0  0  0  0  0  3  0  0  0  0  0  0
  183.7220  176.9260  136.7100 C   0  0  1  0  0  3  0  0  0  0  0  0
  184.2740  174.4560  137.0900 O   0  0  0  0  0  0  0  0  0  0  0  0
  186.6680  172.5770  136.2890 C   0  0  0  0  0  0  0  0  0  0  0  0
  184.1530  173.0790  136.7740 C   0  0  0  0  0  0  0  0  0  0  0  0
  182.6390  171.1950  136.4530 C   0  0  0  0  0  3  0  0  0  0  0  0
  185.2770  172.2220  136.3360 C   0  0  0  0  0  0  0  0  0  0  0  0
  188.9560  172.2310  135.7100 C   0  0  0  0  0  2  0  0  0  0  0  0
  185.9110  170.0550  135.3640 C   0  0  0  0  0  3  0  0  0  0  0  0
  182.9060  172.4940  136.8470 C   0  0  0  0  0  3  0  0  0  0  0  0
  189.7110  173.7660  137.2500 O   0  0  0  0  0  1  0  0  0  0  0  0
  187.2340  170.4320  135.2680 C   0  0  0  0  0  3  0  0  0  0  0  0
  187.5790  171.6940  135.7400 C   0  0  0  0  0  0  0  0  0  0  0  0
  187.3720  173.7900  136.7510 C   0  0  0  0  0  2  0  0  0  0  0  0
  184.9540  170.9160  135.8970 C   0  0  0  0  0  0  0  0  0  0  0  0
  188.8250  173.6290  136.2440 C   0  0  2  0  0  3  0  0  0  0  0  0
  183.6560  170.4050  135.9470 C   0  0  0  0  0  3  0  0  0  0  0  0
  186.1490  177.2600  137.3820 C   0  0  0  0  0  2  0  0  0  0  0  0
  187.0350  178.2220  138.0470 N   0  0  0  0  0  0  0  0  0  0  0  0
  189.0310  178.1300  136.8940 C   0  0  0  0  0  0  0  0  0  0  0  0
  187.9050  178.9360  137.1190 C   0  0  2  0  0  3  0  0  0  0  0  0
  189.0360  179.4200  137.6820 O   0  0  0  0  0  0  0  0  0  0  0  0
  189.5330  177.0460  136.4560 O   0  0  0  0  0  0  0  0  0  0  0  0
  186.8870  178.2700  140.4680 C   0  0  0  0  0  2  0  0  0  0  0  0
  188.3120  178.6790  140.4170 C   0  0  2  0  0  3  0  0  0  0  0  0
  187.6870  177.6670  139.3780 C   0  0  2  0  0  3  0  0  0  0  0  0
  188.7440  178.0550  141.7940 C   0  0  1  0  0  3  0  0  0  0  0  0
  189.3650  177.0140  144.5670 C   0  0  1  0  0  3  0  0  0  0  0  0
  187.7540  177.7290  142.7560 O   0  0  0  0  0  0  0  0  0  0  0  0
  191.8280  177.4680  142.0010 O   0  0  0  0  0  0  0  0  0  0  0  0
  189.2580  178.1020  148.2410 C   0  0  0  0  0  1  0  0  0  0  0  0
  189.7150  177.1530  146.0490 C   0  0  0  0  0  3  0  0  0  0  0  0
  187.0340  177.4860  145.1950 C   0  0  2  0  0  3  0  0  0  0  0  0
  187.5620  178.1750  146.3810 O   0  0  0  0  0  0  0  0  0  0  0  0
  188.1640  177.3760  144.1050 C   0  0  2  0  0  3  0  0  0  0  0  0
  189.6180  177.0560  141.5910 O   0  0  0  0  0  0  0  0  0  0  0  0
  191.6800  175.9770  144.4040 C   0  0  0  0  0  1  0  0  0  0  0  0
  190.7030  177.0000  142.4350 C   0  0  0  0  0  0  0  0  0  0  0  0
  190.5420  176.6410  143.7600 N   0  0  0  0  0  0  0  0  0  0  0  0
  188.8260  177.7940  146.8100 C   0  0  0  0  0  0  0  0  0  0  0  0
  185.7060  177.9880  144.7800 C   0  0  0  0  0  2  0  0  0  0  0  0
  184.9460  178.3820  145.8880 O   0  0  0  0  0  1  0  0  0  0  0  0
  184.1710  178.5560  138.6380 C   0  0  0  0  0  2  0  0  0  0  0  0
  182.7740  178.4450  139.0460 N   0  0  0  0  0  2  0  0  0  0  0  0
  182.0780  179.7270  138.9130 C   0  0  0  0  0  2  0  0  0  0  0  0
  180.9260  179.5250  137.8950 C   0  0  1  0  0  3  0  0  0  0  0  0
  179.6600  179.6670  138.3750 O   0  0  0  0  0  0  0  0  0  0  0  0
  180.2210  180.6960  137.5990 N   0  0  0  0  0  0  0  0  0  0  0  0
  180.0290  181.8900  138.4820 C   0  0  0  0  0  2  0  0  0  0  0  0
  180.2480  183.1520  137.7840 C   0  0  0  0  0  2  0  0  0  0  0  0
  181.7280  183.5010  137.6100 C   0  0  0  0  0  2  0  0  0  0  0  0
  180.8320  184.9920  136.2420 C   0  0  0  0  0  1  0  0  0  0  0  0
  181.9030  184.7940  137.0980 O   0  0  0  0  0  0  0  0  0  0  0  0
  1 23  1  6  0  0  0
  1 48  1  0  0  0  0
  2  7  1  0  0  0  0
  3  2  1  0  0  0  0
  4  5  1  0  0  0  0
  5  7  1  0  0  0  0
  5  8  1  1  0  0  0
  6  3  1  0  0  0  0
  6  4  2  0  0  0  0
  7  1  1  1  0  0  0
  9 12  1  0  0  0  0
  9 19  1  0  0  0  0
 10 15  1  0  0  0  0
 10  8  1  0  0  0  0
 11 15  2  0  0  0  0
 12 10  2  0  0  0  0
 13 18  1  0  0  0  0
 13 21  1  0  0  0  0
 14 20  1  0  0  0  0
 17 14  2  0  0  0  0
 17 18  1  0  0  0  0
 18  9  2  0  0  0  0
 20 22  2  0  0  0  0
 20 12  1  0  0  0  0
 21 19  1  0  0  0  0
 21 16  1  1  0  0  0
 22 11  1  0  0  0  0
 23 24  1  0  0  0  0
 25 26  1  0  0  0  0
 25 27  1  0  0  0  0
 26 27  1  0  0  0  0
 26 24  1  1  0  0  0
 28 25  2  0  0  0  0
 30 29  1  1  0  0  0
 30 32  1  0  0  0  0
 31 24  1  6  0  0  0
 31 30  1  0  0  0  0
 31 29  1  0  0  0  0
 32 41  1  6  0  0  0
 32 34  1  0  0  0  0
 33 37  1  6  0  0  0
 35 43  2  0  0  0  0
 37 45  2  0  0  0  0
 38 46  1  6  0  0  0
 38 39  1  0  0  0  0
 39 45  1  0  0  0  0
 40 34  1  1  0  0  0
 40 33  1  0  0  0  0
 40 38  1  0  0  0  0
 41 43  1  0  0  0  0
 43 44  1  0  0  0  0
 44 42  1  0  0  0  0
 44 33  1  0  0  0  0
 45 36  1  0  0  0  0
 46 47  1  0  0  0  0
 48 49  1  0  0  0  0
 50 49  1  0  0  0  0
 51 52  1  0  0  0  0
 51 50  1  1  0  0  0
 53 51  1  0  0  0  0
 53 52  1  0  0  0  0
 53 54  1  0  0  0  0
 55 54  1  0  0  0  0
 56 55  1  0  0  0  0
 57 58  1  0  0  0  0
 58 56  1  0  0  0  0
M  END
>  <MODEL>
1

>  <REMARK>
 VINA RESULT:      -7.8      0.000      0.000
  Name = 
  17 active torsions:
  status: ('A' for Active; 'I' for Inactive)
    1  A    between atoms: C_2  and  C_26
    2  A    between atoms: C_3  and  O_14
    3  A    between atoms: C_5  and  C_29
    4  A    between atoms: C_10  and  N_44
    5  A    between atoms: C_13  and  C_49
    6  A    between atoms: O_14  and  C_38
    7  A    between atoms: C_22  and  C_30
    8  A    between atoms: C_22  and  O_45
    9  A    between atoms: C_30  and  C_31
   10  A    between atoms: C_31  and  N_48
   11  A    between atoms: N_32  and  C_36
   12  A    between atoms: N_32  and  C_49
   13  A    between atoms: C_36  and  C_53
   14  A    between atoms: N_44  and  C_51
   15  A    between atoms: N_44  and  C_52
   16  A    between atoms: C_52  and  C_53
   17  A    between atoms: C_53  and  C_58
                            x       y       z     vdW  Elec       q    Type
                         _______ _______ _______ _____ _____    ______ ____

>  <TORSDO>
F 17

$$$$
=
 OpenBabel11032421233D

 58 66  0  0  1  0  0  0  0  0999 V2000
  184.6840  177.4400  137.8180 C   0  0  1  0  0  3  0  0  0  0  0  0
  183.7650  177.8410  135.6440 O   0  0  0  0  0  0  0  0  0  0  0  0
  182.4910  177.7920  134.9960 C   0  0  0  0  0  2  0  0  0  0  0  0
  182.7730  175.3580  135.1560 C   0  0  0  0  0  3  0  0  0  0  0  0
  183.9430  175.5880  136.1450 C   0  0  1  0  0  3  0  0  0  0  0  0
  182.1460  176.4030  134.5940 C   0  0  0  0  0  3  0  0  0  0  0  0
  183.7160  176.9880  136.7460 C   0  0  1  0  0  3  0  0  0  0  0  0
  184.2160  174.5060  137.1170 O   0  0  0  0  0  0  0  0  0  0  0  0
  186.5650  172.5800  136.2930 C   0  0  0  0  0  0  0  0  0  0  0  0
  184.0640  173.1340  136.7920 C   0  0  0  0  0  0  0  0  0  0  0  0
  182.5070  171.2860  136.4640 C   0  0  0  0  0  3  0  0  0  0  0  0
  185.1660  172.2560  136.3430 C   0  0  0  0  0  0  0  0  0  0  0  0
  188.8430  172.1880  135.7020 C   0  0  0  0  0  2  0  0  0  0  0  0
  185.7490  170.0820  135.3540 C   0  0  0  0  0  3  0  0  0  0  0  0
  182.8050  172.5760  136.8650 C   0  0  0  0  0  3  0  0  0  0  0  0
  189.6370  173.6950  137.2510 O   0  0  0  0  0  1  0  0  0  0  0  0
  187.0790  170.4310  135.2550 C   0  0  0  0  0  3  0  0  0  0  0  0
  187.4550  171.6810  135.7340 C   0  0  0  0  0  0  0  0  0  0  0  0
  187.2970  173.7740  136.7610 C   0  0  0  0  0  2  0  0  0  0  0  0
  184.8140  170.9600  135.8960 C   0  0  0  0  0  0  0  0  0  0  0  0
  188.7440  173.5850  136.2470 C   0  0  2  0  0  3  0  0  0  0  0  0
  183.5040  170.4770  135.9480 C   0  0  0  0  0  3  0  0  0  0  0  0
  186.1350  177.2700  137.4690 C   0  0  0  0  0  2  0  0  0  0  0  0
  187.0220  178.2280  138.1380 N   0  0  0  0  0  0  0  0  0  0  0  0
  189.0460  178.1150  137.0370 C   0  0  0  0  0  0  0  0  0  0  0  0
  187.9150  178.9240  137.2160 C   0  0  2  0  0  3  0  0  0  0  0  0
  189.0300  179.4220  137.7970 O   0  0  0  0  0  0  0  0  0  0  0  0
  189.5610  177.0230  136.6350 O   0  0  0  0  0  0  0  0  0  0  0  0
  186.8820  178.3480  140.5570 C   0  0  0  0  0  2  0  0  0  0  0  0
  188.3250  178.6850  140.4950 C   0  0  2  0  0  3  0  0  0  0  0  0
  187.6490  177.6780  139.4830 C   0  0  2  0  0  3  0  0  0  0  0  0
  188.7280  178.0780  141.8880 C   0  0  1  0  0  3  0  0  0  0  0  0
  189.2850  177.0640  144.6840 C   0  0  1  0  0  3  0  0  0  0  0  0
  187.7150  177.7270  142.8170 O   0  0  0  0  0  0  0  0  0  0  0  0
  191.8180  177.5800  142.1990 O   0  0  0  0  0  0  0  0  0  0  0  0
  189.0240  178.1580  148.3490 C   0  0  0  0  0  1  0  0  0  0  0  0
  189.5810  177.2160  146.1760 C   0  0  0  0  0  3  0  0  0  0  0  0
  186.9220  177.4710  145.2320 C   0  0  2  0  0  3  0  0  0  0  0  0
  187.3900  178.1780  146.4320 O   0  0  0  0  0  0  0  0  0  0  0  0
  188.0900  177.3890  144.1810 C   0  0  2  0  0  3  0  0  0  0  0  0
  189.6360  177.1030  141.7180 O   0  0  0  0  0  0  0  0  0  0  0  0
  191.6330  176.0920  144.6020 C   0  0  0  0  0  1  0  0  0  0  0  0
  190.6930  177.0810  142.5980 C   0  0  0  0  0  0  0  0  0  0  0  0
  190.4980  176.7210  143.9180 N   0  0  0  0  0  0  0  0  0  0  0  0
  188.6500  177.8340  146.9040 C   0  0  0  0  0  0  0  0  0  0  0  0
  185.5950  177.9340  144.7710 C   0  0  0  0  0  2  0  0  0  0  0  0
  185.3350  179.2380  145.2090 O   0  0  0  0  0  1  0  0  0  0  0  0
  184.1580  178.5960  138.6940 C   0  0  0  0  0  2  0  0  0  0  0  0
  183.3690  178.1980  139.8560 N   0  0  0  0  0  2  0  0  0  0  0  0
  181.9360  178.3980  139.6200 C   0  0  0  0  0  2  0  0  0  0  0  0
  181.7710  179.7630  138.9020 C   0  0  1  0  0  3  0  0  0  0  0  0
  180.6120  179.9500  138.2140 O   0  0  0  0  0  0  0  0  0  0  0  0
  180.7830  180.5790  139.4600 N   0  0  0  0  0  0  0  0  0  0  0  0
  179.5530  180.1440  140.1970 C   0  0  0  0  0  2  0  0  0  0  0  0
  179.3790  180.8400  141.4670 C   0  0  0  0  0  2  0  0  0  0  0  0
  179.9850  180.0920  142.6570 C   0  0  0  0  0  2  0  0  0  0  0  0
  179.8050  178.4910  144.1740 C   0  0  0  0  0  1  0  0  0  0  0  0
  179.0750  179.1910  143.2270 O   0  0  0  0  0  0  0  0  0  0  0  0
  1 23  1  6  0  0  0
  1 48  1  0  0  0  0
  2  7  1  0  0  0  0
  3  2  1  0  0  0  0
  4  5  1  0  0  0  0
  5  7  1  0  0  0  0
  5  8  1  1  0  0  0
  6  3  1  0  0  0  0
  6  4  2  0  0  0  0
  7  1  1  1  0  0  0
  9 12  1  0  0  0  0
  9 19  1  0  0  0  0
 10 15  1  0  0  0  0
 10  8  1  0  0  0  0
 11 15  2  0  0  0  0
 12 10  2  0  0  0  0
 13 18  1  0  0  0  0
 13 21  1  0  0  0  0
 14 20  1  0  0  0  0
 17 14  2  0  0  0  0
 17 18  1  0  0  0  0
 18  9  2  0  0  0  0
 20 22  2  0  0  0  0
 20 12  1  0  0  0  0
 21 19  1  0  0  0  0
 21 16  1  1  0  0  0
 22 11  1  0  0  0  0
 23 24  1  0  0  0  0
 25 26  1  0  0  0  0
 25 27  1  0  0  0  0
 26 27  1  0  0  0  0
 26 24  1  1  0  0  0
 28 25  2  0  0  0  0
 30 29  1  1  0  0  0
 30 32  1  0  0  0  0
 31 24  1  6  0  0  0
 31 30  1  0  0  0  0
 31 29  1  0  0  0  0
 32 41  1  6  0  0  0
 32 34  1  0  0  0  0
 33 37  1  6  0  0  0
 35 43  2  0  0  0  0
 37 45  2  0  0  0  0
 38 46  1  6  0  0  0
 38 39  1  0  0  0  0
 39 45  1  0  0  0  0
 40 34  1  1  0  0  0
 40 33  1  0  0  0  0
 40 38  1  0  0  0  0
 41 43  1  0  0  0  0
 43 44  1  0  0  0  0
 44 42  1  0  0  0  0
 44 33  1  0  0  0  0
 45 36  1  0  0  0  0
 46 47  1  0  0  0  0
 48 49  1  0  0  0  0
 50 49  1  0  0  0  0
 51 53  1  0  0  0  0
 51 50  1  1  0  0  0
 52 51  1  0  0  0  0
 52 53  1  0  0  0  0
 53 54  1  0  0  0  0
 54 55  1  0  0  0  0
 55 56  1  0  0  0  0
 56 58  1  0  0  0  0
 58 57  1  0  0  0  0
M  END
>  <MODEL>
2

>  <REMARK>
 VINA RESULT:      -7.8      1.368      2.123
  Name = 
  17 active torsions:
  status: ('A' for Active; 'I' for Inactive)
    1  A    between atoms: C_2  and  C_26
    2  A    between atoms: C_3  and  O_14
    3  A    between atoms: C_5  and  C_29
    4  A    between atoms: C_10  and  N_44
    5  A    between atoms: C_13  and  C_49
    6  A    between atoms: O_14  and  C_38
    7  A    between atoms: C_22  and  C_30
    8  A    between atoms: C_22  and  O_45
    9  A    between atoms: C_30  and  C_31
   10  A    between atoms: C_31  and  N_48
   11  A    between atoms: N_32  and  C_36
   12  A    between atoms: N_32  and  C_49
   13  A    between atoms: C_36  and  C_53
   14  A    between atoms: N_44  and  C_51
   15  A    between atoms: N_44  and  C_52
   16  A    between atoms: C_52  and  C_53
   17  A    between atoms: C_53  and  C_58
                            x       y       z     vdW  Elec       q    Type
                         _______ _______ _______ _____ _____    ______ ____

>  <TORSDO>
F 17

$$$$
=
 OpenBabel11032421233D

 58 66  0  0  1  0  0  0  0  0999 V2000
  187.4560  177.3770  138.5010 C   0  0  1  0  0  3  0  0  0  0  0  0
  185.6180  176.4940  137.2460 O   0  0  0  0  0  0  0  0  0  0  0  0
  184.6990  176.9330  136.2420 C   0  0  0  0  0  2  0  0  0  0  0  0
  183.6920  178.2250  138.0710 C   0  0  0  0  0  3  0  0  0  0  0  0
  184.9510  177.9370  138.9280 C   0  0  1  0  0  3  0  0  0  0  0  0
  183.5770  177.7020  136.8410 C   0  0  0  0  0  3  0  0  0  0  0  0
  186.0770  177.6210  137.9270 C   0  0  1  0  0  3  0  0  0  0  0  0
  185.2810  178.9260  139.9790 O   0  0  0  0  0  0  0  0  0  0  0  0
  182.6540  178.9200  141.7110 C   0  0  0  0  0  0  0  0  0  0  0  0
  185.2220  178.6150  141.3620 C   0  0  0  0  0  0  0  0  0  0  0  0
  186.4820  178.0450  143.3700 C   0  0  0  0  0  3  0  0  0  0  0  0
  183.9910  178.6790  142.1790 C   0  0  0  0  0  0  0  0  0  0  0  0
  180.3270  179.3690  141.9900 C   0  0  0  0  0  2  0  0  0  0  0  0
  183.0680  178.6450  144.4580 C   0  0  0  0  0  3  0  0  0  0  0  0
  186.3870  178.2580  142.0060 C   0  0  0  0  0  3  0  0  0  0  0  0
  179.8060  178.6640  139.8620 O   0  0  0  0  0  1  0  0  0  0  0  0
  181.8010  178.9370  144.0000 C   0  0  0  0  0  3  0  0  0  0  0  0
  181.6260  179.0660  142.6270 C   0  0  0  0  0  0  0  0  0  0  0  0
  182.1170  179.0480  140.3420 C   0  0  0  0  0  2  0  0  0  0  0  0
  184.1370  178.5030  143.5760 C   0  0  0  0  0  0  0  0  0  0  0  0
  180.6440  179.4840  140.5260 C   0  0  2  0  0  3  0  0  0  0  0  0
  185.3630  178.1950  144.1700 C   0  0  0  0  0  3  0  0  0  0  0  0
  188.2410  176.2930  137.8180 C   0  0  0  0  0  2  0  0  0  0  0  0
  189.2590  176.7930  136.8880 N   0  0  0  0  0  0  0  0  0  0  0  0
  188.2810  176.4090  134.8340 C   0  0  0  0  0  0  0  0  0  0  0  0
  188.6910  177.4300  135.7040 C   0  0  2  0  0  3  0  0  0  0  0  0
  189.4610  177.3250  134.5970 O   0  0  0  0  0  0  0  0  0  0  0  0
  187.5350  175.4070  134.5940 O   0  0  0  0  0  0  0  0  0  0  0  0
  190.8130  175.3200  138.0280 C   0  0  0  0  0  2  0  0  0  0  0  0
  191.8640  176.1000  137.3300 C   0  0  2  0  0  3  0  0  0  0  0  0
  190.4630  175.7890  136.6690 C   0  0  2  0  0  3  0  0  0  0  0  0
  192.9290  174.9480  137.2310 C   0  0  1  0  0  3  0  0  0  0  0  0
  195.1690  172.9160  137.1660 C   0  0  1  0  0  3  0  0  0  0  0  0
  193.8590  174.7630  138.2860 O   0  0  0  0  0  0  0  0  0  0  0  0
  192.5850  173.1270  134.6890 O   0  0  0  0  0  0  0  0  0  0  0  0
  198.9870  172.7090  136.8790 C   0  0  0  0  0  1  0  0  0  0  0  0
  196.5730  172.4160  136.8210 C   0  0  0  0  0  3  0  0  0  0  0  0
  196.1800  174.0650  139.0910 C   0  0  2  0  0  3  0  0  0  0  0  0
  197.4470  174.0580  138.3460 O   0  0  0  0  0  0  0  0  0  0  0  0
  194.9830  173.8610  138.0920 C   0  0  2  0  0  3  0  0  0  0  0  0
  192.3340  173.8040  136.8570 O   0  0  0  0  0  0  0  0  0  0  0  0
  194.4310  171.1390  135.5030 C   0  0  0  0  0  1  0  0  0  0  0  0
  192.9890  173.0440  135.9150 C   0  0  0  0  0  0  0  0  0  0  0  0
  194.1550  172.3770  136.2410 N   0  0  0  0  0  0  0  0  0  0  0  0
  197.5900  173.0800  137.3710 C   0  0  0  0  0  0  0  0  0  0  0  0
  196.0950  175.1670  140.0730 C   0  0  0  0  0  2  0  0  0  0  0  0
  197.3560  175.7220  140.3210 O   0  0  0  0  0  1  0  0  0  0  0  0
  188.1120  178.6310  139.1160 C   0  0  0  0  0  2  0  0  0  0  0  0
  189.4540  178.4390  139.6580 N   0  0  0  0  0  2  0  0  0  0  0  0
  189.4070  178.0550  141.0710 C   0  0  0  0  0  2  0  0  0  0  0  0
  190.4710  176.9480  141.2870 C   0  0  1  0  0  3  0  0  0  0  0  0
  191.7700  177.3100  141.1010 O   0  0  0  0  0  0  0  0  0  0  0  0
  191.2790  177.1510  142.4090 N   0  0  0  0  0  0  0  0  0  0  0  0
  191.6490  178.4590  143.0390 C   0  0  0  0  0  2  0  0  0  0  0  0
  191.1010  178.6170  144.3810 C   0  0  0  0  0  2  0  0  0  0  0  0
  190.8290  177.2870  145.0860 C   0  0  0  0  0  2  0  0  0  0  0  0
  188.8730  177.2540  146.1200 C   0  0  0  0  0  1  0  0  0  0  0  0
  189.4950  176.8810  144.9400 O   0  0  0  0  0  0  0  0  0  0  0  0
  1 23  1  6  0  0  0
  1 48  1  0  0  0  0
  2  7  1  0  0  0  0
  3  6  1  0  0  0  0
  3  2  1  0  0  0  0
  4  5  1  0  0  0  0
  5  8  1  6  0  0  0
  6  4  2  0  0  0  0
  7  1  1  1  0  0  0
  7  5  1  0  0  0  0
  8 10  1  0  0  0  0
  9 12  2  0  0  0  0
  9 18  1  0  0  0  0
 10 15  2  0  0  0  0
 10 12  1  0  0  0  0
 11 22  2  0  0  0  0
 12 20  1  0  0  0  0
 13 18  1  0  0  0  0
 15 11  1  0  0  0  0
 17 14  1  0  0  0  0
 18 17  2  0  0  0  0
 19 21  1  0  0  0  0
 19  9  1  0  0  0  0
 20 22  1  0  0  0  0
 20 14  2  0  0  0  0
 21 16  1  6  0  0  0
 21 13  1  0  0  0  0
 24 23  1  0  0  0  0
 25 26  1  0  0  0  0
 26 24  1  1  0  0  0
 27 25  1  0  0  0  0
 27 26  1  0  0  0  0
 28 25  2  0  0  0  0
 30 29  1  1  0  0  0
 31 24  1  1  0  0  0
 31 30  1  0  0  0  0
 31 29  1  0  0  0  0
 32 41  1  1  0  0  0
 32 30  1  0  0  0  0
 32 34  1  0  0  0  0
 33 37  1  6  0  0  0
 33 40  1  0  0  0  0
 35 43  2  0  0  0  0
 36 45  1  0  0  0  0
 37 45  2  0  0  0  0
 38 46  1  6  0  0  0
 39 38  1  0  0  0  0
 40 34  1  6  0  0  0
 40 38  1  0  0  0  0
 42 44  1  0  0  0  0
 43 44  1  0  0  0  0
 43 41  1  0  0  0  0
 44 33  1  0  0  0  0
 45 39  1  0  0  0  0
 46 47  1  0  0  0  0
 48 49  1  0  0  0  0
 49 50  1  0  0  0  0
 51 50  1  1  0  0  0
 51 53  1  0  0  0  0
 52 51  1  0  0  0  0
 52 53  1  0  0  0  0
 53 54  1  0  0  0  0
 54 55  1  0  0  0  0
 55 56  1  0  0  0  0
 58 56  1  0  0  0  0
 58 57  1  0  0  0  0
M  END
>  <MODEL>
3

>  <REMARK>
 VINA RESULT:      -7.6      3.986      9.508
  Name = 
  17 active torsions:
  status: ('A' for Active; 'I' for Inactive)
    1  A    between atoms: C_2  and  C_26
    2  A    between atoms: C_3  and  O_14
    3  A    between atoms: C_5  and  C_29
    4  A    between atoms: C_10  and  N_44
    5  A    between atoms: C_13  and  C_49
    6  A    between atoms: O_14  and  C_38
    7  A    between atoms: C_22  and  C_30
    8  A    between atoms: C_22  and  O_45
    9  A    between atoms: C_30  and  C_31
   10  A    between atoms: C_31  and  N_48
   11  A    between atoms: N_32  and  C_36
   12  A    between atoms: N_32  and  C_49
   13  A    between atoms: C_36  and  C_53
   14  A    between atoms: N_44  and  C_51
   15  A    between atoms: N_44  and  C_52
   16  A    between atoms: C_52  and  C_53
   17  A    between atoms: C_53  and  C_58
                            x       y       z     vdW  Elec       q    Type
                         _______ _______ _______ _____ _____    ______ ____

>  <TORSDO>
F 17

$$$$
=
 OpenBabel11032421233D

 58 66  0  0  1  0  0  0  0  0999 V2000
  186.2560  176.3210  137.5080 C   0  0  1  0  0  3  0  0  0  0  0  0
  184.7090  174.6920  136.6810 O   0  0  0  0  0  0  0  0  0  0  0  0
  184.1660  173.4310  137.0830 C   0  0  0  0  0  2  0  0  0  0  0  0
  186.3970  172.5670  136.5290 C   0  0  0  0  0  3  0  0  0  0  0  0
  186.9160  174.0260  136.4730 C   0  0  1  0  0  3  0  0  0  0  0  0
  185.0990  172.3190  136.7640 C   0  0  0  0  0  3  0  0  0  0  0  0
  185.9350  174.8540  137.3250 C   0  0  1  0  0  3  0  0  0  0  0  0
  188.3530  174.2330  136.7620 O   0  0  0  0  0  0  0  0  0  0  0  0
  191.4450  174.7140  137.1010 C   0  0  0  0  0  0  0  0  0  0  0  0
  189.3680  173.4160  136.2000 C   0  0  0  0  0  0  0  0  0  0  0  0
  189.8770  171.5000  134.7820 C   0  0  0  0  0  3  0  0  0  0  0  0
  190.8170  173.6900  136.3140 C   0  0  0  0  0  0  0  0  0  0  0  0
  193.2910  176.0380  137.8280 C   0  0  0  0  0  2  0  0  0  0  0  0
  193.0590  173.0990  135.4970 C   0  0  0  0  0  3  0  0  0  0  0  0
  188.9910  172.3070  135.4730 C   0  0  0  0  0  3  0  0  0  0  0  0
  192.2300  176.6860  139.7650 O   0  0  0  0  0  1  0  0  0  0  0  0
  193.6410  174.1250  136.2110 C   0  0  0  0  0  3  0  0  0  0  0  0
  192.8100  174.9100  137.0030 C   0  0  0  0  0  0  0  0  0  0  0  0
  190.8770  175.6690  138.0740 C   0  0  0  0  0  2  0  0  0  0  0  0
  191.6860  172.8720  135.5530 C   0  0  0  0  0  0  0  0  0  0  0  0
  192.0440  176.6200  138.4320 C   0  0  2  0  0  3  0  0  0  0  0  0
  191.2290  171.7940  134.7930 C   0  0  0  0  0  3  0  0  0  0  0  0
  187.7190  176.6570  137.4690 C   0  0  0  0  0  2  0  0  0  0  0  0
  188.0960  177.7730  138.3440 N   0  0  0  0  0  0  0  0  0  0  0  0
  188.2090  179.4270  136.7400 C   0  0  0  0  0  0  0  0  0  0  0  0
  188.9740  178.7400  137.6930 C   0  0  2  0  0  3  0  0  0  0  0  0
  189.2950  178.4250  136.4180 O   0  0  0  0  0  0  0  0  0  0  0  0
  187.2360  180.1980  136.4640 O   0  0  0  0  0  0  0  0  0  0  0  0
  187.5930  178.1410  140.6880 C   0  0  0  0  0  2  0  0  0  0  0  0
  189.0490  178.3890  140.8280 C   0  0  2  0  0  3  0  0  0  0  0  0
  188.4680  177.3250  139.8160 C   0  0  2  0  0  3  0  0  0  0  0  0
  189.1890  177.9020  142.3160 C   0  0  1  0  0  3  0  0  0  0  0  0
  189.2130  177.1110  145.2370 C   0  0  1  0  0  3  0  0  0  0  0  0
  188.0280  177.5410  143.0460 O   0  0  0  0  0  0  0  0  0  0  0  0
  192.1720  177.6430  143.2830 O   0  0  0  0  0  0  0  0  0  0  0  0
  188.1410  178.4170  148.6780 C   0  0  0  0  0  1  0  0  0  0  0  0
  189.1850  177.3790  146.7420 C   0  0  0  0  0  3  0  0  0  0  0  0
  186.7690  177.3860  145.2630 C   0  0  2  0  0  3  0  0  0  0  0  0
  186.9390  178.1990  146.4750 O   0  0  0  0  0  0  0  0  0  0  0  0
  188.1310  177.3190  144.4790 C   0  0  2  0  0  3  0  0  0  0  0  0
  190.1660  176.9850  142.4080 O   0  0  0  0  0  0  0  0  0  0  0  0
  191.5770  176.3030  145.7060 C   0  0  0  0  0  1  0  0  0  0  0  0
  191.0180  177.0930  143.4830 C   0  0  0  0  0  0  0  0  0  0  0  0
  190.5750  176.8060  144.7600 N   0  0  0  0  0  0  0  0  0  0  0  0
  188.0910  177.9750  147.2170 C   0  0  0  0  0  0  0  0  0  0  0  0
  185.5420  177.7230  144.5090 C   0  0  0  0  0  2  0  0  0  0  0  0
  185.4090  179.1090  144.3560 O   0  0  0  0  0  1  0  0  0  0  0  0
  185.1580  177.2740  136.9890 C   0  0  0  0  0  2  0  0  0  0  0  0
  184.7490  178.3270  137.9140 N   0  0  0  0  0  2  0  0  0  0  0  0
  184.0640  177.7710  139.0840 C   0  0  0  0  0  2  0  0  0  0  0  0
  182.7930  177.0430  138.5730 C   0  0  1  0  0  3  0  0  0  0  0  0
  182.1710  176.2160  139.4570 O   0  0  0  0  0  0  0  0  0  0  0  0
  181.6110  177.4760  139.1810 N   0  0  0  0  0  0  0  0  0  0  0  0
  181.4520  178.0520  140.5540 C   0  0  0  0  0  2  0  0  0  0  0  0
  180.9610  179.4260  140.5390 C   0  0  0  0  0  2  0  0  0  0  0  0
  180.9230  180.0410  139.1390 C   0  0  0  0  0  2  0  0  0  0  0  0
  180.8160  181.8450  137.8610 C   0  0  0  0  0  1  0  0  0  0  0  0
  180.7950  181.4360  139.1840 O   0  0  0  0  0  0  0  0  0  0  0  0
  1 48  1  6  0  0  0
  2  3  1  0  0  0  0
  2  7  1  0  0  0  0
  4  6  2  0  0  0  0
  5  4  1  0  0  0  0
  5  8  1  1  0  0  0
  5  7  1  0  0  0  0
  6  3  1  0  0  0  0
  7  1  1  6  0  0  0
  9 19  1  0  0  0  0
 10 12  1  0  0  0  0
 10  8  1  0  0  0  0
 11 22  2  0  0  0  0
 11 15  1  0  0  0  0
 12  9  2  0  0  0  0
 13 21  1  0  0  0  0
 14 20  2  0  0  0  0
 14 17  1  0  0  0  0
 15 10  2  0  0  0  0
 17 18  2  0  0  0  0
 18  9  1  0  0  0  0
 18 13  1  0  0  0  0
 19 21  1  0  0  0  0
 20 12  1  0  0  0  0
 21 16  1  1  0  0  0
 22 20  1  0  0  0  0
 23  1  1  0  0  0  0
 23 24  1  0  0  0  0
 25 26  1  0  0  0  0
 26 24  1  1  0  0  0
 27 25  1  0  0  0  0
 27 26  1  0  0  0  0
 28 25  2  0  0  0  0
 30 29  1  1  0  0  0
 30 32  1  0  0  0  0
 31 24  1  6  0  0  0
 31 29  1  0  0  0  0
 31 30  1  0  0  0  0
 32 41  1  6  0  0  0
 32 34  1  0  0  0  0
 33 37  1  6  0  0  0
 35 43  2  0  0  0  0
 37 45  2  0  0  0  0
 38 46  1  6  0  0  0
 38 39  1  0  0  0  0
 39 45  1  0  0  0  0
 40 34  1  1  0  0  0
 40 33  1  0  0  0  0
 40 38  1  0  0  0  0
 41 43  1  0  0  0  0
 43 44  1  0  0  0  0
 44 33  1  0  0  0  0
 44 42  1  0  0  0  0
 45 36  1  0  0  0  0
 47 46  1  0  0  0  0
 48 49  1  0  0  0  0
 49 50  1  0  0  0  0
 51 50  1  1  0  0  0
 51 53  1  0  0  0  0
 51 52  1  0  0  0  0
 53 52  1  0  0  0  0
 53 54  1  0  0  0  0
 55 54  1  0  0  0  0
 56 58  1  0  0  0  0
 56 55  1  0  0  0  0
 57 58  1  0  0  0  0
M  END
>  <MODEL>
4

>  <REMARK>
 VINA RESULT:      -7.0      1.966      3.877
  Name = 
  17 active torsions:
  status: ('A' for Active; 'I' for Inactive)
    1  A    between atoms: C_2  and  C_26
    2  A    between atoms: C_3  and  O_14
    3  A    between atoms: C_5  and  C_29
    4  A    between atoms: C_10  and  N_44
    5  A    between atoms: C_13  and  C_49
    6  A    between atoms: O_14  and  C_38
    7  A    between atoms: C_22  and  C_30
    8  A    between atoms: C_22  and  O_45
    9  A    between atoms: C_30  and  C_31
   10  A    between atoms: C_31  and  N_48
   11  A    between atoms: N_32  and  C_36
   12  A    between atoms: N_32  and  C_49
   13  A    between atoms: C_36  and  C_53
   14  A    between atoms: N_44  and  C_51
   15  A    between atoms: N_44  and  C_52
   16  A    between atoms: C_52  and  C_53
   17  A    between atoms: C_53  and  C_58
                            x       y       z     vdW  Elec       q    Type
                         _______ _______ _______ _____ _____    ______ ____

>  <TORSDO>
F 17

$$$$
=
 OpenBabel11032421233D

 58 66  0  0  1  0  0  0  0  0999 V2000
  187.2500  177.9520  142.2010 C   0  0  1  0  0  3  0  0  0  0  0  0
  188.3060  176.9700  144.1130 O   0  0  0  0  0  0  0  0  0  0  0  0
  189.4940  177.1510  144.8890 C   0  0  0  0  0  2  0  0  0  0  0  0
  190.6270  176.1840  142.9370 C   0  0  0  0  0  3  0  0  0  0  0  0
  189.3270  176.3840  142.1190 C   0  0  1  0  0  3  0  0  0  0  0  0
  190.6630  176.5020  144.2400 C   0  0  0  0  0  3  0  0  0  0  0  0
  188.5430  177.4950  142.8420 C   0  0  1  0  0  3  0  0  0  0  0  0
  189.4780  176.5510  140.6560 O   0  0  0  0  0  0  0  0  0  0  0  0
  190.2450  175.5160  137.7840 C   0  0  0  0  0  0  0  0  0  0  0  0
  190.7420  176.7360  140.0380 C   0  0  0  0  0  0  0  0  0  0  0  0
  193.0110  177.5940  140.2750 C   0  0  0  0  0  3  0  0  0  0  0  0
  191.1100  176.1890  138.7140 C   0  0  0  0  0  0  0  0  0  0  0  0
  189.7720  174.2540  135.8170 C   0  0  0  0  0  2  0  0  0  0  0  0
  192.9510  175.7540  137.1440 C   0  0  0  0  0  3  0  0  0  0  0  0
  191.7090  177.4450  140.7180 C   0  0  0  0  0  3  0  0  0  0  0  0
  187.5490  174.8540  135.8120 O   0  0  0  0  0  1  0  0  0  0  0  0
  192.1220  175.0590  136.2900 C   0  0  0  0  0  3  0  0  0  0  0  0
  190.7790  174.9600  136.6360 C   0  0  0  0  0  0  0  0  0  0  0  0
  188.7870  175.2890  137.8120 C   0  0  0  0  0  2  0  0  0  0  0  0
  192.4630  176.3200  138.3190 C   0  0  0  0  0  0  0  0  0  0  0  0
  188.5040  174.3480  136.6180 C   0  0  2  0  0  3  0  0  0  0  0  0
  193.4060  177.0070  139.0860 C   0  0  0  0  0  3  0  0  0  0  0  0
  186.0280  177.7900  143.0600 C   0  0  0  0  0  2  0  0  0  0  0  0
  184.9110  178.6580  142.6730 N   0  0  0  0  0  0  0  0  0  0  0  0
  185.0300  179.0020  144.9510 C   0  0  0  0  0  0  0  0  0  0  0  0
  184.3670  179.4250  143.7890 C   0  0  2  0  0  3  0  0  0  0  0  0
  183.5840  178.7060  144.6240 O   0  0  0  0  0  0  0  0  0  0  0  0
  186.1070  178.8860  145.6180 O   0  0  0  0  0  0  0  0  0  0  0  0
  183.6800  178.9410  140.6020 C   0  0  0  0  0  2  0  0  0  0  0  0
  182.4810  178.6480  141.4260 C   0  0  2  0  0  3  0  0  0  0  0  0
  183.8790  177.9630  141.6950 C   0  0  2  0  0  3  0  0  0  0  0  0
  181.6160  177.9960  140.2870 C   0  0  1  0  0  3  0  0  0  0  0  0
  179.9680  176.4910  138.2430 C   0  0  1  0  0  3  0  0  0  0  0  0
  180.6330  177.0300  140.6210 O   0  0  0  0  0  0  0  0  0  0  0  0
  182.1670  179.2060  137.4350 O   0  0  0  0  0  0  0  0  0  0  0  0
  179.5670  172.9820  136.7510 C   0  0  0  0  0  1  0  0  0  0  0  0
  179.6920  175.3590  137.2530 C   0  0  0  0  0  3  0  0  0  0  0  0
  179.2990  174.9340  140.0260 C   0  0  2  0  0  3  0  0  0  0  0  0
  179.6670  173.8390  139.1170 O   0  0  0  0  0  0  0  0  0  0  0  0
  180.0030  176.2620  139.5600 C   0  0  2  0  0  3  0  0  0  0  0  0
  181.1470  178.9490  139.4640 O   0  0  0  0  0  0  0  0  0  0  0  0
  179.9800  177.9400  136.1550 C   0  0  0  0  0  1  0  0  0  0  0  0
  181.1980  178.6830  138.1150 C   0  0  0  0  0  0  0  0  0  0  0  0
  180.3620  177.7350  137.5560 N   0  0  0  0  0  0  0  0  0  0  0  0
  179.6500  174.1260  137.7590 C   0  0  0  0  0  0  0  0  0  0  0  0
  179.3920  174.5550  141.4530 C   0  0  0  0  0  2  0  0  0  0  0  0
  179.7080  173.1980  141.5960 O   0  0  0  0  0  1  0  0  0  0  0  0
  187.4220  179.1050  141.1910 C   0  0  0  0  0  2  0  0  0  0  0  0
  187.7430  178.7040  139.8240 N   0  0  0  0  0  2  0  0  0  0  0  0
  186.6750  177.8840  139.2460 C   0  0  0  0  0  2  0  0  0  0  0  0
  186.2280  178.5690  137.9280 C   0  0  1  0  0  3  0  0  0  0  0  0
  186.5820  177.9470  136.7710 O   0  0  0  0  0  0  0  0  0  0  0  0
  185.2540  177.8560  137.2230 N   0  0  0  0  0  0  0  0  0  0  0  0
  185.0290  176.3750  137.2270 C   0  0  0  0  0  2  0  0  0  0  0  0
  183.7220  176.0020  137.7550 C   0  0  0  0  0  2  0  0  0  0  0  0
  183.4650  174.4940  137.7310 C   0  0  0  0  0  2  0  0  0  0  0  0
  184.9750  172.8760  137.7600 C   0  0  0  0  0  1  0  0  0  0  0  0
  184.3940  173.8180  136.9270 O   0  0  0  0  0  0  0  0  0  0  0  0
  1 48  1  1  0  0  0
  1 23  1  0  0  0  0
  2  3  1  0  0  0  0
  4  6  2  0  0  0  0
  5  8  1  6  0  0  0
  5  7  1  0  0  0  0
  5  4  1  0  0  0  0
  6  3  1  0  0  0  0
  7  1  1  6  0  0  0
  7  2  1  0  0  0  0
  9 19  1  0  0  0  0
  9 12  1  0  0  0  0
 10  8  1  0  0  0  0
 10 15  1  0  0  0  0
 11 15  2  0  0  0  0
 12 10  2  0  0  0  0
 13 21  1  0  0  0  0
 13 18  1  0  0  0  0
 14 20  1  0  0  0  0
 17 18  1  0  0  0  0
 17 14  2  0  0  0  0
 18  9  2  0  0  0  0
 20 12  1  0  0  0  0
 20 22  2  0  0  0  0
 21 16  1  6  0  0  0
 21 19  1  0  0  0  0
 22 11  1  0  0  0  0
 24 23  1  0  0  0  0
 25 28  2  0  0  0  0
 26 24  1  6  0  0  0
 26 27  1  0  0  0  0
 26 25  1  0  0  0  0
 27 25  1  0  0  0  0
 29 31  1  0  0  0  0
 30 29  1  6  0  0  0
 30 31  1  0  0  0  0
 31 24  1  1  0  0  0
 32 41  1  1  0  0  0
 32 34  1  0  0  0  0
 32 30  1  0  0  0  0
 33 37  1  6  0  0  0
 33 40  1  0  0  0  0
 35 43  2  0  0  0  0
 36 45  1  0  0  0  0
 37 45  2  0  0  0  0
 38 46  1  1  0  0  0
 39 38  1  0  0  0  0
 40 38  1  0  0  0  0
 40 34  1  6  0  0  0
 42 44  1  0  0  0  0
 43 41  1  0  0  0  0
 44 43  1  0  0  0  0
 44 33  1  0  0  0  0
 45 39  1  0  0  0  0
 46 47  1  0  0  0  0
 49 48  1  0  0  0  0
 50 49  1  0  0  0  0
 51 50  1  1  0  0  0
 52 53  1  0  0  0  0
 52 51  1  0  0  0  0
 53 54  1  0  0  0  0
 53 51  1  0  0  0  0
 54 55  1  0  0  0  0
 56 55  1  0  0  0  0
 58 56  1  0  0  0  0
 58 57  1  0  0  0  0
M  END
>  <MODEL>
5

>  <REMARK>
 VINA RESULT:      -6.9      2.850      8.955
  Name = 
  17 active torsions:
  status: ('A' for Active; 'I' for Inactive)
    1  A    between atoms: C_2  and  C_26
    2  A    between atoms: C_3  and  O_14
    3  A    between atoms: C_5  and  C_29
    4  A    between atoms: C_10  and  N_44
    5  A    between atoms: C_13  and  C_49
    6  A    between atoms: O_14  and  C_38
    7  A    between atoms: C_22  and  C_30
    8  A    between atoms: C_22  and  O_45
    9  A    between atoms: C_30  and  C_31
   10  A    between atoms: C_31  and  N_48
   11  A    between atoms: N_32  and  C_36
   12  A    between atoms: N_32  and  C_49
   13  A    between atoms: C_36  and  C_53
   14  A    between atoms: N_44  and  C_51
   15  A    between atoms: N_44  and  C_52
   16  A    between atoms: C_52  and  C_53
   17  A    between atoms: C_53  and  C_58
                            x       y       z     vdW  Elec       q    Type
                         _______ _______ _______ _____ _____    ______ ____

>  <TORSDO>
F 17

$$$$
=
 OpenBabel11032421233D

 58 66  0  0  1  0  0  0  0  0999 V2000
  187.4110  178.2540  138.6510 C   0  0  1  0  0  3  0  0  0  0  0  0
  187.8910  178.3510  136.3070 O   0  0  0  0  0  0  0  0  0  0  0  0
  187.2580  178.7900  135.1030 C   0  0  0  0  0  2  0  0  0  0  0  0
  185.8440  176.8060  135.4070 C   0  0  0  0  0  3  0  0  0  0  0  0
  186.3910  176.6740  136.8510 C   0  0  1  0  0  3  0  0  0  0  0  0
  186.3030  177.7710  134.5950 C   0  0  0  0  0  3  0  0  0  0  0  0
  186.8910  178.0770  137.2400 C   0  0  1  0  0  3  0  0  0  0  0  0
  185.5120  176.0060  137.8380 O   0  0  0  0  0  0  0  0  0  0  0  0
  182.4230  175.9220  137.2450 C   0  0  0  0  0  0  0  0  0  0  0  0
  184.7770  174.8330  137.5310 C   0  0  0  0  0  0  0  0  0  0  0  0
  184.8360  172.4080  137.2760 C   0  0  0  0  0  3  0  0  0  0  0  0
  183.3140  174.7980  137.3180 C   0  0  0  0  0  0  0  0  0  0  0  0
  180.2780  176.9630  137.1530 C   0  0  0  0  0  2  0  0  0  0  0  0
  181.3350  173.3570  137.0890 C   0  0  0  0  0  3  0  0  0  0  0  0
  185.4540  173.6340  137.4520 C   0  0  0  0  0  3  0  0  0  0  0  0
  181.1300  178.9380  136.3340 O   0  0  0  0  0  1  0  0  0  0  0  0
  180.4860  174.4430  137.0820 C   0  0  0  0  0  3  0  0  0  0  0  0
  181.0590  175.7080  137.1580 C   0  0  0  0  0  0  0  0  0  0  0  0
  182.6970  177.3730  137.2380 C   0  0  0  0  0  2  0  0  0  0  0  0
  182.7140  173.5220  137.1890 C   0  0  0  0  0  0  0  0  0  0  0  0
  181.3060  178.0450  137.3280 C   0  0  2  0  0  3  0  0  0  0  0  0
  183.4580  172.3400  137.1720 C   0  0  0  0  0  3  0  0  0  0  0  0
  186.4920  179.0040  139.5720 C   0  0  0  0  0  2  0  0  0  0  0  0
  185.9290  178.1820  140.6490 N   0  0  0  0  0  0  0  0  0  0  0  0
  184.0350  179.3760  140.0950 C   0  0  0  0  0  0  0  0  0  0  0  0
  184.4700  178.1660  140.6550 C   0  0  2  0  0  3  0  0  0  0  0  0
  183.9120  179.0070  141.5560 O   0  0  0  0  0  0  0  0  0  0  0  0
  183.9740  180.1630  139.0970 O   0  0  0  0  0  0  0  0  0  0  0  0
  187.6810  177.2980  142.0760 C   0  0  0  0  0  2  0  0  0  0  0  0
  186.6170  177.2070  143.1050 C   0  0  2  0  0  3  0  0  0  0  0  0
  186.6620  178.3710  142.0390 C   0  0  2  0  0  3  0  0  0  0  0  0
  187.5430  177.4030  144.3610 C   0  0  1  0  0  3  0  0  0  0  0  0
  189.5310  177.6350  146.6300 C   0  0  1  0  0  3  0  0  0  0  0  0
  188.9240  177.6650  144.1770 O   0  0  0  0  0  0  0  0  0  0  0  0
  185.9860  177.3630  147.0940 O   0  0  0  0  0  0  0  0  0  0  0  0
  192.4770  175.7520  148.2040 C   0  0  0  0  0  1  0  0  0  0  0  0
  190.5200  177.0920  147.6620 C   0  0  0  0  0  3  0  0  0  0  0  0
  191.3420  177.4530  144.9750 C   0  0  2  0  0  3  0  0  0  0  0  0
  191.9370  176.4220  145.8370 O   0  0  0  0  0  0  0  0  0  0  0  0
  189.8160  177.6120  145.3240 C   0  0  2  0  0  3  0  0  0  0  0  0
  186.9650  178.2490  145.2290 O   0  0  0  0  0  0  0  0  0  0  0  0
  188.1590  178.2500  148.6800 C   0  0  0  0  0  1  0  0  0  0  0  0
  187.0300  177.9100  146.5610 C   0  0  0  0  0  0  0  0  0  0  0  0
  188.2320  177.9700  147.2420 N   0  0  0  0  0  0  0  0  0  0  0  0
  191.5910  176.4600  147.1810 C   0  0  0  0  0  0  0  0  0  0  0  0
  191.7250  177.3080  143.5540 C   0  0  0  0  0  2  0  0  0  0  0  0
  191.5860  175.9830  143.1260 O   0  0  0  0  0  1  0  0  0  0  0  0
  188.3350  177.1130  139.1280 C   0  0  0  0  0  2  0  0  0  0  0  0
  189.7530  177.2820  138.8250 N   0  0  0  0  0  2  0  0  0  0  0  0
  190.4420  175.9900  138.7670 C   0  0  0  0  0  2  0  0  0  0  0  0
  190.0320  175.3060  137.4380 C   0  0  1  0  0  3  0  0  0  0  0  0
  190.1470  176.0570  136.3080 O   0  0  0  0  0  0  0  0  0  0  0  0
  191.1030  175.0620  136.5740 N   0  0  0  0  0  0  0  0  0  0  0  0
  192.3850  175.8300  136.4740 C   0  0  0  0  0  2  0  0  0  0  0  0
  193.4160  175.1180  135.7270 C   0  0  0  0  0  2  0  0  0  0  0  0
  194.8040  175.2140  136.3650 C   0  0  0  0  0  2  0  0  0  0  0  0
  195.4010  174.4390  138.3500 C   0  0  0  0  0  1  0  0  0  0  0  0
  194.7300  175.4850  137.7380 O   0  0  0  0  0  0  0  0  0  0  0  0
  1 48  1  1  0  0  0
  1 23  1  0  0  0  0
  2  7  1  0  0  0  0
  3  2  1  0  0  0  0
  4  5  1  0  0  0  0
  5  7  1  0  0  0  0
  5  8  1  1  0  0  0
  6  3  1  0  0  0  0
  6  4  2  0  0  0  0
  7  1  1  1  0  0  0
  9 12  1  0  0  0  0
 10  8  1  0  0  0  0
 11 15  2  0  0  0  0
 12 10  2  0  0  0  0
 13 18  1  0  0  0  0
 13 21  1  0  0  0  0
 14 20  1  0  0  0  0
 15 10  1  0  0  0  0
 17 14  2  0  0  0  0
 17 18  1  0  0  0  0
 18  9  2  0  0  0  0
 19  9  1  0  0  0  0
 19 21  1  0  0  0  0
 20 12  1  0  0  0  0
 21 16  1  6  0  0  0
 22 20  2  0  0  0  0
 22 11  1  0  0  0  0
 23 24  1  0  0  0  0
 25 26  1  0  0  0  0
 25 27  1  0  0  0  0
 26 24  1  1  0  0  0
 26 27  1  0  0  0  0
 28 25  2  0  0  0  0
 30 29  1  6  0  0  0
 30 32  1  0  0  0  0
 31 24  1  6  0  0  0
 31 29  1  0  0  0  0
 31 30  1  0  0  0  0
 32 34  1  6  0  0  0
 32 41  1  0  0  0  0
 33 44  1  0  0  0  0
 33 37  1  6  0  0  0
 38 46  1  6  0  0  0
 38 40  1  0  0  0  0
 38 39  1  0  0  0  0
 39 45  1  0  0  0  0
 40 34  1  6  0  0  0
 40 33  1  0  0  0  0
 41 43  1  0  0  0  0
 43 35  2  0  0  0  0
 43 44  1  0  0  0  0
 44 42  1  0  0  0  0
 45 37  2  0  0  0  0
 45 36  1  0  0  0  0
 47 46  1  0  0  0  0
 49 48  1  0  0  0  0
 50 49  1  0  0  0  0
 51 50  1  1  0  0  0
 52 53  1  0  0  0  0
 52 51  1  0  0  0  0
 53 51  1  0  0  0  0
 54 53  1  0  0  0  0
 55 56  1  0  0  0  0
 55 54  1  0  0  0  0
 56 58  1  0  0  0  0
 58 57  1  0  0  0  0
M  END
>  <MODEL>
6

>  <REMARK>
 VINA RESULT:      -6.8      2.738      7.187
  Name = 
  17 active torsions:
  status: ('A' for Active; 'I' for Inactive)
    1  A    between atoms: C_2  and  C_26
    2  A    between atoms: C_3  and  O_14
    3  A    between atoms: C_5  and  C_29
    4  A    between atoms: C_10  and  N_44
    5  A    between atoms: C_13  and  C_49
    6  A    between atoms: O_14  and  C_38
    7  A    between atoms: C_22  and  C_30
    8  A    between atoms: C_22  and  O_45
    9  A    between atoms: C_30  and  C_31
   10  A    between atoms: C_31  and  N_48
   11  A    between atoms: N_32  and  C_36
   12  A    between atoms: N_32  and  C_49
   13  A    between atoms: C_36  and  C_53
   14  A    between atoms: N_44  and  C_51
   15  A    between atoms: N_44  and  C_52
   16  A    between atoms: C_52  and  C_53
   17  A    between atoms: C_53  and  C_58
                            x       y       z     vdW  Elec       q    Type
                         _______ _______ _______ _____ _____    ______ ____

>  <TORSDO>
F 17

$$$$
=
 OpenBabel11032421233D

 58 66  0  0  1  0  0  0  0  0999 V2000
  189.6860  175.7740  137.7220 C   0  0  1  0  0  3  0  0  0  0  0  0
  191.8870  176.7160  137.7890 O   0  0  0  0  0  0  0  0  0  0  0  0
  193.1170  176.5100  138.4880 C   0  0  0  0  0  2  0  0  0  0  0  0
  191.9190  177.4890  140.3950 C   0  0  0  0  0  3  0  0  0  0  0  0
  190.5930  177.3160  139.6130 C   0  0  1  0  0  3  0  0  0  0  0  0
  193.0880  177.1530  139.8280 C   0  0  0  0  0  3  0  0  0  0  0  0
  190.8560  176.2050  138.5790 C   0  0  1  0  0  3  0  0  0  0  0  0
  189.3590  177.1680  140.4180 O   0  0  0  0  0  0  0  0  0  0  0  0
  187.0650  177.9050  142.4420 C   0  0  0  0  0  0  0  0  0  0  0  0
  189.3860  176.8950  141.8090 C   0  0  0  0  0  0  0  0  0  0  0  0
  190.6760  176.0080  143.6790 C   0  0  0  0  0  3  0  0  0  0  0  0
  188.3300  177.3040  142.7600 C   0  0  0  0  0  0  0  0  0  0  0  0
  185.0050  178.9850  142.9710 C   0  0  0  0  0  2  0  0  0  0  0  0
  187.7210  177.5410  145.1300 C   0  0  0  0  0  3  0  0  0  0  0  0
  190.4780  176.2300  142.3270 C   0  0  0  0  0  3  0  0  0  0  0  0
  184.0520  178.4410  140.9460 O   0  0  0  0  0  1  0  0  0  0  0  0
  186.5370  178.1720  144.8110 C   0  0  0  0  0  3  0  0  0  0  0  0
  186.2380  178.3360  143.4630 C   0  0  0  0  0  0  0  0  0  0  0  0
  186.4210  178.1690  141.1390 C   0  0  0  0  0  2  0  0  0  0  0  0
  188.5930  177.1020  144.1360 C   0  0  0  0  0  0  0  0  0  0  0  0
  185.1590  178.9990  141.4760 C   0  0  2  0  0  3  0  0  0  0  0  0
  189.7490  176.4680  144.5960 C   0  0  0  0  0  3  0  0  0  0  0  0
  189.3020  176.7450  136.6430 C   0  0  0  0  0  2  0  0  0  0  0  0
  187.9940  177.3760  136.8500 N   0  0  0  0  0  0  0  0  0  0  0  0
  187.7050  179.6650  136.8750 C   0  0  0  0  0  0  0  0  0  0  0  0
  188.0600  178.5740  137.6810 C   0  0  2  0  0  3  0  0  0  0  0  0
  189.0990  179.3910  137.3920 O   0  0  0  0  0  0  0  0  0  0  0  0
  186.8380  180.2650  136.1630 O   0  0  0  0  0  0  0  0  0  0  0  0
  186.4970  175.7610  135.8330 C   0  0  0  0  0  2  0  0  0  0  0  0
  185.4180  176.5470  136.4800 C   0  0  2  0  0  3  0  0  0  0  0  0
  186.8340  176.3440  137.1520 C   0  0  2  0  0  3  0  0  0  0  0  0
  184.4020  175.3630  136.6710 C   0  0  1  0  0  3  0  0  0  0  0  0
  182.5870  172.9470  136.8260 C   0  0  1  0  0  3  0  0  0  0  0  0
  184.8570  174.0250  136.5600 O   0  0  0  0  0  0  0  0  0  0  0  0
  181.5140  176.3020  137.4950 O   0  0  0  0  0  0  0  0  0  0  0  0
  181.1280  170.1800  134.6090 C   0  0  0  0  0  1  0  0  0  0  0  0
  181.6320  171.8970  136.2570 C   0  0  0  0  0  3  0  0  0  0  0  0
  184.4280  171.5880  135.9250 C   0  0  2  0  0  3  0  0  0  0  0  0
  183.4670  171.0480  134.9530 O   0  0  0  0  0  0  0  0  0  0  0  0
  183.8840  172.9460  136.5030 C   0  0  2  0  0  3  0  0  0  0  0  0
  183.6600  175.5690  137.7720 O   0  0  0  0  0  0  0  0  0  0  0  0
  180.5310  173.7180  138.1080 C   0  0  0  0  0  1  0  0  0  0  0  0
  182.3150  175.3020  137.6720 C   0  0  0  0  0  0  0  0  0  0  0  0
  181.8650  173.9990  137.5660 N   0  0  0  0  0  0  0  0  0  0  0  0
  182.1270  171.0960  135.3130 C   0  0  0  0  0  0  0  0  0  0  0  0
  185.8250  171.5420  135.4400 C   0  0  0  0  0  2  0  0  0  0  0  0
  186.7260  171.8560  136.4650 O   0  0  0  0  0  1  0  0  0  0  0  0
  189.5520  174.2440  137.5650 C   0  0  0  0  0  2  0  0  0  0  0  0
  189.6400  173.7410  136.1970 N   0  0  0  0  0  2  0  0  0  0  0  0
  190.9660  173.9860  135.6250 C   0  0  0  0  0  2  0  0  0  0  0  0
  192.0060  173.3330  136.5710 C   0  0  1  0  0  3  0  0  0  0  0  0
  192.7550  172.3240  136.0460 O   0  0  0  0  0  0  0  0  0  0  0  0
  193.3340  173.5940  136.2180 N   0  0  0  0  0  0  0  0  0  0  0  0
  193.8730  173.8770  134.8500 C   0  0  0  0  0  2  0  0  0  0  0  0
  195.2680  174.3030  134.8670 C   0  0  0  0  0  2  0  0  0  0  0  0
  195.5120  175.5470  135.7230 C   0  0  0  0  0  2  0  0  0  0  0  0
  197.6850  175.2290  135.9960 C   0  0  0  0  0  1  0  0  0  0  0  0
  196.4950  175.3260  136.6980 O   0  0  0  0  0  0  0  0  0  0  0  0
  1 23  1  6  0  0  0
  2  3  1  0  0  0  0
  2  7  1  0  0  0  0
  3  6  1  0  0  0  0
  5  4  1  0  0  0  0
  5  8  1  1  0  0  0
  6  4  2  0  0  0  0
  7  1  1  6  0  0  0
  7  5  1  0  0  0  0
  8 10  1  0  0  0  0
  9 12  2  0  0  0  0
  9 18  1  0  0  0  0
 10 15  2  0  0  0  0
 10 12  1  0  0  0  0
 11 22  2  0  0  0  0
 12 20  1  0  0  0  0
 13 18  1  0  0  0  0
 15 11  1  0  0  0  0
 17 14  1  0  0  0  0
 18 17  2  0  0  0  0
 19 21  1  0  0  0  0
 19  9  1  0  0  0  0
 20 22  1  0  0  0  0
 20 14  2  0  0  0  0
 21 16  1  6  0  0  0
 21 13  1  0  0  0  0
 23 24  1  0  0  0  0
 25 27  1  0  0  0  0
 25 26  1  0  0  0  0
 26 24  1  6  0  0  0
 27 26  1  0  0  0  0
 28 25  2  0  0  0  0
 29 31  1  0  0  0  0
 30 29  1  6  0  0  0
 30 32  1  0  0  0  0
 30 31  1  0  0  0  0
 31 24  1  6  0  0  0
 32 34  1  1  0  0  0
 32 41  1  0  0  0  0
 33 37  1  6  0  0  0
 33 44  1  0  0  0  0
 35 43  2  0  0  0  0
 36 45  1  0  0  0  0
 38 46  1  6  0  0  0
 38 40  1  0  0  0  0
 39 45  1  0  0  0  0
 39 38  1  0  0  0  0
 40 34  1  6  0  0  0
 40 33  1  0  0  0  0
 43 41  1  0  0  0  0
 44 43  1  0  0  0  0
 44 42  1  0  0  0  0
 45 37  2  0  0  0  0
 46 47  1  0  0  0  0
 48  1  1  0  0  0  0
 49 48  1  0  0  0  0
 50 49  1  0  0  0  0
 51 50  1  6  0  0  0
 52 53  1  0  0  0  0
 52 51  1  0  0  0  0
 53 51  1  0  0  0  0
 54 55  1  0  0  0  0
 54 53  1  0  0  0  0
 55 56  1  0  0  0  0
 56 58  1  0  0  0  0
 57 58  1  0  0  0  0
M  END
>  <MODEL>
7

>  <REMARK>
 VINA RESULT:      -6.6      3.408     10.804
  Name = 
  17 active torsions:
  status: ('A' for Active; 'I' for Inactive)
    1  A    between atoms: C_2  and  C_26
    2  A    between atoms: C_3  and  O_14
    3  A    between atoms: C_5  and  C_29
    4  A    between atoms: C_10  and  N_44
    5  A    between atoms: C_13  and  C_49
    6  A    between atoms: O_14  and  C_38
    7  A    between atoms: C_22  and  C_30
    8  A    between atoms: C_22  and  O_45
    9  A    between atoms: C_30  and  C_31
   10  A    between atoms: C_31  and  N_48
   11  A    between atoms: N_32  and  C_36
   12  A    between atoms: N_32  and  C_49
   13  A    between atoms: C_36  and  C_53
   14  A    between atoms: N_44  and  C_51
   15  A    between atoms: N_44  and  C_52
   16  A    between atoms: C_52  and  C_53
   17  A    between atoms: C_53  and  C_58
                            x       y       z     vdW  Elec       q    Type
                         _______ _______ _______ _____ _____    ______ ____

>  <TORSDO>
F 17

$$$$
=
 OpenBabel11032421233D

 58 66  0  0  1  0  0  0  0  0999 V2000
  186.7480  177.2620  138.1750 C   0  0  1  0  0  3  0  0  0  0  0  0
  184.9530  176.6370  136.7190 O   0  0  0  0  0  0  0  0  0  0  0  0
  183.8950  177.2690  135.9940 C   0  0  0  0  0  2  0  0  0  0  0  0
  182.8780  177.5650  138.2090 C   0  0  0  0  0  3  0  0  0  0  0  0
  184.2350  177.1840  138.8510 C   0  0  1  0  0  3  0  0  0  0  0  0
  182.7300  177.5470  136.8760 C   0  0  0  0  0  3  0  0  0  0  0  0
  185.3030  177.4730  137.7790 C   0  0  1  0  0  3  0  0  0  0  0  0
  184.5120  177.7300  140.1990 O   0  0  0  0  0  0  0  0  0  0  0  0
  184.7410  178.2530  143.2940 C   0  0  0  0  0  0  0  0  0  0  0  0
  183.5060  178.3350  140.9970 C   0  0  0  0  0  0  0  0  0  0  0  0
  181.2490  179.2550  141.0640 C   0  0  0  0  0  3  0  0  0  0  0  0
  183.6000  178.5160  142.4610 C   0  0  0  0  0  0  0  0  0  0  0  0
  185.8650  178.0030  145.3830 C   0  0  0  0  0  2  0  0  0  0  0  0
  182.3750  179.0910  144.5140 C   0  0  0  0  0  3  0  0  0  0  0  0
  182.3470  178.7580  140.3830 C   0  0  0  0  0  3  0  0  0  0  0  0
  187.9490  178.2590  144.4380 O   0  0  0  0  0  1  0  0  0  0  0  0
  183.4590  178.7770  145.3050 C   0  0  0  0  0  3  0  0  0  0  0  0
  184.6240  178.3650  144.6680 C   0  0  0  0  0  0  0  0  0  0  0  0
  186.1220  177.8620  142.9460 C   0  0  0  0  0  2  0  0  0  0  0  0
  182.4410  178.9810  143.1260 C   0  0  0  0  0  0  0  0  0  0  0  0
  186.8070  177.5580  144.3000 C   0  0  2  0  0  3  0  0  0  0  0  0
  181.2770  179.3420  142.4450 C   0  0  0  0  0  3  0  0  0  0  0  0
  187.5630  176.4740  137.1900 C   0  0  0  0  0  2  0  0  0  0  0  0
  188.9290  176.9790  137.0120 N   0  0  0  0  0  0  0  0  0  0  0  0
  188.1440  177.8690  135.0330 C   0  0  0  0  0  0  0  0  0  0  0  0
  189.0050  178.1250  136.1110 C   0  0  2  0  0  3  0  0  0  0  0  0
  189.6540  177.8740  134.9510 O   0  0  0  0  0  0  0  0  0  0  0  0
  186.9680  177.6620  134.5950 O   0  0  0  0  0  0  0  0  0  0  0  0
  190.6240  175.6810  138.1650 C   0  0  0  0  0  2  0  0  0  0  0  0
  191.5320  176.1540  137.0910 C   0  0  2  0  0  3  0  0  0  0  0  0
  190.0070  175.8350  136.8280 C   0  0  2  0  0  3  0  0  0  0  0  0
  192.4950  174.9110  137.0870 C   0  0  1  0  0  3  0  0  0  0  0  0
  194.5580  172.7000  137.1700 C   0  0  1  0  0  3  0  0  0  0  0  0
  193.4700  174.7790  138.1080 O   0  0  0  0  0  0  0  0  0  0  0  0
  191.8490  172.8250  134.8230 O   0  0  0  0  0  0  0  0  0  0  0  0
  198.3210  172.1290  136.7160 C   0  0  0  0  0  1  0  0  0  0  0  0
  195.8930  172.0410  136.8210 C   0  0  0  0  0  3  0  0  0  0  0  0
  195.7740  173.9880  138.8760 C   0  0  2  0  0  3  0  0  0  0  0  0
  196.9880  173.7780  138.0740 O   0  0  0  0  0  0  0  0  0  0  0  0
  194.5050  173.7660  137.9740 C   0  0  2  0  0  3  0  0  0  0  0  0
  191.7880  173.7850  136.8960 O   0  0  0  0  0  0  0  0  0  0  0  0
  193.5790  170.8010  135.7910 C   0  0  0  0  0  1  0  0  0  0  0  0
  192.3200  172.8600  136.0270 C   0  0  0  0  0  0  0  0  0  0  0  0
  193.4480  172.1400  136.3750 N   0  0  0  0  0  0  0  0  0  0  0  0
  196.9910  172.6780  137.2270 C   0  0  0  0  0  0  0  0  0  0  0  0
  195.8380  175.2070  139.7100 C   0  0  0  0  0  2  0  0  0  0  0  0
  197.0820  175.3210  140.3440 O   0  0  0  0  0  1  0  0  0  0  0  0
  187.3370  178.3980  139.0380 C   0  0  0  0  0  2  0  0  0  0  0  0
  187.5700  178.0680  140.4410 N   0  0  0  0  0  2  0  0  0  0  0  0
  188.9990  178.1010  140.7640 C   0  0  0  0  0  2  0  0  0  0  0  0
  189.3670  176.7250  141.3750 C   0  0  1  0  0  3  0  0  0  0  0  0
  190.6320  176.2770  141.1440 O   0  0  0  0  0  0  0  0  0  0  0  0
  190.3070  176.7980  142.4080 N   0  0  0  0  0  0  0  0  0  0  0  0
  191.3710  177.8350  142.5980 C   0  0  0  0  0  2  0  0  0  0  0  0
  191.5590  178.2040  143.9970 C   0  0  0  0  0  2  0  0  0  0  0  0
  191.0150  177.1640  144.9780 C   0  0  0  0  0  2  0  0  0  0  0  0
  191.5410  176.3520  146.9680 C   0  0  0  0  0  1  0  0  0  0  0  0
  192.0430  176.5290  145.6890 O   0  0  0  0  0  0  0  0  0  0  0  0
  1 23  1  6  0  0  0
  1 48  1  0  0  0  0
  2  7  1  0  0  0  0
  3  2  1  0  0  0  0
  3  6  1  0  0  0  0
  4  5  1  0  0  0  0
  5  8  1  1  0  0  0
  6  4  2  0  0  0  0
  7  1  1  1  0  0  0
  7  5  1  0  0  0  0
  8 10  1  0  0  0  0
  9 18  1  0  0  0  0
 10 12  1  0  0  0  0
 11 22  2  0  0  0  0
 12 20  1  0  0  0  0
 12  9  2  0  0  0  0
 14 17  1  0  0  0  0
 15 10  2  0  0  0  0
 15 11  1  0  0  0  0
 18 17  2  0  0  0  0
 18 13  1  0  0  0  0
 19  9  1  0  0  0  0
 19 21  1  0  0  0  0
 20 14  2  0  0  0  0
 21 16  1  6  0  0  0
 21 13  1  0  0  0  0
 22 20  1  0  0  0  0
 24 23  1  0  0  0  0
 25 26  1  0  0  0  0
 26 24  1  1  0  0  0
 27 25  1  0  0  0  0
 27 26  1  0  0  0  0
 28 25  2  0  0  0  0
 30 29  1  1  0  0  0
 31 24  1  1  0  0  0
 31 30  1  0  0  0  0
 31 29  1  0  0  0  0
 32 41  1  1  0  0  0
 32 30  1  0  0  0  0
 32 34  1  0  0  0  0
 33 37  1  6  0  0  0
 33 40  1  0  0  0  0
 35 43  2  0  0  0  0
 36 45  1  0  0  0  0
 37 45  2  0  0  0  0
 38 46  1  6  0  0  0
 39 38  1  0  0  0  0
 40 34  1  6  0  0  0
 40 38  1  0  0  0  0
 42 44  1  0  0  0  0
 43 44  1  0  0  0  0
 43 41  1  0  0  0  0
 44 33  1  0  0  0  0
 45 39  1  0  0  0  0
 46 47  1  0  0  0  0
 48 49  1  0  0  0  0
 49 50  1  0  0  0  0
 51 50  1  6  0  0  0
 51 53  1  0  0  0  0
 52 51  1  0  0  0  0
 52 53  1  0  0  0  0
 53 54  1  0  0  0  0
 54 55  1  0  0  0  0
 55 56  1  0  0  0  0
 56 58  1  0  0  0  0
 58 57  1  0  0  0  0
M  END
>  <MODEL>
8

>  <REMARK>
 VINA RESULT:      -6.5      3.755      9.322
  Name = 
  17 active torsions:
  status: ('A' for Active; 'I' for Inactive)
    1  A    between atoms: C_2  and  C_26
    2  A    between atoms: C_3  and  O_14
    3  A    between atoms: C_5  and  C_29
    4  A    between atoms: C_10  and  N_44
    5  A    between atoms: C_13  and  C_49
    6  A    between atoms: O_14  and  C_38
    7  A    between atoms: C_22  and  C_30
    8  A    between atoms: C_22  and  O_45
    9  A    between atoms: C_30  and  C_31
   10  A    between atoms: C_31  and  N_48
   11  A    between atoms: N_32  and  C_36
   12  A    between atoms: N_32  and  C_49
   13  A    between atoms: C_36  and  C_53
   14  A    between atoms: N_44  and  C_51
   15  A    between atoms: N_44  and  C_52
   16  A    between atoms: C_52  and  C_53
   17  A    between atoms: C_53  and  C_58
                            x       y       z     vdW  Elec       q    Type
                         _______ _______ _______ _____ _____    ______ ____

>  <TORSDO>
F 17

$$$$
=
 OpenBabel11032421233D

 58 66  0  0  1  0  0  0  0  0999 V2000
  185.7920  177.4550  137.8480 C   0  0  1  0  0  3  0  0  0  0  0  0
  184.4720  177.8800  135.8960 O   0  0  0  0  0  0  0  0  0  0  0  0
  183.2100  177.4840  135.3520 C   0  0  0  0  0  2  0  0  0  0  0  0
  184.3340  175.3410  134.9370 C   0  0  0  0  0  3  0  0  0  0  0  0
  185.4890  175.8010  135.8610 C   0  0  1  0  0  3  0  0  0  0  0  0
  183.3080  176.1650  134.6740 C   0  0  0  0  0  3  0  0  0  0  0  0
  184.8880  176.8830  136.7780 C   0  0  1  0  0  3  0  0  0  0  0  0
  186.2630  174.7370  136.5400 O   0  0  0  0  0  0  0  0  0  0  0  0
  184.9950  171.9170  135.9560 C   0  0  0  0  0  0  0  0  0  0  0  0
  186.9050  173.6910  135.8300 C   0  0  0  0  0  0  0  0  0  0  0  0
  188.9420  172.9450  134.7160 C   0  0  0  0  0  3  0  0  0  0  0  0
  186.3230  172.3480  135.6180 C   0  0  0  0  0  0  0  0  0  0  0  0
  183.2710  170.2940  136.2470 C   0  0  0  0  0  2  0  0  0  0  0  0
  186.7640  170.0430  134.8840 C   0  0  0  0  0  3  0  0  0  0  0  0
  188.1670  173.9180  135.3240 C   0  0  0  0  0  3  0  0  0  0  0  0
  181.5980  171.8760  136.1970 O   0  0  0  0  0  1  0  0  0  0  0  0
  185.5070  169.6300  135.2690 C   0  0  0  0  0  3  0  0  0  0  0  0
  184.6480  170.5870  135.7980 C   0  0  0  0  0  0  0  0  0  0  0  0
  183.8370  172.6720  136.4750 C   0  0  0  0  0  2  0  0  0  0  0  0
  187.1640  171.3690  135.0370 C   0  0  0  0  0  0  0  0  0  0  0  0
  182.7710  171.5990  136.8000 C   0  0  2  0  0  3  0  0  0  0  0  0
  188.4570  171.6550  134.5940 C   0  0  0  0  0  3  0  0  0  0  0  0
  187.2430  177.0950  137.7070 C   0  0  0  0  0  2  0  0  0  0  0  0
  188.1550  178.0260  138.3810 N   0  0  0  0  0  0  0  0  0  0  0  0
  189.1070  177.8490  136.2880 C   0  0  0  0  0  0  0  0  0  0  0  0
  189.1990  178.5430  137.5030 C   0  0  2  0  0  3  0  0  0  0  0  0
  190.2230  177.6840  137.2950 O   0  0  0  0  0  0  0  0  0  0  0  0
  188.4450  177.5500  135.2440 O   0  0  0  0  0  0  0  0  0  0  0  0
  187.5050  178.0240  140.7190 C   0  0  0  0  0  2  0  0  0  0  0  0
  188.8390  178.6280  140.9560 C   0  0  2  0  0  3  0  0  0  0  0  0
  188.5880  177.5510  139.8280 C   0  0  2  0  0  3  0  0  0  0  0  0
  189.0590  178.0530  142.4030 C   0  0  1  0  0  3  0  0  0  0  0  0
  189.2490  177.1030  145.2690 C   0  0  1  0  0  3  0  0  0  0  0  0
  187.9350  177.7090  143.1970 O   0  0  0  0  0  0  0  0  0  0  0  0
  192.0850  177.5980  143.1320 O   0  0  0  0  0  0  0  0  0  0  0  0
  188.4940  178.2680  148.8430 C   0  0  0  0  0  1  0  0  0  0  0  0
  189.3420  177.2890  146.7840 C   0  0  0  0  0  3  0  0  0  0  0  0
  186.8300  177.4930  145.4900 C   0  0  2  0  0  3  0  0  0  0  0  0
  187.1290  178.2300  146.7260 O   0  0  0  0  0  0  0  0  0  0  0  0
  188.1280  177.4040  144.6060 C   0  0  2  0  0  3  0  0  0  0  0  0
  189.9910  177.0860  142.3760 O   0  0  0  0  0  0  0  0  0  0  0  0
  191.5950  176.1580  145.5210 C   0  0  0  0  0  1  0  0  0  0  0  0
  190.9220  177.0940  143.3880 C   0  0  0  0  0  0  0  0  0  0  0  0
  190.5560  176.7590  144.6790 N   0  0  0  0  0  0  0  0  0  0  0  0
  188.3170  177.9100  147.3690 C   0  0  0  0  0  0  0  0  0  0  0  0
  185.5720  177.9310  144.8470 C   0  0  0  0  0  2  0  0  0  0  0  0
  185.2870  179.2670  145.1530 O   0  0  0  0  0  1  0  0  0  0  0  0
  185.3120  178.8050  138.4220 C   0  0  0  0  0  2  0  0  0  0  0  0
  184.3660  178.7170  139.5310 N   0  0  0  0  0  2  0  0  0  0  0  0
  182.9820  178.7440  139.0530 C   0  0  0  0  0  2  0  0  0  0  0  0
  182.1930  177.6810  139.8610 C   0  0  1  0  0  3  0  0  0  0  0  0
  181.5920  178.1100  141.0040 O   0  0  0  0  0  0  0  0  0  0  0  0
  180.8090  177.8810  139.8590 N   0  0  0  0  0  0  0  0  0  0  0  0
  180.0780  179.1810  139.7180 C   0  0  0  0  0  2  0  0  0  0  0  0
  179.4060  179.3170  138.4310 C   0  0  0  0  0  2  0  0  0  0  0  0
  179.2560  180.7700  137.9750 C   0  0  0  0  0  2  0  0  0  0  0  0
  180.7390  182.1590  137.0990 C   0  0  0  0  0  1  0  0  0  0  0  0
  180.3890  181.5350  138.2850 O   0  0  0  0  0  0  0  0  0  0  0  0
  1 23  1  6  0  0  0
  1 48  1  0  0  0  0
  2  7  1  0  0  0  0
  3  2  1  0  0  0  0
  4  5  1  0  0  0  0
  5  8  1  1  0  0  0
  5  7  1  0  0  0  0
  6  4  2  0  0  0  0
  6  3  1  0  0  0  0
  7  1  1  1  0  0  0
  9 19  1  0  0  0  0
 10  8  1  0  0  0  0
 11 15  1  0  0  0  0
 12 10  1  0  0  0  0
 12  9  2  0  0  0  0
 13 21  1  0  0  0  0
 14 20  2  0  0  0  0
 14 17  1  0  0  0  0
 15 10  2  0  0  0  0
 17 18  2  0  0  0  0
 18  9  1  0  0  0  0
 18 13  1  0  0  0  0
 19 21  1  0  0  0  0
 20 12  1  0  0  0  0
 21 16  1  6  0  0  0
 22 11  2  0  0  0  0
 22 20  1  0  0  0  0
 23 24  1  0  0  0  0
 25 27  1  0  0  0  0
 25 26  1  0  0  0  0
 26 24  1  1  0  0  0
 27 26  1  0  0  0  0
 28 25  2  0  0  0  0
 30 29  1  1  0  0  0
 30 32  1  0  0  0  0
 31 24  1  6  0  0  0
 31 29  1  0  0  0  0
 31 30  1  0  0  0  0
 32 41  1  6  0  0  0
 32 34  1  0  0  0  0
 33 37  1  1  0  0  0
 35 43  2  0  0  0  0
 37 45  2  0  0  0  0
 38 46  1  6  0  0  0
 38 39  1  0  0  0  0
 39 45  1  0  0  0  0
 40 34  1  1  0  0  0
 40 33  1  0  0  0  0
 40 38  1  0  0  0  0
 41 43  1  0  0  0  0
 43 44  1  0  0  0  0
 44 33  1  0  0  0  0
 44 42  1  0  0  0  0
 45 36  1  0  0  0  0
 46 47  1  0  0  0  0
 48 49  1  0  0  0  0
 50 49  1  0  0  0  0
 51 50  1  6  0  0  0
 51 52  1  0  0  0  0
 53 51  1  0  0  0  0
 53 52  1  0  0  0  0
 54 53  1  0  0  0  0
 55 54  1  0  0  0  0
 56 58  1  0  0  0  0
 56 55  1  0  0  0  0
 57 58  1  0  0  0  0
M  END
>  <MODEL>
9

>  <REMARK>
 VINA RESULT:      -6.5      1.400      2.764
  Name = 
  17 active torsions:
  status: ('A' for Active; 'I' for Inactive)
    1  A    between atoms: C_2  and  C_26
    2  A    between atoms: C_3  and  O_14
    3  A    between atoms: C_5  and  C_29
    4  A    between atoms: C_10  and  N_44
    5  A    between atoms: C_13  and  C_49
    6  A    between atoms: O_14  and  C_38
    7  A    between atoms: C_22  and  C_30
    8  A    between atoms: C_22  and  O_45
    9  A    between atoms: C_30  and  C_31
   10  A    between atoms: C_31  and  N_48
   11  A    between atoms: N_32  and  C_36
   12  A    between atoms: N_32  and  C_49
   13  A    between atoms: C_36  and  C_53
   14  A    between atoms: N_44  and  C_51
   15  A    between atoms: N_44  and  C_52
   16  A    between atoms: C_52  and  C_53
   17  A    between atoms: C_53  and  C_58
                            x       y       z     vdW  Elec       q    Type
                         _______ _______ _______ _____ _____    ______ ____

>  <TORSDO>
F 17

$$$$
