=
 OpenBabel11042413053D

 40 45  0  0  1  0  0  0  0  0999 V2000
  189.7410  176.7850  140.2270 C   0  0  1  0  0  3  0  0  0  0  0  0
  191.8660  176.8070  139.3140 C   0  0  0  0  0  0  0  0  0  0  0  0
  189.7700  176.5950  137.9470 C   0  0  0  0  0  0  0  0  0  0  0  0
  190.5380  176.1540  139.1490 C   0  0  2  0  0  3  0  0  0  0  0  0
  192.7290  176.7580  138.4530 O   0  0  0  0  0  0  0  0  0  0  0  0
  188.6960  177.2690  138.3260 C   0  0  0  0  0  0  0  0  0  0  0  0
  192.1620  177.5850  140.9120 S   0  0  0  0  0  0  0  0  0  0  0  0
  190.0970  176.2230  136.5410 C   0  0  0  0  0  1  0  0  0  0  0  0
  190.4670  177.1700  141.4640 C   0  0  2  0  0  3  0  0  0  0  0  0
  188.7000  177.4680  139.7650 C   0  0  0  0  0  2  0  0  0  0  0  0
  186.3730  177.8070  136.7950 C   0  0  1  0  0  3  0  0  0  0  0  0
  187.2400  178.8300  136.4650 C   0  0  0  0  0  2  0  0  0  0  0  0
  187.7200  177.8100  137.4400 N   0  0  0  0  0  0  0  0  0  0  0  0
  184.0180  177.7590  137.7200 N   0  0  0  0  0  2  0  0  0  0  0  0
  185.3490  178.2800  137.7760 C   0  0  0  0  0  0  0  0  0  0  0  0
  185.6720  179.1110  138.6680 O   0  0  0  0  0  0  0  0  0  0  0  0
  182.3890  175.8520  139.5420 C   0  0  0  0  0  2  0  0  0  0  0  0
  180.9170  176.0430  139.2050 C   0  0  0  0  0  2  0  0  0  0  0  0
  182.9800  178.1430  138.6680 C   0  0  1  0  0  3  0  0  0  0  0  0
  181.6440  178.1320  137.9810 C   0  0  0  0  0  0  0  0  0  0  0  0
  181.3360  179.0720  137.2040 O   0  0  0  0  0  0  0  0  0  0  0  0
  182.9990  177.2080  139.8820 C   0  0  0  0  0  2  0  0  0  0  0  0
  180.7560  177.0190  138.1320 N   0  0  0  0  0  2  0  0  0  0  0  0
  190.5360  176.0000  142.4370 C   0  0  0  0  0  2  0  0  0  0  0  0
  189.8410  177.6350  144.1690 C   0  0  1  0  0  3  0  0  0  0  0  0
  188.2090  176.2040  143.1880 C   0  0  0  0  0  2  0  0  0  0  0  0
  189.6360  176.2280  143.6390 C   0  0  1  0  0  3  0  0  0  0  0  0
  188.6700  178.3890  143.9570 O   0  0  0  0  0  0  0  0  0  0  0  0
  187.6280  177.4630  143.7770 C   0  0  1  0  0  3  0  0  0  0  0  0
  191.1130  176.1440  147.2870 N   0  0  0  0  0  1  0  0  0  0  0  0
  190.1810  177.5980  145.6530 C   0  0  1  0  0  3  0  0  0  0  0  0
  191.1840  176.5680  145.9000 C   0  0  1  0  0  3  0  0  0  0  0  0
  191.5890  177.9780  145.8440 N   0  0  0  0  0  2  0  0  0  0  0  0
  186.5930  178.0240  142.8520 C   0  0  0  0  0  3  0  0  0  0  0  0
  185.3810  178.4250  143.2580 C   0  0  0  0  0  3  0  0  0  0  0  0
  184.9190  178.3400  144.6830 C   0  0  1  0  0  3  0  0  0  0  0  0
  186.0050  178.6950  146.9010 C   0  0  0  0  0  1  0  0  0  0  0  0
  185.7240  179.3050  145.5410 C   0  0  0  0  0  2  0  0  0  0  0  0
  182.8620  178.8660  143.5360 O   0  0  0  0  0  1  0  0  0  0  0  0
  183.4180  178.6180  144.7930 C   0  0  0  0  0  2  0  0  0  0  0  0
  1 10  1  6  0  0  0
  1  9  1  0  0  0  0
  2  7  1  0  0  0  0
  3  6  2  0  0  0  0
  4  3  1  6  0  0  0
  4  2  1  0  0  0  0
  4  1  1  0  0  0  0
  5  2  2  0  0  0  0
  6 10  1  0  0  0  0
  7  9  1  0  0  0  0
  8  3  1  0  0  0  0
  9 24  1  1  0  0  0
 11 13  1  0  0  0  0
 11 15  1  1  0  0  0
 12 11  1  0  0  0  0
 12 13  1  0  0  0  0
 13  6  1  0  0  0  0
 14 15  1  0  0  0  0
 15 16  2  0  0  0  0
 17 22  1  0  0  0  0
 18 17  1  0  0  0  0
 19 14  1  6  0  0  0
 19 22  1  0  0  0  0
 20 23  1  0  0  0  0
 20 19  1  0  0  0  0
 21 20  2  0  0  0  0
 23 18  1  0  0  0  0
 25 28  1  1  0  0  0
 25 31  1  0  0  0  0
 26 27  1  0  0  0  0
 26 29  1  0  0  0  0
 27 24  1  6  0  0  0
 27 25  1  0  0  0  0
 29 34  1  6  0  0  0
 29 28  1  0  0  0  0
 31 33  1  6  0  0  0
 31 32  1  0  0  0  0
 32 30  1  1  0  0  0
 33 32  1  0  0  0  0
 34 35  2  0  0  0  0
 36 35  1  6  0  0  0
 36 40  1  0  0  0  0
 36 38  1  0  0  0  0
 38 37  1  0  0  0  0
 39 40  1  0  0  0  0
M  END
>  <MODEL>
1

>  <REMARK>
 VINA RESULT:      -8.3      0.000      0.000
  Name = 
  10 active torsions:
  status: ('A' for Active; 'I' for Inactive)
    1  A    between atoms: C_1  and  C_16
    2  A    between atoms: N_3  and  C_18
    3  A    between atoms: C_4  and  C_28
    4  A    between atoms: C_8  and  C_13
    5  A    between atoms: C_8  and  C_31
    6  A    between atoms: C_8  and  C_39
    7  A    between atoms: C_14  and  C_15
    8  A    between atoms: C_15  and  C_37
    9  A    between atoms: C_17  and  C_21
   10  A    between atoms: C_34  and  N_40
                            x       y       z     vdW  Elec       q    Type
                         _______ _______ _______ _____ _____    ______ ____

>  <TORSDO>
F 10

$$$$
=
 OpenBabel11042413053D

 40 45  0  0  1  0  0  0  0  0999 V2000
  186.1310  178.0730  142.5000 C   0  0  1  0  0  3  0  0  0  0  0  0
  185.3650  178.6750  144.5990 C   0  0  0  0  0  0  0  0  0  0  0  0
  187.5350  177.4730  144.2050 C   0  0  0  0  0  0  0  0  0  0  0  0
  186.0780  177.5740  143.8950 C   0  0  2  0  0  3  0  0  0  0  0  0
  185.3530  178.7720  145.8150 O   0  0  0  0  0  0  0  0  0  0  0  0
  188.2430  177.7800  143.1290 C   0  0  0  0  0  0  0  0  0  0  0  0
  184.4280  179.7980  143.5480 S   0  0  0  0  0  0  0  0  0  0  0  0
  188.1010  176.9800  145.4920 C   0  0  0  0  0  1  0  0  0  0  0  0
  185.0000  178.9210  142.0460 C   0  0  2  0  0  3  0  0  0  0  0  0
  187.3730  178.2380  142.0610 C   0  0  0  0  0  2  0  0  0  0  0  0
  190.9600  177.1350  142.6480 C   0  0  1  0  0  3  0  0  0  0  0  0
  191.0120  178.3490  143.3050 C   0  0  0  0  0  2  0  0  0  0  0  0
  189.6660  177.7580  143.0580 N   0  0  0  0  0  0  0  0  0  0  0  0
  190.0770  177.0810  140.2770 N   0  0  0  0  0  2  0  0  0  0  0  0
  191.1610  177.3230  141.1790 C   0  0  0  0  0  0  0  0  0  0  0  0
  192.2740  177.7250  140.7450 O   0  0  0  0  0  0  0  0  0  0  0  0
  187.7790  177.8420  138.3400 C   0  0  0  0  0  2  0  0  0  0  0  0
  187.6850  176.7450  137.2880 C   0  0  0  0  0  2  0  0  0  0  0  0
  190.1880  177.2830  138.8380 C   0  0  1  0  0  3  0  0  0  0  0  0
  189.9430  175.9810  138.1290 C   0  0  0  0  0  0  0  0  0  0  0  0
  190.8430  175.1020  138.1150 O   0  0  0  0  0  0  0  0  0  0  0  0
  189.2100  178.3690  138.3780 C   0  0  0  0  0  2  0  0  0  0  0  0
  188.6660  175.6960  137.5480 N   0  0  0  0  0  2  0  0  0  0  0  0
  183.8610  178.0620  141.5110 C   0  0  0  0  0  2  0  0  0  0  0  0
  182.4550  177.4770  139.5530 C   0  0  1  0  0  3  0  0  0  0  0  0
  183.0360  179.7540  139.9370 C   0  0  0  0  0  2  0  0  0  0  0  0
  183.5810  178.3640  140.0490 C   0  0  1  0  0  3  0  0  0  0  0  0
  181.3260  178.2690  139.2700 O   0  0  0  0  0  0  0  0  0  0  0  0
  181.7940  179.5830  139.1020 C   0  0  1  0  0  3  0  0  0  0  0  0
  184.0540  174.7420  137.6740 N   0  0  0  0  0  1  0  0  0  0  0  0
  182.8890  176.7160  138.3070 C   0  0  1  0  0  3  0  0  0  0  0  0
  183.1480  175.3210  138.6500 C   0  0  1  0  0  3  0  0  0  0  0  0
  181.8890  175.6850  137.9870 N   0  0  0  0  0  2  0  0  0  0  0  0
  180.7510  180.5640  139.5410 C   0  0  0  0  0  3  0  0  0  0  0  0
  180.4800  181.6970  138.8800 C   0  0  0  0  0  3  0  0  0  0  0  0
  181.2030  182.1190  137.6350 C   0  0  1  0  0  3  0  0  0  0  0  0
  180.4740  182.2560  135.2530 C   0  0  0  0  0  1  0  0  0  0  0  0
  180.6720  181.3360  136.4440 C   0  0  0  0  0  2  0  0  0  0  0  0
  182.3140  184.2610  137.5580 O   0  0  0  0  0  1  0  0  0  0  0  0
  181.0780  183.6270  137.4110 C   0  0  0  0  0  2  0  0  0  0  0  0
  1 10  1  1  0  0  0
  1  4  1  0  0  0  0
  2  5  2  0  0  0  0
  3  8  1  0  0  0  0
  4  3  1  1  0  0  0
  4  2  1  0  0  0  0
  6  3  2  0  0  0  0
  7  2  1  0  0  0  0
  9 24  1  1  0  0  0
  9  1  1  0  0  0  0
  9  7  1  0  0  0  0
 10  6  1  0  0  0  0
 11 15  1  6  0  0  0
 11 13  1  0  0  0  0
 11 12  1  0  0  0  0
 13  6  1  0  0  0  0
 13 12  1  0  0  0  0
 14 15  1  0  0  0  0
 16 15  2  0  0  0  0
 17 22  1  0  0  0  0
 18 23  1  0  0  0  0
 18 17  1  0  0  0  0
 19 14  1  1  0  0  0
 20 19  1  0  0  0  0
 21 20  2  0  0  0  0
 22 19  1  0  0  0  0
 23 20  1  0  0  0  0
 25 28  1  6  0  0  0
 25 27  1  0  0  0  0
 26 27  1  0  0  0  0
 27 24  1  1  0  0  0
 29 28  1  0  0  0  0
 29 34  1  1  0  0  0
 29 26  1  0  0  0  0
 31 33  1  6  0  0  0
 31 32  1  0  0  0  0
 31 25  1  0  0  0  0
 32 30  1  6  0  0  0
 33 32  1  0  0  0  0
 35 34  2  0  0  0  0
 36 38  1  6  0  0  0
 36 35  1  0  0  0  0
 37 38  1  0  0  0  0
 40 39  1  0  0  0  0
 40 36  1  0  0  0  0
M  END
>  <MODEL>
2

>  <REMARK>
 VINA RESULT:      -7.8      2.836      8.300
  Name = 
  10 active torsions:
  status: ('A' for Active; 'I' for Inactive)
    1  A    between atoms: C_1  and  C_16
    2  A    between atoms: N_3  and  C_18
    3  A    between atoms: C_4  and  C_28
    4  A    between atoms: C_8  and  C_13
    5  A    between atoms: C_8  and  C_31
    6  A    between atoms: C_8  and  C_39
    7  A    between atoms: C_14  and  C_15
    8  A    between atoms: C_15  and  C_37
    9  A    between atoms: C_17  and  C_21
   10  A    between atoms: C_34  and  N_40
                            x       y       z     vdW  Elec       q    Type
                         _______ _______ _______ _____ _____    ______ ____

>  <TORSDO>
F 10

$$$$
=
 OpenBabel11042413053D

 40 45  0  0  1  0  0  0  0  0999 V2000
  186.7440  178.3360  144.1510 C   0  0  1  0  0  3  0  0  0  0  0  0
  185.5990  178.1350  146.1520 C   0  0  0  0  0  0  0  0  0  0  0  0
  184.5360  178.9210  144.0160 C   0  0  0  0  0  0  0  0  0  0  0  0
  185.6950  179.0120  144.9520 C   0  0  2  0  0  3  0  0  0  0  0  0
  184.6630  178.1970  146.9320 O   0  0  0  0  0  0  0  0  0  0  0  0
  184.9240  178.3720  142.8760 C   0  0  0  0  0  0  0  0  0  0  0  0
  187.0060  177.0480  146.4420 S   0  0  0  0  0  0  0  0  0  0  0  0
  183.1800  179.4810  144.2810 C   0  0  0  0  0  1  0  0  0  0  0  0
  187.8100  177.6250  144.9020 C   0  0  2  0  0  3  0  0  0  0  0  0
  186.3010  177.9220  142.9690 C   0  0  0  0  0  2  0  0  0  0  0  0
  183.3270  178.6430  140.5500 C   0  0  1  0  0  3  0  0  0  0  0  0
  183.2960  177.2900  140.8260 C   0  0  0  0  0  2  0  0  0  0  0  0
  184.0810  178.1610  141.7460 N   0  0  0  0  0  0  0  0  0  0  0  0
  184.7670  177.8640  138.6210 N   0  0  0  0  0  2  0  0  0  0  0  0
  184.2850  178.9330  139.4400 C   0  0  0  0  0  0  0  0  0  0  0  0
  184.6350  180.1220  139.2090 O   0  0  0  0  0  0  0  0  0  0  0  0
  185.6590  175.7410  136.5450 C   0  0  0  0  0  2  0  0  0  0  0  0
  187.1780  175.6510  136.6070 C   0  0  0  0  0  2  0  0  0  0  0  0
  185.6690  178.0780  137.4970 C   0  0  1  0  0  3  0  0  0  0  0  0
  187.0820  177.8040  137.9280 C   0  0  0  0  0  0  0  0  0  0  0  0
  187.6940  178.6500  138.6300 O   0  0  0  0  0  0  0  0  0  0  0  0
  185.2590  177.1940  136.3130 C   0  0  0  0  0  2  0  0  0  0  0  0
  187.7070  176.5520  137.6250 N   0  0  0  0  0  2  0  0  0  0  0  0
  188.9430  178.5760  145.2620 C   0  0  0  0  0  2  0  0  0  0  0  0
  190.4100  176.6840  144.6110 C   0  0  1  0  0  3  0  0  0  0  0  0
  190.1010  178.4970  143.1000 C   0  0  0  0  0  2  0  0  0  0  0  0
  190.2330  178.1900  144.5590 C   0  0  1  0  0  3  0  0  0  0  0  0
  190.2950  176.1540  143.3120 O   0  0  0  0  0  0  0  0  0  0  0  0
  190.5270  177.2200  142.4260 C   0  0  1  0  0  3  0  0  0  0  0  0
  192.8320  176.0410  147.3110 N   0  0  0  0  0  1  0  0  0  0  0  0
  191.7680  176.3300  145.2040 C   0  0  1  0  0  3  0  0  0  0  0  0
  191.5950  175.8540  146.5730 C   0  0  1  0  0  3  0  0  0  0  0  0
  191.8200  174.8880  145.4890 N   0  0  0  0  0  2  0  0  0  0  0  0
  189.7400  177.0250  141.1660 C   0  0  0  0  0  3  0  0  0  0  0  0
  190.2950  176.6760  139.9970 C   0  0  0  0  0  3  0  0  0  0  0  0
  191.7680  176.4580  139.8160 C   0  0  1  0  0  3  0  0  0  0  0  0
  191.0350  175.1560  137.8180 C   0  0  0  0  0  1  0  0  0  0  0  0
  192.0620  176.1330  138.3590 C   0  0  0  0  0  2  0  0  0  0  0  0
  193.8890  177.6110  139.8400 O   0  0  0  0  0  1  0  0  0  0  0  0
  192.5670  177.6760  140.2860 C   0  0  0  0  0  2  0  0  0  0  0  0
  1 10  1  6  0  0  0
  1  9  1  0  0  0  0
  1  4  1  0  0  0  0
  2  7  1  0  0  0  0
  2  5  2  0  0  0  0
  3  8  1  0  0  0  0
  4  3  1  6  0  0  0
  4  2  1  0  0  0  0
  6 10  1  0  0  0  0
  6  3  2  0  0  0  0
  9 24  1  1  0  0  0
  9  7  1  0  0  0  0
 11 15  1  6  0  0  0
 11 12  1  0  0  0  0
 11 13  1  0  0  0  0
 12 13  1  0  0  0  0
 13  6  1  0  0  0  0
 14 15  1  0  0  0  0
 16 15  2  0  0  0  0
 17 18  1  0  0  0  0
 18 23  1  0  0  0  0
 19 20  1  0  0  0  0
 19 14  1  1  0  0  0
 20 21  2  0  0  0  0
 22 17  1  0  0  0  0
 22 19  1  0  0  0  0
 23 20  1  0  0  0  0
 25 28  1  6  0  0  0
 25 31  1  0  0  0  0
 26 27  1  0  0  0  0
 27 25  1  0  0  0  0
 27 24  1  1  0  0  0
 29 34  1  6  0  0  0
 29 26  1  0  0  0  0
 29 28  1  0  0  0  0
 31 33  1  6  0  0  0
 31 32  1  0  0  0  0
 32 30  1  1  0  0  0
 33 32  1  0  0  0  0
 35 34  2  0  0  0  0
 36 38  1  6  0  0  0
 36 35  1  0  0  0  0
 36 40  1  0  0  0  0
 37 38  1  0  0  0  0
 39 40  1  0  0  0  0
M  END
>  <MODEL>
3

>  <REMARK>
 VINA RESULT:      -7.8      2.229      6.342
  Name = 
  10 active torsions:
  status: ('A' for Active; 'I' for Inactive)
    1  A    between atoms: C_1  and  C_16
    2  A    between atoms: N_3  and  C_18
    3  A    between atoms: C_4  and  C_28
    4  A    between atoms: C_8  and  C_13
    5  A    between atoms: C_8  and  C_31
    6  A    between atoms: C_8  and  C_39
    7  A    between atoms: C_14  and  C_15
    8  A    between atoms: C_15  and  C_37
    9  A    between atoms: C_17  and  C_21
   10  A    between atoms: C_34  and  N_40
                            x       y       z     vdW  Elec       q    Type
                         _______ _______ _______ _____ _____    ______ ____

>  <TORSDO>
F 10

$$$$
=
 OpenBabel11042413053D

 40 45  0  0  1  0  0  0  0  0999 V2000
  185.6660  177.8110  143.4480 C   0  0  1  0  0  3  0  0  0  0  0  0
  185.3900  179.2180  145.2640 C   0  0  0  0  0  0  0  0  0  0  0  0
  187.1410  177.4220  145.1530 C   0  0  0  0  0  0  0  0  0  0  0  0
  185.7160  177.8040  144.9300 C   0  0  2  0  0  3  0  0  0  0  0  0
  185.5880  179.6890  146.3720 O   0  0  0  0  0  0  0  0  0  0  0  0
  187.7260  177.1780  143.9920 C   0  0  0  0  0  0  0  0  0  0  0  0
  184.5830  180.1640  143.9610 S   0  0  0  0  0  0  0  0  0  0  0  0
  187.7720  177.2210  146.4900 C   0  0  0  0  0  1  0  0  0  0  0  0
  184.7020  178.7440  142.8110 C   0  0  2  0  0  3  0  0  0  0  0  0
  186.8310  177.4950  142.8930 C   0  0  0  0  0  2  0  0  0  0  0  0
  190.1670  176.0560  143.0880 C   0  0  1  0  0  3  0  0  0  0  0  0
  190.5050  176.6970  144.2630 C   0  0  0  0  0  2  0  0  0  0  0  0
  189.0780  176.7570  143.8330 N   0  0  0  0  0  0  0  0  0  0  0  0
  190.1990  176.4560  140.5890 N   0  0  0  0  0  2  0  0  0  0  0  0
  190.5700  176.8770  141.9050 C   0  0  0  0  0  0  0  0  0  0  0  0
  191.2050  177.9520  142.0760 O   0  0  0  0  0  0  0  0  0  0  0  0
  189.2470  175.8610  137.7000 C   0  0  0  0  0  2  0  0  0  0  0  0
  190.4880  175.6700  136.8390 C   0  0  0  0  0  2  0  0  0  0  0  0
  190.5210  177.2260  139.3950 C   0  0  1  0  0  3  0  0  0  0  0  0
  191.7720  176.6790  138.7690 C   0  0  0  0  0  0  0  0  0  0  0  0
  192.8910  176.9360  139.2840 O   0  0  0  0  0  0  0  0  0  0  0  0
  189.3430  177.2040  138.4150 C   0  0  0  0  0  2  0  0  0  0  0  0
  191.6980  175.7950  137.6440 N   0  0  0  0  0  2  0  0  0  0  0  0
  183.3290  178.0970  142.6820 C   0  0  0  0  0  2  0  0  0  0  0  0
  182.6860  179.4200  140.6840 C   0  0  1  0  0  3  0  0  0  0  0  0
  184.0150  177.4630  140.4120 C   0  0  0  0  0  2  0  0  0  0  0  0
  182.8910  178.0190  141.2290 C   0  0  1  0  0  3  0  0  0  0  0  0
  183.6630  179.6880  139.7060 O   0  0  0  0  0  0  0  0  0  0  0  0
  184.1480  178.4420  139.2750 C   0  0  1  0  0  3  0  0  0  0  0  0
  179.1070  178.6440  140.2950 N   0  0  0  0  0  1  0  0  0  0  0  0
  181.2920  179.5570  140.0850 C   0  0  1  0  0  3  0  0  0  0  0  0
  180.3040  179.0300  141.0200 C   0  0  1  0  0  3  0  0  0  0  0  0
  180.4940  180.4820  140.9040 N   0  0  0  0  0  2  0  0  0  0  0  0
  185.5850  178.5570  138.8720 C   0  0  0  0  0  3  0  0  0  0  0  0
  186.0840  178.0080  137.7560 C   0  0  0  0  0  3  0  0  0  0  0  0
  185.2610  177.2010  136.7950 C   0  0  1  0  0  3  0  0  0  0  0  0
  187.1180  178.1230  135.4070 C   0  0  0  0  0  1  0  0  0  0  0  0
  185.7850  177.4000  135.3800 C   0  0  0  0  0  2  0  0  0  0  0  0
  183.9850  175.3140  137.5940 O   0  0  0  0  0  1  0  0  0  0  0  0
  185.2570  175.7210  137.1830 C   0  0  0  0  0  2  0  0  0  0  0  0
  1 10  1  6  0  0  0
  1  4  1  0  0  0  0
  2  5  2  0  0  0  0
  3  8  1  0  0  0  0
  4  3  1  6  0  0  0
  4  2  1  0  0  0  0
  6  3  2  0  0  0  0
  7  2  1  0  0  0  0
  9 24  1  1  0  0  0
  9  1  1  0  0  0  0
  9  7  1  0  0  0  0
 10  6  1  0  0  0  0
 11 15  1  6  0  0  0
 11 13  1  0  0  0  0
 11 12  1  0  0  0  0
 13  6  1  0  0  0  0
 13 12  1  0  0  0  0
 14 15  1  0  0  0  0
 15 16  2  0  0  0  0
 17 22  1  0  0  0  0
 18 23  1  0  0  0  0
 18 17  1  0  0  0  0
 19 14  1  1  0  0  0
 20 21  2  0  0  0  0
 20 19  1  0  0  0  0
 22 19  1  0  0  0  0
 23 20  1  0  0  0  0
 25 28  1  6  0  0  0
 25 27  1  0  0  0  0
 26 27  1  0  0  0  0
 27 24  1  1  0  0  0
 29 34  1  1  0  0  0
 29 28  1  0  0  0  0
 29 26  1  0  0  0  0
 31 25  1  0  0  0  0
 31 33  1  1  0  0  0
 31 32  1  0  0  0  0
 32 30  1  6  0  0  0
 33 32  1  0  0  0  0
 35 34  2  0  0  0  0
 36 38  1  6  0  0  0
 36 40  1  0  0  0  0
 36 35  1  0  0  0  0
 38 37  1  0  0  0  0
 40 39  1  0  0  0  0
M  END
>  <MODEL>
4

>  <REMARK>
 VINA RESULT:      -7.7      2.587      8.539
  Name = 
  10 active torsions:
  status: ('A' for Active; 'I' for Inactive)
    1  A    between atoms: C_1  and  C_16
    2  A    between atoms: N_3  and  C_18
    3  A    between atoms: C_4  and  C_28
    4  A    between atoms: C_8  and  C_13
    5  A    between atoms: C_8  and  C_31
    6  A    between atoms: C_8  and  C_39
    7  A    between atoms: C_14  and  C_15
    8  A    between atoms: C_15  and  C_37
    9  A    between atoms: C_17  and  C_21
   10  A    between atoms: C_34  and  N_40
                            x       y       z     vdW  Elec       q    Type
                         _______ _______ _______ _____ _____    ______ ____

>  <TORSDO>
F 10

$$$$
=
 OpenBabel11042413053D

 40 45  0  0  1  0  0  0  0  0999 V2000
  186.3060  178.0570  142.4240 C   0  0  1  0  0  3  0  0  0  0  0  0
  185.5120  178.6480  144.5160 C   0  0  0  0  0  0  0  0  0  0  0  0
  187.7120  177.4960  144.1400 C   0  0  0  0  0  0  0  0  0  0  0  0
  186.2550  177.5610  143.8200 C   0  0  2  0  0  3  0  0  0  0  0  0
  185.4890  178.7490  145.7310 O   0  0  0  0  0  0  0  0  0  0  0  0
  188.4200  177.8150  143.0690 C   0  0  0  0  0  0  0  0  0  0  0  0
  184.5560  179.7460  143.4540 S   0  0  0  0  0  0  0  0  0  0  0  0
  188.2800  177.0200  145.4330 C   0  0  0  0  0  1  0  0  0  0  0  0
  185.1590  178.8780  141.9590 C   0  0  2  0  0  3  0  0  0  0  0  0
  187.5470  178.2510  141.9930 C   0  0  0  0  0  2  0  0  0  0  0  0
  191.1550  177.2220  142.6280 C   0  0  1  0  0  3  0  0  0  0  0  0
  191.1730  178.4590  143.2420 C   0  0  0  0  0  2  0  0  0  0  0  0
  189.8430  177.8270  143.0070 N   0  0  0  0  0  0  0  0  0  0  0  0
  190.3350  176.9470  140.2500 N   0  0  0  0  0  2  0  0  0  0  0  0
  191.3620  177.3630  141.1540 C   0  0  0  0  0  0  0  0  0  0  0  0
  192.4260  177.8790  140.7170 O   0  0  0  0  0  0  0  0  0  0  0  0
  188.0320  177.5700  138.2700 C   0  0  0  0  0  2  0  0  0  0  0  0
  187.9730  176.4290  137.2640 C   0  0  0  0  0  2  0  0  0  0  0  0
  190.4510  177.0920  138.8050 C   0  0  1  0  0  3  0  0  0  0  0  0
  190.2430  175.7570  138.1480 C   0  0  0  0  0  0  0  0  0  0  0  0
  191.1640  174.9010  138.1750 O   0  0  0  0  0  0  0  0  0  0  0  0
  189.4490  178.1340  138.2940 C   0  0  0  0  0  2  0  0  0  0  0  0
  188.9780  175.4170  137.5720 N   0  0  0  0  0  2  0  0  0  0  0  0
  184.0450  177.9910  141.4190 C   0  0  0  0  0  2  0  0  0  0  0  0
  182.6640  177.3710  139.4540 C   0  0  1  0  0  3  0  0  0  0  0  0
  183.1150  179.6680  139.8880 C   0  0  0  0  0  2  0  0  0  0  0  0
  183.7400  178.3100  139.9660 C   0  0  1  0  0  3  0  0  0  0  0  0
  181.4900  178.1020  139.1930 O   0  0  0  0  0  0  0  0  0  0  0  0
  181.8800  179.4450  139.0540 C   0  0  1  0  0  3  0  0  0  0  0  0
  184.3080  174.7140  137.5030 N   0  0  0  0  0  1  0  0  0  0  0  0
  183.1360  176.6650  138.1880 C   0  0  1  0  0  3  0  0  0  0  0  0
  183.3730  175.2540  138.4740 C   0  0  1  0  0  3  0  0  0  0  0  0
  182.1400  175.6590  137.7870 N   0  0  0  0  0  2  0  0  0  0  0  0
  180.7840  180.3530  139.5200 C   0  0  0  0  0  3  0  0  0  0  0  0
  180.0610  180.1280  140.6260 C   0  0  0  0  0  3  0  0  0  0  0  0
  180.2580  178.9320  141.5100 C   0  0  1  0  0  3  0  0  0  0  0  0
  179.9960  178.7680  143.9860 C   0  0  0  0  0  1  0  0  0  0  0  0
  180.8080  179.3770  142.8580 C   0  0  0  0  0  2  0  0  0  0  0  0
  179.1210  176.8140  141.2970 O   0  0  0  0  0  1  0  0  0  0  0  0
  178.9540  178.1480  141.6730 C   0  0  0  0  0  2  0  0  0  0  0  0
  1 10  1  1  0  0  0
  1  4  1  0  0  0  0
  2  5  2  0  0  0  0
  3  8  1  0  0  0  0
  4  3  1  1  0  0  0
  4  2  1  0  0  0  0
  6  3  2  0  0  0  0
  7  2  1  0  0  0  0
  9 24  1  1  0  0  0
  9  1  1  0  0  0  0
  9  7  1  0  0  0  0
 10  6  1  0  0  0  0
 11 15  1  6  0  0  0
 11 13  1  0  0  0  0
 11 12  1  0  0  0  0
 13  6  1  0  0  0  0
 13 12  1  0  0  0  0
 14 15  1  0  0  0  0
 16 15  2  0  0  0  0
 17 22  1  0  0  0  0
 18 23  1  0  0  0  0
 18 17  1  0  0  0  0
 19 14  1  1  0  0  0
 20 21  2  0  0  0  0
 20 19  1  0  0  0  0
 22 19  1  0  0  0  0
 23 20  1  0  0  0  0
 25 28  1  6  0  0  0
 25 27  1  0  0  0  0
 26 27  1  0  0  0  0
 27 24  1  1  0  0  0
 29 28  1  0  0  0  0
 29 34  1  1  0  0  0
 29 26  1  0  0  0  0
 31 33  1  6  0  0  0
 31 32  1  0  0  0  0
 31 25  1  0  0  0  0
 32 30  1  6  0  0  0
 33 32  1  0  0  0  0
 34 35  2  0  0  0  0
 36 35  1  6  0  0  0
 36 40  1  0  0  0  0
 36 38  1  0  0  0  0
 38 37  1  0  0  0  0
 39 40  1  0  0  0  0
M  END
>  <MODEL>
5

>  <REMARK>
 VINA RESULT:      -7.6      2.653      7.727
  Name = 
  10 active torsions:
  status: ('A' for Active; 'I' for Inactive)
    1  A    between atoms: C_1  and  C_16
    2  A    between atoms: N_3  and  C_18
    3  A    between atoms: C_4  and  C_28
    4  A    between atoms: C_8  and  C_13
    5  A    between atoms: C_8  and  C_31
    6  A    between atoms: C_8  and  C_39
    7  A    between atoms: C_14  and  C_15
    8  A    between atoms: C_15  and  C_37
    9  A    between atoms: C_17  and  C_21
   10  A    between atoms: C_34  and  N_40
                            x       y       z     vdW  Elec       q    Type
                         _______ _______ _______ _____ _____    ______ ____

>  <TORSDO>
F 10

$$$$
=
 OpenBabel11042413053D

 40 45  0  0  1  0  0  0  0  0999 V2000
  190.0310  176.7080  138.4590 C   0  0  1  0  0  3  0  0  0  0  0  0
  191.8980  175.5100  137.8020 C   0  0  0  0  0  0  0  0  0  0  0  0
  191.8940  177.1360  139.7160 C   0  0  0  0  0  0  0  0  0  0  0  0
  191.4980  176.8530  138.3050 C   0  0  2  0  0  3  0  0  0  0  0  0
  193.0580  175.1330  137.8000 O   0  0  0  0  0  0  0  0  0  0  0  0
  190.8130  177.2180  140.4760 C   0  0  0  0  0  0  0  0  0  0  0  0
  190.5750  174.5130  137.0950 S   0  0  0  0  0  0  0  0  0  0  0  0
  193.2860  177.4100  140.1730 C   0  0  0  0  0  1  0  0  0  0  0  0
  189.3410  175.8010  137.5060 C   0  0  2  0  0  3  0  0  0  0  0  0
  189.6270  176.8720  139.7130 C   0  0  0  0  0  2  0  0  0  0  0  0
  190.2670  178.1840  143.0830 C   0  0  1  0  0  3  0  0  0  0  0  0
  191.3550  177.3510  143.2530 C   0  0  0  0  0  2  0  0  0  0  0  0
  190.8180  177.5070  141.8710 N   0  0  0  0  0  0  0  0  0  0  0  0
  187.7600  178.1920  143.4230 N   0  0  0  0  0  2  0  0  0  0  0  0
  189.0080  177.4990  143.5080 C   0  0  0  0  0  0  0  0  0  0  0  0
  189.0490  176.3040  143.9060 O   0  0  0  0  0  0  0  0  0  0  0  0
  184.9340  179.3550  142.9000 C   0  0  0  0  0  2  0  0  0  0  0  0
  184.2380  179.4900  144.2480 C   0  0  0  0  0  2  0  0  0  0  0  0
  186.4890  177.5740  143.7800 C   0  0  1  0  0  3  0  0  0  0  0  0
  186.0840  178.0210  145.1560 C   0  0  0  0  0  0  0  0  0  0  0  0
  186.6520  177.5260  146.1630 O   0  0  0  0  0  0  0  0  0  0  0  0
  185.4200  177.9190  142.7370 C   0  0  0  0  0  2  0  0  0  0  0  0
  185.1220  179.0670  145.3290 N   0  0  0  0  0  2  0  0  0  0  0  0
  188.9590  176.5450  136.2330 C   0  0  0  0  0  2  0  0  0  0  0  0
  186.7980  175.6040  137.0080 C   0  0  1  0  0  3  0  0  0  0  0  0
  186.9350  177.9160  136.4510 C   0  0  0  0  0  2  0  0  0  0  0  0
  187.4530  176.5720  136.0400 C   0  0  1  0  0  3  0  0  0  0  0  0
  186.0460  176.3270  137.9540 O   0  0  0  0  0  0  0  0  0  0  0  0
  185.8020  177.5900  137.3880 C   0  0  1  0  0  3  0  0  0  0  0  0
  186.0370  172.8130  134.7290 N   0  0  0  0  0  1  0  0  0  0  0  0
  185.9000  174.6290  136.2570 C   0  0  1  0  0  3  0  0  0  0  0  0
  186.6730  173.4550  135.8650 C   0  0  1  0  0  3  0  0  0  0  0  0
  185.7770  173.3820  137.0260 N   0  0  0  0  0  2  0  0  0  0  0  0
  185.7200  178.6300  138.4630 C   0  0  0  0  0  3  0  0  0  0  0  0
  184.5870  178.9280  139.1140 C   0  0  0  0  0  3  0  0  0  0  0  0
  183.2720  178.2640  138.8280 C   0  0  1  0  0  3  0  0  0  0  0  0
  182.6300  175.8710  139.1130 C   0  0  0  0  0  1  0  0  0  0  0  0
  183.0340  177.1450  139.8310 C   0  0  0  0  0  2  0  0  0  0  0  0
  181.2620  179.0800  137.7690 O   0  0  0  0  0  1  0  0  0  0  0  0
  182.1280  179.2800  138.8470 C   0  0  0  0  0  2  0  0  0  0  0  0
  1 10  1  1  0  0  0
  3  8  1  0  0  0  0
  3  6  2  0  0  0  0
  4  2  1  1  0  0  0
  4  1  1  0  0  0  0
  4  3  1  0  0  0  0
  5  2  2  0  0  0  0
  6 13  1  0  0  0  0
  7  9  1  0  0  0  0
  7  2  1  0  0  0  0
  9 24  1  6  0  0  0
  9  1  1  0  0  0  0
 10  6  1  0  0  0  0
 11 12  1  0  0  0  0
 11 15  1  1  0  0  0
 13 11  1  0  0  0  0
 13 12  1  0  0  0  0
 14 15  1  0  0  0  0
 15 16  2  0  0  0  0
 17 18  1  0  0  0  0
 18 23  1  0  0  0  0
 19 14  1  6  0  0  0
 19 20  1  0  0  0  0
 20 23  1  0  0  0  0
 20 21  2  0  0  0  0
 22 17  1  0  0  0  0
 22 19  1  0  0  0  0
 25 28  1  1  0  0  0
 26 29  1  0  0  0  0
 27 24  1  1  0  0  0
 27 26  1  0  0  0  0
 27 25  1  0  0  0  0
 29 28  1  0  0  0  0
 29 34  1  1  0  0  0
 31 25  1  0  0  0  0
 31 33  1  1  0  0  0
 32 30  1  6  0  0  0
 32 31  1  0  0  0  0
 32 33  1  0  0  0  0
 34 35  2  0  0  0  0
 36 40  1  1  0  0  0
 36 35  1  0  0  0  0
 36 38  1  0  0  0  0
 37 38  1  0  0  0  0
 39 40  1  0  0  0  0
M  END
>  <MODEL>
6

>  <REMARK>
 VINA RESULT:      -7.5      2.558      6.957
  Name = 
  10 active torsions:
  status: ('A' for Active; 'I' for Inactive)
    1  A    between atoms: C_1  and  C_16
    2  A    between atoms: N_3  and  C_18
    3  A    between atoms: C_4  and  C_28
    4  A    between atoms: C_8  and  C_13
    5  A    between atoms: C_8  and  C_31
    6  A    between atoms: C_8  and  C_39
    7  A    between atoms: C_14  and  C_15
    8  A    between atoms: C_15  and  C_37
    9  A    between atoms: C_17  and  C_21
   10  A    between atoms: C_34  and  N_40
                            x       y       z     vdW  Elec       q    Type
                         _______ _______ _______ _____ _____    ______ ____

>  <TORSDO>
F 10

$$$$
=
 OpenBabel11042413053D

 40 45  0  0  1  0  0  0  0  0999 V2000
  185.7920  177.8630  143.6570 C   0  0  1  0  0  3  0  0  0  0  0  0
  185.4680  179.1210  145.5710 C   0  0  0  0  0  0  0  0  0  0  0  0
  187.2870  177.4070  145.3280 C   0  0  0  0  0  0  0  0  0  0  0  0
  185.8480  177.7490  145.1340 C   0  0  2  0  0  3  0  0  0  0  0  0
  185.6510  179.5170  146.7110 O   0  0  0  0  0  0  0  0  0  0  0  0
  187.8770  177.2720  144.1510 C   0  0  0  0  0  0  0  0  0  0  0  0
  184.6200  180.1280  144.3420 S   0  0  0  0  0  0  0  0  0  0  0  0
  187.9300  177.1350  146.6450 C   0  0  0  0  0  1  0  0  0  0  0  0
  184.7890  178.8020  143.0910 C   0  0  2  0  0  3  0  0  0  0  0  0
  186.9650  177.6340  143.0800 C   0  0  0  0  0  2  0  0  0  0  0  0
  190.3440  176.2530  143.2000 C   0  0  1  0  0  3  0  0  0  0  0  0
  190.6830  176.9430  144.3470 C   0  0  0  0  0  2  0  0  0  0  0  0
  189.2440  176.9170  143.9610 N   0  0  0  0  0  0  0  0  0  0  0  0
  189.8680  176.9230  140.8060 N   0  0  0  0  0  2  0  0  0  0  0  0
  190.6680  177.0610  141.9840 C   0  0  0  0  0  0  0  0  0  0  0  0
  191.6230  177.8840  142.0150 O   0  0  0  0  0  0  0  0  0  0  0  0
  188.0550  177.0180  138.2940 C   0  0  0  0  0  2  0  0  0  0  0  0
  188.8960  176.5750  137.1050 C   0  0  0  0  0  2  0  0  0  0  0  0
  190.1000  177.7070  139.6000 C   0  0  1  0  0  3  0  0  0  0  0  0
  190.8950  176.8930  138.6190 C   0  0  0  0  0  0  0  0  0  0  0  0
  192.1300  176.7340  138.7990 O   0  0  0  0  0  0  0  0  0  0  0  0
  188.7660  178.1670  139.0020 C   0  0  0  0  0  2  0  0  0  0  0  0
  190.2470  176.2250  137.5310 N   0  0  0  0  0  2  0  0  0  0  0  0
  183.4430  178.1130  142.9160 C   0  0  0  0  0  2  0  0  0  0  0  0
  183.3780  177.5560  140.4990 C   0  0  1  0  0  3  0  0  0  0  0  0
  181.3570  178.1240  141.6220 C   0  0  0  0  0  2  0  0  0  0  0  0
  182.8140  178.4620  141.5770 C   0  0  1  0  0  3  0  0  0  0  0  0
  182.3620  176.7020  140.0280 O   0  0  0  0  0  0  0  0  0  0  0  0
  181.1420  177.3060  140.3760 C   0  0  1  0  0  3  0  0  0  0  0  0
  184.1840  180.6490  138.6700 N   0  0  0  0  0  1  0  0  0  0  0  0
  183.9420  178.3840  139.3520 C   0  0  1  0  0  3  0  0  0  0  0  0
  184.1890  179.7480  139.8080 C   0  0  1  0  0  3  0  0  0  0  0  0
  185.3110  178.8100  139.6800 N   0  0  0  0  0  2  0  0  0  0  0  0
  180.1020  176.2590  140.6310 C   0  0  0  0  0  3  0  0  0  0  0  0
  179.6430  175.4300  139.6840 C   0  0  0  0  0  3  0  0  0  0  0  0
  180.1080  175.4690  138.2580 C   0  0  1  0  0  3  0  0  0  0  0  0
  179.3760  173.0870  138.3660 C   0  0  0  0  0  1  0  0  0  0  0  0
  180.3800  174.0540  137.7690 C   0  0  0  0  0  2  0  0  0  0  0  0
  179.3030  177.5590  137.3580 O   0  0  0  0  0  1  0  0  0  0  0  0
  179.0880  176.1790  137.3660 C   0  0  0  0  0  2  0  0  0  0  0  0
  1 10  1  1  0  0  0
  1  4  1  0  0  0  0
  2  5  2  0  0  0  0
  3  8  1  0  0  0  0
  4  3  1  6  0  0  0
  4  2  1  0  0  0  0
  6  3  2  0  0  0  0
  7  2  1  0  0  0  0
  9 24  1  1  0  0  0
  9  1  1  0  0  0  0
  9  7  1  0  0  0  0
 10  6  1  0  0  0  0
 11 15  1  6  0  0  0
 11 13  1  0  0  0  0
 11 12  1  0  0  0  0
 13  6  1  0  0  0  0
 13 12  1  0  0  0  0
 14 15  1  0  0  0  0
 15 16  2  0  0  0  0
 17 22  1  0  0  0  0
 18 23  1  0  0  0  0
 18 17  1  0  0  0  0
 19 14  1  1  0  0  0
 20 21  2  0  0  0  0
 20 19  1  0  0  0  0
 22 19  1  0  0  0  0
 23 20  1  0  0  0  0
 25 28  1  6  0  0  0
 25 27  1  0  0  0  0
 27 26  1  0  0  0  0
 27 24  1  1  0  0  0
 28 29  1  0  0  0  0
 29 34  1  1  0  0  0
 29 26  1  0  0  0  0
 31 33  1  1  0  0  0
 31 32  1  0  0  0  0
 31 25  1  0  0  0  0
 32 30  1  6  0  0  0
 33 32  1  0  0  0  0
 35 34  2  0  0  0  0
 36 40  1  6  0  0  0
 36 35  1  0  0  0  0
 38 36  1  0  0  0  0
 38 37  1  0  0  0  0
 39 40  1  0  0  0  0
M  END
>  <MODEL>
7

>  <REMARK>
 VINA RESULT:      -7.5      2.534      8.288
  Name = 
  10 active torsions:
  status: ('A' for Active; 'I' for Inactive)
    1  A    between atoms: C_1  and  C_16
    2  A    between atoms: N_3  and  C_18
    3  A    between atoms: C_4  and  C_28
    4  A    between atoms: C_8  and  C_13
    5  A    between atoms: C_8  and  C_31
    6  A    between atoms: C_8  and  C_39
    7  A    between atoms: C_14  and  C_15
    8  A    between atoms: C_15  and  C_37
    9  A    between atoms: C_17  and  C_21
   10  A    between atoms: C_34  and  N_40
                            x       y       z     vdW  Elec       q    Type
                         _______ _______ _______ _____ _____    ______ ____

>  <TORSDO>
F 10

$$$$
=
 OpenBabel11042413053D

 40 45  0  0  1  0  0  0  0  0999 V2000
  186.8840  177.4290  137.2420 C   0  0  1  0  0  3  0  0  0  0  0  0
  187.0050  176.0950  135.3550 C   0  0  0  0  0  0  0  0  0  0  0  0
  185.3320  175.7490  137.1960 C   0  0  0  0  0  0  0  0  0  0  0  0
  186.7520  176.0140  136.8200 C   0  0  2  0  0  3  0  0  0  0  0  0
  186.7280  175.1830  134.5940 O   0  0  0  0  0  0  0  0  0  0  0  0
  184.8230  176.8110  137.7980 C   0  0  0  0  0  0  0  0  0  0  0  0
  187.8460  177.5830  134.7870 S   0  0  0  0  0  0  0  0  0  0  0  0
  184.6370  174.4400  137.0320 C   0  0  0  0  0  1  0  0  0  0  0  0
  187.8460  178.2700  136.4840 C   0  0  2  0  0  3  0  0  0  0  0  0
  185.7650  177.9160  137.7670 C   0  0  0  0  0  2  0  0  0  0  0  0
  182.5080  176.8160  139.4320 C   0  0  1  0  0  3  0  0  0  0  0  0
  182.0380  177.1610  138.1800 C   0  0  0  0  0  2  0  0  0  0  0  0
  183.4990  176.8960  138.3170 N   0  0  0  0  0  0  0  0  0  0  0  0
  183.5360  178.0150  141.4090 N   0  0  0  0  0  2  0  0  0  0  0  0
  182.6330  178.0270  140.2990 C   0  0  0  0  0  0  0  0  0  0  0  0
  181.9680  179.0630  140.0280 O   0  0  0  0  0  0  0  0  0  0  0  0
  185.6650  178.2940  143.6450 C   0  0  0  0  0  2  0  0  0  0  0  0
  184.9260  178.5590  144.9500 C   0  0  0  0  0  2  0  0  0  0  0  0
  183.7400  179.1720  142.2710 C   0  0  1  0  0  3  0  0  0  0  0  0
  182.9020  179.0280  143.5090 C   0  0  0  0  0  0  0  0  0  0  0  0
  181.6640  179.2410  143.4510 O   0  0  0  0  0  0  0  0  0  0  0  0
  185.2270  179.3250  142.6100 C   0  0  0  0  0  2  0  0  0  0  0  0
  183.4830  178.5640  144.7330 N   0  0  0  0  0  2  0  0  0  0  0  0
  189.2470  178.1470  137.0670 C   0  0  0  0  0  2  0  0  0  0  0  0
  190.5900  176.1620  137.7080 C   0  0  1  0  0  3  0  0  0  0  0  0
  189.5800  177.4890  139.4080 C   0  0  0  0  0  2  0  0  0  0  0  0
  189.3460  176.9710  138.0230 C   0  0  1  0  0  3  0  0  0  0  0  0
  191.5050  176.2780  138.7720 O   0  0  0  0  0  0  0  0  0  0  0  0
  190.7630  176.6910  139.8920 C   0  0  1  0  0  3  0  0  0  0  0  0
  189.2980  173.2730  135.8240 N   0  0  0  0  0  1  0  0  0  0  0  0
  190.2290  174.6990  137.4830 C   0  0  1  0  0  3  0  0  0  0  0  0
  190.1440  174.4310  136.0510 C   0  0  1  0  0  3  0  0  0  0  0  0
  191.3390  174.0190  136.7990 N   0  0  0  0  0  2  0  0  0  0  0  0
  191.6110  177.5380  140.7900 C   0  0  0  0  0  3  0  0  0  0  0  0
  191.6490  177.3890  142.1220 C   0  0  0  0  0  3  0  0  0  0  0  0
  190.8340  176.3700  142.8620 C   0  0  1  0  0  3  0  0  0  0  0  0
  191.4500  176.6290  145.2650 C   0  0  0  0  0  1  0  0  0  0  0  0
  191.6510  175.7990  144.0120 C   0  0  0  0  0  2  0  0  0  0  0  0
  188.4330  176.1720  143.0040 O   0  0  0  0  0  1  0  0  0  0  0  0
  189.5190  176.9740  143.3600 C   0  0  0  0  0  2  0  0  0  0  0  0
  1 10  1  6  0  0  0
  3  6  2  0  0  0  0
  4  2  1  6  0  0  0
  4  3  1  0  0  0  0
  4  1  1  0  0  0  0
  5  2  2  0  0  0  0
  6 13  1  0  0  0  0
  7  2  1  0  0  0  0
  7  9  1  0  0  0  0
  8  3  1  0  0  0  0
  9 24  1  1  0  0  0
  9  1  1  0  0  0  0
 10  6  1  0  0  0  0
 11 15  1  1  0  0  0
 12 13  1  0  0  0  0
 12 11  1  0  0  0  0
 13 11  1  0  0  0  0
 15 14  1  0  0  0  0
 16 15  2  0  0  0  0
 17 18  1  0  0  0  0
 19 14  1  6  0  0  0
 19 22  1  0  0  0  0
 19 20  1  0  0  0  0
 20 23  1  0  0  0  0
 21 20  2  0  0  0  0
 22 17  1  0  0  0  0
 23 18  1  0  0  0  0
 25 27  1  0  0  0  0
 25 28  1  1  0  0  0
 26 29  1  0  0  0  0
 27 24  1  6  0  0  0
 27 26  1  0  0  0  0
 28 29  1  0  0  0  0
 29 34  1  1  0  0  0
 31 33  1  6  0  0  0
 31 25  1  0  0  0  0
 32 30  1  1  0  0  0
 32 33  1  0  0  0  0
 32 31  1  0  0  0  0
 34 35  2  0  0  0  0
 36 35  1  1  0  0  0
 36 40  1  0  0  0  0
 36 38  1  0  0  0  0
 38 37  1  0  0  0  0
 39 40  1  0  0  0  0
M  END
>  <MODEL>
8

>  <REMARK>
 VINA RESULT:      -7.4      2.722      6.244
  Name = 
  10 active torsions:
  status: ('A' for Active; 'I' for Inactive)
    1  A    between atoms: C_1  and  C_16
    2  A    between atoms: N_3  and  C_18
    3  A    between atoms: C_4  and  C_28
    4  A    between atoms: C_8  and  C_13
    5  A    between atoms: C_8  and  C_31
    6  A    between atoms: C_8  and  C_39
    7  A    between atoms: C_14  and  C_15
    8  A    between atoms: C_15  and  C_37
    9  A    between atoms: C_17  and  C_21
   10  A    between atoms: C_34  and  N_40
                            x       y       z     vdW  Elec       q    Type
                         _______ _______ _______ _____ _____    ______ ____

>  <TORSDO>
F 10

$$$$
=
 OpenBabel11042413053D

 40 45  0  0  1  0  0  0  0  0999 V2000
  185.0190  177.3460  137.4350 C   0  0  1  0  0  3  0  0  0  0  0  0
  184.8730  175.0860  136.9610 C   0  0  0  0  0  0  0  0  0  0  0  0
  187.0030  176.4050  136.7920 C   0  0  0  0  0  0  0  0  0  0  0  0
  185.5430  176.3300  136.4910 C   0  0  2  0  0  3  0  0  0  0  0  0
  185.2410  173.9760  136.6150 O   0  0  0  0  0  0  0  0  0  0  0  0
  187.2280  177.3610  137.6780 C   0  0  0  0  0  0  0  0  0  0  0  0
  183.4130  175.3240  137.9900 S   0  0  0  0  0  0  0  0  0  0  0  0
  188.0580  175.6090  136.1020 C   0  0  0  0  0  1  0  0  0  0  0  0
  183.6400  177.1400  137.9480 C   0  0  2  0  0  3  0  0  0  0  0  0
  185.9750  177.9180  138.1570 C   0  0  0  0  0  2  0  0  0  0  0  0
  189.4230  178.2560  139.2320 C   0  0  1  0  0  3  0  0  0  0  0  0
  189.9930  177.8620  138.0370 C   0  0  0  0  0  2  0  0  0  0  0  0
  188.5140  177.7300  138.1700 N   0  0  0  0  0  0  0  0  0  0  0  0
  189.1030  177.4190  141.5980 N   0  0  0  0  0  2  0  0  0  0  0  0
  189.6220  177.2110  140.2810 C   0  0  0  0  0  0  0  0  0  0  0  0
  190.2170  176.1380  139.9920 O   0  0  0  0  0  0  0  0  0  0  0  0
  187.8220  177.5690  144.4170 C   0  0  0  0  0  2  0  0  0  0  0  0
  188.9510  177.5050  145.4360 C   0  0  0  0  0  2  0  0  0  0  0  0
  189.2240  176.4260  142.6580 C   0  0  1  0  0  3  0  0  0  0  0  0
  190.4130  176.7530  143.5170 C   0  0  0  0  0  0  0  0  0  0  0  0
  191.5720  176.5020  143.0970 O   0  0  0  0  0  0  0  0  0  0  0  0
  187.9320  176.3700  143.4810 C   0  0  0  0  0  2  0  0  0  0  0  0
  190.2460  177.4280  144.7680 N   0  0  0  0  0  2  0  0  0  0  0  0
  182.6150  177.7450  136.9990 C   0  0  0  0  0  2  0  0  0  0  0  0
  180.3880  178.8180  137.2030 C   0  0  1  0  0  3  0  0  0  0  0  0
  181.7530  178.5810  139.1390 C   0  0  0  0  0  2  0  0  0  0  0  0
  181.8300  178.8590  137.6700 C   0  0  1  0  0  3  0  0  0  0  0  0
  179.5570  178.4550  138.2800 O   0  0  0  0  0  0  0  0  0  0  0  0
  180.2860  178.7210  139.4520 C   0  0  1  0  0  3  0  0  0  0  0  0
  180.7920  181.9260  135.2680 N   0  0  0  0  0  1  0  0  0  0  0  0
  179.9700  180.1760  136.6520 C   0  0  1  0  0  3  0  0  0  0  0  0
  180.7630  180.4880  135.4670 C   0  0  1  0  0  3  0  0  0  0  0  0
  179.3840  180.0050  135.3140 N   0  0  0  0  0  2  0  0  0  0  0  0
  179.9030  177.7540  140.5290 C   0  0  0  0  0  3  0  0  0  0  0  0
  180.0540  178.0100  141.8360 C   0  0  0  0  0  3  0  0  0  0  0  0
  180.6380  179.2870  142.3650 C   0  0  1  0  0  3  0  0  0  0  0  0
  178.9380  179.3540  144.1890 C   0  0  0  0  0  1  0  0  0  0  0  0
  179.5460  180.1150  143.0260 C   0  0  0  0  0  2  0  0  0  0  0  0
  183.0150  178.9890  142.6680 O   0  0  0  0  0  1  0  0  0  0  0  0
  181.7870  179.0050  143.3350 C   0  0  0  0  0  2  0  0  0  0  0  0
  1  9  1  0  0  0  0
  1 10  1  1  0  0  0
  2  7  1  0  0  0  0
  3  6  2  0  0  0  0
  4  3  1  1  0  0  0
  4  2  1  0  0  0  0
  4  1  1  0  0  0  0
  5  2  2  0  0  0  0
  6 10  1  0  0  0  0
  6 13  1  0  0  0  0
  8  3  1  0  0  0  0
  9 24  1  6  0  0  0
  9  7  1  0  0  0  0
 11 15  1  1  0  0  0
 12 13  1  0  0  0  0
 12 11  1  0  0  0  0
 13 11  1  0  0  0  0
 15 14  1  0  0  0  0
 16 15  2  0  0  0  0
 17 18  1  0  0  0  0
 19 14  1  6  0  0  0
 19 22  1  0  0  0  0
 19 20  1  0  0  0  0
 20 23  1  0  0  0  0
 21 20  2  0  0  0  0
 22 17  1  0  0  0  0
 23 18  1  0  0  0  0
 25 27  1  0  0  0  0
 25 28  1  1  0  0  0
 26 29  1  0  0  0  0
 27 24  1  6  0  0  0
 27 26  1  0  0  0  0
 28 29  1  0  0  0  0
 29 34  1  1  0  0  0
 31 33  1  6  0  0  0
 31 25  1  0  0  0  0
 32 30  1  1  0  0  0
 32 31  1  0  0  0  0
 33 32  1  0  0  0  0
 34 35  2  0  0  0  0
 36 35  1  1  0  0  0
 36 38  1  0  0  0  0
 36 40  1  0  0  0  0
 38 37  1  0  0  0  0
 39 40  1  0  0  0  0
M  END
>  <MODEL>
9

>  <REMARK>
 VINA RESULT:      -7.1      3.025      8.535
  Name = 
  10 active torsions:
  status: ('A' for Active; 'I' for Inactive)
    1  A    between atoms: C_1  and  C_16
    2  A    between atoms: N_3  and  C_18
    3  A    between atoms: C_4  and  C_28
    4  A    between atoms: C_8  and  C_13
    5  A    between atoms: C_8  and  C_31
    6  A    between atoms: C_8  and  C_39
    7  A    between atoms: C_14  and  C_15
    8  A    between atoms: C_15  and  C_37
    9  A    between atoms: C_17  and  C_21
   10  A    between atoms: C_34  and  N_40
                            x       y       z     vdW  Elec       q    Type
                         _______ _______ _______ _____ _____    ______ ____

>  <TORSDO>
F 10

$$$$
