=
 OpenBabel11042411503D

 53 59  0  0  1  0  0  0  0  0999 V2000
  187.0950  176.9570  137.2890 N   0  0  0  0  0  0  0  0  0  0  0  0
  189.2480  175.7270  137.2240 C   0  0  0  0  0  0  0  0  0  0  0  0
  189.8430  173.4350  136.5300 C   0  0  0  0  0  1  0  0  0  0  0  0
  187.4370  174.0090  136.9090 C   0  0  0  0  0  3  0  0  0  0  0  0
  186.3610  174.7460  136.6590 C   0  0  0  0  0  3  0  0  0  0  0  0
  188.3130  176.7810  137.7030 C   0  0  0  0  0  3  0  0  0  0  0  0
  186.4560  176.1700  136.2430 C   0  0  1  0  0  3  0  0  0  0  0  0
  188.8350  174.4850  136.8690 C   0  0  0  0  0  0  0  0  0  0  0  0
  184.5280  177.5440  137.0730 C   0  0  0  0  0  2  0  0  0  0  0  0
  183.3270  176.8010  137.5270 C   0  0  0  0  0  0  0  0  0  0  0  0
  185.0660  176.7180  135.9100 C   0  0  2  0  0  3  0  0  0  0  0  0
  184.0480  175.6040  135.6380 C   0  0  0  0  0  2  0  0  0  0  0  0
  182.5030  177.1620  138.5400 C   0  0  2  0  0  3  0  0  0  0  0  0
  183.0800  175.6700  136.7110 N   0  0  0  0  0  0  0  0  0  0  0  0
  179.7540  174.7500  140.2810 S   0  0  0  0  0  0  0  0  0  0  0  0
  178.9390  174.1340  137.7370 C   0  0  0  0  0  1  0  0  0  0  0  0
  181.2650  175.6790  140.0890 C   0  0  0  0  0  3  0  0  0  0  0  0
  180.2720  176.0970  138.0840 O   0  0  0  0  0  0  0  0  0  0  0  0
  181.3610  176.2880  138.9200 C   0  0  0  0  0  0  0  0  0  0  0  0
  179.2150  175.3240  138.6300 C   0  0  2  0  0  3  0  0  0  0  0  0
  182.0780  179.4740  138.9200 O   0  0  0  0  0  0  0  0  0  0  0  0
  182.6750  178.4300  139.3060 C   0  0  0  0  0  0  0  0  0  0  0  0
  183.4720  178.4810  140.4940 N   0  0  0  0  0  0  0  0  0  0  0  0
  184.6680  178.9850  140.5040 C   0  0  0  0  0  3  0  0  0  0  0  0
  185.4480  179.0450  141.7680 C   0  0  0  0  0  2  0  0  0  0  0  0
  184.5650  178.6670  142.9380 C   0  0  0  0  0  2  0  0  0  0  0  0
  185.7220  178.5860  146.6500 C   0  0  0  0  0  2  0  0  0  0  0  0
  184.8540  178.7120  145.4360 C   0  0  0  0  0  0  0  0  0  0  0  0
  186.8420  177.5700  146.4360 C   0  0  0  0  0  2  0  0  0  0  0  0
  186.5770  177.5980  143.9670 C   0  0  0  0  0  2  0  0  0  0  0  0
  187.5550  177.8390  145.1170 C   0  0  0  0  0  2  0  0  0  0  0  0
  183.6810  179.1560  145.5740 O   0  0  0  0  0  0  0  0  0  0  0  0
  185.3790  178.4170  144.1230 N   0  0  0  0  0  0  0  0  0  0  0  0
  191.4220  176.0820  138.3460 C   0  0  0  0  0  0  0  0  0  0  0  0
  190.6690  175.9680  137.2890 N   0  0  0  0  0  0  0  0  0  0  0  0
  192.8870  176.2940  138.1550 C   0  0  0  0  0  2  0  0  0  0  0  0
  193.5380  175.0080  137.6900 C   0  0  0  0  0  2  0  0  0  0  0  0
  194.8710  175.3030  137.1900 N   0  0  0  0  0  2  0  0  0  0  0  0
  197.3570  175.0270  138.1020 O   0  0  0  0  0  0  0  0  0  0  0  0
  195.5240  174.2440  139.5320 O   0  0  0  0  0  0  0  0  0  0  0  0
  196.0050  174.3640  138.1110 S   0  0  0  0  0  0  0  0  0  0  0  0
  194.9640  171.8770  137.4020 C   0  0  0  0  0  3  0  0  0  0  0  0
  197.4000  171.0870  136.0990 C   0  0  0  0  0  2  0  0  0  0  0  0
  196.6920  169.7700  137.1350 S   0  0  0  0  0  0  0  0  0  0  0  0
  195.0810  170.5630  137.2220 C   0  0  0  0  0  3  0  0  0  0  0  0
  196.1350  172.7720  137.3840 C   0  0  0  0  0  0  0  0  0  0  0  0
  197.2770  172.4020  136.8010 C   0  0  0  0  0  3  0  0  0  0  0  0
  190.8820  176.0170  139.6370 O   0  0  0  0  0  0  0  0  0  0  0  0
  190.1870  177.6520  142.9140 O   0  0  0  0  0  0  0  0  0  0  0  0
  191.3010  176.8660  142.7660 C   0  0  0  0  0  2  0  0  0  0  0  0
  190.1530  176.7640  141.8060 C   0  0  1  0  0  0  0  0  0  0  0  0
  189.7060  177.7540  140.7230 C   0  0  0  0  0  2  0  0  0  0  0  0
  191.0020  177.0870  140.5630 C   0  0  2  0  0  3  0  0  0  0  0  0
  1  6  2  0  0  0  0
  2 35  1  0  0  0  0
  2  6  1  0  0  0  0
  3  8  1  0  0  0  0
  5  4  2  0  0  0  0
  7  5  1  1  0  0  0
  7  1  1  0  0  0  0
  8  4  1  0  0  0  0
  8  2  2  0  0  0  0
  9 10  1  0  0  0  0
 10 13  1  0  0  0  0
 11 12  1  1  0  0  0
 11  7  1  0  0  0  0
 11  9  1  0  0  0  0
 12 14  1  0  0  0  0
 13 19  1  0  0  0  0
 13 22  1  6  0  0  0
 14 10  2  0  0  0  0
 17 15  1  0  0  0  0
 18 20  1  0  0  0  0
 18 19  1  0  0  0  0
 19 17  2  0  0  0  0
 20 16  1  6  0  0  0
 20 15  1  0  0  0  0
 21 22  2  0  0  0  0
 22 23  1  0  0  0  0
 23 24  2  0  0  0  0
 24 25  1  0  0  0  0
 25 26  1  0  0  0  0
 26 33  1  0  0  0  0
 28 32  2  0  0  0  0
 28 27  1  0  0  0  0
 29 27  1  0  0  0  0
 30 33  1  0  0  0  0
 30 31  1  0  0  0  0
 31 29  1  0  0  0  0
 33 28  1  0  0  0  0
 34 48  1  0  0  0  0
 35 34  2  0  0  0  0
 36 34  1  0  0  0  0
 37 36  1  0  0  0  0
 38 37  1  0  0  0  0
 38 41  1  0  0  0  0
 39 41  2  0  0  0  0
 41 40  2  0  0  0  0
 43 47  1  0  0  0  0
 43 44  1  0  0  0  0
 44 45  1  0  0  0  0
 45 42  2  0  0  0  0
 46 42  1  0  0  0  0
 46 41  1  0  0  0  0
 47 46  2  0  0  0  0
 50 49  1  0  0  0  0
 51 52  1  1  0  0  0
 51 50  1  0  0  0  0
 51 49  1  0  0  0  0
 53 48  1  6  0  0  0
 53 52  1  0  0  0  0
 53 51  1  0  0  0  0
M  END
>  <MODEL>
1

>  <REMARK>
 VINA RESULT:      -8.0      0.000      0.000
  Name = 
  15 active torsions:
  status: ('A' for Active; 'I' for Inactive)
    1  A    between atoms: C_10  and  N_32
    2  A    between atoms: C_14  and  C_47
    3  A    between atoms: N_15  and  S_52
    4  A    between atoms: N_15  and  C_53
    5  A    between atoms: C_20  and  C_39
    6  A    between atoms: C_20  and  O_44
    7  A    between atoms: C_26  and  S_52
    8  A    between atoms: C_27  and  C_33
    9  A    between atoms: C_27  and  C_34
   10  A    between atoms: C_33  and  N_38
   11  A    between atoms: C_39  and  C_53
   12  A    between atoms: C_40  and  C_41
   13  A    between atoms: C_40  and  C_48
   14  A    between atoms: O_44  and  C_49
   15  A    between atoms: C_48  and  N_51
                            x       y       z     vdW  Elec       q    Type
                         _______ _______ _______ _____ _____    ______ ____

>  <TORSDO>
F 15

$$$$
=
 OpenBabel11042411503D

 53 59  0  0  1  0  0  0  0  0999 V2000
  189.7780  176.4650  140.7150 N   0  0  0  0  0  0  0  0  0  0  0  0
  189.7080  177.6730  142.8790 C   0  0  0  0  0  0  0  0  0  0  0  0
  191.2760  179.2330  143.9730 C   0  0  0  0  0  1  0  0  0  0  0  0
  192.0680  177.8710  142.0300 C   0  0  0  0  0  3  0  0  0  0  0  0
  191.9690  177.4750  140.7660 C   0  0  0  0  0  3  0  0  0  0  0  0
  189.3450  176.5840  141.9330 C   0  0  0  0  0  3  0  0  0  0  0  0
  190.6640  177.4140  140.0560 C   0  0  1  0  0  3  0  0  0  0  0  0
  190.9390  178.2430  142.9070 C   0  0  0  0  0  0  0  0  0  0  0  0
  189.6260  177.3480  137.7720 C   0  0  0  0  0  2  0  0  0  0  0  0
  189.1720  176.0230  137.2850 C   0  0  0  0  0  0  0  0  0  0  0  0
  190.8790  177.0420  138.5870 C   0  0  2  0  0  3  0  0  0  0  0  0
  191.1870  175.5530  138.3990 C   0  0  0  0  0  3  0  0  0  0  0  0
  188.0920  175.7900  136.5010 C   0  0  0  0  0  0  0  0  0  0  0  0
  190.0630  174.9940  137.6780 N   0  0  0  0  0  0  0  0  0  0  0  0
  187.6460  172.0830  134.9290 S   0  0  0  0  0  0  0  0  0  0  0  0
  185.2330  172.0120  136.2290 C   0  0  0  0  0  1  0  0  0  0  0  0
  188.2240  173.7650  135.0830 C   0  0  0  0  0  3  0  0  0  0  0  0
  186.8670  173.6310  136.9060 O   0  0  0  0  0  0  0  0  0  0  0  0
  187.7250  174.3960  136.1310 C   0  0  0  0  0  0  0  0  0  0  0  0
  186.7010  172.2880  136.4810 C   0  0  2  0  0  3  0  0  0  0  0  0
  187.6480  177.5710  134.9840 O   0  0  0  0  0  0  0  0  0  0  0  0
  187.2360  176.8860  135.9620 C   0  0  0  0  0  0  0  0  0  0  0  0
  185.9380  177.1530  136.5040 N   0  0  0  0  0  0  0  0  0  0  0  0
  184.8550  176.6690  135.9760 C   0  0  0  0  0  3  0  0  0  0  0  0
  183.5310  176.9480  136.5910 C   0  0  0  0  0  2  0  0  0  0  0  0
  183.7030  177.8170  137.8190 C   0  0  0  0  0  2  0  0  0  0  0  0
  181.8610  181.1380  138.6550 C   0  0  0  0  0  2  0  0  0  0  0  0
  182.9440  180.1160  138.4990 C   0  0  0  0  0  0  0  0  0  0  0  0
  180.7950  180.9960  137.5700 C   0  0  0  0  0  2  0  0  0  0  0  0
  181.5250  178.7000  136.9670 C   0  0  0  0  0  2  0  0  0  0  0  0
  180.3480  179.5440  137.4550 C   0  0  0  0  0  2  0  0  0  0  0  0
  184.0730  180.3470  139.0140 O   0  0  0  0  0  0  0  0  0  0  0  0
  182.6770  178.8540  137.8500 N   0  0  0  0  0  0  0  0  0  0  0  0
  188.7140  177.5840  145.1410 C   0  0  0  0  0  0  0  0  0  0  0  0
  188.7780  178.0370  143.9210 N   0  0  0  0  0  0  0  0  0  0  0  0
  187.6760  178.1480  146.0540 C   0  0  0  0  0  2  0  0  0  0  0  0
  186.4020  177.3370  145.9490 C   0  0  0  0  0  2  0  0  0  0  0  0
  185.7530  177.6320  144.6810 N   0  0  0  0  0  2  0  0  0  0  0  0
  184.2080  178.9750  146.3830 O   0  0  0  0  0  0  0  0  0  0  0  0
  185.3190  180.2480  144.6030 O   0  0  0  0  0  0  0  0  0  0  0  0
  184.6460  178.9440  144.9420 S   0  0  0  0  0  0  0  0  0  0  0  0
  183.4450  178.4080  142.4850 C   0  0  0  0  0  3  0  0  0  0  0  0
  180.8040  178.4940  143.6130 C   0  0  0  0  0  2  0  0  0  0  0  0
  180.9250  179.3770  142.0270 S   0  0  0  0  0  0  0  0  0  0  0  0
  182.4770  178.5830  141.5870 C   0  0  0  0  0  3  0  0  0  0  0  0
  183.2440  178.7070  143.9140 C   0  0  0  0  0  0  0  0  0  0  0  0
  182.0190  178.7720  144.4400 C   0  0  0  0  0  3  0  0  0  0  0  0
  189.5850  176.5850  145.5960 O   0  0  0  0  0  0  0  0  0  0  0  0
  192.3210  175.8400  148.0140 O   0  0  0  0  0  0  0  0  0  0  0  0
  192.4240  175.4140  146.7140 C   0  0  0  0  0  2  0  0  0  0  0  0
  191.0960  175.8000  147.2960 C   0  0  1  0  0  0  0  0  0  0  0  0
  190.5650  177.1940  147.6560 C   0  0  0  0  0  2  0  0  0  0  0  0
  190.8120  176.8870  146.2430 C   0  0  2  0  0  3  0  0  0  0  0  0
  1  6  2  0  0  0  0
  2  8  2  0  0  0  0
  2 35  1  0  0  0  0
  4  8  1  0  0  0  0
  5  4  2  0  0  0  0
  6  2  1  0  0  0  0
  7  1  1  0  0  0  0
  7  5  1  1  0  0  0
  8  3  1  0  0  0  0
 10 14  1  0  0  0  0
 10  9  1  0  0  0  0
 11  9  1  6  0  0  0
 11  7  1  0  0  0  0
 12 11  1  0  0  0  0
 13 10  2  0  0  0  0
 14 12  2  0  0  0  0
 15 17  1  0  0  0  0
 15 20  1  0  0  0  0
 17 19  2  0  0  0  0
 19 13  1  0  0  0  0
 19 18  1  0  0  0  0
 20 16  1  6  0  0  0
 20 18  1  0  0  0  0
 21 22  2  0  0  0  0
 22 13  1  0  0  0  0
 22 23  1  0  0  0  0
 24 23  2  0  0  0  0
 24 25  1  0  0  0  0
 25 26  1  0  0  0  0
 26 33  1  0  0  0  0
 28 27  1  0  0  0  0
 28 32  2  0  0  0  0
 29 27  1  0  0  0  0
 30 31  1  0  0  0  0
 30 33  1  0  0  0  0
 31 29  1  0  0  0  0
 33 28  1  0  0  0  0
 34 48  1  0  0  0  0
 34 36  1  0  0  0  0
 35 34  2  0  0  0  0
 37 36  1  0  0  0  0
 38 41  1  0  0  0  0
 38 37  1  0  0  0  0
 40 41  2  0  0  0  0
 41 39  2  0  0  0  0
 42 46  1  0  0  0  0
 43 47  1  0  0  0  0
 44 43  1  0  0  0  0
 45 44  1  0  0  0  0
 45 42  2  0  0  0  0
 46 47  2  0  0  0  0
 46 41  1  0  0  0  0
 50 49  1  0  0  0  0
 51 50  1  1  0  0  0
 51 52  1  0  0  0  0
 51 49  1  0  0  0  0
 53 48  1  6  0  0  0
 53 51  1  0  0  0  0
 53 52  1  0  0  0  0
M  END
>  <MODEL>
2

>  <REMARK>
 VINA RESULT:      -8.0      4.033      9.539
  Name = 
  15 active torsions:
  status: ('A' for Active; 'I' for Inactive)
    1  A    between atoms: C_10  and  N_32
    2  A    between atoms: C_14  and  C_47
    3  A    between atoms: N_15  and  S_52
    4  A    between atoms: N_15  and  C_53
    5  A    between atoms: C_20  and  C_39
    6  A    between atoms: C_20  and  O_44
    7  A    between atoms: C_26  and  S_52
    8  A    between atoms: C_27  and  C_33
    9  A    between atoms: C_27  and  C_34
   10  A    between atoms: C_33  and  N_38
   11  A    between atoms: C_39  and  C_53
   12  A    between atoms: C_40  and  C_41
   13  A    between atoms: C_40  and  C_48
   14  A    between atoms: O_44  and  C_49
   15  A    between atoms: C_48  and  N_51
                            x       y       z     vdW  Elec       q    Type
                         _______ _______ _______ _____ _____    ______ ____

>  <TORSDO>
F 15

$$$$
=
 OpenBabel11042411503D

 53 59  0  0  1  0  0  0  0  0999 V2000
  183.5460  179.1610  140.1000 N   0  0  0  0  0  0  0  0  0  0  0  0
  185.5310  178.6340  141.4910 C   0  0  0  0  0  0  0  0  0  0  0  0
  185.7830  177.8920  143.8310 C   0  0  0  0  0  1  0  0  0  0  0  0
  183.5800  178.8050  143.0710 C   0  0  0  0  0  3  0  0  0  0  0  0
  182.5300  178.7900  142.2580 C   0  0  0  0  0  3  0  0  0  0  0  0
  184.8120  179.2850  140.3620 C   0  0  0  0  0  3  0  0  0  0  0  0
  182.6260  178.3180  140.8500 C   0  0  1  0  0  3  0  0  0  0  0  0
  184.9590  178.4240  142.7030 C   0  0  0  0  0  0  0  0  0  0  0  0
  181.3520  178.0200  138.7090 C   0  0  0  0  0  2  0  0  0  0  0  0
  180.8390  179.2520  138.0620 C   0  0  0  0  0  0  0  0  0  0  0  0
  181.2380  178.3020  140.2030 C   0  0  2  0  0  3  0  0  0  0  0  0
  180.5060  179.6400  140.3560 C   0  0  0  0  0  3  0  0  0  0  0  0
  180.7330  179.4660  136.7290 C   0  0  0  0  0  0  0  0  0  0  0  0
  180.3830  180.1880  139.0220 N   0  0  0  0  0  0  0  0  0  0  0  0
  178.9310  182.5920  134.8880 S   0  0  0  0  0  0  0  0  0  0  0  0
  181.0530  184.0980  135.7500 C   0  0  0  0  0  1  0  0  0  0  0  0
  179.3720  180.8980  135.2370 C   0  0  0  0  0  3  0  0  0  0  0  0
  180.6380  181.9780  136.7900 O   0  0  0  0  0  0  0  0  0  0  0  0
  180.2460  180.7760  136.2200 C   0  0  0  0  0  0  0  0  0  0  0  0
  180.0060  183.1330  136.2640 C   0  0  2  0  0  3  0  0  0  0  0  0
  181.7230  178.7530  134.6830 O   0  0  0  0  0  0  0  0  0  0  0  0
  181.0730  178.4250  135.7160 C   0  0  0  0  0  0  0  0  0  0  0  0
  180.7140  177.0530  135.9080 N   0  0  0  0  0  0  0  0  0  0  0  0
  180.8260  176.1700  134.9630 C   0  0  0  0  0  3  0  0  0  0  0  0
  180.4690  174.7490  135.2170 C   0  0  0  0  0  2  0  0  0  0  0  0
  181.5050  173.8370  134.5940 C   0  0  0  0  0  2  0  0  0  0  0  0
  183.3270  171.5060  137.1170 C   0  0  0  0  0  2  0  0  0  0  0  0
  182.4680  171.9760  135.9860 C   0  0  0  0  0  0  0  0  0  0  0  0
  184.5320  172.4210  137.3240 C   0  0  0  0  0  2  0  0  0  0  0  0
  183.5270  174.2660  136.0010 C   0  0  0  0  0  2  0  0  0  0  0  0
  184.0890  173.8780  137.3680 C   0  0  0  0  0  2  0  0  0  0  0  0
  181.7070  171.1450  135.4170 O   0  0  0  0  0  0  0  0  0  0  0  0
  182.4420  173.3700  135.6110 N   0  0  0  0  0  0  0  0  0  0  0  0
  187.6530  178.2980  140.2680 C   0  0  0  0  0  0  0  0  0  0  0  0
  186.9410  178.3570  141.3580 N   0  0  0  0  0  0  0  0  0  0  0  0
  189.1170  178.0300  140.3910 C   0  0  0  0  0  2  0  0  0  0  0  0
  189.4230  177.4540  141.7570 C   0  0  0  0  0  2  0  0  0  0  0  0
  189.7780  178.5370  142.6610 N   0  0  0  0  0  2  0  0  0  0  0  0
  191.7890  176.8310  143.0240 O   0  0  0  0  0  0  0  0  0  0  0  0
  192.0430  179.1000  143.9210 O   0  0  0  0  0  0  0  0  0  0  0  0
  191.0680  177.9780  143.6800 S   0  0  0  0  0  0  0  0  0  0  0  0
  188.9210  177.3600  145.3460 C   0  0  0  0  0  3  0  0  0  0  0  0
  190.6520  176.5370  147.4860 C   0  0  0  0  0  2  0  0  0  0  0  0
  189.2690  177.5730  148.0540 S   0  0  0  0  0  0  0  0  0  0  0  0
  188.3310  177.3290  146.5400 C   0  0  0  0  0  3  0  0  0  0  0  0
  190.3850  177.4390  145.2040 C   0  0  0  0  0  0  0  0  0  0  0  0
  191.1950  177.0810  146.2030 C   0  0  0  0  0  3  0  0  0  0  0  0
  187.0720  178.4700  139.0060 O   0  0  0  0  0  0  0  0  0  0  0  0
  187.7480  177.7590  135.4100 O   0  0  0  0  0  0  0  0  0  0  0  0
  188.7930  177.9730  136.2710 C   0  0  0  0  0  2  0  0  0  0  0  0
  187.4020  178.4130  136.6220 C   0  0  1  0  0  0  0  0  0  0  0  0
  186.1870  177.5610  137.0130 C   0  0  0  0  0  2  0  0  0  0  0  0
  187.3380  177.5910  137.9230 C   0  0  2  0  0  3  0  0  0  0  0  0
  1  6  2  0  0  0  0
  1  7  1  0  0  0  0
  2  8  2  0  0  0  0
  5  4  2  0  0  0  0
  6  2  1  0  0  0  0
  7  5  1  1  0  0  0
  8  4  1  0  0  0  0
  8  3  1  0  0  0  0
 10  9  1  0  0  0  0
 10 14  1  0  0  0  0
 11  9  1  6  0  0  0
 11 12  1  0  0  0  0
 11  7  1  0  0  0  0
 13 10  2  0  0  0  0
 14 12  2  0  0  0  0
 15 17  1  0  0  0  0
 15 20  1  0  0  0  0
 17 19  2  0  0  0  0
 19 13  1  0  0  0  0
 19 18  1  0  0  0  0
 20 16  1  6  0  0  0
 20 18  1  0  0  0  0
 21 22  2  0  0  0  0
 22 23  1  0  0  0  0
 22 13  1  0  0  0  0
 24 25  1  0  0  0  0
 24 23  2  0  0  0  0
 26 25  1  0  0  0  0
 26 33  1  0  0  0  0
 27 29  1  0  0  0  0
 28 27  1  0  0  0  0
 29 31  1  0  0  0  0
 30 31  1  0  0  0  0
 32 28  2  0  0  0  0
 33 28  1  0  0  0  0
 33 30  1  0  0  0  0
 34 36  1  0  0  0  0
 34 35  2  0  0  0  0
 35  2  1  0  0  0  0
 36 37  1  0  0  0  0
 37 38  1  0  0  0  0
 38 41  1  0  0  0  0
 39 41  2  0  0  0  0
 41 40  2  0  0  0  0
 41 46  1  0  0  0  0
 42 45  2  0  0  0  0
 43 44  1  0  0  0  0
 45 44  1  0  0  0  0
 46 42  1  0  0  0  0
 46 47  2  0  0  0  0
 47 43  1  0  0  0  0
 48 34  1  0  0  0  0
 49 50  1  0  0  0  0
 49 51  1  0  0  0  0
 51 50  1  1  0  0  0
 51 52  1  0  0  0  0
 51 53  1  0  0  0  0
 52 53  1  0  0  0  0
 53 48  1  1  0  0  0
M  END
>  <MODEL>
3

>  <REMARK>
 VINA RESULT:      -7.6      5.001      8.380
  Name = 
  15 active torsions:
  status: ('A' for Active; 'I' for Inactive)
    1  A    between atoms: C_10  and  N_32
    2  A    between atoms: C_14  and  C_47
    3  A    between atoms: N_15  and  S_52
    4  A    between atoms: N_15  and  C_53
    5  A    between atoms: C_20  and  C_39
    6  A    between atoms: C_20  and  O_44
    7  A    between atoms: C_26  and  S_52
    8  A    between atoms: C_27  and  C_33
    9  A    between atoms: C_27  and  C_34
   10  A    between atoms: C_33  and  N_38
   11  A    between atoms: C_39  and  C_53
   12  A    between atoms: C_40  and  C_41
   13  A    between atoms: C_40  and  C_48
   14  A    between atoms: O_44  and  C_49
   15  A    between atoms: C_48  and  N_51
                            x       y       z     vdW  Elec       q    Type
                         _______ _______ _______ _____ _____    ______ ____

>  <TORSDO>
F 15

$$$$
=
 OpenBabel11042411503D

 53 59  0  0  1  0  0  0  0  0999 V2000
  184.6340  178.9060  141.1030 N   0  0  0  0  0  0  0  0  0  0  0  0
  186.8930  178.2370  141.8790 C   0  0  0  0  0  0  0  0  0  0  0  0
  187.7160  177.2810  144.0000 C   0  0  0  0  0  1  0  0  0  0  0  0
  185.4220  178.2780  143.9210 C   0  0  0  0  0  3  0  0  0  0  0  0
  184.1980  178.3470  143.4100 C   0  0  0  0  0  3  0  0  0  0  0  0
  185.9280  178.9940  141.0370 C   0  0  0  0  0  3  0  0  0  0  0  0
  183.9120  178.0060  141.9910 C   0  0  1  0  0  3  0  0  0  0  0  0
  186.6470  177.9210  143.1750 C   0  0  0  0  0  0  0  0  0  0  0  0
  182.1150  177.8370  140.2480 C   0  0  0  0  0  2  0  0  0  0  0  0
  181.5030  179.1100  139.7970 C   0  0  0  0  0  0  0  0  0  0  0  0
  182.4050  178.0610  141.7280 C   0  0  2  0  0  3  0  0  0  0  0  0
  181.7940  179.4150  142.1090 C   0  0  0  0  0  3  0  0  0  0  0  0
  181.0640  179.3830  138.5440 C   0  0  0  0  0  0  0  0  0  0  0  0
  181.3520  180.0210  140.8710 N   0  0  0  0  0  0  0  0  0  0  0  0
  178.9310  182.7910  138.0530 S   0  0  0  0  0  0  0  0  0  0  0  0
  180.6970  183.4010  136.0470 C   0  0  0  0  0  1  0  0  0  0  0  0
  179.2810  181.0990  138.5010 C   0  0  0  0  0  3  0  0  0  0  0  0
  181.2970  181.7210  137.6490 O   0  0  0  0  0  0  0  0  0  0  0  0
  180.5170  180.7280  138.2210 C   0  0  0  0  0  0  0  0  0  0  0  0
  180.6640  182.9810  137.5010 C   0  0  2  0  0  3  0  0  0  0  0  0
  180.0010  177.8520  137.0610 O   0  0  0  0  0  0  0  0  0  0  0  0
  181.0860  178.3740  137.4450 C   0  0  0  0  0  0  0  0  0  0  0  0
  182.3060  178.0140  136.7880 N   0  0  0  0  0  0  0  0  0  0  0  0
  182.3650  177.0510  135.9200 C   0  0  0  0  0  3  0  0  0  0  0  0
  183.6480  176.7310  135.2400 C   0  0  0  0  0  2  0  0  0  0  0  0
  183.6950  175.2590  134.8920 C   0  0  0  0  0  2  0  0  0  0  0  0
  184.8880  172.9850  137.8110 C   0  0  0  0  0  2  0  0  0  0  0  0
  184.0190  173.6180  136.7700 C   0  0  0  0  0  0  0  0  0  0  0  0
  186.3440  172.9060  137.3550 C   0  0  0  0  0  2  0  0  0  0  0  0
  186.0090  174.5790  135.5520 C   0  0  0  0  0  2  0  0  0  0  0  0
  186.8030  174.2540  136.8160 C   0  0  0  0  0  2  0  0  0  0  0  0
  182.7800  173.3820  136.7900 O   0  0  0  0  0  0  0  0  0  0  0  0
  184.5740  174.5510  135.8170 N   0  0  0  0  0  0  0  0  0  0  0  0
  188.6470  178.1110  140.1420 C   0  0  0  0  0  0  0  0  0  0  0  0
  188.2110  177.9610  141.3610 N   0  0  0  0  0  0  0  0  0  0  0  0
  190.0770  177.7910  139.8550 C   0  0  0  0  0  2  0  0  0  0  0  0
  190.1970  176.3640  139.3630 C   0  0  0  0  0  2  0  0  0  0  0  0
  191.5710  176.1140  138.9590 N   0  0  0  0  0  2  0  0  0  0  0  0
  190.4350  174.1200  137.6090 O   0  0  0  0  0  0  0  0  0  0  0  0
  191.2910  176.0270  136.3230 O   0  0  0  0  0  0  0  0  0  0  0  0
  191.5350  175.1450  137.5180 S   0  0  0  0  0  0  0  0  0  0  0  0
  194.1850  174.6930  138.2560 C   0  0  0  0  0  3  0  0  0  0  0  0
  194.4980  172.5890  136.3260 C   0  0  0  0  0  2  0  0  0  0  0  0
  195.9170  173.7260  136.3680 S   0  0  0  0  0  0  0  0  0  0  0  0
  195.4530  174.4080  137.9660 C   0  0  0  0  0  3  0  0  0  0  0  0
  193.0790  174.3270  137.3550 C   0  0  0  0  0  0  0  0  0  0  0  0
  193.2250  173.3650  136.4400 C   0  0  0  0  0  3  0  0  0  0  0  0
  187.8050  178.5530  139.1140 O   0  0  0  0  0  0  0  0  0  0  0  0
  187.0440  177.9350  135.5180 O   0  0  0  0  0  0  0  0  0  0  0  0
  188.3220  177.7620  135.9850 C   0  0  0  0  0  2  0  0  0  0  0  0
  187.3230  178.5730  136.7560 C   0  0  1  0  0  0  0  0  0  0  0  0
  186.0960  178.1000  137.5480 C   0  0  0  0  0  2  0  0  0  0  0  0
  187.4270  177.7160  138.0310 C   0  0  2  0  0  3  0  0  0  0  0  0
  1  7  1  0  0  0  0
  2  8  2  0  0  0  0
  5  4  2  0  0  0  0
  6  1  2  0  0  0  0
  6  2  1  0  0  0  0
  7  5  1  1  0  0  0
  8  4  1  0  0  0  0
  8  3  1  0  0  0  0
 10  9  1  0  0  0  0
 10 14  1  0  0  0  0
 11  9  1  6  0  0  0
 11  7  1  0  0  0  0
 11 12  1  0  0  0  0
 13 10  2  0  0  0  0
 14 12  2  0  0  0  0
 15 17  1  0  0  0  0
 18 19  1  0  0  0  0
 19 17  2  0  0  0  0
 19 13  1  0  0  0  0
 20 16  1  6  0  0  0
 20 18  1  0  0  0  0
 20 15  1  0  0  0  0
 21 22  2  0  0  0  0
 22 13  1  0  0  0  0
 23 22  1  0  0  0  0
 24 23  2  0  0  0  0
 25 24  1  0  0  0  0
 26 25  1  0  0  0  0
 26 33  1  0  0  0  0
 28 32  2  0  0  0  0
 28 27  1  0  0  0  0
 29 27  1  0  0  0  0
 30 33  1  0  0  0  0
 30 31  1  0  0  0  0
 31 29  1  0  0  0  0
 33 28  1  0  0  0  0
 34 35  2  0  0  0  0
 35  2  1  0  0  0  0
 36 34  1  0  0  0  0
 37 36  1  0  0  0  0
 38 37  1  0  0  0  0
 40 41  2  0  0  0  0
 41 39  2  0  0  0  0
 41 38  1  0  0  0  0
 43 44  1  0  0  0  0
 43 47  1  0  0  0  0
 44 45  1  0  0  0  0
 45 42  2  0  0  0  0
 46 41  1  0  0  0  0
 46 42  1  0  0  0  0
 47 46  2  0  0  0  0
 48 34  1  0  0  0  0
 49 50  1  0  0  0  0
 49 51  1  0  0  0  0
 51 50  1  1  0  0  0
 51 52  1  0  0  0  0
 51 53  1  0  0  0  0
 52 53  1  0  0  0  0
 53 48  1  1  0  0  0
M  END
>  <MODEL>
4

>  <REMARK>
 VINA RESULT:      -7.3      2.994      6.489
  Name = 
  15 active torsions:
  status: ('A' for Active; 'I' for Inactive)
    1  A    between atoms: C_10  and  N_32
    2  A    between atoms: C_14  and  C_47
    3  A    between atoms: N_15  and  S_52
    4  A    between atoms: N_15  and  C_53
    5  A    between atoms: C_20  and  C_39
    6  A    between atoms: C_20  and  O_44
    7  A    between atoms: C_26  and  S_52
    8  A    between atoms: C_27  and  C_33
    9  A    between atoms: C_27  and  C_34
   10  A    between atoms: C_33  and  N_38
   11  A    between atoms: C_39  and  C_53
   12  A    between atoms: C_40  and  C_41
   13  A    between atoms: C_40  and  C_48
   14  A    between atoms: O_44  and  C_49
   15  A    between atoms: C_48  and  N_51
                            x       y       z     vdW  Elec       q    Type
                         _______ _______ _______ _____ _____    ______ ____

>  <TORSDO>
F 15

$$$$
=
 OpenBabel11042411503D

 53 59  0  0  1  0  0  0  0  0999 V2000
  189.9670  176.3070  140.6030 N   0  0  0  0  0  0  0  0  0  0  0  0
  189.7120  177.5420  142.7380 C   0  0  0  0  0  0  0  0  0  0  0  0
  191.1190  179.2210  143.8750 C   0  0  0  0  0  1  0  0  0  0  0  0
  192.0920  177.8850  141.9970 C   0  0  0  0  0  3  0  0  0  0  0  0
  192.0810  177.4640  140.7380 C   0  0  0  0  0  3  0  0  0  0  0  0
  189.4680  176.4160  141.7970 C   0  0  0  0  0  3  0  0  0  0  0  0
  190.8180  177.3040  139.9680 C   0  0  1  0  0  3  0  0  0  0  0  0
  190.9000  178.1930  142.8130 C   0  0  0  0  0  0  0  0  0  0  0  0
  189.9100  177.1700  137.6330 C   0  0  0  0  0  2  0  0  0  0  0  0
  189.5370  175.8220  137.1400 C   0  0  0  0  0  0  0  0  0  0  0  0
  191.1280  176.9240  138.5180 C   0  0  2  0  0  3  0  0  0  0  0  0
  191.5040  175.4460  138.3680 C   0  0  0  0  0  3  0  0  0  0  0  0
  188.5110  175.5370  136.3020 C   0  0  0  0  0  0  0  0  0  0  0  0
  190.4440  174.8350  137.5950 N   0  0  0  0  0  0  0  0  0  0  0  0
  188.2750  171.8090  134.7360 S   0  0  0  0  0  0  0  0  0  0  0  0
  185.8510  171.6180  136.0030 C   0  0  0  0  0  1  0  0  0  0  0  0
  188.7640  173.5180  134.8920 C   0  0  0  0  0  3  0  0  0  0  0  0
  187.3920  173.3200  136.6970 O   0  0  0  0  0  0  0  0  0  0  0  0
  188.2200  174.1260  135.9310 C   0  0  0  0  0  0  0  0  0  0  0  0
  187.2990  171.9700  136.2740 C   0  0  2  0  0  3  0  0  0  0  0  0
  188.1770  177.5640  135.0980 O   0  0  0  0  0  0  0  0  0  0  0  0
  187.6430  176.5920  135.7020 C   0  0  0  0  0  0  0  0  0  0  0  0
  186.2150  176.5050  135.7630 N   0  0  0  0  0  0  0  0  0  0  0  0
  185.5860  176.2000  136.8560 C   0  0  0  0  0  3  0  0  0  0  0  0
  184.1000  176.1520  136.8790 C   0  0  0  0  0  2  0  0  0  0  0  0
  183.6310  175.2180  137.9740 C   0  0  0  0  0  2  0  0  0  0  0  0
  179.9210  174.0640  137.8090 C   0  0  0  0  0  2  0  0  0  0  0  0
  181.1460  174.8620  138.1320 C   0  0  0  0  0  0  0  0  0  0  0  0
  180.0340  173.3900  136.4430 C   0  0  0  0  0  2  0  0  0  0  0  0
  182.4960  173.6960  136.3480 C   0  0  0  0  0  2  0  0  0  0  0  0
  181.3680  172.6660  136.3200 C   0  0  0  0  0  2  0  0  0  0  0  0
  181.0570  175.7940  138.9780 O   0  0  0  0  0  0  0  0  0  0  0  0
  182.4230  174.5160  137.5530 N   0  0  0  0  0  0  0  0  0  0  0  0
  188.6250  177.4300  144.9550 C   0  0  0  0  0  0  0  0  0  0  0  0
  188.7110  177.8590  143.7280 N   0  0  0  0  0  0  0  0  0  0  0  0
  187.5080  177.9350  145.8070 C   0  0  0  0  0  2  0  0  0  0  0  0
  186.1840  177.4240  145.2780 C   0  0  0  0  0  2  0  0  0  0  0  0
  185.8600  178.1270  144.0470 N   0  0  0  0  0  2  0  0  0  0  0  0
  183.9030  178.8160  145.7140 O   0  0  0  0  0  0  0  0  0  0  0  0
  184.8440  180.5660  144.2750 O   0  0  0  0  0  0  0  0  0  0  0  0
  184.4620  179.1120  144.3480 S   0  0  0  0  0  0  0  0  0  0  0  0
  183.6540  178.0480  141.9020 C   0  0  0  0  0  3  0  0  0  0  0  0
  180.9000  178.7160  142.3760 C   0  0  0  0  0  2  0  0  0  0  0  0
  181.4420  179.1110  140.6850 S   0  0  0  0  0  0  0  0  0  0  0  0
  182.9040  178.0690  140.8020 C   0  0  0  0  0  3  0  0  0  0  0  0
  183.2490  178.7480  143.1330 C   0  0  0  0  0  0  0  0  0  0  0  0
  181.9750  179.0830  143.3490 C   0  0  0  0  0  3  0  0  0  0  0  0
  189.5450  176.5100  145.4740 O   0  0  0  0  0  0  0  0  0  0  0  0
  192.1940  176.0990  148.0640 O   0  0  0  0  0  0  0  0  0  0  0  0
  192.3700  175.5590  146.8150 C   0  0  0  0  0  2  0  0  0  0  0  0
  191.0050  175.9450  147.3030 C   0  0  1  0  0  0  0  0  0  0  0  0
  190.4100  177.3450  147.5080 C   0  0  0  0  0  2  0  0  0  0  0  0
  190.7310  176.9180  146.1410 C   0  0  2  0  0  3  0  0  0  0  0  0
  1  6  2  0  0  0  0
  2  8  2  0  0  0  0
  2 35  1  0  0  0  0
  4  8  1  0  0  0  0
  5  4  2  0  0  0  0
  6  2  1  0  0  0  0
  7  1  1  0  0  0  0
  7  5  1  1  0  0  0
  8  3  1  0  0  0  0
 10 14  1  0  0  0  0
 10  9  1  0  0  0  0
 11  9  1  6  0  0  0
 11  7  1  0  0  0  0
 12 11  1  0  0  0  0
 13 10  2  0  0  0  0
 14 12  2  0  0  0  0
 15 17  1  0  0  0  0
 15 20  1  0  0  0  0
 17 19  2  0  0  0  0
 19 13  1  0  0  0  0
 19 18  1  0  0  0  0
 20 16  1  6  0  0  0
 20 18  1  0  0  0  0
 21 22  2  0  0  0  0
 22 23  1  0  0  0  0
 22 13  1  0  0  0  0
 23 24  2  0  0  0  0
 24 25  1  0  0  0  0
 25 26  1  0  0  0  0
 27 28  1  0  0  0  0
 28 32  2  0  0  0  0
 29 27  1  0  0  0  0
 30 33  1  0  0  0  0
 31 30  1  0  0  0  0
 31 29  1  0  0  0  0
 33 26  1  0  0  0  0
 33 28  1  0  0  0  0
 34 48  1  0  0  0  0
 34 36  1  0  0  0  0
 35 34  2  0  0  0  0
 37 36  1  0  0  0  0
 38 41  1  0  0  0  0
 38 37  1  0  0  0  0
 40 41  2  0  0  0  0
 41 39  2  0  0  0  0
 42 46  1  0  0  0  0
 43 47  1  0  0  0  0
 44 45  1  0  0  0  0
 44 43  1  0  0  0  0
 45 42  2  0  0  0  0
 46 47  2  0  0  0  0
 46 41  1  0  0  0  0
 50 49  1  0  0  0  0
 51 50  1  1  0  0  0
 51 52  1  0  0  0  0
 51 49  1  0  0  0  0
 53 48  1  6  0  0  0
 53 51  1  0  0  0  0
 53 52  1  0  0  0  0
M  END
>  <MODEL>
5

>  <REMARK>
 VINA RESULT:      -7.3      3.693      9.710
  Name = 
  15 active torsions:
  status: ('A' for Active; 'I' for Inactive)
    1  A    between atoms: C_10  and  N_32
    2  A    between atoms: C_14  and  C_47
    3  A    between atoms: N_15  and  S_52
    4  A    between atoms: N_15  and  C_53
    5  A    between atoms: C_20  and  C_39
    6  A    between atoms: C_20  and  O_44
    7  A    between atoms: C_26  and  S_52
    8  A    between atoms: C_27  and  C_33
    9  A    between atoms: C_27  and  C_34
   10  A    between atoms: C_33  and  N_38
   11  A    between atoms: C_39  and  C_53
   12  A    between atoms: C_40  and  C_41
   13  A    between atoms: C_40  and  C_48
   14  A    between atoms: O_44  and  C_49
   15  A    between atoms: C_48  and  N_51
                            x       y       z     vdW  Elec       q    Type
                         _______ _______ _______ _____ _____    ______ ____

>  <TORSDO>
F 15

$$$$
=
 OpenBabel11042411503D

 53 59  0  0  1  0  0  0  0  0999 V2000
  185.1800  179.1760  141.2420 N   0  0  0  0  0  0  0  0  0  0  0  0
  187.3830  178.3280  142.0020 C   0  0  0  0  0  0  0  0  0  0  0  0
  188.0680  176.9490  143.9310 C   0  0  0  0  0  1  0  0  0  0  0  0
  185.7870  177.9770  143.9160 C   0  0  0  0  0  3  0  0  0  0  0  0
  184.5970  178.1670  143.3560 C   0  0  0  0  0  3  0  0  0  0  0  0
  186.4750  179.2550  141.2750 C   0  0  0  0  0  3  0  0  0  0  0  0
  184.4000  178.1260  141.8830 C   0  0  1  0  0  3  0  0  0  0  0  0
  187.0550  177.7600  143.1900 C   0  0  0  0  0  0  0  0  0  0  0  0
  182.4920  177.1660  140.5660 C   0  0  0  0  0  2  0  0  0  0  0  0
  182.0870  177.9050  139.3450 C   0  0  0  0  0  0  0  0  0  0  0  0
  182.9130  178.2570  141.5450 C   0  0  2  0  0  3  0  0  0  0  0  0
  182.5770  179.6030  140.8940 C   0  0  0  0  0  3  0  0  0  0  0  0
  181.6230  177.3540  138.1980 C   0  0  0  0  0  0  0  0  0  0  0  0
  182.1700  179.3060  139.5370 N   0  0  0  0  0  0  0  0  0  0  0  0
  181.2730  179.2490  134.6350 S   0  0  0  0  0  0  0  0  0  0  0  0
  180.1690  181.3260  136.0460 C   0  0  0  0  0  1  0  0  0  0  0  0
  181.9120  178.1230  135.8630 C   0  0  0  0  0  3  0  0  0  0  0  0
  180.2860  179.1610  137.0700 O   0  0  0  0  0  0  0  0  0  0  0  0
  181.3030  178.2190  137.0310 C   0  0  0  0  0  0  0  0  0  0  0  0
  180.0320  179.8310  135.8460 C   0  0  2  0  0  3  0  0  0  0  0  0
  180.2310  175.4220  138.2040 O   0  0  0  0  0  0  0  0  0  0  0  0
  181.3940  175.8880  138.0430 C   0  0  0  0  0  0  0  0  0  0  0  0
  182.4570  175.0020  137.6760 N   0  0  0  0  0  0  0  0  0  0  0  0
  183.5240  175.4180  137.0670 C   0  0  0  0  0  3  0  0  0  0  0  0
  184.6170  174.4670  136.7330 C   0  0  0  0  0  2  0  0  0  0  0  0
  184.4940  173.2200  137.5820 C   0  0  0  0  0  2  0  0  0  0  0  0
  183.5220  169.8430  135.9170 C   0  0  0  0  0  2  0  0  0  0  0  0
  183.4260  171.1340  136.6690 C   0  0  0  0  0  0  0  0  0  0  0  0
  184.5660  169.9180  134.8050 C   0  0  0  0  0  2  0  0  0  0  0  0
  185.6420  171.9380  135.7680 C   0  0  0  0  0  2  0  0  0  0  0  0
  185.8720  170.4880  135.3440 C   0  0  0  0  0  2  0  0  0  0  0  0
  182.3650  171.3880  137.3040 O   0  0  0  0  0  0  0  0  0  0  0  0
  184.5570  172.0290  136.7410 N   0  0  0  0  0  0  0  0  0  0  0  0
  189.1180  177.6850  140.3640 C   0  0  0  0  0  0  0  0  0  0  0  0
  188.7300  178.1430  141.5200 N   0  0  0  0  0  0  0  0  0  0  0  0
  190.5830  177.6220  140.0810 C   0  0  0  0  0  2  0  0  0  0  0  0
  190.9210  176.3070  139.4080 C   0  0  0  0  0  2  0  0  0  0  0  0
  192.0180  176.5180  138.4770 N   0  0  0  0  0  2  0  0  0  0  0  0
  190.9900  174.2200  137.6130 O   0  0  0  0  0  0  0  0  0  0  0  0
  191.1650  176.0660  136.0060 O   0  0  0  0  0  0  0  0  0  0  0  0
  191.8330  175.3870  137.1720 S   0  0  0  0  0  0  0  0  0  0  0  0
  193.6860  173.3620  136.6900 C   0  0  0  0  0  3  0  0  0  0  0  0
  195.7000  175.2290  135.8460 C   0  0  0  0  0  2  0  0  0  0  0  0
  196.3490  173.9410  136.9550 S   0  0  0  0  0  0  0  0  0  0  0  0
  194.9240  172.8720  136.7140 C   0  0  0  0  0  3  0  0  0  0  0  0
  193.4220  174.8110  136.7020 C   0  0  0  0  0  0  0  0  0  0  0  0
  194.3610  175.6860  136.3330 C   0  0  0  0  0  3  0  0  0  0  0  0
  188.1960  177.2530  139.4020 O   0  0  0  0  0  0  0  0  0  0  0  0
  186.0680  177.9800  136.4290 O   0  0  0  0  0  0  0  0  0  0  0  0
  185.5900  178.2340  137.6900 C   0  0  0  0  0  2  0  0  0  0  0  0
  186.7520  177.3070  137.4780 C   0  0  1  0  0  0  0  0  0  0  0  0
  188.1940  177.6410  137.0720 C   0  0  0  0  0  2  0  0  0  0  0  0
  187.7120  178.1070  138.3770 C   0  0  2  0  0  3  0  0  0  0  0  0
  1  6  2  0  0  0  0
  1  7  1  0  0  0  0
  2  8  2  0  0  0  0
  5  4  2  0  0  0  0
  6  2  1  0  0  0  0
  7  5  1  1  0  0  0
  8  4  1  0  0  0  0
  8  3  1  0  0  0  0
 10 14  1  0  0  0  0
 10  9  1  0  0  0  0
 11  9  1  6  0  0  0
 11  7  1  0  0  0  0
 12 11  1  0  0  0  0
 13 10  2  0  0  0  0
 14 12  2  0  0  0  0
 15 20  1  0  0  0  0
 15 17  1  0  0  0  0
 17 19  2  0  0  0  0
 19 18  1  0  0  0  0
 19 13  1  0  0  0  0
 20 16  1  1  0  0  0
 20 18  1  0  0  0  0
 22 13  1  0  0  0  0
 22 21  2  0  0  0  0
 23 22  1  0  0  0  0
 24 23  2  0  0  0  0
 25 24  1  0  0  0  0
 25 26  1  0  0  0  0
 27 28  1  0  0  0  0
 28 33  1  0  0  0  0
 28 32  2  0  0  0  0
 29 31  1  0  0  0  0
 29 27  1  0  0  0  0
 30 33  1  0  0  0  0
 31 30  1  0  0  0  0
 33 26  1  0  0  0  0
 34 35  2  0  0  0  0
 35  2  1  0  0  0  0
 36 34  1  0  0  0  0
 37 36  1  0  0  0  0
 38 37  1  0  0  0  0
 40 41  2  0  0  0  0
 41 39  2  0  0  0  0
 41 38  1  0  0  0  0
 42 46  1  0  0  0  0
 42 45  2  0  0  0  0
 43 47  1  0  0  0  0
 43 44  1  0  0  0  0
 45 44  1  0  0  0  0
 46 41  1  0  0  0  0
 47 46  2  0  0  0  0
 48 34  1  0  0  0  0
 49 51  1  0  0  0  0
 49 50  1  0  0  0  0
 51 52  1  1  0  0  0
 51 50  1  0  0  0  0
 51 53  1  0  0  0  0
 52 53  1  0  0  0  0
 53 48  1  1  0  0  0
M  END
>  <MODEL>
6

>  <REMARK>
 VINA RESULT:      -6.9      2.889      6.606
  Name = 
  15 active torsions:
  status: ('A' for Active; 'I' for Inactive)
    1  A    between atoms: C_10  and  N_32
    2  A    between atoms: C_14  and  C_47
    3  A    between atoms: N_15  and  S_52
    4  A    between atoms: N_15  and  C_53
    5  A    between atoms: C_20  and  C_39
    6  A    between atoms: C_20  and  O_44
    7  A    between atoms: C_26  and  S_52
    8  A    between atoms: C_27  and  C_33
    9  A    between atoms: C_27  and  C_34
   10  A    between atoms: C_33  and  N_38
   11  A    between atoms: C_39  and  C_53
   12  A    between atoms: C_40  and  C_41
   13  A    between atoms: C_40  and  C_48
   14  A    between atoms: O_44  and  C_49
   15  A    between atoms: C_48  and  N_51
                            x       y       z     vdW  Elec       q    Type
                         _______ _______ _______ _____ _____    ______ ____

>  <TORSDO>
F 15

$$$$
=
 OpenBabel11042411503D

 53 59  0  0  1  0  0  0  0  0999 V2000
  185.1160  179.2850  140.9880 N   0  0  0  0  0  0  0  0  0  0  0  0
  187.0940  177.9450  141.6530 C   0  0  0  0  0  0  0  0  0  0  0  0
  187.5570  176.5040  143.6020 C   0  0  0  0  0  1  0  0  0  0  0  0
  185.6020  178.0640  143.6750 C   0  0  0  0  0  3  0  0  0  0  0  0
  184.4580  178.5230  143.1810 C   0  0  0  0  0  3  0  0  0  0  0  0
  186.3910  179.0430  140.9370 C   0  0  0  0  0  3  0  0  0  0  0  0
  184.1520  178.4830  141.7260 C   0  0  1  0  0  3  0  0  0  0  0  0
  186.7230  177.5160  142.8850 C   0  0  0  0  0  0  0  0  0  0  0  0
  181.8680  177.8320  140.9150 C   0  0  0  0  0  2  0  0  0  0  0  0
  181.4860  178.2950  139.5580 C   0  0  0  0  0  0  0  0  0  0  0  0
  182.7210  178.9660  141.4740 C   0  0  2  0  0  3  0  0  0  0  0  0
  182.6620  180.1170  140.4630 C   0  0  0  0  0  3  0  0  0  0  0  0
  180.7100  177.6190  138.6760 C   0  0  0  0  0  0  0  0  0  0  0  0
  181.9750  179.5980  139.2990 N   0  0  0  0  0  0  0  0  0  0  0  0
  180.5610  178.6410  134.7590 S   0  0  0  0  0  0  0  0  0  0  0  0
  179.3310  180.9470  135.5870 C   0  0  0  0  0  1  0  0  0  0  0  0
  181.1390  177.8450  136.2480 C   0  0  0  0  0  3  0  0  0  0  0  0
  179.4190  179.0780  137.0860 O   0  0  0  0  0  0  0  0  0  0  0  0
  180.4520  178.1850  137.3250 C   0  0  0  0  0  0  0  0  0  0  0  0
  179.2340  179.4430  135.7290 C   0  0  2  0  0  3  0  0  0  0  0  0
  179.0690  176.2860  139.7710 O   0  0  0  0  0  0  0  0  0  0  0  0
  180.0710  176.3120  139.0020 C   0  0  0  0  0  0  0  0  0  0  0  0
  180.5430  175.0880  138.4280 N   0  0  0  0  0  0  0  0  0  0  0  0
  179.9340  173.9570  138.6130 C   0  0  0  0  0  3  0  0  0  0  0  0
  180.4430  172.7160  137.9720 C   0  0  0  0  0  2  0  0  0  0  0  0
  181.0890  173.0470  136.6440 C   0  0  0  0  0  2  0  0  0  0  0  0
  184.3790  171.0540  136.0830 C   0  0  0  0  0  2  0  0  0  0  0  0
  182.9590  171.5110  135.9610 C   0  0  0  0  0  0  0  0  0  0  0  0
  185.3160  172.2130  136.4160 C   0  0  0  0  0  2  0  0  0  0  0  0
  183.4530  173.6830  137.1460 C   0  0  0  0  0  2  0  0  0  0  0  0
  184.7620  173.0240  137.5800 C   0  0  0  0  0  2  0  0  0  0  0  0
  182.1510  170.8080  135.2950 O   0  0  0  0  0  0  0  0  0  0  0  0
  182.5020  172.6860  136.6660 N   0  0  0  0  0  0  0  0  0  0  0  0
  189.5400  177.6260  141.4970 C   0  0  0  0  0  0  0  0  0  0  0  0
  188.3170  177.4170  141.0990 N   0  0  0  0  0  0  0  0  0  0  0  0
  190.6490  176.9290  140.7800 C   0  0  0  0  0  2  0  0  0  0  0  0
  190.2140  176.5830  139.3710 C   0  0  0  0  0  2  0  0  0  0  0  0
  191.1520  175.6260  138.8050 N   0  0  0  0  0  2  0  0  0  0  0  0
  191.5750  175.4780  136.1820 O   0  0  0  0  0  0  0  0  0  0  0  0
  190.2830  173.6770  137.2310 O   0  0  0  0  0  0  0  0  0  0  0  0
  190.5570  175.1570  137.2430 S   0  0  0  0  0  0  0  0  0  0  0  0
  189.1670  177.4120  136.3770 C   0  0  0  0  0  3  0  0  0  0  0  0
  186.6160  176.1560  136.7910 C   0  0  0  0  0  2  0  0  0  0  0  0
  186.6660  177.8720  137.3950 S   0  0  0  0  0  0  0  0  0  0  0  0
  188.1480  178.2660  136.4560 C   0  0  0  0  0  3  0  0  0  0  0  0
  189.0790  176.0440  136.9180 C   0  0  0  0  0  0  0  0  0  0  0  0
  187.8970  175.4630  137.1350 C   0  0  0  0  0  3  0  0  0  0  0  0
  189.8240  178.4860  142.5650 O   0  0  0  0  0  0  0  0  0  0  0  0
  191.6770  177.6610  145.6920 O   0  0  0  0  0  0  0  0  0  0  0  0
  191.4980  176.6990  144.7300 C   0  0  0  0  0  2  0  0  0  0  0  0
  190.6390  177.9290  144.7600 C   0  0  1  0  0  0  0  0  0  0  0  0
  191.0070  179.3760  144.4060 C   0  0  0  0  0  2  0  0  0  0  0  0
  191.0120  178.3740  143.3340 C   0  0  2  0  0  3  0  0  0  0  0  0
  1  7  1  0  0  0  0
  2  8  2  0  0  0  0
  5  4  2  0  0  0  0
  6  1  2  0  0  0  0
  6  2  1  0  0  0  0
  7  5  1  1  0  0  0
  8  3  1  0  0  0  0
  8  4  1  0  0  0  0
  9 11  1  0  0  0  0
 10  9  1  0  0  0  0
 11 12  1  6  0  0  0
 11  7  1  0  0  0  0
 13 22  1  0  0  0  0
 13 10  2  0  0  0  0
 14 10  1  0  0  0  0
 14 12  2  0  0  0  0
 15 20  1  0  0  0  0
 15 17  1  0  0  0  0
 17 19  2  0  0  0  0
 18 19  1  0  0  0  0
 19 13  1  0  0  0  0
 20 16  1  1  0  0  0
 20 18  1  0  0  0  0
 22 21  2  0  0  0  0
 23 24  2  0  0  0  0
 23 22  1  0  0  0  0
 25 24  1  0  0  0  0
 26 33  1  0  0  0  0
 26 25  1  0  0  0  0
 27 29  1  0  0  0  0
 28 27  1  0  0  0  0
 28 33  1  0  0  0  0
 29 31  1  0  0  0  0
 30 31  1  0  0  0  0
 32 28  2  0  0  0  0
 33 30  1  0  0  0  0
 34 48  1  0  0  0  0
 35 34  2  0  0  0  0
 35  2  1  0  0  0  0
 36 34  1  0  0  0  0
 37 36  1  0  0  0  0
 38 37  1  0  0  0  0
 39 41  2  0  0  0  0
 40 41  2  0  0  0  0
 41 38  1  0  0  0  0
 42 45  2  0  0  0  0
 42 46  1  0  0  0  0
 43 47  1  0  0  0  0
 43 44  1  0  0  0  0
 45 44  1  0  0  0  0
 46 47  2  0  0  0  0
 46 41  1  0  0  0  0
 50 51  1  0  0  0  0
 50 49  1  0  0  0  0
 51 52  1  1  0  0  0
 51 49  1  0  0  0  0
 53 48  1  6  0  0  0
 53 52  1  0  0  0  0
 53 51  1  0  0  0  0
M  END
>  <MODEL>
7

>  <REMARK>
 VINA RESULT:      -6.8      3.870      7.138
  Name = 
  15 active torsions:
  status: ('A' for Active; 'I' for Inactive)
    1  A    between atoms: C_10  and  N_32
    2  A    between atoms: C_14  and  C_47
    3  A    between atoms: N_15  and  S_52
    4  A    between atoms: N_15  and  C_53
    5  A    between atoms: C_20  and  C_39
    6  A    between atoms: C_20  and  O_44
    7  A    between atoms: C_26  and  S_52
    8  A    between atoms: C_27  and  C_33
    9  A    between atoms: C_27  and  C_34
   10  A    between atoms: C_33  and  N_38
   11  A    between atoms: C_39  and  C_53
   12  A    between atoms: C_40  and  C_41
   13  A    between atoms: C_40  and  C_48
   14  A    between atoms: O_44  and  C_49
   15  A    between atoms: C_48  and  N_51
                            x       y       z     vdW  Elec       q    Type
                         _______ _______ _______ _____ _____    ______ ____

>  <TORSDO>
F 15

$$$$
=
 OpenBabel11042411503D

 53 59  0  0  1  0  0  0  0  0999 V2000
  186.9480  178.0550  138.8700 N   0  0  0  0  0  0  0  0  0  0  0  0
  189.0280  176.9430  138.1030 C   0  0  0  0  0  0  0  0  0  0  0  0
  189.4890  175.3240  136.2980 C   0  0  0  0  0  1  0  0  0  0  0  0
  187.1220  175.7240  137.0010 C   0  0  0  0  0  3  0  0  0  0  0  0
  186.0870  176.5310  137.2080 C   0  0  0  0  0  3  0  0  0  0  0  0
  188.1570  177.6340  139.0910 C   0  0  0  0  0  3  0  0  0  0  0  0
  186.2610  177.9580  137.5900 C   0  0  1  0  0  3  0  0  0  0  0  0
  188.5440  176.0880  137.1670 C   0  0  0  0  0  0  0  0  0  0  0  0
  184.4000  178.7500  139.0750 C   0  0  0  0  0  2  0  0  0  0  0  0
  183.1600  177.9350  139.0810 C   0  0  0  0  0  0  0  0  0  0  0  0
  184.9020  178.6610  137.6370 C   0  0  2  0  0  3  0  0  0  0  0  0
  183.8310  177.9200  136.8290 C   0  0  0  0  0  2  0  0  0  0  0  0
  182.3500  177.7270  140.1470 C   0  0  2  0  0  3  0  0  0  0  0  0
  182.8610  177.4380  137.7890 N   0  0  0  0  0  0  0  0  0  0  0  0
  179.3730  175.0000  140.4840 S   0  0  0  0  0  0  0  0  0  0  0  0
  178.9310  175.4100  137.8090 C   0  0  0  0  0  1  0  0  0  0  0  0
  180.8990  175.8490  140.8530 C   0  0  0  0  0  3  0  0  0  0  0  0
  180.2040  177.0300  139.0360 O   0  0  0  0  0  0  0  0  0  0  0  0
  181.1630  176.8390  140.0190 C   0  0  0  0  0  0  0  0  0  0  0  0
  179.0790  176.1710  139.1100 C   0  0  2  0  0  3  0  0  0  0  0  0
  181.6330  178.9840  142.0380 O   0  0  0  0  0  0  0  0  0  0  0  0
  182.5810  178.3690  141.4730 C   0  0  0  0  0  0  0  0  0  0  0  0
  183.8450  178.2700  142.1390 N   0  0  0  0  0  0  0  0  0  0  0  0
  184.7400  179.2070  142.0660 C   0  0  0  0  0  3  0  0  0  0  0  0
  186.0270  179.0750  142.7990 C   0  0  0  0  0  2  0  0  0  0  0  0
  186.0690  177.7520  143.5350 C   0  0  0  0  0  2  0  0  0  0  0  0
  186.0630  178.9320  147.2400 C   0  0  0  0  0  2  0  0  0  0  0  0
  185.5980  178.5940  145.8580 C   0  0  0  0  0  0  0  0  0  0  0  0
  187.1930  178.0090  147.6940 C   0  0  0  0  0  2  0  0  0  0  0  0
  187.6780  177.2470  145.3810 C   0  0  0  0  0  2  0  0  0  0  0  0
  188.2680  177.9220  146.6180 C   0  0  0  0  0  2  0  0  0  0  0  0
  184.4390  178.9470  145.5060 O   0  0  0  0  0  0  0  0  0  0  0  0
  186.4900  177.9580  144.9170 N   0  0  0  0  0  0  0  0  0  0  0  0
  191.1910  176.8570  139.2970 C   0  0  0  0  0  0  0  0  0  0  0  0
  190.4610  177.0500  138.2350 N   0  0  0  0  0  0  0  0  0  0  0  0
  192.6730  176.9920  139.1740 C   0  0  0  0  0  2  0  0  0  0  0  0
  193.1560  176.2630  137.9370 C   0  0  0  0  0  2  0  0  0  0  0  0
  194.2100  177.0430  137.3070 N   0  0  0  0  0  2  0  0  0  0  0  0
  193.2360  176.0500  135.0380 O   0  0  0  0  0  0  0  0  0  0  0  0
  195.3390  177.3070  134.9220 O   0  0  0  0  0  0  0  0  0  0  0  0
  194.5290  176.3450  135.7500 S   0  0  0  0  0  0  0  0  0  0  0  0
  196.8120  174.9120  136.4600 C   0  0  0  0  0  3  0  0  0  0  0  0
  195.5230  172.3850  136.0020 C   0  0  0  0  0  2  0  0  0  0  0  0
  197.2100  172.4510  135.3260 S   0  0  0  0  0  0  0  0  0  0  0  0
  197.6550  173.8930  136.3030 C   0  0  0  0  0  3  0  0  0  0  0  0
  195.4210  174.8510  135.9780 C   0  0  0  0  0  0  0  0  0  0  0  0
  194.8240  173.6810  135.7400 C   0  0  0  0  0  3  0  0  0  0  0  0
  190.6130  176.5390  140.5320 O   0  0  0  0  0  0  0  0  0  0  0  0
  190.6420  176.8720  144.2450 O   0  0  0  0  0  0  0  0  0  0  0  0
  191.6280  176.1560  143.6160 C   0  0  0  0  0  2  0  0  0  0  0  0
  190.3320  176.4580  142.9210 C   0  0  1  0  0  0  0  0  0  0  0  0
  189.8200  177.7950  142.3690 C   0  0  0  0  0  2  0  0  0  0  0  0
  190.9950  177.1860  141.7370 C   0  0  2  0  0  3  0  0  0  0  0  0
  1  6  2  0  0  0  0
  2 35  1  0  0  0  0
  2  6  1  0  0  0  0
  3  8  1  0  0  0  0
  4  8  1  0  0  0  0
  4  5  2  0  0  0  0
  7  5  1  1  0  0  0
  7 11  1  0  0  0  0
  7  1  1  0  0  0  0
  8  2  2  0  0  0  0
  9 10  1  0  0  0  0
 10 13  1  0  0  0  0
 11 12  1  6  0  0  0
 11  9  1  0  0  0  0
 12 14  1  0  0  0  0
 13 22  1  6  0  0  0
 14 10  2  0  0  0  0
 15 17  1  0  0  0  0
 18 20  1  0  0  0  0
 18 19  1  0  0  0  0
 19 13  1  0  0  0  0
 19 17  2  0  0  0  0
 20 16  1  6  0  0  0
 20 15  1  0  0  0  0
 22 21  2  0  0  0  0
 22 23  1  0  0  0  0
 24 23  2  0  0  0  0
 24 25  1  0  0  0  0
 25 26  1  0  0  0  0
 26 33  1  0  0  0  0
 27 29  1  0  0  0  0
 28 27  1  0  0  0  0
 30 31  1  0  0  0  0
 31 29  1  0  0  0  0
 32 28  2  0  0  0  0
 33 30  1  0  0  0  0
 33 28  1  0  0  0  0
 34 48  1  0  0  0  0
 35 34  2  0  0  0  0
 36 34  1  0  0  0  0
 37 36  1  0  0  0  0
 38 37  1  0  0  0  0
 39 41  2  0  0  0  0
 40 41  2  0  0  0  0
 41 46  1  0  0  0  0
 41 38  1  0  0  0  0
 44 43  1  0  0  0  0
 44 45  1  0  0  0  0
 45 42  2  0  0  0  0
 46 42  1  0  0  0  0
 47 46  2  0  0  0  0
 47 43  1  0  0  0  0
 50 49  1  0  0  0  0
 51 52  1  6  0  0  0
 51 50  1  0  0  0  0
 51 49  1  0  0  0  0
 53 48  1  6  0  0  0
 53 52  1  0  0  0  0
 53 51  1  0  0  0  0
M  END
>  <MODEL>
8

>  <REMARK>
 VINA RESULT:      -6.5      1.799      2.195
  Name = 
  15 active torsions:
  status: ('A' for Active; 'I' for Inactive)
    1  A    between atoms: C_10  and  N_32
    2  A    between atoms: C_14  and  C_47
    3  A    between atoms: N_15  and  S_52
    4  A    between atoms: N_15  and  C_53
    5  A    between atoms: C_20  and  C_39
    6  A    between atoms: C_20  and  O_44
    7  A    between atoms: C_26  and  S_52
    8  A    between atoms: C_27  and  C_33
    9  A    between atoms: C_27  and  C_34
   10  A    between atoms: C_33  and  N_38
   11  A    between atoms: C_39  and  C_53
   12  A    between atoms: C_40  and  C_41
   13  A    between atoms: C_40  and  C_48
   14  A    between atoms: O_44  and  C_49
   15  A    between atoms: C_48  and  N_51
                            x       y       z     vdW  Elec       q    Type
                         _______ _______ _______ _____ _____    ______ ____

>  <TORSDO>
F 15

$$$$
=
 OpenBabel11042411503D

 53 59  0  0  1  0  0  0  0  0999 V2000
  188.9740  176.4380  138.0950 N   0  0  0  0  0  0  0  0  0  0  0  0
  190.7240  176.9430  139.7790 C   0  0  0  0  0  0  0  0  0  0  0  0
  193.1800  177.1280  139.6320 C   0  0  0  0  0  1  0  0  0  0  0  0
  191.9230  176.0650  137.7480 C   0  0  0  0  0  3  0  0  0  0  0  0
  190.9860  176.0970  136.8070 C   0  0  0  0  0  3  0  0  0  0  0  0
  189.3870  176.4720  139.3260 C   0  0  0  0  0  3  0  0  0  0  0  0
  189.7460  176.9050  136.9510 C   0  0  1  0  0  3  0  0  0  0  0  0
  191.8540  176.7520  139.0540 C   0  0  0  0  0  0  0  0  0  0  0  0
  187.4480  177.1050  135.9630 C   0  0  0  0  0  2  0  0  0  0  0  0
  186.7670  175.8390  135.6000 C   0  0  0  0  0  0  0  0  0  0  0  0
  188.9200  176.8400  135.6640 C   0  0  2  0  0  3  0  0  0  0  0  0
  189.0040  175.4700  134.9830 C   0  0  0  0  0  3  0  0  0  0  0  0
  185.4360  175.5990  135.6840 C   0  0  0  0  0  0  0  0  0  0  0  0
  187.6780  174.8950  135.0660 N   0  0  0  0  0  0  0  0  0  0  0  0
  183.2780  172.3330  134.6410 S   0  0  0  0  0  0  0  0  0  0  0  0
  185.3210  170.8550  135.7170 C   0  0  0  0  0  1  0  0  0  0  0  0
  183.6170  174.0240  135.1000 C   0  0  0  0  0  3  0  0  0  0  0  0
  185.7190  173.1540  135.1660 O   0  0  0  0  0  0  0  0  0  0  0  0
  184.8960  174.2570  135.3330 C   0  0  0  0  0  0  0  0  0  0  0  0
  185.0690  171.9730  134.7280 C   0  0  2  0  0  3  0  0  0  0  0  0
  184.0390  177.4800  135.2590 O   0  0  0  0  0  0  0  0  0  0  0  0
  184.4540  176.6390  136.1060 C   0  0  0  0  0  0  0  0  0  0  0  0
  183.9410  176.6820  137.4420 N   0  0  0  0  0  0  0  0  0  0  0  0
  183.2310  177.6770  137.8780 C   0  0  0  0  0  3  0  0  0  0  0  0
  182.6930  177.6640  139.2640 C   0  0  0  0  0  2  0  0  0  0  0  0
  182.1520  179.0330  139.6210 C   0  0  0  0  0  2  0  0  0  0  0  0
  179.4810  179.2610  142.4370 C   0  0  0  0  0  2  0  0  0  0  0  0
  180.1090  179.1570  141.0830 C   0  0  0  0  0  0  0  0  0  0  0  0
  180.3260  178.5650  143.5030 C   0  0  0  0  0  2  0  0  0  0  0  0
  182.3460  178.5180  142.0590 C   0  0  0  0  0  2  0  0  0  0  0  0
  181.7810  179.0040  143.3930 C   0  0  0  0  0  2  0  0  0  0  0  0
  179.3760  179.2860  140.0640 O   0  0  0  0  0  0  0  0  0  0  0  0
  181.5380  179.0030  140.9440 N   0  0  0  0  0  0  0  0  0  0  0  0
  189.9250  177.8000  141.9560 C   0  0  0  0  0  0  0  0  0  0  0  0
  190.8640  177.4790  141.1110 N   0  0  0  0  0  0  0  0  0  0  0  0
  190.3250  178.3050  143.3030 C   0  0  0  0  0  2  0  0  0  0  0  0
  191.2550  177.3140  143.9700 C   0  0  0  0  0  2  0  0  0  0  0  0
  191.7220  177.8740  145.2290 N   0  0  0  0  0  2  0  0  0  0  0  0
  191.3350  175.3800  146.0750 O   0  0  0  0  0  0  0  0  0  0  0  0
  192.0560  177.0450  147.7270 O   0  0  0  0  0  0  0  0  0  0  0  0
  191.2050  176.8170  146.5060 S   0  0  0  0  0  0  0  0  0  0  0  0
  188.5000  176.9250  145.8410 C   0  0  0  0  0  3  0  0  0  0  0  0
  187.7600  177.8360  148.4630 C   0  0  0  0  0  2  0  0  0  0  0  0
  186.9120  178.7430  147.1330 S   0  0  0  0  0  0  0  0  0  0  0  0
  187.2980  177.4950  145.8970 C   0  0  0  0  0  3  0  0  0  0  0  0
  189.5240  177.1630  146.8730 C   0  0  0  0  0  0  0  0  0  0  0  0
  189.1900  177.6100  148.0860 C   0  0  0  0  0  3  0  0  0  0  0  0
  188.5700  177.6860  141.6200 O   0  0  0  0  0  0  0  0  0  0  0  0
  185.2720  179.3800  141.2460 O   0  0  0  0  0  0  0  0  0  0  0  0
  185.9030  179.3770  142.4630 C   0  0  0  0  0  2  0  0  0  0  0  0
  186.2800  178.3920  141.3960 C   0  0  1  0  0  0  0  0  0  0  0  0
  187.0420  178.6280  140.0850 C   0  0  0  0  0  2  0  0  0  0  0  0
  187.7590  178.8200  141.3510 C   0  0  2  0  0  3  0  0  0  0  0  0
  1  6  2  0  0  0  0
  2 35  1  0  0  0  0
  4  8  1  0  0  0  0
  5  4  2  0  0  0  0
  6  2  1  0  0  0  0
  7  5  1  6  0  0  0
  7  1  1  0  0  0  0
  8  3  1  0  0  0  0
  8  2  2  0  0  0  0
 10 13  2  0  0  0  0
 10  9  1  0  0  0  0
 11 12  1  1  0  0  0
 11  9  1  0  0  0  0
 11  7  1  0  0  0  0
 12 14  2  0  0  0  0
 13 22  1  0  0  0  0
 14 10  1  0  0  0  0
 15 20  1  0  0  0  0
 15 17  1  0  0  0  0
 17 19  2  0  0  0  0
 18 19  1  0  0  0  0
 19 13  1  0  0  0  0
 20 18  1  0  0  0  0
 20 16  1  1  0  0  0
 21 22  2  0  0  0  0
 22 23  1  0  0  0  0
 23 24  2  0  0  0  0
 24 25  1  0  0  0  0
 25 26  1  0  0  0  0
 26 33  1  0  0  0  0
 27 29  1  0  0  0  0
 28 27  1  0  0  0  0
 30 31  1  0  0  0  0
 31 29  1  0  0  0  0
 32 28  2  0  0  0  0
 33 28  1  0  0  0  0
 33 30  1  0  0  0  0
 34 36  1  0  0  0  0
 35 34  2  0  0  0  0
 36 37  1  0  0  0  0
 37 38  1  0  0  0  0
 38 41  1  0  0  0  0
 39 41  2  0  0  0  0
 41 46  1  0  0  0  0
 41 40  2  0  0  0  0
 42 45  2  0  0  0  0
 42 46  1  0  0  0  0
 44 43  1  0  0  0  0
 45 44  1  0  0  0  0
 46 47  2  0  0  0  0
 47 43  1  0  0  0  0
 48 34  1  0  0  0  0
 49 51  1  0  0  0  0
 49 50  1  0  0  0  0
 51 52  1  1  0  0  0
 51 50  1  0  0  0  0
 52 53  1  0  0  0  0
 53 51  1  0  0  0  0
 53 48  1  6  0  0  0
M  END
>  <MODEL>
9

>  <REMARK>
 VINA RESULT:      -6.4      4.194      7.226
  Name = 
  15 active torsions:
  status: ('A' for Active; 'I' for Inactive)
    1  A    between atoms: C_10  and  N_32
    2  A    between atoms: C_14  and  C_47
    3  A    between atoms: N_15  and  S_52
    4  A    between atoms: N_15  and  C_53
    5  A    between atoms: C_20  and  C_39
    6  A    between atoms: C_20  and  O_44
    7  A    between atoms: C_26  and  S_52
    8  A    between atoms: C_27  and  C_33
    9  A    between atoms: C_27  and  C_34
   10  A    between atoms: C_33  and  N_38
   11  A    between atoms: C_39  and  C_53
   12  A    between atoms: C_40  and  C_41
   13  A    between atoms: C_40  and  C_48
   14  A    between atoms: O_44  and  C_49
   15  A    between atoms: C_48  and  N_51
                            x       y       z     vdW  Elec       q    Type
                         _______ _______ _______ _____ _____    ______ ____

>  <TORSDO>
F 15

$$$$
