=
 OpenBabel11032419423D

 62 71  0  0  1  0  0  0  0  0999 V2000
  189.0370  177.7870  140.6450 C   0  0  1  0  0  3  0  0  0  0  0  0
  189.3590  176.6440  139.6790 C   0  0  2  0  0  3  0  0  0  0  0  0
  190.7120  176.7330  139.3010 O   0  0  0  0  0  0  0  0  0  0  0  0
  189.7820  177.0480  138.2960 C   0  0  2  0  0  3  0  0  0  0  0  0
  188.8820  179.1010  137.1940 C   0  0  0  0  0  3  0  0  0  0  0  0
  189.6550  178.4820  138.0310 N   0  0  0  0  0  0  0  0  0  0  0  0
  185.9560  178.7030  137.7940 O   0  0  0  0  0  1  0  0  0  0  0  0
  187.1630  175.6440  136.0970 C   0  0  0  0  0  0  0  0  0  0  0  0
  188.1790  176.0430  135.3900 N   0  0  0  0  0  0  0  0  0  0  0  0
  188.6250  177.4040  135.4070 C   0  0  0  0  0  0  0  0  0  0  0  0
  187.9180  178.4400  136.2520 C   0  0  1  0  0  3  0  0  0  0  0  0
  186.7490  177.8660  137.0170 C   0  0  0  0  0  0  0  0  0  0  0  0
  186.4130  176.5830  136.9320 C   0  0  0  0  0  3  0  0  0  0  0  0
  189.5920  177.7450  134.6740 O   0  0  0  0  0  0  0  0  0  0  0  0
  186.6630  173.9220  136.0920 S   0  0  0  0  0  0  0  0  0  0  0  0
  184.5470  172.9810  137.4460 N   0  0  0  0  0  2  0  0  0  0  0  0
  184.9680  174.1860  136.7430 C   0  0  2  0  0  3  0  0  0  0  0  0
  183.5140  172.9360  135.3920 C   0  0  0  0  0  2  0  0  0  0  0  0
  183.9820  174.3420  135.6240 C   0  0  0  0  0  2  0  0  0  0  0  0
  184.0260  172.0970  136.4770 N   0  0  0  0  0  0  0  0  0  0  0  0
  181.5760  172.0290  136.6340 C   0  0  0  0  0  1  0  0  0  0  0  0
  182.8920  171.4190  137.0920 C   0  0  0  0  0  2  0  0  0  0  0  0
  187.6620  178.2620  140.4540 N   0  0  0  0  0  2  0  0  0  0  0  0
  187.0850  178.4870  141.7800 C   0  0  0  0  0  2  0  0  0  0  0  0
  184.8090  178.4540  141.0690 C   0  0  0  0  0  3  0  0  0  0  0  0
  185.7600  179.1510  141.6680 C   0  0  0  0  0  3  0  0  0  0  0  0
  183.5280  178.9740  140.8700 O   0  0  0  0  0  0  0  0  0  0  0  0
  182.6430  178.3260  139.9990 C   0  0  0  0  0  0  0  0  0  0  0  0
  182.0260  177.2950  140.3940 O   0  0  0  0  0  0  0  0  0  0  0  0
  182.4050  178.8620  138.6150 C   0  0  0  0  0  2  0  0  0  0  0  0
  181.0570  179.6110  136.0940 C   0  0  0  0  0  2  0  0  0  0  0  0
  179.1660  180.6020  137.2730 C   0  0  1  0  0  3  0  0  0  0  0  0
  179.2910  181.7500  138.3350 C   0  0  0  0  0  2  0  0  0  0  0  0
  179.2540  181.2180  135.8400 C   0  0  1  0  0  3  0  0  0  0  0  0
  181.2310  183.5860  137.6670 O   0  0  0  0  0  0  0  0  0  0  0  0
  180.2290  183.0390  136.9290 C   0  0  1  0  0  3  0  0  0  0  0  0
  180.4850  182.1670  135.6760 C   0  0  1  0  0  3  0  0  0  0  0  0
  181.3040  179.9330  138.5240 C   0  0  2  0  0  3  0  0  0  0  0  0
  180.3090  179.5710  137.4070 C   0  0  2  0  0  3  0  0  0  0  0  0
  180.6980  182.3710  138.2170 C   0  0  2  0  0  0  0  0  0  0  0  0
  181.8430  181.3380  138.2200 C   0  0  0  0  0  2  0  0  0  0  0  0
  180.4720  180.6930  135.2030 C   0  0  1  0  0  3  0  0  0  0  0  0
  189.2960  177.4570  142.0560 N   0  0  0  0  0  2  0  0  0  0  0  0
  190.6280  177.7470  142.3810 N   0  0  0  0  0  2  0  0  0  0  0  0
  190.5910  178.9810  143.1420 C   0  0  0  0  0  2  0  0  0  0  0  0
  191.2390  178.7900  144.5040 C   0  0  0  0  0  2  0  0  0  0  0  0
  191.6890  177.3490  144.6260 C   0  0  0  0  0  2  0  0  0  0  0  0
  190.5790  176.5820  144.9820 O   0  0  0  0  0  0  0  0  0  0  0  0
  190.2800  176.9650  146.2960 C   0  0  1  0  0  3  0  0  0  0  0  0
  186.5650  177.4650  145.3780 C   0  0  0  0  0  3  0  0  0  0  0  0
  188.7700  177.1210  146.4870 C   0  0  2  0  0  3  0  0  0  0  0  0
  186.7660  179.9610  147.9690 O   0  0  0  0  0  1  0  0  0  0  0  0
  187.0050  178.6690  147.4910 C   0  0  1  0  0  0  0  0  0  0  0  0
  188.0460  177.3670  145.1570 C   0  0  0  0  0  2  0  0  0  0  0  0
  186.0730  178.1060  146.4480 C   0  0  0  0  0  0  0  0  0  0  0  0
  188.4740  178.2420  147.4940 C   0  0  1  0  0  3  0  0  0  0  0  0
  184.6010  178.1860  146.6470 C   0  0  0  0  0  1  0  0  0  0  0  0
  187.4960  177.7100  148.5490 C   0  0  0  0  0  2  0  0  0  0  0  0
  190.8270  175.9200  147.2560 C   0  0  0  0  0  2  0  0  0  0  0  0
  192.3390  175.8480  147.1670 C   0  0  0  0  0  2  0  0  0  0  0  0
  193.0380  176.9690  148.9850 O   0  0  0  0  0  1  0  0  0  0  0  0
  192.9090  175.7150  148.4980 N   0  0  0  0  0  2  0  0  0  0  0  0
  1 23  1  1  0  0  0
  1 43  1  0  0  0  0
  2  1  1  1  0  0  0
  3  2  1  0  0  0  0
  4  6  1  1  0  0  0
  4  3  1  0  0  0  0
  4  2  1  0  0  0  0
  5  6  2  0  0  0  0
  8 13  1  0  0  0  0
  9 10  1  0  0  0  0
  9  8  2  0  0  0  0
 10 11  1  0  0  0  0
 11 12  1  0  0  0  0
 11  5  1  1  0  0  0
 12  7  1  0  0  0  0
 13 12  2  0  0  0  0
 14 10  2  0  0  0  0
 15  8  1  0  0  0  0
 17 15  1  6  0  0  0
 17 16  1  0  0  0  0
 18 19  1  0  0  0  0
 18 20  1  0  0  0  0
 19 17  1  0  0  0  0
 20 22  1  0  0  0  0
 20 16  1  0  0  0  0
 21 22  1  0  0  0  0
 23 24  1  0  0  0  0
 25 26  2  0  0  0  0
 26 24  1  0  0  0  0
 27 25  1  0  0  0  0
 28 29  2  0  0  0  0
 28 27  1  0  0  0  0
 30 28  1  0  0  0  0
 31 39  1  0  0  0  0
 32 39  1  0  0  0  0
 32 33  1  1  0  0  0
 34 32  1  0  0  0  0
 35 40  1  0  0  0  0
 36 35  1  0  0  0  0
 36 40  1  0  0  0  0
 37 34  1  0  0  0  0
 37 36  1  0  0  0  0
 38 30  1  0  0  0  0
 39 38  1  0  0  0  0
 40 41  1  0  0  0  0
 40 33  1  0  0  0  0
 41 38  1  0  0  0  0
 42 37  1  0  0  0  0
 42 34  1  0  0  0  0
 42 31  1  0  0  0  0
 43 44  1  0  0  0  0
 44 45  1  0  0  0  0
 45 46  1  0  0  0  0
 46 47  1  0  0  0  0
 47 48  1  0  0  0  0
 48 49  1  0  0  0  0
 49 51  1  0  0  0  0
 49 59  1  0  0  0  0
 50 55  2  0  0  0  0
 51 56  1  0  0  0  0
 53 56  1  0  0  0  0
 53 52  1  0  0  0  0
 53 58  1  0  0  0  0
 54 50  1  0  0  0  0
 54 51  1  0  0  0  0
 55 57  1  0  0  0  0
 55 53  1  0  0  0  0
 56 58  1  0  0  0  0
 60 59  1  0  0  0  0
 60 62  1  0  0  0  0
 62 61  1  0  0  0  0
M  END
>  <MODEL>
1

>  <REMARK>
 VINA RESULT:      -7.5      0.000      0.000
  Name = 
  24 active torsions:
  status: ('A' for Active; 'I' for Inactive)
    1  A    between atoms: C_3  and  C_46
    2  A    between atoms: S_4  and  C_15
    3  A    between atoms: S_4  and  C_36
    4  A    between atoms: C_5  and  O_37
    5  A    between atoms: C_5  and  C_59
    6  A    between atoms: C_6  and  C_51
    7  A    between atoms: C_9  and  C_48
    8  A    between atoms: N_13  and  N_25
    9  A    between atoms: N_13  and  C_26
   10  A    between atoms: O_16  and  C_32
   11  A    between atoms: O_16  and  C_48
   12  A    between atoms: C_21  and  C_26
   13  A    between atoms: C_21  and  C_32
   14  A    between atoms: N_24  and  C_29
   15  A    between atoms: N_25  and  C_46
   16  A    between atoms: N_27  and  C_34
   17  A    between atoms: N_27  and  C_46
   18  A    between atoms: C_28  and  O_37
   19  A    between atoms: C_29  and  C_50
   20  A    between atoms: C_34  and  C_62
   21  A    between atoms: C_38  and  N_47
   22  A    between atoms: C_48  and  C_50
   23  A    between atoms: C_49  and  C_59
   24  A    between atoms: C_52  and  N_58
                            x       y       z     vdW  Elec       q    Type
                         _______ _______ _______ _____ _____    ______ ____

>  <TORSDO>
F 24

$$$$
=
 OpenBabel11032419423D

 62 71  0  0  1  0  0  0  0  0999 V2000
  190.2560  177.2790  139.9550 C   0  0  1  0  0  3  0  0  0  0  0  0
  189.5810  176.0580  139.3240 C   0  0  2  0  0  3  0  0  0  0  0  0
  190.5550  175.2890  138.6600 O   0  0  0  0  0  0  0  0  0  0  0  0
  189.6470  175.9660  137.8270 C   0  0  2  0  0  3  0  0  0  0  0  0
  189.6860  177.9210  136.2730 C   0  0  0  0  0  3  0  0  0  0  0  0
  190.2040  177.1570  137.1830 N   0  0  0  0  0  0  0  0  0  0  0  0
  187.2980  179.6810  136.8030 O   0  0  0  0  0  1  0  0  0  0  0  0
  186.0790  176.1930  136.6140 C   0  0  0  0  0  0  0  0  0  0  0  0
  186.9530  175.5820  135.8700 N   0  0  0  0  0  0  0  0  0  0  0  0
  188.1020  176.2560  135.3450 C   0  0  0  0  0  0  0  0  0  0  0  0
  188.3410  177.7200  135.6360 C   0  0  1  0  0  3  0  0  0  0  0  0
  187.2570  178.3260  136.4960 C   0  0  0  0  0  0  0  0  0  0  0  0
  186.2250  177.6130  136.9340 C   0  0  0  0  0  3  0  0  0  0  0  0
  188.8980  175.6260  134.5970 O   0  0  0  0  0  0  0  0  0  0  0  0
  184.6780  175.3050  137.2980 S   0  0  0  0  0  0  0  0  0  0  0  0
  183.0750  173.7040  135.8610 N   0  0  0  0  0  2  0  0  0  0  0  0
  184.4690  174.1260  135.9080 C   0  0  2  0  0  3  0  0  0  0  0  0
  184.2450  171.9900  136.8510 C   0  0  0  0  0  2  0  0  0  0  0  0
  185.2440  172.8650  136.1540 C   0  0  0  0  0  2  0  0  0  0  0  0
  182.9340  172.6370  136.7750 N   0  0  0  0  0  0  0  0  0  0  0  0
  180.9120  172.4170  135.3990 C   0  0  0  0  0  1  0  0  0  0  0  0
  182.0010  171.6910  136.1760 C   0  0  0  0  0  2  0  0  0  0  0  0
  189.3550  178.4360  139.9500 N   0  0  0  0  0  2  0  0  0  0  0  0
  188.0010  177.9410  140.1980 C   0  0  0  0  0  2  0  0  0  0  0  0
  186.1050  178.7080  141.4260 C   0  0  0  0  0  3  0  0  0  0  0  0
  187.4220  178.5840  141.4070 C   0  0  0  0  0  3  0  0  0  0  0  0
  185.4370  179.3230  142.4870 O   0  0  0  0  0  0  0  0  0  0  0  0
  184.0790  179.0580  142.7000 C   0  0  0  0  0  0  0  0  0  0  0  0
  183.4860  179.5990  143.6770 O   0  0  0  0  0  0  0  0  0  0  0  0
  183.3210  178.1570  141.7650 C   0  0  0  0  0  2  0  0  0  0  0  0
  180.5970  177.6710  140.7270 C   0  0  0  0  0  2  0  0  0  0  0  0
  180.5820  179.7660  139.4770 C   0  0  1  0  0  3  0  0  0  0  0  0
  181.6520  180.1590  138.3990 C   0  0  0  0  0  2  0  0  0  0  0  0
  179.5490  178.7840  138.8390 C   0  0  1  0  0  3  0  0  0  0  0  0
  182.4500  178.0020  136.8850 O   0  0  0  0  0  0  0  0  0  0  0  0
  181.2110  178.4340  137.2370 C   0  0  1  0  0  3  0  0  0  0  0  0
  180.2390  177.5920  138.1000 C   0  0  1  0  0  3  0  0  0  0  0  0
  182.7430  178.8640  140.5260 C   0  0  2  0  0  3  0  0  0  0  0  0
  181.2230  179.0470  140.6850 C   0  0  2  0  0  3  0  0  0  0  0  0
  182.4410  178.8910  138.0130 C   0  0  2  0  0  0  0  0  0  0  0  0
  182.9770  178.0930  139.2180 C   0  0  0  0  0  2  0  0  0  0  0  0
  179.6700  177.4930  139.5360 C   0  0  1  0  0  3  0  0  0  0  0  0
  190.7910  177.0260  141.3020 N   0  0  0  0  0  2  0  0  0  0  0  0
  191.4000  178.1860  141.8030 N   0  0  0  0  0  2  0  0  0  0  0  0
  190.6210  178.5710  142.9650 C   0  0  0  0  0  2  0  0  0  0  0  0
  191.4810  178.5400  144.2190 C   0  0  0  0  0  2  0  0  0  0  0  0
  191.8300  177.0990  144.5300 C   0  0  0  0  0  2  0  0  0  0  0  0
  190.6780  176.4740  145.0120 O   0  0  0  0  0  0  0  0  0  0  0  0
  190.3500  177.1730  146.1810 C   0  0  1  0  0  3  0  0  0  0  0  0
  186.6190  177.5280  145.2570 C   0  0  0  0  0  3  0  0  0  0  0  0
  188.8320  177.2390  146.3670 C   0  0  2  0  0  3  0  0  0  0  0  0
  186.6730  179.8860  147.9810 O   0  0  0  0  0  1  0  0  0  0  0  0
  186.9820  178.6370  147.4360 C   0  0  1  0  0  0  0  0  0  0  0  0
  188.1040  177.5190  145.0450 C   0  0  0  0  0  2  0  0  0  0  0  0
  186.0870  178.0830  146.3560 C   0  0  0  0  0  0  0  0  0  0  0  0
  188.4710  178.2870  147.4300 C   0  0  1  0  0  3  0  0  0  0  0  0
  184.6120  178.0750  146.5460 C   0  0  0  0  0  1  0  0  0  0  0  0
  187.5160  177.6490  148.4450 C   0  0  0  0  0  2  0  0  0  0  0  0
  190.9950  176.4820  147.3720 C   0  0  0  0  0  2  0  0  0  0  0  0
  192.0650  175.5100  146.9130 C   0  0  0  0  0  2  0  0  0  0  0  0
  192.9050  176.4610  148.7690 O   0  0  0  0  0  1  0  0  0  0  0  0
  193.2450  175.6370  147.7530 N   0  0  0  0  0  2  0  0  0  0  0  0
  1 23  1  1  0  0  0
  1 43  1  0  0  0  0
  2  1  1  6  0  0  0
  3  2  1  0  0  0  0
  4  6  1  6  0  0  0
  4  3  1  0  0  0  0
  4  2  1  0  0  0  0
  5  6  2  0  0  0  0
  8 13  1  0  0  0  0
  8 15  1  0  0  0  0
  9  8  2  0  0  0  0
 10 11  1  0  0  0  0
 10  9  1  0  0  0  0
 11  5  1  1  0  0  0
 11 12  1  0  0  0  0
 12  7  1  0  0  0  0
 12 13  2  0  0  0  0
 14 10  2  0  0  0  0
 16 17  1  0  0  0  0
 16 20  1  0  0  0  0
 17 19  1  0  0  0  0
 17 15  1  1  0  0  0
 19 18  1  0  0  0  0
 20 18  1  0  0  0  0
 21 22  1  0  0  0  0
 22 20  1  0  0  0  0
 23 24  1  0  0  0  0
 24 26  1  0  0  0  0
 25 27  1  0  0  0  0
 26 25  2  0  0  0  0
 27 28  1  0  0  0  0
 28 29  2  0  0  0  0
 30 28  1  0  0  0  0
 32 33  1  6  0  0  0
 32 39  1  0  0  0  0
 34 32  1  0  0  0  0
 34 42  1  0  0  0  0
 35 36  1  0  0  0  0
 35 40  1  0  0  0  0
 36 40  1  0  0  0  0
 36 37  1  0  0  0  0
 37 34  1  0  0  0  0
 37 42  1  0  0  0  0
 38 39  1  0  0  0  0
 38 30  1  0  0  0  0
 39 31  1  0  0  0  0
 40 33  1  0  0  0  0
 40 41  1  0  0  0  0
 41 38  1  0  0  0  0
 42 31  1  0  0  0  0
 43 44  1  0  0  0  0
 44 45  1  0  0  0  0
 45 46  1  0  0  0  0
 46 47  1  0  0  0  0
 47 48  1  0  0  0  0
 48 49  1  0  0  0  0
 49 51  1  0  0  0  0
 49 59  1  0  0  0  0
 50 55  2  0  0  0  0
 51 56  1  0  0  0  0
 53 52  1  0  0  0  0
 53 58  1  0  0  0  0
 54 50  1  0  0  0  0
 54 51  1  0  0  0  0
 55 57  1  0  0  0  0
 55 53  1  0  0  0  0
 56 53  1  0  0  0  0
 56 58  1  0  0  0  0
 60 59  1  0  0  0  0
 60 62  1  0  0  0  0
 62 61  1  0  0  0  0
M  END
>  <MODEL>
2

>  <REMARK>
 VINA RESULT:      -7.4      1.717      2.325
  Name = 
  24 active torsions:
  status: ('A' for Active; 'I' for Inactive)
    1  A    between atoms: C_3  and  C_46
    2  A    between atoms: S_4  and  C_15
    3  A    between atoms: S_4  and  C_36
    4  A    between atoms: C_5  and  O_37
    5  A    between atoms: C_5  and  C_59
    6  A    between atoms: C_6  and  C_51
    7  A    between atoms: C_9  and  C_48
    8  A    between atoms: N_13  and  N_25
    9  A    between atoms: N_13  and  C_26
   10  A    between atoms: O_16  and  C_32
   11  A    between atoms: O_16  and  C_48
   12  A    between atoms: C_21  and  C_26
   13  A    between atoms: C_21  and  C_32
   14  A    between atoms: N_24  and  C_29
   15  A    between atoms: N_25  and  C_46
   16  A    between atoms: N_27  and  C_34
   17  A    between atoms: N_27  and  C_46
   18  A    between atoms: C_28  and  O_37
   19  A    between atoms: C_29  and  C_50
   20  A    between atoms: C_34  and  C_62
   21  A    between atoms: C_38  and  N_47
   22  A    between atoms: C_48  and  C_50
   23  A    between atoms: C_49  and  C_59
   24  A    between atoms: C_52  and  N_58
                            x       y       z     vdW  Elec       q    Type
                         _______ _______ _______ _____ _____    ______ ____

>  <TORSDO>
F 24

$$$$
=
 OpenBabel11032419423D

 62 71  0  0  1  0  0  0  0  0999 V2000
  190.8230  176.7400  139.8940 C   0  0  1  0  0  3  0  0  0  0  0  0
  191.8770  177.7070  140.4400 C   0  0  2  0  0  3  0  0  0  0  0  0
  193.1100  177.0330  140.5370 O   0  0  0  0  0  0  0  0  0  0  0  0
  192.4900  177.3400  141.7610 C   0  0  2  0  0  3  0  0  0  0  0  0
  191.2970  176.1100  143.5770 C   0  0  0  0  0  3  0  0  0  0  0  0
  191.8560  176.1920  142.4110 N   0  0  0  0  0  0  0  0  0  0  0  0
  192.1630  175.8810  146.4540 O   0  0  0  0  0  1  0  0  0  0  0  0
  189.0300  177.8490  146.3960 C   0  0  0  0  0  0  0  0  0  0  0  0
  189.0030  178.3830  145.2110 N   0  0  0  0  0  0  0  0  0  0  0  0
  190.0280  178.1310  144.2440 C   0  0  0  0  0  0  0  0  0  0  0  0
  191.1970  177.2300  144.5720 C   0  0  1  0  0  3  0  0  0  0  0  0
  191.1300  176.6790  145.9770 C   0  0  0  0  0  0  0  0  0  0  0  0
  190.1310  176.9760  146.8020 C   0  0  0  0  0  3  0  0  0  0  0  0
  189.9720  178.7050  143.1230 O   0  0  0  0  0  0  0  0  0  0  0  0
  187.7020  178.1450  147.5650 S   0  0  0  0  0  0  0  0  0  0  0  0
  186.3070  178.2030  145.2740 N   0  0  0  0  0  2  0  0  0  0  0  0
  186.3470  177.4660  146.5310 C   0  0  2  0  0  3  0  0  0  0  0  0
  184.6030  179.0330  146.5760 C   0  0  0  0  0  2  0  0  0  0  0  0
  185.0110  177.7170  147.1660 C   0  0  0  0  0  2  0  0  0  0  0  0
  185.5380  179.3660  145.5010 N   0  0  0  0  0  0  0  0  0  0  0  0
  184.1550  178.3060  143.7710 C   0  0  0  0  0  1  0  0  0  0  0  0
  184.7650  179.6010  144.2890 C   0  0  0  0  0  2  0  0  0  0  0  0
  189.6370  177.4670  139.4300 N   0  0  0  0  0  2  0  0  0  0  0  0
  188.6920  177.5270  140.5450 C   0  0  0  0  0  2  0  0  0  0  0  0
  186.6960  178.6560  141.1990 C   0  0  0  0  0  3  0  0  0  0  0  0
  187.5540  178.4260  140.2190 C   0  0  0  0  0  3  0  0  0  0  0  0
  185.5660  179.4550  141.0180 O   0  0  0  0  0  0  0  0  0  0  0  0
  184.7220  179.2280  139.9230 C   0  0  0  0  0  0  0  0  0  0  0  0
  184.4460  180.1840  139.1420 O   0  0  0  0  0  0  0  0  0  0  0  0
  184.1670  177.8570  139.6590 C   0  0  0  0  0  2  0  0  0  0  0  0
  181.8240  178.0720  137.8710 C   0  0  0  0  0  2  0  0  0  0  0  0
  180.4040  176.8110  139.4020 C   0  0  1  0  0  3  0  0  0  0  0  0
  180.1460  177.2080  140.8970 C   0  0  0  0  0  2  0  0  0  0  0  0
  179.5030  177.6890  138.4760 C   0  0  1  0  0  3  0  0  0  0  0  0
  179.9480  179.9330  141.2360 O   0  0  0  0  0  0  0  0  0  0  0  0
  179.3690  179.1030  140.3290 C   0  0  1  0  0  3  0  0  0  0  0  0
  179.6190  179.2130  138.8050 C   0  0  1  0  0  3  0  0  0  0  0  0
  182.7160  177.6530  140.1290 C   0  0  2  0  0  3  0  0  0  0  0  0
  181.8720  177.0550  138.9890 C   0  0  2  0  0  3  0  0  0  0  0  0
  180.6090  178.6650  141.1000 C   0  0  2  0  0  0  0  0  0  0  0  0
  182.0300  178.9530  140.5730 C   0  0  0  0  0  2  0  0  0  0  0  0
  180.3900  178.5260  137.6530 C   0  0  1  0  0  3  0  0  0  0  0  0
  191.3360  175.8360  138.8520 N   0  0  0  0  0  2  0  0  0  0  0  0
  190.8360  176.2140  137.5980 N   0  0  0  0  0  2  0  0  0  0  0  0
  190.4710  174.9800  136.9290 C   0  0  0  0  0  2  0  0  0  0  0  0
  190.1340  175.2420  135.4700 C   0  0  0  0  0  2  0  0  0  0  0  0
  189.1630  176.4010  135.3990 C   0  0  0  0  0  2  0  0  0  0  0  0
  188.0330  175.9710  134.7010 O   0  0  0  0  0  0  0  0  0  0  0  0
  186.9490  176.5400  135.3830 C   0  0  1  0  0  3  0  0  0  0  0  0
  183.4730  175.1160  136.2680 C   0  0  0  0  0  3  0  0  0  0  0  0
  185.8420  175.5060  135.6020 C   0  0  2  0  0  3  0  0  0  0  0  0
  185.4460  172.8720  138.2810 O   0  0  0  0  0  1  0  0  0  0  0  0
  185.1840  173.5260  137.0740 C   0  0  1  0  0  0  0  0  0  0  0  0
  184.5460  176.1520  136.1120 C   0  0  0  0  0  2  0  0  0  0  0  0
  183.7590  173.8990  136.7530 C   0  0  0  0  0  0  0  0  0  0  0  0
  186.3250  174.4050  136.5570 C   0  0  1  0  0  3  0  0  0  0  0  0
  182.6780  172.8880  136.8940 C   0  0  0  0  0  1  0  0  0  0  0  0
  186.0330  173.0400  135.9230 C   0  0  0  0  0  2  0  0  0  0  0  0
  187.4320  177.0850  136.7180 C   0  0  0  0  0  2  0  0  0  0  0  0
  186.8210  178.4450  136.9950 C   0  0  0  0  0  2  0  0  0  0  0  0
  188.7270  179.6160  137.2090 O   0  0  0  0  0  1  0  0  0  0  0  0
  187.6460  179.4890  136.4090 N   0  0  0  0  0  2  0  0  0  0  0  0
  1 43  1  6  0  0  0
  2  1  1  6  0  0  0
  2  3  1  0  0  0  0
  2  4  1  0  0  0  0
  3  4  1  0  0  0  0
  4  6  1  6  0  0  0
  6  5  2  0  0  0  0
  8 13  1  0  0  0  0
  8 15  1  0  0  0  0
  9  8  2  0  0  0  0
 10 11  1  0  0  0  0
 10  9  1  0  0  0  0
 11  5  1  6  0  0  0
 11 12  1  0  0  0  0
 12  7  1  0  0  0  0
 12 13  2  0  0  0  0
 14 10  2  0  0  0  0
 16 20  1  0  0  0  0
 16 17  1  0  0  0  0
 17 19  1  0  0  0  0
 17 15  1  1  0  0  0
 18 19  1  0  0  0  0
 20 18  1  0  0  0  0
 21 22  1  0  0  0  0
 22 20  1  0  0  0  0
 23  1  1  0  0  0  0
 23 24  1  0  0  0  0
 26 24  1  0  0  0  0
 26 25  2  0  0  0  0
 27 25  1  0  0  0  0
 28 27  1  0  0  0  0
 29 28  2  0  0  0  0
 30 28  1  0  0  0  0
 30 38  1  0  0  0  0
 31 39  1  0  0  0  0
 32 33  1  1  0  0  0
 33 40  1  0  0  0  0
 34 37  1  0  0  0  0
 34 32  1  0  0  0  0
 36 40  1  0  0  0  0
 36 35  1  0  0  0  0
 37 36  1  0  0  0  0
 38 41  1  0  0  0  0
 39 32  1  0  0  0  0
 39 38  1  0  0  0  0
 40 35  1  0  0  0  0
 41 40  1  0  0  0  0
 42 31  1  0  0  0  0
 42 34  1  0  0  0  0
 42 37  1  0  0  0  0
 44 43  1  0  0  0  0
 45 44  1  0  0  0  0
 46 45  1  0  0  0  0
 47 46  1  0  0  0  0
 48 49  1  0  0  0  0
 48 47  1  0  0  0  0
 49 51  1  0  0  0  0
 49 59  1  0  0  0  0
 50 55  2  0  0  0  0
 51 54  1  0  0  0  0
 51 56  1  0  0  0  0
 53 52  1  0  0  0  0
 54 50  1  0  0  0  0
 55 57  1  0  0  0  0
 55 53  1  0  0  0  0
 56 53  1  0  0  0  0
 58 56  1  0  0  0  0
 58 53  1  0  0  0  0
 59 60  1  0  0  0  0
 62 60  1  0  0  0  0
 62 61  1  0  0  0  0
M  END
>  <MODEL>
3

>  <REMARK>
 VINA RESULT:      -7.3      3.098      8.527
  Name = 
  24 active torsions:
  status: ('A' for Active; 'I' for Inactive)
    1  A    between atoms: C_3  and  C_46
    2  A    between atoms: S_4  and  C_15
    3  A    between atoms: S_4  and  C_36
    4  A    between atoms: C_5  and  O_37
    5  A    between atoms: C_5  and  C_59
    6  A    between atoms: C_6  and  C_51
    7  A    between atoms: C_9  and  C_48
    8  A    between atoms: N_13  and  N_25
    9  A    between atoms: N_13  and  C_26
   10  A    between atoms: O_16  and  C_32
   11  A    between atoms: O_16  and  C_48
   12  A    between atoms: C_21  and  C_26
   13  A    between atoms: C_21  and  C_32
   14  A    between atoms: N_24  and  C_29
   15  A    between atoms: N_25  and  C_46
   16  A    between atoms: N_27  and  C_34
   17  A    between atoms: N_27  and  C_46
   18  A    between atoms: C_28  and  O_37
   19  A    between atoms: C_29  and  C_50
   20  A    between atoms: C_34  and  C_62
   21  A    between atoms: C_38  and  N_47
   22  A    between atoms: C_48  and  C_50
   23  A    between atoms: C_49  and  C_59
   24  A    between atoms: C_52  and  N_58
                            x       y       z     vdW  Elec       q    Type
                         _______ _______ _______ _____ _____    ______ ____

>  <TORSDO>
F 24

$$$$
=
 OpenBabel11032419423D

 62 71  0  0  1  0  0  0  0  0999 V2000
  183.8630  179.0460  144.2650 C   0  0  1  0  0  3  0  0  0  0  0  0
  185.2110  179.5930  143.7870 C   0  0  2  0  0  3  0  0  0  0  0  0
  185.0010  180.3880  142.6430 O   0  0  0  0  0  0  0  0  0  0  0  0
  185.6500  179.1610  142.4170 C   0  0  2  0  0  3  0  0  0  0  0  0
  184.5950  177.8630  140.5640 C   0  0  0  0  0  3  0  0  0  0  0  0
  184.7950  178.1380  141.8140 N   0  0  0  0  0  0  0  0  0  0  0  0
  183.1310  178.5050  138.0100 O   0  0  0  0  0  1  0  0  0  0  0  0
  186.5690  177.4970  137.0880 C   0  0  0  0  0  0  0  0  0  0  0  0
  187.2820  177.7710  138.1400 N   0  0  0  0  0  0  0  0  0  0  0  0
  186.6970  178.3110  139.3310 C   0  0  0  0  0  0  0  0  0  0  0  0
  185.2140  178.5920  139.4060 C   0  0  1  0  0  3  0  0  0  0  0  0
  184.4920  178.2480  138.1240 C   0  0  0  0  0  0  0  0  0  0  0  0
  185.1280  177.7510  137.0690 C   0  0  0  0  0  3  0  0  0  0  0  0
  187.4400  178.5930  140.3090 O   0  0  0  0  0  0  0  0  0  0  0  0
  187.3260  176.7730  135.6320 S   0  0  0  0  0  0  0  0  0  0  0  0
  189.2650  175.6460  137.1050 N   0  0  0  0  0  2  0  0  0  0  0  0
  188.0090  175.2850  136.4590 C   0  0  2  0  0  3  0  0  0  0  0  0
  189.8190  174.5510  135.1610 C   0  0  0  0  0  2  0  0  0  0  0  0
  188.3830  174.2360  135.4530 C   0  0  0  0  0  2  0  0  0  0  0  0
  190.2760  175.5540  136.1240 N   0  0  0  0  0  0  0  0  0  0  0  0
  192.1560  176.1120  137.6030 C   0  0  0  0  0  1  0  0  0  0  0  0
  191.4610  175.0290  136.7910 C   0  0  0  0  0  2  0  0  0  0  0  0
  183.8100  178.9950  145.7300 N   0  0  0  0  0  2  0  0  0  0  0  0
  184.8190  178.0340  146.1750 C   0  0  0  0  0  2  0  0  0  0  0  0
  186.5180  178.0960  147.8470 C   0  0  0  0  0  3  0  0  0  0  0  0
  185.9520  178.7330  146.8370 C   0  0  0  0  0  3  0  0  0  0  0  0
  187.5700  178.6550  148.5760 O   0  0  0  0  0  0  0  0  0  0  0  0
  188.8780  178.2010  148.3680 C   0  0  0  0  0  0  0  0  0  0  0  0
  189.8320  178.7440  148.9960 O   0  0  0  0  0  0  0  0  0  0  0  0
  189.1490  177.0610  147.4260 C   0  0  0  0  0  2  0  0  0  0  0  0
  188.1450  176.8270  144.6560 C   0  0  0  0  0  2  0  0  0  0  0  0
  189.8210  178.3790  143.8010 C   0  0  1  0  0  3  0  0  0  0  0  0
  191.3690  178.1890  143.9730 C   0  0  0  0  0  2  0  0  0  0  0  0
  189.3210  177.4720  142.6310 C   0  0  1  0  0  3  0  0  0  0  0  0
  192.1300  175.5520  143.7610 O   0  0  0  0  0  0  0  0  0  0  0  0
  191.3170  176.3110  142.9800 C   0  0  1  0  0  3  0  0  0  0  0  0
  189.8150  175.9960  142.7710 C   0  0  1  0  0  3  0  0  0  0  0  0
  189.9760  177.4410  146.1850 C   0  0  2  0  0  3  0  0  0  0  0  0
  189.0490  177.9640  145.0730 C   0  0  2  0  0  3  0  0  0  0  0  0
  191.6350  176.7340  144.4090 C   0  0  2  0  0  0  0  0  0  0  0  0
  190.7750  176.2670  145.6000 C   0  0  0  0  0  2  0  0  0  0  0  0
  188.4070  176.4700  143.2020 C   0  0  1  0  0  3  0  0  0  0  0  0
  182.7050  179.7670  143.7140 N   0  0  0  0  0  2  0  0  0  0  0  0
  181.9750  178.9250  142.8630 N   0  0  0  0  0  2  0  0  0  0  0  0
  180.6500  179.5090  142.7700 C   0  0  0  0  0  2  0  0  0  0  0  0
  179.5830  178.4580  143.0320 C   0  0  0  0  0  2  0  0  0  0  0  0
  179.0570  177.9620  141.7020 C   0  0  0  0  0  2  0  0  0  0  0  0
  178.9370  179.0630  140.8510 O   0  0  0  0  0  0  0  0  0  0  0  0
  179.1220  178.5470  139.5620 C   0  0  1  0  0  3  0  0  0  0  0  0
  179.9790  180.2630  136.2130 C   0  0  0  0  0  3  0  0  0  0  0  0
  179.3640  179.6730  138.5550 C   0  0  2  0  0  3  0  0  0  0  0  0
  182.1670  182.1960  138.3250 O   0  0  0  0  0  1  0  0  0  0  0  0
  180.9200  181.6320  138.0430 C   0  0  1  0  0  0  0  0  0  0  0  0
  179.7990  179.1340  137.1850 C   0  0  0  0  0  2  0  0  0  0  0  0
  180.5370  181.4190  136.6000 C   0  0  0  0  0  0  0  0  0  0  0  0
  180.3910  180.6720  139.1090 C   0  0  1  0  0  3  0  0  0  0  0  0
  180.7000  182.5250  135.6180 C   0  0  0  0  0  1  0  0  0  0  0  0
  179.8220  182.0880  138.9740 C   0  0  0  0  0  2  0  0  0  0  0  0
  180.3040  177.5900  139.5750 C   0  0  0  0  0  2  0  0  0  0  0  0
  179.9610  176.3030  138.8500 C   0  0  0  0  0  2  0  0  0  0  0  0
  181.8130  175.7450  139.9960 O   0  0  0  0  0  1  0  0  0  0  0  0
  180.7240  175.1990  139.4090 N   0  0  0  0  0  2  0  0  0  0  0  0
  1 43  1  1  0  0  0
  1 23  1  0  0  0  0
  2  1  1  6  0  0  0
  3  2  1  0  0  0  0
  4  6  1  6  0  0  0
  4  3  1  0  0  0  0
  4  2  1  0  0  0  0
  5  6  2  0  0  0  0
  7 12  1  0  0  0  0
  8  9  2  0  0  0  0
  9 10  1  0  0  0  0
 10 11  1  0  0  0  0
 10 14  2  0  0  0  0
 11  5  1  1  0  0  0
 12 11  1  0  0  0  0
 13  8  1  0  0  0  0
 13 12  2  0  0  0  0
 15  8  1  0  0  0  0
 17 15  1  6  0  0  0
 17 16  1  0  0  0  0
 18 19  1  0  0  0  0
 18 20  1  0  0  0  0
 19 17  1  0  0  0  0
 20 22  1  0  0  0  0
 20 16  1  0  0  0  0
 22 21  1  0  0  0  0
 23 24  1  0  0  0  0
 24 26  1  0  0  0  0
 25 27  1  0  0  0  0
 26 25  2  0  0  0  0
 28 27  1  0  0  0  0
 28 29  2  0  0  0  0
 30 28  1  0  0  0  0
 31 39  1  0  0  0  0
 32 33  1  1  0  0  0
 32 39  1  0  0  0  0
 33 40  1  0  0  0  0
 34 37  1  0  0  0  0
 34 42  1  0  0  0  0
 34 32  1  0  0  0  0
 35 40  1  0  0  0  0
 36 35  1  0  0  0  0
 36 40  1  0  0  0  0
 37 36  1  0  0  0  0
 37 42  1  0  0  0  0
 38 30  1  0  0  0  0
 39 38  1  0  0  0  0
 40 41  1  0  0  0  0
 41 38  1  0  0  0  0
 42 31  1  0  0  0  0
 44 43  1  0  0  0  0
 45 44  1  0  0  0  0
 45 46  1  0  0  0  0
 47 46  1  0  0  0  0
 48 47  1  0  0  0  0
 49 59  1  0  0  0  0
 49 48  1  0  0  0  0
 50 55  2  0  0  0  0
 50 54  1  0  0  0  0
 51 56  1  0  0  0  0
 51 49  1  0  0  0  0
 53 52  1  0  0  0  0
 53 58  1  0  0  0  0
 53 56  1  0  0  0  0
 54 51  1  0  0  0  0
 55 53  1  0  0  0  0
 57 55  1  0  0  0  0
 58 56  1  0  0  0  0
 60 62  1  0  0  0  0
 60 59  1  0  0  0  0
 62 61  1  0  0  0  0
M  END
>  <MODEL>
4

>  <REMARK>
 VINA RESULT:      -7.1      2.899     10.106
  Name = 
  24 active torsions:
  status: ('A' for Active; 'I' for Inactive)
    1  A    between atoms: C_3  and  C_46
    2  A    between atoms: S_4  and  C_15
    3  A    between atoms: S_4  and  C_36
    4  A    between atoms: C_5  and  O_37
    5  A    between atoms: C_5  and  C_59
    6  A    between atoms: C_6  and  C_51
    7  A    between atoms: C_9  and  C_48
    8  A    between atoms: N_13  and  N_25
    9  A    between atoms: N_13  and  C_26
   10  A    between atoms: O_16  and  C_32
   11  A    between atoms: O_16  and  C_48
   12  A    between atoms: C_21  and  C_26
   13  A    between atoms: C_21  and  C_32
   14  A    between atoms: N_24  and  C_29
   15  A    between atoms: N_25  and  C_46
   16  A    between atoms: N_27  and  C_34
   17  A    between atoms: N_27  and  C_46
   18  A    between atoms: C_28  and  O_37
   19  A    between atoms: C_29  and  C_50
   20  A    between atoms: C_34  and  C_62
   21  A    between atoms: C_38  and  N_47
   22  A    between atoms: C_48  and  C_50
   23  A    between atoms: C_49  and  C_59
   24  A    between atoms: C_52  and  N_58
                            x       y       z     vdW  Elec       q    Type
                         _______ _______ _______ _____ _____    ______ ____

>  <TORSDO>
F 24

$$$$
=
 OpenBabel11032419423D

 62 71  0  0  1  0  0  0  0  0999 V2000
  182.5300  179.1970  141.2240 C   0  0  1  0  0  3  0  0  0  0  0  0
  181.8350  178.4380  142.3580 C   0  0  2  0  0  3  0  0  0  0  0  0
  181.0360  179.3380  143.0870 O   0  0  0  0  0  0  0  0  0  0  0  0
  182.1830  178.8710  143.7530 C   0  0  2  0  0  3  0  0  0  0  0  0
  184.5110  179.6780  144.1570 C   0  0  0  0  0  3  0  0  0  0  0  0
  183.2720  179.8470  143.8180 N   0  0  0  0  0  0  0  0  0  0  0  0
  184.9320  178.9240  147.0430 O   0  0  0  0  0  1  0  0  0  0  0  0
  187.9000  177.7740  145.1560 C   0  0  0  0  0  0  0  0  0  0  0  0
  187.4670  177.6010  143.9430 N   0  0  0  0  0  0  0  0  0  0  0  0
  186.1110  177.8770  143.5760 C   0  0  0  0  0  0  0  0  0  0  0  0
  185.1190  178.3790  144.6010 C   0  0  1  0  0  3  0  0  0  0  0  0
  185.7290  178.5290  145.9750 C   0  0  0  0  0  0  0  0  0  0  0  0
  187.0050  178.2440  146.2140 C   0  0  0  0  0  3  0  0  0  0  0  0
  185.7350  177.6560  142.3940 O   0  0  0  0  0  0  0  0  0  0  0  0
  189.6190  177.4680  145.5690 S   0  0  0  0  0  0  0  0  0  0  0  0
  189.8220  178.1740  142.9880 N   0  0  0  0  0  2  0  0  0  0  0  0
  190.3480  178.5640  144.2910 C   0  0  2  0  0  3  0  0  0  0  0  0
  191.9410  177.2930  143.1300 C   0  0  0  0  0  2  0  0  0  0  0  0
  191.8290  178.3520  144.1850 C   0  0  0  0  0  2  0  0  0  0  0  0
  190.6240  177.1100  142.5200 N   0  0  0  0  0  0  0  0  0  0  0  0
  192.2280  177.4570  140.6930 C   0  0  0  0  0  1  0  0  0  0  0  0
  190.7650  177.2930  141.0810 C   0  0  0  0  0  2  0  0  0  0  0  0
  183.7010  178.4580  140.7410 N   0  0  0  0  0  2  0  0  0  0  0  0
  183.4720  178.1400  139.3310 C   0  0  0  0  0  2  0  0  0  0  0  0
  184.0030  176.2630  137.9600 C   0  0  0  0  0  3  0  0  0  0  0  0
  183.5030  176.6700  139.1140 C   0  0  0  0  0  3  0  0  0  0  0  0
  184.0600  174.9110  137.6150 O   0  0  0  0  0  0  0  0  0  0  0  0
  184.7350  174.5170  136.4530 C   0  0  0  0  0  0  0  0  0  0  0  0
  184.1080  174.4690  135.3560 O   0  0  0  0  0  0  0  0  0  0  0  0
  186.1980  174.1770  136.5000 C   0  0  0  0  0  2  0  0  0  0  0  0
  189.1380  174.0480  136.7790 C   0  0  0  0  0  2  0  0  0  0  0  0
  189.4720  175.9360  135.2710 C   0  0  1  0  0  3  0  0  0  0  0  0
  188.8390  177.3560  135.4800 C   0  0  0  0  0  2  0  0  0  0  0  0
  190.7240  175.7920  136.1940 C   0  0  1  0  0  3  0  0  0  0  0  0
  188.7710  178.0900  138.1320 O   0  0  0  0  0  0  0  0  0  0  0  0
  189.7720  177.5650  137.3780 C   0  0  1  0  0  3  0  0  0  0  0  0
  190.4190  176.1900  137.6740 C   0  0  1  0  0  3  0  0  0  0  0  0
  187.1380  175.3470  136.1590 C   0  0  2  0  0  3  0  0  0  0  0  0
  188.4860  174.8070  135.6460 C   0  0  2  0  0  3  0  0  0  0  0  0
  188.3200  177.4480  136.9290 C   0  0  2  0  0  0  0  0  0  0  0  0
  187.4370  176.2590  137.3580 C   0  0  0  0  0  2  0  0  0  0  0  0
  190.4390  174.7280  137.1700 C   0  0  1  0  0  3  0  0  0  0  0  0
  181.6300  179.5540  140.1150 N   0  0  0  0  0  2  0  0  0  0  0  0
  180.3330  179.0930  140.3810 N   0  0  0  0  0  2  0  0  0  0  0  0
  180.2170  177.8190  139.6970 C   0  0  0  0  0  2  0  0  0  0  0  0
  178.9320  177.7620  138.8870 C   0  0  0  0  0  2  0  0  0  0  0  0
  178.9330  178.9090  137.8990 C   0  0  0  0  0  2  0  0  0  0  0  0
  180.1210  178.8450  137.1680 O   0  0  0  0  0  0  0  0  0  0  0  0
  179.8380  179.4940  135.9590 C   0  0  1  0  0  3  0  0  0  0  0  0
  180.5080  183.1830  135.0430 C   0  0  0  0  0  3  0  0  0  0  0  0
  179.9310  181.0130  136.1240 C   0  0  2  0  0  3  0  0  0  0  0  0
  182.3220  183.1160  138.1550 O   0  0  0  0  0  1  0  0  0  0  0  0
  181.1830  182.8390  137.3950 C   0  0  1  0  0  0  0  0  0  0  0  0
  180.4770  181.6940  134.8620 C   0  0  0  0  0  2  0  0  0  0  0  0
  180.8740  183.7240  136.2150 C   0  0  0  0  0  0  0  0  0  0  0  0
  180.7790  181.3640  137.3550 C   0  0  1  0  0  3  0  0  0  0  0  0
  180.8910  185.2030  136.3710 C   0  0  0  0  0  1  0  0  0  0  0  0
  180.0060  182.3680  138.2160 C   0  0  0  0  0  2  0  0  0  0  0  0
  180.8180  179.0190  134.8980 C   0  0  0  0  0  2  0  0  0  0  0  0
  181.9080  178.1660  135.5180 C   0  0  0  0  0  2  0  0  0  0  0  0
  181.0470  176.1940  134.8670 O   0  0  0  0  0  1  0  0  0  0  0  0
  182.1340  176.9810  134.7050 N   0  0  0  0  0  2  0  0  0  0  0  0
  1 43  1  6  0  0  0
  2  1  1  6  0  0  0
  2  3  1  0  0  0  0
  2  4  1  0  0  0  0
  3  4  1  0  0  0  0
  4  6  1  6  0  0  0
  6  5  2  0  0  0  0
  8 15  1  0  0  0  0
  8 13  1  0  0  0  0
  9  8  2  0  0  0  0
 10  9  1  0  0  0  0
 10 11  1  0  0  0  0
 11  5  1  6  0  0  0
 11 12  1  0  0  0  0
 12 13  2  0  0  0  0
 12  7  1  0  0  0  0
 14 10  2  0  0  0  0
 16 17  1  0  0  0  0
 17 15  1  1  0  0  0
 18 19  1  0  0  0  0
 19 17  1  0  0  0  0
 20 16  1  0  0  0  0
 20 18  1  0  0  0  0
 21 22  1  0  0  0  0
 22 20  1  0  0  0  0
 23  1  1  0  0  0  0
 24 23  1  0  0  0  0
 25 26  2  0  0  0  0
 26 24  1  0  0  0  0
 27 25  1  0  0  0  0
 28 30  1  0  0  0  0
 28 27  1  0  0  0  0
 29 28  2  0  0  0  0
 31 42  1  0  0  0  0
 32 33  1  1  0  0  0
 32 39  1  0  0  0  0
 32 34  1  0  0  0  0
 33 40  1  0  0  0  0
 34 42  1  0  0  0  0
 34 37  1  0  0  0  0
 36 37  1  0  0  0  0
 36 35  1  0  0  0  0
 38 30  1  0  0  0  0
 38 41  1  0  0  0  0
 39 38  1  0  0  0  0
 39 31  1  0  0  0  0
 40 41  1  0  0  0  0
 40 36  1  0  0  0  0
 40 35  1  0  0  0  0
 42 37  1  0  0  0  0
 43 44  1  0  0  0  0
 45 44  1  0  0  0  0
 46 45  1  0  0  0  0
 47 46  1  0  0  0  0
 48 47  1  0  0  0  0
 49 51  1  0  0  0  0
 49 48  1  0  0  0  0
 50 55  2  0  0  0  0
 51 56  1  0  0  0  0
 53 52  1  0  0  0  0
 53 58  1  0  0  0  0
 54 50  1  0  0  0  0
 54 51  1  0  0  0  0
 55 57  1  0  0  0  0
 55 53  1  0  0  0  0
 56 53  1  0  0  0  0
 56 58  1  0  0  0  0
 59 60  1  0  0  0  0
 59 49  1  0  0  0  0
 62 61  1  0  0  0  0
 62 60  1  0  0  0  0
M  END
>  <MODEL>
5

>  <REMARK>
 VINA RESULT:      -6.4      3.105     10.898
  Name = 
  24 active torsions:
  status: ('A' for Active; 'I' for Inactive)
    1  A    between atoms: C_3  and  C_46
    2  A    between atoms: S_4  and  C_15
    3  A    between atoms: S_4  and  C_36
    4  A    between atoms: C_5  and  O_37
    5  A    between atoms: C_5  and  C_59
    6  A    between atoms: C_6  and  C_51
    7  A    between atoms: C_9  and  C_48
    8  A    between atoms: N_13  and  N_25
    9  A    between atoms: N_13  and  C_26
   10  A    between atoms: O_16  and  C_32
   11  A    between atoms: O_16  and  C_48
   12  A    between atoms: C_21  and  C_26
   13  A    between atoms: C_21  and  C_32
   14  A    between atoms: N_24  and  C_29
   15  A    between atoms: N_25  and  C_46
   16  A    between atoms: N_27  and  C_34
   17  A    between atoms: N_27  and  C_46
   18  A    between atoms: C_28  and  O_37
   19  A    between atoms: C_29  and  C_50
   20  A    between atoms: C_34  and  C_62
   21  A    between atoms: C_38  and  N_47
   22  A    between atoms: C_48  and  C_50
   23  A    between atoms: C_49  and  C_59
   24  A    between atoms: C_52  and  N_58
                            x       y       z     vdW  Elec       q    Type
                         _______ _______ _______ _____ _____    ______ ____

>  <TORSDO>
F 24

$$$$
=
 OpenBabel11032419423D

 62 71  0  0  1  0  0  0  0  0999 V2000
  189.7830  177.5250  142.4790 C   0  0  1  0  0  3  0  0  0  0  0  0
  189.8310  178.3900  143.7410 C   0  0  2  0  0  3  0  0  0  0  0  0
  190.1570  177.5740  144.8410 O   0  0  0  0  0  0  0  0  0  0  0  0
  188.8350  178.0500  144.8120 C   0  0  2  0  0  3  0  0  0  0  0  0
  186.5950  177.1930  144.1140 C   0  0  0  0  0  3  0  0  0  0  0  0
  187.8490  177.0460  144.4090 N   0  0  0  0  0  0  0  0  0  0  0  0
  185.2160  178.2690  146.5680 O   0  0  0  0  0  1  0  0  0  0  0  0
  183.0230  178.9680  143.6710 C   0  0  0  0  0  0  0  0  0  0  0  0
  183.8320  179.0190  142.6550 N   0  0  0  0  0  0  0  0  0  0  0  0
  185.2390  178.7940  142.7950 C   0  0  0  0  0  0  0  0  0  0  0  0
  185.8430  178.4920  144.1480 C   0  0  1  0  0  3  0  0  0  0  0  0
  184.8130  178.4720  145.2530 C   0  0  0  0  0  0  0  0  0  0  0  0
  183.5240  178.6960  145.0180 C   0  0  0  0  0  3  0  0  0  0  0  0
  185.9830  178.8920  141.7830 O   0  0  0  0  0  0  0  0  0  0  0  0
  181.2580  179.2040  143.4510 S   0  0  0  0  0  0  0  0  0  0  0  0
  180.8620  179.9090  140.8920 N   0  0  0  0  0  2  0  0  0  0  0  0
  181.1950  178.7290  141.6790 C   0  0  2  0  0  3  0  0  0  0  0  0
  178.9320  178.6700  141.0670 C   0  0  0  0  0  2  0  0  0  0  0  0
  180.0740  177.7660  141.4230 C   0  0  0  0  0  2  0  0  0  0  0  0
  179.4540  180.0270  140.9000 N   0  0  0  0  0  0  0  0  0  0  0  0
  179.2700  182.0020  139.4520 C   0  0  0  0  0  1  0  0  0  0  0  0
  179.0650  180.4990  139.5780 C   0  0  0  0  0  2  0  0  0  0  0  0
  189.1240  178.2400  141.3800 N   0  0  0  0  0  2  0  0  0  0  0  0
  188.8920  177.2760  140.3040 C   0  0  0  0  0  2  0  0  0  0  0  0
  188.2100  177.2350  138.0190 C   0  0  0  0  0  3  0  0  0  0  0  0
  188.6710  177.9780  139.0120 C   0  0  0  0  0  3  0  0  0  0  0  0
  187.9900  177.7620  136.7450 O   0  0  0  0  0  0  0  0  0  0  0  0
  186.8000  177.4690  136.0670 C   0  0  0  0  0  0  0  0  0  0  0  0
  186.4950  178.1290  135.0330 O   0  0  0  0  0  0  0  0  0  0  0  0
  185.9020  176.3630  136.5470 C   0  0  0  0  0  2  0  0  0  0  0  0
  183.5900  174.5910  137.0480 C   0  0  0  0  0  2  0  0  0  0  0  0
  182.6380  176.1200  138.6930 C   0  0  1  0  0  3  0  0  0  0  0  0
  182.2830  177.6200  138.4030 C   0  0  0  0  0  2  0  0  0  0  0  0
  181.5030  175.2070  138.1260 C   0  0  1  0  0  3  0  0  0  0  0  0
  181.2640  177.9830  135.8710 O   0  0  0  0  0  0  0  0  0  0  0  0
  180.9590  177.0730  136.8330 C   0  0  1  0  0  3  0  0  0  0  0  0
  181.1510  175.5490  136.6430 C   0  0  1  0  0  3  0  0  0  0  0  0
  184.5870  176.8390  137.1880 C   0  0  2  0  0  3  0  0  0  0  0  0
  183.9570  175.7000  138.0080 C   0  0  2  0  0  3  0  0  0  0  0  0
  182.2800  177.8320  136.8750 C   0  0  2  0  0  0  0  0  0  0  0  0
  183.5400  177.2990  136.1630 C   0  0  0  0  0  2  0  0  0  0  0  0
  182.0850  174.3860  137.0530 C   0  0  1  0  0  3  0  0  0  0  0  0
  191.0990  177.0110  142.0660 N   0  0  0  0  0  2  0  0  0  0  0  0
  191.7120  177.9110  141.1840 N   0  0  0  0  0  2  0  0  0  0  0  0
  192.1890  177.1120  140.0700 C   0  0  0  0  0  2  0  0  0  0  0  0
  193.7070  177.1380  140.0050 C   0  0  0  0  0  2  0  0  0  0  0  0
  194.1580  176.2280  138.8810 C   0  0  0  0  0  2  0  0  0  0  0  0
  193.1370  176.1850  137.9290 O   0  0  0  0  0  0  0  0  0  0  0  0
  193.7940  176.0410  136.7000 C   0  0  1  0  0  3  0  0  0  0  0  0
  197.0130  174.1240  135.7730 C   0  0  0  0  0  3  0  0  0  0  0  0
  194.9340  175.0250  136.8100 C   0  0  2  0  0  3  0  0  0  0  0  0
  194.9150  171.2680  136.4220 O   0  0  0  0  0  1  0  0  0  0  0  0
  195.4240  172.5200  136.7770 C   0  0  1  0  0  0  0  0  0  0  0  0
  195.8840  175.0980  135.6060 C   0  0  0  0  0  2  0  0  0  0  0  0
  196.7960  172.9030  136.2850 C   0  0  0  0  0  0  0  0  0  0  0  0
  194.3690  173.6080  136.9850 C   0  0  1  0  0  3  0  0  0  0  0  0
  197.9330  171.9580  136.4440 C   0  0  0  0  0  1  0  0  0  0  0  0
  195.0640  172.9460  138.1800 C   0  0  0  0  0  2  0  0  0  0  0  0
  192.7900  175.5930  135.6490 C   0  0  0  0  0  2  0  0  0  0  0  0
  191.3830  175.9900  136.0490 C   0  0  0  0  0  2  0  0  0  0  0  0
  191.0800  173.8460  135.4430 O   0  0  0  0  0  1  0  0  0  0  0  0
  190.4270  175.0260  135.5240 N   0  0  0  0  0  2  0  0  0  0  0  0
  1 23  1  6  0  0  0
  2  1  1  6  0  0  0
  2  4  1  0  0  0  0
  2  3  1  0  0  0  0
  4  6  1  6  0  0  0
  4  3  1  0  0  0  0
  5  6  2  0  0  0  0
  8 13  1  0  0  0  0
  9 10  1  0  0  0  0
  9  8  2  0  0  0  0
 10 11  1  0  0  0  0
 11  5  1  6  0  0  0
 11 12  1  0  0  0  0
 12  7  1  0  0  0  0
 13 12  2  0  0  0  0
 14 10  2  0  0  0  0
 15  8  1  0  0  0  0
 16 20  1  0  0  0  0
 16 17  1  0  0  0  0
 17 15  1  1  0  0  0
 18 19  1  0  0  0  0
 19 17  1  0  0  0  0
 20 18  1  0  0  0  0
 21 22  1  0  0  0  0
 22 20  1  0  0  0  0
 24 23  1  0  0  0  0
 25 26  2  0  0  0  0
 26 24  1  0  0  0  0
 27 25  1  0  0  0  0
 28 30  1  0  0  0  0
 28 27  1  0  0  0  0
 29 28  2  0  0  0  0
 30 38  1  0  0  0  0
 31 42  1  0  0  0  0
 31 39  1  0  0  0  0
 32 33  1  6  0  0  0
 34 32  1  0  0  0  0
 35 36  1  0  0  0  0
 35 40  1  0  0  0  0
 36 40  1  0  0  0  0
 37 36  1  0  0  0  0
 37 42  1  0  0  0  0
 37 34  1  0  0  0  0
 38 39  1  0  0  0  0
 39 32  1  0  0  0  0
 40 33  1  0  0  0  0
 41 40  1  0  0  0  0
 41 38  1  0  0  0  0
 42 34  1  0  0  0  0
 43  1  1  0  0  0  0
 44 43  1  0  0  0  0
 45 44  1  0  0  0  0
 46 45  1  0  0  0  0
 47 46  1  0  0  0  0
 48 47  1  0  0  0  0
 49 51  1  0  0  0  0
 49 48  1  0  0  0  0
 50 55  2  0  0  0  0
 51 56  1  0  0  0  0
 52 53  1  0  0  0  0
 53 56  1  0  0  0  0
 53 58  1  0  0  0  0
 54 50  1  0  0  0  0
 54 51  1  0  0  0  0
 55 57  1  0  0  0  0
 55 53  1  0  0  0  0
 56 58  1  0  0  0  0
 59 60  1  0  0  0  0
 59 49  1  0  0  0  0
 61 62  1  0  0  0  0
 62 60  1  0  0  0  0
M  END
>  <MODEL>
6

>  <REMARK>
 VINA RESULT:      -6.1      4.174      8.901
  Name = 
  24 active torsions:
  status: ('A' for Active; 'I' for Inactive)
    1  A    between atoms: C_3  and  C_46
    2  A    between atoms: S_4  and  C_15
    3  A    between atoms: S_4  and  C_36
    4  A    between atoms: C_5  and  O_37
    5  A    between atoms: C_5  and  C_59
    6  A    between atoms: C_6  and  C_51
    7  A    between atoms: C_9  and  C_48
    8  A    between atoms: N_13  and  N_25
    9  A    between atoms: N_13  and  C_26
   10  A    between atoms: O_16  and  C_32
   11  A    between atoms: O_16  and  C_48
   12  A    between atoms: C_21  and  C_26
   13  A    between atoms: C_21  and  C_32
   14  A    between atoms: N_24  and  C_29
   15  A    between atoms: N_25  and  C_46
   16  A    between atoms: N_27  and  C_34
   17  A    between atoms: N_27  and  C_46
   18  A    between atoms: C_28  and  O_37
   19  A    between atoms: C_29  and  C_50
   20  A    between atoms: C_34  and  C_62
   21  A    between atoms: C_38  and  N_47
   22  A    between atoms: C_48  and  C_50
   23  A    between atoms: C_49  and  C_59
   24  A    between atoms: C_52  and  N_58
                            x       y       z     vdW  Elec       q    Type
                         _______ _______ _______ _____ _____    ______ ____

>  <TORSDO>
F 24

$$$$
=
 OpenBabel11032419423D

 62 71  0  0  1  0  0  0  0  0999 V2000
  188.6380  177.7720  138.9240 C   0  0  1  0  0  3  0  0  0  0  0  0
  187.9990  177.7670  140.3160 C   0  0  2  0  0  3  0  0  0  0  0  0
  188.2540  179.0040  140.9400 O   0  0  0  0  0  0  0  0  0  0  0  0
  188.9430  177.9010  141.4760 C   0  0  2  0  0  3  0  0  0  0  0  0
  191.3890  177.5400  141.8240 C   0  0  0  0  0  3  0  0  0  0  0  0
  190.3570  177.8440  141.1010 N   0  0  0  0  0  0  0  0  0  0  0  0
  190.1890  174.9980  142.9060 O   0  0  0  0  0  1  0  0  0  0  0  0
  189.2730  177.7290  145.2290 C   0  0  0  0  0  0  0  0  0  0  0  0
  190.2080  178.6180  145.0710 N   0  0  0  0  0  0  0  0  0  0  0  0
  191.2730  178.4370  144.1310 C   0  0  0  0  0  0  0  0  0  0  0  0
  191.3530  177.1880  143.2830 C   0  0  1  0  0  3  0  0  0  0  0  0
  190.2250  176.2230  143.5610 C   0  0  0  0  0  0  0  0  0  0  0  0
  189.2810  176.4840  144.4590 C   0  0  0  0  0  3  0  0  0  0  0  0
  192.1750  179.3140  144.0450 O   0  0  0  0  0  0  0  0  0  0  0  0
  187.9250  178.0100  146.3780 S   0  0  0  0  0  0  0  0  0  0  0  0
  186.3420  178.3110  144.2330 N   0  0  0  0  0  2  0  0  0  0  0  0
  186.5860  177.3570  145.3070 C   0  0  2  0  0  3  0  0  0  0  0  0
  184.6620  178.6150  145.7730 C   0  0  0  0  0  2  0  0  0  0  0  0
  185.2880  177.2820  146.0570 C   0  0  0  0  0  2  0  0  0  0  0  0
  185.4510  179.2830  144.7370 N   0  0  0  0  0  0  0  0  0  0  0  0
  183.1160  179.2550  143.9770 C   0  0  0  0  0  1  0  0  0  0  0  0
  184.5520  179.6350  143.6460 C   0  0  0  0  0  2  0  0  0  0  0  0
  189.4100  176.5460  138.6990 N   0  0  0  0  0  2  0  0  0  0  0  0
  190.5590  176.8950  137.8640 C   0  0  0  0  0  2  0  0  0  0  0  0
  190.9940  175.8010  135.7900 C   0  0  0  0  0  3  0  0  0  0  0  0
  191.0390  175.7080  137.1090 C   0  0  0  0  0  3  0  0  0  0  0  0
  191.3830  174.7460  134.9630 O   0  0  0  0  0  0  0  0  0  0  0  0
  191.2410  173.4250  135.4060 C   0  0  0  0  0  0  0  0  0  0  0  0
  190.0840  172.9230  135.5010 O   0  0  0  0  0  0  0  0  0  0  0  0
  192.4500  172.6000  135.7450 C   0  0  0  0  0  2  0  0  0  0  0  0
  195.1920  171.4980  135.6840 C   0  0  0  0  0  2  0  0  0  0  0  0
  196.1980  173.7170  135.5650 C   0  0  1  0  0  3  0  0  0  0  0  0
  195.9540  174.8550  136.6180 C   0  0  0  0  0  2  0  0  0  0  0  0
  197.2480  172.7110  136.1340 C   0  0  1  0  0  3  0  0  0  0  0  0
  195.7820  173.8830  139.1880 O   0  0  0  0  0  0  0  0  0  0  0  0
  196.6830  173.6380  138.2010 C   0  0  1  0  0  3  0  0  0  0  0  0
  196.8940  172.2360  137.5800 C   0  0  1  0  0  3  0  0  0  0  0  0
  193.7050  173.4190  136.0960 C   0  0  2  0  0  3  0  0  0  0  0  0
  194.9050  172.9230  135.2700 C   0  0  2  0  0  3  0  0  0  0  0  0
  195.3150  174.2270  137.8730 C   0  0  2  0  0  0  0  0  0  0  0  0
  194.1000  173.3260  137.5780 C   0  0  0  0  0  2  0  0  0  0  0  0
  196.5750  171.4140  136.3080 C   0  0  1  0  0  3  0  0  0  0  0  0
  187.6760  178.0050  137.8350 N   0  0  0  0  0  2  0  0  0  0  0  0
  186.5240  178.6280  138.3350 N   0  0  0  0  0  2  0  0  0  0  0  0
  185.4040  177.9050  137.7630 C   0  0  0  0  0  2  0  0  0  0  0  0
  185.7970  177.2700  136.4390 C   0  0  0  0  0  2  0  0  0  0  0  0
  184.6130  176.4880  135.9080 C   0  0  0  0  0  2  0  0  0  0  0  0
  184.3210  175.4770  136.8260 O   0  0  0  0  0  0  0  0  0  0  0  0
  182.9220  175.4170  136.8650 C   0  0  1  0  0  3  0  0  0  0  0  0
  180.8380  172.1820  136.5630 C   0  0  0  0  0  3  0  0  0  0  0  0
  182.4190  174.0890  136.2930 C   0  0  2  0  0  3  0  0  0  0  0  0
  184.0940  170.7080  136.1130 O   0  0  0  0  0  1  0  0  0  0  0  0
  183.1420  171.6870  135.8180 C   0  0  1  0  0  0  0  0  0  0  0  0
  181.3390  173.4550  137.1790 C   0  0  0  0  0  2  0  0  0  0  0  0
  181.6820  171.3340  135.9580 C   0  0  0  0  0  0  0  0  0  0  0  0
  183.5950  173.1250  136.0760 C   0  0  1  0  0  3  0  0  0  0  0  0
  181.1600  170.0810  135.3500 C   0  0  0  0  0  1  0  0  0  0  0  0
  183.5170  172.5670  134.6500 C   0  0  0  0  0  2  0  0  0  0  0  0
  182.4560  175.5800  138.3030 C   0  0  0  0  0  2  0  0  0  0  0  0
  181.7950  176.9300  138.5040 C   0  0  0  0  0  2  0  0  0  0  0  0
  183.0510  176.8090  140.3640 O   0  0  0  0  0  1  0  0  0  0  0  0
  181.8940  177.3290  139.8990 N   0  0  0  0  0  2  0  0  0  0  0  0
  1 43  1  6  0  0  0
  2  1  1  6  0  0  0
  2  3  1  0  0  0  0
  2  4  1  0  0  0  0
  3  4  1  0  0  0  0
  4  6  1  6  0  0  0
  6  5  2  0  0  0  0
  7 12  1  0  0  0  0
  8 15  1  0  0  0  0
  9  8  2  0  0  0  0
 10  9  1  0  0  0  0
 11  5  1  6  0  0  0
 11 12  1  0  0  0  0
 11 10  1  0  0  0  0
 12 13  2  0  0  0  0
 13  8  1  0  0  0  0
 14 10  2  0  0  0  0
 16 20  1  0  0  0  0
 16 17  1  0  0  0  0
 17 19  1  0  0  0  0
 17 15  1  1  0  0  0
 18 19  1  0  0  0  0
 20 18  1  0  0  0  0
 22 21  1  0  0  0  0
 22 20  1  0  0  0  0
 23  1  1  0  0  0  0
 24 23  1  0  0  0  0
 25 26  2  0  0  0  0
 26 24  1  0  0  0  0
 27 28  1  0  0  0  0
 27 25  1  0  0  0  0
 28 29  2  0  0  0  0
 28 30  1  0  0  0  0
 30 38  1  0  0  0  0
 31 42  1  0  0  0  0
 32 34  1  0  0  0  0
 32 33  1  1  0  0  0
 33 40  1  0  0  0  0
 34 42  1  0  0  0  0
 34 37  1  0  0  0  0
 36 35  1  0  0  0  0
 37 36  1  0  0  0  0
 38 41  1  0  0  0  0
 39 32  1  0  0  0  0
 39 31  1  0  0  0  0
 39 38  1  0  0  0  0
 40 36  1  0  0  0  0
 40 35  1  0  0  0  0
 41 40  1  0  0  0  0
 42 37  1  0  0  0  0
 43 44  1  0  0  0  0
 45 44  1  0  0  0  0
 46 45  1  0  0  0  0
 47 46  1  0  0  0  0
 47 48  1  0  0  0  0
 48 49  1  0  0  0  0
 49 59  1  0  0  0  0
 50 54  1  0  0  0  0
 51 49  1  0  0  0  0
 51 54  1  0  0  0  0
 53 55  1  0  0  0  0
 53 56  1  0  0  0  0
 53 52  1  0  0  0  0
 55 50  2  0  0  0  0
 56 51  1  0  0  0  0
 57 55  1  0  0  0  0
 58 53  1  0  0  0  0
 58 56  1  0  0  0  0
 59 60  1  0  0  0  0
 60 62  1  0  0  0  0
 62 61  1  0  0  0  0
M  END
>  <MODEL>
7

>  <REMARK>
 VINA RESULT:      -6.1      4.355     11.959
  Name = 
  24 active torsions:
  status: ('A' for Active; 'I' for Inactive)
    1  A    between atoms: C_3  and  C_46
    2  A    between atoms: S_4  and  C_15
    3  A    between atoms: S_4  and  C_36
    4  A    between atoms: C_5  and  O_37
    5  A    between atoms: C_5  and  C_59
    6  A    between atoms: C_6  and  C_51
    7  A    between atoms: C_9  and  C_48
    8  A    between atoms: N_13  and  N_25
    9  A    between atoms: N_13  and  C_26
   10  A    between atoms: O_16  and  C_32
   11  A    between atoms: O_16  and  C_48
   12  A    between atoms: C_21  and  C_26
   13  A    between atoms: C_21  and  C_32
   14  A    between atoms: N_24  and  C_29
   15  A    between atoms: N_25  and  C_46
   16  A    between atoms: N_27  and  C_34
   17  A    between atoms: N_27  and  C_46
   18  A    between atoms: C_28  and  O_37
   19  A    between atoms: C_29  and  C_50
   20  A    between atoms: C_34  and  C_62
   21  A    between atoms: C_38  and  N_47
   22  A    between atoms: C_48  and  C_50
   23  A    between atoms: C_49  and  C_59
   24  A    between atoms: C_52  and  N_58
                            x       y       z     vdW  Elec       q    Type
                         _______ _______ _______ _____ _____    ______ ____

>  <TORSDO>
F 24

$$$$
=
 OpenBabel11032419423D

 62 71  0  0  1  0  0  0  0  0999 V2000
  188.9520  177.3100  138.9210 C   0  0  1  0  0  3  0  0  0  0  0  0
  188.2740  177.4850  140.2830 C   0  0  2  0  0  3  0  0  0  0  0  0
  188.4780  178.8050  140.7290 O   0  0  0  0  0  0  0  0  0  0  0  0
  189.1800  177.8120  141.4340 C   0  0  2  0  0  3  0  0  0  0  0  0
  191.6180  177.5050  141.8790 C   0  0  0  0  0  3  0  0  0  0  0  0
  190.6050  177.7450  141.1070 N   0  0  0  0  0  0  0  0  0  0  0  0
  190.4970  174.9890  143.1000 O   0  0  0  0  0  1  0  0  0  0  0  0
  189.3620  177.8290  145.1830 C   0  0  0  0  0  0  0  0  0  0  0  0
  190.2600  178.7500  144.9940 N   0  0  0  0  0  0  0  0  0  0  0  0
  191.3690  178.5570  144.1090 C   0  0  0  0  0  0  0  0  0  0  0  0
  191.5410  177.2560  143.3580 C   0  0  1  0  0  3  0  0  0  0  0  0
  190.4490  176.2590  143.6650 C   0  0  0  0  0  0  0  0  0  0  0  0
  189.4590  176.5350  144.5070 C   0  0  0  0  0  3  0  0  0  0  0  0
  192.2310  179.4690  143.9920 O   0  0  0  0  0  0  0  0  0  0  0  0
  187.9580  178.1240  146.2600 S   0  0  0  0  0  0  0  0  0  0  0  0
  186.4880  178.2400  144.0180 N   0  0  0  0  0  2  0  0  0  0  0  0
  186.6880  177.3710  145.1710 C   0  0  2  0  0  3  0  0  0  0  0  0
  184.7240  178.6250  145.4420 C   0  0  0  0  0  2  0  0  0  0  0  0
  185.3530  177.3280  145.8550 C   0  0  0  0  0  2  0  0  0  0  0  0
  185.5580  179.2300  144.4020 N   0  0  0  0  0  0  0  0  0  0  0  0
  185.1810  178.6790  142.0390 C   0  0  0  0  0  1  0  0  0  0  0  0
  184.7130  179.4850  143.2420 C   0  0  0  0  0  2  0  0  0  0  0  0
  189.8330  176.1380  138.9230 N   0  0  0  0  0  2  0  0  0  0  0  0
  191.0980  176.5360  138.3060 C   0  0  0  0  0  2  0  0  0  0  0  0
  191.7880  175.5770  136.2340 C   0  0  0  0  0  3  0  0  0  0  0  0
  191.6880  175.4060  137.5420 C   0  0  0  0  0  3  0  0  0  0  0  0
  192.2930  174.5810  135.3960 O   0  0  0  0  0  0  0  0  0  0  0  0
  192.3700  173.2600  135.8550 C   0  0  0  0  0  0  0  0  0  0  0  0
  191.3870  172.4830  135.6820 O   0  0  0  0  0  0  0  0  0  0  0  0
  193.6180  172.7570  136.5250 C   0  0  0  0  0  2  0  0  0  0  0  0
  196.2540  171.4210  136.5640 C   0  0  0  0  0  2  0  0  0  0  0  0
  197.1850  172.9710  134.9260 C   0  0  1  0  0  3  0  0  0  0  0  0
  197.2190  174.5290  135.1050 C   0  0  0  0  0  2  0  0  0  0  0  0
  198.3510  172.3360  135.7490 C   0  0  1  0  0  3  0  0  0  0  0  0
  197.7250  175.2730  137.7070 O   0  0  0  0  0  0  0  0  0  0  0  0
  198.3400  174.3650  136.9030 C   0  0  1  0  0  3  0  0  0  0  0  0
  198.3880  172.8510  137.2230 C   0  0  1  0  0  3  0  0  0  0  0  0
  194.9180  173.4230  136.0400 C   0  0  2  0  0  3  0  0  0  0  0  0
  195.8640  172.3630  135.4480 C   0  0  2  0  0  3  0  0  0  0  0  0
  196.9320  174.8550  136.5850 C   0  0  2  0  0  0  0  0  0  0  0  0
  195.6840  174.1500  137.1540 C   0  0  0  0  0  2  0  0  0  0  0  0
  197.7520  171.5040  136.8050 C   0  0  1  0  0  3  0  0  0  0  0  0
  188.0070  177.2650  137.7940 N   0  0  0  0  0  2  0  0  0  0  0  0
  187.5460  178.5570  137.5010 N   0  0  0  0  0  2  0  0  0  0  0  0
  186.1830  178.6110  137.9960 C   0  0  0  0  0  2  0  0  0  0  0  0
  185.3320  177.5370  137.3400 C   0  0  0  0  0  2  0  0  0  0  0  0
  184.2470  177.1190  138.3100 C   0  0  0  0  0  2  0  0  0  0  0  0
  183.0210  177.2180  137.6510 O   0  0  0  0  0  0  0  0  0  0  0  0
  182.1350  177.7300  138.6080 C   0  0  1  0  0  3  0  0  0  0  0  0
  180.7480  180.2440  136.0290 C   0  0  0  0  0  3  0  0  0  0  0  0
  181.3810  178.9430  138.0580 C   0  0  2  0  0  3  0  0  0  0  0  0
  182.1410  182.6330  138.3380 O   0  0  0  0  0  1  0  0  0  0  0  0
  181.3760  181.4970  138.0650 C   0  0  1  0  0  0  0  0  0  0  0  0
  181.5380  179.0740  136.5370 C   0  0  0  0  0  2  0  0  0  0  0  0
  180.7000  181.3910  136.7210 C   0  0  0  0  0  0  0  0  0  0  0  0
  181.8380  180.2230  138.7740 C   0  0  1  0  0  3  0  0  0  0  0  0
  179.9050  182.5350  136.1990 C   0  0  0  0  0  1  0  0  0  0  0  0
  180.5990  180.9860  139.2550 C   0  0  0  0  0  2  0  0  0  0  0  0
  181.1540  176.6400  139.0110 C   0  0  0  0  0  2  0  0  0  0  0  0
  179.7370  177.1770  139.0400 C   0  0  0  0  0  2  0  0  0  0  0  0
  179.8280  177.1260  141.2860 O   0  0  0  0  0  1  0  0  0  0  0  0
  179.0600  176.7290  140.2470 N   0  0  0  0  0  2  0  0  0  0  0  0
  1 43  1  6  0  0  0
  1 23  1  0  0  0  0
  2  1  1  6  0  0  0
  2  3  1  0  0  0  0
  2  4  1  0  0  0  0
  3  4  1  0  0  0  0
  4  6  1  6  0  0  0
  6  5  2  0  0  0  0
  7 12  1  0  0  0  0
  8 15  1  0  0  0  0
  9  8  2  0  0  0  0
 10  9  1  0  0  0  0
 11  5  1  6  0  0  0
 11 12  1  0  0  0  0
 11 10  1  0  0  0  0
 12 13  2  0  0  0  0
 13  8  1  0  0  0  0
 14 10  2  0  0  0  0
 16 20  1  0  0  0  0
 16 17  1  0  0  0  0
 17 19  1  0  0  0  0
 17 15  1  1  0  0  0
 18 19  1  0  0  0  0
 20 18  1  0  0  0  0
 21 22  1  0  0  0  0
 22 20  1  0  0  0  0
 24 23  1  0  0  0  0
 25 26  2  0  0  0  0
 26 24  1  0  0  0  0
 27 28  1  0  0  0  0
 27 25  1  0  0  0  0
 28 30  1  0  0  0  0
 29 28  2  0  0  0  0
 31 42  1  0  0  0  0
 32 33  1  1  0  0  0
 32 39  1  0  0  0  0
 32 34  1  0  0  0  0
 33 40  1  0  0  0  0
 34 42  1  0  0  0  0
 34 37  1  0  0  0  0
 36 37  1  0  0  0  0
 36 35  1  0  0  0  0
 38 30  1  0  0  0  0
 38 41  1  0  0  0  0
 39 38  1  0  0  0  0
 39 31  1  0  0  0  0
 40 36  1  0  0  0  0
 40 41  1  0  0  0  0
 40 35  1  0  0  0  0
 42 37  1  0  0  0  0
 44 43  1  0  0  0  0
 44 45  1  0  0  0  0
 46 45  1  0  0  0  0
 46 47  1  0  0  0  0
 48 47  1  0  0  0  0
 48 49  1  0  0  0  0
 49 59  1  0  0  0  0
 50 54  1  0  0  0  0
 50 55  2  0  0  0  0
 51 49  1  0  0  0  0
 51 56  1  0  0  0  0
 53 52  1  0  0  0  0
 53 56  1  0  0  0  0
 53 58  1  0  0  0  0
 54 51  1  0  0  0  0
 55 53  1  0  0  0  0
 56 58  1  0  0  0  0
 57 55  1  0  0  0  0
 59 60  1  0  0  0  0
 60 62  1  0  0  0  0
 62 61  1  0  0  0  0
M  END
>  <MODEL>
8

>  <REMARK>
 VINA RESULT:      -6.1      4.657     12.071
  Name = 
  24 active torsions:
  status: ('A' for Active; 'I' for Inactive)
    1  A    between atoms: C_3  and  C_46
    2  A    between atoms: S_4  and  C_15
    3  A    between atoms: S_4  and  C_36
    4  A    between atoms: C_5  and  O_37
    5  A    between atoms: C_5  and  C_59
    6  A    between atoms: C_6  and  C_51
    7  A    between atoms: C_9  and  C_48
    8  A    between atoms: N_13  and  N_25
    9  A    between atoms: N_13  and  C_26
   10  A    between atoms: O_16  and  C_32
   11  A    between atoms: O_16  and  C_48
   12  A    between atoms: C_21  and  C_26
   13  A    between atoms: C_21  and  C_32
   14  A    between atoms: N_24  and  C_29
   15  A    between atoms: N_25  and  C_46
   16  A    between atoms: N_27  and  C_34
   17  A    between atoms: N_27  and  C_46
   18  A    between atoms: C_28  and  O_37
   19  A    between atoms: C_29  and  C_50
   20  A    between atoms: C_34  and  C_62
   21  A    between atoms: C_38  and  N_47
   22  A    between atoms: C_48  and  C_50
   23  A    between atoms: C_49  and  C_59
   24  A    between atoms: C_52  and  N_58
                            x       y       z     vdW  Elec       q    Type
                         _______ _______ _______ _____ _____    ______ ____

>  <TORSDO>
F 24

$$$$
=
 OpenBabel11032419423D

 62 71  0  0  1  0  0  0  0  0999 V2000
  189.5030  177.3880  142.6960 C   0  0  1  0  0  3  0  0  0  0  0  0
  189.6600  178.3720  143.8580 C   0  0  2  0  0  3  0  0  0  0  0  0
  190.1320  177.6750  144.9870 O   0  0  0  0  0  0  0  0  0  0  0  0
  188.7990  178.1160  145.0610 C   0  0  2  0  0  3  0  0  0  0  0  0
  186.5490  177.1460  144.5810 C   0  0  0  0  0  3  0  0  0  0  0  0
  187.8090  177.0550  144.8680 N   0  0  0  0  0  0  0  0  0  0  0  0
  185.0280  178.5230  146.7880 O   0  0  0  0  0  1  0  0  0  0  0  0
  183.0010  178.8060  143.7060 C   0  0  0  0  0  0  0  0  0  0  0  0
  183.8670  178.7300  142.7390 N   0  0  0  0  0  0  0  0  0  0  0  0
  185.2640  178.5420  142.9870 C   0  0  0  0  0  0  0  0  0  0  0  0
  185.7910  178.4300  144.4000 C   0  0  1  0  0  3  0  0  0  0  0  0
  184.6990  178.5450  145.4370 C   0  0  0  0  0  0  0  0  0  0  0  0
  183.4260  178.7210  145.1030 C   0  0  0  0  0  3  0  0  0  0  0  0
  186.0650  178.5130  142.0140 O   0  0  0  0  0  0  0  0  0  0  0  0
  181.2510  178.9910  143.3570 S   0  0  0  0  0  0  0  0  0  0  0  0
  181.6860  179.2010  140.7170 N   0  0  0  0  0  2  0  0  0  0  0  0
  181.2760  178.2050  141.6990 C   0  0  2  0  0  3  0  0  0  0  0  0
  179.4020  179.0030  140.5360 C   0  0  0  0  0  2  0  0  0  0  0  0
  179.8940  177.7970  141.2790 C   0  0  0  0  0  2  0  0  0  0  0  0
  180.5280  179.9190  140.3480 N   0  0  0  0  0  0  0  0  0  0  0  0
  182.0240  179.8210  138.4040 C   0  0  0  0  0  1  0  0  0  0  0  0
  180.6450  180.2020  138.9240 C   0  0  0  0  0  2  0  0  0  0  0  0
  188.6740  177.9630  141.6310 N   0  0  0  0  0  2  0  0  0  0  0  0
  188.8620  177.1430  140.4350 C   0  0  0  0  0  2  0  0  0  0  0  0
  187.6210  177.3050  138.4050 C   0  0  0  0  0  3  0  0  0  0  0  0
  188.4790  177.9020  139.2140 C   0  0  0  0  0  3  0  0  0  0  0  0
  187.2040  177.8930  137.2080 O   0  0  0  0  0  0  0  0  0  0  0  0
  185.8490  177.8680  136.8560 C   0  0  0  0  0  0  0  0  0  0  0  0
  184.9840  178.2700  137.6850 O   0  0  0  0  0  0  0  0  0  0  0  0
  185.4240  177.3910  135.4960 C   0  0  0  0  0  2  0  0  0  0  0  0
  182.7180  176.2760  135.9120 C   0  0  0  0  0  2  0  0  0  0  0  0
  183.2840  174.1930  134.7770 C   0  0  1  0  0  3  0  0  0  0  0  0
  184.4690  173.2530  135.1940 C   0  0  0  0  0  2  0  0  0  0  0  0
  182.0720  173.9420  135.7300 C   0  0  1  0  0  3  0  0  0  0  0  0
  184.7820  173.1160  137.9260 O   0  0  0  0  0  0  0  0  0  0  0  0
  183.6720  173.0060  137.1500 C   0  0  1  0  0  3  0  0  0  0  0  0
  182.4810  173.9910  137.2370 C   0  0  1  0  0  3  0  0  0  0  0  0
  185.1000  175.8880  135.4170 C   0  0  2  0  0  3  0  0  0  0  0  0
  183.6670  175.6850  134.8940 C   0  0  2  0  0  3  0  0  0  0  0  0
  184.9380  173.6600  136.6060 C   0  0  2  0  0  0  0  0  0  0  0  0
  185.2000  175.1710  136.7710 C   0  0  0  0  0  2  0  0  0  0  0  0
  181.8360  175.1810  136.4870 C   0  0  1  0  0  3  0  0  0  0  0  0
  190.7840  176.8930  142.1650 N   0  0  0  0  0  2  0  0  0  0  0  0
  191.3090  177.8100  141.2440 N   0  0  0  0  0  2  0  0  0  0  0  0
  192.3520  177.0980  140.5290 C   0  0  0  0  0  2  0  0  0  0  0  0
  191.8690  176.6880  139.1470 C   0  0  0  0  0  2  0  0  0  0  0  0
  193.0500  176.7020  138.1990 C   0  0  0  0  0  2  0  0  0  0  0  0
  193.7800  175.5300  138.4080 O   0  0  0  0  0  0  0  0  0  0  0  0
  193.6590  174.8100  137.2120 C   0  0  1  0  0  3  0  0  0  0  0  0
  196.6160  172.3330  137.3410 C   0  0  0  0  0  3  0  0  0  0  0  0
  194.9890  174.1520  136.8360 C   0  0  2  0  0  3  0  0  0  0  0  0
  198.5360  175.3800  137.2560 O   0  0  0  0  0  1  0  0  0  0  0  0
  197.5070  174.5670  136.7740 C   0  0  1  0  0  0  0  0  0  0  0  0
  195.3330  172.9820  137.7690 C   0  0  0  0  0  2  0  0  0  0  0  0
  197.6480  173.0720  136.9100 C   0  0  0  0  0  0  0  0  0  0  0  0
  196.1130  175.1970  136.8200 C   0  0  1  0  0  3  0  0  0  0  0  0
  198.9080  172.4050  136.4860 C   0  0  0  0  0  1  0  0  0  0  0  0
  196.8790  175.0750  135.4980 C   0  0  0  0  0  2  0  0  0  0  0  0
  192.5770  173.7540  137.3750 C   0  0  0  0  0  2  0  0  0  0  0  0
  191.6100  173.7910  136.2080 C   0  0  0  0  0  2  0  0  0  0  0  0
  189.4420  173.7080  135.6180 O   0  0  0  0  0  1  0  0  0  0  0  0
  190.2420  173.8600  136.6970 N   0  0  0  0  0  2  0  0  0  0  0  0
  1 23  1  6  0  0  0
  2  1  1  6  0  0  0
  2  3  1  0  0  0  0
  2  4  1  0  0  0  0
  3  4  1  0  0  0  0
  4  6  1  6  0  0  0
  5  6  2  0  0  0  0
  8 13  1  0  0  0  0
  9 10  1  0  0  0  0
  9  8  2  0  0  0  0
 10 11  1  0  0  0  0
 11  5  1  6  0  0  0
 11 12  1  0  0  0  0
 12  7  1  0  0  0  0
 13 12  2  0  0  0  0
 14 10  2  0  0  0  0
 15  8  1  0  0  0  0
 16 17  1  0  0  0  0
 17 15  1  1  0  0  0
 18 19  1  0  0  0  0
 19 17  1  0  0  0  0
 20 18  1  0  0  0  0
 20 16  1  0  0  0  0
 21 22  1  0  0  0  0
 22 20  1  0  0  0  0
 24 23  1  0  0  0  0
 25 26  2  0  0  0  0
 26 24  1  0  0  0  0
 27 25  1  0  0  0  0
 28 27  1  0  0  0  0
 28 29  2  0  0  0  0
 30 28  1  0  0  0  0
 31 42  1  0  0  0  0
 32 39  1  0  0  0  0
 32 33  1  1  0  0  0
 32 34  1  0  0  0  0
 33 40  1  0  0  0  0
 34 42  1  0  0  0  0
 34 37  1  0  0  0  0
 36 37  1  0  0  0  0
 36 35  1  0  0  0  0
 38 30  1  0  0  0  0
 38 41  1  0  0  0  0
 39 38  1  0  0  0  0
 39 31  1  0  0  0  0
 40 41  1  0  0  0  0
 40 36  1  0  0  0  0
 40 35  1  0  0  0  0
 42 37  1  0  0  0  0
 43  1  1  0  0  0  0
 44 43  1  0  0  0  0
 45 44  1  0  0  0  0
 46 45  1  0  0  0  0
 47 48  1  0  0  0  0
 47 46  1  0  0  0  0
 49 59  1  0  0  0  0
 49 48  1  0  0  0  0
 50 54  1  0  0  0  0
 51 49  1  0  0  0  0
 51 54  1  0  0  0  0
 53 56  1  0  0  0  0
 53 55  1  0  0  0  0
 53 52  1  0  0  0  0
 55 50  2  0  0  0  0
 56 51  1  0  0  0  0
 57 55  1  0  0  0  0
 58 53  1  0  0  0  0
 58 56  1  0  0  0  0
 60 62  1  0  0  0  0
 60 59  1  0  0  0  0
 61 62  1  0  0  0  0
M  END
>  <MODEL>
9

>  <REMARK>
 VINA RESULT:      -5.8      4.189      9.171
  Name = 
  24 active torsions:
  status: ('A' for Active; 'I' for Inactive)
    1  A    between atoms: C_3  and  C_46
    2  A    between atoms: S_4  and  C_15
    3  A    between atoms: S_4  and  C_36
    4  A    between atoms: C_5  and  O_37
    5  A    between atoms: C_5  and  C_59
    6  A    between atoms: C_6  and  C_51
    7  A    between atoms: C_9  and  C_48
    8  A    between atoms: N_13  and  N_25
    9  A    between atoms: N_13  and  C_26
   10  A    between atoms: O_16  and  C_32
   11  A    between atoms: O_16  and  C_48
   12  A    between atoms: C_21  and  C_26
   13  A    between atoms: C_21  and  C_32
   14  A    between atoms: N_24  and  C_29
   15  A    between atoms: N_25  and  C_46
   16  A    between atoms: N_27  and  C_34
   17  A    between atoms: N_27  and  C_46
   18  A    between atoms: C_28  and  O_37
   19  A    between atoms: C_29  and  C_50
   20  A    between atoms: C_34  and  C_62
   21  A    between atoms: C_38  and  N_47
   22  A    between atoms: C_48  and  C_50
   23  A    between atoms: C_49  and  C_59
   24  A    between atoms: C_52  and  N_58
                            x       y       z     vdW  Elec       q    Type
                         _______ _______ _______ _____ _____    ______ ____

>  <TORSDO>
F 24

$$$$
