=
 OpenBabel11042411253D

 57 62  0  0  1  0  0  0  0  0999 V2000
  189.0510  177.7680  135.3910 S   0  0  0  0  0  1  0  0  0  0  0  0
  189.3230  176.5000  136.6830 C   0  0  1  0  0  0  0  0  0  0  0  0
  189.9100  175.2590  136.0480 C   0  0  0  0  0  3  0  0  0  0  0  0
  190.3100  174.2180  136.7810 C   0  0  0  0  0  3  0  0  0  0  0  0
  189.7360  172.4220  135.2340 C   0  0  0  0  0  1  0  0  0  0  0  0
  190.8240  172.9750  136.1390 C   0  0  1  0  0  3  0  0  0  0  0  0
  192.0050  173.2930  135.4020 O   0  0  0  0  0  0  0  0  0  0  0  0
  194.3560  174.2490  135.5990 C   0  0  1  0  0  3  0  0  0  0  0  0
  195.3680  173.8610  136.6340 C   0  0  1  0  0  3  0  0  0  0  0  0
  195.7030  173.6720  138.8370 C   0  0  0  0  0  3  0  0  0  0  0  0
  193.6880  172.3130  136.7580 N   0  0  0  0  0  0  0  0  0  0  0  0
  195.3770  172.4780  138.4730 N   0  0  0  0  0  0  0  0  0  0  0  0
  195.6560  174.5920  137.7080 C   0  0  0  0  0  2  0  0  0  0  0  0
  193.2960  173.2480  135.9460 C   0  0  0  0  0  0  0  0  0  0  0  0
  195.1100  172.4640  137.0430 C   0  0  2  0  0  3  0  0  0  0  0  0
  193.4130  176.3530  134.7110 C   0  0  0  0  0  2  0  0  0  0  0  0
  193.8430  175.6550  135.7630 C   0  0  0  0  0  3  0  0  0  0  0  0
  190.1980  177.0220  137.7440 N   0  0  0  0  0  2  0  0  0  0  0  0
  189.6030  176.8950  139.0710 C   0  0  0  0  0  2  0  0  0  0  0  0
  190.6540  177.1490  140.1320 C   0  0  0  0  0  2  0  0  0  0  0  0
  190.2840  176.4380  141.4200 C   0  0  0  0  0  2  0  0  0  0  0  0
  191.7240  178.5740  143.5140 C   0  0  0  0  0  1  0  0  0  0  0  0
  188.3500  178.4830  143.8510 N   0  0  0  0  0  2  0  0  0  0  0  0
  187.7240  177.9490  141.6520 O   0  0  0  0  0  0  0  0  0  0  0  0
  189.8810  177.4080  142.4250 N   0  0  0  0  0  0  0  0  0  0  0  0
  188.5870  177.9490  142.5680 C   0  0  0  0  0  0  0  0  0  0  0  0
  190.5780  177.5900  143.6910 C   0  0  2  0  0  3  0  0  0  0  0  0
  189.5380  178.2080  144.6500 C   0  0  2  0  0  3  0  0  0  0  0  0
  189.1950  177.1990  145.7260 C   0  0  0  0  0  2  0  0  0  0  0  0
  187.7000  177.1840  145.9730 C   0  0  0  0  0  2  0  0  0  0  0  0
  187.3750  177.9650  147.2350 C   0  0  0  0  0  2  0  0  0  0  0  0
  185.9290  178.4470  147.2180 C   0  0  0  0  0  2  0  0  0  0  0  0
  185.6220  179.2270  145.9480 C   0  0  0  0  0  2  0  0  0  0  0  0
  184.3830  178.6710  145.2690 C   0  0  0  0  0  2  0  0  0  0  0  0
  184.6330  178.5280  143.7840 C   0  0  0  0  0  1  0  0  0  0  0  0
  187.9810  176.1460  137.3350 C   0  0  0  0  0  2  0  0  0  0  0  0
  186.8930  176.9520  136.7920 N   0  0  0  0  0  2  0  0  0  0  0  0
  182.0930  177.0180  138.1630 C   0  0  2  0  0  3  0  0  0  0  0  0
  184.7430  177.9040  137.5560 C   0  0  2  0  0  3  0  0  0  0  0  0
  183.7660  174.7430  137.7370 C   0  0  0  0  0  2  0  0  0  0  0  0
  183.4320  177.3300  137.8680 C   0  0  0  0  0  0  0  0  0  0  0  0
  183.0090  175.9770  137.9370 C   0  0  0  0  0  0  0  0  0  0  0  0
  185.7010  176.6490  137.5640 C   0  0  1  0  0  3  0  0  0  0  0  0
  185.0970  175.2540  137.0740 C   0  0  0  0  0  2  0  0  0  0  0  0
  180.0120  177.8320  137.4510 C   0  0  0  0  0  2  0  0  0  0  0  0
  181.2050  177.1260  136.9990 N   0  0  1  0  0  0  0  0  0  0  0  0
  180.0540  179.2550  136.9420 C   0  0  2  0  0  3  0  0  0  0  0  0
  181.0710  179.2530  135.8330 C   0  0  0  0  0  2  0  0  0  0  0  0
  181.7990  177.9310  135.9300 C   0  0  0  0  0  2  0  0  0  0  0  0
  180.4770  180.1940  138.0700 C   0  0  0  0  0  2  0  0  0  0  0  0
  181.0980  181.4790  137.5310 C   0  0  0  0  0  2  0  0  0  0  0  0
  180.1540  182.6560  137.7010 C   0  0  0  0  0  2  0  0  0  0  0  0
  179.9260  183.3120  136.3750 C   0  0  0  0  0  3  0  0  0  0  0  0
  180.9040  183.3570  135.4700 C   0  0  0  0  0  2  0  0  0  0  0  0
  184.3620  179.8190  138.9620 O   0  0  0  0  0  0  0  0  0  0  0  0
  186.3850  178.7680  139.2360 O   0  0  0  0  0  1  0  0  0  0  0  0
  185.1380  178.8760  138.6300 C   0  0  0  0  0  0  0  0  0  0  0  0
  2  1  1  6  0  0  0
  2 36  1  0  0  0  0
  2 18  1  0  0  0  0
  3  2  1  0  0  0  0
  3  4  2  0  0  0  0
  6  5  1  6  0  0  0
  6  4  1  0  0  0  0
  7 14  1  0  0  0  0
  7  6  1  0  0  0  0
  8 17  1  1  0  0  0
  8 14  1  0  0  0  0
  8  9  1  0  0  0  0
  9 15  1  0  0  0  0
  9 13  1  1  0  0  0
 12 10  2  0  0  0  0
 13 10  1  0  0  0  0
 14 11  2  0  0  0  0
 15 11  1  1  0  0  0
 15 12  1  0  0  0  0
 16 17  2  0  0  0  0
 18 19  1  0  0  0  0
 19 20  1  0  0  0  0
 20 21  1  0  0  0  0
 21 25  1  0  0  0  0
 23 28  1  0  0  0  0
 24 26  2  0  0  0  0
 25 26  1  0  0  0  0
 25 27  1  0  0  0  0
 26 23  1  0  0  0  0
 27 22  1  6  0  0  0
 27 28  1  0  0  0  0
 28 29  1  1  0  0  0
 29 30  1  0  0  0  0
 30 31  1  0  0  0  0
 32 31  1  0  0  0  0
 33 32  1  0  0  0  0
 34 33  1  0  0  0  0
 35 34  1  0  0  0  0
 37 36  1  0  0  0  0
 38 41  1  6  0  0  0
 39 43  1  0  0  0  0
 39 41  1  0  0  0  0
 39 57  1  1  0  0  0
 40 42  1  0  0  0  0
 41 42  2  0  0  0  0
 42 38  1  0  0  0  0
 43 37  1  6  0  0  0
 44 43  1  0  0  0  0
 44 40  1  0  0  0  0
 46 49  1  6  0  0  0
 46 45  1  0  0  0  0
 46 38  1  0  0  0  0
 47 45  1  0  0  0  0
 47 50  1  1  0  0  0
 48 49  1  0  0  0  0
 48 47  1  0  0  0  0
 51 52  1  0  0  0  0
 51 50  1  0  0  0  0
 53 52  1  0  0  0  0
 54 53  2  0  0  0  0
 57 55  2  0  0  0  0
 57 56  1  0  0  0  0
M  END
>  <MODEL>
1

>  <REMARK>
 VINA RESULT:      -6.3      0.000      0.000
  Name = 
  25 active torsions:
  status: ('A' for Active; 'I' for Inactive)
    1  A    between atoms: C_1  and  N_15
    2  A    between atoms: C_1  and  C_54
    3  A    between atoms: C_2  and  N_34
    4  A    between atoms: C_3  and  C_14
    5  A    between atoms: C_3  and  C_50
    6  A    between atoms: C_4  and  C_56
    7  A    between atoms: C_8  and  C_26
    8  A    between atoms: C_8  and  C_46
    9  A    between atoms: C_12  and  C_14
   10  A    between atoms: N_15  and  C_49
   11  A    between atoms: C_16  and  C_55
   12  A    between atoms: N_21  and  C_32
   13  A    between atoms: C_24  and  C_33
   14  A    between atoms: C_24  and  C_50
   15  A    between atoms: C_30  and  C_36
   16  A    between atoms: C_30  and  C_46
   17  A    between atoms: C_31  and  O_44
   18  A    between atoms: C_31  and  C_52
   19  A    between atoms: C_32  and  C_54
   20  A    between atoms: C_33  and  C_41
   21  A    between atoms: C_38  and  N_43
   22  A    between atoms: C_38  and  C_49
   23  A    between atoms: C_39  and  O_44
   24  A    between atoms: C_42  and  N_43
   25  A    between atoms: C_47  and  C_49
                            x       y       z     vdW  Elec       q    Type
                         _______ _______ _______ _____ _____    ______ ____

>  <TORSDO>
F 25

$$$$
=
 OpenBabel11042411253D

 57 62  0  0  1  0  0  0  0  0999 V2000
  189.6310  178.1120  137.1590 S   0  0  0  0  0  1  0  0  0  0  0  0
  188.8730  176.6930  138.0330 C   0  0  1  0  0  0  0  0  0  0  0  0
  189.6440  175.4340  137.7020 C   0  0  0  0  0  3  0  0  0  0  0  0
  190.9570  175.4550  137.4710 C   0  0  0  0  0  3  0  0  0  0  0  0
  191.0000  173.4270  136.1160 C   0  0  0  0  0  1  0  0  0  0  0  0
  191.7160  174.1990  137.2120 C   0  0  1  0  0  3  0  0  0  0  0  0
  193.0490  174.5370  136.8260 O   0  0  0  0  0  0  0  0  0  0  0  0
  194.7810  172.8190  137.5510 C   0  0  1  0  0  3  0  0  0  0  0  0
  196.0500  173.1220  138.2890 C   0  0  1  0  0  3  0  0  0  0  0  0
  197.9070  174.3650  138.2330 C   0  0  0  0  0  3  0  0  0  0  0  0
  194.7810  175.0230  138.3730 N   0  0  0  0  0  0  0  0  0  0  0  0
  197.1120  175.0370  138.9940 N   0  0  0  0  0  0  0  0  0  0  0  0
  197.2510  173.1700  137.7200 C   0  0  0  0  0  2  0  0  0  0  0  0
  194.1840  174.1940  137.5720 C   0  0  0  0  0  0  0  0  0  0  0  0
  195.8410  174.3390  139.1030 C   0  0  2  0  0  3  0  0  0  0  0  0
  195.3630  173.2140  135.1830 C   0  0  0  0  0  2  0  0  0  0  0  0
  195.0090  172.3530  136.1380 C   0  0  0  0  0  3  0  0  0  0  0  0
  188.8440  176.9350  139.4840 N   0  0  0  0  0  2  0  0  0  0  0  0
  189.9580  177.7640  139.9340 C   0  0  0  0  0  2  0  0  0  0  0  0
  190.8780  176.9510  140.8210 C   0  0  0  0  0  2  0  0  0  0  0  0
  191.6810  177.8670  141.7250 C   0  0  0  0  0  2  0  0  0  0  0  0
  191.4430  175.2940  143.8100 C   0  0  0  0  0  1  0  0  0  0  0  0
  190.4740  178.2200  145.2260 N   0  0  0  0  0  2  0  0  0  0  0  0
  191.8390  179.7260  144.0520 O   0  0  0  0  0  0  0  0  0  0  0  0
  191.3260  177.6280  143.1160 N   0  0  0  0  0  0  0  0  0  0  0  0
  191.2630  178.6100  144.1250 C   0  0  0  0  0  0  0  0  0  0  0  0
  190.5340  176.4880  143.5580 C   0  0  2  0  0  3  0  0  0  0  0  0
  189.9010  176.9200  144.8970 C   0  0  2  0  0  3  0  0  0  0  0  0
  188.4050  177.0640  144.7140 C   0  0  0  0  0  2  0  0  0  0  0  0
  188.0190  176.7520  143.2830 C   0  0  0  0  0  2  0  0  0  0  0  0
  187.0100  177.7710  142.7820 C   0  0  0  0  0  2  0  0  0  0  0  0
  185.7890  177.8200  143.6930 C   0  0  0  0  0  2  0  0  0  0  0  0
  184.9400  179.0510  143.4120 C   0  0  0  0  0  2  0  0  0  0  0  0
  183.7800  179.1300  144.3890 C   0  0  0  0  0  2  0  0  0  0  0  0
  182.4700  179.1050  143.6310 C   0  0  0  0  0  1  0  0  0  0  0  0
  187.4210  176.5300  137.5700 C   0  0  0  0  0  2  0  0  0  0  0  0
  187.3420  175.8520  136.2800 N   0  0  0  0  0  2  0  0  0  0  0  0
  182.4030  175.6570  136.9750 C   0  0  2  0  0  3  0  0  0  0  0  0
  185.1900  175.0620  137.2040 C   0  0  2  0  0  3  0  0  0  0  0  0
  183.8400  177.1290  134.9940 C   0  0  0  0  0  2  0  0  0  0  0  0
  183.7910  175.4350  136.9810 C   0  0  0  0  0  0  0  0  0  0  0  0
  183.2120  176.3270  136.0410 C   0  0  0  0  0  0  0  0  0  0  0  0
  185.9360  175.6860  135.9610 C   0  0  1  0  0  3  0  0  0  0  0  0
  185.3660  177.0550  135.3670 C   0  0  0  0  0  2  0  0  0  0  0  0
  180.6380  177.0690  137.6010 C   0  0  0  0  0  2  0  0  0  0  0  0
  181.9670  176.6170  137.9960 N   0  0  1  0  0  0  0  0  0  0  0  0
  179.6050  176.4020  138.4800 C   0  0  2  0  0  3  0  0  0  0  0  0
  180.3660  175.8850  139.6710 C   0  0  0  0  0  2  0  0  0  0  0  0
  181.8320  175.9910  139.3130 C   0  0  0  0  0  2  0  0  0  0  0  0
  178.9400  175.2580  137.7180 C   0  0  0  0  0  2  0  0  0  0  0  0
  179.5990  173.9170  138.0240 C   0  0  0  0  0  2  0  0  0  0  0  0
  179.3460  172.9150  136.9120 C   0  0  0  0  0  2  0  0  0  0  0  0
  180.0720  171.6400  137.2090 C   0  0  0  0  0  3  0  0  0  0  0  0
  181.3910  171.5610  137.0310 C   0  0  0  0  0  2  0  0  0  0  0  0
  184.5050  172.8490  136.5550 O   0  0  0  0  0  0  0  0  0  0  0  0
  186.3210  172.9590  137.9560 O   0  0  0  0  0  1  0  0  0  0  0  0
  185.3210  173.5660  137.2030 C   0  0  0  0  0  0  0  0  0  0  0  0
  2  1  1  6  0  0  0
  2 18  1  0  0  0  0
  3  2  1  0  0  0  0
  4  3  2  0  0  0  0
  6  5  1  6  0  0  0
  6  4  1  0  0  0  0
  7  6  1  0  0  0  0
  7 14  1  0  0  0  0
  8 17  1  6  0  0  0
  8 14  1  0  0  0  0
  8  9  1  0  0  0  0
  9 13  1  6  0  0  0
  9 15  1  0  0  0  0
 10 12  2  0  0  0  0
 12 15  1  0  0  0  0
 13 10  1  0  0  0  0
 14 11  2  0  0  0  0
 15 11  1  6  0  0  0
 16 17  2  0  0  0  0
 18 19  1  0  0  0  0
 19 20  1  0  0  0  0
 20 21  1  0  0  0  0
 21 25  1  0  0  0  0
 24 26  2  0  0  0  0
 25 27  1  0  0  0  0
 25 26  1  0  0  0  0
 26 23  1  0  0  0  0
 27 22  1  1  0  0  0
 27 28  1  0  0  0  0
 28 29  1  6  0  0  0
 28 23  1  0  0  0  0
 30 29  1  0  0  0  0
 31 30  1  0  0  0  0
 31 32  1  0  0  0  0
 33 32  1  0  0  0  0
 33 34  1  0  0  0  0
 35 34  1  0  0  0  0
 36  2  1  0  0  0  0
 37 36  1  0  0  0  0
 38 42  1  6  0  0  0
 38 41  1  0  0  0  0
 38 46  1  0  0  0  0
 39 57  1  6  0  0  0
 40 44  1  0  0  0  0
 40 42  1  0  0  0  0
 41 39  1  0  0  0  0
 42 41  2  0  0  0  0
 43 37  1  1  0  0  0
 43 39  1  0  0  0  0
 44 43  1  0  0  0  0
 45 47  1  0  0  0  0
 46 45  1  6  0  0  0
 46 49  1  0  0  0  0
 47 50  1  6  0  0  0
 47 48  1  0  0  0  0
 49 48  1  0  0  0  0
 50 51  1  0  0  0  0
 52 53  1  0  0  0  0
 52 51  1  0  0  0  0
 54 53  2  0  0  0  0
 55 57  2  0  0  0  0
 57 56  1  0  0  0  0
M  END
>  <MODEL>
2

>  <REMARK>
 VINA RESULT:      -6.1      2.761      3.995
  Name = 
  25 active torsions:
  status: ('A' for Active; 'I' for Inactive)
    1  A    between atoms: C_1  and  N_15
    2  A    between atoms: C_1  and  C_54
    3  A    between atoms: C_2  and  N_34
    4  A    between atoms: C_3  and  C_14
    5  A    between atoms: C_3  and  C_50
    6  A    between atoms: C_4  and  C_56
    7  A    between atoms: C_8  and  C_26
    8  A    between atoms: C_8  and  C_46
    9  A    between atoms: C_12  and  C_14
   10  A    between atoms: N_15  and  C_49
   11  A    between atoms: C_16  and  C_55
   12  A    between atoms: N_21  and  C_32
   13  A    between atoms: C_24  and  C_33
   14  A    between atoms: C_24  and  C_50
   15  A    between atoms: C_30  and  C_36
   16  A    between atoms: C_30  and  C_46
   17  A    between atoms: C_31  and  O_44
   18  A    between atoms: C_31  and  C_52
   19  A    between atoms: C_32  and  C_54
   20  A    between atoms: C_33  and  C_41
   21  A    between atoms: C_38  and  N_43
   22  A    between atoms: C_38  and  C_49
   23  A    between atoms: C_39  and  O_44
   24  A    between atoms: C_42  and  N_43
   25  A    between atoms: C_47  and  C_49
                            x       y       z     vdW  Elec       q    Type
                         _______ _______ _______ _____ _____    ______ ____

>  <TORSDO>
F 25

$$$$
=
 OpenBabel11042411253D

 57 62  0  0  1  0  0  0  0  0999 V2000
  192.8100  176.3640  136.8400 S   0  0  0  0  0  1  0  0  0  0  0  0
  191.4430  175.2220  137.2640 C   0  0  1  0  0  0  0  0  0  0  0  0
  191.8870  173.7980  137.0150 C   0  0  0  0  0  3  0  0  0  0  0  0
  193.0380  173.5190  136.4010 C   0  0  0  0  0  3  0  0  0  0  0  0
  194.0170  171.9570  134.8030 C   0  0  0  0  0  1  0  0  0  0  0  0
  193.4960  172.1120  136.2210 C   0  0  1  0  0  3  0  0  0  0  0  0
  194.5130  171.8330  137.1850 O   0  0  0  0  0  0  0  0  0  0  0  0
  197.0280  172.0180  137.5280 C   0  0  1  0  0  3  0  0  0  0  0  0
  197.8350  173.2730  137.3850 C   0  0  1  0  0  3  0  0  0  0  0  0
  198.3170  174.9490  135.9860 C   0  0  0  0  0  3  0  0  0  0  0  0
  195.6390  173.9120  137.3920 N   0  0  0  0  0  0  0  0  0  0  0  0
  197.3910  175.4370  136.7400 N   0  0  0  0  0  0  0  0  0  0  0  0
  198.5890  173.5590  136.3270 C   0  0  0  0  0  2  0  0  0  0  0  0
  195.6650  172.6140  137.3450 C   0  0  0  0  0  0  0  0  0  0  0  0
  196.9670  174.4280  137.6980 C   0  0  2  0  0  3  0  0  0  0  0  0
  196.7370  169.7970  136.4860 C   0  0  0  0  0  2  0  0  0  0  0  0
  197.3170  170.9980  136.4600 C   0  0  0  0  0  3  0  0  0  0  0  0
  191.0220  175.4140  138.6590 N   0  0  0  0  0  2  0  0  0  0  0  0
  191.7610  176.4850  139.3220 C   0  0  0  0  0  2  0  0  0  0  0  0
  190.7940  177.5210  139.8570 C   0  0  0  0  0  2  0  0  0  0  0  0
  190.9000  177.6090  141.3680 C   0  0  0  0  0  2  0  0  0  0  0  0
  187.6390  178.1580  141.0680 C   0  0  0  0  0  1  0  0  0  0  0  0
  188.3790  176.0180  143.5940 N   0  0  0  0  0  2  0  0  0  0  0  0
  190.3280  175.0240  142.7430 O   0  0  0  0  0  0  0  0  0  0  0  0
  189.6620  177.1490  141.9800 N   0  0  0  0  0  0  0  0  0  0  0  0
  189.5190  175.9870  142.7660 C   0  0  0  0  0  0  0  0  0  0  0  0
  188.5430  178.0300  142.2860 C   0  0  2  0  0  3  0  0  0  0  0  0
  187.7580  177.3250  143.4130 C   0  0  2  0  0  3  0  0  0  0  0  0
  187.8980  178.1260  144.6900 C   0  0  0  0  0  2  0  0  0  0  0  0
  187.2330  177.3980  145.8410 C   0  0  0  0  0  2  0  0  0  0  0  0
  187.0820  178.3340  147.0280 C   0  0  0  0  0  2  0  0  0  0  0  0
  185.7140  179.0060  147.0200 C   0  0  0  0  0  2  0  0  0  0  0  0
  184.6890  178.1630  146.2760 C   0  0  0  0  0  2  0  0  0  0  0  0
  183.9130  179.0170  145.2890 C   0  0  0  0  0  2  0  0  0  0  0  0
  184.2270  178.5780  143.8750 C   0  0  0  0  0  1  0  0  0  0  0  0
  190.2310  175.5330  136.3770 C   0  0  0  0  0  2  0  0  0  0  0  0
  188.9870  175.0820  136.9920 N   0  0  0  0  0  2  0  0  0  0  0  0
  184.5800  177.4260  136.9460 C   0  0  2  0  0  3  0  0  0  0  0  0
  186.5310  175.3360  136.8890 C   0  0  2  0  0  3  0  0  0  0  0  0
  187.1850  178.5820  136.7600 C   0  0  0  0  0  2  0  0  0  0  0  0
  185.6270  176.4900  136.8970 C   0  0  0  0  0  0  0  0  0  0  0  0
  185.9060  177.8810  136.8510 C   0  0  0  0  0  0  0  0  0  0  0  0
  187.9330  175.9740  136.5440 C   0  0  1  0  0  3  0  0  0  0  0  0
  188.2270  177.4490  137.0810 C   0  0  0  0  0  2  0  0  0  0  0  0
  183.0020  178.6380  138.1880 C   0  0  0  0  0  2  0  0  0  0  0  0
  184.0920  177.6760  138.3080 N   0  0  1  0  0  0  0  0  0  0  0  0
  181.6840  177.9190  138.3670 C   0  0  2  0  0  3  0  0  0  0  0  0
  182.0290  176.6060  139.0170 C   0  0  0  0  0  2  0  0  0  0  0  0
  183.5320  176.4680  138.9180 C   0  0  0  0  0  2  0  0  0  0  0  0
  181.0270  177.7000  137.0060 C   0  0  0  0  0  2  0  0  0  0  0  0
  180.1840  178.9020  136.5860 C   0  0  0  0  0  2  0  0  0  0  0  0
  180.7740  179.5820  135.3640 C   0  0  0  0  0  2  0  0  0  0  0  0
  180.6250  181.0660  135.4950 C   0  0  0  0  0  3  0  0  0  0  0  0
  180.7880  181.6560  136.6790 C   0  0  0  0  0  2  0  0  0  0  0  0
  184.9030  174.0090  135.7150 O   0  0  0  0  0  1  0  0  0  0  0  0
  187.0620  173.8390  134.9550 O   0  0  0  0  0  0  0  0  0  0  0  0
  186.1100  174.3730  135.8170 C   0  0  0  0  0  0  0  0  0  0  0  0
  2  1  1  6  0  0  0
  2 18  1  0  0  0  0
  3  2  1  0  0  0  0
  4  3  2  0  0  0  0
  6  5  1  6  0  0  0
  6  4  1  0  0  0  0
  6  7  1  0  0  0  0
  7 14  1  0  0  0  0
  8 17  1  6  0  0  0
  9 13  1  6  0  0  0
  9  8  1  0  0  0  0
  9 15  1  0  0  0  0
 10 13  1  0  0  0  0
 10 12  2  0  0  0  0
 11 15  1  0  0  0  0
 14 11  2  0  0  0  0
 14  8  1  0  0  0  0
 15 12  1  6  0  0  0
 17 16  2  0  0  0  0
 18 19  1  0  0  0  0
 19 20  1  0  0  0  0
 20 21  1  0  0  0  0
 21 25  1  0  0  0  0
 24 26  2  0  0  0  0
 25 27  1  0  0  0  0
 25 26  1  0  0  0  0
 26 23  1  0  0  0  0
 27 22  1  6  0  0  0
 27 28  1  0  0  0  0
 28 23  1  0  0  0  0
 28 29  1  1  0  0  0
 29 30  1  0  0  0  0
 30 31  1  0  0  0  0
 32 31  1  0  0  0  0
 33 32  1  0  0  0  0
 34 33  1  0  0  0  0
 35 34  1  0  0  0  0
 36 37  1  0  0  0  0
 36  2  1  0  0  0  0
 38 42  1  1  0  0  0
 38 46  1  0  0  0  0
 39 57  1  6  0  0  0
 39 41  1  0  0  0  0
 40 42  1  0  0  0  0
 40 44  1  0  0  0  0
 41 38  1  0  0  0  0
 42 41  2  0  0  0  0
 43 39  1  0  0  0  0
 43 37  1  1  0  0  0
 43 44  1  0  0  0  0
 45 47  1  0  0  0  0
 46 45  1  6  0  0  0
 46 49  1  0  0  0  0
 47 50  1  6  0  0  0
 47 48  1  0  0  0  0
 49 48  1  0  0  0  0
 51 50  1  0  0  0  0
 52 53  1  0  0  0  0
 52 51  1  0  0  0  0
 53 54  2  0  0  0  0
 55 57  1  0  0  0  0
 56 57  2  0  0  0  0
M  END
>  <MODEL>
3

>  <REMARK>
 VINA RESULT:      -5.9      2.181      3.396
  Name = 
  25 active torsions:
  status: ('A' for Active; 'I' for Inactive)
    1  A    between atoms: C_1  and  N_15
    2  A    between atoms: C_1  and  C_54
    3  A    between atoms: C_2  and  N_34
    4  A    between atoms: C_3  and  C_14
    5  A    between atoms: C_3  and  C_50
    6  A    between atoms: C_4  and  C_56
    7  A    between atoms: C_8  and  C_26
    8  A    between atoms: C_8  and  C_46
    9  A    between atoms: C_12  and  C_14
   10  A    between atoms: N_15  and  C_49
   11  A    between atoms: C_16  and  C_55
   12  A    between atoms: N_21  and  C_32
   13  A    between atoms: C_24  and  C_33
   14  A    between atoms: C_24  and  C_50
   15  A    between atoms: C_30  and  C_36
   16  A    between atoms: C_30  and  C_46
   17  A    between atoms: C_31  and  O_44
   18  A    between atoms: C_31  and  C_52
   19  A    between atoms: C_32  and  C_54
   20  A    between atoms: C_33  and  C_41
   21  A    between atoms: C_38  and  N_43
   22  A    between atoms: C_38  and  C_49
   23  A    between atoms: C_39  and  O_44
   24  A    between atoms: C_42  and  N_43
   25  A    between atoms: C_47  and  C_49
                            x       y       z     vdW  Elec       q    Type
                         _______ _______ _______ _____ _____    ______ ____

>  <TORSDO>
F 25

$$$$
=
 OpenBabel11042411253D

 57 62  0  0  1  0  0  0  0  0999 V2000
  191.6040  177.9120  140.8240 S   0  0  0  0  0  1  0  0  0  0  0  0
  189.9000  177.2850  141.0590 C   0  0  1  0  0  0  0  0  0  0  0  0
  189.7610  176.7300  142.4590 C   0  0  0  0  0  3  0  0  0  0  0  0
  190.6320  177.0320  143.4230 C   0  0  0  0  0  3  0  0  0  0  0  0
  191.8160  176.2470  145.4070 C   0  0  0  0  0  1  0  0  0  0  0  0
  190.4460  176.5320  144.8150 C   0  0  1  0  0  3  0  0  0  0  0  0
  189.7470  177.5230  145.5700 O   0  0  0  0  0  0  0  0  0  0  0  0
  187.7680  177.4440  147.1690 C   0  0  1  0  0  3  0  0  0  0  0  0
  186.3380  177.6920  146.7950 C   0  0  1  0  0  3  0  0  0  0  0  0
  184.9650  179.1620  145.8190 C   0  0  0  0  0  3  0  0  0  0  0  0
  187.4920  177.4680  144.8330 N   0  0  0  0  0  0  0  0  0  0  0  0
  185.2370  178.3240  144.8760 N   0  0  0  0  0  0  0  0  0  0  0  0
  185.6880  178.8270  147.0380 C   0  0  0  0  0  2  0  0  0  0  0  0
  188.3640  177.4950  145.7950 C   0  0  0  0  0  0  0  0  0  0  0  0
  186.1500  177.3100  145.3790 C   0  0  2  0  0  3  0  0  0  0  0  0
  189.3740  178.2580  148.8610 C   0  0  0  0  0  2  0  0  0  0  0  0
  188.3500  178.5190  148.0480 C   0  0  0  0  0  3  0  0  0  0  0  0
  188.9180  178.3500  140.8060 N   0  0  0  0  0  2  0  0  0  0  0  0
  187.8730  178.3970  141.8250 C   0  0  0  0  0  2  0  0  0  0  0  0
  186.6240  179.0340  141.2500 C   0  0  0  0  0  2  0  0  0  0  0  0
  185.4790  178.0400  141.2520 C   0  0  0  0  0  2  0  0  0  0  0  0
  182.7380  179.1610  142.7540 C   0  0  0  0  0  1  0  0  0  0  0  0
  182.6310  179.5350  139.3840 N   0  0  0  0  0  2  0  0  0  0  0  0
  184.9150  179.8120  138.9210 O   0  0  0  0  0  0  0  0  0  0  0  0
  184.2390  178.7090  140.8870 N   0  0  0  0  0  0  0  0  0  0  0  0
  184.0020  179.3880  139.6750 C   0  0  0  0  0  0  0  0  0  0  0  0
  182.9460  178.3740  141.4680 C   0  0  2  0  0  3  0  0  0  0  0  0
  181.8970  178.8340  140.4320 C   0  0  2  0  0  3  0  0  0  0  0  0
  181.2200  177.6160  139.8400 C   0  0  0  0  0  2  0  0  0  0  0  0
  179.8290  177.9730  139.3550 C   0  0  0  0  0  2  0  0  0  0  0  0
  179.5040  177.1960  138.0910 C   0  0  0  0  0  2  0  0  0  0  0  0
  180.5710  177.4200  137.0260 C   0  0  0  0  0  2  0  0  0  0  0  0
  180.5460  178.8530  136.5130 C   0  0  0  0  0  2  0  0  0  0  0  0
  180.9180  178.8960  135.0410 C   0  0  0  0  0  2  0  0  0  0  0  0
  182.0840  177.9670  134.7800 C   0  0  0  0  0  1  0  0  0  0  0  0
  189.6290  176.1670  140.0450 C   0  0  0  0  0  2  0  0  0  0  0  0
  190.5820  176.2020  138.9400 N   0  0  0  0  0  2  0  0  0  0  0  0
  188.2030  173.2590  135.6840 C   0  0  2  0  0  3  0  0  0  0  0  0
  190.2610  174.3340  137.3530 C   0  0  2  0  0  3  0  0  0  0  0  0
  187.3300  175.7590  136.7540 C   0  0  0  0  0  2  0  0  0  0  0  0
  189.1420  173.8940  136.5160 C   0  0  0  0  0  0  0  0  0  0  0  0
  187.8820  174.4980  136.2650 C   0  0  0  0  0  0  0  0  0  0  0  0
  189.8670  175.8140  137.7380 C   0  0  1  0  0  3  0  0  0  0  0  0
  188.3150  176.1440  137.9180 C   0  0  0  0  0  2  0  0  0  0  0  0
  186.1370  172.7740  136.6830 C   0  0  0  0  0  2  0  0  0  0  0  0
  187.4430  172.2070  136.3690 N   0  0  1  0  0  0  0  0  0  0  0  0
  185.1100  172.2200  135.7230 C   0  0  2  0  0  3  0  0  0  0  0  0
  185.7470  170.9980  135.1170 C   0  0  0  0  0  2  0  0  0  0  0  0
  187.2080  171.0500  135.5010 C   0  0  0  0  0  2  0  0  0  0  0  0
  184.7920  173.2600  134.6510 C   0  0  0  0  0  2  0  0  0  0  0  0
  184.4030  174.6020  135.2640 C   0  0  0  0  0  2  0  0  0  0  0  0
  183.0730  174.5060  135.9900 C   0  0  0  0  0  2  0  0  0  0  0  0
  183.2350  174.9830  137.4000 C   0  0  0  0  0  3  0  0  0  0  0  0
  183.8290  176.1490  137.6520 C   0  0  0  0  0  2  0  0  0  0  0  0
  191.5180  174.6060  135.3200 O   0  0  0  0  0  0  0  0  0  0  0  0
  192.7240  173.9350  137.1550 O   0  0  0  0  0  1  0  0  0  0  0  0
  191.5300  174.3160  136.5510 C   0  0  0  0  0  0  0  0  0  0  0  0
  2  1  1  6  0  0  0
  2  3  1  0  0  0  0
  3  4  2  0  0  0  0
  4  6  1  0  0  0  0
  6  5  1  1  0  0  0
  6  7  1  0  0  0  0
  7 14  1  0  0  0  0
  8 17  1  1  0  0  0
  9 13  1  6  0  0  0
  9  8  1  0  0  0  0
 10 13  1  0  0  0  0
 11 14  2  0  0  0  0
 12 15  1  0  0  0  0
 12 10  2  0  0  0  0
 14  8  1  0  0  0  0
 15 11  1  6  0  0  0
 15  9  1  0  0  0  0
 17 16  2  0  0  0  0
 18  2  1  0  0  0  0
 18 19  1  0  0  0  0
 20 21  1  0  0  0  0
 20 19  1  0  0  0  0
 23 26  1  0  0  0  0
 23 28  1  0  0  0  0
 24 26  2  0  0  0  0
 25 21  1  0  0  0  0
 25 27  1  0  0  0  0
 26 25  1  0  0  0  0
 27 22  1  1  0  0  0
 28 29  1  6  0  0  0
 28 27  1  0  0  0  0
 30 29  1  0  0  0  0
 31 30  1  0  0  0  0
 32 31  1  0  0  0  0
 33 32  1  0  0  0  0
 34 33  1  0  0  0  0
 35 34  1  0  0  0  0
 36  2  1  0  0  0  0
 37 36  1  0  0  0  0
 38 42  1  1  0  0  0
 38 46  1  0  0  0  0
 38 41  1  0  0  0  0
 39 57  1  6  0  0  0
 39 43  1  0  0  0  0
 40 44  1  0  0  0  0
 41 39  1  0  0  0  0
 42 41  2  0  0  0  0
 42 40  1  0  0  0  0
 43 44  1  0  0  0  0
 43 37  1  1  0  0  0
 46 49  1  6  0  0  0
 46 45  1  0  0  0  0
 47 50  1  6  0  0  0
 47 45  1  0  0  0  0
 48 49  1  0  0  0  0
 48 47  1  0  0  0  0
 50 51  1  0  0  0  0
 51 52  1  0  0  0  0
 52 53  1  0  0  0  0
 53 54  2  0  0  0  0
 55 57  2  0  0  0  0
 57 56  1  0  0  0  0
M  END
>  <MODEL>
4

>  <REMARK>
 VINA RESULT:      -5.7      2.641      9.133
  Name = 
  25 active torsions:
  status: ('A' for Active; 'I' for Inactive)
    1  A    between atoms: C_1  and  N_15
    2  A    between atoms: C_1  and  C_54
    3  A    between atoms: C_2  and  N_34
    4  A    between atoms: C_3  and  C_14
    5  A    between atoms: C_3  and  C_50
    6  A    between atoms: C_4  and  C_56
    7  A    between atoms: C_8  and  C_26
    8  A    between atoms: C_8  and  C_46
    9  A    between atoms: C_12  and  C_14
   10  A    between atoms: N_15  and  C_49
   11  A    between atoms: C_16  and  C_55
   12  A    between atoms: N_21  and  C_32
   13  A    between atoms: C_24  and  C_33
   14  A    between atoms: C_24  and  C_50
   15  A    between atoms: C_30  and  C_36
   16  A    between atoms: C_30  and  C_46
   17  A    between atoms: C_31  and  O_44
   18  A    between atoms: C_31  and  C_52
   19  A    between atoms: C_32  and  C_54
   20  A    between atoms: C_33  and  C_41
   21  A    between atoms: C_38  and  N_43
   22  A    between atoms: C_38  and  C_49
   23  A    between atoms: C_39  and  O_44
   24  A    between atoms: C_42  and  N_43
   25  A    between atoms: C_47  and  C_49
                            x       y       z     vdW  Elec       q    Type
                         _______ _______ _______ _____ _____    ______ ____

>  <TORSDO>
F 25

$$$$
=
 OpenBabel11042411253D

 57 62  0  0  1  0  0  0  0  0999 V2000
  191.4040  173.7010  136.8070 S   0  0  0  0  0  1  0  0  0  0  0  0
  191.4020  175.1580  135.6990 C   0  0  1  0  0  0  0  0  0  0  0  0
  192.8030  175.3920  135.1800 C   0  0  0  0  0  3  0  0  0  0  0  0
  193.8050  175.7290  135.9930 C   0  0  0  0  0  3  0  0  0  0  0  0
  195.4490  177.3720  135.2490 C   0  0  0  0  0  1  0  0  0  0  0  0
  195.1950  175.8920  135.4790 C   0  0  1  0  0  3  0  0  0  0  0  0
  196.1060  175.3480  136.4350 O   0  0  0  0  0  0  0  0  0  0  0  0
  196.8700  173.3210  137.7710 C   0  0  1  0  0  3  0  0  0  0  0  0
  196.8430  171.9020  137.2900 C   0  0  1  0  0  3  0  0  0  0  0  0
  195.5150  170.3220  136.4310 C   0  0  0  0  0  3  0  0  0  0  0  0
  196.4630  173.2160  135.4560 N   0  0  0  0  0  0  0  0  0  0  0  0
  196.0900  170.8330  135.3960 N   0  0  0  0  0  0  0  0  0  0  0  0
  195.9240  171.0090  137.6490 C   0  0  0  0  0  2  0  0  0  0  0  0
  196.4460  173.9900  136.4990 C   0  0  0  0  0  0  0  0  0  0  0  0
  196.9810  171.9020  135.8180 C   0  0  2  0  0  3  0  0  0  0  0  0
  195.4600  174.8350  139.1220 C   0  0  0  0  0  2  0  0  0  0  0  0
  195.8860  173.5950  138.8780 C   0  0  0  0  0  3  0  0  0  0  0  0
  190.4490  174.9670  134.5950 N   0  0  0  0  0  2  0  0  0  0  0  0
  189.3560  174.0670  134.9520 C   0  0  0  0  0  2  0  0  0  0  0  0
  188.0350  174.8040  134.8660 C   0  0  0  0  0  2  0  0  0  0  0  0
  187.1930  174.5200  136.0950 C   0  0  0  0  0  2  0  0  0  0  0  0
  184.4980  175.9630  134.8000 C   0  0  0  0  0  1  0  0  0  0  0  0
  183.9960  172.6960  135.5600 N   0  0  0  0  0  2  0  0  0  0  0  0
  186.1640  171.8540  135.2420 O   0  0  0  0  0  0  0  0  0  0  0  0
  185.8450  174.1410  135.6980 N   0  0  0  0  0  0  0  0  0  0  0  0
  185.3970  172.8230  135.4780 C   0  0  0  0  0  0  0  0  0  0  0  0
  184.6740  174.9730  135.9410 C   0  0  2  0  0  3  0  0  0  0  0  0
  183.4730  174.0020  135.9430 C   0  0  2  0  0  3  0  0  0  0  0  0
  182.9040  173.9220  137.3440 C   0  0  0  0  0  2  0  0  0  0  0  0
  182.1030  175.1700  137.6570 C   0  0  0  0  0  2  0  0  0  0  0  0
  182.7730  175.9500  138.7750 C   0  0  0  0  0  2  0  0  0  0  0  0
  183.2910  177.2910  138.2670 C   0  0  0  0  0  2  0  0  0  0  0  0
  182.1870  178.0850  137.5840 C   0  0  0  0  0  2  0  0  0  0  0  0
  181.5150  179.0190  138.5740 C   0  0  0  0  0  2  0  0  0  0  0  0
  181.8970  180.4510  138.2680 C   0  0  0  0  0  1  0  0  0  0  0  0
  190.9440  176.3920  136.4860 C   0  0  0  0  0  2  0  0  0  0  0  0
  190.2160  176.0180  137.6930 N   0  0  0  0  0  2  0  0  0  0  0  0
  190.3740  178.1400  142.2080 C   0  0  2  0  0  3  0  0  0  0  0  0
  189.3730  177.1640  139.7150 C   0  0  2  0  0  3  0  0  0  0  0  0
  192.5700  177.3360  140.5690 C   0  0  0  0  0  2  0  0  0  0  0  0
  190.0050  177.6510  140.9440 C   0  0  0  0  0  0  0  0  0  0  0  0
  191.3730  177.7180  141.3150 C   0  0  0  0  0  0  0  0  0  0  0  0
  190.5940  176.9540  138.7370 C   0  0  1  0  0  3  0  0  0  0  0  0
  191.9850  176.4960  139.3760 C   0  0  0  0  0  2  0  0  0  0  0  0
  189.3550  177.7180  144.2790 C   0  0  0  0  0  2  0  0  0  0  0  0
  190.2420  177.1410  143.2760 N   0  0  1  0  0  0  0  0  0  0  0  0
  187.9930  177.0720  144.1680 C   0  0  2  0  0  3  0  0  0  0  0  0
  188.2120  175.8100  143.3760 C   0  0  0  0  0  2  0  0  0  0  0  0
  189.6060  175.9120  142.7980 C   0  0  0  0  0  2  0  0  0  0  0  0
  187.0320  178.0120  143.4430 C   0  0  0  0  0  2  0  0  0  0  0  0
  185.9200  178.5030  144.3650 C   0  0  0  0  0  2  0  0  0  0  0  0
  184.8040  179.1610  143.5740 C   0  0  0  0  0  2  0  0  0  0  0  0
  184.3940  178.2670  142.4460 C   0  0  0  0  0  3  0  0  0  0  0  0
  183.3030  178.5430  141.7310 C   0  0  0  0  0  2  0  0  0  0  0  0
  188.8910  179.2670  138.6500 O   0  0  0  0  0  0  0  0  0  0  0  0
  187.0640  178.0360  139.3000 O   0  0  0  0  0  1  0  0  0  0  0  0
  188.4390  178.2090  139.1770 C   0  0  0  0  0  0  0  0  0  0  0  0
  2 36  1  0  0  0  0
  2  1  1  1  0  0  0
  3  2  1  0  0  0  0
  3  4  2  0  0  0  0
  6  5  1  1  0  0  0
  6  4  1  0  0  0  0
  6  7  1  0  0  0  0
  7 14  1  0  0  0  0
  8 17  1  1  0  0  0
  9 13  1  6  0  0  0
  9  8  1  0  0  0  0
 10 13  1  0  0  0  0
 11 15  1  0  0  0  0
 11 14  2  0  0  0  0
 12 10  2  0  0  0  0
 14  8  1  0  0  0  0
 15 12  1  6  0  0  0
 15  9  1  0  0  0  0
 17 16  2  0  0  0  0
 18 19  1  0  0  0  0
 18  2  1  0  0  0  0
 20 19  1  0  0  0  0
 20 21  1  0  0  0  0
 23 28  1  0  0  0  0
 24 26  2  0  0  0  0
 25 27  1  0  0  0  0
 25 21  1  0  0  0  0
 26 23  1  0  0  0  0
 26 25  1  0  0  0  0
 27 22  1  6  0  0  0
 27 28  1  0  0  0  0
 28 29  1  1  0  0  0
 29 30  1  0  0  0  0
 30 31  1  0  0  0  0
 32 31  1  0  0  0  0
 33 32  1  0  0  0  0
 33 34  1  0  0  0  0
 35 34  1  0  0  0  0
 36 37  1  0  0  0  0
 38 41  1  6  0  0  0
 38 46  1  0  0  0  0
 39 57  1  6  0  0  0
 39 41  1  0  0  0  0
 40 42  1  0  0  0  0
 41 42  2  0  0  0  0
 42 38  1  0  0  0  0
 43 37  1  6  0  0  0
 43 44  1  0  0  0  0
 43 39  1  0  0  0  0
 44 40  1  0  0  0  0
 46 49  1  6  0  0  0
 46 45  1  0  0  0  0
 47 50  1  6  0  0  0
 47 45  1  0  0  0  0
 48 47  1  0  0  0  0
 49 48  1  0  0  0  0
 50 51  1  0  0  0  0
 52 51  1  0  0  0  0
 53 52  1  0  0  0  0
 54 53  2  0  0  0  0
 55 57  2  0  0  0  0
 57 56  1  0  0  0  0
M  END
>  <MODEL>
5

>  <REMARK>
 VINA RESULT:      -5.7      2.285      7.481
  Name = 
  25 active torsions:
  status: ('A' for Active; 'I' for Inactive)
    1  A    between atoms: C_1  and  N_15
    2  A    between atoms: C_1  and  C_54
    3  A    between atoms: C_2  and  N_34
    4  A    between atoms: C_3  and  C_14
    5  A    between atoms: C_3  and  C_50
    6  A    between atoms: C_4  and  C_56
    7  A    between atoms: C_8  and  C_26
    8  A    between atoms: C_8  and  C_46
    9  A    between atoms: C_12  and  C_14
   10  A    between atoms: N_15  and  C_49
   11  A    between atoms: C_16  and  C_55
   12  A    between atoms: N_21  and  C_32
   13  A    between atoms: C_24  and  C_33
   14  A    between atoms: C_24  and  C_50
   15  A    between atoms: C_30  and  C_36
   16  A    between atoms: C_30  and  C_46
   17  A    between atoms: C_31  and  O_44
   18  A    between atoms: C_31  and  C_52
   19  A    between atoms: C_32  and  C_54
   20  A    between atoms: C_33  and  C_41
   21  A    between atoms: C_38  and  N_43
   22  A    between atoms: C_38  and  C_49
   23  A    between atoms: C_39  and  O_44
   24  A    between atoms: C_42  and  N_43
   25  A    between atoms: C_47  and  C_49
                            x       y       z     vdW  Elec       q    Type
                         _______ _______ _______ _____ _____    ______ ____

>  <TORSDO>
F 25

$$$$
=
 OpenBabel11042411253D

 57 62  0  0  1  0  0  0  0  0999 V2000
  190.9040  177.5190  137.3400 S   0  0  0  0  0  1  0  0  0  0  0  0
  190.1320  176.1310  138.2500 C   0  0  1  0  0  0  0  0  0  0  0  0
  190.4890  174.8280  137.5700 C   0  0  0  0  0  3  0  0  0  0  0  0
  190.9530  174.7930  136.3200 C   0  0  0  0  0  3  0  0  0  0  0  0
  190.3610  173.1740  134.5940 C   0  0  0  0  0  1  0  0  0  0  0  0
  191.3640  173.5090  135.6860 C   0  0  1  0  0  3  0  0  0  0  0  0
  192.6820  173.6590  135.1550 O   0  0  0  0  0  0  0  0  0  0  0  0
  195.2060  173.8330  135.4330 C   0  0  1  0  0  3  0  0  0  0  0  0
  195.9680  173.5080  136.6820 C   0  0  1  0  0  3  0  0  0  0  0  0
  196.1090  173.9540  138.8680 C   0  0  0  0  0  3  0  0  0  0  0  0
  193.8490  172.6990  136.9850 N   0  0  0  0  0  0  0  0  0  0  0  0
  195.4050  172.8750  138.8210 N   0  0  0  0  0  0  0  0  0  0  0  0
  196.4400  174.4190  137.5280 C   0  0  0  0  0  2  0  0  0  0  0  0
  193.8480  173.3900  135.8850 C   0  0  0  0  0  0  0  0  0  0  0  0
  195.2190  172.4790  137.4340 C   0  0  2  0  0  3  0  0  0  0  0  0
  194.3740  176.1430  135.7080 C   0  0  0  0  0  2  0  0  0  0  0  0
  195.2090  175.3010  135.0970 C   0  0  0  0  0  3  0  0  0  0  0  0
  190.5600  176.1340  139.6580 N   0  0  0  0  0  2  0  0  0  0  0  0
  191.0170  177.4480  140.0990 C   0  0  0  0  0  2  0  0  0  0  0  0
  191.6980  177.3290  141.4470 C   0  0  0  0  0  2  0  0  0  0  0  0
  190.8650  178.0090  142.5180 C   0  0  0  0  0  2  0  0  0  0  0  0
  187.8260  178.5470  141.2950 C   0  0  0  0  0  1  0  0  0  0  0  0
  187.9330  175.9050  143.4190 N   0  0  0  0  0  2  0  0  0  0  0  0
  190.1330  175.1690  143.0620 O   0  0  0  0  0  0  0  0  0  0  0  0
  189.5460  177.3980  142.5840 N   0  0  0  0  0  0  0  0  0  0  0  0
  189.2720  176.0860  143.0200 C   0  0  0  0  0  0  0  0  0  0  0  0
  188.3110  178.1640  142.6850 C   0  0  2  0  0  3  0  0  0  0  0  0
  187.2820  177.2060  143.3220 C   0  0  2  0  0  3  0  0  0  0  0  0
  186.9400  177.7000  144.7120 C   0  0  0  0  0  2  0  0  0  0  0  0
  188.2010  177.8570  145.5370 C   0  0  0  0  0  2  0  0  0  0  0  0
  187.9530  177.3860  146.9600 C   0  0  0  0  0  2  0  0  0  0  0  0
  189.1940  177.5870  147.8230 C   0  0  0  0  0  2  0  0  0  0  0  0
  190.4630  177.2610  147.0480 C   0  0  0  0  0  2  0  0  0  0  0  0
  190.8840  175.8240  147.2990 C   0  0  0  0  0  2  0  0  0  0  0  0
  192.3900  175.7080  147.2040 C   0  0  0  0  0  1  0  0  0  0  0  0
  188.6090  176.3040  138.2380 C   0  0  0  0  0  2  0  0  0  0  0  0
  188.2250  177.6500  137.8280 N   0  0  0  0  0  2  0  0  0  0  0  0
  183.7870  175.6900  136.6540 C   0  0  2  0  0  3  0  0  0  0  0  0
  186.6120  176.1180  136.7510 C   0  0  2  0  0  3  0  0  0  0  0  0
  184.3170  178.1330  138.0360 C   0  0  0  0  0  2  0  0  0  0  0  0
  185.1500  176.0150  136.7550 C   0  0  0  0  0  0  0  0  0  0  0  0
  184.1660  176.8730  137.3120 C   0  0  0  0  0  0  0  0  0  0  0  0
  186.8760  177.5750  137.2960 C   0  0  1  0  0  3  0  0  0  0  0  0
  185.8520  178.1600  138.3740 C   0  0  0  0  0  2  0  0  0  0  0  0
  182.2500  175.3280  138.3890 C   0  0  0  0  0  2  0  0  0  0  0  0
  183.3500  174.7120  137.6580 N   0  0  1  0  0  0  0  0  0  0  0  0
  180.9460  174.7180  137.9310 C   0  0  2  0  0  3  0  0  0  0  0  0
  181.3250  173.4390  137.2350 C   0  0  0  0  0  2  0  0  0  0  0  0
  182.8230  173.4930  137.0400 C   0  0  0  0  0  2  0  0  0  0  0  0
  180.2370  175.6730  136.9730 C   0  0  0  0  0  2  0  0  0  0  0  0
  179.8110  176.9610  137.6720 C   0  0  0  0  0  2  0  0  0  0  0  0
  180.5630  178.1580  137.1190 C   0  0  0  0  0  2  0  0  0  0  0  0
  180.8590  179.1210  138.2250 C   0  0  0  0  0  3  0  0  0  0  0  0
  179.8670  179.6430  138.9470 C   0  0  0  0  0  2  0  0  0  0  0  0
  187.3870  177.0000  134.6510 O   0  0  0  0  0  0  0  0  0  0  0  0
  187.2730  174.7110  134.7890 O   0  0  0  0  0  1  0  0  0  0  0  0
  187.1260  175.9770  135.3480 C   0  0  0  0  0  0  0  0  0  0  0  0
  2  1  1  6  0  0  0
  2 18  1  0  0  0  0
  3  2  1  0  0  0  0
  4  3  2  0  0  0  0
  6  5  1  6  0  0  0
  6  4  1  0  0  0  0
  7  6  1  0  0  0  0
  7 14  1  0  0  0  0
  8 17  1  1  0  0  0
  8 14  1  0  0  0  0
  8  9  1  0  0  0  0
  9 15  1  0  0  0  0
  9 13  1  1  0  0  0
 12 10  2  0  0  0  0
 13 10  1  0  0  0  0
 14 11  2  0  0  0  0
 15 11  1  6  0  0  0
 15 12  1  0  0  0  0
 17 16  2  0  0  0  0
 18 19  1  0  0  0  0
 19 20  1  0  0  0  0
 20 21  1  0  0  0  0
 21 25  1  0  0  0  0
 25 27  1  0  0  0  0
 25 26  1  0  0  0  0
 26 24  2  0  0  0  0
 26 23  1  0  0  0  0
 27 22  1  6  0  0  0
 27 28  1  0  0  0  0
 28 23  1  0  0  0  0
 28 29  1  1  0  0  0
 29 30  1  0  0  0  0
 30 31  1  0  0  0  0
 31 32  1  0  0  0  0
 33 34  1  0  0  0  0
 33 32  1  0  0  0  0
 35 34  1  0  0  0  0
 36  2  1  0  0  0  0
 37 36  1  0  0  0  0
 38 41  1  1  0  0  0
 38 42  1  0  0  0  0
 38 46  1  0  0  0  0
 39 57  1  6  0  0  0
 39 41  1  0  0  0  0
 39 43  1  0  0  0  0
 40 44  1  0  0  0  0
 41 42  2  0  0  0  0
 42 40  1  0  0  0  0
 43 37  1  1  0  0  0
 43 44  1  0  0  0  0
 46 49  1  6  0  0  0
 46 45  1  0  0  0  0
 47 50  1  6  0  0  0
 47 45  1  0  0  0  0
 48 47  1  0  0  0  0
 49 48  1  0  0  0  0
 50 51  1  0  0  0  0
 52 51  1  0  0  0  0
 52 53  1  0  0  0  0
 53 54  2  0  0  0  0
 55 57  2  0  0  0  0
 56 57  1  0  0  0  0
M  END
>  <MODEL>
6

>  <REMARK>
 VINA RESULT:      -5.6      2.069      3.372
  Name = 
  25 active torsions:
  status: ('A' for Active; 'I' for Inactive)
    1  A    between atoms: C_1  and  N_15
    2  A    between atoms: C_1  and  C_54
    3  A    between atoms: C_2  and  N_34
    4  A    between atoms: C_3  and  C_14
    5  A    between atoms: C_3  and  C_50
    6  A    between atoms: C_4  and  C_56
    7  A    between atoms: C_8  and  C_26
    8  A    between atoms: C_8  and  C_46
    9  A    between atoms: C_12  and  C_14
   10  A    between atoms: N_15  and  C_49
   11  A    between atoms: C_16  and  C_55
   12  A    between atoms: N_21  and  C_32
   13  A    between atoms: C_24  and  C_33
   14  A    between atoms: C_24  and  C_50
   15  A    between atoms: C_30  and  C_36
   16  A    between atoms: C_30  and  C_46
   17  A    between atoms: C_31  and  O_44
   18  A    between atoms: C_31  and  C_52
   19  A    between atoms: C_32  and  C_54
   20  A    between atoms: C_33  and  C_41
   21  A    between atoms: C_38  and  N_43
   22  A    between atoms: C_38  and  C_49
   23  A    between atoms: C_39  and  O_44
   24  A    between atoms: C_42  and  N_43
   25  A    between atoms: C_47  and  C_49
                            x       y       z     vdW  Elec       q    Type
                         _______ _______ _______ _____ _____    ______ ____

>  <TORSDO>
F 25

$$$$
=
 OpenBabel11042411253D

 57 62  0  0  1  0  0  0  0  0999 V2000
  191.4040  178.3320  140.6090 S   0  0  0  0  0  1  0  0  0  0  0  0
  190.5140  176.7340  140.5390 C   0  0  1  0  0  0  0  0  0  0  0  0
  190.9960  175.9460  139.3410 C   0  0  0  0  0  3  0  0  0  0  0  0
  192.0100  176.3690  138.5850 C   0  0  0  0  0  3  0  0  0  0  0  0
  193.5370  176.3780  136.6820 C   0  0  0  0  0  1  0  0  0  0  0  0
  192.5180  175.5510  137.4470 C   0  0  1  0  0  3  0  0  0  0  0  0
  193.1020  174.3550  137.9660 O   0  0  0  0  0  0  0  0  0  0  0  0
  195.0770  172.9190  137.2490 C   0  0  1  0  0  3  0  0  0  0  0  0
  196.5200  173.3040  137.3660 C   0  0  1  0  0  3  0  0  0  0  0  0
  198.0050  174.8880  136.8330 C   0  0  0  0  0  3  0  0  0  0  0  0
  195.3400  174.8280  138.5990 N   0  0  0  0  0  0  0  0  0  0  0  0
  197.6590  175.1880  138.0380 N   0  0  0  0  0  0  0  0  0  0  0  0
  197.2640  173.7310  136.3490 C   0  0  0  0  0  2  0  0  0  0  0  0
  194.4790  174.0960  137.9580 C   0  0  0  0  0  0  0  0  0  0  0  0
  196.6670  174.2320  138.5080 C   0  0  2  0  0  3  0  0  0  0  0  0
  193.4270  172.2680  135.5280 C   0  0  0  0  0  2  0  0  0  0  0  0
  194.5920  172.8450  135.8250 C   0  0  0  0  0  3  0  0  0  0  0  0
  190.7060  175.9790  141.7870 N   0  0  0  0  0  2  0  0  0  0  0  0
  191.8380  176.4710  142.5670 C   0  0  0  0  0  2  0  0  0  0  0  0
  191.8240  175.8400  143.9440 C   0  0  0  0  0  2  0  0  0  0  0  0
  190.4010  175.7320  144.4590 C   0  0  0  0  0  2  0  0  0  0  0  0
  191.2940  176.7450  147.4920 C   0  0  0  0  0  1  0  0  0  0  0  0
  188.9410  178.7420  146.0850 N   0  0  0  0  0  2  0  0  0  0  0  0
  189.4860  178.4960  143.8150 O   0  0  0  0  0  0  0  0  0  0  0  0
  190.1130  176.8360  145.3610 N   0  0  0  0  0  0  0  0  0  0  0  0
  189.5160  178.0590  144.9940 C   0  0  0  0  0  0  0  0  0  0  0  0
  189.9420  176.6740  146.7990 C   0  0  2  0  0  3  0  0  0  0  0  0
  189.0900  177.8800  147.2510 C   0  0  2  0  0  3  0  0  0  0  0  0
  187.7260  177.3870  147.6870 C   0  0  0  0  0  2  0  0  0  0  0  0
  186.7190  177.5790  146.5710 C   0  0  0  0  0  2  0  0  0  0  0  0
  185.6950  178.6280  146.9710 C   0  0  0  0  0  2  0  0  0  0  0  0
  184.6850  178.8550  145.8520 C   0  0  0  0  0  2  0  0  0  0  0  0
  185.3060  178.5950  144.4870 C   0  0  0  0  0  2  0  0  0  0  0  0
  184.2260  178.4740  143.4270 C   0  0  0  0  0  2  0  0  0  0  0  0
  182.9150  179.0030  143.9680 C   0  0  0  0  0  1  0  0  0  0  0  0
  189.0110  176.9980  140.3950 C   0  0  0  0  0  2  0  0  0  0  0  0
  188.6990  178.4160  140.5420 N   0  0  0  0  0  2  0  0  0  0  0  0
  185.1800  177.6680  137.0820 C   0  0  2  0  0  3  0  0  0  0  0  0
  187.7440  177.8410  138.3360 C   0  0  2  0  0  3  0  0  0  0  0  0
  184.8820  178.8650  139.6580 C   0  0  0  0  0  2  0  0  0  0  0  0
  186.3830  177.8190  137.7940 C   0  0  0  0  0  0  0  0  0  0  0  0
  185.1550  178.2490  138.3610 C   0  0  0  0  0  0  0  0  0  0  0  0
  187.6000  178.7160  139.6420 C   0  0  1  0  0  3  0  0  0  0  0  0
  186.2230  178.6280  140.4460 C   0  0  0  0  0  2  0  0  0  0  0  0
  183.4740  176.3910  138.0630 C   0  0  0  0  0  2  0  0  0  0  0  0
  184.6230  176.3130  137.1680 N   0  0  1  0  0  0  0  0  0  0  0  0
  182.2040  176.3400  137.2470 C   0  0  2  0  0  3  0  0  0  0  0  0
  182.6130  175.8010  135.9020 C   0  0  0  0  0  2  0  0  0  0  0  0
  184.1250  175.8440  135.8730 C   0  0  0  0  0  2  0  0  0  0  0  0
  181.6160  177.7440  137.1170 C   0  0  0  0  0  2  0  0  0  0  0  0
  180.5730  178.0200  138.1960 C   0  0  0  0  0  2  0  0  0  0  0  0
  181.1880  178.7470  139.3780 C   0  0  0  0  0  2  0  0  0  0  0  0
  180.1200  179.4830  140.1260 C   0  0  0  0  0  3  0  0  0  0  0  0
  180.2760  179.7620  141.4200 C   0  0  0  0  0  2  0  0  0  0  0  0
  188.6690  179.7590  137.2170 O   0  0  0  0  0  1  0  0  0  0  0  0
  189.5010  177.7230  136.5580 O   0  0  0  0  0  0  0  0  0  0  0  0
  188.6680  178.5010  137.3550 C   0  0  0  0  0  0  0  0  0  0  0  0
  2  1  1  1  0  0  0
  2 18  1  0  0  0  0
  3  2  1  0  0  0  0
  4  3  2  0  0  0  0
  6  5  1  1  0  0  0
  6  7  1  0  0  0  0
  6  4  1  0  0  0  0
  8 17  1  6  0  0  0
  8  9  1  0  0  0  0
  8 14  1  0  0  0  0
  9 13  1  6  0  0  0
  9 15  1  0  0  0  0
 10 12  2  0  0  0  0
 13 10  1  0  0  0  0
 14  7  1  0  0  0  0
 14 11  2  0  0  0  0
 15 12  1  6  0  0  0
 15 11  1  0  0  0  0
 16 17  2  0  0  0  0
 18 19  1  0  0  0  0
 19 20  1  0  0  0  0
 20 21  1  0  0  0  0
 21 25  1  0  0  0  0
 23 28  1  0  0  0  0
 24 26  2  0  0  0  0
 25 27  1  0  0  0  0
 26 25  1  0  0  0  0
 26 23  1  0  0  0  0
 27 28  1  0  0  0  0
 27 22  1  1  0  0  0
 28 29  1  6  0  0  0
 30 31  1  0  0  0  0
 30 29  1  0  0  0  0
 32 31  1  0  0  0  0
 33 32  1  0  0  0  0
 34 35  1  0  0  0  0
 34 33  1  0  0  0  0
 36  2  1  0  0  0  0
 36 37  1  0  0  0  0
 38 46  1  0  0  0  0
 38 41  1  1  0  0  0
 38 42  1  0  0  0  0
 39 57  1  6  0  0  0
 39 43  1  0  0  0  0
 40 44  1  0  0  0  0
 41 39  1  0  0  0  0
 41 42  2  0  0  0  0
 42 40  1  0  0  0  0
 43 44  1  0  0  0  0
 43 37  1  1  0  0  0
 46 49  1  6  0  0  0
 46 45  1  0  0  0  0
 47 50  1  6  0  0  0
 47 45  1  0  0  0  0
 48 47  1  0  0  0  0
 49 48  1  0  0  0  0
 50 51  1  0  0  0  0
 51 52  1  0  0  0  0
 52 53  1  0  0  0  0
 53 54  2  0  0  0  0
 55 57  1  0  0  0  0
 56 57  2  0  0  0  0
M  END
>  <MODEL>
7

>  <REMARK>
 VINA RESULT:      -5.6      2.430      3.578
  Name = 
  25 active torsions:
  status: ('A' for Active; 'I' for Inactive)
    1  A    between atoms: C_1  and  N_15
    2  A    between atoms: C_1  and  C_54
    3  A    between atoms: C_2  and  N_34
    4  A    between atoms: C_3  and  C_14
    5  A    between atoms: C_3  and  C_50
    6  A    between atoms: C_4  and  C_56
    7  A    between atoms: C_8  and  C_26
    8  A    between atoms: C_8  and  C_46
    9  A    between atoms: C_12  and  C_14
   10  A    between atoms: N_15  and  C_49
   11  A    between atoms: C_16  and  C_55
   12  A    between atoms: N_21  and  C_32
   13  A    between atoms: C_24  and  C_33
   14  A    between atoms: C_24  and  C_50
   15  A    between atoms: C_30  and  C_36
   16  A    between atoms: C_30  and  C_46
   17  A    between atoms: C_31  and  O_44
   18  A    between atoms: C_31  and  C_52
   19  A    between atoms: C_32  and  C_54
   20  A    between atoms: C_33  and  C_41
   21  A    between atoms: C_38  and  N_43
   22  A    between atoms: C_38  and  C_49
   23  A    between atoms: C_39  and  O_44
   24  A    between atoms: C_42  and  N_43
   25  A    between atoms: C_47  and  C_49
                            x       y       z     vdW  Elec       q    Type
                         _______ _______ _______ _____ _____    ______ ____

>  <TORSDO>
F 25

$$$$
=
 OpenBabel11042411253D

 57 62  0  0  1  0  0  0  0  0999 V2000
  183.4520  177.3390  140.1410 S   0  0  0  0  0  1  0  0  0  0  0  0
  184.0660  178.9310  139.4790 C   0  0  1  0  0  0  0  0  0  0  0  0
  182.8930  179.8510  139.2240 C   0  0  0  0  0  3  0  0  0  0  0  0
  181.6710  179.5750  139.6840 C   0  0  0  0  0  3  0  0  0  0  0  0
  181.0510  181.7180  138.6960 C   0  0  0  0  0  1  0  0  0  0  0  0
  180.5390  180.5220  139.4820 C   0  0  1  0  0  3  0  0  0  0  0  0
  179.4930  179.8470  138.7810 O   0  0  0  0  0  0  0  0  0  0  0  0
  179.8010  178.4180  136.6980 C   0  0  1  0  0  3  0  0  0  0  0  0
  180.1740  176.9660  136.6860 C   0  0  1  0  0  3  0  0  0  0  0  0
  181.6900  175.4950  137.4200 C   0  0  0  0  0  3  0  0  0  0  0  0
  179.6270  177.4780  138.8480 N   0  0  0  0  0  0  0  0  0  0  0  0
  180.7380  175.4120  138.2860 N   0  0  0  0  0  0  0  0  0  0  0  0
  181.3950  176.5110  136.4180 C   0  0  0  0  0  2  0  0  0  0  0  0
  179.6480  178.5910  138.1790 C   0  0  0  0  0  0  0  0  0  0  0  0
  179.6790  176.3440  137.9340 C   0  0  2  0  0  3  0  0  0  0  0  0
  180.5830  180.3540  135.3770 C   0  0  0  0  0  2  0  0  0  0  0  0
  180.8830  179.3160  136.1600 C   0  0  0  0  0  3  0  0  0  0  0  0
  185.0300  179.5410  140.4080 N   0  0  0  0  0  2  0  0  0  0  0  0
  186.1090  178.6260  140.7710 C   0  0  0  0  0  2  0  0  0  0  0  0
  186.6570  178.9950  142.1350 C   0  0  0  0  0  2  0  0  0  0  0  0
  185.7060  178.5370  143.2250 C   0  0  0  0  0  2  0  0  0  0  0  0
  185.4530  177.8700  146.4670 C   0  0  0  0  0  1  0  0  0  0  0  0
  188.2630  176.5720  145.0790 N   0  0  0  0  0  2  0  0  0  0  0  0
  187.5080  176.1840  142.8910 O   0  0  0  0  0  0  0  0  0  0  0  0
  186.4350  177.7890  144.2380 N   0  0  0  0  0  0  0  0  0  0  0  0
  187.4050  176.7980  143.9840 C   0  0  0  0  0  0  0  0  0  0  0  0
  186.6370  178.2670  145.5990 C   0  0  2  0  0  3  0  0  0  0  0  0
  187.8950  177.5340  146.1110 C   0  0  2  0  0  3  0  0  0  0  0  0
  189.0170  178.5370  146.2830 C   0  0  0  0  0  2  0  0  0  0  0  0
  190.2990  177.9970  145.6810 C   0  0  0  0  0  2  0  0  0  0  0  0
  190.5710  178.6720  144.3470 C   0  0  0  0  0  2  0  0  0  0  0  0
  191.6900  177.9610  143.5970 C   0  0  0  0  0  2  0  0  0  0  0  0
  191.1400  176.8730  142.6860 C   0  0  0  0  0  2  0  0  0  0  0  0
  191.1940  177.3170  141.2350 C   0  0  0  0  0  2  0  0  0  0  0  0
  189.8050  177.2790  140.6350 C   0  0  0  0  0  1  0  0  0  0  0  0
  184.8050  178.6800  138.1590 C   0  0  0  0  0  2  0  0  0  0  0  0
  185.4230  177.3580  138.1340 N   0  0  0  0  0  2  0  0  0  0  0  0
  188.6330  175.7560  134.6630 C   0  0  2  0  0  3  0  0  0  0  0  0
  187.5910  177.0570  136.9860 C   0  0  2  0  0  3  0  0  0  0  0  0
  185.7800  175.6160  134.6140 C   0  0  0  0  0  2  0  0  0  0  0  0
  188.0030  176.3770  135.7550 C   0  0  0  0  0  0  0  0  0  0  0  0
  187.2300  175.7520  134.7430 C   0  0  0  0  0  0  0  0  0  0  0  0
  186.0260  177.1850  136.8250 C   0  0  1  0  0  3  0  0  0  0  0  0
  185.2640  176.0180  136.0440 C   0  0  0  0  0  2  0  0  0  0  0  0
  190.5830  174.4840  134.9510 C   0  0  0  0  0  2  0  0  0  0  0  0
  189.1270  174.4080  134.9710 N   0  0  1  0  0  0  0  0  0  0  0  0
  191.1000  174.4730  136.3710 C   0  0  2  0  0  3  0  0  0  0  0  0
  189.9600  173.9590  137.2080 C   0  0  0  0  0  2  0  0  0  0  0  0
  188.7390  173.9780  136.3160 C   0  0  0  0  0  2  0  0  0  0  0  0
  191.4910  175.8890  136.7890 C   0  0  0  0  0  2  0  0  0  0  0  0
  192.8600  175.9210  137.4630 C   0  0  0  0  0  2  0  0  0  0  0  0
  193.4270  174.5210  137.6140 C   0  0  0  0  0  2  0  0  0  0  0  0
  194.8140  174.5980  138.1720 C   0  0  0  0  0  3  0  0  0  0  0  0
  195.4320  173.4950  138.5930 C   0  0  0  0  0  2  0  0  0  0  0  0
  189.4460  178.5410  137.3690 O   0  0  0  0  0  1  0  0  0  0  0  0
  187.4630  179.5510  136.8040 O   0  0  0  0  0  0  0  0  0  0  0  0
  188.2280  178.4150  137.0510 C   0  0  0  0  0  0  0  0  0  0  0  0
  2  1  1  1  0  0  0
  2 18  1  0  0  0  0
  3  2  1  0  0  0  0
  3  4  2  0  0  0  0
  6  5  1  6  0  0  0
  6  4  1  0  0  0  0
  7  6  1  0  0  0  0
  8 17  1  1  0  0  0
  8 14  1  0  0  0  0
  9 13  1  1  0  0  0
  9  8  1  0  0  0  0
  9 15  1  0  0  0  0
 10 12  2  0  0  0  0
 13 10  1  0  0  0  0
 14  7  1  0  0  0  0
 14 11  2  0  0  0  0
 15 12  1  1  0  0  0
 15 11  1  0  0  0  0
 16 17  2  0  0  0  0
 18 19  1  0  0  0  0
 19 20  1  0  0  0  0
 20 21  1  0  0  0  0
 21 25  1  0  0  0  0
 23 28  1  0  0  0  0
 24 26  2  0  0  0  0
 25 27  1  0  0  0  0
 26 25  1  0  0  0  0
 26 23  1  0  0  0  0
 27 28  1  0  0  0  0
 27 22  1  1  0  0  0
 28 29  1  6  0  0  0
 30 29  1  0  0  0  0
 31 30  1  0  0  0  0
 32 31  1  0  0  0  0
 33 32  1  0  0  0  0
 34 33  1  0  0  0  0
 35 34  1  0  0  0  0
 36  2  1  0  0  0  0
 37 36  1  0  0  0  0
 38 42  1  6  0  0  0
 38 46  1  0  0  0  0
 38 41  1  0  0  0  0
 39 57  1  6  0  0  0
 40 42  1  0  0  0  0
 40 44  1  0  0  0  0
 41 39  1  0  0  0  0
 42 41  2  0  0  0  0
 43 39  1  0  0  0  0
 43 37  1  1  0  0  0
 44 43  1  0  0  0  0
 45 47  1  0  0  0  0
 46 45  1  1  0  0  0
 46 49  1  0  0  0  0
 47 50  1  1  0  0  0
 47 48  1  0  0  0  0
 49 48  1  0  0  0  0
 50 51  1  0  0  0  0
 51 52  1  0  0  0  0
 52 53  1  0  0  0  0
 53 54  2  0  0  0  0
 56 57  2  0  0  0  0
 57 55  1  0  0  0  0
M  END
>  <MODEL>
8

>  <REMARK>
 VINA RESULT:      -5.5      2.497      9.694
  Name = 
  25 active torsions:
  status: ('A' for Active; 'I' for Inactive)
    1  A    between atoms: C_1  and  N_15
    2  A    between atoms: C_1  and  C_54
    3  A    between atoms: C_2  and  N_34
    4  A    between atoms: C_3  and  C_14
    5  A    between atoms: C_3  and  C_50
    6  A    between atoms: C_4  and  C_56
    7  A    between atoms: C_8  and  C_26
    8  A    between atoms: C_8  and  C_46
    9  A    between atoms: C_12  and  C_14
   10  A    between atoms: N_15  and  C_49
   11  A    between atoms: C_16  and  C_55
   12  A    between atoms: N_21  and  C_32
   13  A    between atoms: C_24  and  C_33
   14  A    between atoms: C_24  and  C_50
   15  A    between atoms: C_30  and  C_36
   16  A    between atoms: C_30  and  C_46
   17  A    between atoms: C_31  and  O_44
   18  A    between atoms: C_31  and  C_52
   19  A    between atoms: C_32  and  C_54
   20  A    between atoms: C_33  and  C_41
   21  A    between atoms: C_38  and  N_43
   22  A    between atoms: C_38  and  C_49
   23  A    between atoms: C_39  and  O_44
   24  A    between atoms: C_42  and  N_43
   25  A    between atoms: C_47  and  C_49
                            x       y       z     vdW  Elec       q    Type
                         _______ _______ _______ _____ _____    ______ ____

>  <TORSDO>
F 25

$$$$
=
 OpenBabel11042411253D

 57 62  0  0  1  0  0  0  0  0999 V2000
  192.9410  176.6630  137.1750 S   0  0  0  0  0  1  0  0  0  0  0  0
  191.5020  175.5910  137.5360 C   0  0  1  0  0  0  0  0  0  0  0  0
  191.8660  174.1520  137.2440 C   0  0  0  0  0  3  0  0  0  0  0  0
  192.7670  173.8310  136.3140 C   0  0  0  0  0  3  0  0  0  0  0  0
  193.3990  172.2200  134.5940 C   0  0  0  0  0  1  0  0  0  0  0  0
  193.1650  172.4130  136.0830 C   0  0  1  0  0  3  0  0  0  0  0  0
  194.3470  172.1390  136.8360 O   0  0  0  0  0  0  0  0  0  0  0  0
  196.7300  172.6340  137.5830 C   0  0  1  0  0  3  0  0  0  0  0  0
  197.5800  173.7640  137.0850 C   0  0  1  0  0  3  0  0  0  0  0  0
  198.3990  174.7150  135.2340 C   0  0  0  0  0  3  0  0  0  0  0  0
  195.4520  174.1840  136.3580 N   0  0  0  0  0  0  0  0  0  0  0  0
  197.3430  175.4080  135.4930 N   0  0  0  0  0  0  0  0  0  0  0  0
  198.5550  173.6260  136.1890 C   0  0  0  0  0  2  0  0  0  0  0  0
  195.4550  172.9950  136.8810 C   0  0  0  0  0  0  0  0  0  0  0  0
  196.6930  174.8760  136.6810 C   0  0  2  0  0  3  0  0  0  0  0  0
  196.8530  170.7670  135.9700 C   0  0  0  0  0  2  0  0  0  0  0  0
  197.2200  171.2800  137.1450 C   0  0  0  0  0  3  0  0  0  0  0  0
  191.0670  175.7590  138.9300 N   0  0  0  0  0  2  0  0  0  0  0  0
  192.0680  176.4380  139.7480 C   0  0  0  0  0  2  0  0  0  0  0  0
  191.4780  177.7040  140.3360 C   0  0  0  0  0  2  0  0  0  0  0  0
  191.2410  177.5310  141.8250 C   0  0  0  0  0  2  0  0  0  0  0  0
  188.2030  178.2720  140.7090 C   0  0  0  0  0  1  0  0  0  0  0  0
  188.1550  175.9900  143.2180 N   0  0  0  0  0  2  0  0  0  0  0  0
  190.2160  174.9270  142.8570 O   0  0  0  0  0  0  0  0  0  0  0  0
  189.8670  177.1150  142.0640 N   0  0  0  0  0  0  0  0  0  0  0  0
  189.4720  175.9320  142.7190 C   0  0  0  0  0  0  0  0  0  0  0  0
  188.7450  178.0430  142.1120 C   0  0  2  0  0  3  0  0  0  0  0  0
  187.6600  177.3360  142.9520 C   0  0  2  0  0  3  0  0  0  0  0  0
  187.4900  178.0740  144.2630 C   0  0  0  0  0  2  0  0  0  0  0  0
  186.2850  177.5420  145.0120 C   0  0  0  0  0  2  0  0  0  0  0  0
  186.2310  178.1450  146.4050 C   0  0  0  0  0  2  0  0  0  0  0  0
  187.6340  178.4360  146.9260 C   0  0  0  0  0  2  0  0  0  0  0  0
  187.9900  177.5240  148.0910 C   0  0  0  0  0  2  0  0  0  0  0  0
  189.1440  176.6110  147.7170 C   0  0  0  0  0  2  0  0  0  0  0  0
  189.9200  177.2110  146.5660 C   0  0  0  0  0  1  0  0  0  0  0  0
  190.3270  176.0030  136.6410 C   0  0  0  0  0  2  0  0  0  0  0  0
  189.0720  175.4190  137.1000 N   0  0  0  0  0  2  0  0  0  0  0  0
  185.0420  178.3120  137.6560 C   0  0  2  0  0  3  0  0  0  0  0  0
  186.7190  175.9970  137.5900 C   0  0  2  0  0  3  0  0  0  0  0  0
  187.5650  179.0160  136.5180 C   0  0  0  0  0  2  0  0  0  0  0  0
  185.9520  177.2450  137.5590 C   0  0  0  0  0  0  0  0  0  0  0  0
  186.3160  178.5410  137.1080 C   0  0  0  0  0  0  0  0  0  0  0  0
  188.0070  176.3400  136.7450 C   0  0  1  0  0  3  0  0  0  0  0  0
  188.5620  177.8370  136.8150 C   0  0  0  0  0  2  0  0  0  0  0  0
  183.7790  179.7180  139.0450 C   0  0  0  0  0  2  0  0  0  0  0  0
  184.9900  178.9080  138.9960 N   0  0  1  0  0  0  0  0  0  0  0  0
  182.7280  178.9940  139.8540 C   0  0  2  0  0  3  0  0  0  0  0  0
  183.4760  177.9480  140.6360 C   0  0  0  0  0  2  0  0  0  0  0  0
  184.8660  177.8900  140.0420 C   0  0  0  0  0  2  0  0  0  0  0  0
  181.7080  178.3500  138.9170 C   0  0  0  0  0  2  0  0  0  0  0  0
  180.9220  177.2430  139.6140 C   0  0  0  0  0  2  0  0  0  0  0  0
  180.2920  176.3010  138.6040 C   0  0  0  0  0  2  0  0  0  0  0  0
  181.2060  175.1390  138.3630 C   0  0  0  0  0  3  0  0  0  0  0  0
  182.4780  175.3440  138.0210 C   0  0  0  0  0  2  0  0  0  0  0  0
  185.4910  175.0450  135.7530 O   0  0  0  0  0  0  0  0  0  0  0  0
  185.6410  173.7390  137.6360 O   0  0  0  0  0  1  0  0  0  0  0  0
  185.9310  174.9030  136.9310 C   0  0  0  0  0  0  0  0  0  0  0  0
  2  1  1  6  0  0  0
  2 18  1  0  0  0  0
  3  2  1  0  0  0  0
  4  3  2  0  0  0  0
  6  5  1  6  0  0  0
  6  4  1  0  0  0  0
  6  7  1  0  0  0  0
  7 14  1  0  0  0  0
  8 17  1  6  0  0  0
  9 13  1  6  0  0  0
  9  8  1  0  0  0  0
 10 12  2  0  0  0  0
 10 13  1  0  0  0  0
 11 15  1  0  0  0  0
 11 14  2  0  0  0  0
 14  8  1  0  0  0  0
 15 12  1  6  0  0  0
 15  9  1  0  0  0  0
 16 17  2  0  0  0  0
 18 19  1  0  0  0  0
 19 20  1  0  0  0  0
 20 21  1  0  0  0  0
 21 25  1  0  0  0  0
 25 27  1  0  0  0  0
 25 26  1  0  0  0  0
 26 24  2  0  0  0  0
 26 23  1  0  0  0  0
 27 22  1  6  0  0  0
 27 28  1  0  0  0  0
 28 23  1  0  0  0  0
 28 29  1  1  0  0  0
 29 30  1  0  0  0  0
 30 31  1  0  0  0  0
 31 32  1  0  0  0  0
 32 33  1  0  0  0  0
 34 33  1  0  0  0  0
 35 34  1  0  0  0  0
 36 37  1  0  0  0  0
 36  2  1  0  0  0  0
 38 42  1  6  0  0  0
 38 46  1  0  0  0  0
 39 57  1  6  0  0  0
 40 44  1  0  0  0  0
 40 42  1  0  0  0  0
 41 39  1  0  0  0  0
 41 38  1  0  0  0  0
 42 41  2  0  0  0  0
 43 44  1  0  0  0  0
 43 37  1  1  0  0  0
 43 39  1  0  0  0  0
 45 47  1  0  0  0  0
 46 45  1  6  0  0  0
 46 49  1  0  0  0  0
 47 50  1  6  0  0  0
 47 48  1  0  0  0  0
 49 48  1  0  0  0  0
 50 51  1  0  0  0  0
 52 51  1  0  0  0  0
 53 52  1  0  0  0  0
 54 53  2  0  0  0  0
 55 57  2  0  0  0  0
 57 56  1  0  0  0  0
M  END
>  <MODEL>
9

>  <REMARK>
 VINA RESULT:      -5.4      2.635      4.053
  Name = 
  25 active torsions:
  status: ('A' for Active; 'I' for Inactive)
    1  A    between atoms: C_1  and  N_15
    2  A    between atoms: C_1  and  C_54
    3  A    between atoms: C_2  and  N_34
    4  A    between atoms: C_3  and  C_14
    5  A    between atoms: C_3  and  C_50
    6  A    between atoms: C_4  and  C_56
    7  A    between atoms: C_8  and  C_26
    8  A    between atoms: C_8  and  C_46
    9  A    between atoms: C_12  and  C_14
   10  A    between atoms: N_15  and  C_49
   11  A    between atoms: C_16  and  C_55
   12  A    between atoms: N_21  and  C_32
   13  A    between atoms: C_24  and  C_33
   14  A    between atoms: C_24  and  C_50
   15  A    between atoms: C_30  and  C_36
   16  A    between atoms: C_30  and  C_46
   17  A    between atoms: C_31  and  O_44
   18  A    between atoms: C_31  and  C_52
   19  A    between atoms: C_32  and  C_54
   20  A    between atoms: C_33  and  C_41
   21  A    between atoms: C_38  and  N_43
   22  A    between atoms: C_38  and  C_49
   23  A    between atoms: C_39  and  O_44
   24  A    between atoms: C_42  and  N_43
   25  A    between atoms: C_47  and  C_49
                            x       y       z     vdW  Elec       q    Type
                         _______ _______ _______ _____ _____    ______ ____

>  <TORSDO>
F 25

$$$$
