=
 OpenBabel11032421103D

 50 55  0  0  1  0  0  0  0  0999 V2000
  189.3670  177.8010  139.2310 N   0  0  0  0  0  0  0  0  0  0  0  0
  190.7070  176.4290  140.5920 N   0  0  0  0  0  2  0  0  0  0  0  0
  190.1640  176.7700  139.3100 C   0  0  0  0  0  0  0  0  0  0  0  0
  190.0040  174.0690  136.6300 C   0  0  0  0  0  0  0  0  0  0  0  0
  190.5660  175.9280  138.1490 C   0  0  0  0  0  0  0  0  0  0  0  0
  191.8550  176.2170  137.3390 C   0  0  2  0  0  3  0  0  0  0  0  0
  191.9670  174.9980  136.7850 C   0  0  0  0  0  0  0  0  0  0  0  0
  192.9800  175.4880  137.6160 N   0  0  0  0  0  0  0  0  0  0  0  0
  191.2250  173.9910  136.1570 N   0  0  0  0  0  0  0  0  0  0  0  0
  189.7040  174.9980  137.7360 N   0  0  0  0  0  0  0  0  0  0  0  0
  185.9480  172.4310  135.9440 C   0  0  0  0  0  1  0  0  0  0  0  0
  187.9250  173.7510  135.4070 N   0  0  0  0  0  2  0  0  0  0  0  0
  188.0110  172.7190  137.2970 C   0  0  0  0  0  2  0  0  0  0  0  0
  186.9680  173.4290  136.4610 C   0  0  2  0  0  3  0  0  0  0  0  0
  188.9690  173.0790  136.1770 C   0  0  2  0  0  3  0  0  0  0  0  0
  191.5760  178.6300  143.5940 C   0  0  0  0  0  2  0  0  0  0  0  0
  189.6330  176.4460  142.8190 C   0  0  1  0  0  3  0  0  0  0  0  0
  190.1820  178.5250  144.2210 C   0  0  0  0  0  2  0  0  0  0  0  0
  190.4710  177.2260  141.7910 C   0  0  1  0  0  3  0  0  0  0  0  0
  191.7970  177.6850  142.4040 C   0  0  0  0  0  2  0  0  0  0  0  0
  190.0610  175.1190  142.9070 O   0  0  0  0  0  1  0  0  0  0  0  0
  189.6800  177.0770  144.2200 C   0  0  1  0  0  3  0  0  0  0  0  0
  188.3550  176.9260  144.9620 C   0  0  0  0  0  2  0  0  0  0  0  0
  188.1490  177.9660  146.0680 C   0  0  2  0  0  3  0  0  0  0  0  0
  187.8750  176.5000  148.3670 O   0  0  0  0  0  1  0  0  0  0  0  0
  188.8610  177.3890  147.6450 P   0  0  0  0  0  0  0  0  0  0  0  0
  189.2330  178.7170  148.6230 O   0  0  0  0  0  1  0  0  0  0  0  0
  190.2730  176.5140  147.3270 O   0  0  0  0  0  0  0  0  0  0  0  0
  186.7510  178.3840  146.2230 N   0  0  0  0  0  2  0  0  0  0  0  0
  185.9410  177.9670  145.0810 C   0  0  0  0  0  2  0  0  0  0  0  0
  183.9540  179.0090  145.8660 O   0  0  0  0  0  1  0  0  0  0  0  0
  184.8550  178.9940  144.8040 C   0  0  2  0  0  3  0  0  0  0  0  0
  184.1150  178.6480  143.5240 C   0  0  0  0  0  1  0  0  0  0  0  0
  188.7280  178.3530  138.0450 C   0  0  1  0  0  3  0  0  0  0  0  0
  189.5200  178.0990  136.9220 O   0  0  0  0  0  0  0  0  0  0  0  0
  188.6150  177.8930  135.8800 C   0  0  0  0  0  1  0  0  0  0  0  0
  187.3350  177.7460  137.8700 C   0  0  0  0  0  2  0  0  0  0  0  0
  186.3470  178.1950  138.9460 C   0  0  0  0  0  2  0  0  0  0  0  0
  181.7570  176.6200  138.7310 C   0  0  0  0  0  2  0  0  0  0  0  0
  180.8170  177.0330  139.8480 C   0  0  0  0  0  2  0  0  0  0  0  0
  181.7800  179.2570  139.9400 O   0  0  0  0  0  0  0  0  0  0  0  0
  182.7140  178.9610  138.9160 C   0  0  2  0  0  3  0  0  0  0  0  0
  182.2170  177.8530  137.9570 C   0  0  1  0  0  3  0  0  0  0  0  0
  185.0470  178.4610  138.3560 N   0  0  0  0  0  0  0  0  0  0  0  0
  183.3020  177.4740  136.9470 C   0  0  0  0  0  2  0  0  0  0  0  0
  184.6410  177.2430  137.6540 C   0  0  0  0  0  2  0  0  0  0  0  0
  184.1180  178.6740  139.4640 C   0  0  0  0  0  2  0  0  0  0  0  0
  181.5160  178.0930  140.6990 C   0  0  1  0  0  3  0  0  0  0  0  0
  179.5730  177.5920  142.0150 O   0  0  0  0  0  1  0  0  0  0  0  0
  180.6750  178.4430  141.9160 C   0  0  0  0  0  2  0  0  0  0  0  0
  1  3  2  0  0  0  0
  3  2  1  0  0  0  0
  4 10  1  0  0  0  0
  5  3  1  0  0  0  0
  6  7  1  6  0  0  0
  6  8  1  0  0  0  0
  6  5  1  0  0  0  0
  7  8  2  0  0  0  0
  9  4  2  0  0  0  0
  9  7  1  0  0  0  0
 10  5  2  0  0  0  0
 12 15  1  0  0  0  0
 12 14  1  0  0  0  0
 14 11  1  6  0  0  0
 14 13  1  0  0  0  0
 15  4  1  1  0  0  0
 15 13  1  0  0  0  0
 16 18  1  0  0  0  0
 17 21  1  1  0  0  0
 17 22  1  0  0  0  0
 19  2  1  6  0  0  0
 19 20  1  0  0  0  0
 19 17  1  0  0  0  0
 20 16  1  0  0  0  0
 22 18  1  0  0  0  0
 22 23  1  6  0  0  0
 24 23  1  6  0  0  0
 24 29  1  0  0  0  0
 24 26  1  0  0  0  0
 26 25  1  0  0  0  0
 26 27  1  0  0  0  0
 28 26  2  0  0  0  0
 30 29  1  0  0  0  0
 32 33  1  6  0  0  0
 32 30  1  0  0  0  0
 32 31  1  0  0  0  0
 34 37  1  6  0  0  0
 34  1  1  0  0  0  0
 35 34  1  0  0  0  0
 36 35  1  0  0  0  0
 37 38  1  0  0  0  0
 39 40  1  0  0  0  0
 40 48  1  0  0  0  0
 41 48  1  0  0  0  0
 42 47  1  1  0  0  0
 42 41  1  0  0  0  0
 43 45  1  6  0  0  0
 43 39  1  0  0  0  0
 43 42  1  0  0  0  0
 44 38  1  0  0  0  0
 44 47  1  0  0  0  0
 45 46  1  0  0  0  0
 46 44  1  0  0  0  0
 48 50  1  1  0  0  0
 50 49  1  0  0  0  0
M  END
>  <MODEL>
1

>  <REMARK>
 VINA RESULT:      -8.3      0.000      0.000
  Name = 
  15 active torsions:
  status: ('A' for Active; 'I' for Inactive)
    1  A    between atoms: C_1  and  C_49
    2  A    between atoms: N_4  and  C_33
    3  A    between atoms: C_6  and  C_35
    4  A    between atoms: C_7  and  N_24
    5  A    between atoms: C_7  and  C_42
    6  A    between atoms: C_10  and  C_16
    7  A    between atoms: C_10  and  C_44
    8  A    between atoms: O_15  and  C_33
    9  A    between atoms: C_16  and  P_23
   10  A    between atoms: C_16  and  N_50
   11  A    between atoms: C_21  and  N_27
   12  A    between atoms: C_33  and  C_42
   13  A    between atoms: C_34  and  C_48
   14  A    between atoms: C_36  and  C_38
   15  A    between atoms: C_38  and  N_50
                            x       y       z     vdW  Elec       q    Type
                         _______ _______ _______ _____ _____    ______ ____

>  <TORSDO>
F 15

$$$$
=
 OpenBabel11032421103D

 50 55  0  0  1  0  0  0  0  0999 V2000
  189.2620  177.9460  139.2160 N   0  0  0  0  0  0  0  0  0  0  0  0
  190.5500  176.4530  140.4970 N   0  0  0  0  0  2  0  0  0  0  0  0
  190.0010  176.8710  139.2400 C   0  0  0  0  0  0  0  0  0  0  0  0
  191.8890  175.6200  136.1790 C   0  0  0  0  0  0  0  0  0  0  0  0
  190.3320  176.0520  138.0410 C   0  0  0  0  0  0  0  0  0  0  0  0
  189.4810  174.8220  137.6310 C   0  0  2  0  0  3  0  0  0  0  0  0
  189.8940  174.7680  136.3540 C   0  0  0  0  0  0  0  0  0  0  0  0
  188.5420  174.9750  136.6480 N   0  0  0  0  0  0  0  0  0  0  0  0
  191.0380  174.8430  135.5520 N   0  0  0  0  0  0  0  0  0  0  0  0
  191.4720  176.3240  137.4060 N   0  0  0  0  0  0  0  0  0  0  0  0
  196.2720  175.4500  135.5720 C   0  0  0  0  0  1  0  0  0  0  0  0
  193.9660  174.7090  135.2990 N   0  0  0  0  0  2  0  0  0  0  0  0
  194.2180  176.4390  136.5590 C   0  0  0  0  0  2  0  0  0  0  0  0
  194.9590  175.1510  136.2730 C   0  0  2  0  0  3  0  0  0  0  0  0
  193.2120  175.9370  135.5410 C   0  0  2  0  0  3  0  0  0  0  0  0
  191.5880  178.5880  143.4930 C   0  0  0  0  0  2  0  0  0  0  0  0
  189.6210  176.4010  142.7880 C   0  0  1  0  0  3  0  0  0  0  0  0
  190.2380  178.4510  144.2050 C   0  0  0  0  0  2  0  0  0  0  0  0
  190.3840  177.2170  141.7290 C   0  0  1  0  0  3  0  0  0  0  0  0
  191.7410  177.6760  142.2680 C   0  0  0  0  0  2  0  0  0  0  0  0
  190.0670  175.0770  142.8130 O   0  0  0  0  0  1  0  0  0  0  0  0
  189.7510  176.9980  144.1980 C   0  0  1  0  0  3  0  0  0  0  0  0
  188.4780  176.8120  145.0190 C   0  0  0  0  0  2  0  0  0  0  0  0
  188.2590  177.9080  146.0680 C   0  0  2  0  0  3  0  0  0  0  0  0
  189.3640  178.6630  148.4590 O   0  0  0  0  0  1  0  0  0  0  0  0
  188.9870  177.4300  147.6700 P   0  0  0  0  0  0  0  0  0  0  0  0
  190.3680  176.4890  147.4120 O   0  0  0  0  0  0  0  0  0  0  0  0
  187.8530  176.5310  148.5460 O   0  0  0  0  0  1  0  0  0  0  0  0
  186.8550  178.3110  146.2070 N   0  0  0  0  0  2  0  0  0  0  0  0
  186.1440  178.2120  144.9340 C   0  0  0  0  0  2  0  0  0  0  0  0
  184.2240  178.8780  146.1670 O   0  0  0  0  0  1  0  0  0  0  0  0
  184.8940  179.0760  144.9620 C   0  0  2  0  0  3  0  0  0  0  0  0
  183.9730  178.7100  143.8110 C   0  0  0  0  0  1  0  0  0  0  0  0
  188.6300  178.5760  138.0660 C   0  0  1  0  0  3  0  0  0  0  0  0
  189.3970  178.3410  136.9200 O   0  0  0  0  0  0  0  0  0  0  0  0
  188.4740  178.2640  135.8770 C   0  0  0  0  0  1  0  0  0  0  0  0
  187.2120  178.0350  137.8850 C   0  0  0  0  0  2  0  0  0  0  0  0
  186.2530  178.4910  138.9830 C   0  0  0  0  0  2  0  0  0  0  0  0
  181.6500  176.9400  139.0500 C   0  0  0  0  0  2  0  0  0  0  0  0
  180.7570  177.4270  140.1760 C   0  0  0  0  0  2  0  0  0  0  0  0
  181.7350  179.6450  140.0930 O   0  0  0  0  0  0  0  0  0  0  0  0
  182.6250  179.2810  139.0530 C   0  0  2  0  0  3  0  0  0  0  0  0
  182.0840  178.1200  138.1840 C   0  0  1  0  0  3  0  0  0  0  0  0
  184.9310  178.7300  138.4310 N   0  0  0  0  0  0  0  0  0  0  0  0
  183.1260  177.6720  137.1560 C   0  0  0  0  0  2  0  0  0  0  0  0
  184.4910  177.4750  137.8210 C   0  0  0  0  0  2  0  0  0  0  0  0
  184.0490  179.0170  139.5610 C   0  0  0  0  0  2  0  0  0  0  0  0
  181.4960  178.5310  140.9310 C   0  0  1  0  0  3  0  0  0  0  0  0
  180.3600  180.3090  142.0740 O   0  0  0  0  0  1  0  0  0  0  0  0
  180.7060  178.9610  142.1580 C   0  0  0  0  0  2  0  0  0  0  0  0
  1  3  2  0  0  0  0
  3  2  1  0  0  0  0
  4 10  1  0  0  0  0
  5  3  1  0  0  0  0
  6  7  1  6  0  0  0
  6  5  1  0  0  0  0
  7  8  2  0  0  0  0
  8  6  1  0  0  0  0
  9  4  2  0  0  0  0
  9  7  1  0  0  0  0
 10  5  2  0  0  0  0
 12 15  1  0  0  0  0
 12 14  1  0  0  0  0
 14 11  1  6  0  0  0
 14 13  1  0  0  0  0
 15  4  1  1  0  0  0
 15 13  1  0  0  0  0
 16 18  1  0  0  0  0
 17 21  1  1  0  0  0
 17 22  1  0  0  0  0
 19  2  1  6  0  0  0
 19 20  1  0  0  0  0
 19 17  1  0  0  0  0
 20 16  1  0  0  0  0
 22 18  1  0  0  0  0
 22 23  1  6  0  0  0
 24 23  1  6  0  0  0
 24 29  1  0  0  0  0
 24 26  1  0  0  0  0
 26 25  1  0  0  0  0
 26 28  1  0  0  0  0
 27 26  2  0  0  0  0
 30 32  1  0  0  0  0
 30 29  1  0  0  0  0
 32 33  1  6  0  0  0
 32 31  1  0  0  0  0
 34 37  1  6  0  0  0
 34  1  1  0  0  0  0
 35 34  1  0  0  0  0
 36 35  1  0  0  0  0
 37 38  1  0  0  0  0
 39 40  1  0  0  0  0
 40 48  1  0  0  0  0
 41 48  1  0  0  0  0
 42 47  1  1  0  0  0
 42 41  1  0  0  0  0
 43 45  1  6  0  0  0
 43 39  1  0  0  0  0
 43 42  1  0  0  0  0
 44 38  1  0  0  0  0
 44 47  1  0  0  0  0
 45 46  1  0  0  0  0
 46 44  1  0  0  0  0
 48 50  1  1  0  0  0
 49 50  1  0  0  0  0
M  END
>  <MODEL>
2

>  <REMARK>
 VINA RESULT:      -8.2      1.162      2.750
  Name = 
  15 active torsions:
  status: ('A' for Active; 'I' for Inactive)
    1  A    between atoms: C_1  and  C_49
    2  A    between atoms: N_4  and  C_33
    3  A    between atoms: C_6  and  C_35
    4  A    between atoms: C_7  and  N_24
    5  A    between atoms: C_7  and  C_42
    6  A    between atoms: C_10  and  C_16
    7  A    between atoms: C_10  and  C_44
    8  A    between atoms: O_15  and  C_33
    9  A    between atoms: C_16  and  P_23
   10  A    between atoms: C_16  and  N_50
   11  A    between atoms: C_21  and  N_27
   12  A    between atoms: C_33  and  C_42
   13  A    between atoms: C_34  and  C_48
   14  A    between atoms: C_36  and  C_38
   15  A    between atoms: C_38  and  N_50
                            x       y       z     vdW  Elec       q    Type
                         _______ _______ _______ _____ _____    ______ ____

>  <TORSDO>
F 15

$$$$
=
 OpenBabel11032421103D

 50 55  0  0  1  0  0  0  0  0999 V2000
  186.9310  177.5840  142.4150 N   0  0  0  0  0  0  0  0  0  0  0  0
  184.6730  178.2340  142.4950 N   0  0  0  0  0  2  0  0  0  0  0  0
  185.9410  178.0360  143.1340 C   0  0  0  0  0  0  0  0  0  0  0  0
  187.3970  178.3510  146.6380 C   0  0  0  0  0  0  0  0  0  0  0  0
  186.0420  178.3820  144.5800 C   0  0  0  0  0  0  0  0  0  0  0  0
  184.9320  179.1830  145.3070 C   0  0  2  0  0  3  0  0  0  0  0  0
  185.2740  178.8220  146.5550 C   0  0  0  0  0  0  0  0  0  0  0  0
  184.0100  178.4970  146.0500 N   0  0  0  0  0  0  0  0  0  0  0  0
  186.3760  178.6590  147.4020 N   0  0  0  0  0  0  0  0  0  0  0  0
  187.1890  178.1030  145.2000 N   0  0  0  0  0  0  0  0  0  0  0  0
  191.2610  176.2750  147.2450 C   0  0  0  0  0  1  0  0  0  0  0  0
  189.7550  177.9050  146.2360 N   0  0  0  0  0  2  0  0  0  0  0  0
  188.8440  176.6180  147.7050 C   0  0  0  0  0  2  0  0  0  0  0  0
  189.8950  176.5040  146.6230 C   0  0  2  0  0  3  0  0  0  0  0  0
  188.7310  178.0650  147.2670 C   0  0  2  0  0  3  0  0  0  0  0  0
  184.7040  179.0690  138.7650 C   0  0  0  0  0  2  0  0  0  0  0  0
  183.0250  177.5620  140.7790 C   0  0  1  0  0  3  0  0  0  0  0  0
  183.8570  177.8550  138.3680 C   0  0  0  0  0  2  0  0  0  0  0  0
  184.4640  178.0260  141.0660 C   0  0  1  0  0  3  0  0  0  0  0  0
  184.7940  179.2970  140.2810 C   0  0  0  0  0  2  0  0  0  0  0  0
  182.1060  178.2840  141.5460 O   0  0  0  0  0  1  0  0  0  0  0  0
  182.6470  177.6960  139.2950 C   0  0  1  0  0  3  0  0  0  0  0  0
  181.7150  176.5770  138.8380 C   0  0  0  0  0  2  0  0  0  0  0  0
  182.3390  175.6470  137.7920 C   0  0  2  0  0  3  0  0  0  0  0  0
  181.2170  173.3870  136.7240 O   0  0  0  0  0  1  0  0  0  0  0  0
  181.0530  174.8890  136.7440 P   0  0  0  0  0  0  0  0  0  0  0  0
  181.1790  175.4840  135.1660 O   0  0  0  0  0  0  0  0  0  0  0  0
  179.5310  175.2780  137.3690 O   0  0  0  0  0  1  0  0  0  0  0  0
  183.2350  174.6380  138.3690 N   0  0  0  0  0  2  0  0  0  0  0  0
  184.3830  174.3880  137.5000 C   0  0  0  0  0  2  0  0  0  0  0  0
  186.1540  172.8700  137.9580 O   0  0  0  0  0  1  0  0  0  0  0  0
  184.8090  172.9330  137.5980 C   0  0  2  0  0  3  0  0  0  0  0  0
  184.6160  172.2350  136.2630 C   0  0  0  0  0  1  0  0  0  0  0  0
  188.3050  177.3370  142.8310 C   0  0  1  0  0  3  0  0  0  0  0  0
  188.4950  175.9670  143.0360 O   0  0  0  0  0  0  0  0  0  0  0  0
  189.8780  175.7850  142.9990 C   0  0  0  0  0  1  0  0  0  0  0  0
  189.2750  177.8630  141.7720 C   0  0  0  0  0  2  0  0  0  0  0  0
  188.5670  178.4560  140.5540 C   0  0  0  0  0  2  0  0  0  0  0  0
  189.2480  175.1340  137.0760 C   0  0  0  0  0  2  0  0  0  0  0  0
  188.2710  175.1170  135.9160 C   0  0  0  0  0  2  0  0  0  0  0  0
  188.1690  177.5400  135.8660 O   0  0  0  0  0  0  0  0  0  0  0  0
  189.0610  177.6610  136.9610 C   0  0  2  0  0  3  0  0  0  0  0  0
  190.0200  176.4520  137.0860 C   0  0  1  0  0  3  0  0  0  0  0  0
  189.3180  178.1680  139.3450 N   0  0  0  0  0  0  0  0  0  0  0  0
  190.8760  176.5590  138.3500 C   0  0  0  0  0  2  0  0  0  0  0  0
  190.0060  176.8950  139.5650 C   0  0  0  0  0  2  0  0  0  0  0  0
  188.3380  177.9730  138.2790 C   0  0  0  0  0  2  0  0  0  0  0  0
  187.3940  176.3650  136.0080 C   0  0  1  0  0  3  0  0  0  0  0  0
  185.3180  177.2800  135.2260 O   0  0  0  0  0  1  0  0  0  0  0  0
  186.3020  176.3300  134.9500 C   0  0  0  0  0  2  0  0  0  0  0  0
  1 34  1  0  0  0  0
  1  3  2  0  0  0  0
  2  3  1  0  0  0  0
  3  5  1  0  0  0  0
  4  9  2  0  0  0  0
  5 10  2  0  0  0  0
  6  5  1  6  0  0  0
  6  8  1  0  0  0  0
  6  7  1  0  0  0  0
  7  9  1  0  0  0  0
  8  7  2  0  0  0  0
 10  4  1  0  0  0  0
 12 14  1  0  0  0  0
 12 15  1  0  0  0  0
 14 11  1  1  0  0  0
 14 13  1  0  0  0  0
 15  4  1  6  0  0  0
 15 13  1  0  0  0  0
 16 20  1  0  0  0  0
 17 19  1  0  0  0  0
 17 21  1  1  0  0  0
 18 16  1  0  0  0  0
 18 22  1  0  0  0  0
 19  2  1  1  0  0  0
 20 19  1  0  0  0  0
 22 23  1  6  0  0  0
 22 17  1  0  0  0  0
 24 29  1  0  0  0  0
 24 23  1  1  0  0  0
 25 26  1  0  0  0  0
 26 28  1  0  0  0  0
 26 24  1  0  0  0  0
 27 26  2  0  0  0  0
 30 32  1  0  0  0  0
 30 29  1  0  0  0  0
 32 33  1  6  0  0  0
 32 31  1  0  0  0  0
 34 37  1  6  0  0  0
 34 35  1  0  0  0  0
 36 35  1  0  0  0  0
 38 37  1  0  0  0  0
 40 48  1  0  0  0  0
 40 39  1  0  0  0  0
 41 48  1  0  0  0  0
 41 42  1  0  0  0  0
 42 43  1  0  0  0  0
 42 47  1  1  0  0  0
 43 39  1  1  0  0  0
 43 45  1  0  0  0  0
 44 46  1  0  0  0  0
 44 38  1  0  0  0  0
 45 46  1  0  0  0  0
 47 44  1  0  0  0  0
 48 50  1  6  0  0  0
 50 49  1  0  0  0  0
M  END
>  <MODEL>
3

>  <REMARK>
 VINA RESULT:      -8.0      3.275      9.383
  Name = 
  15 active torsions:
  status: ('A' for Active; 'I' for Inactive)
    1  A    between atoms: C_1  and  C_49
    2  A    between atoms: N_4  and  C_33
    3  A    between atoms: C_6  and  C_35
    4  A    between atoms: C_7  and  N_24
    5  A    between atoms: C_7  and  C_42
    6  A    between atoms: C_10  and  C_16
    7  A    between atoms: C_10  and  C_44
    8  A    between atoms: O_15  and  C_33
    9  A    between atoms: C_16  and  P_23
   10  A    between atoms: C_16  and  N_50
   11  A    between atoms: C_21  and  N_27
   12  A    between atoms: C_33  and  C_42
   13  A    between atoms: C_34  and  C_48
   14  A    between atoms: C_36  and  C_38
   15  A    between atoms: C_38  and  N_50
                            x       y       z     vdW  Elec       q    Type
                         _______ _______ _______ _____ _____    ______ ____

>  <TORSDO>
F 15

$$$$
=
 OpenBabel11032421103D

 50 55  0  0  1  0  0  0  0  0999 V2000
  186.7460  177.6890  142.2860 N   0  0  0  0  0  0  0  0  0  0  0  0
  184.4600  178.2280  142.3850 N   0  0  0  0  0  2  0  0  0  0  0  0
  185.7320  178.0510  143.0220 C   0  0  0  0  0  0  0  0  0  0  0  0
  186.9240  177.8390  146.6330 C   0  0  0  0  0  0  0  0  0  0  0  0
  185.8080  178.3150  144.4870 C   0  0  0  0  0  0  0  0  0  0  0  0
  184.9170  179.3820  145.1720 C   0  0  2  0  0  3  0  0  0  0  0  0
  185.0370  178.9040  146.4220 C   0  0  0  0  0  0  0  0  0  0  0  0
  183.7800  178.9700  145.8130 N   0  0  0  0  0  0  0  0  0  0  0  0
  185.9730  178.4070  147.3360 N   0  0  0  0  0  0  0  0  0  0  0  0
  186.7730  177.7000  145.1730 N   0  0  0  0  0  0  0  0  0  0  0  0
  191.1200  177.1270  147.8550 C   0  0  0  0  0  1  0  0  0  0  0  0
  188.9140  178.1540  147.9960 N   0  0  0  0  0  2  0  0  0  0  0  0
  189.1610  176.7590  146.3730 C   0  0  0  0  0  2  0  0  0  0  0  0
  189.9970  177.7990  147.0850 C   0  0  2  0  0  3  0  0  0  0  0  0
  188.0640  177.1630  147.3390 C   0  0  2  0  0  3  0  0  0  0  0  0
  184.6630  179.2040  138.6940 C   0  0  0  0  0  2  0  0  0  0  0  0
  182.8020  177.7810  140.6070 C   0  0  1  0  0  3  0  0  0  0  0  0
  183.7190  178.0900  138.2290 C   0  0  0  0  0  2  0  0  0  0  0  0
  184.2690  178.0970  140.9450 C   0  0  1  0  0  3  0  0  0  0  0  0
  184.7340  179.3630  140.2200 C   0  0  0  0  0  2  0  0  0  0  0  0
  181.9340  178.5530  141.3830 O   0  0  0  0  0  1  0  0  0  0  0  0
  182.4760  178.0070  139.1220 C   0  0  1  0  0  3  0  0  0  0  0  0
  181.4570  176.9980  138.5990 C   0  0  0  0  0  2  0  0  0  0  0  0
  181.8900  175.5390  138.7800 C   0  0  2  0  0  3  0  0  0  0  0  0
  183.2720  173.7280  137.2580 O   0  0  0  0  0  1  0  0  0  0  0  0
  182.1440  174.7290  137.1660 P   0  0  0  0  0  0  0  0  0  0  0  0
  182.5230  175.8910  135.9980 O   0  0  0  0  0  0  0  0  0  0  0  0
  180.7220  173.9290  136.7190 O   0  0  0  0  0  1  0  0  0  0  0  0
  180.9870  174.7650  139.6410 N   0  0  0  0  0  2  0  0  0  0  0  0
  179.6170  175.2670  139.5620 C   0  0  0  0  0  2  0  0  0  0  0  0
  179.3090  176.2150  141.7200 O   0  0  0  0  0  1  0  0  0  0  0  0
  178.9340  175.1420  140.9140 C   0  0  2  0  0  3  0  0  0  0  0  0
  179.3360  173.8430  141.5910 C   0  0  0  0  0  1  0  0  0  0  0  0
  188.1270  177.4810  142.6990 C   0  0  1  0  0  3  0  0  0  0  0  0
  188.3390  176.1260  142.9700 O   0  0  0  0  0  0  0  0  0  0  0  0
  189.7190  175.9490  142.8740 C   0  0  0  0  0  1  0  0  0  0  0  0
  189.0790  177.9650  141.6040 C   0  0  0  0  0  2  0  0  0  0  0  0
  188.3520  178.5450  140.3920 C   0  0  0  0  0  2  0  0  0  0  0  0
  189.3430  175.3100  136.9050 C   0  0  0  0  0  2  0  0  0  0  0  0
  188.3760  175.2110  135.7400 C   0  0  0  0  0  2  0  0  0  0  0  0
  188.0600  177.6160  135.6980 O   0  0  0  0  0  0  0  0  0  0  0  0
  188.9310  177.8110  136.7980 C   0  0  2  0  0  3  0  0  0  0  0  0
  189.9930  176.6920  136.9240 C   0  0  1  0  0  3  0  0  0  0  0  0
  189.1300  178.3290  139.1850 N   0  0  0  0  0  0  0  0  0  0  0  0
  190.8300  176.8690  138.1930 C   0  0  0  0  0  2  0  0  0  0  0  0
  189.9280  177.1220  139.4040 C   0  0  0  0  0  2  0  0  0  0  0  0
  188.1770  178.0520  138.1130 C   0  0  0  0  0  2  0  0  0  0  0  0
  187.3910  176.3760  135.8320 C   0  0  1  0  0  3  0  0  0  0  0  0
  185.4130  177.3120  134.8470 O   0  0  0  0  0  1  0  0  0  0  0  0
  186.3120  176.2490  134.7680 C   0  0  0  0  0  2  0  0  0  0  0  0
  1 34  1  0  0  0  0
  1  3  2  0  0  0  0
  2  3  1  0  0  0  0
  3  5  1  0  0  0  0
  4  9  2  0  0  0  0
  5 10  2  0  0  0  0
  6  5  1  6  0  0  0
  6  8  1  0  0  0  0
  6  7  1  0  0  0  0
  7  9  1  0  0  0  0
  8  7  2  0  0  0  0
 10  4  1  0  0  0  0
 13 14  1  0  0  0  0
 13 15  1  0  0  0  0
 14 11  1  1  0  0  0
 14 12  1  0  0  0  0
 15  4  1  6  0  0  0
 15 12  1  0  0  0  0
 16 20  1  0  0  0  0
 17 19  1  0  0  0  0
 17 21  1  1  0  0  0
 18 16  1  0  0  0  0
 18 22  1  0  0  0  0
 19  2  1  1  0  0  0
 20 19  1  0  0  0  0
 22 23  1  6  0  0  0
 22 17  1  0  0  0  0
 24 23  1  6  0  0  0
 24 29  1  0  0  0  0
 26 25  1  0  0  0  0
 26 24  1  0  0  0  0
 27 26  2  0  0  0  0
 28 26  1  0  0  0  0
 30 29  1  0  0  0  0
 30 32  1  0  0  0  0
 32 33  1  1  0  0  0
 32 31  1  0  0  0  0
 34 37  1  6  0  0  0
 34 35  1  0  0  0  0
 36 35  1  0  0  0  0
 38 37  1  0  0  0  0
 40 48  1  0  0  0  0
 40 39  1  0  0  0  0
 41 48  1  0  0  0  0
 41 42  1  0  0  0  0
 42 43  1  0  0  0  0
 42 47  1  1  0  0  0
 43 39  1  1  0  0  0
 43 45  1  0  0  0  0
 44 46  1  0  0  0  0
 44 38  1  0  0  0  0
 45 46  1  0  0  0  0
 47 44  1  0  0  0  0
 48 50  1  6  0  0  0
 50 49  1  0  0  0  0
M  END
>  <MODEL>
4

>  <REMARK>
 VINA RESULT:      -8.0      3.272      9.215
  Name = 
  15 active torsions:
  status: ('A' for Active; 'I' for Inactive)
    1  A    between atoms: C_1  and  C_49
    2  A    between atoms: N_4  and  C_33
    3  A    between atoms: C_6  and  C_35
    4  A    between atoms: C_7  and  N_24
    5  A    between atoms: C_7  and  C_42
    6  A    between atoms: C_10  and  C_16
    7  A    between atoms: C_10  and  C_44
    8  A    between atoms: O_15  and  C_33
    9  A    between atoms: C_16  and  P_23
   10  A    between atoms: C_16  and  N_50
   11  A    between atoms: C_21  and  N_27
   12  A    between atoms: C_33  and  C_42
   13  A    between atoms: C_34  and  C_48
   14  A    between atoms: C_36  and  C_38
   15  A    between atoms: C_38  and  N_50
                            x       y       z     vdW  Elec       q    Type
                         _______ _______ _______ _____ _____    ______ ____

>  <TORSDO>
F 15

$$$$
=
 OpenBabel11032421103D

 50 55  0  0  1  0  0  0  0  0999 V2000
  186.9720  177.5030  142.6870 N   0  0  0  0  0  0  0  0  0  0  0  0
  184.7510  178.2260  142.9520 N   0  0  0  0  0  2  0  0  0  0  0  0
  186.0570  177.9750  143.4870 C   0  0  0  0  0  0  0  0  0  0  0  0
  187.7980  178.1990  146.8660 C   0  0  0  0  0  0  0  0  0  0  0  0
  186.2810  178.2910  144.9260 C   0  0  0  0  0  0  0  0  0  0  0  0
  185.2470  179.0950  145.7550 C   0  0  2  0  0  3  0  0  0  0  0  0
  185.6830  178.7050  146.9650 C   0  0  0  0  0  0  0  0  0  0  0  0
  184.3770  178.4100  146.5590 N   0  0  0  0  0  0  0  0  0  0  0  0
  186.8470  178.5080  147.7160 N   0  0  0  0  0  0  0  0  0  0  0  0
  187.4690  177.9820  145.4450 N   0  0  0  0  0  0  0  0  0  0  0  0
  191.6960  176.1070  147.0610 C   0  0  0  0  0  1  0  0  0  0  0  0
  190.1210  177.7900  146.2690 N   0  0  0  0  0  2  0  0  0  0  0  0
  189.3180  176.4070  147.7130 C   0  0  0  0  0  2  0  0  0  0  0  0
  190.2890  176.3690  146.5540 C   0  0  2  0  0  3  0  0  0  0  0  0
  189.1740  177.8790  147.3780 C   0  0  2  0  0  3  0  0  0  0  0  0
  184.7290  179.0120  139.2110 C   0  0  0  0  0  2  0  0  0  0  0  0
  182.9100  177.8710  141.3400 C   0  0  1  0  0  3  0  0  0  0  0  0
  183.6450  177.9800  138.8830 C   0  0  0  0  0  2  0  0  0  0  0  0
  184.4250  178.0520  141.5400 C   0  0  1  0  0  3  0  0  0  0  0  0
  184.9460  179.2310  140.7150 C   0  0  0  0  0  2  0  0  0  0  0  0
  182.1910  178.7600  142.1420 O   0  0  0  0  0  1  0  0  0  0  0  0
  182.4810  178.0620  139.8760 C   0  0  1  0  0  3  0  0  0  0  0  0
  181.3280  177.1400  139.4910 C   0  0  0  0  0  2  0  0  0  0  0  0
  180.2900  177.8030  138.5810 C   0  0  2  0  0  3  0  0  0  0  0  0
  179.2330  175.4920  137.5560 O   0  0  0  0  0  1  0  0  0  0  0  0
  179.9350  176.7590  137.1270 P   0  0  0  0  0  0  0  0  0  0  0  0
  181.3800  176.3590  136.3460 O   0  0  0  0  0  1  0  0  0  0  0  0
  178.9410  177.6160  136.0610 O   0  0  0  0  0  0  0  0  0  0  0  0
  180.6440  179.1730  138.1920 N   0  0  0  0  0  2  0  0  0  0  0  0
  179.6500  180.1350  138.6650 C   0  0  0  0  0  2  0  0  0  0  0  0
  179.5700  182.5100  138.6750 O   0  0  0  0  0  1  0  0  0  0  0  0
  180.3300  181.4220  139.1000 C   0  0  2  0  0  3  0  0  0  0  0  0
  181.7200  181.5170  138.4940 C   0  0  0  0  0  1  0  0  0  0  0  0
  188.3640  177.2020  142.9910 C   0  0  1  0  0  3  0  0  0  0  0  0
  188.5480  175.8170  143.0320 O   0  0  0  0  0  0  0  0  0  0  0  0
  189.9280  175.6330  142.9460 C   0  0  0  0  0  1  0  0  0  0  0  0
  189.2780  177.8360  141.9410 C   0  0  0  0  0  2  0  0  0  0  0  0
  188.5110  178.4290  140.7600 C   0  0  0  0  0  2  0  0  0  0  0  0
  189.0820  175.5420  136.8950 C   0  0  0  0  0  2  0  0  0  0  0  0
  188.1240  175.7220  135.7320 C   0  0  0  0  0  2  0  0  0  0  0  0
  188.1440  178.1340  135.9890 O   0  0  0  0  0  0  0  0  0  0  0  0
  189.0230  178.0690  137.0990 C   0  0  2  0  0  3  0  0  0  0  0  0
  189.9180  176.8070  137.0790 C   0  0  1  0  0  3  0  0  0  0  0  0
  189.2650  178.2570  139.5310 N   0  0  0  0  0  0  0  0  0  0  0  0
  190.7570  176.7090  138.3550 C   0  0  0  0  0  2  0  0  0  0  0  0
  189.8860  176.9330  139.5940 C   0  0  0  0  0  2  0  0  0  0  0  0
  188.2950  178.2490  138.4390 C   0  0  0  0  0  2  0  0  0  0  0  0
  187.3090  176.9920  135.9730 C   0  0  1  0  0  3  0  0  0  0  0  0
  184.9630  177.1170  135.4830 O   0  0  0  0  0  1  0  0  0  0  0  0
  186.2340  177.1480  134.9080 C   0  0  0  0  0  2  0  0  0  0  0  0
  1 34  1  0  0  0  0
  1  3  2  0  0  0  0
  2  3  1  0  0  0  0
  3  5  1  0  0  0  0
  4  9  2  0  0  0  0
  5 10  2  0  0  0  0
  6  5  1  6  0  0  0
  6  8  1  0  0  0  0
  6  7  1  0  0  0  0
  7  9  1  0  0  0  0
  8  7  2  0  0  0  0
 10  4  1  0  0  0  0
 12 14  1  0  0  0  0
 12 15  1  0  0  0  0
 14 11  1  1  0  0  0
 14 13  1  0  0  0  0
 15  4  1  6  0  0  0
 15 13  1  0  0  0  0
 16 20  1  0  0  0  0
 17 19  1  0  0  0  0
 17 21  1  1  0  0  0
 18 16  1  0  0  0  0
 18 22  1  0  0  0  0
 19  2  1  1  0  0  0
 20 19  1  0  0  0  0
 22 23  1  6  0  0  0
 22 17  1  0  0  0  0
 24 23  1  6  0  0  0
 26 25  1  0  0  0  0
 26 24  1  0  0  0  0
 27 26  1  0  0  0  0
 28 26  2  0  0  0  0
 29 24  1  0  0  0  0
 29 30  1  0  0  0  0
 30 32  1  0  0  0  0
 31 32  1  0  0  0  0
 32 33  1  6  0  0  0
 34 37  1  6  0  0  0
 34 35  1  0  0  0  0
 36 35  1  0  0  0  0
 38 37  1  0  0  0  0
 40 48  1  0  0  0  0
 40 39  1  0  0  0  0
 41 42  1  0  0  0  0
 42 47  1  1  0  0  0
 43 39  1  1  0  0  0
 43 42  1  0  0  0  0
 43 45  1  0  0  0  0
 44 46  1  0  0  0  0
 44 38  1  0  0  0  0
 45 46  1  0  0  0  0
 47 44  1  0  0  0  0
 48 50  1  6  0  0  0
 48 41  1  0  0  0  0
 50 49  1  0  0  0  0
M  END
>  <MODEL>
5

>  <REMARK>
 VINA RESULT:      -8.0      3.391      9.295
  Name = 
  15 active torsions:
  status: ('A' for Active; 'I' for Inactive)
    1  A    between atoms: C_1  and  C_49
    2  A    between atoms: N_4  and  C_33
    3  A    between atoms: C_6  and  C_35
    4  A    between atoms: C_7  and  N_24
    5  A    between atoms: C_7  and  C_42
    6  A    between atoms: C_10  and  C_16
    7  A    between atoms: C_10  and  C_44
    8  A    between atoms: O_15  and  C_33
    9  A    between atoms: C_16  and  P_23
   10  A    between atoms: C_16  and  N_50
   11  A    between atoms: C_21  and  N_27
   12  A    between atoms: C_33  and  C_42
   13  A    between atoms: C_34  and  C_48
   14  A    between atoms: C_36  and  C_38
   15  A    between atoms: C_38  and  N_50
                            x       y       z     vdW  Elec       q    Type
                         _______ _______ _______ _____ _____    ______ ____

>  <TORSDO>
F 15

$$$$
=
 OpenBabel11032421103D

 50 55  0  0  1  0  0  0  0  0999 V2000
  189.2860  175.0200  137.5440 N   0  0  0  0  0  0  0  0  0  0  0  0
  190.7720  176.1630  138.9610 N   0  0  0  0  0  2  0  0  0  0  0  0
  190.5170  175.3730  137.7930 C   0  0  0  0  0  0  0  0  0  0  0  0
  194.0370  174.3100  136.8030 C   0  0  0  0  0  0  0  0  0  0  0  0
  191.6810  175.0270  136.9310 C   0  0  0  0  0  0  0  0  0  0  0  0
  191.5640  174.9610  135.3870 C   0  0  2  0  0  3  0  0  0  0  0  0
  192.8770  175.0760  135.1270 C   0  0  0  0  0  0  0  0  0  0  0  0
  191.9800  176.0390  134.6530 N   0  0  0  0  0  0  0  0  0  0  0  0
  194.1340  174.6100  135.5290 N   0  0  0  0  0  0  0  0  0  0  0  0
  192.8010  174.6330  137.5400 N   0  0  0  0  0  0  0  0  0  0  0  0
  198.2900  174.1670  138.0260 C   0  0  0  0  0  1  0  0  0  0  0  0
  195.9820  174.9450  138.1180 N   0  0  0  0  0  2  0  0  0  0  0  0
  196.3810  173.4740  136.5950 C   0  0  0  0  0  2  0  0  0  0  0  0
  197.0960  174.6510  137.2220 C   0  0  2  0  0  3  0  0  0  0  0  0
  195.2490  173.8200  137.5430 C   0  0  2  0  0  3  0  0  0  0  0  0
  188.0810  178.5520  140.2520 C   0  0  0  0  0  2  0  0  0  0  0  0
  190.1510  176.6190  141.3110 C   0  0  1  0  0  3  0  0  0  0  0  0
  187.8910  177.8060  141.5770 C   0  0  0  0  0  2  0  0  0  0  0  0
  189.7120  176.6520  139.8370 C   0  0  1  0  0  3  0  0  0  0  0  0
  189.2810  178.0630  139.4280 C   0  0  0  0  0  2  0  0  0  0  0  0
  191.4670  177.0690  141.4500 O   0  0  0  0  0  1  0  0  0  0  0  0
  189.2390  177.4600  142.2180 C   0  0  1  0  0  3  0  0  0  0  0  0
  189.0770  176.8390  143.6030 C   0  0  0  0  0  2  0  0  0  0  0  0
  189.5880  177.7320  144.7380 C   0  0  2  0  0  3  0  0  0  0  0  0
  192.2400  178.4160  144.6410 O   0  0  0  0  0  1  0  0  0  0  0  0
  191.3190  177.3320  145.1520 P   0  0  0  0  0  0  0  0  0  0  0  0
  191.7480  175.8570  144.4450 O   0  0  0  0  0  0  0  0  0  0  0  0
  191.4730  177.2140  146.8320 O   0  0  0  0  0  1  0  0  0  0  0  0
  188.7280  177.7150  145.9270 N   0  0  0  0  0  2  0  0  0  0  0  0
  187.3760  177.2660  145.5990 C   0  0  0  0  0  2  0  0  0  0  0  0
  185.6760  178.3370  146.8680 O   0  0  0  0  0  1  0  0  0  0  0  0
  186.4010  178.4290  145.6820 C   0  0  2  0  0  3  0  0  0  0  0  0
  185.4420  178.3990  144.5060 C   0  0  0  0  0  1  0  0  0  0  0  0
  188.7820  174.2540  136.4120 C   0  0  1  0  0  3  0  0  0  0  0  0
  188.6780  172.9050  136.7660 O   0  0  0  0  0  0  0  0  0  0  0  0
  187.4120  172.5140  136.3320 C   0  0  0  0  0  1  0  0  0  0  0  0
  187.4240  174.8010  135.9720 C   0  0  0  0  0  2  0  0  0  0  0  0
  187.2470  176.2860  136.2870 C   0  0  0  0  0  2  0  0  0  0  0  0
  183.0350  175.7760  138.6530 C   0  0  0  0  0  2  0  0  0  0  0  0
  182.7670  176.7030  139.8230 C   0  0  0  0  0  2  0  0  0  0  0  0
  183.7760  178.5810  138.6660 O   0  0  0  0  0  0  0  0  0  0  0  0
  184.0890  177.7920  137.5320 C   0  0  2  0  0  3  0  0  0  0  0  0
  183.1350  176.5850  137.3620 C   0  0  1  0  0  3  0  0  0  0  0  0
  185.8400  176.6430  136.2570 N   0  0  0  0  0  0  0  0  0  0  0  0
  183.5830  175.6900  136.2040 C   0  0  0  0  0  2  0  0  0  0  0  0
  185.0820  175.3920  136.3010 C   0  0  0  0  0  2  0  0  0  0  0  0
  185.5670  177.3790  137.4900 C   0  0  0  0  0  2  0  0  0  0  0  0
  183.8450  177.7870  139.8350 C   0  0  1  0  0  3  0  0  0  0  0  0
  184.8100  179.5080  141.2000 O   0  0  0  0  0  1  0  0  0  0  0  0
  183.7080  178.6630  141.0700 C   0  0  0  0  0  2  0  0  0  0  0  0
  1  3  2  0  0  0  0
  3  2  1  0  0  0  0
  4 10  1  0  0  0  0
  5 10  2  0  0  0  0
  5  3  1  0  0  0  0
  6  8  1  6  0  0  0
  6  5  1  0  0  0  0
  7  6  1  0  0  0  0
  7  9  1  0  0  0  0
  8  7  2  0  0  0  0
  9  4  2  0  0  0  0
 13 14  1  0  0  0  0
 13 15  1  0  0  0  0
 14 11  1  1  0  0  0
 14 12  1  0  0  0  0
 15  4  1  6  0  0  0
 15 12  1  0  0  0  0
 16 18  1  0  0  0  0
 17 21  1  6  0  0  0
 17 22  1  0  0  0  0
 18 22  1  0  0  0  0
 19  2  1  6  0  0  0
 19 17  1  0  0  0  0
 20 19  1  0  0  0  0
 20 16  1  0  0  0  0
 22 23  1  1  0  0  0
 24 23  1  6  0  0  0
 24 26  1  0  0  0  0
 24 29  1  0  0  0  0
 25 26  1  0  0  0  0
 26 28  1  0  0  0  0
 27 26  2  0  0  0  0
 30 32  1  0  0  0  0
 30 29  1  0  0  0  0
 32 33  1  6  0  0  0
 32 31  1  0  0  0  0
 34 37  1  1  0  0  0
 34 35  1  0  0  0  0
 34  1  1  0  0  0  0
 36 35  1  0  0  0  0
 37 38  1  0  0  0  0
 39 40  1  0  0  0  0
 40 48  1  0  0  0  0
 41 48  1  0  0  0  0
 42 47  1  1  0  0  0
 42 41  1  0  0  0  0
 43 45  1  6  0  0  0
 43 42  1  0  0  0  0
 43 39  1  0  0  0  0
 44 38  1  0  0  0  0
 44 46  1  0  0  0  0
 44 47  1  0  0  0  0
 45 46  1  0  0  0  0
 48 50  1  1  0  0  0
 50 49  1  0  0  0  0
M  END
>  <MODEL>
6

>  <REMARK>
 VINA RESULT:      -7.9      2.433      4.243
  Name = 
  15 active torsions:
  status: ('A' for Active; 'I' for Inactive)
    1  A    between atoms: C_1  and  C_49
    2  A    between atoms: N_4  and  C_33
    3  A    between atoms: C_6  and  C_35
    4  A    between atoms: C_7  and  N_24
    5  A    between atoms: C_7  and  C_42
    6  A    between atoms: C_10  and  C_16
    7  A    between atoms: C_10  and  C_44
    8  A    between atoms: O_15  and  C_33
    9  A    between atoms: C_16  and  P_23
   10  A    between atoms: C_16  and  N_50
   11  A    between atoms: C_21  and  N_27
   12  A    between atoms: C_33  and  C_42
   13  A    between atoms: C_34  and  C_48
   14  A    between atoms: C_36  and  C_38
   15  A    between atoms: C_38  and  N_50
                            x       y       z     vdW  Elec       q    Type
                         _______ _______ _______ _____ _____    ______ ____

>  <TORSDO>
F 15

$$$$
=
 OpenBabel11032421103D

 50 55  0  0  1  0  0  0  0  0999 V2000
  188.0460  176.3400  137.6740 N   0  0  0  0  0  0  0  0  0  0  0  0
  187.6830  174.3130  136.5410 N   0  0  0  0  0  2  0  0  0  0  0  0
  188.5410  175.3960  136.9220 C   0  0  0  0  0  0  0  0  0  0  0  0
  192.3160  174.9010  136.9720 C   0  0  0  0  0  0  0  0  0  0  0  0
  189.9510  175.3540  136.4440 C   0  0  0  0  0  0  0  0  0  0  0  0
  190.3190  175.6190  134.9620 C   0  0  2  0  0  3  0  0  0  0  0  0
  191.6150  175.9070  135.1730 C   0  0  0  0  0  0  0  0  0  0  0  0
  190.7640  176.8640  134.6100 N   0  0  0  0  0  0  0  0  0  0  0  0
  192.7470  175.4810  135.8770 N   0  0  0  0  0  0  0  0  0  0  0  0
  190.8810  174.9410  137.3060 N   0  0  0  0  0  0  0  0  0  0  0  0
  196.3000  174.0650  138.7160 C   0  0  0  0  0  1  0  0  0  0  0  0
  194.3030  175.3960  138.2850 N   0  0  0  0  0  2  0  0  0  0  0  0
  194.3360  173.4730  137.3140 C   0  0  0  0  0  2  0  0  0  0  0  0
  195.3270  174.5630  137.6620 C   0  0  2  0  0  3  0  0  0  0  0  0
  193.3080  174.3740  137.9700 C   0  0  2  0  0  3  0  0  0  0  0  0
  184.4710  172.5340  137.6050 C   0  0  0  0  0  2  0  0  0  0  0  0
  185.3510  175.0620  136.1980 C   0  0  1  0  0  3  0  0  0  0  0  0
  183.6370  173.8190  137.6480 C   0  0  0  0  0  2  0  0  0  0  0  0
  186.3100  174.1820  137.0180 C   0  0  1  0  0  3  0  0  0  0  0  0
  185.8650  172.7170  136.9890 C   0  0  0  0  0  2  0  0  0  0  0  0
  185.6520  174.9900  134.8350 O   0  0  0  0  0  1  0  0  0  0  0  0
  183.8770  174.6790  136.4030 C   0  0  1  0  0  3  0  0  0  0  0  0
  182.9570  175.8960  136.3570 C   0  0  0  0  0  2  0  0  0  0  0  0
  182.8500  176.6350  137.6960 C   0  0  2  0  0  3  0  0  0  0  0  0
  180.1870  176.6110  137.0520 O   0  0  0  0  0  0  0  0  0  0  0  0
  181.1130  176.7540  138.2380 P   0  0  0  0  0  0  0  0  0  0  0  0
  180.8470  178.2520  138.9760 O   0  0  0  0  0  1  0  0  0  0  0  0
  180.7940  175.5180  139.3470 O   0  0  0  0  0  1  0  0  0  0  0  0
  183.5100  177.9460  137.6930 N   0  0  0  0  0  2  0  0  0  0  0  0
  184.6020  177.9930  138.6630 C   0  0  0  0  0  2  0  0  0  0  0  0
  185.2910  179.5970  140.2770 O   0  0  0  0  0  1  0  0  0  0  0  0
  184.2010  178.8330  139.8650 C   0  0  2  0  0  3  0  0  0  0  0  0
  183.7570  177.9380  141.0090 C   0  0  0  0  0  1  0  0  0  0  0  0
  188.7260  177.5110  138.2100 C   0  0  1  0  0  3  0  0  0  0  0  0
  188.0560  178.6700  137.8050 O   0  0  0  0  0  0  0  0  0  0  0  0
  188.9860  179.3780  137.0430 C   0  0  0  0  0  1  0  0  0  0  0  0
  188.7860  177.4290  139.7350 C   0  0  0  0  0  2  0  0  0  0  0  0
  190.2120  177.4840  140.2820 C   0  0  0  0  0  2  0  0  0  0  0  0
  190.1130  178.1340  145.0950 C   0  0  0  0  0  2  0  0  0  0  0  0
  188.7560  178.2370  145.7650 C   0  0  0  0  0  2  0  0  0  0  0  0
  187.8290  176.5180  144.3270 O   0  0  0  0  0  0  0  0  0  0  0  0
  189.0500  176.3610  143.6250 C   0  0  2  0  0  3  0  0  0  0  0  0
  190.2830  176.7470  144.4780 C   0  0  1  0  0  3  0  0  0  0  0  0
  190.2910  176.7920  141.5560 N   0  0  0  0  0  0  0  0  0  0  0  0
  191.5660  176.6870  143.6460 C   0  0  0  0  0  2  0  0  0  0  0  0
  191.3790  177.4140  142.3110 C   0  0  0  0  0  2  0  0  0  0  0  0
  189.0400  177.0630  142.2610 C   0  0  0  0  0  2  0  0  0  0  0  0
  187.6840  177.8620  144.7420 C   0  0  1  0  0  3  0  0  0  0  0  0
  186.2920  177.8680  146.6960 O   0  0  0  0  0  1  0  0  0  0  0  0
  186.2940  178.0840  145.3170 C   0  0  0  0  0  2  0  0  0  0  0  0
  1 34  1  0  0  0  0
  2  3  1  0  0  0  0
  3  1  2  0  0  0  0
  4 10  1  0  0  0  0
  5  3  1  0  0  0  0
  5 10  2  0  0  0  0
  6  8  1  1  0  0  0
  6  7  1  0  0  0  0
  6  5  1  0  0  0  0
  7  9  1  0  0  0  0
  8  7  2  0  0  0  0
  9  4  2  0  0  0  0
 13 14  1  0  0  0  0
 13 15  1  0  0  0  0
 14 12  1  0  0  0  0
 14 11  1  1  0  0  0
 15  4  1  6  0  0  0
 15 12  1  0  0  0  0
 16 18  1  0  0  0  0
 17 21  1  6  0  0  0
 17 22  1  0  0  0  0
 17 19  1  0  0  0  0
 19  2  1  6  0  0  0
 20 19  1  0  0  0  0
 20 16  1  0  0  0  0
 22 23  1  1  0  0  0
 22 18  1  0  0  0  0
 24 23  1  6  0  0  0
 24 26  1  0  0  0  0
 25 26  2  0  0  0  0
 26 27  1  0  0  0  0
 26 28  1  0  0  0  0
 29 24  1  0  0  0  0
 29 30  1  0  0  0  0
 30 32  1  0  0  0  0
 32 31  1  0  0  0  0
 32 33  1  1  0  0  0
 34 37  1  1  0  0  0
 35 34  1  0  0  0  0
 36 35  1  0  0  0  0
 37 38  1  0  0  0  0
 38 44  1  0  0  0  0
 39 40  1  0  0  0  0
 41 48  1  0  0  0  0
 42 47  1  6  0  0  0
 42 41  1  0  0  0  0
 42 43  1  0  0  0  0
 43 45  1  6  0  0  0
 43 39  1  0  0  0  0
 44 47  1  0  0  0  0
 44 46  1  0  0  0  0
 46 45  1  0  0  0  0
 48 50  1  1  0  0  0
 48 40  1  0  0  0  0
 50 49  1  0  0  0  0
M  END
>  <MODEL>
7

>  <REMARK>
 VINA RESULT:      -7.8      2.791      7.708
  Name = 
  15 active torsions:
  status: ('A' for Active; 'I' for Inactive)
    1  A    between atoms: C_1  and  C_49
    2  A    between atoms: N_4  and  C_33
    3  A    between atoms: C_6  and  C_35
    4  A    between atoms: C_7  and  N_24
    5  A    between atoms: C_7  and  C_42
    6  A    between atoms: C_10  and  C_16
    7  A    between atoms: C_10  and  C_44
    8  A    between atoms: O_15  and  C_33
    9  A    between atoms: C_16  and  P_23
   10  A    between atoms: C_16  and  N_50
   11  A    between atoms: C_21  and  N_27
   12  A    between atoms: C_33  and  C_42
   13  A    between atoms: C_34  and  C_48
   14  A    between atoms: C_36  and  C_38
   15  A    between atoms: C_38  and  N_50
                            x       y       z     vdW  Elec       q    Type
                         _______ _______ _______ _____ _____    ______ ____

>  <TORSDO>
F 15

$$$$
=
 OpenBabel11032421103D

 50 55  0  0  1  0  0  0  0  0999 V2000
  185.1830  178.2780  139.3210 N   0  0  0  0  0  0  0  0  0  0  0  0
  185.1840  177.3430  137.1640 N   0  0  0  0  0  2  0  0  0  0  0  0
  184.4830  177.8190  138.3210 C   0  0  0  0  0  0  0  0  0  0  0  0
  180.8740  179.0230  138.1530 C   0  0  0  0  0  0  0  0  0  0  0  0
  182.9940  177.7720  138.2880 C   0  0  0  0  0  0  0  0  0  0  0  0
  182.2200  176.4300  138.2470 C   0  0  2  0  0  3  0  0  0  0  0  0
  181.0440  176.9170  138.6770 C   0  0  0  0  0  0  0  0  0  0  0  0
  181.7100  175.9330  139.4160 N   0  0  0  0  0  0  0  0  0  0  0  0
  180.1550  177.9850  138.5090 N   0  0  0  0  0  0  0  0  0  0  0  0
  182.3460  178.9290  138.1500 N   0  0  0  0  0  0  0  0  0  0  0  0
  180.5900  183.3860  137.4540 C   0  0  0  0  0  1  0  0  0  0  0  0
  180.8030  181.0460  136.8040 N   0  0  0  0  0  2  0  0  0  0  0  0
  180.6950  181.3900  138.9290 C   0  0  0  0  0  2  0  0  0  0  0  0
  181.2980  182.0700  137.7200 C   0  0  2  0  0  3  0  0  0  0  0  0
  180.2030  180.3500  137.9400 C   0  0  2  0  0  3  0  0  0  0  0  0
  188.6140  178.9980  136.8360 C   0  0  0  0  0  2  0  0  0  0  0  0
  187.1280  176.5530  135.8570 C   0  0  1  0  0  3  0  0  0  0  0  0
  189.3390  177.6930  136.4910 C   0  0  0  0  0  2  0  0  0  0  0  0
  186.6340  177.4210  137.0270 C   0  0  1  0  0  3  0  0  0  0  0  0
  187.0840  178.8740  136.8550 C   0  0  0  0  0  2  0  0  0  0  0  0
  186.2900  176.6880  134.7470 O   0  0  0  0  0  1  0  0  0  0  0  0
  188.5680  176.8910  135.4380 C   0  0  1  0  0  3  0  0  0  0  0  0
  189.3360  175.6550  134.9780 C   0  0  0  0  0  2  0  0  0  0  0  0
  189.4500  174.5690  136.0530 C   0  0  2  0  0  3  0  0  0  0  0  0
  191.6630  173.0080  136.4710 O   0  0  0  0  0  1  0  0  0  0  0  0
  191.1670  174.4230  136.6520 P   0  0  0  0  0  0  0  0  0  0  0  0
  191.2340  174.8330  138.2920 O   0  0  0  0  0  1  0  0  0  0  0  0
  192.1510  175.4780  135.7700 O   0  0  0  0  0  0  0  0  0  0  0  0
  188.9100  173.2710  135.6310 N   0  0  0  0  0  2  0  0  0  0  0  0
  188.1700  172.6260  136.7140 C   0  0  0  0  0  2  0  0  0  0  0  0
  186.4810  173.1050  135.1120 O   0  0  0  0  0  1  0  0  0  0  0  0
  186.6840  172.6110  136.3990 C   0  0  2  0  0  3  0  0  0  0  0  0
  185.9250  173.4760  137.3910 C   0  0  0  0  0  1  0  0  0  0  0  0
  184.6980  178.8390  140.5750 C   0  0  1  0  0  3  0  0  0  0  0  0
  183.9270  177.8870  141.2490 O   0  0  0  0  0  0  0  0  0  0  0  0
  182.9460  178.6230  141.9140 C   0  0  0  0  0  1  0  0  0  0  0  0
  185.8770  179.2870  141.4390 C   0  0  0  0  0  2  0  0  0  0  0  0
  187.2000  178.6430  141.0260 C   0  0  0  0  0  2  0  0  0  0  0  0
  189.3010  177.8870  145.3400 C   0  0  0  0  0  2  0  0  0  0  0  0
  188.4460  178.0640  146.5810 C   0  0  0  0  0  2  0  0  0  0  0  0
  186.5260  177.0530  145.4970 O   0  0  0  0  0  0  0  0  0  0  0  0
  187.2340  176.8630  144.2850 C   0  0  2  0  0  3  0  0  0  0  0  0
  188.7610  176.7320  144.4990 C   0  0  1  0  0  3  0  0  0  0  0  0
  187.5780  177.6120  141.9770 N   0  0  0  0  0  0  0  0  0  0  0  0
  189.4990  176.6580  143.1610 C   0  0  0  0  0  2  0  0  0  0  0  0
  189.0150  177.7600  142.2140 C   0  0  0  0  0  2  0  0  0  0  0  0
  186.8810  177.9150  143.2250 C   0  0  0  0  0  2  0  0  0  0  0  0
  186.9900  178.2220  146.1440 C   0  0  1  0  0  3  0  0  0  0  0  0
  184.7670  178.6230  146.9540 O   0  0  0  0  0  1  0  0  0  0  0  0
  186.1050  178.5430  147.3390 C   0  0  0  0  0  2  0  0  0  0  0  0
  1 34  1  0  0  0  0
  2  3  1  0  0  0  0
  3  1  2  0  0  0  0
  4  9  2  0  0  0  0
  5  3  1  0  0  0  0
  6  5  1  1  0  0  0
  6  7  1  0  0  0  0
  6  8  1  0  0  0  0
  7  8  2  0  0  0  0
  9  7  1  0  0  0  0
 10  4  1  0  0  0  0
 10  5  2  0  0  0  0
 12 14  1  0  0  0  0
 12 15  1  0  0  0  0
 14 11  1  6  0  0  0
 14 13  1  0  0  0  0
 15  4  1  1  0  0  0
 15 13  1  0  0  0  0
 16 20  1  0  0  0  0
 17 21  1  6  0  0  0
 17 19  1  0  0  0  0
 18 16  1  0  0  0  0
 19  2  1  6  0  0  0
 20 19  1  0  0  0  0
 22 23  1  1  0  0  0
 22 17  1  0  0  0  0
 22 18  1  0  0  0  0
 24 23  1  6  0  0  0
 24 26  1  0  0  0  0
 25 26  1  0  0  0  0
 26 27  1  0  0  0  0
 28 26  2  0  0  0  0
 29 24  1  0  0  0  0
 29 30  1  0  0  0  0
 31 32  1  0  0  0  0
 32 30  1  0  0  0  0
 32 33  1  1  0  0  0
 34 35  1  0  0  0  0
 34 37  1  1  0  0  0
 35 36  1  0  0  0  0
 38 37  1  0  0  0  0
 38 44  1  0  0  0  0
 39 40  1  0  0  0  0
 41 48  1  0  0  0  0
 42 47  1  6  0  0  0
 42 43  1  0  0  0  0
 42 41  1  0  0  0  0
 43 45  1  6  0  0  0
 43 39  1  0  0  0  0
 44 46  1  0  0  0  0
 44 47  1  0  0  0  0
 46 45  1  0  0  0  0
 48 40  1  0  0  0  0
 48 50  1  1  0  0  0
 49 50  1  0  0  0  0
M  END
>  <MODEL>
8

>  <REMARK>
 VINA RESULT:      -7.8      3.119      9.115
  Name = 
  15 active torsions:
  status: ('A' for Active; 'I' for Inactive)
    1  A    between atoms: C_1  and  C_49
    2  A    between atoms: N_4  and  C_33
    3  A    between atoms: C_6  and  C_35
    4  A    between atoms: C_7  and  N_24
    5  A    between atoms: C_7  and  C_42
    6  A    between atoms: C_10  and  C_16
    7  A    between atoms: C_10  and  C_44
    8  A    between atoms: O_15  and  C_33
    9  A    between atoms: C_16  and  P_23
   10  A    between atoms: C_16  and  N_50
   11  A    between atoms: C_21  and  N_27
   12  A    between atoms: C_33  and  C_42
   13  A    between atoms: C_34  and  C_48
   14  A    between atoms: C_36  and  C_38
   15  A    between atoms: C_38  and  N_50
                            x       y       z     vdW  Elec       q    Type
                         _______ _______ _______ _____ _____    ______ ____

>  <TORSDO>
F 15

$$$$
=
 OpenBabel11032421103D

 50 55  0  0  1  0  0  0  0  0999 V2000
  186.9470  177.6790  142.4430 N   0  0  0  0  0  0  0  0  0  0  0  0
  184.6690  178.2010  142.7020 N   0  0  0  0  0  2  0  0  0  0  0  0
  185.9810  178.0210  143.2500 C   0  0  0  0  0  0  0  0  0  0  0  0
  187.3630  177.6990  146.7840 C   0  0  0  0  0  0  0  0  0  0  0  0
  186.1520  178.2590  144.7110 C   0  0  0  0  0  0  0  0  0  0  0  0
  185.3530  179.3560  145.4590 C   0  0  2  0  0  3  0  0  0  0  0  0
  185.5200  178.8550  146.6940 C   0  0  0  0  0  0  0  0  0  0  0  0
  184.2350  178.9890  146.1590 N   0  0  0  0  0  0  0  0  0  0  0  0
  186.4820  178.3010  147.5470 N   0  0  0  0  0  0  0  0  0  0  0  0
  187.1230  177.5900  145.3330 N   0  0  0  0  0  0  0  0  0  0  0  0
  191.5840  176.7570  147.7360 C   0  0  0  0  0  1  0  0  0  0  0  0
  189.4500  177.9010  148.0180 N   0  0  0  0  0  2  0  0  0  0  0  0
  189.5170  176.5010  146.3810 C   0  0  0  0  0  2  0  0  0  0  0  0
  190.4520  177.4910  147.0390 C   0  0  2  0  0  3  0  0  0  0  0  0
  188.5080  176.9600  147.4160 C   0  0  2  0  0  3  0  0  0  0  0  0
  184.6170  179.2470  139.0250 C   0  0  0  0  0  2  0  0  0  0  0  0
  182.9010  177.7680  141.0280 C   0  0  1  0  0  3  0  0  0  0  0  0
  183.6550  178.1320  138.6020 C   0  0  0  0  0  2  0  0  0  0  0  0
  184.3840  178.0950  141.2750 C   0  0  1  0  0  3  0  0  0  0  0  0
  184.7880  179.3780  140.5450 C   0  0  0  0  0  2  0  0  0  0  0  0
  182.0790  178.5170  141.8750 O   0  0  0  0  0  1  0  0  0  0  0  0
  182.4750  178.0180  139.5730 C   0  0  1  0  0  3  0  0  0  0  0  0
  181.4330  177.0080  139.0990 C   0  0  0  0  0  2  0  0  0  0  0  0
  181.8090  176.3090  137.7880 C   0  0  2  0  0  3  0  0  0  0  0  0
  181.2250  176.5680  135.1230 O   0  0  0  0  0  0  0  0  0  0  0  0
  180.5800  176.6600  136.4870 P   0  0  0  0  0  0  0  0  0  0  0  0
  179.9500  178.2150  136.7010 O   0  0  0  0  0  1  0  0  0  0  0  0
  179.3270  175.5290  136.5900 O   0  0  0  0  0  1  0  0  0  0  0  0
  182.0430  174.8680  137.9410 N   0  0  0  0  0  2  0  0  0  0  0  0
  182.9910  174.3750  136.9450 C   0  0  0  0  0  2  0  0  0  0  0  0
  181.2440  172.7740  136.7670 O   0  0  0  0  0  1  0  0  0  0  0  0
  182.5910  172.9830  136.4830 C   0  0  2  0  0  3  0  0  0  0  0  0
  183.4220  171.9310  137.1960 C   0  0  0  0  0  1  0  0  0  0  0  0
  188.3530  177.4740  142.7590 C   0  0  1  0  0  3  0  0  0  0  0  0
  188.6340  176.1040  142.7870 O   0  0  0  0  0  0  0  0  0  0  0  0
  190.0250  176.0210  142.8420 C   0  0  0  0  0  1  0  0  0  0  0  0
  189.2310  178.1820  141.7270 C   0  0  0  0  0  2  0  0  0  0  0  0
  188.4650  178.5900  140.4690 C   0  0  0  0  0  2  0  0  0  0  0  0
  189.7300  176.9490  136.0760 C   0  0  0  0  0  2  0  0  0  0  0  0
  191.1040  176.3220  135.9260 C   0  0  0  0  0  2  0  0  0  0  0  0
  190.9320  175.2400  138.0890 O   0  0  0  0  0  0  0  0  0  0  0  0
  189.6510  175.7940  138.3330 C   0  0  2  0  0  3  0  0  0  0  0  0
  188.8800  176.1110  137.0290 C   0  0  1  0  0  3  0  0  0  0  0  0
  188.3430  177.4620  139.5640 N   0  0  0  0  0  0  0  0  0  0  0  0
  187.5600  176.8250  137.3310 C   0  0  0  0  0  2  0  0  0  0  0  0
  187.7820  177.9770  138.3150 C   0  0  0  0  0  2  0  0  0  0  0  0
  189.7000  176.9930  139.2900 C   0  0  0  0  0  2  0  0  0  0  0  0
  191.7050  176.1400  137.3190 C   0  0  1  0  0  3  0  0  0  0  0  0
  194.0110  176.7060  136.9740 O   0  0  0  0  0  1  0  0  0  0  0  0
  193.1400  175.6460  137.2220 C   0  0  0  0  0  2  0  0  0  0  0  0
  1 34  1  0  0  0  0
  1  3  2  0  0  0  0
  2  3  1  0  0  0  0
  3  5  1  0  0  0  0
  4  9  2  0  0  0  0
  5 10  2  0  0  0  0
  6  5  1  6  0  0  0
  6  8  1  0  0  0  0
  6  7  1  0  0  0  0
  7  9  1  0  0  0  0
  8  7  2  0  0  0  0
 10  4  1  0  0  0  0
 13 14  1  0  0  0  0
 13 15  1  0  0  0  0
 14 11  1  1  0  0  0
 14 12  1  0  0  0  0
 15  4  1  6  0  0  0
 15 12  1  0  0  0  0
 16 20  1  0  0  0  0
 17 19  1  0  0  0  0
 17 21  1  1  0  0  0
 18 16  1  0  0  0  0
 18 22  1  0  0  0  0
 19  2  1  1  0  0  0
 20 19  1  0  0  0  0
 22 23  1  6  0  0  0
 22 17  1  0  0  0  0
 24 29  1  0  0  0  0
 24 23  1  1  0  0  0
 25 26  2  0  0  0  0
 26 28  1  0  0  0  0
 26 27  1  0  0  0  0
 26 24  1  0  0  0  0
 30 29  1  0  0  0  0
 32 31  1  0  0  0  0
 32 30  1  0  0  0  0
 32 33  1  1  0  0  0
 34 37  1  6  0  0  0
 34 35  1  0  0  0  0
 35 36  1  0  0  0  0
 38 37  1  0  0  0  0
 40 39  1  0  0  0  0
 40 48  1  0  0  0  0
 41 42  1  0  0  0  0
 42 47  1  6  0  0  0
 43 39  1  6  0  0  0
 43 45  1  0  0  0  0
 43 42  1  0  0  0  0
 44 38  1  0  0  0  0
 45 46  1  0  0  0  0
 46 44  1  0  0  0  0
 47 44  1  0  0  0  0
 48 50  1  6  0  0  0
 48 41  1  0  0  0  0
 49 50  1  0  0  0  0
M  END
>  <MODEL>
9

>  <REMARK>
 VINA RESULT:      -7.8      3.399      9.898
  Name = 
  15 active torsions:
  status: ('A' for Active; 'I' for Inactive)
    1  A    between atoms: C_1  and  C_49
    2  A    between atoms: N_4  and  C_33
    3  A    between atoms: C_6  and  C_35
    4  A    between atoms: C_7  and  N_24
    5  A    between atoms: C_7  and  C_42
    6  A    between atoms: C_10  and  C_16
    7  A    between atoms: C_10  and  C_44
    8  A    between atoms: O_15  and  C_33
    9  A    between atoms: C_16  and  P_23
   10  A    between atoms: C_16  and  N_50
   11  A    between atoms: C_21  and  N_27
   12  A    between atoms: C_33  and  C_42
   13  A    between atoms: C_34  and  C_48
   14  A    between atoms: C_36  and  C_38
   15  A    between atoms: C_38  and  N_50
                            x       y       z     vdW  Elec       q    Type
                         _______ _______ _______ _____ _____    ______ ____

>  <TORSDO>
F 15

$$$$
