=
 OpenBabel11042413293D

 56 60  0  0  1  0  0  0  0  0999 V2000
  188.5620  178.4760  138.8010 C   0  0  0  0  0  3  0  0  0  0  0  0
  189.3470  178.8450  137.5940 C   0  0  0  0  0  2  0  0  0  0  0  0
  190.5510  176.7100  137.3050 C   0  0  0  0  0  3  0  0  0  0  0  0
  189.0390  177.6930  139.7730 C   0  0  0  0  0  0  0  0  0  0  0  0
  189.7120  177.6210  136.8040 C   0  0  0  0  0  0  0  0  0  0  0  0
  190.4140  177.1440  139.7560 C   0  0  0  0  0  3  0  0  0  0  0  0
  191.1150  176.7480  138.6730 C   0  0  0  0  0  0  0  0  0  0  0  0
  185.5490  176.5810  135.3440 C   0  0  0  0  0  0  0  0  0  0  0  0
  188.9390  174.8450  135.2930 C   0  0  0  0  0  2  0  0  0  0  0  0
  185.5930  177.7620  134.8110 N   0  0  0  0  0  0  0  0  0  0  0  0
  186.9080  178.2330  134.8410 N   0  0  0  0  0  0  0  0  0  0  0  0
  189.6780  176.1040  134.8070 C   0  0  0  0  0  2  0  0  0  0  0  0
  187.4300  174.9650  135.0700 C   0  0  0  0  0  2  0  0  0  0  0  0
  189.1440  177.3970  135.4380 C   0  0  1  0  0  3  0  0  0  0  0  0
  187.6480  177.3640  135.4450 C   0  0  0  0  0  0  0  0  0  0  0  0
  186.8840  176.1540  135.8480 C   0  0  1  0  0  3  0  0  0  0  0  0
  184.2850  175.8240  135.5190 C   0  0  0  0  0  2  0  0  0  0  0  0
  183.2390  176.7010  135.8050 O   0  0  0  0  0  0  0  0  0  0  0  0
  182.8850  176.4330  137.1310 C   0  0  0  0  0  2  0  0  0  0  0  0
  183.1130  177.6680  137.9850 C   0  0  0  0  0  2  0  0  0  0  0  0
  183.5320  177.2840  139.3210 N   0  0  0  0  0  2  0  0  0  0  0  0
  184.2490  178.4190  139.8880 C   0  0  1  0  0  3  0  0  0  0  0  0
  183.8510  179.6940  139.1680 C   0  0  0  0  0  1  0  0  0  0  0  0
  185.9490  178.1550  144.5800 C   0  0  0  0  0  1  0  0  0  0  0  0
  183.5450  178.6790  144.1280 C   0  0  0  0  0  3  0  0  0  0  0  0
  182.7050  178.8080  141.8580 C   0  0  0  0  0  3  0  0  0  0  0  0
  182.4860  178.8920  143.2390 C   0  0  0  0  0  3  0  0  0  0  0  0
  185.0410  178.2960  142.2540 C   0  0  0  0  0  3  0  0  0  0  0  0
  184.8220  178.3800  143.6340 C   0  0  0  0  0  0  0  0  0  0  0  0
  183.9880  178.5140  141.3620 C   0  0  0  0  0  0  0  0  0  0  0  0
  192.5430  176.2880  138.8320 C   0  0  2  0  0  3  0  0  0  0  0  0
  193.2840  177.1330  139.7570 N   0  0  0  0  0  1  0  0  0  0  0  0
  191.5180  173.8430  137.8020 O   0  0  0  0  0  0  0  0  0  0  0  0
  193.2850  174.9730  136.7480 N   0  0  0  0  0  2  0  0  0  0  0  0
  193.2700  176.1940  137.5030 C   0  0  0  0  0  0  0  0  0  0  0  0
  193.8810  177.2010  137.0260 O   0  0  0  0  0  0  0  0  0  0  0  0
  192.4730  173.8110  136.9770 C   0  0  0  0  0  0  0  0  0  0  0  0
  192.6970  172.6370  136.2550 O   0  0  0  0  0  0  0  0  0  0  0  0
  194.0000  172.2520  135.8340 C   0  0  0  0  0  2  0  0  0  0  0  0
  195.5280  172.1350  137.6680 O   0  0  0  0  0  1  0  0  0  0  0  0
  194.6720  171.3680  136.8780 C   0  0  2  0  0  3  0  0  0  0  0  0
  194.8840  169.9090  135.0030 O   0  0  0  0  0  1  0  0  0  0  0  0
  195.4510  170.2360  136.2330 C   0  0  0  0  0  2  0  0  0  0  0  0
  188.2370  177.5150  141.0290 C   0  0  0  0  0  2  0  0  0  0  0  0
  189.0780  176.4490  143.2190 C   0  0  0  0  0  3  0  0  0  0  0  0
  189.0900  177.5780  142.2510 C   0  0  0  0  0  0  0  0  0  0  0  0
  189.8540  178.6590  142.4650 C   0  0  0  0  0  3  0  0  0  0  0  0
  191.3370  179.8120  143.9080 O   0  0  0  0  0  0  0  0  0  0  0  0
  190.6700  178.7660  143.6910 C   0  0  0  0  0  0  0  0  0  0  0  0
  190.6550  177.6530  144.6650 C   0  0  0  0  0  0  0  0  0  0  0  0
  189.8120  176.4810  144.3520 C   0  0  0  0  0  3  0  0  0  0  0  0
  191.3850  177.7270  145.7440 N   0  0  0  0  0  0  0  0  0  0  0  0
  190.1230  176.1850  147.4710 O   0  0  0  0  0  0  0  0  0  0  0  0
  192.2960  175.0530  146.3430 C   0  0  0  0  0  1  0  0  0  0  0  0
  192.3080  177.0350  148.1730 O   0  0  0  0  0  0  0  0  0  0  0  0
  191.5120  176.5290  147.0000 S   0  0  0  0  0  0  0  0  0  0  0  0
  1  4  2  0  0  0  0
  2  1  1  0  0  0  0
  3  7  1  0  0  0  0
  4 44  1  0  0  0  0
  5  3  2  0  0  0  0
  5  2  1  0  0  0  0
  6  4  1  0  0  0  0
  7 31  1  0  0  0  0
  7  6  2  0  0  0  0
  8 17  1  0  0  0  0
  8 16  1  0  0  0  0
 10 11  1  0  0  0  0
 10  8  2  0  0  0  0
 11 15  2  0  0  0  0
 12  9  1  0  0  0  0
 12 14  1  0  0  0  0
 13  9  1  0  0  0  0
 14 15  1  0  0  0  0
 14  5  1  1  0  0  0
 15 16  1  0  0  0  0
 16 13  1  6  0  0  0
 17 18  1  0  0  0  0
 18 19  1  0  0  0  0
 19 20  1  0  0  0  0
 20 21  1  0  0  0  0
 21 22  1  0  0  0  0
 22 23  1  6  0  0  0
 22 30  1  0  0  0  0
 26 27  1  0  0  0  0
 27 25  2  0  0  0  0
 28 29  2  0  0  0  0
 29 25  1  0  0  0  0
 29 24  1  0  0  0  0
 30 26  2  0  0  0  0
 30 28  1  0  0  0  0
 31 32  1  1  0  0  0
 34 37  1  0  0  0  0
 34 35  1  0  0  0  0
 35 31  1  0  0  0  0
 36 35  2  0  0  0  0
 37 33  2  0  0  0  0
 38 37  1  0  0  0  0
 39 38  1  0  0  0  0
 39 41  1  0  0  0  0
 41 40  1  6  0  0  0
 42 43  1  0  0  0  0
 43 41  1  0  0  0  0
 44 46  1  0  0  0  0
 45 51  2  0  0  0  0
 46 47  2  0  0  0  0
 46 45  1  0  0  0  0
 47 49  1  0  0  0  0
 49 48  2  0  0  0  0
 49 50  1  0  0  0  0
 50 52  2  0  0  0  0
 51 50  1  0  0  0  0
 52 56  1  0  0  0  0
 54 56  1  0  0  0  0
 56 53  2  0  0  0  0
 56 55  2  0  0  0  0
M  END
>  <MODEL>
1

>  <REMARK>
 VINA RESULT:      -7.9      0.000      0.000
  Name = 
  17 active torsions:
  status: ('A' for Active; 'I' for Inactive)
    1  A    between atoms: C_5  and  C_43
    2  A    between atoms: C_7  and  N_32
    3  A    between atoms: C_7  and  C_52
    4  A    between atoms: C_9  and  C_34
    5  A    between atoms: C_9  and  C_48
    6  A    between atoms: C_17  and  C_33
    7  A    between atoms: C_17  and  C_46
    8  A    between atoms: C_18  and  C_55
    9  A    between atoms: C_25  and  C_44
   10  A    between atoms: C_25  and  O_47
   11  A    between atoms: C_27  and  C_55
   12  A    between atoms: N_32  and  C_44
   13  A    between atoms: C_34  and  O_51
   14  A    between atoms: S_35  and  N_56
   15  A    between atoms: C_38  and  C_39
   16  A    between atoms: C_43  and  O_47
   17  A    between atoms: O_51  and  C_53
                            x       y       z     vdW  Elec       q    Type
                         _______ _______ _______ _____ _____    ______ ____

>  <TORSDO>
F 17

$$$$
=
 OpenBabel11042413293D

 56 60  0  0  1  0  0  0  0  0999 V2000
  189.3250  178.4160  139.4330 C   0  0  0  0  0  3  0  0  0  0  0  0
  189.1380  178.9860  138.0730 C   0  0  0  0  0  2  0  0  0  0  0  0
  188.5420  176.8930  136.9070 C   0  0  0  0  0  3  0  0  0  0  0  0
  189.8450  177.2050  139.6560 C   0  0  0  0  0  0  0  0  0  0  0  0
  188.2010  178.1340  137.2670 C   0  0  0  0  0  0  0  0  0  0  0  0
  190.3190  176.3250  138.5620 C   0  0  0  0  0  3  0  0  0  0  0  0
  189.7850  176.2080  137.3280 C   0  0  0  0  0  0  0  0  0  0  0  0
  183.9710  177.1460  138.5610 C   0  0  0  0  0  0  0  0  0  0  0  0
  185.9520  176.8070  135.3250 C   0  0  0  0  0  2  0  0  0  0  0  0
  183.9760  178.3590  139.0160 N   0  0  0  0  0  0  0  0  0  0  0  0
  185.0770  179.0430  138.4930 N   0  0  0  0  0  0  0  0  0  0  0  0
  186.5140  178.2370  135.4130 C   0  0  0  0  0  2  0  0  0  0  0  0
  184.7440  176.6270  136.2460 C   0  0  0  0  0  2  0  0  0  0  0  0
  186.8640  178.6590  136.8470 C   0  0  1  0  0  3  0  0  0  0  0  0
  185.7690  178.2270  137.7710 C   0  0  0  0  0  0  0  0  0  0  0  0
  185.1500  176.8780  137.6910 C   0  0  1  0  0  3  0  0  0  0  0  0
  182.9610  176.1370  138.9690 C   0  0  0  0  0  2  0  0  0  0  0  0
  181.6800  176.5890  138.6530 O   0  0  0  0  0  0  0  0  0  0  0  0
  181.0040  175.4670  138.1640 C   0  0  0  0  0  2  0  0  0  0  0  0
  181.3600  175.2460  136.7040 C   0  0  0  0  0  2  0  0  0  0  0  0
  181.0110  173.8940  136.3020 N   0  0  0  0  0  2  0  0  0  0  0  0
  181.6270  172.9890  137.2640 C   0  0  1  0  0  3  0  0  0  0  0  0
  180.6970  171.8250  137.5500 C   0  0  0  0  0  1  0  0  0  0  0  0
  186.6060  173.4130  137.2180 C   0  0  0  0  0  1  0  0  0  0  0  0
  185.4670  171.6740  135.8270 C   0  0  0  0  0  3  0  0  0  0  0  0
  183.0530  171.4580  135.8360 C   0  0  0  0  0  3  0  0  0  0  0  0
  184.3070  171.0370  135.3740 C   0  0  0  0  0  3  0  0  0  0  0  0
  184.1190  173.1560  137.1970 C   0  0  0  0  0  3  0  0  0  0  0  0
  185.3720  172.7350  136.7370 C   0  0  0  0  0  0  0  0  0  0  0  0
  182.9570  172.5190  136.7540 C   0  0  0  0  0  0  0  0  0  0  0  0
  190.4490  175.3200  136.3060 C   0  0  2  0  0  3  0  0  0  0  0  0
  189.5790  175.0570  135.1680 N   0  0  0  0  0  1  0  0  0  0  0  0
  193.2110  175.8820  136.6860 O   0  0  0  0  0  0  0  0  0  0  0  0
  192.3430  173.7240  137.0080 N   0  0  0  0  0  2  0  0  0  0  0  0
  190.9400  174.0160  136.9070 C   0  0  0  0  0  0  0  0  0  0  0  0
  190.1170  173.1510  137.3410 O   0  0  0  0  0  0  0  0  0  0  0  0
  193.4270  174.6440  136.8080 C   0  0  0  0  0  0  0  0  0  0  0  0
  194.7480  174.1890  136.7930 O   0  0  0  0  0  0  0  0  0  0  0  0
  195.2260  173.2420  137.7420 C   0  0  0  0  0  2  0  0  0  0  0  0
  195.5800  175.1160  139.1820 O   0  0  0  0  0  1  0  0  0  0  0  0
  196.1380  173.9080  138.7650 C   0  0  2  0  0  3  0  0  0  0  0  0
  197.6180  175.4610  137.7230 O   0  0  0  0  0  1  0  0  0  0  0  0
  197.5260  174.1550  138.2000 C   0  0  0  0  0  2  0  0  0  0  0  0
  190.1510  176.7860  141.0630 C   0  0  0  0  0  2  0  0  0  0  0  0
  187.8460  177.8500  141.4990 C   0  0  0  0  0  3  0  0  0  0  0  0
  189.0410  177.1230  142.0010 C   0  0  0  0  0  0  0  0  0  0  0  0
  189.1400  176.7690  143.2910 C   0  0  0  0  0  3  0  0  0  0  0  0
  188.2080  176.8470  145.4680 O   0  0  0  0  0  0  0  0  0  0  0  0
  188.0750  177.1330  144.2480 C   0  0  0  0  0  0  0  0  0  0  0  0
  186.8890  177.8680  143.7600 C   0  0  0  0  0  0  0  0  0  0  0  0
  186.8340  178.2010  142.3210 C   0  0  0  0  0  3  0  0  0  0  0  0
  185.9330  178.1800  144.5920 N   0  0  0  0  0  0  0  0  0  0  0  0
  184.8090  180.4550  143.8730 O   0  0  0  0  0  0  0  0  0  0  0  0
  183.6680  178.2570  142.8020 C   0  0  0  0  0  1  0  0  0  0  0  0
  183.5080  179.0320  145.3800 O   0  0  0  0  0  0  0  0  0  0  0  0
  184.4610  179.0300  144.2160 S   0  0  0  0  0  0  0  0  0  0  0  0
  1  4  2  0  0  0  0
  2  1  1  0  0  0  0
  3  5  2  0  0  0  0
  3  7  1  0  0  0  0
  4 44  1  0  0  0  0
  5  2  1  0  0  0  0
  6  4  1  0  0  0  0
  7  6  2  0  0  0  0
  8 17  1  0  0  0  0
  8 10  2  0  0  0  0
  9 12  1  0  0  0  0
  9 13  1  0  0  0  0
 11 10  1  0  0  0  0
 12 14  1  0  0  0  0
 14  5  1  1  0  0  0
 14 15  1  0  0  0  0
 15 11  2  0  0  0  0
 16 13  1  6  0  0  0
 16 15  1  0  0  0  0
 16  8  1  0  0  0  0
 18 17  1  0  0  0  0
 19 18  1  0  0  0  0
 20 19  1  0  0  0  0
 21 20  1  0  0  0  0
 21 22  1  0  0  0  0
 22 23  1  6  0  0  0
 25 29  1  0  0  0  0
 26 30  2  0  0  0  0
 27 25  2  0  0  0  0
 27 26  1  0  0  0  0
 29 28  2  0  0  0  0
 29 24  1  0  0  0  0
 30 28  1  0  0  0  0
 30 22  1  0  0  0  0
 31 32  1  6  0  0  0
 31 35  1  0  0  0  0
 31  7  1  0  0  0  0
 33 37  2  0  0  0  0
 35 34  1  0  0  0  0
 35 36  2  0  0  0  0
 37 34  1  0  0  0  0
 38 37  1  0  0  0  0
 38 39  1  0  0  0  0
 39 41  1  0  0  0  0
 41 40  1  6  0  0  0
 42 43  1  0  0  0  0
 43 41  1  0  0  0  0
 44 46  1  0  0  0  0
 45 46  1  0  0  0  0
 45 51  2  0  0  0  0
 46 47  2  0  0  0  0
 47 49  1  0  0  0  0
 49 48  2  0  0  0  0
 50 49  1  0  0  0  0
 50 52  2  0  0  0  0
 51 50  1  0  0  0  0
 53 56  2  0  0  0  0
 54 56  1  0  0  0  0
 56 52  1  0  0  0  0
 56 55  2  0  0  0  0
M  END
>  <MODEL>
2

>  <REMARK>
 VINA RESULT:      -7.6      3.105      5.263
  Name = 
  17 active torsions:
  status: ('A' for Active; 'I' for Inactive)
    1  A    between atoms: C_5  and  C_43
    2  A    between atoms: C_7  and  N_32
    3  A    between atoms: C_7  and  C_52
    4  A    between atoms: C_9  and  C_34
    5  A    between atoms: C_9  and  C_48
    6  A    between atoms: C_17  and  C_33
    7  A    between atoms: C_17  and  C_46
    8  A    between atoms: C_18  and  C_55
    9  A    between atoms: C_25  and  C_44
   10  A    between atoms: C_25  and  O_47
   11  A    between atoms: C_27  and  C_55
   12  A    between atoms: N_32  and  C_44
   13  A    between atoms: C_34  and  O_51
   14  A    between atoms: S_35  and  N_56
   15  A    between atoms: C_38  and  C_39
   16  A    between atoms: C_43  and  O_47
   17  A    between atoms: O_51  and  C_53
                            x       y       z     vdW  Elec       q    Type
                         _______ _______ _______ _____ _____    ______ ____

>  <TORSDO>
F 17

$$$$
=
 OpenBabel11042413293D

 56 60  0  0  1  0  0  0  0  0999 V2000
  182.6650  179.0140  144.2610 C   0  0  0  0  0  3  0  0  0  0  0  0
  181.9940  179.5120  143.0310 C   0  0  0  0  0  2  0  0  0  0  0  0
  183.1530  178.0640  141.4020 C   0  0  0  0  0  3  0  0  0  0  0  0
  183.9480  178.6430  144.2970 C   0  0  0  0  0  0  0  0  0  0  0  0
  182.0050  178.4600  141.9590 C   0  0  0  0  0  0  0  0  0  0  0  0
  184.8380  178.7280  143.1160 C   0  0  0  0  0  3  0  0  0  0  0  0
  184.4960  178.5200  141.8270 C   0  0  0  0  0  0  0  0  0  0  0  0
  180.3750  177.5360  137.8330 C   0  0  0  0  0  0  0  0  0  0  0  0
  179.3480  179.8410  140.6850 C   0  0  0  0  0  2  0  0  0  0  0  0
  180.4940  176.3030  138.2150 N   0  0  0  0  0  0  0  0  0  0  0  0
  180.7050  176.2670  139.5950 N   0  0  0  0  0  0  0  0  0  0  0  0
  179.5220  178.7460  141.7530 C   0  0  0  0  0  2  0  0  0  0  0  0
  179.2690  179.2400  139.2810 C   0  0  0  0  0  2  0  0  0  0  0  0
  180.7290  177.8350  141.4900 C   0  0  1  0  0  3  0  0  0  0  0  0
  180.7730  177.4770  140.0380 C   0  0  0  0  0  0  0  0  0  0  0  0
  180.5530  178.4850  138.9670 C   0  0  1  0  0  3  0  0  0  0  0  0
  180.1980  177.9240  136.4110 C   0  0  0  0  0  2  0  0  0  0  0  0
  180.8470  177.0090  135.5820 O   0  0  0  0  0  0  0  0  0  0  0  0
  182.1420  177.5120  135.4220 C   0  0  0  0  0  2  0  0  0  0  0  0
  183.0790  176.3950  134.9950 C   0  0  0  0  0  2  0  0  0  0  0  0
  182.9320  175.2520  135.8780 N   0  0  0  0  0  2  0  0  0  0  0  0
  184.2190  174.5670  135.9090 C   0  0  1  0  0  3  0  0  0  0  0  0
  185.0650  175.1070  137.0470 C   0  0  0  0  0  1  0  0  0  0  0  0
  185.7810  169.9210  134.9380 C   0  0  0  0  0  1  0  0  0  0  0  0
  183.6730  170.3080  136.2280 C   0  0  0  0  0  3  0  0  0  0  0  0
  182.9010  172.5550  136.7050 C   0  0  0  0  0  3  0  0  0  0  0  0
  182.7320  171.1680  136.8040 C   0  0  0  0  0  3  0  0  0  0  0  0
  184.9480  172.2220  135.4500 C   0  0  0  0  0  3  0  0  0  0  0  0
  184.7800  170.8360  135.5500 C   0  0  0  0  0  0  0  0  0  0  0  0
  184.0150  173.0860  136.0300 C   0  0  0  0  0  0  0  0  0  0  0  0
  185.5170  178.7300  140.7380 C   0  0  2  0  0  3  0  0  0  0  0  0
  186.6240  179.5640  141.1860 N   0  0  0  0  0  1  0  0  0  0  0  0
  187.0340  177.4060  138.7290 O   0  0  0  0  0  0  0  0  0  0  0  0
  185.5400  179.1380  138.1970 N   0  0  0  0  0  2  0  0  0  0  0  0
  184.9040  179.3020  139.4730 C   0  0  0  0  0  0  0  0  0  0  0  0
  183.8050  179.9390  139.5160 O   0  0  0  0  0  0  0  0  0  0  0  0
  186.6370  178.2630  137.8910 C   0  0  0  0  0  0  0  0  0  0  0  0
  187.2550  178.3120  136.6380 O   0  0  0  0  0  0  0  0  0  0  0  0
  188.6680  178.2360  136.4960 C   0  0  0  0  0  2  0  0  0  0  0  0
  188.0450  176.1830  135.4430 O   0  0  0  0  0  1  0  0  0  0  0  0
  189.0600  177.1370  135.5160 C   0  0  2  0  0  3  0  0  0  0  0  0
  190.6460  176.7450  137.2530 O   0  0  0  0  0  1  0  0  0  0  0  0
  190.3620  176.4670  135.9180 C   0  0  0  0  0  2  0  0  0  0  0  0
  184.5790  178.3170  145.6180 C   0  0  0  0  0  2  0  0  0  0  0  0
  186.5310  177.4160  144.1980 C   0  0  0  0  0  3  0  0  0  0  0  0
  186.0250  177.9750  145.4790 C   0  0  0  0  0  0  0  0  0  0  0  0
  186.8500  178.1710  146.5180 C   0  0  0  0  0  3  0  0  0  0  0  0
  189.0260  177.9300  147.4220 O   0  0  0  0  0  0  0  0  0  0  0  0
  188.2750  177.7960  146.4200 C   0  0  0  0  0  0  0  0  0  0  0  0
  188.7840  177.2270  145.1530 C   0  0  0  0  0  0  0  0  0  0  0  0
  187.8250  177.0650  144.0410 C   0  0  0  0  0  3  0  0  0  0  0  0
  190.0450  176.9080  145.0480 N   0  0  0  0  0  0  0  0  0  0  0  0
  189.8470  175.3760  142.9100 O   0  0  0  0  0  0  0  0  0  0  0  0
  191.3810  177.5690  142.5750 C   0  0  0  0  0  1  0  0  0  0  0  0
  192.0210  175.3920  144.0330 O   0  0  0  0  0  0  0  0  0  0  0  0
  190.8370  176.2380  143.6500 S   0  0  0  0  0  0  0  0  0  0  0  0
  1  4  2  0  0  0  0
  2  1  1  0  0  0  0
  3  7  1  0  0  0  0
  3  5  2  0  0  0  0
  4 44  1  0  0  0  0
  5  2  1  0  0  0  0
  6  4  1  0  0  0  0
  7  6  2  0  0  0  0
  8 10  2  0  0  0  0
  8 16  1  0  0  0  0
  9 12  1  0  0  0  0
 10 11  1  0  0  0  0
 11 15  2  0  0  0  0
 13  9  1  0  0  0  0
 14 12  1  0  0  0  0
 14  5  1  6  0  0  0
 15 14  1  0  0  0  0
 16 13  1  1  0  0  0
 16 15  1  0  0  0  0
 17  8  1  0  0  0  0
 18 17  1  0  0  0  0
 19 18  1  0  0  0  0
 20 19  1  0  0  0  0
 20 21  1  0  0  0  0
 21 22  1  0  0  0  0
 22 30  1  0  0  0  0
 22 23  1  1  0  0  0
 24 29  1  0  0  0  0
 25 27  1  0  0  0  0
 26 27  2  0  0  0  0
 28 29  1  0  0  0  0
 28 30  2  0  0  0  0
 29 25  2  0  0  0  0
 30 26  1  0  0  0  0
 31 32  1  1  0  0  0
 31  7  1  0  0  0  0
 34 35  1  0  0  0  0
 35 36  2  0  0  0  0
 35 31  1  0  0  0  0
 37 34  1  0  0  0  0
 37 33  2  0  0  0  0
 38 37  1  0  0  0  0
 39 38  1  0  0  0  0
 41 40  1  1  0  0  0
 41 43  1  0  0  0  0
 41 39  1  0  0  0  0
 43 42  1  0  0  0  0
 45 46  1  0  0  0  0
 46 44  1  0  0  0  0
 46 47  2  0  0  0  0
 49 47  1  0  0  0  0
 49 48  2  0  0  0  0
 50 49  1  0  0  0  0
 51 45  2  0  0  0  0
 51 50  1  0  0  0  0
 52 50  2  0  0  0  0
 53 56  2  0  0  0  0
 54 56  1  0  0  0  0
 56 55  2  0  0  0  0
 56 52  1  0  0  0  0
M  END
>  <MODEL>
3

>  <REMARK>
 VINA RESULT:      -7.2      3.484      7.522
  Name = 
  17 active torsions:
  status: ('A' for Active; 'I' for Inactive)
    1  A    between atoms: C_5  and  C_43
    2  A    between atoms: C_7  and  N_32
    3  A    between atoms: C_7  and  C_52
    4  A    between atoms: C_9  and  C_34
    5  A    between atoms: C_9  and  C_48
    6  A    between atoms: C_17  and  C_33
    7  A    between atoms: C_17  and  C_46
    8  A    between atoms: C_18  and  C_55
    9  A    between atoms: C_25  and  C_44
   10  A    between atoms: C_25  and  O_47
   11  A    between atoms: C_27  and  C_55
   12  A    between atoms: N_32  and  C_44
   13  A    between atoms: C_34  and  O_51
   14  A    between atoms: S_35  and  N_56
   15  A    between atoms: C_38  and  C_39
   16  A    between atoms: C_43  and  O_47
   17  A    between atoms: O_51  and  C_53
                            x       y       z     vdW  Elec       q    Type
                         _______ _______ _______ _____ _____    ______ ____

>  <TORSDO>
F 17

$$$$
=
 OpenBabel11042413293D

 56 60  0  0  1  0  0  0  0  0999 V2000
  185.9850  178.3240  140.1980 C   0  0  0  0  0  3  0  0  0  0  0  0
  184.6350  177.7240  140.3610 C   0  0  0  0  0  2  0  0  0  0  0  0
  183.9550  178.9640  142.3840 C   0  0  0  0  0  3  0  0  0  0  0  0
  186.7690  178.6580  141.2280 C   0  0  0  0  0  0  0  0  0  0  0  0
  183.7260  178.6600  141.1030 C   0  0  0  0  0  0  0  0  0  0  0  0
  186.3770  178.4270  142.6370 C   0  0  0  0  0  3  0  0  0  0  0  0
  185.1340  178.5130  143.1570 C   0  0  0  0  0  0  0  0  0  0  0  0
  179.9290  176.8930  139.3700 C   0  0  0  0  0  0  0  0  0  0  0  0
  182.9400  178.7400  137.9460 C   0  0  0  0  0  2  0  0  0  0  0  0
  179.3530  177.5540  140.3240 N   0  0  0  0  0  0  0  0  0  0  0  0
  180.2620  178.4620  140.8710 N   0  0  0  0  0  0  0  0  0  0  0  0
  182.9060  179.8250  139.0380 C   0  0  0  0  0  2  0  0  0  0  0  0
  181.6200  177.9710  137.8850 C   0  0  0  0  0  2  0  0  0  0  0  0
  182.5420  179.2730  140.4230 C   0  0  1  0  0  3  0  0  0  0  0  0
  181.4040  178.3090  140.2890 C   0  0  0  0  0  0  0  0  0  0  0  0
  181.3590  177.2810  139.2160 C   0  0  1  0  0  3  0  0  0  0  0  0
  179.2510  175.8070  138.6190 C   0  0  0  0  0  2  0  0  0  0  0  0
  180.1160  175.2770  137.6610 O   0  0  0  0  0  0  0  0  0  0  0  0
  180.0230  173.8900  137.8090 C   0  0  0  0  0  2  0  0  0  0  0  0
  181.0250  173.2060  136.8940 C   0  0  0  0  0  2  0  0  0  0  0  0
  182.2430  173.9920  136.8070 N   0  0  0  0  0  2  0  0  0  0  0  0
  183.2940  173.2250  137.4630 C   0  0  1  0  0  3  0  0  0  0  0  0
  183.3270  171.8120  136.9110 C   0  0  0  0  0  1  0  0  0  0  0  0
  185.8870  177.4160  136.6340 C   0  0  0  0  0  1  0  0  0  0  0  0
  187.0690  175.2380  136.9750 C   0  0  0  0  0  3  0  0  0  0  0  0
  185.8260  173.1970  137.3750 C   0  0  0  0  0  3  0  0  0  0  0  0
  187.0490  173.8600  137.2160 C   0  0  0  0  0  3  0  0  0  0  0  0
  184.6430  175.2860  137.0480 C   0  0  0  0  0  3  0  0  0  0  0  0
  185.8660  175.9500  136.8900 C   0  0  0  0  0  0  0  0  0  0  0  0
  184.6180  173.9120  137.2960 C   0  0  0  0  0  0  0  0  0  0  0  0
  184.9020  178.1630  144.6060 C   0  0  2  0  0  3  0  0  0  0  0  0
  183.4920  178.2370  144.9630 N   0  0  0  0  0  1  0  0  0  0  0  0
  187.2770  176.6130  144.8270 O   0  0  0  0  0  0  0  0  0  0  0  0
  186.9120  178.5000  146.1770 N   0  0  0  0  0  2  0  0  0  0  0  0
  185.7310  179.0180  145.5460 C   0  0  0  0  0  0  0  0  0  0  0  0
  185.3980  180.2190  145.7930 O   0  0  0  0  0  0  0  0  0  0  0  0
  187.5910  177.2770  145.8550 C   0  0  0  0  0  0  0  0  0  0  0  0
  188.6470  176.8220  146.6500 O   0  0  0  0  0  0  0  0  0  0  0  0
  189.8790  177.5280  146.7350 C   0  0  0  0  0  2  0  0  0  0  0  0
  192.0720  176.5970  146.5490 O   0  0  0  0  0  1  0  0  0  0  0  0
  190.9270  176.9090  145.8170 C   0  0  2  0  0  3  0  0  0  0  0  0
  190.3070  177.7890  143.6890 O   0  0  0  0  0  1  0  0  0  0  0  0
  191.2900  177.8420  144.6750 C   0  0  0  0  0  2  0  0  0  0  0  0
  188.1780  179.0980  140.9640 C   0  0  0  0  0  2  0  0  0  0  0  0
  189.4760  177.0540  140.0830 C   0  0  0  0  0  3  0  0  0  0  0  0
  188.7950  178.3500  139.8290 C   0  0  0  0  0  0  0  0  0  0  0  0
  188.7310  178.8640  138.5920 C   0  0  0  0  0  3  0  0  0  0  0  0
  189.3590  178.6880  136.3150 O   0  0  0  0  0  0  0  0  0  0  0  0
  189.3750  178.1660  137.4610 C   0  0  0  0  0  0  0  0  0  0  0  0
  190.0660  176.8820  137.7060 C   0  0  0  0  0  0  0  0  0  0  0  0
  190.0730  176.3620  139.0890 C   0  0  0  0  0  3  0  0  0  0  0  0
  190.6240  176.2460  136.7120 N   0  0  0  0  0  0  0  0  0  0  0  0
  191.8150  174.3020  135.3870 O   0  0  0  0  0  0  0  0  0  0  0  0
  192.9860  174.9370  137.7330 C   0  0  0  0  0  1  0  0  0  0  0  0
  190.6320  173.6550  137.4300 O   0  0  0  0  0  0  0  0  0  0  0  0
  191.4710  174.7290  136.7910 S   0  0  0  0  0  0  0  0  0  0  0  0
  1  2  1  0  0  0  0
  1  4  2  0  0  0  0
  2  5  1  0  0  0  0
  3  7  1  0  0  0  0
  4  6  1  0  0  0  0
  5  3  2  0  0  0  0
  6  7  2  0  0  0  0
  7 31  1  0  0  0  0
  8 10  2  0  0  0  0
  9 12  1  0  0  0  0
 10 11  1  0  0  0  0
 12 14  1  0  0  0  0
 13  9  1  0  0  0  0
 14  5  1  6  0  0  0
 15 14  1  0  0  0  0
 15 11  2  0  0  0  0
 16 13  1  6  0  0  0
 16  8  1  0  0  0  0
 16 15  1  0  0  0  0
 17  8  1  0  0  0  0
 18 19  1  0  0  0  0
 18 17  1  0  0  0  0
 20 19  1  0  0  0  0
 21 20  1  0  0  0  0
 21 22  1  0  0  0  0
 22 23  1  6  0  0  0
 24 29  1  0  0  0  0
 25 27  1  0  0  0  0
 27 26  2  0  0  0  0
 28 30  2  0  0  0  0
 29 25  2  0  0  0  0
 29 28  1  0  0  0  0
 30 26  1  0  0  0  0
 30 22  1  0  0  0  0
 31 32  1  1  0  0  0
 31 35  1  0  0  0  0
 33 37  2  0  0  0  0
 35 36  2  0  0  0  0
 35 34  1  0  0  0  0
 37 34  1  0  0  0  0
 37 38  1  0  0  0  0
 38 39  1  0  0  0  0
 41 40  1  1  0  0  0
 41 39  1  0  0  0  0
 42 43  1  0  0  0  0
 43 41  1  0  0  0  0
 44  4  1  0  0  0  0
 46 45  1  0  0  0  0
 46 44  1  0  0  0  0
 47 46  2  0  0  0  0
 48 49  2  0  0  0  0
 49 50  1  0  0  0  0
 49 47  1  0  0  0  0
 50 51  1  0  0  0  0
 51 45  2  0  0  0  0
 52 56  1  0  0  0  0
 52 50  2  0  0  0  0
 53 56  2  0  0  0  0
 56 55  2  0  0  0  0
 56 54  1  0  0  0  0
M  END
>  <MODEL>
4

>  <REMARK>
 VINA RESULT:      -7.2      2.992      8.341
  Name = 
  17 active torsions:
  status: ('A' for Active; 'I' for Inactive)
    1  A    between atoms: C_5  and  C_43
    2  A    between atoms: C_7  and  N_32
    3  A    between atoms: C_7  and  C_52
    4  A    between atoms: C_9  and  C_34
    5  A    between atoms: C_9  and  C_48
    6  A    between atoms: C_17  and  C_33
    7  A    between atoms: C_17  and  C_46
    8  A    between atoms: C_18  and  C_55
    9  A    between atoms: C_25  and  C_44
   10  A    between atoms: C_25  and  O_47
   11  A    between atoms: C_27  and  C_55
   12  A    between atoms: N_32  and  C_44
   13  A    between atoms: C_34  and  O_51
   14  A    between atoms: S_35  and  N_56
   15  A    between atoms: C_38  and  C_39
   16  A    between atoms: C_43  and  O_47
   17  A    between atoms: O_51  and  C_53
                            x       y       z     vdW  Elec       q    Type
                         _______ _______ _______ _____ _____    ______ ____

>  <TORSDO>
F 17

$$$$
=
 OpenBabel11042413293D

 56 60  0  0  1  0  0  0  0  0999 V2000
  189.1980  178.4300  139.7990 C   0  0  0  0  0  3  0  0  0  0  0  0
  189.1030  179.0600  138.4560 C   0  0  0  0  0  2  0  0  0  0  0  0
  189.0730  176.9900  137.1110 C   0  0  0  0  0  3  0  0  0  0  0  0
  189.8950  177.3150  140.0380 C   0  0  0  0  0  0  0  0  0  0  0  0
  188.4620  178.1210  137.4750 C   0  0  0  0  0  0  0  0  0  0  0  0
  190.6720  176.6170  138.9880 C   0  0  0  0  0  3  0  0  0  0  0  0
  190.3480  176.5020  137.6830 C   0  0  0  0  0  0  0  0  0  0  0  0
  184.4650  175.9890  137.6190 C   0  0  0  0  0  0  0  0  0  0  0  0
  186.9740  176.8370  134.8820 C   0  0  0  0  0  2  0  0  0  0  0  0
  184.0890  177.0360  138.2820 N   0  0  0  0  0  0  0  0  0  0  0  0
  185.0510  178.0390  138.1460 N   0  0  0  0  0  0  0  0  0  0  0  0
  187.1340  178.2930  135.3540 C   0  0  0  0  0  2  0  0  0  0  0  0
  185.7150  176.1970  135.4700 C   0  0  0  0  0  2  0  0  0  0  0  0
  187.1240  178.4350  136.8820 C   0  0  1  0  0  3  0  0  0  0  0  0
  186.0370  177.5790  137.4520 C   0  0  0  0  0  0  0  0  0  0  0  0
  185.8010  176.1850  136.9890 C   0  0  1  0  0  3  0  0  0  0  0  0
  183.6900  174.7230  137.6040 C   0  0  0  0  0  2  0  0  0  0  0  0
  182.4960  174.8870  138.3060 O   0  0  0  0  0  0  0  0  0  0  0  0
  181.5140  175.0620  137.3260 C   0  0  0  0  0  2  0  0  0  0  0  0
  180.2350  175.5760  137.9640 C   0  0  0  0  0  2  0  0  0  0  0  0
  180.4880  176.8280  138.6560 N   0  0  0  0  0  2  0  0  0  0  0  0
  179.6150  176.8540  139.8240 C   0  0  1  0  0  3  0  0  0  0  0  0
  179.2570  175.4390  140.2350 C   0  0  0  0  0  1  0  0  0  0  0  0
  179.3070  178.9810  144.3350 C   0  0  0  0  0  1  0  0  0  0  0  0
  181.4620  179.0050  143.0650 C   0  0  0  0  0  3  0  0  0  0  0  0
  181.6260  177.9810  140.8750 C   0  0  0  0  0  3  0  0  0  0  0  0
  182.2190  178.6800  141.9350 C   0  0  0  0  0  3  0  0  0  0  0  0
  179.5200  177.9380  142.0730 C   0  0  0  0  0  3  0  0  0  0  0  0
  180.1120  178.6350  143.1320 C   0  0  0  0  0  0  0  0  0  0  0  0
  180.2740  177.6040  140.9450 C   0  0  0  0  0  0  0  0  0  0  0  0
  191.3020  175.8240  136.7320 C   0  0  2  0  0  3  0  0  0  0  0  0
  190.8360  175.8930  135.3540 N   0  0  0  0  0  1  0  0  0  0  0  0
  194.1040  175.9070  137.2170 O   0  0  0  0  0  0  0  0  0  0  0  0
  192.9230  173.8770  137.1880 N   0  0  0  0  0  2  0  0  0  0  0  0
  191.5810  174.3840  137.1240 C   0  0  0  0  0  0  0  0  0  0  0  0
  190.6290  173.5940  137.4090 O   0  0  0  0  0  0  0  0  0  0  0  0
  194.1350  174.6460  137.1440 C   0  0  0  0  0  0  0  0  0  0  0  0
  195.3760  174.0100  137.0680 O   0  0  0  0  0  0  0  0  0  0  0  0
  196.0880  173.6130  138.2340 C   0  0  0  0  0  2  0  0  0  0  0  0
  198.2750  174.4450  138.7210 O   0  0  0  0  0  1  0  0  0  0  0  0
  196.9190  174.7660  138.7850 C   0  0  2  0  0  3  0  0  0  0  0  0
  197.4730  175.9700  140.7680 O   0  0  0  0  0  1  0  0  0  0  0  0
  196.5400  175.0930  140.2180 C   0  0  0  0  0  2  0  0  0  0  0  0
  190.0700  176.8510  141.4540 C   0  0  0  0  0  2  0  0  0  0  0  0
  189.1650  177.4610  143.7880 C   0  0  0  0  0  3  0  0  0  0  0  0
  188.9420  177.2830  142.3290 C   0  0  0  0  0  0  0  0  0  0  0  0
  187.7350  177.4990  141.7860 C   0  0  0  0  0  3  0  0  0  0  0  0
  185.4500  178.0230  142.1260 O   0  0  0  0  0  0  0  0  0  0  0  0
  186.5910  177.8810  142.6390 C   0  0  0  0  0  0  0  0  0  0  0  0
  186.8010  178.0480  144.0930 C   0  0  0  0  0  0  0  0  0  0  0  0
  188.1630  177.8200  144.6180 C   0  0  0  0  0  3  0  0  0  0  0  0
  185.8030  178.4020  144.8550 N   0  0  0  0  0  0  0  0  0  0  0  0
  184.5300  178.2100  147.1570 O   0  0  0  0  0  0  0  0  0  0  0  0
  187.1720  177.6830  147.2940 C   0  0  0  0  0  1  0  0  0  0  0  0
  186.0550  180.1090  146.9170 O   0  0  0  0  0  0  0  0  0  0  0  0
  185.8460  178.6580  146.5760 S   0  0  0  0  0  0  0  0  0  0  0  0
  1  4  2  0  0  0  0
  2  1  1  0  0  0  0
  3  5  2  0  0  0  0
  3  7  1  0  0  0  0
  4 44  1  0  0  0  0
  5  2  1  0  0  0  0
  6  4  1  0  0  0  0
  7  6  2  0  0  0  0
  8 10  2  0  0  0  0
  9 12  1  0  0  0  0
  9 13  1  0  0  0  0
 11 10  1  0  0  0  0
 12 14  1  0  0  0  0
 14 15  1  0  0  0  0
 14  5  1  1  0  0  0
 15 11  2  0  0  0  0
 16 13  1  6  0  0  0
 16 15  1  0  0  0  0
 16  8  1  0  0  0  0
 17  8  1  0  0  0  0
 17 18  1  0  0  0  0
 19 20  1  0  0  0  0
 19 18  1  0  0  0  0
 20 21  1  0  0  0  0
 21 22  1  0  0  0  0
 22 23  1  1  0  0  0
 22 30  1  0  0  0  0
 25 29  1  0  0  0  0
 26 30  2  0  0  0  0
 26 27  1  0  0  0  0
 27 25  2  0  0  0  0
 28 29  2  0  0  0  0
 29 24  1  0  0  0  0
 30 28  1  0  0  0  0
 31 32  1  6  0  0  0
 31 35  1  0  0  0  0
 31  7  1  0  0  0  0
 35 34  1  0  0  0  0
 35 36  2  0  0  0  0
 37 34  1  0  0  0  0
 37 33  2  0  0  0  0
 38 37  1  0  0  0  0
 38 39  1  0  0  0  0
 39 41  1  0  0  0  0
 41 40  1  1  0  0  0
 41 43  1  0  0  0  0
 43 42  1  0  0  0  0
 44 46  1  0  0  0  0
 45 51  2  0  0  0  0
 46 45  1  0  0  0  0
 47 46  2  0  0  0  0
 47 49  1  0  0  0  0
 48 49  2  0  0  0  0
 49 50  1  0  0  0  0
 50 51  1  0  0  0  0
 50 52  2  0  0  0  0
 52 56  1  0  0  0  0
 56 55  2  0  0  0  0
 56 53  2  0  0  0  0
 56 54  1  0  0  0  0
M  END
>  <MODEL>
5

>  <REMARK>
 VINA RESULT:      -7.1      2.845      3.894
  Name = 
  17 active torsions:
  status: ('A' for Active; 'I' for Inactive)
    1  A    between atoms: C_5  and  C_43
    2  A    between atoms: C_7  and  N_32
    3  A    between atoms: C_7  and  C_52
    4  A    between atoms: C_9  and  C_34
    5  A    between atoms: C_9  and  C_48
    6  A    between atoms: C_17  and  C_33
    7  A    between atoms: C_17  and  C_46
    8  A    between atoms: C_18  and  C_55
    9  A    between atoms: C_25  and  C_44
   10  A    between atoms: C_25  and  O_47
   11  A    between atoms: C_27  and  C_55
   12  A    between atoms: N_32  and  C_44
   13  A    between atoms: C_34  and  O_51
   14  A    between atoms: S_35  and  N_56
   15  A    between atoms: C_38  and  C_39
   16  A    between atoms: C_43  and  O_47
   17  A    between atoms: O_51  and  C_53
                            x       y       z     vdW  Elec       q    Type
                         _______ _______ _______ _____ _____    ______ ____

>  <TORSDO>
F 17

$$$$
=
 OpenBabel11042413293D

 56 60  0  0  1  0  0  0  0  0999 V2000
  189.2660  178.4220  139.1830 C   0  0  0  0  0  3  0  0  0  0  0  0
  188.9720  178.9320  137.8190 C   0  0  0  0  0  2  0  0  0  0  0  0
  188.1910  176.8120  136.8240 C   0  0  0  0  0  3  0  0  0  0  0  0
  189.7590  177.2030  139.4200 C   0  0  0  0  0  0  0  0  0  0  0  0
  187.9320  178.0820  137.1480 C   0  0  0  0  0  0  0  0  0  0  0  0
  190.0940  176.2520  138.3350 C   0  0  0  0  0  3  0  0  0  0  0  0
  189.4420  176.0970  137.1630 C   0  0  0  0  0  0  0  0  0  0  0  0
  183.8620  177.5770  139.0770 C   0  0  0  0  0  0  0  0  0  0  0  0
  185.3790  176.6760  135.7020 C   0  0  0  0  0  2  0  0  0  0  0  0
  183.9920  178.8360  139.3540 N   0  0  0  0  0  0  0  0  0  0  0  0
  185.0490  179.3650  138.6110 N   0  0  0  0  0  0  0  0  0  0  0  0
  186.0230  178.0610  135.5200 C   0  0  0  0  0  2  0  0  0  0  0  0
  184.2940  176.7040  136.7800 C   0  0  0  0  0  2  0  0  0  0  0  0
  186.5810  178.6420  136.8260 C   0  0  1  0  0  3  0  0  0  0  0  0
  185.5960  178.4140  137.9300 C   0  0  0  0  0  0  0  0  0  0  0  0
  184.9000  177.1130  138.1150 C   0  0  1  0  0  3  0  0  0  0  0  0
  182.8620  176.7050  139.7430 C   0  0  0  0  0  2  0  0  0  0  0  0
  181.7810  176.4810  138.8910 O   0  0  0  0  0  0  0  0  0  0  0  0
  180.7140  177.1870  139.4550 C   0  0  0  0  0  2  0  0  0  0  0  0
  180.1790  178.1980  138.4550 C   0  0  0  0  0  2  0  0  0  0  0  0
  180.2040  179.5320  139.0290 N   0  0  0  0  0  2  0  0  0  0  0  0
  181.0390  180.3550  138.1630 C   0  0  1  0  0  3  0  0  0  0  0  0
  181.2040  179.6830  136.8120 C   0  0  0  0  0  1  0  0  0  0  0  0
  180.8290  184.7220  135.7410 C   0  0  0  0  0  1  0  0  0  0  0  0
  179.3750  184.3030  137.7330 C   0  0  0  0  0  3  0  0  0  0  0  0
  179.4670  182.1920  138.9190 C   0  0  0  0  0  3  0  0  0  0  0  0
  178.9310  183.4770  138.7710 C   0  0  0  0  0  3  0  0  0  0  0  0
  180.8940  182.5590  136.9950 C   0  0  0  0  0  3  0  0  0  0  0  0
  180.3570  183.8430  136.8460 C   0  0  0  0  0  0  0  0  0  0  0  0
  180.4480  181.7280  138.0260 C   0  0  0  0  0  0  0  0  0  0  0  0
  189.9730  175.1330  136.1330 C   0  0  2  0  0  3  0  0  0  0  0  0
  188.9860  174.8410  135.1030 N   0  0  0  0  0  1  0  0  0  0  0  0
  192.7790  175.3960  135.7460 O   0  0  0  0  0  0  0  0  0  0  0  0
  191.8320  173.4010  136.5430 N   0  0  0  0  0  2  0  0  0  0  0  0
  190.4830  173.8460  136.7550 C   0  0  0  0  0  0  0  0  0  0  0  0
  189.7250  173.1330  137.4840 O   0  0  0  0  0  0  0  0  0  0  0  0
  192.9060  174.1590  135.9670 C   0  0  0  0  0  0  0  0  0  0  0  0
  194.1320  173.5500  135.6850 O   0  0  0  0  0  0  0  0  0  0  0  0
  195.1030  173.3150  136.6980 C   0  0  0  0  0  2  0  0  0  0  0  0
  196.6820  175.0530  137.1440 O   0  0  0  0  0  1  0  0  0  0  0  0
  195.4060  174.5940  137.4700 C   0  0  2  0  0  3  0  0  0  0  0  0
  196.5790  174.1550  139.4990 O   0  0  0  0  0  1  0  0  0  0  0  0
  195.3100  174.3770  138.9700 C   0  0  0  0  0  2  0  0  0  0  0  0
  190.1810  176.8410  140.8130 C   0  0  0  0  0  2  0  0  0  0  0  0
  187.8980  177.8810  141.3980 C   0  0  0  0  0  3  0  0  0  0  0  0
  189.1190  177.1430  141.8160 C   0  0  0  0  0  0  0  0  0  0  0  0
  189.2830  176.7490  143.0870 C   0  0  0  0  0  3  0  0  0  0  0  0
  188.4620  176.7560  145.3100 O   0  0  0  0  0  0  0  0  0  0  0  0
  188.2680  177.0790  144.1080 C   0  0  0  0  0  0  0  0  0  0  0  0
  187.0560  177.8240  143.7040 C   0  0  0  0  0  0  0  0  0  0  0  0
  186.9280  178.2020  142.2810 C   0  0  0  0  0  3  0  0  0  0  0  0
  186.1430  178.1060  144.5920 N   0  0  0  0  0  0  0  0  0  0  0  0
  184.9790  180.3910  143.9750 O   0  0  0  0  0  0  0  0  0  0  0  0
  183.7750  178.2090  142.9430 C   0  0  0  0  0  1  0  0  0  0  0  0
  183.7700  178.9460  145.5380 O   0  0  0  0  0  0  0  0  0  0  0  0
  184.6520  178.9610  144.3180 S   0  0  0  0  0  0  0  0  0  0  0  0
  1  4  2  0  0  0  0
  2  1  1  0  0  0  0
  3  5  2  0  0  0  0
  3  7  1  0  0  0  0
  4 44  1  0  0  0  0
  5  2  1  0  0  0  0
  6  4  1  0  0  0  0
  7  6  2  0  0  0  0
  8 10  2  0  0  0  0
  8 17  1  0  0  0  0
  9 13  1  0  0  0  0
 11 10  1  0  0  0  0
 12  9  1  0  0  0  0
 12 14  1  0  0  0  0
 14  5  1  1  0  0  0
 14 15  1  0  0  0  0
 15 16  1  0  0  0  0
 15 11  2  0  0  0  0
 16 13  1  6  0  0  0
 16  8  1  0  0  0  0
 18 19  1  0  0  0  0
 18 17  1  0  0  0  0
 20 21  1  0  0  0  0
 20 19  1  0  0  0  0
 22 23  1  6  0  0  0
 22 21  1  0  0  0  0
 24 29  1  0  0  0  0
 25 27  1  0  0  0  0
 27 26  2  0  0  0  0
 28 30  2  0  0  0  0
 29 28  1  0  0  0  0
 29 25  2  0  0  0  0
 30 22  1  0  0  0  0
 30 26  1  0  0  0  0
 31 32  1  6  0  0  0
 31 35  1  0  0  0  0
 31  7  1  0  0  0  0
 33 37  2  0  0  0  0
 34 35  1  0  0  0  0
 35 36  2  0  0  0  0
 37 34  1  0  0  0  0
 38 37  1  0  0  0  0
 38 39  1  0  0  0  0
 39 41  1  0  0  0  0
 41 40  1  1  0  0  0
 41 43  1  0  0  0  0
 43 42  1  0  0  0  0
 44 46  1  0  0  0  0
 45 46  1  0  0  0  0
 45 51  2  0  0  0  0
 46 47  2  0  0  0  0
 47 49  1  0  0  0  0
 49 48  2  0  0  0  0
 50 49  1  0  0  0  0
 50 52  2  0  0  0  0
 51 50  1  0  0  0  0
 53 56  2  0  0  0  0
 54 56  1  0  0  0  0
 56 52  1  0  0  0  0
 56 55  2  0  0  0  0
M  END
>  <MODEL>
6

>  <REMARK>
 VINA RESULT:      -7.0      3.313      4.977
  Name = 
  17 active torsions:
  status: ('A' for Active; 'I' for Inactive)
    1  A    between atoms: C_5  and  C_43
    2  A    between atoms: C_7  and  N_32
    3  A    between atoms: C_7  and  C_52
    4  A    between atoms: C_9  and  C_34
    5  A    between atoms: C_9  and  C_48
    6  A    between atoms: C_17  and  C_33
    7  A    between atoms: C_17  and  C_46
    8  A    between atoms: C_18  and  C_55
    9  A    between atoms: C_25  and  C_44
   10  A    between atoms: C_25  and  O_47
   11  A    between atoms: C_27  and  C_55
   12  A    between atoms: N_32  and  C_44
   13  A    between atoms: C_34  and  O_51
   14  A    between atoms: S_35  and  N_56
   15  A    between atoms: C_38  and  C_39
   16  A    between atoms: C_43  and  O_47
   17  A    between atoms: O_51  and  C_53
                            x       y       z     vdW  Elec       q    Type
                         _______ _______ _______ _____ _____    ______ ____

>  <TORSDO>
F 17

$$$$
=
 OpenBabel11042413293D

 56 60  0  0  1  0  0  0  0  0999 V2000
  189.1320  178.3630  139.8460 C   0  0  0  0  0  3  0  0  0  0  0  0
  189.0620  178.9950  138.5030 C   0  0  0  0  0  2  0  0  0  0  0  0
  188.8550  176.9300  137.1660 C   0  0  0  0  0  3  0  0  0  0  0  0
  189.7480  177.1990  140.0780 C   0  0  0  0  0  0  0  0  0  0  0  0
  188.3370  178.1040  137.5360 C   0  0  0  0  0  0  0  0  0  0  0  0
  190.4530  176.4430  139.0180 C   0  0  0  0  0  3  0  0  0  0  0  0
  190.1010  176.3500  137.7180 C   0  0  0  0  0  0  0  0  0  0  0  0
  184.0890  177.7850  139.0830 C   0  0  0  0  0  0  0  0  0  0  0  0
  186.0100  176.3030  136.1470 C   0  0  0  0  0  2  0  0  0  0  0  0
  184.1490  179.0790  139.1070 N   0  0  0  0  0  0  0  0  0  0  0  0
  185.2690  179.5020  138.3870 N   0  0  0  0  0  0  0  0  0  0  0  0
  186.6300  177.6550  135.7530 C   0  0  0  0  0  2  0  0  0  0  0  0
  184.8080  176.4910  137.0740 C   0  0  0  0  0  2  0  0  0  0  0  0
  187.0160  178.5160  136.9640 C   0  0  1  0  0  3  0  0  0  0  0  0
  185.9180  178.4640  137.9790 C   0  0  0  0  0  0  0  0  0  0  0  0
  185.2440  177.1920  138.3530 C   0  0  1  0  0  3  0  0  0  0  0  0
  183.0450  177.0140  139.8040 C   0  0  0  0  0  2  0  0  0  0  0  0
  182.3110  177.8640  140.6320 O   0  0  0  0  0  0  0  0  0  0  0  0
  181.0130  177.8530  140.1130 C   0  0  0  0  0  2  0  0  0  0  0  0
  180.6100  179.2590  139.7030 C   0  0  0  0  0  2  0  0  0  0  0  0
  180.0830  179.2550  138.3490 N   0  0  0  0  0  2  0  0  0  0  0  0
  181.1910  179.5780  137.4580 C   0  0  1  0  0  3  0  0  0  0  0  0
  181.4540  178.4180  136.5170 C   0  0  0  0  0  1  0  0  0  0  0  0
  180.4650  184.5230  137.4770 C   0  0  0  0  0  1  0  0  0  0  0  0
  180.3490  183.2310  135.3390 C   0  0  0  0  0  3  0  0  0  0  0  0
  180.6960  180.8320  135.3130 C   0  0  0  0  0  3  0  0  0  0  0  0
  180.4240  182.0260  134.6320 C   0  0  0  0  0  3  0  0  0  0  0  0
  180.8150  182.0480  137.4070 C   0  0  0  0  0  3  0  0  0  0  0  0
  180.5440  183.2400  136.7260 C   0  0  0  0  0  0  0  0  0  0  0  0
  180.8970  180.8420  136.7050 C   0  0  0  0  0  0  0  0  0  0  0  0
  190.9850  175.6000  136.7540 C   0  0  2  0  0  3  0  0  0  0  0  0
  190.5290  175.7400  135.3780 N   0  0  0  0  0  1  0  0  0  0  0  0
  193.6460  175.5180  137.7560 O   0  0  0  0  0  0  0  0  0  0  0  0
  192.4050  173.5550  137.4060 N   0  0  0  0  0  2  0  0  0  0  0  0
  191.1230  174.1330  137.1180 C   0  0  0  0  0  0  0  0  0  0  0  0
  190.1000  173.3820  137.1810 O   0  0  0  0  0  0  0  0  0  0  0  0
  193.6360  174.2610  137.6270 C   0  0  0  0  0  0  0  0  0  0  0  0
  194.8410  173.5650  137.7520 O   0  0  0  0  0  0  0  0  0  0  0  0
  196.0880  174.2400  137.8640 C   0  0  0  0  0  2  0  0  0  0  0  0
  198.2360  173.8550  136.8890 O   0  0  0  0  0  1  0  0  0  0  0  0
  196.8990  174.1040  136.5810 C   0  0  2  0  0  3  0  0  0  0  0  0
  198.0290  176.0030  135.6840 O   0  0  0  0  0  1  0  0  0  0  0  0
  196.7980  175.3520  135.7210 C   0  0  0  0  0  2  0  0  0  0  0  0
  189.9130  176.7260  141.4920 C   0  0  0  0  0  2  0  0  0  0  0  0
  189.0430  177.3260  143.8420 C   0  0  0  0  0  3  0  0  0  0  0  0
  188.8150  177.2150  142.3770 C   0  0  0  0  0  0  0  0  0  0  0  0
  187.6320  177.5430  141.8370 C   0  0  0  0  0  3  0  0  0  0  0  0
  185.3920  178.2310  142.1860 O   0  0  0  0  0  0  0  0  0  0  0  0
  186.5160  177.9830  142.6980 C   0  0  0  0  0  0  0  0  0  0  0  0
  186.7290  178.0840  144.1580 C   0  0  0  0  0  0  0  0  0  0  0  0
  188.0660  177.7350  144.6800 C   0  0  0  0  0  3  0  0  0  0  0  0
  185.7560  178.4900  144.9280 N   0  0  0  0  0  0  0  0  0  0  0  0
  184.4810  178.2500  147.2240 O   0  0  0  0  0  0  0  0  0  0  0  0
  187.1080  177.6490  147.3360 C   0  0  0  0  0  1  0  0  0  0  0  0
  186.0560  180.1160  147.0480 O   0  0  0  0  0  0  0  0  0  0  0  0
  185.8080  178.6840  146.6560 S   0  0  0  0  0  0  0  0  0  0  0  0
  1  4  2  0  0  0  0
  2  1  1  0  0  0  0
  3  5  2  0  0  0  0
  3  7  1  0  0  0  0
  4 44  1  0  0  0  0
  5  2  1  0  0  0  0
  6  4  1  0  0  0  0
  7  6  2  0  0  0  0
  8 10  2  0  0  0  0
  8 17  1  0  0  0  0
  9 13  1  0  0  0  0
 11 10  1  0  0  0  0
 12  9  1  0  0  0  0
 12 14  1  0  0  0  0
 14  5  1  1  0  0  0
 14 15  1  0  0  0  0
 15 16  1  0  0  0  0
 15 11  2  0  0  0  0
 16 13  1  6  0  0  0
 16  8  1  0  0  0  0
 17 18  1  0  0  0  0
 19 18  1  0  0  0  0
 20 19  1  0  0  0  0
 21 20  1  0  0  0  0
 22 23  1  6  0  0  0
 22 21  1  0  0  0  0
 25 29  1  0  0  0  0
 26 30  2  0  0  0  0
 27 26  1  0  0  0  0
 27 25  2  0  0  0  0
 29 28  2  0  0  0  0
 29 24  1  0  0  0  0
 30 28  1  0  0  0  0
 30 22  1  0  0  0  0
 31 32  1  6  0  0  0
 31 35  1  0  0  0  0
 31  7  1  0  0  0  0
 34 37  1  0  0  0  0
 35 36  2  0  0  0  0
 35 34  1  0  0  0  0
 37 38  1  0  0  0  0
 37 33  2  0  0  0  0
 38 39  1  0  0  0  0
 41 40  1  1  0  0  0
 41 39  1  0  0  0  0
 42 43  1  0  0  0  0
 43 41  1  0  0  0  0
 44 46  1  0  0  0  0
 45 51  2  0  0  0  0
 46 45  1  0  0  0  0
 47 46  2  0  0  0  0
 47 49  1  0  0  0  0
 48 49  2  0  0  0  0
 49 50  1  0  0  0  0
 50 51  1  0  0  0  0
 50 52  2  0  0  0  0
 52 56  1  0  0  0  0
 56 55  2  0  0  0  0
 56 53  2  0  0  0  0
 56 54  1  0  0  0  0
M  END
>  <MODEL>
7

>  <REMARK>
 VINA RESULT:      -7.0      3.314      4.807
  Name = 
  17 active torsions:
  status: ('A' for Active; 'I' for Inactive)
    1  A    between atoms: C_5  and  C_43
    2  A    between atoms: C_7  and  N_32
    3  A    between atoms: C_7  and  C_52
    4  A    between atoms: C_9  and  C_34
    5  A    between atoms: C_9  and  C_48
    6  A    between atoms: C_17  and  C_33
    7  A    between atoms: C_17  and  C_46
    8  A    between atoms: C_18  and  C_55
    9  A    between atoms: C_25  and  C_44
   10  A    between atoms: C_25  and  O_47
   11  A    between atoms: C_27  and  C_55
   12  A    between atoms: N_32  and  C_44
   13  A    between atoms: C_34  and  O_51
   14  A    between atoms: S_35  and  N_56
   15  A    between atoms: C_38  and  C_39
   16  A    between atoms: C_43  and  O_47
   17  A    between atoms: O_51  and  C_53
                            x       y       z     vdW  Elec       q    Type
                         _______ _______ _______ _____ _____    ______ ____

>  <TORSDO>
F 17

$$$$
=
 OpenBabel11042413293D

 56 60  0  0  1  0  0  0  0  0999 V2000
  184.1420  177.3160  137.3910 C   0  0  0  0  0  3  0  0  0  0  0  0
  184.9400  177.1810  136.1440 C   0  0  0  0  0  2  0  0  0  0  0  0
  187.0980  176.5870  137.1840 C   0  0  0  0  0  3  0  0  0  0  0  0
  184.6400  177.8090  138.5300 C   0  0  0  0  0  0  0  0  0  0  0  0
  186.1030  176.2550  136.3570 C   0  0  0  0  0  0  0  0  0  0  0  0
  186.0310  178.3020  138.6470 C   0  0  0  0  0  3  0  0  0  0  0  0
  187.1220  177.8050  138.0260 C   0  0  0  0  0  0  0  0  0  0  0  0
  183.3060  172.6910  136.2150 C   0  0  0  0  0  0  0  0  0  0  0  0
  186.8410  173.2980  137.4970 C   0  0  0  0  0  2  0  0  0  0  0  0
  183.1710  173.0250  134.9700 N   0  0  0  0  0  0  0  0  0  0  0  0
  184.1670  173.9420  134.6270 N   0  0  0  0  0  0  0  0  0  0  0  0
  187.2740  174.0410  136.2210 C   0  0  0  0  0  2  0  0  0  0  0  0
  185.5610  172.4940  137.2650 C   0  0  0  0  0  2  0  0  0  0  0  0
  186.1720  174.9410  135.6450 C   0  0  1  0  0  3  0  0  0  0  0  0
  184.8670  174.2090  135.6790 C   0  0  0  0  0  0  0  0  0  0  0  0
  184.4270  173.4270  136.8650 C   0  0  1  0  0  3  0  0  0  0  0  0
  182.3690  171.7730  136.9090 C   0  0  0  0  0  2  0  0  0  0  0  0
  181.3220  171.4250  136.0560 O   0  0  0  0  0  0  0  0  0  0  0  0
  180.1590  171.5940  136.8120 C   0  0  0  0  0  2  0  0  0  0  0  0
  180.1970  172.9350  137.5240 C   0  0  0  0  0  2  0  0  0  0  0  0
  179.3800  173.9030  136.8130 N   0  0  0  0  0  2  0  0  0  0  0  0
  179.6230  175.2020  137.4280 C   0  0  1  0  0  3  0  0  0  0  0  0
  180.4780  175.0350  138.6710 C   0  0  0  0  0  1  0  0  0  0  0  0
  180.0310  179.7850  135.4780 C   0  0  0  0  0  1  0  0  0  0  0  0
  181.4330  177.9060  134.6080 C   0  0  0  0  0  3  0  0  0  0  0  0
  181.2450  175.6770  135.5410 C   0  0  0  0  0  3  0  0  0  0  0  0
  181.8290  176.5640  134.6280 C   0  0  0  0  0  3  0  0  0  0  0  0
  179.8670  177.4710  136.4110 C   0  0  0  0  0  3  0  0  0  0  0  0
  180.4510  178.3570  135.4990 C   0  0  0  0  0  0  0  0  0  0  0  0
  180.2640  176.1320  136.4400 C   0  0  0  0  0  0  0  0  0  0  0  0
  188.4570  178.4860  138.1970 C   0  0  2  0  0  3  0  0  0  0  0  0
  188.6410  179.5660  137.2380 N   0  0  0  0  0  1  0  0  0  0  0  0
  188.5670  177.5400  140.8770 O   0  0  0  0  0  0  0  0  0  0  0  0
  190.2300  176.9910  139.3130 N   0  0  0  0  0  2  0  0  0  0  0  0
  189.6170  177.5100  138.1230 C   0  0  0  0  0  0  0  0  0  0  0  0
  190.0690  177.1250  136.9990 O   0  0  0  0  0  0  0  0  0  0  0  0
  189.7300  177.1000  140.6540 C   0  0  0  0  0  0  0  0  0  0  0  0
  190.5050  176.6750  141.7360 O   0  0  0  0  0  0  0  0  0  0  0  0
  191.3940  177.5560  142.4130 C   0  0  0  0  0  2  0  0  0  0  0  0
  191.4250  179.3950  143.9400 O   0  0  0  0  0  1  0  0  0  0  0  0
  190.6840  178.2790  143.5520 C   0  0  2  0  0  3  0  0  0  0  0  0
  191.7040  176.9730  145.2670 O   0  0  0  0  0  1  0  0  0  0  0  0
  190.4730  177.3660  144.7470 C   0  0  0  0  0  2  0  0  0  0  0  0
  183.7150  178.0640  139.6830 C   0  0  0  0  0  2  0  0  0  0  0  0
  182.9800  180.3440  138.7350 C   0  0  0  0  0  3  0  0  0  0  0  0
  182.6320  179.0270  139.3300 C   0  0  0  0  0  0  0  0  0  0  0  0
  181.3540  178.6920  139.5590 C   0  0  0  0  0  3  0  0  0  0  0  0
  179.0760  179.3450  139.5380 O   0  0  0  0  0  0  0  0  0  0  0  0
  180.2670  179.6480  139.2620 C   0  0  0  0  0  0  0  0  0  0  0  0
  180.6060  180.9660  138.6830 C   0  0  0  0  0  0  0  0  0  0  0  0
  182.0320  181.2560  138.4300 C   0  0  0  0  0  3  0  0  0  0  0  0
  179.6540  181.8120  138.3990 N   0  0  0  0  0  0  0  0  0  0  0  0
  181.3010  183.7730  137.7690 O   0  0  0  0  0  0  0  0  0  0  0  0
  179.3090  183.3730  135.9940 C   0  0  0  0  0  1  0  0  0  0  0  0
  179.0470  184.4300  138.4620 O   0  0  0  0  0  0  0  0  0  0  0  0
  179.8430  183.3980  137.7090 S   0  0  0  0  0  0  0  0  0  0  0  0
  1  4  2  0  0  0  0
  2  5  1  0  0  0  0
  2  1  1  0  0  0  0
  3  7  1  0  0  0  0
  4  6  1  0  0  0  0
  4 44  1  0  0  0  0
  5  3  2  0  0  0  0
  7 31  1  0  0  0  0
  7  6  2  0  0  0  0
  8 16  1  0  0  0  0
  8 17  1  0  0  0  0
 10  8  2  0  0  0  0
 11 10  1  0  0  0  0
 11 15  2  0  0  0  0
 12  9  1  0  0  0  0
 13  9  1  0  0  0  0
 14 15  1  0  0  0  0
 14 12  1  0  0  0  0
 14  5  1  1  0  0  0
 15 16  1  0  0  0  0
 16 13  1  6  0  0  0
 18 19  1  0  0  0  0
 18 17  1  0  0  0  0
 19 20  1  0  0  0  0
 21 22  1  0  0  0  0
 21 20  1  0  0  0  0
 22 23  1  1  0  0  0
 24 29  1  0  0  0  0
 25 27  2  0  0  0  0
 25 29  1  0  0  0  0
 26 30  2  0  0  0  0
 27 26  1  0  0  0  0
 28 30  1  0  0  0  0
 29 28  2  0  0  0  0
 30 22  1  0  0  0  0
 31 32  1  6  0  0  0
 34 37  1  0  0  0  0
 35 31  1  0  0  0  0
 35 34  1  0  0  0  0
 36 35  2  0  0  0  0
 37 33  2  0  0  0  0
 37 38  1  0  0  0  0
 38 39  1  0  0  0  0
 39 41  1  0  0  0  0
 41 40  1  1  0  0  0
 41 43  1  0  0  0  0
 43 42  1  0  0  0  0
 45 46  1  0  0  0  0
 46 47  2  0  0  0  0
 46 44  1  0  0  0  0
 49 48  2  0  0  0  0
 49 47  1  0  0  0  0
 50 49  1  0  0  0  0
 51 50  1  0  0  0  0
 51 45  2  0  0  0  0
 52 50  2  0  0  0  0
 54 56  1  0  0  0  0
 56 53  2  0  0  0  0
 56 52  1  0  0  0  0
 56 55  2  0  0  0  0
M  END
>  <MODEL>
8

>  <REMARK>
 VINA RESULT:      -6.8      4.334      8.509
  Name = 
  17 active torsions:
  status: ('A' for Active; 'I' for Inactive)
    1  A    between atoms: C_5  and  C_43
    2  A    between atoms: C_7  and  N_32
    3  A    between atoms: C_7  and  C_52
    4  A    between atoms: C_9  and  C_34
    5  A    between atoms: C_9  and  C_48
    6  A    between atoms: C_17  and  C_33
    7  A    between atoms: C_17  and  C_46
    8  A    between atoms: C_18  and  C_55
    9  A    between atoms: C_25  and  C_44
   10  A    between atoms: C_25  and  O_47
   11  A    between atoms: C_27  and  C_55
   12  A    between atoms: N_32  and  C_44
   13  A    between atoms: C_34  and  O_51
   14  A    between atoms: S_35  and  N_56
   15  A    between atoms: C_38  and  C_39
   16  A    between atoms: C_43  and  O_47
   17  A    between atoms: O_51  and  C_53
                            x       y       z     vdW  Elec       q    Type
                         _______ _______ _______ _____ _____    ______ ____

>  <TORSDO>
F 17

$$$$
=
 OpenBabel11042413293D

 56 60  0  0  1  0  0  0  0  0999 V2000
  181.8990  178.9760  143.5510 C   0  0  0  0  0  3  0  0  0  0  0  0
  181.1640  179.1250  142.2670 C   0  0  0  0  0  2  0  0  0  0  0  0
  182.7720  177.9400  140.8160 C   0  0  0  0  0  3  0  0  0  0  0  0
  183.2320  179.0150  143.6410 C   0  0  0  0  0  0  0  0  0  0  0  0
  181.5350  178.0260  141.3140 C   0  0  0  0  0  0  0  0  0  0  0  0
  184.1060  179.2460  142.4690 C   0  0  0  0  0  3  0  0  0  0  0  0
  183.8970  178.8190  141.2050 C   0  0  0  0  0  0  0  0  0  0  0  0
  180.9240  175.6940  137.4760 C   0  0  0  0  0  0  0  0  0  0  0  0
  178.9330  178.3210  139.3830 C   0  0  0  0  0  2  0  0  0  0  0  0
  181.2230  174.6720  138.2140 N   0  0  0  0  0  0  0  0  0  0  0  0
  181.1770  175.0450  139.5590 N   0  0  0  0  0  0  0  0  0  0  0  0
  179.1280  177.6180  140.7370 C   0  0  0  0  0  2  0  0  0  0  0  0
  179.2410  177.3800  138.2170 C   0  0  0  0  0  2  0  0  0  0  0  0
  180.5240  177.0020  140.9000 C   0  0  1  0  0  3  0  0  0  0  0  0
  180.9100  176.3060  139.6330 C   0  0  0  0  0  0  0  0  0  0  0  0
  180.6880  176.9160  138.2940 C   0  0  1  0  0  3  0  0  0  0  0  0
  180.9370  175.6470  135.9920 C   0  0  0  0  0  2  0  0  0  0  0  0
  181.7470  176.6650  135.4900 O   0  0  0  0  0  0  0  0  0  0  0  0
  182.6340  176.0320  134.6130 C   0  0  0  0  0  2  0  0  0  0  0  0
  183.6520  175.2270  135.4030 C   0  0  0  0  0  2  0  0  0  0  0  0
  183.9820  174.0030  134.6940 N   0  0  0  0  0  2  0  0  0  0  0  0
  183.8350  172.9060  135.6430 C   0  0  1  0  0  3  0  0  0  0  0  0
  182.4690  172.2660  135.4890 C   0  0  0  0  0  1  0  0  0  0  0  0
  188.7190  171.8470  135.5930 C   0  0  0  0  0  1  0  0  0  0  0  0
  187.0290  170.0690  135.1030 C   0  0  0  0  0  3  0  0  0  0  0  0
  184.6580  170.5680  135.1210 C   0  0  0  0  0  3  0  0  0  0  0  0
  185.7030  169.6520  134.9480 C   0  0  0  0  0  3  0  0  0  0  0  0
  186.2630  172.3190  135.6000 C   0  0  0  0  0  3  0  0  0  0  0  0
  187.3080  171.4030  135.4280 C   0  0  0  0  0  0  0  0  0  0  0  0
  184.9370  171.9060  135.4520 C   0  0  0  0  0  0  0  0  0  0  0  0
  184.8560  179.2190  140.1120 C   0  0  2  0  0  3  0  0  0  0  0  0
  184.3170  180.2870  139.2810 N   0  0  0  0  0  1  0  0  0  0  0  0
  187.6300  179.0410  140.7160 O   0  0  0  0  0  0  0  0  0  0  0  0
  186.6600  177.7520  139.0100 N   0  0  0  0  0  2  0  0  0  0  0  0
  185.2750  178.0410  139.2520 C   0  0  0  0  0  0  0  0  0  0  0  0
  184.4040  177.2780  138.7290 O   0  0  0  0  0  0  0  0  0  0  0  0
  187.7880  178.3250  139.6880 C   0  0  0  0  0  0  0  0  0  0  0  0
  189.0880  178.0600  139.2490 O   0  0  0  0  0  0  0  0  0  0  0  0
  189.5070  176.7480  138.8930 C   0  0  0  0  0  2  0  0  0  0  0  0
  189.5230  177.7960  136.7450 O   0  0  0  0  0  1  0  0  0  0  0  0
  190.0290  176.7120  137.4620 C   0  0  2  0  0  3  0  0  0  0  0  0
  188.2800  175.2060  136.8610 O   0  0  0  0  0  1  0  0  0  0  0  0
  189.6540  175.4180  136.7620 C   0  0  0  0  0  2  0  0  0  0  0  0
  183.8730  179.0250  144.9970 C   0  0  0  0  0  2  0  0  0  0  0  0
  185.8700  178.0930  143.6620 C   0  0  0  0  0  3  0  0  0  0  0  0
  185.2700  178.5030  144.9590 C   0  0  0  0  0  0  0  0  0  0  0  0
  185.9670  178.4040  146.1010 C   0  0  0  0  0  3  0  0  0  0  0  0
  187.9550  177.7020  147.1820 O   0  0  0  0  0  0  0  0  0  0  0  0
  187.3340  177.8450  146.0950 C   0  0  0  0  0  0  0  0  0  0  0  0
  187.9340  177.4230  144.8110 C   0  0  0  0  0  0  0  0  0  0  0  0
  187.1200  177.5870  143.5890 C   0  0  0  0  0  3  0  0  0  0  0  0
  189.1480  176.9450  144.7900 N   0  0  0  0  0  0  0  0  0  0  0  0
  190.1360  177.5540  142.4220 O   0  0  0  0  0  0  0  0  0  0  0  0
  191.6790  175.8920  143.8830 C   0  0  0  0  0  1  0  0  0  0  0  0
  189.3370  175.2590  142.7040 O   0  0  0  0  0  0  0  0  0  0  0  0
  190.0300  176.4050  143.3900 S   0  0  0  0  0  0  0  0  0  0  0  0
  1  4  2  0  0  0  0
  2  1  1  0  0  0  0
  3  7  1  0  0  0  0
  3  5  2  0  0  0  0
  4 44  1  0  0  0  0
  5  2  1  0  0  0  0
  6  4  1  0  0  0  0
  7  6  2  0  0  0  0
  8 10  2  0  0  0  0
  8 16  1  0  0  0  0
  9 12  1  0  0  0  0
 10 11  1  0  0  0  0
 11 15  2  0  0  0  0
 12 14  1  0  0  0  0
 13  9  1  0  0  0  0
 14  5  1  6  0  0  0
 15 14  1  0  0  0  0
 16 13  1  1  0  0  0
 16 15  1  0  0  0  0
 17  8  1  0  0  0  0
 18 17  1  0  0  0  0
 19 20  1  0  0  0  0
 19 18  1  0  0  0  0
 21 20  1  0  0  0  0
 21 22  1  0  0  0  0
 22 23  1  6  0  0  0
 25 29  1  0  0  0  0
 26 30  2  0  0  0  0
 27 25  2  0  0  0  0
 27 26  1  0  0  0  0
 29 24  1  0  0  0  0
 29 28  2  0  0  0  0
 30 28  1  0  0  0  0
 30 22  1  0  0  0  0
 31 32  1  6  0  0  0
 31  7  1  0  0  0  0
 34 35  1  0  0  0  0
 34 37  1  0  0  0  0
 35 31  1  0  0  0  0
 36 35  2  0  0  0  0
 37 33  2  0  0  0  0
 38 37  1  0  0  0  0
 39 38  1  0  0  0  0
 41 40  1  6  0  0  0
 41 39  1  0  0  0  0
 43 42  1  0  0  0  0
 43 41  1  0  0  0  0
 45 46  1  0  0  0  0
 46 44  1  0  0  0  0
 46 47  2  0  0  0  0
 49 47  1  0  0  0  0
 49 48  2  0  0  0  0
 50 49  1  0  0  0  0
 51 45  2  0  0  0  0
 51 50  1  0  0  0  0
 52 50  2  0  0  0  0
 53 56  2  0  0  0  0
 55 56  2  0  0  0  0
 56 54  1  0  0  0  0
 56 52  1  0  0  0  0
M  END
>  <MODEL>
9

>  <REMARK>
 VINA RESULT:      -6.8      3.466      7.713
  Name = 
  17 active torsions:
  status: ('A' for Active; 'I' for Inactive)
    1  A    between atoms: C_5  and  C_43
    2  A    between atoms: C_7  and  N_32
    3  A    between atoms: C_7  and  C_52
    4  A    between atoms: C_9  and  C_34
    5  A    between atoms: C_9  and  C_48
    6  A    between atoms: C_17  and  C_33
    7  A    between atoms: C_17  and  C_46
    8  A    between atoms: C_18  and  C_55
    9  A    between atoms: C_25  and  C_44
   10  A    between atoms: C_25  and  O_47
   11  A    between atoms: C_27  and  C_55
   12  A    between atoms: N_32  and  C_44
   13  A    between atoms: C_34  and  O_51
   14  A    between atoms: S_35  and  N_56
   15  A    between atoms: C_38  and  C_39
   16  A    between atoms: C_43  and  O_47
   17  A    between atoms: O_51  and  C_53
                            x       y       z     vdW  Elec       q    Type
                         _______ _______ _______ _____ _____    ______ ____

>  <TORSDO>
F 17

$$$$
