=
 OpenBabel11042412253D

 26 29  0  0  1  0  0  0  0  0999 V2000
  188.9070  177.5240  148.0310 C   0  0  0  0  0  1  0  0  0  0  0  0
  188.7850  177.3600  145.5650 C   0  0  0  0  0  0  0  0  0  0  0  0
  191.7380  176.1610  147.6650 C   0  0  0  0  0  1  0  0  0  0  0  0
  190.8710  177.1920  144.2750 C   0  0  0  0  0  0  0  0  0  0  0  0
  189.4600  177.4830  144.3780 C   0  0  0  0  0  0  0  0  0  0  0  0
  188.6810  177.7000  143.2570 C   0  0  0  0  0  0  0  0  0  0  0  0
  190.9990  177.0800  146.7110 C   0  0  1  0  0  3  0  0  0  0  0  0
  191.5570  176.9310  145.3500 N   0  0  0  0  0  0  0  0  0  0  0  0
  189.4670  176.8400  146.7960 C   0  0  1  0  0  3  0  0  0  0  0  0
  187.3270  177.7810  143.5650 C   0  0  0  0  0  0  0  0  0  0  0  0
  187.1360  177.5000  145.2320 S   0  0  0  0  0  0  0  0  0  0  0  0
  190.7610  177.3330  141.8820 C   0  0  0  0  0  3  0  0  0  0  0  0
  191.4500  177.0930  142.9680 N   0  0  0  0  0  0  0  0  0  0  0  0
  189.2980  177.7600  141.8860 C   0  0  0  0  0  2  0  0  0  0  0  0
  186.2870  177.9300  142.5890 N   0  0  0  0  0  2  0  0  0  0  0  0
  182.6920  178.6320  141.9110 C   0  0  0  0  0  3  0  0  0  0  0  0
  182.2250  179.0140  143.1720 C   0  0  0  0  0  0  0  0  0  0  0  0
  184.0300  178.2730  141.7340 C   0  0  0  0  0  3  0  0  0  0  0  0
  184.9180  178.2880  142.8160 C   0  0  0  0  0  0  0  0  0  0  0  0
  183.1130  179.0450  144.2570 C   0  0  0  0  0  3  0  0  0  0  0  0
  184.4510  178.6850  144.0780 C   0  0  0  0  0  3  0  0  0  0  0  0
  180.7920  179.4100  143.3340 C   0  0  1  0  0  3  0  0  0  0  0  0
  180.4180  180.3260  142.3480 O   0  0  0  0  0  1  0  0  0  0  0  0
  179.8930  178.2180  143.3030 C   0  0  0  0  0  0  0  0  0  0  0  0
  179.7510  177.5170  144.3390 O   0  0  0  0  0  1  0  0  0  0  0  0
  179.2370  177.8600  142.1320 O   0  0  0  0  0  0  0  0  0  0  0  0
  2  9  1  0  0  0  0
  4  5  1  0  0  0  0
  4  8  2  0  0  0  0
  5  2  2  0  0  0  0
  6 10  2  0  0  0  0
  6  5  1  0  0  0  0
  7  9  1  0  0  0  0
  7  3  1  1  0  0  0
  8  7  1  0  0  0  0
  9  1  1  1  0  0  0
 10 11  1  0  0  0  0
 11  2  1  0  0  0  0
 12 14  1  0  0  0  0
 12 13  2  0  0  0  0
 13  4  1  0  0  0  0
 14  6  1  0  0  0  0
 15 19  1  0  0  0  0
 15 10  1  0  0  0  0
 16 17  1  0  0  0  0
 17 22  1  0  0  0  0
 17 20  2  0  0  0  0
 18 16  2  0  0  0  0
 18 19  1  0  0  0  0
 19 21  2  0  0  0  0
 21 20  1  0  0  0  0
 22 23  1  6  0  0  0
 24 22  1  0  0  0  0
 24 25  1  0  0  0  0
 26 24  2  0  0  0  0
M  END
>  <MODEL>
1

>  <REMARK>
 VINA RESULT:      -9.7      0.000      0.000
  Name = 
  4 active torsions:
  status: ('A' for Active; 'I' for Inactive)
    1  A    between atoms: N_4  and  C_16
    2  A    between atoms: N_4  and  C_19
    3  A    between atoms: C_10  and  C_11
    4  A    between atoms: C_11  and  C_14
                            x       y       z     vdW  Elec       q    Type
                         _______ _______ _______ _____ _____    ______ ____

>  <TORSDO>
F 4

$$$$
=
 OpenBabel11042412253D

 26 29  0  0  1  0  0  0  0  0999 V2000
  190.2260  176.7950  146.7450 C   0  0  0  0  0  1  0  0  0  0  0  0
  188.5890  177.6230  145.0830 C   0  0  0  0  0  0  0  0  0  0  0  0
  188.2620  178.0940  148.8570 C   0  0  0  0  0  1  0  0  0  0  0  0
  186.2760  178.0510  145.7970 C   0  0  0  0  0  0  0  0  0  0  0  0
  187.2650  177.7980  144.7760 C   0  0  0  0  0  0  0  0  0  0  0  0
  186.9660  177.9230  143.4310 C   0  0  0  0  0  0  0  0  0  0  0  0
  187.9340  177.4960  147.5020 C   0  0  1  0  0  3  0  0  0  0  0  0
  186.6130  177.9850  147.0530 N   0  0  0  0  0  0  0  0  0  0  0  0
  189.0840  177.7640  146.4930 C   0  0  1  0  0  3  0  0  0  0  0  0
  188.0970  177.8160  142.6290 C   0  0  0  0  0  0  0  0  0  0  0  0
  189.4570  177.6430  143.6360 S   0  0  0  0  0  0  0  0  0  0  0  0
  184.6310  178.5660  144.1280 C   0  0  0  0  0  3  0  0  0  0  0  0
  184.9700  178.4770  145.3890 N   0  0  0  0  0  0  0  0  0  0  0  0
  185.5620  178.2110  142.9750 C   0  0  0  0  0  2  0  0  0  0  0  0
  188.0910  177.9770  141.2040 N   0  0  0  0  0  2  0  0  0  0  0  0
  191.3370  176.7160  139.8790 C   0  0  0  0  0  3  0  0  0  0  0  0
  191.1060  176.7070  138.5000 C   0  0  0  0  0  0  0  0  0  0  0  0
  190.3330  177.1320  140.7580 C   0  0  0  0  0  3  0  0  0  0  0  0
  189.0870  177.5410  140.2700 C   0  0  0  0  0  0  0  0  0  0  0  0
  189.8640  177.1300  138.0040 C   0  0  0  0  0  3  0  0  0  0  0  0
  188.8620  177.5450  138.8850 C   0  0  0  0  0  3  0  0  0  0  0  0
  192.2000  176.2740  137.5770 C   0  0  1  0  0  3  0  0  0  0  0  0
  193.4130  176.8670  137.9350 O   0  0  0  0  0  1  0  0  0  0  0  0
  192.3360  174.7870  137.5580 C   0  0  0  0  0  0  0  0  0  0  0  0
  193.4790  174.2650  137.4900 O   0  0  0  0  0  0  0  0  0  0  0  0
  191.2080  173.9760  137.5820 O   0  0  0  0  0  1  0  0  0  0  0  0
  2  9  1  0  0  0  0
  4  8  2  0  0  0  0
  5  2  2  0  0  0  0
  5  4  1  0  0  0  0
  6  5  1  0  0  0  0
  7  3  1  1  0  0  0
  8  7  1  0  0  0  0
  9  1  1  1  0  0  0
  9  7  1  0  0  0  0
 10  6  2  0  0  0  0
 10 11  1  0  0  0  0
 11  2  1  0  0  0  0
 12 13  2  0  0  0  0
 13  4  1  0  0  0  0
 14  6  1  0  0  0  0
 14 12  1  0  0  0  0
 15 10  1  0  0  0  0
 16 18  1  0  0  0  0
 17 16  2  0  0  0  0
 19 18  2  0  0  0  0
 19 15  1  0  0  0  0
 20 17  1  0  0  0  0
 20 21  2  0  0  0  0
 21 19  1  0  0  0  0
 22 23  1  1  0  0  0
 22 17  1  0  0  0  0
 24 22  1  0  0  0  0
 24 26  1  0  0  0  0
 25 24  2  0  0  0  0
M  END
>  <MODEL>
2

>  <REMARK>
 VINA RESULT:      -8.9      5.415      7.860
  Name = 
  4 active torsions:
  status: ('A' for Active; 'I' for Inactive)
    1  A    between atoms: N_4  and  C_16
    2  A    between atoms: N_4  and  C_19
    3  A    between atoms: C_10  and  C_11
    4  A    between atoms: C_11  and  C_14
                            x       y       z     vdW  Elec       q    Type
                         _______ _______ _______ _____ _____    ______ ____

>  <TORSDO>
F 4

$$$$
=
 OpenBabel11042412253D

 26 29  0  0  1  0  0  0  0  0999 V2000
  190.6130  176.8480  146.4330 C   0  0  0  0  0  1  0  0  0  0  0  0
  188.9560  177.6110  144.7600 C   0  0  0  0  0  0  0  0  0  0  0  0
  188.5550  178.0090  148.5350 C   0  0  0  0  0  1  0  0  0  0  0  0
  186.6140  177.9050  145.4480 C   0  0  0  0  0  0  0  0  0  0  0  0
  187.6290  177.7200  144.4360 C   0  0  0  0  0  0  0  0  0  0  0  0
  187.3420  177.8480  143.0900 C   0  0  0  0  0  0  0  0  0  0  0  0
  188.2770  177.4150  147.1670 C   0  0  1  0  0  3  0  0  0  0  0  0
  186.9380  177.8390  146.7060 N   0  0  0  0  0  0  0  0  0  0  0  0
  189.4240  177.7580  146.1780 C   0  0  1  0  0  3  0  0  0  0  0  0
  188.4870  177.8120  142.3020 C   0  0  0  0  0  0  0  0  0  0  0  0
  189.8410  177.6990  143.3260 S   0  0  0  0  0  0  0  0  0  0  0  0
  184.9660  178.3550  143.7630 C   0  0  0  0  0  3  0  0  0  0  0  0
  185.2930  178.2660  145.0270 N   0  0  0  0  0  0  0  0  0  0  0  0
  185.9300  178.0670  142.6180 C   0  0  0  0  0  2  0  0  0  0  0  0
  188.4920  177.9930  140.8790 N   0  0  0  0  0  2  0  0  0  0  0  0
  189.7300  176.3190  137.7900 C   0  0  0  0  0  3  0  0  0  0  0  0
  191.1060  176.2530  138.0250 C   0  0  0  0  0  0  0  0  0  0  0  0
  188.8820  176.9000  138.7370 C   0  0  0  0  0  3  0  0  0  0  0  0
  189.3980  177.4220  139.9270 C   0  0  0  0  0  0  0  0  0  0  0  0
  191.6290  176.7620  139.2220 C   0  0  0  0  0  3  0  0  0  0  0  0
  190.7780  177.3420  140.1670 C   0  0  0  0  0  3  0  0  0  0  0  0
  191.9940  175.6130  137.0050 C   0  0  1  0  0  3  0  0  0  0  0  0
  191.6940  176.0830  135.7250 O   0  0  0  0  0  1  0  0  0  0  0  0
  193.4350  175.8450  137.3190 C   0  0  0  0  0  0  0  0  0  0  0  0
  194.0060  176.8850  136.8980 O   0  0  0  0  0  0  0  0  0  0  0  0
  194.1590  174.9060  138.0440 O   0  0  0  0  0  1  0  0  0  0  0  0
  2  9  1  0  0  0  0
  4  8  2  0  0  0  0
  5  2  2  0  0  0  0
  5  4  1  0  0  0  0
  6  5  1  0  0  0  0
  7  3  1  1  0  0  0
  8  7  1  0  0  0  0
  9  1  1  1  0  0  0
  9  7  1  0  0  0  0
 10  6  2  0  0  0  0
 10 11  1  0  0  0  0
 11  2  1  0  0  0  0
 12 13  2  0  0  0  0
 13  4  1  0  0  0  0
 14  6  1  0  0  0  0
 14 12  1  0  0  0  0
 15 10  1  0  0  0  0
 16 17  2  0  0  0  0
 16 18  1  0  0  0  0
 17 20  1  0  0  0  0
 18 19  2  0  0  0  0
 19 21  1  0  0  0  0
 19 15  1  0  0  0  0
 20 21  2  0  0  0  0
 22 23  1  6  0  0  0
 22 24  1  0  0  0  0
 22 17  1  0  0  0  0
 24 26  1  0  0  0  0
 25 24  2  0  0  0  0
M  END
>  <MODEL>
3

>  <REMARK>
 VINA RESULT:      -8.7      5.634      8.096
  Name = 
  4 active torsions:
  status: ('A' for Active; 'I' for Inactive)
    1  A    between atoms: N_4  and  C_16
    2  A    between atoms: N_4  and  C_19
    3  A    between atoms: C_10  and  C_11
    4  A    between atoms: C_11  and  C_14
                            x       y       z     vdW  Elec       q    Type
                         _______ _______ _______ _____ _____    ______ ____

>  <TORSDO>
F 4

$$$$
=
 OpenBabel11042412253D

 26 29  0  0  1  0  0  0  0  0999 V2000
  188.8930  177.7000  147.6580 C   0  0  0  0  0  1  0  0  0  0  0  0
  188.8240  177.5210  145.1900 C   0  0  0  0  0  0  0  0  0  0  0  0
  191.6220  176.1250  147.3790 C   0  0  0  0  0  1  0  0  0  0  0  0
  190.9250  177.1850  143.9590 C   0  0  0  0  0  0  0  0  0  0  0  0
  189.5380  177.5820  144.0220 C   0  0  0  0  0  0  0  0  0  0  0  0
  188.8080  177.8460  142.8780 C   0  0  0  0  0  0  0  0  0  0  0  0
  190.9800  177.0870  146.3980 C   0  0  1  0  0  3  0  0  0  0  0  0
  191.5610  176.8840  145.0540 N   0  0  0  0  0  0  0  0  0  0  0  0
  189.4330  176.9650  146.4430 C   0  0  1  0  0  3  0  0  0  0  0  0
  187.4560  178.0300  143.1480 C   0  0  0  0  0  0  0  0  0  0  0  0
  187.2000  177.7810  144.8110 S   0  0  0  0  0  0  0  0  0  0  0  0
  190.8900  177.3100  141.5630 C   0  0  0  0  0  3  0  0  0  0  0  0
  191.5300  177.0290  142.6700 N   0  0  0  0  0  0  0  0  0  0  0  0
  189.4640  177.8460  141.5240 C   0  0  0  0  0  2  0  0  0  0  0  0
  186.4560  178.2470  142.1420 N   0  0  0  0  0  2  0  0  0  0  0  0
  182.8090  177.9740  141.4320 C   0  0  0  0  0  3  0  0  0  0  0  0
  182.2450  178.5190  142.5890 C   0  0  0  0  0  0  0  0  0  0  0  0
  184.1980  177.8860  141.3010 C   0  0  0  0  0  3  0  0  0  0  0  0
  185.0380  178.3400  142.3240 C   0  0  0  0  0  0  0  0  0  0  0  0
  183.0810  178.9880  143.6120 C   0  0  0  0  0  3  0  0  0  0  0  0
  184.4690  178.8990  143.4780 C   0  0  0  0  0  3  0  0  0  0  0  0
  180.7560  178.6180  142.7010 C   0  0  1  0  0  3  0  0  0  0  0  0
  180.3510  178.4740  144.0300 O   0  0  0  0  0  1  0  0  0  0  0  0
  180.2550  179.9090  142.1430 C   0  0  0  0  0  0  0  0  0  0  0  0
  180.0620  180.8880  142.9100 O   0  0  0  0  0  1  0  0  0  0  0  0
  179.9710  180.0280  140.7880 O   0  0  0  0  0  0  0  0  0  0  0  0
  2  9  1  0  0  0  0
  4  5  1  0  0  0  0
  4  8  2  0  0  0  0
  5  2  2  0  0  0  0
  6 10  2  0  0  0  0
  6  5  1  0  0  0  0
  7  9  1  0  0  0  0
  7  3  1  1  0  0  0
  8  7  1  0  0  0  0
  9  1  1  1  0  0  0
 10 11  1  0  0  0  0
 11  2  1  0  0  0  0
 12 13  2  0  0  0  0
 13  4  1  0  0  0  0
 14 12  1  0  0  0  0
 14  6  1  0  0  0  0
 15 19  1  0  0  0  0
 15 10  1  0  0  0  0
 16 17  1  0  0  0  0
 17 22  1  0  0  0  0
 17 20  2  0  0  0  0
 18 16  2  0  0  0  0
 18 19  1  0  0  0  0
 19 21  2  0  0  0  0
 21 20  1  0  0  0  0
 22 23  1  1  0  0  0
 24 22  1  0  0  0  0
 24 25  1  0  0  0  0
 26 24  2  0  0  0  0
M  END
>  <MODEL>
4

>  <REMARK>
 VINA RESULT:      -8.6      0.754      1.198
  Name = 
  4 active torsions:
  status: ('A' for Active; 'I' for Inactive)
    1  A    between atoms: N_4  and  C_16
    2  A    between atoms: N_4  and  C_19
    3  A    between atoms: C_10  and  C_11
    4  A    between atoms: C_11  and  C_14
                            x       y       z     vdW  Elec       q    Type
                         _______ _______ _______ _____ _____    ______ ____

>  <TORSDO>
F 4

$$$$
=
 OpenBabel11042412253D

 26 29  0  0  1  0  0  0  0  0999 V2000
  189.4920  176.5930  143.8210 C   0  0  0  0  0  1  0  0  0  0  0  0
  187.3210  177.7810  143.7860 C   0  0  0  0  0  0  0  0  0  0  0  0
  189.5800  177.4990  146.8500 C   0  0  0  0  0  1  0  0  0  0  0  0
  186.1130  178.1220  145.9000 C   0  0  0  0  0  0  0  0  0  0  0  0
  186.1570  178.0500  144.4580 C   0  0  0  0  0  0  0  0  0  0  0  0
  185.0850  178.4480  143.6810 C   0  0  0  0  0  0  0  0  0  0  0  0
  188.3700  177.1930  145.9880 C   0  0  1  0  0  3  0  0  0  0  0  0
  187.1650  177.7980  146.5950 N   0  0  0  0  0  0  0  0  0  0  0  0
  188.6210  177.6240  144.5180 C   0  0  1  0  0  3  0  0  0  0  0  0
  185.3990  178.4710  142.3260 C   0  0  0  0  0  0  0  0  0  0  0  0
  187.0410  178.0650  142.1460 S   0  0  0  0  0  0  0  0  0  0  0  0
  183.8830  179.0030  145.8250 C   0  0  0  0  0  3  0  0  0  0  0  0
  184.9370  178.6560  146.5190 N   0  0  0  0  0  0  0  0  0  0  0  0
  183.7830  178.8600  144.3110 C   0  0  0  0  0  2  0  0  0  0  0  0
  184.5010  178.9130  141.2990 N   0  0  0  0  0  2  0  0  0  0  0  0
  182.2820  176.4830  139.5520 C   0  0  0  0  0  3  0  0  0  0  0  0
  181.0100  176.9600  139.8810 C   0  0  0  0  0  0  0  0  0  0  0  0
  183.4220  177.1330  140.0310 C   0  0  0  0  0  3  0  0  0  0  0  0
  183.3060  178.2660  140.8440 C   0  0  0  0  0  0  0  0  0  0  0  0
  180.8860  178.1030  140.6840 C   0  0  0  0  0  3  0  0  0  0  0  0
  182.0280  178.7510  141.1610 C   0  0  0  0  0  3  0  0  0  0  0  0
  179.8020  176.2580  139.3440 C   0  0  1  0  0  3  0  0  0  0  0  0
  179.9950  175.8950  138.0090 O   0  0  0  0  0  1  0  0  0  0  0  0
  179.4640  175.0580  140.1650 C   0  0  0  0  0  0  0  0  0  0  0  0
  178.9800  175.2050  141.3180 O   0  0  0  0  0  1  0  0  0  0  0  0
  179.7090  173.7800  139.6780 O   0  0  0  0  0  0  0  0  0  0  0  0
  2  5  2  0  0  0  0
  2  9  1  0  0  0  0
  4 13  1  0  0  0  0
  4  8  2  0  0  0  0
  5  4  1  0  0  0  0
  6 14  1  0  0  0  0
  6  5  1  0  0  0  0
  7  8  1  0  0  0  0
  7  3  1  1  0  0  0
  9  1  1  6  0  0  0
  9  7  1  0  0  0  0
 10  6  2  0  0  0  0
 11 10  1  0  0  0  0
 11  2  1  0  0  0  0
 12 13  2  0  0  0  0
 14 12  1  0  0  0  0
 15 10  1  0  0  0  0
 16 17  2  0  0  0  0
 16 18  1  0  0  0  0
 17 20  1  0  0  0  0
 18 19  2  0  0  0  0
 19 21  1  0  0  0  0
 19 15  1  0  0  0  0
 20 21  2  0  0  0  0
 22 23  1  6  0  0  0
 22 17  1  0  0  0  0
 22 24  1  0  0  0  0
 24 25  1  0  0  0  0
 26 24  2  0  0  0  0
M  END
>  <MODEL>
5

>  <REMARK>
 VINA RESULT:      -8.4      2.703      4.361
  Name = 
  4 active torsions:
  status: ('A' for Active; 'I' for Inactive)
    1  A    between atoms: N_4  and  C_16
    2  A    between atoms: N_4  and  C_19
    3  A    between atoms: C_10  and  C_11
    4  A    between atoms: C_11  and  C_14
                            x       y       z     vdW  Elec       q    Type
                         _______ _______ _______ _____ _____    ______ ____

>  <TORSDO>
F 4

$$$$
=
 OpenBabel11042412253D

 26 29  0  0  1  0  0  0  0  0999 V2000
  185.7340  177.9020  137.5960 C   0  0  0  0  0  1  0  0  0  0  0  0
  187.9920  177.7370  138.5950 C   0  0  0  0  0  0  0  0  0  0  0  0
  187.2940  177.8840  134.8460 C   0  0  0  0  0  1  0  0  0  0  0  0
  189.8310  176.8240  137.2430 C   0  0  0  0  0  0  0  0  0  0  0  0
  189.2370  177.1690  138.5130 C   0  0  0  0  0  0  0  0  0  0  0  0
  189.9670  177.1360  139.6870 C   0  0  0  0  0  0  0  0  0  0  0  0
  187.6820  177.2290  136.1580 C   0  0  1  0  0  3  0  0  0  0  0  0
  189.1290  176.9290  136.1520 N   0  0  0  0  0  0  0  0  0  0  0  0
  187.2210  178.0980  137.3600 C   0  0  1  0  0  3  0  0  0  0  0  0
  189.2640  177.6760  140.7590 C   0  0  0  0  0  0  0  0  0  0  0  0
  187.7690  178.2530  140.1870 S   0  0  0  0  0  0  0  0  0  0  0  0
  191.9390  176.3910  138.3050 C   0  0  0  0  0  3  0  0  0  0  0  0
  191.2210  176.4780  137.2140 N   0  0  0  0  0  0  0  0  0  0  0  0
  191.3810  176.6210  139.7050 C   0  0  0  0  0  2  0  0  0  0  0  0
  189.8040  177.8340  142.0780 N   0  0  0  0  0  2  0  0  0  0  0  0
  187.0100  177.4260  144.5080 C   0  0  0  0  0  3  0  0  0  0  0  0
  187.6250  177.7590  145.7190 C   0  0  0  0  0  0  0  0  0  0  0  0
  187.7410  177.4500  143.3180 C   0  0  0  0  0  3  0  0  0  0  0  0
  189.0950  177.8050  143.3230 C   0  0  0  0  0  0  0  0  0  0  0  0
  188.9770  178.1290  145.7290 C   0  0  0  0  0  3  0  0  0  0  0  0
  189.7060  178.1520  144.5370 C   0  0  0  0  0  3  0  0  0  0  0  0
  186.8190  177.7420  146.9790 C   0  0  1  0  0  3  0  0  0  0  0  0
  187.6480  177.8510  148.0970 O   0  0  0  0  0  1  0  0  0  0  0  0
  185.7960  178.8300  146.9830 C   0  0  0  0  0  0  0  0  0  0  0  0
  186.0560  179.9290  147.5400 O   0  0  0  0  0  1  0  0  0  0  0  0
  184.5490  178.6280  146.4040 O   0  0  0  0  0  0  0  0  0  0  0  0
  2 11  1  0  0  0  0
  4  5  1  0  0  0  0
  5  2  2  0  0  0  0
  5  6  1  0  0  0  0
  6 14  1  0  0  0  0
  6 10  2  0  0  0  0
  7  3  1  6  0  0  0
  7  9  1  0  0  0  0
  8  7  1  0  0  0  0
  8  4  2  0  0  0  0
  9  1  1  1  0  0  0
  9  2  1  0  0  0  0
 10 15  1  0  0  0  0
 11 10  1  0  0  0  0
 12 14  1  0  0  0  0
 13  4  1  0  0  0  0
 13 12  2  0  0  0  0
 15 19  1  0  0  0  0
 16 17  1  0  0  0  0
 17 20  2  0  0  0  0
 17 22  1  0  0  0  0
 18 19  1  0  0  0  0
 18 16  2  0  0  0  0
 19 21  2  0  0  0  0
 21 20  1  0  0  0  0
 22 24  1  0  0  0  0
 22 23  1  1  0  0  0
 24 25  1  0  0  0  0
 26 24  2  0  0  0  0
M  END
>  <MODEL>
6

>  <REMARK>
 VINA RESULT:      -8.3      4.404      7.162
  Name = 
  4 active torsions:
  status: ('A' for Active; 'I' for Inactive)
    1  A    between atoms: N_4  and  C_16
    2  A    between atoms: N_4  and  C_19
    3  A    between atoms: C_10  and  C_11
    4  A    between atoms: C_11  and  C_14
                            x       y       z     vdW  Elec       q    Type
                         _______ _______ _______ _____ _____    ______ ____

>  <TORSDO>
F 4

$$$$
=
 OpenBabel11042412253D

 26 29  0  0  1  0  0  0  0  0999 V2000
  189.3720  176.2310  142.5470 C   0  0  0  0  0  1  0  0  0  0  0  0
  188.0680  177.4080  144.2910 C   0  0  0  0  0  0  0  0  0  0  0  0
  191.8310  176.7910  144.4550 C   0  0  0  0  0  1  0  0  0  0  0  0
  188.9540  177.5050  146.5820 C   0  0  0  0  0  0  0  0  0  0  0  0
  187.8690  177.5960  145.6340 C   0  0  0  0  0  0  0  0  0  0  0  0
  186.6250  178.0760  146.0010 C   0  0  0  0  0  0  0  0  0  0  0  0
  190.3750  176.5800  144.8250 C   0  0  1  0  0  3  0  0  0  0  0  0
  190.1280  177.1080  146.1830 N   0  0  0  0  0  0  0  0  0  0  0  0
  189.4420  177.1740  143.7360 C   0  0  1  0  0  3  0  0  0  0  0  0
  185.7850  178.2520  144.9060 C   0  0  0  0  0  0  0  0  0  0  0  0
  186.6550  177.8730  143.4940 S   0  0  0  0  0  0  0  0  0  0  0  0
  187.5560  178.3830  148.3230 C   0  0  0  0  0  3  0  0  0  0  0  0
  188.7280  177.9620  147.9200 N   0  0  0  0  0  0  0  0  0  0  0  0
  186.3170  178.4100  147.4350 C   0  0  0  0  0  2  0  0  0  0  0  0
  184.4640  178.8040  144.9860 N   0  0  0  0  0  2  0  0  0  0  0  0
  181.1110  179.0060  143.3730 C   0  0  0  0  0  3  0  0  0  0  0  0
  181.4250  178.8280  142.0230 C   0  0  0  0  0  0  0  0  0  0  0  0
  182.1230  179.0010  144.3370 C   0  0  0  0  0  3  0  0  0  0  0  0
  183.4590  178.8200  143.9640 C   0  0  0  0  0  0  0  0  0  0  0  0
  182.7610  178.6310  141.6430 C   0  0  0  0  0  3  0  0  0  0  0  0
  183.7700  178.6270  142.6100 C   0  0  0  0  0  3  0  0  0  0  0  0
  180.3250  178.8200  141.0100 C   0  0  1  0  0  3  0  0  0  0  0  0
  179.1360  178.3530  141.5750 O   0  0  0  0  0  1  0  0  0  0  0  0
  180.1210  180.1770  140.4210 C   0  0  0  0  0  0  0  0  0  0  0  0
  180.3790  180.3750  139.2040 O   0  0  0  0  0  0  0  0  0  0  0  0
  179.6800  181.2300  141.2130 O   0  0  0  0  0  1  0  0  0  0  0  0
  2  5  2  0  0  0  0
  4 13  1  0  0  0  0
  5  6  1  0  0  0  0
  5  4  1  0  0  0  0
  6 14  1  0  0  0  0
  7  3  1  6  0  0  0
  7  8  1  0  0  0  0
  8  4  2  0  0  0  0
  9  1  1  6  0  0  0
  9  2  1  0  0  0  0
  9  7  1  0  0  0  0
 10 15  1  0  0  0  0
 10  6  2  0  0  0  0
 11  2  1  0  0  0  0
 11 10  1  0  0  0  0
 13 12  2  0  0  0  0
 14 12  1  0  0  0  0
 16 18  1  0  0  0  0
 17 16  2  0  0  0  0
 19 18  2  0  0  0  0
 19 15  1  0  0  0  0
 20 17  1  0  0  0  0
 20 21  2  0  0  0  0
 21 19  1  0  0  0  0
 22 23  1  1  0  0  0
 22 17  1  0  0  0  0
 24 22  1  0  0  0  0
 24 26  1  0  0  0  0
 25 24  2  0  0  0  0
M  END
>  <MODEL>
7

>  <REMARK>
 VINA RESULT:      -8.3      1.871      3.576
  Name = 
  4 active torsions:
  status: ('A' for Active; 'I' for Inactive)
    1  A    between atoms: N_4  and  C_16
    2  A    between atoms: N_4  and  C_19
    3  A    between atoms: C_10  and  C_11
    4  A    between atoms: C_11  and  C_14
                            x       y       z     vdW  Elec       q    Type
                         _______ _______ _______ _____ _____    ______ ____

>  <TORSDO>
F 4

$$$$
=
 OpenBabel11042412253D

 26 29  0  0  1  0  0  0  0  0999 V2000
  188.5680  175.0210  136.1680 C   0  0  0  0  0  1  0  0  0  0  0  0
  189.7530  176.3590  137.8800 C   0  0  0  0  0  0  0  0  0  0  0  0
  191.3630  175.0220  134.6880 C   0  0  0  0  0  1  0  0  0  0  0  0
  192.2010  176.1940  138.0390 C   0  0  0  0  0  0  0  0  0  0  0  0
  190.9100  176.5300  138.5940 C   0  0  0  0  0  0  0  0  0  0  0  0
  190.7920  177.2260  139.7830 C   0  0  0  0  0  0  0  0  0  0  0  0
  191.0800  175.0810  136.1770 C   0  0  1  0  0  3  0  0  0  0  0  0
  192.2710  175.5950  136.8860 N   0  0  0  0  0  0  0  0  0  0  0  0
  189.7820  175.8860  136.4560 C   0  0  1  0  0  3  0  0  0  0  0  0
  189.4790  177.6030  140.0430 C   0  0  0  0  0  0  0  0  0  0  0  0
  188.5100  177.1190  138.7310 S   0  0  0  0  0  0  0  0  0  0  0  0
  193.3110  177.2570  139.8820 C   0  0  0  0  0  3  0  0  0  0  0  0
  193.3750  176.6340  138.7320 N   0  0  0  0  0  0  0  0  0  0  0  0
  192.0050  177.5570  140.6090 C   0  0  0  0  0  2  0  0  0  0  0  0
  189.0770  178.3960  141.1690 N   0  0  0  0  0  2  0  0  0  0  0  0
  188.0990  176.7770  144.3780 C   0  0  0  0  0  3  0  0  0  0  0  0
  189.0580  177.2790  145.2630 C   0  0  0  0  0  0  0  0  0  0  0  0
  188.1210  177.1490  143.0310 C   0  0  0  0  0  3  0  0  0  0  0  0
  189.1010  178.0260  142.5530 C   0  0  0  0  0  0  0  0  0  0  0  0
  190.0340  178.1690  144.7930 C   0  0  0  0  0  3  0  0  0  0  0  0
  190.0540  178.5400  143.4450 C   0  0  0  0  0  3  0  0  0  0  0  0
  189.0060  176.8790  146.7030 C   0  0  1  0  0  3  0  0  0  0  0  0
  190.2900  176.6270  147.1920 O   0  0  0  0  0  1  0  0  0  0  0  0
  188.3310  177.9230  147.5320 C   0  0  0  0  0  0  0  0  0  0  0  0
  188.9660  178.4930  148.4560 O   0  0  0  0  0  1  0  0  0  0  0  0
  186.9980  178.2450  147.3090 O   0  0  0  0  0  0  0  0  0  0  0  0
  2  5  2  0  0  0  0
  2 11  1  0  0  0  0
  4  5  1  0  0  0  0
  4 13  1  0  0  0  0
  5  6  1  0  0  0  0
  6 10  2  0  0  0  0
  6 14  1  0  0  0  0
  7  3  1  6  0  0  0
  7  9  1  0  0  0  0
  7  8  1  0  0  0  0
  8  4  2  0  0  0  0
  9  1  1  1  0  0  0
  9  2  1  0  0  0  0
 10 15  1  0  0  0  0
 11 10  1  0  0  0  0
 12 14  1  0  0  0  0
 13 12  2  0  0  0  0
 15 19  1  0  0  0  0
 16 17  1  0  0  0  0
 17 22  1  0  0  0  0
 18 16  2  0  0  0  0
 19 18  1  0  0  0  0
 19 21  2  0  0  0  0
 20 17  2  0  0  0  0
 21 20  1  0  0  0  0
 22 23  1  1  0  0  0
 22 24  1  0  0  0  0
 24 25  1  0  0  0  0
 26 24  2  0  0  0  0
M  END
>  <MODEL>
8

>  <REMARK>
 VINA RESULT:      -8.2      4.986      7.826
  Name = 
  4 active torsions:
  status: ('A' for Active; 'I' for Inactive)
    1  A    between atoms: N_4  and  C_16
    2  A    between atoms: N_4  and  C_19
    3  A    between atoms: C_10  and  C_11
    4  A    between atoms: C_11  and  C_14
                            x       y       z     vdW  Elec       q    Type
                         _______ _______ _______ _____ _____    ______ ____

>  <TORSDO>
F 4

$$$$
=
 OpenBabel11042412253D

 26 29  0  0  1  0  0  0  0  0999 V2000
  190.6410  176.7470  146.2560 C   0  0  0  0  0  1  0  0  0  0  0  0
  188.9800  177.6880  144.6810 C   0  0  0  0  0  0  0  0  0  0  0  0
  188.4960  177.4790  148.4610 C   0  0  0  0  0  1  0  0  0  0  0  0
  186.6160  177.7700  145.3490 C   0  0  0  0  0  0  0  0  0  0  0  0
  187.6550  177.7880  144.3460 C   0  0  0  0  0  0  0  0  0  0  0  0
  187.3850  178.1100  143.0290 C   0  0  0  0  0  0  0  0  0  0  0  0
  188.2690  177.0920  147.0120 C   0  0  1  0  0  3  0  0  0  0  0  0
  186.9200  177.5240  146.5900 N   0  0  0  0  0  0  0  0  0  0  0  0
  189.4160  177.6330  146.1160 C   0  0  1  0  0  3  0  0  0  0  0  0
  188.5440  178.2470  142.2730 C   0  0  0  0  0  0  0  0  0  0  0  0
  189.8840  178.0340  143.2990 S   0  0  0  0  0  0  0  0  0  0  0  0
  184.9770  178.4040  143.7140 C   0  0  0  0  0  3  0  0  0  0  0  0
  185.2870  178.1350  144.9570 N   0  0  0  0  0  0  0  0  0  0  0  0
  185.9730  178.3390  142.5620 C   0  0  0  0  0  2  0  0  0  0  0  0
  188.5650  178.6450  140.8950 N   0  0  0  0  0  2  0  0  0  0  0  0
  190.8100  176.6790  138.6660 C   0  0  0  0  0  3  0  0  0  0  0  0
  189.9740  176.4020  137.5800 C   0  0  0  0  0  0  0  0  0  0  0  0
  190.3310  177.4140  139.7530 C   0  0  0  0  0  3  0  0  0  0  0  0
  189.0110  177.8800  139.7690 C   0  0  0  0  0  0  0  0  0  0  0  0
  188.6550  176.8780  137.5830 C   0  0  0  0  0  3  0  0  0  0  0  0
  188.1790  177.6130  138.6720 C   0  0  0  0  0  3  0  0  0  0  0  0
  190.5130  175.6270  136.4200 C   0  0  1  0  0  3  0  0  0  0  0  0
  191.9100  175.6120  136.4410 O   0  0  0  0  0  1  0  0  0  0  0  0
  189.9800  174.2320  136.4040 C   0  0  0  0  0  0  0  0  0  0  0  0
  189.4170  173.7910  135.3690 O   0  0  0  0  0  0  0  0  0  0  0  0
  190.0720  173.4300  137.5350 O   0  0  0  0  0  1  0  0  0  0  0  0
  2  9  1  0  0  0  0
  4  8  2  0  0  0  0
  5  2  2  0  0  0  0
  5  4  1  0  0  0  0
  6  5  1  0  0  0  0
  7  3  1  1  0  0  0
  8  7  1  0  0  0  0
  9  1  1  6  0  0  0
  9  7  1  0  0  0  0
 10  6  2  0  0  0  0
 10 11  1  0  0  0  0
 11  2  1  0  0  0  0
 12 13  2  0  0  0  0
 13  4  1  0  0  0  0
 14  6  1  0  0  0  0
 14 12  1  0  0  0  0
 15 10  1  0  0  0  0
 16 18  1  0  0  0  0
 17 20  1  0  0  0  0
 17 16  2  0  0  0  0
 18 19  2  0  0  0  0
 19 15  1  0  0  0  0
 20 21  2  0  0  0  0
 21 19  1  0  0  0  0
 22 23  1  1  0  0  0
 22 17  1  0  0  0  0
 24 22  1  0  0  0  0
 24 26  1  0  0  0  0
 25 24  2  0  0  0  0
M  END
>  <MODEL>
9

>  <REMARK>
 VINA RESULT:      -8.2      5.233      7.400
  Name = 
  4 active torsions:
  status: ('A' for Active; 'I' for Inactive)
    1  A    between atoms: N_4  and  C_16
    2  A    between atoms: N_4  and  C_19
    3  A    between atoms: C_10  and  C_11
    4  A    between atoms: C_11  and  C_14
                            x       y       z     vdW  Elec       q    Type
                         _______ _______ _______ _____ _____    ______ ____

>  <TORSDO>
F 4

$$$$
