=
 OpenBabel11042411553D

 37 39  0  0  1  0  0  0  0  0999 V2000
  183.7620  178.9720  145.2660 C   0  0  0  0  0  2  0  0  0  0  0  0
  185.8050  178.0490  144.1390 C   0  0  2  0  0  3  0  0  0  0  0  0
  185.1530  178.2810  142.7710 C   0  0  0  0  0  2  0  0  0  0  0  0
  183.1320  179.2180  143.8990 C   0  0  0  0  0  2  0  0  0  0  0  0
  185.2840  179.0510  145.1700 C   0  0  0  0  0  2  0  0  0  0  0  0
  183.6370  178.1810  142.9010 C   0  0  1  0  0  3  0  0  0  0  0  0
  187.3410  178.0540  144.0830 C   0  0  1  0  0  3  0  0  0  0  0  0
  191.7850  176.4540  146.6790 C   0  0  0  0  0  3  0  0  0  0  0  0
  190.4830  177.2400  144.7840 C   0  0  0  0  0  3  0  0  0  0  0  0
  187.3050  177.4950  146.5280 C   0  0  0  0  0  3  0  0  0  0  0  0
  187.9930  177.6810  145.3960 C   0  0  0  0  0  0  0  0  0  0  0  0
  189.4960  176.9300  146.9500 C   0  0  0  0  0  0  0  0  0  0  0  0
  190.6760  176.5110  147.4740 N   0  0  0  0  0  2  0  0  0  0  0  0
  188.1950  177.0310  147.6530 C   0  0  0  0  0  3  0  0  0  0  0  0
  191.7090  176.8150  145.3210 C   0  0  0  0  0  3  0  0  0  0  0  0
  189.3810  177.3000  145.6380 C   0  0  0  0  0  0  0  0  0  0  0  0
  188.6720  177.7830  142.0160 C   0  0  0  0  0  3  0  0  0  0  0  0
  187.8930  177.2330  142.9470 C   0  0  0  0  0  3  0  0  0  0  0  0
  190.3040  176.2120  141.3410 O   0  0  0  0  0  1  0  0  0  0  0  0
  189.2090  176.9570  140.8960 C   0  0  2  0  0  3  0  0  0  0  0  0
  189.6360  177.8700  139.7580 C   0  0  0  0  0  2  0  0  0  0  0  0
  187.5840  178.5660  138.7590 O   0  0  0  0  0  1  0  0  0  0  0  0
  188.6910  177.7340  138.5760 C   0  0  0  0  0  3  0  0  0  0  0  0
  189.3550  178.1040  137.4090 O   0  0  0  0  0  1  0  0  0  0  0  0
  183.0180  178.4060  141.6070 N   0  0  0  0  0  2  0  0  0  0  0  0
  184.0200  178.9060  140.7660 N   0  0  0  0  0  2  0  0  0  0  0  0
  184.6300  180.1160  138.8840 O   0  0  0  0  0  0  0  0  0  0  0  0
  182.3400  179.9570  139.2830 N   0  0  0  0  0  2  0  0  0  0  0  0
  183.7000  179.6760  139.6110 C   0  0  0  0  0  0  0  0  0  0  0  0
  180.4790  182.0300  139.0760 O   0  0  0  0  0  0  0  0  0  0  0  0
  182.0100  180.5860  138.0760 N   0  0  0  0  0  2  0  0  0  0  0  0
  181.0060  181.6010  138.0130 C   0  0  0  0  0  0  0  0  0  0  0  0
  180.5650  182.1670  136.6920 C   0  0  1  0  0  3  0  0  0  0  0  0
  179.1700  181.7070  136.2920 C   0  0  0  0  0  1  0  0  0  0  0  0
  179.6510  184.3350  136.3080 O   0  0  0  0  0  0  0  0  0  0  0  0
  181.8230  184.3290  137.1290 N   0  0  0  0  0  1  0  0  0  0  0  0
  180.6420  183.6610  136.6940 C   0  0  0  0  0  0  0  0  0  0  0  0
  2  7  1  6  0  0  0
  2  5  1  0  0  0  0
  3  6  1  0  0  0  0
  3  2  1  0  0  0  0
  4  1  1  0  0  0  0
  5  1  1  0  0  0  0
  6 25  1  6  0  0  0
  6  4  1  0  0  0  0
  7 18  1  6  0  0  0
  7 11  1  0  0  0  0
  8 13  1  0  0  0  0
  9 15  1  0  0  0  0
  9 16  2  0  0  0  0
 10 14  1  0  0  0  0
 11 16  1  0  0  0  0
 11 10  2  0  0  0  0
 12 13  1  0  0  0  0
 12 14  2  0  0  0  0
 15  8  2  0  0  0  0
 16 12  1  0  0  0  0
 17 18  2  0  0  0  0
 20 19  1  1  0  0  0
 20 17  1  0  0  0  0
 21 20  1  0  0  0  0
 23 22  1  0  0  0  0
 23 21  1  0  0  0  0
 24 23  1  0  0  0  0
 26 25  1  0  0  0  0
 27 29  2  0  0  0  0
 28 29  1  0  0  0  0
 29 26  1  0  0  0  0
 31 28  1  0  0  0  0
 32 31  1  0  0  0  0
 32 30  2  0  0  0  0
 33 34  1  1  0  0  0
 33 37  1  0  0  0  0
 33 32  1  0  0  0  0
 35 37  2  0  0  0  0
 37 36  1  0  0  0  0
M  END
>  <MODEL>
1

>  <REMARK>
 VINA RESULT:      -9.6      0.000      0.000
  Name = 
  11 active torsions:
  status: ('A' for Active; 'I' for Inactive)
    1  A    between atoms: C_5  and  C_6
    2  A    between atoms: C_6  and  C_21
    3  A    between atoms: C_6  and  C_37
    4  A    between atoms: C_7  and  C_30
    5  A    between atoms: C_10  and  C_12
    6  A    between atoms: C_10  and  C_33
    7  A    between atoms: N_11  and  N_25
    8  A    between atoms: N_13  and  N_17
    9  A    between atoms: N_13  and  C_29
   10  A    between atoms: C_14  and  C_19
   11  A    between atoms: C_14  and  C_30
                            x       y       z     vdW  Elec       q    Type
                         _______ _______ _______ _____ _____    ______ ____

>  <TORSDO>
F 11

$$$$
=
 OpenBabel11042411553D

 37 39  0  0  1  0  0  0  0  0999 V2000
  191.0590  176.7620  140.3000 C   0  0  0  0  0  2  0  0  0  0  0  0
  189.3060  177.5680  141.9050 C   0  0  2  0  0  3  0  0  0  0  0  0
  188.4880  178.1190  140.7310 C   0  0  0  0  0  2  0  0  0  0  0  0
  190.2260  177.2940  139.1390 C   0  0  0  0  0  2  0  0  0  0  0  0
  190.1540  176.3720  141.4670 C   0  0  0  0  0  2  0  0  0  0  0  0
  189.4230  178.5100  139.5930 C   0  0  1  0  0  3  0  0  0  0  0  0
  188.4450  177.2220  143.1310 C   0  0  1  0  0  3  0  0  0  0  0  0
  188.5180  177.9000  148.4770 C   0  0  0  0  0  3  0  0  0  0  0  0
  187.5110  177.7670  146.2700 C   0  0  0  0  0  3  0  0  0  0  0  0
  190.5560  176.9600  144.4600 C   0  0  0  0  0  3  0  0  0  0  0  0
  189.2330  177.1510  144.4200 C   0  0  0  0  0  0  0  0  0  0  0  0
  189.8510  177.3600  146.6140 C   0  0  0  0  0  0  0  0  0  0  0  0
  189.7380  177.5890  147.9470 N   0  0  0  0  0  2  0  0  0  0  0  0
  191.0910  177.0360  145.8680 C   0  0  0  0  0  3  0  0  0  0  0  0
  187.3840  177.9970  147.6490 C   0  0  0  0  0  3  0  0  0  0  0  0
  188.7720  177.4340  145.7760 C   0  0  0  0  0  0  0  0  0  0  0  0
  186.0480  177.7380  142.8130 C   0  0  0  0  0  3  0  0  0  0  0  0
  187.2400  178.1130  143.2760 C   0  0  0  0  0  3  0  0  0  0  0  0
  184.7970  179.5120  141.8780 O   0  0  0  0  0  1  0  0  0  0  0  0
  184.8640  178.6340  142.9620 C   0  0  2  0  0  3  0  0  0  0  0  0
  184.9900  179.4220  144.2560 C   0  0  0  0  0  2  0  0  0  0  0  0
  182.8040  178.4810  144.4300 O   0  0  0  0  0  1  0  0  0  0  0  0
  183.7470  179.2520  145.1130 C   0  0  0  0  0  3  0  0  0  0  0  0
  184.0900  178.6130  146.3020 O   0  0  0  0  0  1  0  0  0  0  0  0
  188.6490  179.0270  138.4780 N   0  0  0  0  0  2  0  0  0  0  0  0
  188.0790  177.9170  137.8400 N   0  0  0  0  0  2  0  0  0  0  0  0
  186.1910  176.7460  137.1770 O   0  0  0  0  0  0  0  0  0  0  0  0
  185.7930  178.7220  138.3450 N   0  0  0  0  0  0  0  0  0  0  0  0
  186.6660  177.7510  137.7670 C   0  0  0  0  0  0  0  0  0  0  0  0
  183.9230  180.7160  138.9170 O   0  0  0  0  0  0  0  0  0  0  0  0
  184.4120  178.4960  138.4050 N   0  0  0  0  0  0  0  0  0  0  0  0
  183.5000  179.5370  138.7620 C   0  0  0  0  0  0  0  0  0  0  0  0
  182.0390  179.2470  138.9580 C   0  0  1  0  0  3  0  0  0  0  0  0
  181.3890  178.6370  137.7230 C   0  0  0  0  0  1  0  0  0  0  0  0
  181.9810  177.1280  140.0470 O   0  0  0  0  0  0  0  0  0  0  0  0
  181.4300  178.9310  141.4030 N   0  0  0  0  0  1  0  0  0  0  0  0
  181.8190  178.3720  140.1510 C   0  0  0  0  0  0  0  0  0  0  0  0
  1  5  1  0  0  0  0
  2  7  1  1  0  0  0
  3  2  1  0  0  0  0
  4  6  1  0  0  0  0
  4  1  1  0  0  0  0
  5  2  1  0  0  0  0
  6 25  1  6  0  0  0
  6  3  1  0  0  0  0
  7 18  1  1  0  0  0
  7 11  1  0  0  0  0
  9 15  1  0  0  0  0
 10 14  1  0  0  0  0
 11 10  2  0  0  0  0
 11 16  1  0  0  0  0
 12 13  1  0  0  0  0
 13  8  1  0  0  0  0
 14 12  2  0  0  0  0
 15  8  2  0  0  0  0
 16  9  2  0  0  0  0
 16 12  1  0  0  0  0
 17 20  1  0  0  0  0
 17 18  2  0  0  0  0
 20 19  1  6  0  0  0
 20 21  1  0  0  0  0
 21 23  1  0  0  0  0
 22 23  1  0  0  0  0
 23 24  1  0  0  0  0
 26 25  1  0  0  0  0
 27 29  2  0  0  0  0
 28 31  2  0  0  0  0
 29 26  1  0  0  0  0
 29 28  1  0  0  0  0
 31 32  1  0  0  0  0
 32 30  2  0  0  0  0
 32 33  1  0  0  0  0
 33 34  1  6  0  0  0
 33 37  1  0  0  0  0
 35 37  2  0  0  0  0
 37 36  1  0  0  0  0
M  END
>  <MODEL>
2

>  <REMARK>
 VINA RESULT:      -9.5      2.653      5.362
  Name = 
  11 active torsions:
  status: ('A' for Active; 'I' for Inactive)
    1  A    between atoms: C_5  and  C_6
    2  A    between atoms: C_6  and  C_21
    3  A    between atoms: C_6  and  C_37
    4  A    between atoms: C_7  and  C_30
    5  A    between atoms: C_10  and  C_12
    6  A    between atoms: C_10  and  C_33
    7  A    between atoms: N_11  and  N_25
    8  A    between atoms: N_13  and  N_17
    9  A    between atoms: N_13  and  C_29
   10  A    between atoms: C_14  and  C_19
   11  A    between atoms: C_14  and  C_30
                            x       y       z     vdW  Elec       q    Type
                         _______ _______ _______ _____ _____    ______ ____

>  <TORSDO>
F 11

$$$$
=
 OpenBabel11042411553D

 37 39  0  0  1  0  0  0  0  0999 V2000
  190.0310  175.9920  142.8160 C   0  0  0  0  0  2  0  0  0  0  0  0
  188.0070  177.4630  143.0140 C   0  0  2  0  0  3  0  0  0  0  0  0
  188.1520  177.8590  141.5400 C   0  0  0  0  0  2  0  0  0  0  0  0
  190.1530  176.3770  141.3450 C   0  0  0  0  0  2  0  0  0  0  0  0
  188.5720  176.0630  143.2630 C   0  0  0  0  0  2  0  0  0  0  0  0
  189.6200  177.7920  141.1340 C   0  0  1  0  0  3  0  0  0  0  0  0
  186.5630  177.5810  143.5310 C   0  0  1  0  0  3  0  0  0  0  0  0
  188.9110  177.9390  148.3690 C   0  0  0  0  0  3  0  0  0  0  0  0
  188.7880  177.4520  145.9910 C   0  0  0  0  0  3  0  0  0  0  0  0
  185.3440  178.5060  145.5170 C   0  0  0  0  0  3  0  0  0  0  0  0
  186.4730  178.0480  144.9660 C   0  0  0  0  0  0  0  0  0  0  0  0
  186.9250  178.3810  147.1850 C   0  0  0  0  0  0  0  0  0  0  0  0
  187.6200  178.3870  148.3510 N   0  0  0  0  0  2  0  0  0  0  0  0
  185.5180  178.8030  146.9850 C   0  0  0  0  0  3  0  0  0  0  0  0
  189.5170  177.4620  147.1910 C   0  0  0  0  0  3  0  0  0  0  0  0
  187.4800  177.9350  146.0170 C   0  0  0  0  0  0  0  0  0  0  0  0
  184.5450  177.9100  142.1400 C   0  0  0  0  0  3  0  0  0  0  0  0
  185.6810  178.4060  142.6310 C   0  0  0  0  0  3  0  0  0  0  0  0
  182.3810  178.7790  141.7540 O   0  0  0  0  0  1  0  0  0  0  0  0
  183.6830  178.7390  141.2480 C   0  0  2  0  0  3  0  0  0  0  0  0
  183.6740  178.1350  139.8530 C   0  0  0  0  0  2  0  0  0  0  0  0
  184.2750  180.3510  139.2010 O   0  0  0  0  0  1  0  0  0  0  0  0
  184.4620  179.0030  138.8860 C   0  0  0  0  0  3  0  0  0  0  0  0
  185.8160  178.6920  138.9840 O   0  0  0  0  0  1  0  0  0  0  0  0
  189.7600  178.1620  139.7370 N   0  0  0  0  0  2  0  0  0  0  0  0
  189.2530  177.0910  138.9880 N   0  0  0  0  0  2  0  0  0  0  0  0
  189.5760  175.4370  137.3960 O   0  0  0  0  0  0  0  0  0  0  0  0
  191.4240  176.7840  137.8400 N   0  0  0  0  0  2  0  0  0  0  0  0
  190.0650  176.3990  138.0430 C   0  0  0  0  0  0  0  0  0  0  0  0
  194.1490  176.2130  138.0680 O   0  0  0  0  0  0  0  0  0  0  0  0
  192.1850  176.2080  136.8140 N   0  0  0  0  0  2  0  0  0  0  0  0
  193.5900  175.9910  136.9590 C   0  0  0  0  0  0  0  0  0  0  0  0
  194.4170  175.5020  135.8030 C   0  0  1  0  0  3  0  0  0  0  0  0
  194.8080  176.6200  134.8450 C   0  0  0  0  0  1  0  0  0  0  0  0
  195.5840  173.5280  136.4520 O   0  0  0  0  0  0  0  0  0  0  0  0
  196.8460  175.4760  136.5410 N   0  0  0  0  0  1  0  0  0  0  0  0
  195.6330  174.7740  136.2800 C   0  0  0  0  0  0  0  0  0  0  0  0
  1  5  1  0  0  0  0
  2  5  1  0  0  0  0
  2  7  1  6  0  0  0
  3  2  1  0  0  0  0
  4  1  1  0  0  0  0
  6 25  1  6  0  0  0
  6  4  1  0  0  0  0
  6  3  1  0  0  0  0
  7 18  1  6  0  0  0
  7 11  1  0  0  0  0
  9 16  2  0  0  0  0
  9 15  1  0  0  0  0
 10 14  1  0  0  0  0
 11 10  2  0  0  0  0
 11 16  1  0  0  0  0
 12 13  1  0  0  0  0
 13  8  1  0  0  0  0
 14 12  2  0  0  0  0
 15  8  2  0  0  0  0
 16 12  1  0  0  0  0
 17 18  2  0  0  0  0
 20 19  1  1  0  0  0
 20 17  1  0  0  0  0
 21 20  1  0  0  0  0
 23 24  1  0  0  0  0
 23 22  1  0  0  0  0
 23 21  1  0  0  0  0
 26 25  1  0  0  0  0
 27 29  2  0  0  0  0
 28 29  1  0  0  0  0
 29 26  1  0  0  0  0
 31 32  1  0  0  0  0
 31 28  1  0  0  0  0
 32 30  2  0  0  0  0
 33 34  1  1  0  0  0
 33 37  1  0  0  0  0
 33 32  1  0  0  0  0
 37 35  2  0  0  0  0
 37 36  1  0  0  0  0
M  END
>  <MODEL>
3

>  <REMARK>
 VINA RESULT:      -9.3      4.419      8.681
  Name = 
  11 active torsions:
  status: ('A' for Active; 'I' for Inactive)
    1  A    between atoms: C_5  and  C_6
    2  A    between atoms: C_6  and  C_21
    3  A    between atoms: C_6  and  C_37
    4  A    between atoms: C_7  and  C_30
    5  A    between atoms: C_10  and  C_12
    6  A    between atoms: C_10  and  C_33
    7  A    between atoms: N_11  and  N_25
    8  A    between atoms: N_13  and  N_17
    9  A    between atoms: N_13  and  C_29
   10  A    between atoms: C_14  and  C_19
   11  A    between atoms: C_14  and  C_30
                            x       y       z     vdW  Elec       q    Type
                         _______ _______ _______ _____ _____    ______ ____

>  <TORSDO>
F 11

$$$$
=
 OpenBabel11042411553D

 37 39  0  0  1  0  0  0  0  0999 V2000
  183.6790  179.1030  144.9250 C   0  0  0  0  0  2  0  0  0  0  0  0
  185.7790  178.0790  144.0080 C   0  0  2  0  0  3  0  0  0  0  0  0
  185.1740  178.1030  142.6000 C   0  0  0  0  0  2  0  0  0  0  0  0
  183.0960  179.1410  143.5170 C   0  0  0  0  0  2  0  0  0  0  0  0
  185.2020  179.2040  144.8700 C   0  0  0  0  0  2  0  0  0  0  0  0
  183.6560  177.9860  142.6920 C   0  0  1  0  0  3  0  0  0  0  0  0
  187.3170  178.1130  144.0040 C   0  0  1  0  0  3  0  0  0  0  0  0
  191.6670  176.4920  146.7420 C   0  0  0  0  0  3  0  0  0  0  0  0
  190.4240  177.2550  144.7980 C   0  0  0  0  0  3  0  0  0  0  0  0
  187.2140  177.6180  146.4610 C   0  0  0  0  0  3  0  0  0  0  0  0
  187.9310  177.7610  145.3410 C   0  0  0  0  0  0  0  0  0  0  0  0
  189.3820  177.0210  146.9480 C   0  0  0  0  0  0  0  0  0  0  0  0
  190.5410  176.5910  147.5100 N   0  0  0  0  0  2  0  0  0  0  0  0
  188.0680  177.1660  147.6180 C   0  0  0  0  0  3  0  0  0  0  0  0
  191.6280  176.8200  145.3730 C   0  0  0  0  0  3  0  0  0  0  0  0
  189.3050  177.3590  145.6240 C   0  0  0  0  0  0  0  0  0  0  0  0
  188.6770  177.8640  141.9530 C   0  0  0  0  0  3  0  0  0  0  0  0
  187.9210  177.2950  142.8930 C   0  0  0  0  0  3  0  0  0  0  0  0
  190.1830  176.1310  141.3930 O   0  0  0  0  0  1  0  0  0  0  0  0
  189.2670  177.0410  140.8580 C   0  0  2  0  0  3  0  0  0  0  0  0
  189.9680  177.9540  139.8650 C   0  0  0  0  0  2  0  0  0  0  0  0
  188.8530  179.3350  138.2700 O   0  0  0  0  0  1  0  0  0  0  0  0
  189.2010  178.0120  138.5550 C   0  0  0  0  0  3  0  0  0  0  0  0
  190.0020  177.5160  137.5290 O   0  0  0  0  0  1  0  0  0  0  0  0
  183.0810  178.0130  141.3600 N   0  0  0  0  0  2  0  0  0  0  0  0
  183.5140  179.2040  140.7620 N   0  0  0  0  0  2  0  0  0  0  0  0
  184.6030  180.2860  139.0240 O   0  0  0  0  0  0  0  0  0  0  0  0
  184.5380  177.9610  138.8810 N   0  0  0  0  0  2  0  0  0  0  0  0
  184.2380  179.1940  139.5350 C   0  0  0  0  0  0  0  0  0  0  0  0
  183.9210  176.5760  136.5360 O   0  0  0  0  0  0  0  0  0  0  0  0
  185.3710  177.9320  137.7560 N   0  0  0  0  0  2  0  0  0  0  0  0
  185.0380  177.1580  136.6010 C   0  0  0  0  0  0  0  0  0  0  0  0
  186.0060  177.0250  135.4580 C   0  0  1  0  0  3  0  0  0  0  0  0
  187.0410  178.1410  135.4320 C   0  0  0  0  0  1  0  0  0  0  0  0
  187.8610  175.5940  135.8930 O   0  0  0  0  0  0  0  0  0  0  0  0
  185.9930  174.5240  135.0240 N   0  0  0  0  0  1  0  0  0  0  0  0
  186.6780  175.6890  135.4750 C   0  0  0  0  0  0  0  0  0  0  0  0
  2  7  1  6  0  0  0
  2  5  1  0  0  0  0
  3  6  1  0  0  0  0
  3  2  1  0  0  0  0
  4  1  1  0  0  0  0
  5  1  1  0  0  0  0
  6 25  1  6  0  0  0
  6  4  1  0  0  0  0
  7 18  1  6  0  0  0
  7 11  1  0  0  0  0
  8 13  1  0  0  0  0
  9 15  1  0  0  0  0
  9 16  2  0  0  0  0
 10 14  1  0  0  0  0
 11 16  1  0  0  0  0
 11 10  2  0  0  0  0
 12 13  1  0  0  0  0
 12 14  2  0  0  0  0
 15  8  2  0  0  0  0
 16 12  1  0  0  0  0
 17 18  2  0  0  0  0
 20 19  1  1  0  0  0
 20 17  1  0  0  0  0
 21 20  1  0  0  0  0
 22 23  1  0  0  0  0
 23 21  1  0  0  0  0
 24 23  1  0  0  0  0
 26 25  1  0  0  0  0
 27 29  2  0  0  0  0
 28 29  1  0  0  0  0
 29 26  1  0  0  0  0
 30 32  2  0  0  0  0
 31 28  1  0  0  0  0
 32 31  1  0  0  0  0
 33 34  1  1  0  0  0
 33 37  1  0  0  0  0
 33 32  1  0  0  0  0
 36 37  1  0  0  0  0
 37 35  2  0  0  0  0
M  END
>  <MODEL>
4

>  <REMARK>
 VINA RESULT:      -9.3      2.672      4.078
  Name = 
  11 active torsions:
  status: ('A' for Active; 'I' for Inactive)
    1  A    between atoms: C_5  and  C_6
    2  A    between atoms: C_6  and  C_21
    3  A    between atoms: C_6  and  C_37
    4  A    between atoms: C_7  and  C_30
    5  A    between atoms: C_10  and  C_12
    6  A    between atoms: C_10  and  C_33
    7  A    between atoms: N_11  and  N_25
    8  A    between atoms: N_13  and  N_17
    9  A    between atoms: N_13  and  C_29
   10  A    between atoms: C_14  and  C_19
   11  A    between atoms: C_14  and  C_30
                            x       y       z     vdW  Elec       q    Type
                         _______ _______ _______ _____ _____    ______ ____

>  <TORSDO>
F 11

$$$$
=
 OpenBabel11042411553D

 37 39  0  0  1  0  0  0  0  0999 V2000
  189.7440  176.5350  142.2840 C   0  0  0  0  0  2  0  0  0  0  0  0
  187.6410  177.8130  142.7770 C   0  0  2  0  0  3  0  0  0  0  0  0
  187.6010  178.3040  141.3250 C   0  0  0  0  0  2  0  0  0  0  0  0
  189.6810  177.0120  140.8370 C   0  0  0  0  0  2  0  0  0  0  0  0
  188.3380  176.4550  142.8760 C   0  0  0  0  0  2  0  0  0  0  0  0
  189.0190  178.3850  140.7720 C   0  0  1  0  0  3  0  0  0  0  0  0
  186.2540  177.7770  143.4400 C   0  0  1  0  0  3  0  0  0  0  0  0
  188.9180  177.6900  148.1250 C   0  0  0  0  0  3  0  0  0  0  0  0
  188.6220  177.3780  145.7330 C   0  0  0  0  0  3  0  0  0  0  0  0
  185.2090  178.6140  145.5610 C   0  0  0  0  0  3  0  0  0  0  0  0
  186.2780  178.1460  144.9070 C   0  0  0  0  0  0  0  0  0  0  0  0
  186.8850  178.3010  147.1080 C   0  0  0  0  0  0  0  0  0  0  0  0
  187.6520  178.1940  148.2230 N   0  0  0  0  0  2  0  0  0  0  0  0
  185.4900  178.7980  147.0310 C   0  0  0  0  0  3  0  0  0  0  0  0
  189.4250  177.2710  146.8790 C   0  0  0  0  0  3  0  0  0  0  0  0
  187.3430  177.9150  145.8780 C   0  0  0  0  0  0  0  0  0  0  0  0
  184.1870  177.9860  142.0990 C   0  0  0  0  0  3  0  0  0  0  0  0
  185.2220  178.5800  142.6920 C   0  0  0  0  0  3  0  0  0  0  0  0
  181.9410  178.7170  142.0120 O   0  0  0  0  0  1  0  0  0  0  0  0
  183.1740  178.7940  141.3600 C   0  0  2  0  0  3  0  0  0  0  0  0
  183.0410  178.2590  139.9430 C   0  0  0  0  0  2  0  0  0  0  0  0
  182.4630  180.2680  138.7910 O   0  0  0  0  0  1  0  0  0  0  0  0
  183.4680  179.3080  138.9300 C   0  0  0  0  0  3  0  0  0  0  0  0
  184.6360  179.9260  139.3690 O   0  0  0  0  0  1  0  0  0  0  0  0
  188.9830  178.8450  139.3950 N   0  0  0  0  0  2  0  0  0  0  0  0
  187.8910  178.2080  138.7910 N   0  0  0  0  0  2  0  0  0  0  0  0
  187.0720  176.6680  137.2630 O   0  0  0  0  0  0  0  0  0  0  0  0
  189.3920  176.8630  137.3530 N   0  0  0  0  0  2  0  0  0  0  0  0
  188.0770  177.2250  137.7760 C   0  0  0  0  0  0  0  0  0  0  0  0
  190.0640  174.1630  137.5990 O   0  0  0  0  0  0  0  0  0  0  0  0
  189.5810  176.0070  136.2590 N   0  0  0  0  0  2  0  0  0  0  0  0
  189.9840  174.6480  136.4370 C   0  0  0  0  0  0  0  0  0  0  0  0
  190.3180  173.7830  135.2540 C   0  0  1  0  0  3  0  0  0  0  0  0
  191.6540  173.0690  135.4050 C   0  0  0  0  0  1  0  0  0  0  0  0
  188.0320  173.1900  134.9340 O   0  0  0  0  0  0  0  0  0  0  0  0
  189.5250  171.4190  134.7780 N   0  0  0  0  0  1  0  0  0  0  0  0
  189.2260  172.7970  134.9830 C   0  0  0  0  0  0  0  0  0  0  0  0
  1  5  1  0  0  0  0
  2  5  1  0  0  0  0
  2  7  1  6  0  0  0
  3  2  1  0  0  0  0
  4  1  1  0  0  0  0
  6 25  1  6  0  0  0
  6  4  1  0  0  0  0
  6  3  1  0  0  0  0
  7 18  1  6  0  0  0
  7 11  1  0  0  0  0
  8 13  1  0  0  0  0
  9 16  2  0  0  0  0
  9 15  1  0  0  0  0
 10 14  1  0  0  0  0
 11 10  2  0  0  0  0
 11 16  1  0  0  0  0
 12 13  1  0  0  0  0
 14 12  2  0  0  0  0
 15  8  2  0  0  0  0
 16 12  1  0  0  0  0
 17 18  2  0  0  0  0
 20 19  1  1  0  0  0
 20 17  1  0  0  0  0
 21 20  1  0  0  0  0
 22 23  1  0  0  0  0
 23 24  1  0  0  0  0
 23 21  1  0  0  0  0
 26 25  1  0  0  0  0
 27 29  2  0  0  0  0
 28 29  1  0  0  0  0
 29 26  1  0  0  0  0
 31 32  1  0  0  0  0
 31 28  1  0  0  0  0
 32 30  2  0  0  0  0
 33 34  1  1  0  0  0
 33 32  1  0  0  0  0
 35 37  2  0  0  0  0
 36 37  1  0  0  0  0
 37 33  1  0  0  0  0
M  END
>  <MODEL>
5

>  <REMARK>
 VINA RESULT:      -8.9      3.718      7.513
  Name = 
  11 active torsions:
  status: ('A' for Active; 'I' for Inactive)
    1  A    between atoms: C_5  and  C_6
    2  A    between atoms: C_6  and  C_21
    3  A    between atoms: C_6  and  C_37
    4  A    between atoms: C_7  and  C_30
    5  A    between atoms: C_10  and  C_12
    6  A    between atoms: C_10  and  C_33
    7  A    between atoms: N_11  and  N_25
    8  A    between atoms: N_13  and  N_17
    9  A    between atoms: N_13  and  C_29
   10  A    between atoms: C_14  and  C_19
   11  A    between atoms: C_14  and  C_30
                            x       y       z     vdW  Elec       q    Type
                         _______ _______ _______ _____ _____    ______ ____

>  <TORSDO>
F 11

$$$$
=
 OpenBabel11042411553D

 37 39  0  0  1  0  0  0  0  0999 V2000
  190.0520  176.1760  142.6610 C   0  0  0  0  0  2  0  0  0  0  0  0
  187.9670  177.5320  142.9980 C   0  0  2  0  0  3  0  0  0  0  0  0
  187.9970  177.9420  141.5200 C   0  0  0  0  0  2  0  0  0  0  0  0
  190.0590  176.5730  141.1890 C   0  0  0  0  0  2  0  0  0  0  0  0
  188.6230  176.1650  143.1990 C   0  0  0  0  0  2  0  0  0  0  0  0
  189.4370  177.9570  141.0210 C   0  0  1  0  0  3  0  0  0  0  0  0
  186.5550  177.5690  143.6050 C   0  0  1  0  0  3  0  0  0  0  0  0
  189.1880  177.8670  148.2980 C   0  0  0  0  0  3  0  0  0  0  0  0
  188.9360  177.4590  145.9160 C   0  0  0  0  0  3  0  0  0  0  0  0
  185.4240  178.3630  145.6970 C   0  0  0  0  0  3  0  0  0  0  0  0
  186.5350  177.9800  145.0600 C   0  0  0  0  0  0  0  0  0  0  0  0
  187.1120  178.2540  147.2580 C   0  0  0  0  0  0  0  0  0  0  0  0
  187.8800  178.2520  148.3780 N   0  0  0  0  0  2  0  0  0  0  0  0
  185.6780  178.6160  147.1620 C   0  0  0  0  0  3  0  0  0  0  0  0
  189.7390  177.4620  147.0670 C   0  0  0  0  0  3  0  0  0  0  0  0
  187.6110  177.8780  146.0410 C   0  0  0  0  0  0  0  0  0  0  0  0
  184.4250  177.8710  142.3840 C   0  0  0  0  0  3  0  0  0  0  0  0
  185.5850  178.3860  142.7940 C   0  0  0  0  0  3  0  0  0  0  0  0
  182.2010  178.6320  142.1450 O   0  0  0  0  0  1  0  0  0  0  0  0
  183.4760  178.6940  141.5790 C   0  0  2  0  0  3  0  0  0  0  0  0
  183.4330  178.1620  140.1550 C   0  0  0  0  0  2  0  0  0  0  0  0
  182.2670  180.0550  139.2900 O   0  0  0  0  0  1  0  0  0  0  0  0
  183.4360  179.3050  139.1540 C   0  0  0  0  0  3  0  0  0  0  0  0
  184.5380  180.1230  139.3910 O   0  0  0  0  0  1  0  0  0  0  0  0
  189.4670  178.3390  139.6210 N   0  0  0  0  0  2  0  0  0  0  0  0
  189.4920  177.1480  138.8830 N   0  0  0  0  0  2  0  0  0  0  0  0
  188.7270  175.8950  137.0890 O   0  0  0  0  0  0  0  0  0  0  0  0
  187.8010  178.0220  137.3000 N   0  0  0  0  0  2  0  0  0  0  0  0
  188.6710  176.9760  137.7310 C   0  0  0  0  0  0  0  0  0  0  0  0
  185.3550  176.7130  137.6310 O   0  0  0  0  0  0  0  0  0  0  0  0
  186.8870  177.8090  136.2590 N   0  0  0  0  0  2  0  0  0  0  0  0
  185.6750  177.0800  136.4670 C   0  0  0  0  0  0  0  0  0  0  0  0
  184.7740  176.7400  135.3140 C   0  0  1  0  0  3  0  0  0  0  0  0
  185.1950  175.4670  134.5940 C   0  0  0  0  0  1  0  0  0  0  0  0
  182.8290  175.5100  135.9350 O   0  0  0  0  0  0  0  0  0  0  0  0
  182.5720  177.8180  135.9760 N   0  0  0  0  0  1  0  0  0  0  0  0
  183.3480  176.6430  135.7550 C   0  0  0  0  0  0  0  0  0  0  0  0
  1  5  1  0  0  0  0
  2  5  1  0  0  0  0
  2  7  1  6  0  0  0
  3  2  1  0  0  0  0
  4  1  1  0  0  0  0
  6 25  1  6  0  0  0
  6  4  1  0  0  0  0
  6  3  1  0  0  0  0
  7 18  1  6  0  0  0
  7 11  1  0  0  0  0
  8 13  1  0  0  0  0
  9 16  2  0  0  0  0
  9 15  1  0  0  0  0
 10 14  1  0  0  0  0
 11 10  2  0  0  0  0
 11 16  1  0  0  0  0
 12 13  1  0  0  0  0
 14 12  2  0  0  0  0
 15  8  2  0  0  0  0
 16 12  1  0  0  0  0
 17 18  2  0  0  0  0
 20 19  1  1  0  0  0
 20 17  1  0  0  0  0
 21 20  1  0  0  0  0
 23 22  1  0  0  0  0
 23 24  1  0  0  0  0
 23 21  1  0  0  0  0
 26 25  1  0  0  0  0
 27 29  2  0  0  0  0
 28 29  1  0  0  0  0
 29 26  1  0  0  0  0
 31 32  1  0  0  0  0
 31 28  1  0  0  0  0
 32 30  2  0  0  0  0
 33 34  1  1  0  0  0
 33 37  1  0  0  0  0
 33 32  1  0  0  0  0
 37 35  2  0  0  0  0
 37 36  1  0  0  0  0
M  END
>  <MODEL>
6

>  <REMARK>
 VINA RESULT:      -8.8      3.111      5.609
  Name = 
  11 active torsions:
  status: ('A' for Active; 'I' for Inactive)
    1  A    between atoms: C_5  and  C_6
    2  A    between atoms: C_6  and  C_21
    3  A    between atoms: C_6  and  C_37
    4  A    between atoms: C_7  and  C_30
    5  A    between atoms: C_10  and  C_12
    6  A    between atoms: C_10  and  C_33
    7  A    between atoms: N_11  and  N_25
    8  A    between atoms: N_13  and  N_17
    9  A    between atoms: N_13  and  C_29
   10  A    between atoms: C_14  and  C_19
   11  A    between atoms: C_14  and  C_30
                            x       y       z     vdW  Elec       q    Type
                         _______ _______ _______ _____ _____    ______ ____

>  <TORSDO>
F 11

$$$$
=
 OpenBabel11042411553D

 37 39  0  0  1  0  0  0  0  0999 V2000
  188.8180  178.0020  137.4000 C   0  0  0  0  0  2  0  0  0  0  0  0
  188.9690  177.5690  139.8670 C   0  0  2  0  0  3  0  0  0  0  0  0
  190.2250  176.7200  139.6390 C   0  0  0  0  0  2  0  0  0  0  0  0
  190.0790  177.1730  137.1880 C   0  0  0  0  0  2  0  0  0  0  0  0
  188.8310  178.6420  138.7860 C   0  0  0  0  0  2  0  0  0  0  0  0
  190.1710  176.0850  138.2540 C   0  0  1  0  0  3  0  0  0  0  0  0
  188.9050  178.1840  141.2750 C   0  0  1  0  0  3  0  0  0  0  0  0
  185.4610  177.9550  145.4150 C   0  0  0  0  0  3  0  0  0  0  0  0
  187.6320  177.8700  144.3250 C   0  0  0  0  0  3  0  0  0  0  0  0
  186.4550  178.6250  140.9710 C   0  0  0  0  0  3  0  0  0  0  0  0
  187.4940  178.3880  141.7790 C   0  0  1  0  0  3  0  0  0  0  0  0
  185.6290  178.3820  143.1060 C   0  0  0  0  0  0  0  0  0  0  0  0
  184.8670  178.2610  144.2240 N   0  0  0  0  0  0  0  0  0  0  0  0
  185.1550  178.6830  141.7340 C   0  0  0  0  0  3  0  0  0  0  0  0
  186.8530  177.7520  145.4870 C   0  0  0  0  0  3  0  0  0  0  0  0
  186.9850  178.2030  143.1350 C   0  0  0  0  0  0  0  0  0  0  0  0
  190.7310  178.0500  142.9380 C   0  0  0  0  0  3  0  0  0  0  0  0
  189.7420  177.4410  142.2820 C   0  0  0  0  0  3  0  0  0  0  0  0
  191.2420  175.9390  143.8690 O   0  0  0  0  0  1  0  0  0  0  0  0
  191.5530  177.2990  143.9310 C   0  0  2  0  0  3  0  0  0  0  0  0
  191.2650  177.8300  145.3260 C   0  0  0  0  0  2  0  0  0  0  0  0
  192.1430  176.4270  147.0450 O   0  0  0  0  0  1  0  0  0  0  0  0
  190.9960  176.6880  146.2920 C   0  0  0  0  0  3  0  0  0  0  0  0
  189.9550  177.0420  147.1460 O   0  0  0  0  0  1  0  0  0  0  0  0
  191.3620  175.2850  138.0340 N   0  0  0  0  0  2  0  0  0  0  0  0
  192.2990  176.1250  137.4200 N   0  0  0  0  0  2  0  0  0  0  0  0
  194.4060  176.4340  136.5030 O   0  0  0  0  0  0  0  0  0  0  0  0
  193.9660  174.2980  137.3200 N   0  0  0  0  0  2  0  0  0  0  0  0
  193.5950  175.6510  137.0610 C   0  0  0  0  0  0  0  0  0  0  0  0
  195.7660  173.7350  139.3810 O   0  0  0  0  0  0  0  0  0  0  0  0
  195.2810  173.8630  137.1060 N   0  0  0  0  0  2  0  0  0  0  0  0
  196.1830  173.6470  138.1930 C   0  0  0  0  0  0  0  0  0  0  0  0
  197.6270  173.3160  137.9420 C   0  0  1  0  0  3  0  0  0  0  0  0
  197.8340  172.5300  136.6540 C   0  0  0  0  0  1  0  0  0  0  0  0
  199.0870  174.8830  136.8950 O   0  0  0  0  0  0  0  0  0  0  0  0
  198.5800  175.3590  139.1100 N   0  0  0  0  0  1  0  0  0  0  0  0
  198.4700  174.5520  137.9410 C   0  0  0  0  0  0  0  0  0  0  0  0
  1  5  1  0  0  0  0
  2  7  1  1  0  0  0
  3  2  1  0  0  0  0
  4  1  1  0  0  0  0
  4  6  1  0  0  0  0
  5  2  1  0  0  0  0
  6 25  1  6  0  0  0
  6  3  1  0  0  0  0
  7 18  1  1  0  0  0
  8 15  1  0  0  0  0
  9 15  2  0  0  0  0
 10 14  2  0  0  0  0
 10 11  1  0  0  0  0
 11  7  1  6  0  0  0
 11 16  1  0  0  0  0
 12 16  2  0  0  0  0
 12 13  1  0  0  0  0
 13  8  2  0  0  0  0
 14 12  1  0  0  0  0
 16  9  1  0  0  0  0
 17 20  1  0  0  0  0
 18 17  2  0  0  0  0
 20 19  1  1  0  0  0
 20 21  1  0  0  0  0
 21 23  1  0  0  0  0
 23 22  1  0  0  0  0
 23 24  1  0  0  0  0
 26 25  1  0  0  0  0
 27 29  2  0  0  0  0
 29 28  1  0  0  0  0
 29 26  1  0  0  0  0
 31 28  1  0  0  0  0
 31 32  1  0  0  0  0
 32 30  2  0  0  0  0
 33 34  1  6  0  0  0
 33 32  1  0  0  0  0
 35 37  2  0  0  0  0
 37 33  1  0  0  0  0
 37 36  1  0  0  0  0
M  END
>  <MODEL>
7

>  <REMARK>
 VINA RESULT:      -8.5      5.739     10.920
  Name = 
  11 active torsions:
  status: ('A' for Active; 'I' for Inactive)
    1  A    between atoms: C_5  and  C_6
    2  A    between atoms: C_6  and  C_21
    3  A    between atoms: C_6  and  C_37
    4  A    between atoms: C_7  and  C_30
    5  A    between atoms: C_10  and  C_12
    6  A    between atoms: C_10  and  C_33
    7  A    between atoms: N_11  and  N_25
    8  A    between atoms: N_13  and  N_17
    9  A    between atoms: N_13  and  C_29
   10  A    between atoms: C_14  and  C_19
   11  A    between atoms: C_14  and  C_30
                            x       y       z     vdW  Elec       q    Type
                         _______ _______ _______ _____ _____    ______ ____

>  <TORSDO>
F 11

$$$$
=
 OpenBabel11042411553D

 37 39  0  0  1  0  0  0  0  0999 V2000
  181.7290  179.0030  142.6430 C   0  0  0  0  0  2  0  0  0  0  0  0
  183.2560  178.8370  140.6570 C   0  0  2  0  0  3  0  0  0  0  0  0
  184.4270  178.4990  141.5880 C   0  0  0  0  0  2  0  0  0  0  0  0
  182.8960  178.6440  143.5560 C   0  0  0  0  0  2  0  0  0  0  0  0
  181.9270  178.3810  141.2620 C   0  0  0  0  0  2  0  0  0  0  0  0
  184.2040  179.1470  142.9500 C   0  0  1  0  0  3  0  0  0  0  0  0
  183.4390  178.2870  139.2330 C   0  0  1  0  0  3  0  0  0  0  0  0
  180.2560  182.1530  137.2420 C   0  0  0  0  0  3  0  0  0  0  0  0
  182.1080  181.2450  138.5260 C   0  0  0  0  0  3  0  0  0  0  0  0
  181.5620  177.7600  137.6560 C   0  0  0  0  0  3  0  0  0  0  0  0
  182.3160  178.6630  138.2930 C   0  0  1  0  0  3  0  0  0  0  0  0
  180.6750  179.8370  137.2140 C   0  0  0  0  0  0  0  0  0  0  0  0
  179.9300  180.8990  136.8110 N   0  0  0  0  0  0  0  0  0  0  0  0
  180.4540  178.4130  136.8680 C   0  0  0  0  0  3  0  0  0  0  0  0
  181.3480  182.3490  138.1080 C   0  0  0  0  0  3  0  0  0  0  0  0
  181.7500  179.9850  138.0460 C   0  0  0  0  0  0  0  0  0  0  0  0
  185.5060  177.6970  138.0090 C   0  0  0  0  0  3  0  0  0  0  0  0
  184.7820  178.6230  138.6400 C   0  0  0  0  0  3  0  0  0  0  0  0
  186.8710  177.6830  136.0800 O   0  0  0  0  0  1  0  0  0  0  0  0
  186.8360  178.0450  137.4290 C   0  0  2  0  0  3  0  0  0  0  0  0
  187.9240  177.3040  138.1890 C   0  0  0  0  0  2  0  0  0  0  0  0
  189.0530  179.3980  138.3830 O   0  0  0  0  0  1  0  0  0  0  0  0
  188.6880  178.2540  139.0960 C   0  0  0  0  0  3  0  0  0  0  0  0
  187.8770  178.6200  140.1680 O   0  0  0  0  0  1  0  0  0  0  0  0
  185.3080  178.8230  143.8340 N   0  0  0  0  0  2  0  0  0  0  0  0
  186.0890  177.8710  143.1660 N   0  0  0  0  0  2  0  0  0  0  0  0
  187.8850  176.4050  143.1640 O   0  0  0  0  0  0  0  0  0  0  0  0
  187.5710  177.6130  145.1310 N   0  0  0  0  0  2  0  0  0  0  0  0
  187.2140  177.2630  143.7940 C   0  0  0  0  0  0  0  0  0  0  0  0
  190.0900  178.7130  144.6320 O   0  0  0  0  0  0  0  0  0  0  0  0
  188.7560  177.1320  145.7040 N   0  0  0  0  0  2  0  0  0  0  0  0
  190.0280  177.6920  145.3690 C   0  0  0  0  0  0  0  0  0  0  0  0
  191.2990  177.0760  145.8830 C   0  0  1  0  0  3  0  0  0  0  0  0
  191.1740  176.5800  147.3170 C   0  0  0  0  0  1  0  0  0  0  0  0
  192.3180  174.9580  145.4860 O   0  0  0  0  0  0  0  0  0  0  0  0
  191.5830  176.0550  143.5760 N   0  0  0  0  0  1  0  0  0  0  0  0
  191.7630  175.9720  144.9870 C   0  0  0  0  0  0  0  0  0  0  0  0
  1  4  1  0  0  0  0
  2  7  1  6  0  0  0
  2  5  1  0  0  0  0
  2  3  1  0  0  0  0
  3  6  1  0  0  0  0
  5  1  1  0  0  0  0
  6  4  1  0  0  0  0
  6 25  1  1  0  0  0
  7 18  1  6  0  0  0
  8 15  1  0  0  0  0
 10 11  1  0  0  0  0
 11  7  1  1  0  0  0
 12 16  2  0  0  0  0
 13 12  1  0  0  0  0
 13  8  2  0  0  0  0
 14 12  1  0  0  0  0
 14 10  2  0  0  0  0
 15  9  2  0  0  0  0
 16 11  1  0  0  0  0
 16  9  1  0  0  0  0
 17 18  2  0  0  0  0
 20 19  1  6  0  0  0
 20 17  1  0  0  0  0
 20 21  1  0  0  0  0
 21 23  1  0  0  0  0
 22 23  1  0  0  0  0
 23 24  1  0  0  0  0
 26 29  1  0  0  0  0
 26 25  1  0  0  0  0
 27 29  2  0  0  0  0
 28 31  1  0  0  0  0
 29 28  1  0  0  0  0
 30 32  2  0  0  0  0
 32 31  1  0  0  0  0
 32 33  1  0  0  0  0
 33 34  1  1  0  0  0
 36 37  1  0  0  0  0
 37 35  2  0  0  0  0
 37 33  1  0  0  0  0
M  END
>  <MODEL>
8

>  <REMARK>
 VINA RESULT:      -8.5      2.940      9.873
  Name = 
  11 active torsions:
  status: ('A' for Active; 'I' for Inactive)
    1  A    between atoms: C_5  and  C_6
    2  A    between atoms: C_6  and  C_21
    3  A    between atoms: C_6  and  C_37
    4  A    between atoms: C_7  and  C_30
    5  A    between atoms: C_10  and  C_12
    6  A    between atoms: C_10  and  C_33
    7  A    between atoms: N_11  and  N_25
    8  A    between atoms: N_13  and  N_17
    9  A    between atoms: N_13  and  C_29
   10  A    between atoms: C_14  and  C_19
   11  A    between atoms: C_14  and  C_30
                            x       y       z     vdW  Elec       q    Type
                         _______ _______ _______ _____ _____    ______ ____

>  <TORSDO>
F 11

$$$$
=
 OpenBabel11042411553D

 37 39  0  0  1  0  0  0  0  0999 V2000
  183.8140  178.8400  144.7660 C   0  0  0  0  0  2  0  0  0  0  0  0
  185.7960  178.1880  143.3710 C   0  0  2  0  0  3  0  0  0  0  0  0
  184.9730  178.4160  142.0980 C   0  0  0  0  0  2  0  0  0  0  0  0
  183.0120  179.0830  143.4930 C   0  0  0  0  0  2  0  0  0  0  0  0
  185.3010  179.0810  144.5100 C   0  0  0  0  0  2  0  0  0  0  0  0
  183.4990  178.1520  142.3860 C   0  0  1  0  0  3  0  0  0  0  0  0
  187.3090  178.3550  143.1490 C   0  0  1  0  0  3  0  0  0  0  0  0
  188.2880  177.5440  148.3860 C   0  0  0  0  0  3  0  0  0  0  0  0
  187.0530  178.3610  146.4590 C   0  0  0  0  0  3  0  0  0  0  0  0
  189.2840  177.0180  143.9240 C   0  0  0  0  0  3  0  0  0  0  0  0
  188.1520  177.6740  144.2030 C   0  0  0  0  0  0  0  0  0  0  0  0
  189.0600  177.0680  146.2140 C   0  0  0  0  0  0  0  0  0  0  0  0
  189.2090  176.9660  147.5600 N   0  0  0  0  0  0  0  0  0  0  0  0
  189.9690  176.5290  145.1750 C   0  0  0  0  0  2  0  0  0  0  0  0
  187.1950  178.2530  147.8510 C   0  0  0  0  0  3  0  0  0  0  0  0
  188.0080  177.7400  145.6540 C   0  0  0  0  0  0  0  0  0  0  0  0
  188.3320  178.8470  140.9520 C   0  0  0  0  0  3  0  0  0  0  0  0
  187.7480  177.9650  141.7620 C   0  0  0  0  0  3  0  0  0  0  0  0
  187.7030  178.6270  138.6850 O   0  0  0  0  0  1  0  0  0  0  0  0
  188.7590  178.4460  139.5800 C   0  0  2  0  0  3  0  0  0  0  0  0
  189.1780  176.9840  139.5920 C   0  0  0  0  0  2  0  0  0  0  0  0
  191.5350  177.3390  139.7220 O   0  0  0  0  0  1  0  0  0  0  0  0
  190.5270  176.8060  138.9150 C   0  0  0  0  0  3  0  0  0  0  0  0
  190.7670  175.4480  138.7160 O   0  0  0  0  0  1  0  0  0  0  0  0
  182.7170  178.3720  141.1840 N   0  0  0  0  0  2  0  0  0  0  0  0
  181.4720  178.8610  141.6010 N   0  0  0  0  0  2  0  0  0  0  0  0
  179.5250  180.0300  141.1320 O   0  0  0  0  0  0  0  0  0  0  0  0
  181.0630  179.8910  139.3880 N   0  0  0  0  0  2  0  0  0  0  0  0
  180.6410  179.6160  140.7230 C   0  0  0  0  0  0  0  0  0  0  0  0
  182.0690  182.2780  138.3440 O   0  0  0  0  0  0  0  0  0  0  0  0
  180.3230  180.7520  138.5670 N   0  0  0  0  0  2  0  0  0  0  0  0
  180.8630  181.9930  138.1070 C   0  0  0  0  0  0  0  0  0  0  0  0
  180.0110  182.9680  137.3450 C   0  0  1  0  0  3  0  0  0  0  0  0
  179.3220  183.9800  138.2500 C   0  0  0  0  0  1  0  0  0  0  0  0
  181.0580  183.0780  135.2060 O   0  0  0  0  0  0  0  0  0  0  0  0
  181.2830  184.9950  136.4960 N   0  0  0  0  0  1  0  0  0  0  0  0
  180.8070  183.6680  136.2890 C   0  0  0  0  0  0  0  0  0  0  0  0
  2  7  1  6  0  0  0
  2  5  1  0  0  0  0
  3  6  1  0  0  0  0
  3  2  1  0  0  0  0
  4  1  1  0  0  0  0
  5  1  1  0  0  0  0
  6 25  1  6  0  0  0
  6  4  1  0  0  0  0
  7 18  1  6  0  0  0
  7 11  1  0  0  0  0
  9 15  2  0  0  0  0
 10 11  2  0  0  0  0
 10 14  1  0  0  0  0
 11 16  1  0  0  0  0
 12 13  1  0  0  0  0
 13  8  2  0  0  0  0
 14 12  1  0  0  0  0
 15  8  1  0  0  0  0
 16 12  2  0  0  0  0
 16  9  1  0  0  0  0
 17 18  2  0  0  0  0
 20 19  1  6  0  0  0
 20 21  1  0  0  0  0
 20 17  1  0  0  0  0
 23 21  1  0  0  0  0
 23 22  1  0  0  0  0
 24 23  1  0  0  0  0
 25 26  1  0  0  0  0
 28 29  1  0  0  0  0
 29 27  2  0  0  0  0
 29 26  1  0  0  0  0
 31 28  1  0  0  0  0
 32 30  2  0  0  0  0
 32 31  1  0  0  0  0
 33 32  1  0  0  0  0
 33 34  1  1  0  0  0
 35 37  2  0  0  0  0
 37 36  1  0  0  0  0
 37 33  1  0  0  0  0
M  END
>  <MODEL>
9

>  <REMARK>
 VINA RESULT:      -8.4      1.449      2.479
  Name = 
  11 active torsions:
  status: ('A' for Active; 'I' for Inactive)
    1  A    between atoms: C_5  and  C_6
    2  A    between atoms: C_6  and  C_21
    3  A    between atoms: C_6  and  C_37
    4  A    between atoms: C_7  and  C_30
    5  A    between atoms: C_10  and  C_12
    6  A    between atoms: C_10  and  C_33
    7  A    between atoms: N_11  and  N_25
    8  A    between atoms: N_13  and  N_17
    9  A    between atoms: N_13  and  C_29
   10  A    between atoms: C_14  and  C_19
   11  A    between atoms: C_14  and  C_30
                            x       y       z     vdW  Elec       q    Type
                         _______ _______ _______ _____ _____    ______ ____

>  <TORSDO>
F 11

$$$$
