=
 OpenBabel11042412533D

 43 46  0  0  1  0  0  0  0  0999 V2000
  188.7000  178.4440  139.6890 C   0  0  0  0  0  2  0  0  0  0  0  0
  189.1200  176.7380  137.9230 C   0  0  0  0  0  0  0  0  0  0  0  0
  190.0580  175.8480  138.2520 C   0  0  0  0  0  3  0  0  0  0  0  0
  187.4570  178.2820  137.5480 C   0  0  2  0  0  3  0  0  0  0  0  0
  188.5620  177.5420  136.3770 S   0  0  0  0  0  0  0  0  0  0  0  0
  188.0490  177.5070  138.6790 C   0  0  2  0  0  3  0  0  0  0  0  0
  192.9170  173.8060  136.9320 C   0  0  1  0  0  3  0  0  0  0  0  0
  191.7780  173.2530  136.0820 C   0  0  0  0  0  3  0  0  0  0  0  0
  193.2290  176.2930  137.6640 C   0  0  0  0  0  2  0  0  0  0  0  0
  190.5450  174.1060  136.3490 C   0  0  0  0  0  3  0  0  0  0  0  0
  190.9800  175.2660  137.2270 C   0  0  2  0  0  0  0  0  0  0  0  0
  194.1580  174.0390  136.0760 C   0  0  0  0  0  1  0  0  0  0  0  0
  192.3870  175.0310  137.6940 C   0  0  2  0  0  0  0  0  0  0  0  0
  192.0730  176.1640  136.6960 C   0  0  2  0  0  3  0  0  0  0  0  0
  184.9640  177.4400  137.0840 C   0  0  0  0  0  0  0  0  0  0  0  0
  186.0890  177.8170  137.2950 C   0  0  0  0  0  0  0  0  0  0  0  0
  183.2720  177.2280  135.4940 O   0  0  0  0  0  1  0  0  0  0  0  0
  183.5970  176.9870  136.8290 C   0  0  2  0  0  3  0  0  0  0  0  0
  182.6350  177.7340  137.7400 C   0  0  0  0  0  2  0  0  0  0  0  0
  182.1450  176.8410  138.8690 C   0  0  0  0  0  2  0  0  0  0  0  0
  182.1630  177.5960  140.1850 C   0  0  0  0  0  2  0  0  0  0  0  0
  183.5920  177.9290  140.5570 C   0  0  0  0  0  1  0  0  0  0  0  0
  187.2750  178.3550  141.6040 O   0  0  0  0  0  1  0  0  0  0  0  0
  188.5100  177.9330  141.1070 C   0  0  2  0  0  3  0  0  0  0  0  0
  189.6260  178.4750  141.9840 C   0  0  0  0  0  2  0  0  0  0  0  0
  190.7510  177.4580  142.1300 C   0  0  1  0  0  3  0  0  0  0  0  0
  191.5500  177.4440  140.9850 O   0  0  0  0  0  1  0  0  0  0  0  0
  191.5930  177.7320  143.3750 C   0  0  0  0  0  2  0  0  0  0  0  0
  191.4800  176.6480  144.4050 C   0  0  0  0  0  0  0  0  0  0  0  0
  191.8310  175.4770  144.1000 O   0  0  0  0  0  0  0  0  0  0  0  0
  190.9400  176.9420  145.7450 C   0  0  0  0  0  0  0  0  0  0  0  0
  191.6690  176.3110  147.0760 S   0  0  0  0  0  0  0  0  0  0  0  0
  189.9030  177.9250  145.8750 N   0  0  0  0  0  2  0  0  0  0  0  0
  188.5380  177.7210  148.1690 S   0  0  0  0  0  0  0  0  0  0  0  0
  188.6360  177.7630  146.5260 C   0  0  0  0  0  0  0  0  0  0  0  0
  187.9260  176.6900  144.4990 O   0  0  0  0  0  1  0  0  0  0  0  0
  187.4900  177.2600  145.6980 C   0  0  2  0  0  3  0  0  0  0  0  0
  185.7940  178.6440  146.6610 O   0  0  0  0  0  1  0  0  0  0  0  0
  186.4320  178.3370  145.4590 C   0  0  2  0  0  3  0  0  0  0  0  0
  185.4010  177.9130  144.4170 C   0  0  0  0  0  2  0  0  0  0  0  0
  183.1520  178.6940  144.5020 O   0  0  0  0  0  1  0  0  0  0  0  0
  184.3580  178.9640  144.2620 C   0  0  0  0  0  0  0  0  0  0  0  0
  184.7180  180.2500  143.8830 O   0  0  0  0  0  0  0  0  0  0  0  0
  1 24  1  0  0  0  0
  2  3  2  0  0  0  0
  2  6  1  0  0  0  0
  4 16  1  6  0  0  0
  4  6  1  0  0  0  0
  5  4  1  0  0  0  0
  5  2  1  0  0  0  0
  6  1  1  1  0  0  0
  7 12  1  6  0  0  0
  7 13  1  0  0  0  0
  8 10  2  0  0  0  0
  8  7  1  0  0  0  0
 10 11  1  0  0  0  0
 11 13  1  0  0  0  0
 11  3  1  1  0  0  0
 13  9  1  1  0  0  0
 14 11  1  0  0  0  0
 14  9  1  1  0  0  0
 14 13  1  0  0  0  0
 15 16  3  0  0  0  0
 18 17  1  6  0  0  0
 18 15  1  0  0  0  0
 18 19  1  0  0  0  0
 19 20  1  0  0  0  0
 20 21  1  0  0  0  0
 21 22  1  0  0  0  0
 24 23  1  1  0  0  0
 24 25  1  0  0  0  0
 25 26  1  0  0  0  0
 26 27  1  6  0  0  0
 26 28  1  0  0  0  0
 28 29  1  0  0  0  0
 29 31  1  0  0  0  0
 30 29  2  0  0  0  0
 31 33  1  0  0  0  0
 31 32  2  0  0  0  0
 33 35  1  0  0  0  0
 35 34  2  0  0  0  0
 37 36  1  6  0  0  0
 37 35  1  0  0  0  0
 39 37  1  0  0  0  0
 39 38  1  1  0  0  0
 40 39  1  0  0  0  0
 42 40  1  0  0  0  0
 42 41  1  0  0  0  0
 43 42  2  0  0  0  0
M  END
>  <MODEL>
1

>  <REMARK>
 VINA RESULT:      -6.7      0.000      0.000
  Name = 
  19 active torsions:
  status: ('A' for Active; 'I' for Inactive)
    1  A    between atoms: N_1  and  C_3
    2  A    between atoms: N_1  and  C_39
    3  A    between atoms: C_3  and  C_22
    4  A    between atoms: C_6  and  C_35
    5  A    between atoms: C_6  and  C_37
    6  A    between atoms: C_7  and  C_30
    7  A    between atoms: C_8  and  C_26
    8  A    between atoms: C_10  and  C_32
    9  A    between atoms: C_13  and  C_16
   10  A    between atoms: C_13  and  C_22
   11  A    between atoms: C_15  and  C_36
   12  A    between atoms: C_16  and  C_17
   13  A    between atoms: C_17  and  C_37
   14  A    between atoms: C_18  and  C_19
   15  A    between atoms: C_19  and  C_43
   16  A    between atoms: C_20  and  C_26
   17  A    between atoms: C_20  and  C_30
   18  A    between atoms: C_39  and  C_40
   19  A    between atoms: C_40  and  C_43
                            x       y       z     vdW  Elec       q    Type
                         _______ _______ _______ _____ _____    ______ ____

>  <TORSDO>
F 19

$$$$
=
 OpenBabel11042412533D

 43 46  0  0  1  0  0  0  0  0999 V2000
  188.7460  178.6660  138.9450 C   0  0  0  0  0  2  0  0  0  0  0  0
  189.1940  176.6110  137.6090 C   0  0  0  0  0  0  0  0  0  0  0  0
  190.2520  175.9180  138.0340 C   0  0  0  0  0  3  0  0  0  0  0  0
  187.3410  177.8610  137.0660 C   0  0  2  0  0  3  0  0  0  0  0  0
  188.4120  176.9470  135.9890 S   0  0  0  0  0  0  0  0  0  0  0  0
  188.1160  177.4510  138.2740 C   0  0  2  0  0  3  0  0  0  0  0  0
  193.0990  173.7270  136.9480 C   0  0  1  0  0  3  0  0  0  0  0  0
  191.9350  173.0050  136.2780 C   0  0  0  0  0  3  0  0  0  0  0  0
  193.3730  176.3120  137.1980 C   0  0  0  0  0  2  0  0  0  0  0  0
  190.6920  173.8670  136.4540 C   0  0  0  0  0  3  0  0  0  0  0  0
  191.1370  175.1760  137.0810 C   0  0  2  0  0  0  0  0  0  0  0  0
  194.2870  173.8250  135.9960 C   0  0  0  0  0  1  0  0  0  0  0  0
  192.5720  175.0600  137.5040 C   0  0  2  0  0  0  0  0  0  0  0  0
  192.1730  175.9840  136.3360 C   0  0  2  0  0  3  0  0  0  0  0  0
  184.9300  176.7110  137.1110 C   0  0  0  0  0  0  0  0  0  0  0  0
  186.0170  177.2320  137.0910 C   0  0  0  0  0  0  0  0  0  0  0  0
  182.7770  176.7130  136.2150 O   0  0  0  0  0  1  0  0  0  0  0  0
  183.6130  176.0750  137.1310 C   0  0  2  0  0  3  0  0  0  0  0  0
  183.0220  176.1740  138.5290 C   0  0  0  0  0  2  0  0  0  0  0  0
  183.5430  177.4030  139.2580 C   0  0  0  0  0  2  0  0  0  0  0  0
  182.3980  178.3390  139.5980 C   0  0  0  0  0  2  0  0  0  0  0  0
  182.2330  179.3590  138.4920 C   0  0  0  0  0  1  0  0  0  0  0  0
  189.4990  177.9150  141.0840 O   0  0  0  0  0  1  0  0  0  0  0  0
  188.4980  178.6500  140.4440 C   0  0  2  0  0  3  0  0  0  0  0  0
  187.1450  178.0170  140.7170 C   0  0  0  0  0  2  0  0  0  0  0  0
  186.2820  178.9230  141.5860 C   0  0  1  0  0  3  0  0  0  0  0  0
  185.5010  179.7660  140.7930 O   0  0  0  0  0  1  0  0  0  0  0  0
  185.4070  178.1130  142.5410 C   0  0  0  0  0  2  0  0  0  0  0  0
  185.2570  178.7600  143.8860 C   0  0  0  0  0  0  0  0  0  0  0  0
  184.5150  179.7730  143.9970 O   0  0  0  0  0  0  0  0  0  0  0  0
  185.9880  178.2370  145.0540 C   0  0  0  0  0  0  0  0  0  0  0  0
  185.6230  178.7860  146.5600 S   0  0  0  0  0  0  0  0  0  0  0  0
  186.8740  177.1210  144.8770 N   0  0  0  0  0  2  0  0  0  0  0  0
  188.9780  176.2320  143.4810 S   0  0  0  0  0  0  0  0  0  0  0  0
  188.2870  177.1690  144.6450 C   0  0  0  0  0  0  0  0  0  0  0  0
  190.2730  178.4100  145.1780 O   0  0  0  0  0  1  0  0  0  0  0  0
  189.1450  177.7810  145.7140 C   0  0  2  0  0  3  0  0  0  0  0  0
  188.4410  176.5840  147.6600 O   0  0  0  0  0  1  0  0  0  0  0  0
  189.5230  176.7740  146.8010 C   0  0  2  0  0  3  0  0  0  0  0  0
  190.7480  177.2150  147.5960 C   0  0  0  0  0  2  0  0  0  0  0  0
  192.8200  176.1930  148.1730 O   0  0  0  0  0  1  0  0  0  0  0  0
  191.8950  176.3050  147.3280 C   0  0  0  0  0  0  0  0  0  0  0  0
  191.9300  175.5570  146.1590 O   0  0  0  0  0  0  0  0  0  0  0  0
  1 24  1  0  0  0  0
  2  3  2  0  0  0  0
  2  6  1  0  0  0  0
  4 16  1  1  0  0  0
  4  6  1  0  0  0  0
  5  4  1  0  0  0  0
  5  2  1  0  0  0  0
  6  1  1  6  0  0  0
  7 12  1  6  0  0  0
  7 13  1  0  0  0  0
  8 10  2  0  0  0  0
  8  7  1  0  0  0  0
 10 11  1  0  0  0  0
 11 13  1  0  0  0  0
 11  3  1  1  0  0  0
 13  9  1  1  0  0  0
 14 11  1  0  0  0  0
 14  9  1  1  0  0  0
 14 13  1  0  0  0  0
 15 18  1  0  0  0  0
 16 15  3  0  0  0  0
 18 17  1  6  0  0  0
 18 19  1  0  0  0  0
 19 20  1  0  0  0  0
 20 21  1  0  0  0  0
 22 21  1  0  0  0  0
 24 25  1  0  0  0  0
 24 23  1  1  0  0  0
 25 26  1  0  0  0  0
 26 27  1  6  0  0  0
 26 28  1  0  0  0  0
 28 29  1  0  0  0  0
 29 30  2  0  0  0  0
 29 31  1  0  0  0  0
 31 32  2  0  0  0  0
 33 31  1  0  0  0  0
 34 35  2  0  0  0  0
 35 33  1  0  0  0  0
 35 37  1  0  0  0  0
 37 36  1  6  0  0  0
 37 39  1  0  0  0  0
 39 40  1  0  0  0  0
 39 38  1  1  0  0  0
 42 40  1  0  0  0  0
 42 41  1  0  0  0  0
 43 42  2  0  0  0  0
M  END
>  <MODEL>
2

>  <REMARK>
 VINA RESULT:      -6.5      1.771      4.050
  Name = 
  19 active torsions:
  status: ('A' for Active; 'I' for Inactive)
    1  A    between atoms: N_1  and  C_3
    2  A    between atoms: N_1  and  C_39
    3  A    between atoms: C_3  and  C_22
    4  A    between atoms: C_6  and  C_35
    5  A    between atoms: C_6  and  C_37
    6  A    between atoms: C_7  and  C_30
    7  A    between atoms: C_8  and  C_26
    8  A    between atoms: C_10  and  C_32
    9  A    between atoms: C_13  and  C_16
   10  A    between atoms: C_13  and  C_22
   11  A    between atoms: C_15  and  C_36
   12  A    between atoms: C_16  and  C_17
   13  A    between atoms: C_17  and  C_37
   14  A    between atoms: C_18  and  C_19
   15  A    between atoms: C_19  and  C_43
   16  A    between atoms: C_20  and  C_26
   17  A    between atoms: C_20  and  C_30
   18  A    between atoms: C_39  and  C_40
   19  A    between atoms: C_40  and  C_43
                            x       y       z     vdW  Elec       q    Type
                         _______ _______ _______ _____ _____    ______ ____

>  <TORSDO>
F 19

$$$$
=
 OpenBabel11042412533D

 43 46  0  0  1  0  0  0  0  0999 V2000
  185.1970  179.2510  141.5240 C   0  0  0  0  0  2  0  0  0  0  0  0
  184.9730  178.4000  139.1930 C   0  0  0  0  0  0  0  0  0  0  0  0
  186.0710  177.7940  138.7380 C   0  0  0  0  0  3  0  0  0  0  0  0
  183.1290  179.3800  140.1590 C   0  0  2  0  0  3  0  0  0  0  0  0
  183.6460  179.4270  138.4640 S   0  0  0  0  0  0  0  0  0  0  0  0
  184.2870  178.5200  140.5450 C   0  0  2  0  0  3  0  0  0  0  0  0
  187.9860  176.9400  135.6260 C   0  0  1  0  0  3  0  0  0  0  0  0
  186.5580  176.7730  135.1160 C   0  0  0  0  0  3  0  0  0  0  0  0
  188.8250  178.7620  137.2970 C   0  0  0  0  0  2  0  0  0  0  0  0
  185.6170  177.2670  136.2070 C   0  0  0  0  0  3  0  0  0  0  0  0
  186.4740  177.8790  137.2990 C   0  0  2  0  0  0  0  0  0  0  0  0
  188.8370  177.6770  134.5970 C   0  0  0  0  0  1  0  0  0  0  0  0
  187.9180  177.5770  137.0230 C   0  0  2  0  0  0  0  0  0  0  0  0
  187.3850  179.0190  136.9070 C   0  0  2  0  0  3  0  0  0  0  0  0
  180.8590  177.9870  140.3660 C   0  0  0  0  0  0  0  0  0  0  0  0
  181.8850  178.6140  140.2720 C   0  0  0  0  0  0  0  0  0  0  0  0
  179.2060  177.2110  141.8150 O   0  0  0  0  0  1  0  0  0  0  0  0
  179.6120  177.2310  140.4810 C   0  0  2  0  0  3  0  0  0  0  0  0
  179.8310  175.8120  139.9830 C   0  0  0  0  0  2  0  0  0  0  0  0
  180.3080  175.8050  138.5390 C   0  0  0  0  0  2  0  0  0  0  0  0
  180.8880  174.4500  138.1810 C   0  0  0  0  0  2  0  0  0  0  0  0
  179.8090  173.5850  137.5650 C   0  0  0  0  0  1  0  0  0  0  0  0
  183.9270  177.8950  143.0260 O   0  0  0  0  0  1  0  0  0  0  0  0
  185.1010  178.6440  142.9140 C   0  0  2  0  0  3  0  0  0  0  0  0
  185.0950  179.7600  143.9450 C   0  0  0  0  0  2  0  0  0  0  0  0
  185.2840  179.2060  145.3510 C   0  0  1  0  0  3  0  0  0  0  0  0
  184.0470  178.9520  145.9480 O   0  0  0  0  0  1  0  0  0  0  0  0
  186.1510  177.9480  145.3440 C   0  0  0  0  0  2  0  0  0  0  0  0
  187.2270  177.9770  146.3880 C   0  0  0  0  0  0  0  0  0  0  0  0
  186.9090  178.1960  147.5880 O   0  0  0  0  0  0  0  0  0  0  0  0
  188.6390  177.7770  146.0140 C   0  0  0  0  0  0  0  0  0  0  0  0
  189.6250  176.8920  146.9860 S   0  0  0  0  0  0  0  0  0  0  0  0
  189.0800  178.2010  144.7150 N   0  0  0  0  0  2  0  0  0  0  0  0
  191.6450  177.9930  143.9810 S   0  0  0  0  0  0  0  0  0  0  0  0
  190.0590  177.5640  143.8850 C   0  0  0  0  0  0  0  0  0  0  0  0
  190.1700  175.5440  142.5920 O   0  0  0  0  0  1  0  0  0  0  0  0
  189.5650  176.8000  142.6910 C   0  0  2  0  0  3  0  0  0  0  0  0
  188.5360  178.3200  141.1590 O   0  0  0  0  0  1  0  0  0  0  0  0
  189.7060  177.5980  141.3950 C   0  0  2  0  0  3  0  0  0  0  0  0
  190.0160  176.7050  140.1980 C   0  0  0  0  0  2  0  0  0  0  0  0
  191.5910  176.8970  138.4210 O   0  0  0  0  0  0  0  0  0  0  0  0
  191.3670  177.0180  139.6530 C   0  0  0  0  0  0  0  0  0  0  0  0
  192.3680  177.4710  140.5000 O   0  0  0  0  0  1  0  0  0  0  0  0
  1 24  1  0  0  0  0
  2  6  1  0  0  0  0
  3  2  2  0  0  0  0
  4 16  1  6  0  0  0
  4  6  1  0  0  0  0
  5  2  1  0  0  0  0
  5  4  1  0  0  0  0
  6  1  1  1  0  0  0
  7 12  1  6  0  0  0
  7 13  1  0  0  0  0
  8  7  1  0  0  0  0
  8 10  2  0  0  0  0
 10 11  1  0  0  0  0
 11  3  1  1  0  0  0
 13  9  1  1  0  0  0
 13 11  1  0  0  0  0
 14 13  1  0  0  0  0
 14  9  1  1  0  0  0
 14 11  1  0  0  0  0
 15 18  1  0  0  0  0
 16 15  3  0  0  0  0
 18 17  1  1  0  0  0
 19 18  1  0  0  0  0
 20 19  1  0  0  0  0
 21 20  1  0  0  0  0
 22 21  1  0  0  0  0
 24 23  1  6  0  0  0
 24 25  1  0  0  0  0
 25 26  1  0  0  0  0
 26 27  1  6  0  0  0
 28 26  1  0  0  0  0
 28 29  1  0  0  0  0
 29 30  2  0  0  0  0
 31 29  1  0  0  0  0
 31 32  2  0  0  0  0
 33 31  1  0  0  0  0
 35 34  2  0  0  0  0
 35 33  1  0  0  0  0
 37 36  1  6  0  0  0
 37 35  1  0  0  0  0
 39 38  1  6  0  0  0
 39 37  1  0  0  0  0
 40 39  1  0  0  0  0
 41 42  2  0  0  0  0
 42 40  1  0  0  0  0
 42 43  1  0  0  0  0
M  END
>  <MODEL>
3

>  <REMARK>
 VINA RESULT:      -6.4      2.687      5.590
  Name = 
  19 active torsions:
  status: ('A' for Active; 'I' for Inactive)
    1  A    between atoms: N_1  and  C_3
    2  A    between atoms: N_1  and  C_39
    3  A    between atoms: C_3  and  C_22
    4  A    between atoms: C_6  and  C_35
    5  A    between atoms: C_6  and  C_37
    6  A    between atoms: C_7  and  C_30
    7  A    between atoms: C_8  and  C_26
    8  A    between atoms: C_10  and  C_32
    9  A    between atoms: C_13  and  C_16
   10  A    between atoms: C_13  and  C_22
   11  A    between atoms: C_15  and  C_36
   12  A    between atoms: C_16  and  C_17
   13  A    between atoms: C_17  and  C_37
   14  A    between atoms: C_18  and  C_19
   15  A    between atoms: C_19  and  C_43
   16  A    between atoms: C_20  and  C_26
   17  A    between atoms: C_20  and  C_30
   18  A    between atoms: C_39  and  C_40
   19  A    between atoms: C_40  and  C_43
                            x       y       z     vdW  Elec       q    Type
                         _______ _______ _______ _____ _____    ______ ____

>  <TORSDO>
F 19

$$$$
=
 OpenBabel11042412533D

 43 46  0  0  1  0  0  0  0  0999 V2000
  183.6700  178.4010  137.9780 C   0  0  0  0  0  2  0  0  0  0  0  0
  182.0560  176.5310  138.3050 C   0  0  0  0  0  0  0  0  0  0  0  0
  182.5610  175.3320  138.0080 C   0  0  0  0  0  3  0  0  0  0  0  0
  181.3700  178.6510  138.8730 C   0  0  2  0  0  3  0  0  0  0  0  0
  180.4130  177.3270  138.1850 S   0  0  0  0  0  0  0  0  0  0  0  0
  182.6070  177.8170  138.9010 C   0  0  2  0  0  3  0  0  0  0  0  0
  181.6230  171.8520  136.9640 C   0  0  1  0  0  3  0  0  0  0  0  0
  180.3970  172.2230  137.7910 C   0  0  0  0  0  3  0  0  0  0  0  0
  182.9590  173.4450  135.3850 C   0  0  0  0  0  2  0  0  0  0  0  0
  180.5110  173.6970  138.1530 C   0  0  0  0  0  3  0  0  0  0  0  0
  181.7140  174.2510  137.4110 C   0  0  2  0  0  0  0  0  0  0  0  0
  181.2060  171.1420  135.6800 C   0  0  0  0  0  1  0  0  0  0  0  0
  182.4740  173.1190  136.7860 C   0  0  2  0  0  0  0  0  0  0  0  0
  181.7150  174.1310  135.9060 C   0  0  2  0  0  3  0  0  0  0  0  0
  180.5570  179.1360  141.3720 C   0  0  0  0  0  0  0  0  0  0  0  0
  180.9240  178.9200  140.2440 C   0  0  0  0  0  0  0  0  0  0  0  0
  180.0710  180.7690  142.9630 O   0  0  0  0  0  1  0  0  0  0  0  0
  180.1110  179.3930  142.7410 C   0  0  2  0  0  3  0  0  0  0  0  0
  181.0710  178.7360  143.7200 C   0  0  0  0  0  2  0  0  0  0  0  0
  182.4910  179.2400  143.5170 C   0  0  0  0  0  2  0  0  0  0  0  0
  183.4210  178.6260  144.5460 C   0  0  0  0  0  2  0  0  0  0  0  0
  184.7380  179.3710  144.5470 C   0  0  0  0  0  1  0  0  0  0  0  0
  185.6470  178.8990  139.2230 O   0  0  0  0  0  1  0  0  0  0  0  0
  185.0590  177.9450  138.3900 C   0  0  2  0  0  3  0  0  0  0  0  0
  185.9110  177.7600  137.1450 C   0  0  0  0  0  2  0  0  0  0  0  0
  187.0710  176.8100  137.4130 C   0  0  1  0  0  3  0  0  0  0  0  0
  186.8550  175.5810  136.7860 O   0  0  0  0  0  1  0  0  0  0  0  0
  188.4020  177.4170  136.9710 C   0  0  0  0  0  2  0  0  0  0  0  0
  189.1770  178.0130  138.1080 C   0  0  0  0  0  0  0  0  0  0  0  0
  189.0280  179.2360  138.3740 O   0  0  0  0  0  0  0  0  0  0  0  0
  190.1180  177.1880  138.8860 C   0  0  0  0  0  0  0  0  0  0  0  0
  190.8830  175.9220  138.1680 S   0  0  0  0  0  0  0  0  0  0  0  0
  190.4930  177.6170  140.2040 N   0  0  0  0  0  2  0  0  0  0  0  0
  188.2830  177.9230  141.6840 S   0  0  0  0  0  0  0  0  0  0  0  0
  189.8030  177.3440  141.4300 C   0  0  0  0  0  0  0  0  0  0  0  0
  190.2960  175.5510  142.9500 O   0  0  0  0  0  1  0  0  0  0  0  0
  190.6210  176.8640  142.5930 C   0  0  2  0  0  3  0  0  0  0  0  0
  191.6320  178.6750  143.7830 O   0  0  0  0  0  1  0  0  0  0  0  0
  190.5360  177.8110  143.7910 C   0  0  2  0  0  3  0  0  0  0  0  0
  190.4740  177.0610  145.1170 C   0  0  0  0  0  2  0  0  0  0  0  0
  189.2930  177.8860  147.0140 O   0  0  0  0  0  1  0  0  0  0  0  0
  189.2260  177.4090  145.8520 C   0  0  0  0  0  0  0  0  0  0  0  0
  187.9910  177.2350  145.2440 O   0  0  0  0  0  0  0  0  0  0  0  0
  1 24  1  0  0  0  0
  2  6  1  0  0  0  0
  3  2  2  0  0  0  0
  4  6  1  0  0  0  0
  4 16  1  1  0  0  0
  5  2  1  0  0  0  0
  5  4  1  0  0  0  0
  6  1  1  6  0  0  0
  7 12  1  6  0  0  0
  7  8  1  0  0  0  0
  8 10  2  0  0  0  0
 11  3  1  1  0  0  0
 11 10  1  0  0  0  0
 13  9  1  1  0  0  0
 13  7  1  0  0  0  0
 13 11  1  0  0  0  0
 14  9  1  6  0  0  0
 14 13  1  0  0  0  0
 14 11  1  0  0  0  0
 15 18  1  0  0  0  0
 16 15  3  0  0  0  0
 18 17  1  1  0  0  0
 18 19  1  0  0  0  0
 20 19  1  0  0  0  0
 20 21  1  0  0  0  0
 21 22  1  0  0  0  0
 24 23  1  1  0  0  0
 25 26  1  0  0  0  0
 25 24  1  0  0  0  0
 26 27  1  6  0  0  0
 28 26  1  0  0  0  0
 28 29  1  0  0  0  0
 29 30  2  0  0  0  0
 29 31  1  0  0  0  0
 31 33  1  0  0  0  0
 32 31  2  0  0  0  0
 33 35  1  0  0  0  0
 35 34  2  0  0  0  0
 35 37  1  0  0  0  0
 37 36  1  1  0  0  0
 37 39  1  0  0  0  0
 39 38  1  1  0  0  0
 39 40  1  0  0  0  0
 40 42  1  0  0  0  0
 42 41  1  0  0  0  0
 43 42  2  0  0  0  0
M  END
>  <MODEL>
4

>  <REMARK>
 VINA RESULT:      -6.4      3.227      7.308
  Name = 
  19 active torsions:
  status: ('A' for Active; 'I' for Inactive)
    1  A    between atoms: N_1  and  C_3
    2  A    between atoms: N_1  and  C_39
    3  A    between atoms: C_3  and  C_22
    4  A    between atoms: C_6  and  C_35
    5  A    between atoms: C_6  and  C_37
    6  A    between atoms: C_7  and  C_30
    7  A    between atoms: C_8  and  C_26
    8  A    between atoms: C_10  and  C_32
    9  A    between atoms: C_13  and  C_16
   10  A    between atoms: C_13  and  C_22
   11  A    between atoms: C_15  and  C_36
   12  A    between atoms: C_16  and  C_17
   13  A    between atoms: C_17  and  C_37
   14  A    between atoms: C_18  and  C_19
   15  A    between atoms: C_19  and  C_43
   16  A    between atoms: C_20  and  C_26
   17  A    between atoms: C_20  and  C_30
   18  A    between atoms: C_39  and  C_40
   19  A    between atoms: C_40  and  C_43
                            x       y       z     vdW  Elec       q    Type
                         _______ _______ _______ _____ _____    ______ ____

>  <TORSDO>
F 19

$$$$
=
 OpenBabel11042412533D

 43 46  0  0  1  0  0  0  0  0999 V2000
  185.3600  177.7880  136.5370 C   0  0  0  0  0  2  0  0  0  0  0  0
  184.1970  175.7070  137.2620 C   0  0  0  0  0  0  0  0  0  0  0  0
  184.7230  174.5950  136.7460 C   0  0  0  0  0  3  0  0  0  0  0  0
  183.4740  177.7030  138.1470 C   0  0  2  0  0  3  0  0  0  0  0  0
  182.5210  176.2680  137.7310 S   0  0  0  0  0  0  0  0  0  0  0  0
  184.7460  177.0490  137.7200 C   0  0  2  0  0  3  0  0  0  0  0  0
  183.4960  171.0500  136.8840 C   0  0  1  0  0  3  0  0  0  0  0  0
  182.1910  171.7960  137.1370 C   0  0  0  0  0  3  0  0  0  0  0  0
  185.4000  171.7830  135.2520 C   0  0  0  0  0  2  0  0  0  0  0  0
  182.4580  173.2810  136.9310 C   0  0  0  0  0  3  0  0  0  0  0  0
  183.8720  173.4140  136.3960 C   0  0  2  0  0  0  0  0  0  0  0  0
  183.2750  169.9030  135.9030 C   0  0  0  0  0  1  0  0  0  0  0  0
  184.5600  172.0840  136.4810 C   0  0  2  0  0  0  0  0  0  0  0  0
  184.1970  172.6910  135.1110 C   0  0  2  0  0  3  0  0  0  0  0  0
  183.4750  178.0390  140.7970 C   0  0  0  0  0  0  0  0  0  0  0  0
  183.4770  177.8880  139.6010 C   0  0  0  0  0  0  0  0  0  0  0  0
  182.3000  178.8850  142.6250 O   0  0  0  0  0  1  0  0  0  0  0  0
  183.4680  178.2220  142.2480 C   0  0  2  0  0  3  0  0  0  0  0  0
  184.6830  179.0350  142.6640 C   0  0  0  0  0  2  0  0  0  0  0  0
  185.8010  178.1330  143.1640 C   0  0  0  0  0  2  0  0  0  0  0  0
  185.6700  177.9100  144.6590 C   0  0  0  0  0  2  0  0  0  0  0  0
  185.1800  179.1800  145.3190 C   0  0  0  0  0  1  0  0  0  0  0  0
  187.5390  176.8840  136.1580 O   0  0  0  0  0  1  0  0  0  0  0  0
  186.8580  177.9650  136.7240 C   0  0  2  0  0  3  0  0  0  0  0  0
  187.1680  178.0440  138.2090 C   0  0  0  0  0  2  0  0  0  0  0  0
  188.6690  177.9670  138.4590 C   0  0  1  0  0  3  0  0  0  0  0  0
  189.1690  179.2170  138.8290 O   0  0  0  0  0  1  0  0  0  0  0  0
  189.0050  176.9140  139.5130 C   0  0  0  0  0  2  0  0  0  0  0  0
  189.3370  177.5110  140.8480 C   0  0  0  0  0  0  0  0  0  0  0  0
  188.5320  178.3290  141.3690 O   0  0  0  0  0  0  0  0  0  0  0  0
  190.5990  177.1680  141.5290 C   0  0  0  0  0  0  0  0  0  0  0  0
  192.0340  177.4430  140.7760 S   0  0  0  0  0  0  0  0  0  0  0  0
  190.5590  176.7770  142.9090 N   0  0  0  0  0  2  0  0  0  0  0  0
  190.9870  179.2080  143.9440 S   0  0  0  0  0  0  0  0  0  0  0  0
  190.9420  177.5660  144.0430 C   0  0  0  0  0  0  0  0  0  0  0  0
  191.9260  175.5320  144.8560 O   0  0  0  0  0  1  0  0  0  0  0  0
  191.6520  176.8670  145.1660 C   0  0  2  0  0  3  0  0  0  0  0  0
  191.3050  175.9800  147.3590 O   0  0  0  0  0  1  0  0  0  0  0  0
  190.9050  176.9980  146.4930 C   0  0  2  0  0  3  0  0  0  0  0  0
  189.3910  176.9590  146.3090 C   0  0  0  0  0  2  0  0  0  0  0  0
  187.4590  177.6260  147.5320 O   0  0  0  0  0  0  0  0  0  0  0  0
  188.7130  177.6500  147.4420 C   0  0  0  0  0  0  0  0  0  0  0  0
  189.4670  178.2950  148.4130 O   0  0  0  0  0  1  0  0  0  0  0  0
  1 24  1  0  0  0  0
  2  6  1  0  0  0  0
  2  5  1  0  0  0  0
  3  2  2  0  0  0  0
  4 16  1  1  0  0  0
  5  4  1  0  0  0  0
  6  1  1  6  0  0  0
  6  4  1  0  0  0  0
  7 12  1  6  0  0  0
  7  8  1  0  0  0  0
 10  8  2  0  0  0  0
 11 13  1  0  0  0  0
 11  3  1  1  0  0  0
 11 10  1  0  0  0  0
 13  9  1  1  0  0  0
 13  7  1  0  0  0  0
 14  9  1  6  0  0  0
 14 11  1  0  0  0  0
 14 13  1  0  0  0  0
 15 18  1  0  0  0  0
 16 15  3  0  0  0  0
 18 17  1  6  0  0  0
 18 19  1  0  0  0  0
 19 20  1  0  0  0  0
 20 21  1  0  0  0  0
 21 22  1  0  0  0  0
 24 23  1  1  0  0  0
 24 25  1  0  0  0  0
 25 26  1  0  0  0  0
 26 27  1  1  0  0  0
 26 28  1  0  0  0  0
 28 29  1  0  0  0  0
 29 30  2  0  0  0  0
 29 31  1  0  0  0  0
 31 33  1  0  0  0  0
 32 31  2  0  0  0  0
 33 35  1  0  0  0  0
 34 35  2  0  0  0  0
 35 37  1  0  0  0  0
 37 36  1  6  0  0  0
 37 39  1  0  0  0  0
 39 38  1  1  0  0  0
 40 39  1  0  0  0  0
 40 42  1  0  0  0  0
 42 41  2  0  0  0  0
 42 43  1  0  0  0  0
M  END
>  <MODEL>
5

>  <REMARK>
 VINA RESULT:      -6.3      3.141      6.045
  Name = 
  19 active torsions:
  status: ('A' for Active; 'I' for Inactive)
    1  A    between atoms: N_1  and  C_3
    2  A    between atoms: N_1  and  C_39
    3  A    between atoms: C_3  and  C_22
    4  A    between atoms: C_6  and  C_35
    5  A    between atoms: C_6  and  C_37
    6  A    between atoms: C_7  and  C_30
    7  A    between atoms: C_8  and  C_26
    8  A    between atoms: C_10  and  C_32
    9  A    between atoms: C_13  and  C_16
   10  A    between atoms: C_13  and  C_22
   11  A    between atoms: C_15  and  C_36
   12  A    between atoms: C_16  and  C_17
   13  A    between atoms: C_17  and  C_37
   14  A    between atoms: C_18  and  C_19
   15  A    between atoms: C_19  and  C_43
   16  A    between atoms: C_20  and  C_26
   17  A    between atoms: C_20  and  C_30
   18  A    between atoms: C_39  and  C_40
   19  A    between atoms: C_40  and  C_43
                            x       y       z     vdW  Elec       q    Type
                         _______ _______ _______ _____ _____    ______ ____

>  <TORSDO>
F 19

$$$$
=
 OpenBabel11042412533D

 43 46  0  0  1  0  0  0  0  0999 V2000
  185.0040  177.2770  138.2530 C   0  0  0  0  0  2  0  0  0  0  0  0
  184.0650  178.2510  140.3450 C   0  0  0  0  0  0  0  0  0  0  0  0
  184.9830  178.4860  141.2840 C   0  0  0  0  0  3  0  0  0  0  0  0
  182.6220  177.8840  138.5920 C   0  0  2  0  0  3  0  0  0  0  0  0
  182.3080  177.7420  140.3300 S   0  0  0  0  0  0  0  0  0  0  0  0
  184.0350  178.3050  138.8260 C   0  0  2  0  0  3  0  0  0  0  0  0
  185.0000  179.3590  144.9340 C   0  0  1  0  0  3  0  0  0  0  0  0
  183.5000  179.2240  144.6980 C   0  0  0  0  0  3  0  0  0  0  0  0
  186.8690  177.8800  143.8670 C   0  0  0  0  0  2  0  0  0  0  0  0
  183.3000  178.6810  143.2890 C   0  0  0  0  0  3  0  0  0  0  0  0
  184.6720  178.3350  142.7400 C   0  0  2  0  0  0  0  0  0  0  0  0
  185.3980  178.6860  146.2440 C   0  0  0  0  0  1  0  0  0  0  0  0
  185.7240  178.8570  143.6740 C   0  0  2  0  0  0  0  0  0  0  0  0
  185.4990  177.3400  143.5200 C   0  0  2  0  0  3  0  0  0  0  0  0
  181.2310  179.9340  137.5930 C   0  0  0  0  0  0  0  0  0  0  0  0
  181.8570  179.0070  138.0430 C   0  0  0  0  0  0  0  0  0  0  0  0
  180.7070  181.1560  135.6780 O   0  0  0  0  0  1  0  0  0  0  0  0
  180.4740  181.0620  137.0490 C   0  0  2  0  0  3  0  0  0  0  0  0
  180.9090  182.3450  137.7390 C   0  0  0  0  0  2  0  0  0  0  0  0
  180.2190  183.5560  137.1310 C   0  0  0  0  0  2  0  0  0  0  0  0
  181.2470  184.5480  136.6210 C   0  0  0  0  0  2  0  0  0  0  0  0
  180.8700  184.9940  135.2250 C   0  0  0  0  0  1  0  0  0  0  0  0
  186.2130  179.3070  137.8970 O   0  0  0  0  0  1  0  0  0  0  0  0
  186.3420  177.9160  137.9210 C   0  0  2  0  0  3  0  0  0  0  0  0
  186.8050  177.4220  136.5610 C   0  0  0  0  0  2  0  0  0  0  0  0
  187.9870  176.4720  136.6970 C   0  0  1  0  0  3  0  0  0  0  0  0
  188.3400  175.9460  135.4530 O   0  0  0  0  0  1  0  0  0  0  0  0
  189.1830  177.1600  137.3530 C   0  0  0  0  0  2  0  0  0  0  0  0
  190.1230  176.1940  138.0110 C   0  0  0  0  0  0  0  0  0  0  0  0
  189.8760  174.9600  137.9430 O   0  0  0  0  0  0  0  0  0  0  0  0
  191.3020  176.6810  138.7490 C   0  0  0  0  0  0  0  0  0  0  0  0
  192.8070  176.4440  138.1330 S   0  0  0  0  0  0  0  0  0  0  0  0
  191.1050  177.5190  139.8980 N   0  0  0  0  0  2  0  0  0  0  0  0
  188.7730  178.1260  141.0620 S   0  0  0  0  0  0  0  0  0  0  0  0
  190.1930  177.2980  140.9810 C   0  0  0  0  0  0  0  0  0  0  0  0
  190.2500  175.2930  142.3020 O   0  0  0  0  0  1  0  0  0  0  0  0
  190.7220  176.6060  142.2030 C   0  0  2  0  0  3  0  0  0  0  0  0
  191.4240  178.3880  143.6350 O   0  0  0  0  0  1  0  0  0  0  0  0
  190.4510  177.4000  143.4810 C   0  0  2  0  0  3  0  0  0  0  0  0
  190.4150  176.5080  144.7190 C   0  0  0  0  0  2  0  0  0  0  0  0
  191.5620  177.3070  146.6480 O   0  0  0  0  0  1  0  0  0  0  0  0
  190.5120  177.3330  145.9550 C   0  0  0  0  0  0  0  0  0  0  0  0
  189.4550  178.1520  146.3270 O   0  0  0  0  0  0  0  0  0  0  0  0
  2  3  2  0  0  0  0
  4 16  1  1  0  0  0
  4  6  1  0  0  0  0
  4  5  1  0  0  0  0
  5  2  1  0  0  0  0
  6  1  1  6  0  0  0
  6  2  1  0  0  0  0
  7 12  1  1  0  0  0
  8  7  1  0  0  0  0
 10  8  2  0  0  0  0
 11  3  1  6  0  0  0
 11 10  1  0  0  0  0
 11 14  1  0  0  0  0
 11 13  1  0  0  0  0
 13  9  1  6  0  0  0
 13  7  1  0  0  0  0
 14 13  1  0  0  0  0
 14  9  1  6  0  0  0
 15 16  3  0  0  0  0
 18 17  1  6  0  0  0
 18 15  1  0  0  0  0
 18 19  1  0  0  0  0
 20 19  1  0  0  0  0
 21 20  1  0  0  0  0
 22 21  1  0  0  0  0
 24 23  1  6  0  0  0
 24  1  1  0  0  0  0
 25 26  1  0  0  0  0
 25 24  1  0  0  0  0
 26 27  1  6  0  0  0
 26 28  1  0  0  0  0
 28 29  1  0  0  0  0
 29 31  1  0  0  0  0
 30 29  2  0  0  0  0
 31 33  1  0  0  0  0
 32 31  2  0  0  0  0
 33 35  1  0  0  0  0
 35 34  2  0  0  0  0
 35 37  1  0  0  0  0
 37 36  1  1  0  0  0
 37 39  1  0  0  0  0
 39 38  1  1  0  0  0
 39 40  1  0  0  0  0
 40 42  1  0  0  0  0
 42 43  2  0  0  0  0
 42 41  1  0  0  0  0
M  END
>  <MODEL>
6

>  <REMARK>
 VINA RESULT:      -6.2      3.372      7.337
  Name = 
  19 active torsions:
  status: ('A' for Active; 'I' for Inactive)
    1  A    between atoms: N_1  and  C_3
    2  A    between atoms: N_1  and  C_39
    3  A    between atoms: C_3  and  C_22
    4  A    between atoms: C_6  and  C_35
    5  A    between atoms: C_6  and  C_37
    6  A    between atoms: C_7  and  C_30
    7  A    between atoms: C_8  and  C_26
    8  A    between atoms: C_10  and  C_32
    9  A    between atoms: C_13  and  C_16
   10  A    between atoms: C_13  and  C_22
   11  A    between atoms: C_15  and  C_36
   12  A    between atoms: C_16  and  C_17
   13  A    between atoms: C_17  and  C_37
   14  A    between atoms: C_18  and  C_19
   15  A    between atoms: C_19  and  C_43
   16  A    between atoms: C_20  and  C_26
   17  A    between atoms: C_20  and  C_30
   18  A    between atoms: C_39  and  C_40
   19  A    between atoms: C_40  and  C_43
                            x       y       z     vdW  Elec       q    Type
                         _______ _______ _______ _____ _____    ______ ____

>  <TORSDO>
F 19

$$$$
=
 OpenBabel11042412533D

 43 46  0  0  1  0  0  0  0  0999 V2000
  185.1180  178.6120  138.6520 C   0  0  0  0  0  2  0  0  0  0  0  0
  183.1980  177.1630  139.3030 C   0  0  0  0  0  0  0  0  0  0  0  0
  183.0360  176.1030  138.5100 C   0  0  0  0  0  3  0  0  0  0  0  0
  183.6730  178.9770  140.6350 C   0  0  2  0  0  3  0  0  0  0  0  0
  182.0920  178.2760  140.2440 S   0  0  0  0  0  0  0  0  0  0  0  0
  184.3900  177.9540  139.8180 C   0  0  2  0  0  3  0  0  0  0  0  0
  180.4980  173.6040  137.3260 C   0  0  1  0  0  3  0  0  0  0  0  0
  179.9510  173.9020  138.7180 C   0  0  0  0  0  3  0  0  0  0  0  0
  181.5920  175.3270  135.6970 C   0  0  0  0  0  2  0  0  0  0  0  0
  180.7600  175.0560  139.2960 C   0  0  0  0  0  3  0  0  0  0  0  0
  181.6770  175.5590  138.1950 C   0  0  2  0  0  0  0  0  0  0  0  0
  179.3640  173.5570  136.3060 C   0  0  0  0  0  1  0  0  0  0  0  0
  181.6230  174.6100  137.0350 C   0  0  2  0  0  0  0  0  0  0  0  0
  181.0290  176.0280  136.9140 C   0  0  2  0  0  3  0  0  0  0  0  0
  184.2020  178.5980  143.2260 C   0  0  0  0  0  0  0  0  0  0  0  0
  183.9650  178.7690  142.0560 C   0  0  0  0  0  0  0  0  0  0  0  0
  183.8080  179.3570  145.3950 O   0  0  0  0  0  1  0  0  0  0  0  0
  184.4850  178.3950  144.6460 C   0  0  2  0  0  3  0  0  0  0  0  0
  185.9820  178.5070  144.8870 C   0  0  0  0  0  2  0  0  0  0  0  0
  186.4620  177.4390  145.8580 C   0  0  0  0  0  2  0  0  0  0  0  0
  187.8340  177.7960  146.3990 C   0  0  0  0  0  2  0  0  0  0  0  0
  188.8230  177.8750  145.2560 C   0  0  0  0  0  1  0  0  0  0  0  0
  187.5040  178.5210  138.7450 O   0  0  0  0  0  1  0  0  0  0  0  0
  186.3740  177.8380  138.2880 C   0  0  2  0  0  3  0  0  0  0  0  0
  186.4440  177.6860  136.7780 C   0  0  0  0  0  2  0  0  0  0  0  0
  186.3290  176.2230  136.3690 C   0  0  1  0  0  3  0  0  0  0  0  0
  185.0900  175.9760  135.7730 O   0  0  0  0  0  1  0  0  0  0  0  0
  187.4690  175.8120  135.4390 C   0  0  0  0  0  2  0  0  0  0  0  0
  188.8240  176.0540  136.0350 C   0  0  0  0  0  0  0  0  0  0  0  0
  189.5380  176.9820  135.5700 O   0  0  0  0  0  0  0  0  0  0  0  0
  189.3220  175.2040  137.1310 C   0  0  0  0  0  0  0  0  0  0  0  0
  189.5520  173.5960  136.8780 S   0  0  0  0  0  0  0  0  0  0  0  0
  189.7770  175.8260  138.3420 N   0  0  0  0  0  2  0  0  0  0  0  0
  192.3820  176.0350  137.7640 S   0  0  0  0  0  0  0  0  0  0  0  0
  191.0160  176.5170  138.5450 C   0  0  0  0  0  0  0  0  0  0  0  0
  192.4410  177.8080  139.9840 O   0  0  0  0  0  1  0  0  0  0  0  0
  191.1210  177.4150  139.7440 C   0  0  2  0  0  3  0  0  0  0  0  0
  189.2090  177.3410  141.1780 O   0  0  0  0  0  1  0  0  0  0  0  0
  190.4800  176.7980  140.9870 C   0  0  2  0  0  3  0  0  0  0  0  0
  191.3280  177.0060  142.2380 C   0  0  0  0  0  2  0  0  0  0  0  0
  190.2470  175.0110  142.9620 O   0  0  0  0  0  0  0  0  0  0  0  0
  191.0300  175.9530  143.2480 C   0  0  0  0  0  0  0  0  0  0  0  0
  191.6390  175.9950  144.4940 O   0  0  0  0  0  1  0  0  0  0  0  0
  2  6  1  0  0  0  0
  2  5  1  0  0  0  0
  3  2  2  0  0  0  0
  4 16  1  1  0  0  0
  5  4  1  0  0  0  0
  6  1  1  6  0  0  0
  6  4  1  0  0  0  0
  7 12  1  6  0  0  0
  7  8  1  0  0  0  0
  8 10  2  0  0  0  0
 11  3  1  1  0  0  0
 11 10  1  0  0  0  0
 13  9  1  6  0  0  0
 13  7  1  0  0  0  0
 13 11  1  0  0  0  0
 14  9  1  6  0  0  0
 14 13  1  0  0  0  0
 14 11  1  0  0  0  0
 15 18  1  0  0  0  0
 16 15  3  0  0  0  0
 18 19  1  0  0  0  0
 18 17  1  1  0  0  0
 19 20  1  0  0  0  0
 20 21  1  0  0  0  0
 22 21  1  0  0  0  0
 24  1  1  0  0  0  0
 24 23  1  6  0  0  0
 25 24  1  0  0  0  0
 26 27  1  6  0  0  0
 26 25  1  0  0  0  0
 28 29  1  0  0  0  0
 28 26  1  0  0  0  0
 29 31  1  0  0  0  0
 30 29  2  0  0  0  0
 31 33  1  0  0  0  0
 32 31  2  0  0  0  0
 33 35  1  0  0  0  0
 34 35  2  0  0  0  0
 35 37  1  0  0  0  0
 37 36  1  1  0  0  0
 37 39  1  0  0  0  0
 39 38  1  1  0  0  0
 39 40  1  0  0  0  0
 40 42  1  0  0  0  0
 41 42  2  0  0  0  0
 42 43  1  0  0  0  0
M  END
>  <MODEL>
7

>  <REMARK>
 VINA RESULT:      -6.1      3.149      8.429
  Name = 
  19 active torsions:
  status: ('A' for Active; 'I' for Inactive)
    1  A    between atoms: N_1  and  C_3
    2  A    between atoms: N_1  and  C_39
    3  A    between atoms: C_3  and  C_22
    4  A    between atoms: C_6  and  C_35
    5  A    between atoms: C_6  and  C_37
    6  A    between atoms: C_7  and  C_30
    7  A    between atoms: C_8  and  C_26
    8  A    between atoms: C_10  and  C_32
    9  A    between atoms: C_13  and  C_16
   10  A    between atoms: C_13  and  C_22
   11  A    between atoms: C_15  and  C_36
   12  A    between atoms: C_16  and  C_17
   13  A    between atoms: C_17  and  C_37
   14  A    between atoms: C_18  and  C_19
   15  A    between atoms: C_19  and  C_43
   16  A    between atoms: C_20  and  C_26
   17  A    between atoms: C_20  and  C_30
   18  A    between atoms: C_39  and  C_40
   19  A    between atoms: C_40  and  C_43
                            x       y       z     vdW  Elec       q    Type
                         _______ _______ _______ _____ _____    ______ ____

>  <TORSDO>
F 19

$$$$
=
 OpenBabel11042412533D

 43 46  0  0  1  0  0  0  0  0999 V2000
  188.3980  178.6260  140.2920 C   0  0  0  0  0  2  0  0  0  0  0  0
  189.1210  177.9690  142.5840 C   0  0  0  0  0  0  0  0  0  0  0  0
  190.3700  178.3370  142.8770 C   0  0  0  0  0  3  0  0  0  0  0  0
  186.9570  177.4960  141.9660 C   0  0  2  0  0  3  0  0  0  0  0  0
  188.0380  176.5580  143.0110 S   0  0  0  0  0  0  0  0  0  0  0  0
  187.9880  178.5560  141.7590 C   0  0  2  0  0  3  0  0  0  0  0  0
  191.2290  175.8150  145.5200 C   0  0  1  0  0  3  0  0  0  0  0  0
  192.0250  175.2550  144.3460 C   0  0  0  0  0  3  0  0  0  0  0  0
  190.8910  178.3410  146.0900 C   0  0  0  0  0  2  0  0  0  0  0  0
  191.9480  176.2660  143.2100 C   0  0  0  0  0  3  0  0  0  0  0  0
  191.2500  177.5000  143.7510 C   0  0  2  0  0  0  0  0  0  0  0  0
  192.0600  175.7720  146.7980 C   0  0  0  0  0  1  0  0  0  0  0  0
  190.6940  177.1980  145.1110 C   0  0  2  0  0  0  0  0  0  0  0  0
  191.8730  178.1780  144.9490 C   0  0  2  0  0  3  0  0  0  0  0  0
  184.9390  178.4740  143.4180 C   0  0  0  0  0  0  0  0  0  0  0  0
  185.8490  178.0330  142.7610 C   0  0  0  0  0  0  0  0  0  0  0  0
  183.7280  180.3790  144.0030 O   0  0  0  0  0  1  0  0  0  0  0  0
  183.8370  179.0050  144.2200 C   0  0  2  0  0  3  0  0  0  0  0  0
  184.1010  178.7310  145.6910 C   0  0  0  0  0  2  0  0  0  0  0  0
  185.5460  179.0350  146.0550 C   0  0  0  0  0  2  0  0  0  0  0  0
  186.0940  177.9650  146.9810 C   0  0  0  0  0  2  0  0  0  0  0  0
  187.5500  177.7140  146.6580 C   0  0  0  0  0  1  0  0  0  0  0  0
  190.2800  177.3030  139.6500 O   0  0  0  0  0  1  0  0  0  0  0  0
  188.8910  177.2770  139.7990 C   0  0  2  0  0  3  0  0  0  0  0  0
  188.2400  176.9670  138.4620 C   0  0  0  0  0  2  0  0  0  0  0  0
  187.8480  178.2470  137.7350 C   0  0  1  0  0  3  0  0  0  0  0  0
  188.8450  178.6240  136.8330 O   0  0  0  0  0  1  0  0  0  0  0  0
  186.5030  178.0970  137.0250 C   0  0  0  0  0  2  0  0  0  0  0  0
  185.3380  178.1500  137.9680 C   0  0  0  0  0  0  0  0  0  0  0  0
  185.3060  179.0490  138.8500 O   0  0  0  0  0  0  0  0  0  0  0  0
  184.2590  177.1480  137.8820 C   0  0  0  0  0  0  0  0  0  0  0  0
  184.3540  175.9400  136.7720 S   0  0  0  0  0  0  0  0  0  0  0  0
  183.2400  177.1370  138.8920 N   0  0  0  0  0  2  0  0  0  0  0  0
  181.4930  178.7710  137.6900 S   0  0  0  0  0  0  0  0  0  0  0  0
  181.8830  177.5790  138.7550 C   0  0  0  0  0  0  0  0  0  0  0  0
  179.7520  176.6380  139.3380 O   0  0  0  0  0  1  0  0  0  0  0  0
  180.9210  177.2120  139.8470 C   0  0  2  0  0  3  0  0  0  0  0  0
  181.7040  178.6220  141.6110 O   0  0  0  0  0  1  0  0  0  0  0  0
  180.6160  178.3920  140.7700 C   0  0  2  0  0  3  0  0  0  0  0  0
  179.3560  178.1650  141.5990 C   0  0  0  0  0  2  0  0  0  0  0  0
  179.4150  180.0440  143.0610 O   0  0  0  0  0  0  0  0  0  0  0  0
  179.4980  178.7950  142.9410 C   0  0  0  0  0  0  0  0  0  0  0  0
  179.6910  178.0010  144.0630 O   0  0  0  0  0  1  0  0  0  0  0  0
  2  3  2  0  0  0  0
  2  5  1  0  0  0  0
  4 16  1  1  0  0  0
  4  5  1  0  0  0  0
  6  1  1  6  0  0  0
  6  4  1  0  0  0  0
  6  2  1  0  0  0  0
  7 12  1  1  0  0  0
  8  7  1  0  0  0  0
 10 11  1  0  0  0  0
 10  8  2  0  0  0  0
 11  3  1  6  0  0  0
 11 14  1  0  0  0  0
 11 13  1  0  0  0  0
 13  7  1  0  0  0  0
 13  9  1  1  0  0  0
 14 13  1  0  0  0  0
 14  9  1  6  0  0  0
 15 18  1  0  0  0  0
 16 15  3  0  0  0  0
 18 17  1  1  0  0  0
 18 19  1  0  0  0  0
 19 20  1  0  0  0  0
 20 21  1  0  0  0  0
 22 21  1  0  0  0  0
 24 23  1  6  0  0  0
 24  1  1  0  0  0  0
 25 24  1  0  0  0  0
 26 27  1  6  0  0  0
 26 25  1  0  0  0  0
 28 26  1  0  0  0  0
 28 29  1  0  0  0  0
 29 30  2  0  0  0  0
 31 29  1  0  0  0  0
 31 33  1  0  0  0  0
 32 31  2  0  0  0  0
 34 35  2  0  0  0  0
 35 33  1  0  0  0  0
 35 37  1  0  0  0  0
 37 36  1  6  0  0  0
 37 39  1  0  0  0  0
 39 40  1  0  0  0  0
 39 38  1  1  0  0  0
 40 42  1  0  0  0  0
 42 41  2  0  0  0  0
 42 43  1  0  0  0  0
M  END
>  <MODEL>
8

>  <REMARK>
 VINA RESULT:      -6.0      3.481      7.645
  Name = 
  19 active torsions:
  status: ('A' for Active; 'I' for Inactive)
    1  A    between atoms: N_1  and  C_3
    2  A    between atoms: N_1  and  C_39
    3  A    between atoms: C_3  and  C_22
    4  A    between atoms: C_6  and  C_35
    5  A    between atoms: C_6  and  C_37
    6  A    between atoms: C_7  and  C_30
    7  A    between atoms: C_8  and  C_26
    8  A    between atoms: C_10  and  C_32
    9  A    between atoms: C_13  and  C_16
   10  A    between atoms: C_13  and  C_22
   11  A    between atoms: C_15  and  C_36
   12  A    between atoms: C_16  and  C_17
   13  A    between atoms: C_17  and  C_37
   14  A    between atoms: C_18  and  C_19
   15  A    between atoms: C_19  and  C_43
   16  A    between atoms: C_20  and  C_26
   17  A    between atoms: C_20  and  C_30
   18  A    between atoms: C_39  and  C_40
   19  A    between atoms: C_40  and  C_43
                            x       y       z     vdW  Elec       q    Type
                         _______ _______ _______ _____ _____    ______ ____

>  <TORSDO>
F 19

$$$$
=
 OpenBabel11042412533D

 43 46  0  0  1  0  0  0  0  0999 V2000
  185.7330  177.8660  143.1790 C   0  0  0  0  0  2  0  0  0  0  0  0
  188.1860  177.5290  143.4530 C   0  0  0  0  0  0  0  0  0  0  0  0
  188.5090  176.7970  144.5210 C   0  0  0  0  0  3  0  0  0  0  0  0
  187.4630  178.6840  141.6000 C   0  0  2  0  0  3  0  0  0  0  0  0
  188.9370  178.9330  142.5520 S   0  0  0  0  0  0  0  0  0  0  0  0
  187.0360  177.5400  142.4590 C   0  0  2  0  0  3  0  0  0  0  0  0
  191.0870  176.2810  147.1990 C   0  0  1  0  0  3  0  0  0  0  0  0
  191.9780  176.2640  145.9630 C   0  0  0  0  0  3  0  0  0  0  0  0
  189.0010  177.8060  147.5760 C   0  0  0  0  0  2  0  0  0  0  0  0
  191.1190  176.6510  144.7660 C   0  0  0  0  0  3  0  0  0  0  0  0
  189.7580  177.0590  145.3020 C   0  0  2  0  0  0  0  0  0  0  0  0
  191.7290  177.1070  148.3090 C   0  0  0  0  0  1  0  0  0  0  0  0
  189.6800  176.7210  146.7620 C   0  0  2  0  0  0  0  0  0  0  0  0
  189.7190  178.1910  146.3010 C   0  0  2  0  0  3  0  0  0  0  0  0
  188.1060  177.7950  139.1640 C   0  0  0  0  0  0  0  0  0  0  0  0
  187.8160  178.1940  140.2640 C   0  0  0  0  0  0  0  0  0  0  0  0
  187.2950  176.9080  137.1660 O   0  0  0  0  0  1  0  0  0  0  0  0
  188.4540  177.3150  137.8270 C   0  0  2  0  0  3  0  0  0  0  0  0
  189.4220  176.1490  137.9430 C   0  0  0  0  0  2  0  0  0  0  0  0
  190.7160  176.5760  138.6180 C   0  0  0  0  0  2  0  0  0  0  0  0
  191.8950  176.3480  137.6910 C   0  0  0  0  0  2  0  0  0  0  0  0
  192.1860  174.8660  137.5980 C   0  0  0  0  0  1  0  0  0  0  0  0
  185.0030  180.1060  143.5720 O   0  0  0  0  0  1  0  0  0  0  0  0
  185.0850  179.1100  142.5960 C   0  0  2  0  0  3  0  0  0  0  0  0
  183.6900  178.7610  142.1040 C   0  0  0  0  0  2  0  0  0  0  0  0
  183.5950  178.8930  140.5900 C   0  0  1  0  0  3  0  0  0  0  0  0
  184.5850  179.7520  140.1090 O   0  0  0  0  0  1  0  0  0  0  0  0
  183.6800  177.5300  139.9040 C   0  0  0  0  0  2  0  0  0  0  0  0
  182.3890  177.1190  139.2620 C   0  0  0  0  0  0  0  0  0  0  0  0
  181.3110  177.2920  139.8920 O   0  0  0  0  0  0  0  0  0  0  0  0
  182.3820  176.4980  137.9250 C   0  0  0  0  0  0  0  0  0  0  0  0
  182.0650  177.4160  136.5990 S   0  0  0  0  0  0  0  0  0  0  0  0
  182.8360  175.1430  137.7870 N   0  0  0  0  0  2  0  0  0  0  0  0
  181.1390  173.1930  137.0940 S   0  0  0  0  0  0  0  0  0  0  0  0
  182.4180  174.1880  136.8040 C   0  0  0  0  0  0  0  0  0  0  0  0
  183.4270  172.4860  135.4430 O   0  0  0  0  0  1  0  0  0  0  0  0
  183.3820  173.8590  135.7020 C   0  0  2  0  0  3  0  0  0  0  0  0
  185.0100  175.5060  135.1030 O   0  0  0  0  0  1  0  0  0  0  0  0
  184.7760  174.4310  135.9620 C   0  0  2  0  0  3  0  0  0  0  0  0
  185.8710  173.3830  135.7940 C   0  0  0  0  0  2  0  0  0  0  0  0
  185.6880  173.0030  138.1380 O   0  0  0  0  0  1  0  0  0  0  0  0
  186.4270  172.9970  137.1200 C   0  0  0  0  0  0  0  0  0  0  0  0
  187.7540  172.6030  137.2280 O   0  0  0  0  0  0  0  0  0  0  0  0
  2  3  2  0  0  0  0
  4 16  1  6  0  0  0
  4  6  1  0  0  0  0
  4  5  1  0  0  0  0
  5  2  1  0  0  0  0
  6  1  1  1  0  0  0
  6  2  1  0  0  0  0
  7 12  1  1  0  0  0
  8  7  1  0  0  0  0
 10 11  1  0  0  0  0
 10  8  2  0  0  0  0
 11  3  1  6  0  0  0
 11 14  1  0  0  0  0
 11 13  1  0  0  0  0
 13  7  1  0  0  0  0
 13  9  1  1  0  0  0
 14 13  1  0  0  0  0
 14  9  1  6  0  0  0
 15 16  3  0  0  0  0
 18 17  1  1  0  0  0
 18 19  1  0  0  0  0
 18 15  1  0  0  0  0
 19 20  1  0  0  0  0
 21 20  1  0  0  0  0
 22 21  1  0  0  0  0
 24  1  1  0  0  0  0
 24 23  1  1  0  0  0
 25 24  1  0  0  0  0
 26 27  1  6  0  0  0
 26 25  1  0  0  0  0
 28 26  1  0  0  0  0
 29 30  2  0  0  0  0
 29 28  1  0  0  0  0
 31 29  1  0  0  0  0
 32 31  2  0  0  0  0
 33 31  1  0  0  0  0
 35 34  2  0  0  0  0
 35 33  1  0  0  0  0
 37 36  1  1  0  0  0
 37 39  1  0  0  0  0
 37 35  1  0  0  0  0
 39 38  1  6  0  0  0
 40 39  1  0  0  0  0
 40 42  1  0  0  0  0
 42 43  2  0  0  0  0
 42 41  1  0  0  0  0
M  END
>  <MODEL>
9

>  <REMARK>
 VINA RESULT:      -6.0      3.561      9.116
  Name = 
  19 active torsions:
  status: ('A' for Active; 'I' for Inactive)
    1  A    between atoms: N_1  and  C_3
    2  A    between atoms: N_1  and  C_39
    3  A    between atoms: C_3  and  C_22
    4  A    between atoms: C_6  and  C_35
    5  A    between atoms: C_6  and  C_37
    6  A    between atoms: C_7  and  C_30
    7  A    between atoms: C_8  and  C_26
    8  A    between atoms: C_10  and  C_32
    9  A    between atoms: C_13  and  C_16
   10  A    between atoms: C_13  and  C_22
   11  A    between atoms: C_15  and  C_36
   12  A    between atoms: C_16  and  C_17
   13  A    between atoms: C_17  and  C_37
   14  A    between atoms: C_18  and  C_19
   15  A    between atoms: C_19  and  C_43
   16  A    between atoms: C_20  and  C_26
   17  A    between atoms: C_20  and  C_30
   18  A    between atoms: C_39  and  C_40
   19  A    between atoms: C_40  and  C_43
                            x       y       z     vdW  Elec       q    Type
                         _______ _______ _______ _____ _____    ______ ____

>  <TORSDO>
F 19

$$$$
