=
 OpenBabel11032419313D

 31 33  0  0  1  0  0  0  0  0999 V2000
  188.8890  176.5220  144.0020 C   0  0  2  0  0  3  0  0  0  0  0  0
  188.8320  177.2330  146.3980 C   0  0  0  0  0  2  0  0  0  0  0  0
  186.4920  177.0640  144.6730 C   0  0  0  0  0  2  0  0  0  0  0  0
  187.5080  176.9960  143.5420 C   0  0  0  0  0  2  0  0  0  0  0  0
  186.7010  178.3500  145.4630 C   0  0  2  0  0  3  0  0  0  0  0  0
  187.6660  178.1920  146.6420 C   0  0  0  0  0  2  0  0  0  0  0  0
  189.5170  177.4660  145.0540 C   0  0  1  0  0  3  0  0  0  0  0  0
  191.2810  179.3280  143.9440 C   0  0  0  0  0  1  0  0  0  0  0  0
  191.6030  178.2890  145.9420 O   0  0  0  0  0  0  0  0  0  0  0  0
  191.0410  177.2770  145.2270 C   0  0  2  0  0  0  0  0  0  0  0  0
  191.9630  178.2200  144.6030 N   0  0  0  0  0  0  0  0  0  0  0  0
  191.6110  175.9150  145.6520 C   0  0  0  0  0  2  0  0  0  0  0  0
  191.4600  175.6090  147.1410 C   0  0  0  0  0  2  0  0  0  0  0  0
  192.8760  176.7570  148.6830 O   0  0  0  0  0  1  0  0  0  0  0  0
  192.8050  175.6430  147.8460 C   0  0  0  0  0  2  0  0  0  0  0  0
  189.8680  177.3590  141.8120 N   0  0  0  0  0  2  0  0  0  0  0  0
  189.7450  176.3200  142.7900 C   0  0  0  0  0  0  0  0  0  0  0  0
  190.3640  175.2320  142.6530 O   0  0  0  0  0  0  0  0  0  0  0  0
  189.9150  177.1470  139.3260 C   0  0  0  0  0  0  0  0  0  0  0  0
  191.9760  177.2110  140.6290 C   0  0  0  0  0  3  0  0  0  0  0  0
  192.0910  176.9610  138.2350 C   0  0  0  0  0  3  0  0  0  0  0  0
  190.5800  177.2220  140.5760 C   0  0  0  0  0  0  0  0  0  0  0  0
  190.6960  176.9960  138.1470 C   0  0  0  0  0  0  0  0  0  0  0  0
  192.7300  177.0770  139.4660 C   0  0  0  0  0  3  0  0  0  0  0  0
  187.8340  178.4290  139.1900 N   0  0  0  0  0  2  0  0  0  0  0  0
  188.4380  177.2930  139.3060 C   0  0  0  0  0  3  0  0  0  0  0  0
  190.0970  176.8470  136.7850 C   0  0  0  0  0  2  0  0  0  0  0  0
  190.9280  175.8890  135.9510 C   0  0  0  0  0  1  0  0  0  0  0  0
  185.2650  179.3180  147.1150 O   0  0  0  0  0  1  0  0  0  0  0  0
  185.3950  178.8960  145.9350 C   0  0  0  0  0  0  0  0  0  0  0  0
  184.3140  178.9380  145.0650 O   0  0  0  0  0  0  0  0  0  0  0  0
  1 17  1  6  0  0  0
  1  7  1  0  0  0  0
  2  6  1  0  0  0  0
  3  5  1  0  0  0  0
  4  1  1  0  0  0  0
  4  3  1  0  0  0  0
  5 30  1  1  0  0  0
  5  6  1  0  0  0  0
  7 10  1  0  0  0  0
  7  2  1  1  0  0  0
  8 11  1  0  0  0  0
 10 12  1  1  0  0  0
 10  9  1  0  0  0  0
 11 10  1  0  0  0  0
 11  9  1  0  0  0  0
 12 13  1  0  0  0  0
 13 15  1  0  0  0  0
 15 14  1  0  0  0  0
 16 17  1  0  0  0  0
 18 17  2  0  0  0  0
 19 22  1  0  0  0  0
 21 24  2  0  0  0  0
 22 20  2  0  0  0  0
 22 16  1  0  0  0  0
 23 21  1  0  0  0  0
 23 19  2  0  0  0  0
 24 20  1  0  0  0  0
 25 26  2  0  0  0  0
 26 19  1  0  0  0  0
 27 23  1  0  0  0  0
 28 27  1  0  0  0  0
 30 29  1  0  0  0  0
 31 30  2  0  0  0  0
M  END
>  <MODEL>
1

>  <REMARK>
 VINA RESULT:      -8.2      0.000      0.000
  Name = 
  9 active torsions:
  status: ('A' for Active; 'I' for Inactive)
    1  A    between atoms: C_2  and  C_28
    2  A    between atoms: C_3  and  C_7
    3  A    between atoms: C_3  and  C_9
    4  A    between atoms: C_4  and  C_19
    5  A    between atoms: N_5  and  C_15
    6  A    between atoms: C_9  and  C_18
    7  A    between atoms: C_14  and  C_22
    8  A    between atoms: C_18  and  C_27
    9  A    between atoms: C_21  and  C_25
                            x       y       z     vdW  Elec       q    Type
                         _______ _______ _______ _____ _____    ______ ____

>  <TORSDO>
F 9

$$$$
=
 OpenBabel11032419313D

 31 33  0  0  1  0  0  0  0  0999 V2000
  188.2380  177.3410  143.1030 C   0  0  2  0  0  3  0  0  0  0  0  0
  188.6430  177.0000  145.5470 C   0  0  0  0  0  2  0  0  0  0  0  0
  186.0730  177.7320  144.3870 C   0  0  0  0  0  2  0  0  0  0  0  0
  186.8900  178.0620  143.1460 C   0  0  0  0  0  2  0  0  0  0  0  0
  186.5850  178.5580  145.5620 C   0  0  2  0  0  3  0  0  0  0  0  0
  187.6800  177.8560  146.3710 C   0  0  0  0  0  2  0  0  0  0  0  0
  189.1470  177.7160  144.2970 C   0  0  1  0  0  3  0  0  0  0  0  0
  191.0190  179.7540  143.9050 C   0  0  0  0  0  1  0  0  0  0  0  0
  191.4260  177.8460  145.0750 O   0  0  0  0  0  0  0  0  0  0  0  0
  190.6360  177.3600  144.0800 C   0  0  2  0  0  0  0  0  0  0  0  0
  191.6040  178.4210  143.8230 N   0  0  0  0  0  0  0  0  0  0  0  0
  191.0440  175.9290  143.6960 C   0  0  0  0  0  2  0  0  0  0  0  0
  192.1550  175.3410  144.5630 C   0  0  0  0  0  2  0  0  0  0  0  0
  192.6830  175.4320  146.8900 O   0  0  0  0  0  1  0  0  0  0  0  0
  191.6730  175.1030  145.9840 C   0  0  0  0  0  2  0  0  0  0  0  0
  189.1880  176.5000  140.9030 N   0  0  0  0  0  2  0  0  0  0  0  0
  188.8660  177.5940  141.7680 C   0  0  0  0  0  0  0  0  0  0  0  0
  189.0900  178.7820  141.4120 O   0  0  0  0  0  0  0  0  0  0  0  0
  189.2040  176.9450  138.4470 C   0  0  0  0  0  0  0  0  0  0  0  0
  191.2700  176.4960  139.6640 C   0  0  0  0  0  3  0  0  0  0  0  0
  191.3510  176.8740  137.2860 C   0  0  0  0  0  3  0  0  0  0  0  0
  189.8790  176.6350  139.6540 C   0  0  0  0  0  0  0  0  0  0  0  0
  189.9630  177.0450  137.2490 C   0  0  0  0  0  0  0  0  0  0  0  0
  192.0030  176.6100  138.4870 C   0  0  0  0  0  3  0  0  0  0  0  0
  187.2400  178.3950  138.6150 N   0  0  0  0  0  2  0  0  0  0  0  0
  187.7460  177.2100  138.5060 C   0  0  0  0  0  3  0  0  0  0  0  0
  189.3470  177.3080  135.9110 C   0  0  0  0  0  2  0  0  0  0  0  0
  189.2350  176.0150  135.1250 C   0  0  0  0  0  1  0  0  0  0  0  0
  184.2730  178.6250  146.1790 O   0  0  0  0  0  0  0  0  0  0  0  0
  185.4570  178.9550  146.4550 C   0  0  0  0  0  0  0  0  0  0  0  0
  185.7180  179.6940  147.6010 O   0  0  0  0  0  1  0  0  0  0  0  0
  1 17  1  6  0  0  0
  1  4  1  0  0  0  0
  1  7  1  0  0  0  0
  2  6  1  0  0  0  0
  3  5  1  0  0  0  0
  4  3  1  0  0  0  0
  5  6  1  0  0  0  0
  5 30  1  1  0  0  0
  7  2  1  1  0  0  0
 10 12  1  6  0  0  0
 10  7  1  0  0  0  0
 10  9  1  0  0  0  0
 11  8  1  0  0  0  0
 11 10  1  0  0  0  0
 11  9  1  0  0  0  0
 12 13  1  0  0  0  0
 13 15  1  0  0  0  0
 15 14  1  0  0  0  0
 16 17  1  0  0  0  0
 18 17  2  0  0  0  0
 19 26  1  0  0  0  0
 19 22  1  0  0  0  0
 21 24  2  0  0  0  0
 22 20  2  0  0  0  0
 22 16  1  0  0  0  0
 23 21  1  0  0  0  0
 23 19  2  0  0  0  0
 24 20  1  0  0  0  0
 26 25  2  0  0  0  0
 27 23  1  0  0  0  0
 28 27  1  0  0  0  0
 29 30  2  0  0  0  0
 30 31  1  0  0  0  0
M  END
>  <MODEL>
2

>  <REMARK>
 VINA RESULT:      -6.8      1.324      1.608
  Name = 
  9 active torsions:
  status: ('A' for Active; 'I' for Inactive)
    1  A    between atoms: C_2  and  C_28
    2  A    between atoms: C_3  and  C_7
    3  A    between atoms: C_3  and  C_9
    4  A    between atoms: C_4  and  C_19
    5  A    between atoms: N_5  and  C_15
    6  A    between atoms: C_9  and  C_18
    7  A    between atoms: C_14  and  C_22
    8  A    between atoms: C_18  and  C_27
    9  A    between atoms: C_21  and  C_25
                            x       y       z     vdW  Elec       q    Type
                         _______ _______ _______ _____ _____    ______ ____

>  <TORSDO>
F 9

$$$$
=
 OpenBabel11032419313D

 31 33  0  0  1  0  0  0  0  0999 V2000
  191.1810  176.2510  138.7050 C   0  0  2  0  0  3  0  0  0  0  0  0
  190.9560  175.5060  136.3290 C   0  0  0  0  0  2  0  0  0  0  0  0
  193.4950  175.8750  137.7080 C   0  0  0  0  0  2  0  0  0  0  0  0
  192.6630  176.6300  138.7350 C   0  0  0  0  0  2  0  0  0  0  0  0
  193.3260  176.5300  136.3420 C   0  0  2  0  0  3  0  0  0  0  0  0
  192.1790  175.9350  135.5170 C   0  0  0  0  0  2  0  0  0  0  0  0
  190.5190  176.5600  137.3420 C   0  0  1  0  0  3  0  0  0  0  0  0
  189.1770  178.9940  137.0470 C   0  0  0  0  0  1  0  0  0  0  0  0
  188.4340  177.0110  136.2170 O   0  0  0  0  0  0  0  0  0  0  0  0
  188.9750  176.5970  137.3950 C   0  0  2  0  0  0  0  0  0  0  0  0
  188.2770  177.8740  137.2930 N   0  0  0  0  0  0  0  0  0  0  0  0
  188.1900  175.4130  137.9800 C   0  0  0  0  0  2  0  0  0  0  0  0
  187.5960  174.4750  136.9300 C   0  0  0  0  0  2  0  0  0  0  0  0
  185.9830  173.0170  137.9160 O   0  0  0  0  0  1  0  0  0  0  0  0
  186.1260  174.2090  137.2040 C   0  0  0  0  0  2  0  0  0  0  0  0
  190.1990  176.1590  141.0460 N   0  0  0  0  0  2  0  0  0  0  0  0
  190.5030  176.9100  139.8650 C   0  0  0  0  0  0  0  0  0  0  0  0
  190.2180  178.1360  139.7920 O   0  0  0  0  0  0  0  0  0  0  0  0
  190.0420  176.8000  143.4520 C   0  0  0  0  0  0  0  0  0  0  0  0
  188.1540  177.1030  141.9370 C   0  0  0  0  0  3  0  0  0  0  0  0
  187.9210  177.7010  144.2590 C   0  0  0  0  0  3  0  0  0  0  0  0
  189.4650  176.6750  142.1630 C   0  0  0  0  0  0  0  0  0  0  0  0
  189.2380  177.3070  144.5110 C   0  0  0  0  0  0  0  0  0  0  0  0
  187.3830  177.6100  142.9780 C   0  0  0  0  0  3  0  0  0  0  0  0
  191.8880  175.3020  144.0310 N   0  0  0  0  0  2  0  0  0  0  0  0
  191.4750  176.4540  143.6170 C   0  0  0  0  0  3  0  0  0  0  0  0
  189.7250  177.4250  145.9200 C   0  0  0  0  0  2  0  0  0  0  0  0
  188.5470  177.5360  146.8710 C   0  0  0  0  0  1  0  0  0  0  0  0
  194.9620  175.4020  135.0080 O   0  0  0  0  0  0  0  0  0  0  0  0
  194.6010  176.4710  135.5690 C   0  0  0  0  0  0  0  0  0  0  0  0
  195.3950  177.6050  135.4680 O   0  0  0  0  0  1  0  0  0  0  0  0
  1  4  1  0  0  0  0
  1 17  1  1  0  0  0
  3  4  1  0  0  0  0
  5 30  1  6  0  0  0
  5  3  1  0  0  0  0
  6  2  1  0  0  0  0
  6  5  1  0  0  0  0
  7  2  1  6  0  0  0
  7 10  1  0  0  0  0
  7  1  1  0  0  0  0
  8 11  1  0  0  0  0
  9 11  1  0  0  0  0
  9 10  1  0  0  0  0
 10 12  1  1  0  0  0
 11 10  1  0  0  0  0
 13 15  1  0  0  0  0
 13 12  1  0  0  0  0
 15 14  1  0  0  0  0
 16 22  1  0  0  0  0
 17 16  1  0  0  0  0
 18 17  2  0  0  0  0
 19 26  1  0  0  0  0
 19 23  1  0  0  0  0
 20 22  1  0  0  0  0
 20 24  2  0  0  0  0
 21 23  2  0  0  0  0
 22 19  2  0  0  0  0
 23 27  1  0  0  0  0
 24 21  1  0  0  0  0
 26 25  2  0  0  0  0
 27 28  1  0  0  0  0
 29 30  2  0  0  0  0
 31 30  1  0  0  0  0
M  END
>  <MODEL>
3

>  <REMARK>
 VINA RESULT:      -6.3      3.474      9.187
  Name = 
  9 active torsions:
  status: ('A' for Active; 'I' for Inactive)
    1  A    between atoms: C_2  and  C_28
    2  A    between atoms: C_3  and  C_7
    3  A    between atoms: C_3  and  C_9
    4  A    between atoms: C_4  and  C_19
    5  A    between atoms: N_5  and  C_15
    6  A    between atoms: C_9  and  C_18
    7  A    between atoms: C_14  and  C_22
    8  A    between atoms: C_18  and  C_27
    9  A    between atoms: C_21  and  C_25
                            x       y       z     vdW  Elec       q    Type
                         _______ _______ _______ _____ _____    ______ ____

>  <TORSDO>
F 9

$$$$
=
 OpenBabel11032419313D

 31 33  0  0  1  0  0  0  0  0999 V2000
  189.2210  177.9470  141.4090 C   0  0  2  0  0  3  0  0  0  0  0  0
  191.7120  177.8140  141.5790 C   0  0  0  0  0  2  0  0  0  0  0  0
  190.2290  177.8480  139.0720 C   0  0  0  0  0  2  0  0  0  0  0  0
  189.0230  177.5410  139.9470 C   0  0  0  0  0  2  0  0  0  0  0  0
  191.2800  176.7610  139.2610 C   0  0  2  0  0  3  0  0  0  0  0  0
  192.2890  177.0740  140.3710 C   0  0  0  0  0  2  0  0  0  0  0  0
  190.4030  177.2040  142.0740 C   0  0  1  0  0  3  0  0  0  0  0  0
  191.0650  174.9230  143.5470 C   0  0  0  0  0  1  0  0  0  0  0  0
  191.6110  177.0460  144.1550 O   0  0  0  0  0  0  0  0  0  0  0  0
  190.3780  177.2540  143.6190 C   0  0  2  0  0  0  0  0  0  0  0  0
  190.6730  176.0490  144.3870 N   0  0  0  0  0  0  0  0  0  0  0  0
  189.6400  178.3880  144.3470 C   0  0  0  0  0  2  0  0  0  0  0  0
  189.5470  178.2050  145.8600 C   0  0  0  0  0  2  0  0  0  0  0  0
  187.7030  178.0710  147.3710 O   0  0  0  0  0  1  0  0  0  0  0  0
  188.2730  177.4730  146.2460 C   0  0  0  0  0  2  0  0  0  0  0  0
  186.9350  178.8080  142.1040 N   0  0  0  0  0  2  0  0  0  0  0  0
  187.9200  177.7690  142.1280 C   0  0  0  0  0  0  0  0  0  0  0  0
  187.7000  176.6900  142.7380 O   0  0  0  0  0  0  0  0  0  0  0  0
  184.4420  178.7480  142.2010 C   0  0  0  0  0  0  0  0  0  0  0  0
  185.7870  178.7140  144.2350 C   0  0  0  0  0  3  0  0  0  0  0  0
  183.3840  178.6980  144.4010 C   0  0  0  0  0  3  0  0  0  0  0  0
  185.7060  178.7720  142.8410 C   0  0  0  0  0  0  0  0  0  0  0  0
  183.2700  178.7290  143.0070 C   0  0  0  0  0  0  0  0  0  0  0  0
  184.6340  178.6810  145.0130 C   0  0  0  0  0  3  0  0  0  0  0  0
  184.6140  179.7010  139.9530 N   0  0  0  0  0  2  0  0  0  0  0  0
  184.4060  178.6810  140.7190 C   0  0  0  0  0  3  0  0  0  0  0  0
  181.8870  178.7620  142.4390 C   0  0  0  0  0  2  0  0  0  0  0  0
  180.8620  178.7220  143.5580 C   0  0  0  0  0  1  0  0  0  0  0  0
  193.2310  176.6970  137.8760 O   0  0  0  0  0  1  0  0  0  0  0  0
  191.9920  176.4890  137.9790 C   0  0  0  0  0  0  0  0  0  0  0  0
  191.2830  176.0040  136.8890 O   0  0  0  0  0  0  0  0  0  0  0  0
  1  7  1  0  0  0  0
  1 17  1  1  0  0  0
  3  5  1  0  0  0  0
  3  4  1  0  0  0  0
  4  1  1  0  0  0  0
  5 30  1  6  0  0  0
  5  6  1  0  0  0  0
  6  2  1  0  0  0  0
  7  2  1  6  0  0  0
  7 10  1  0  0  0  0
  8 11  1  0  0  0  0
  9 11  1  0  0  0  0
 10  9  1  0  0  0  0
 10 12  1  1  0  0  0
 10 11  1  0  0  0  0
 12 13  1  0  0  0  0
 13 15  1  0  0  0  0
 15 14  1  0  0  0  0
 16 17  1  0  0  0  0
 16 22  1  0  0  0  0
 17 18  2  0  0  0  0
 19 22  2  0  0  0  0
 19 23  1  0  0  0  0
 20 24  2  0  0  0  0
 21 24  1  0  0  0  0
 22 20  1  0  0  0  0
 23 21  2  0  0  0  0
 25 26  2  0  0  0  0
 26 19  1  0  0  0  0
 27 23  1  0  0  0  0
 27 28  1  0  0  0  0
 29 30  1  0  0  0  0
 31 30  2  0  0  0  0
M  END
>  <MODEL>
4

>  <REMARK>
 VINA RESULT:      -6.2      2.862      6.943
  Name = 
  9 active torsions:
  status: ('A' for Active; 'I' for Inactive)
    1  A    between atoms: C_2  and  C_28
    2  A    between atoms: C_3  and  C_7
    3  A    between atoms: C_3  and  C_9
    4  A    between atoms: C_4  and  C_19
    5  A    between atoms: N_5  and  C_15
    6  A    between atoms: C_9  and  C_18
    7  A    between atoms: C_14  and  C_22
    8  A    between atoms: C_18  and  C_27
    9  A    between atoms: C_21  and  C_25
                            x       y       z     vdW  Elec       q    Type
                         _______ _______ _______ _____ _____    ______ ____

>  <TORSDO>
F 9

$$$$
=
 OpenBabel11032419313D

 31 33  0  0  1  0  0  0  0  0999 V2000
  181.8350  179.0840  139.4630 C   0  0  2  0  0  3  0  0  0  0  0  0
  179.3580  179.3970  139.3330 C   0  0  0  0  0  2  0  0  0  0  0  0
  181.3040  181.0530  137.9360 C   0  0  0  0  0  2  0  0  0  0  0  0
  182.3110  180.4190  138.8840 C   0  0  0  0  0  2  0  0  0  0  0  0
  180.2220  181.7570  138.7460 C   0  0  2  0  0  3  0  0  0  0  0  0
  179.0190  180.8640  139.0650 C   0  0  0  0  0  2  0  0  0  0  0  0
  180.5360  179.2280  140.2890 C   0  0  1  0  0  3  0  0  0  0  0  0
  180.4520  179.6130  143.0560 C   0  0  0  0  0  1  0  0  0  0  0  0
  179.0980  178.1820  141.9190 O   0  0  0  0  0  0  0  0  0  0  0  0
  180.2580  178.0280  141.2230 C   0  0  2  0  0  0  0  0  0  0  0  0
  180.2660  178.2200  142.6690 N   0  0  0  0  0  0  0  0  0  0  0  0
  180.4070  176.5900  140.7040 C   0  0  0  0  0  2  0  0  0  0  0  0
  179.0820  175.8580  140.4970 C   0  0  0  0  0  2  0  0  0  0  0  0
  179.6200  173.7290  139.5590 O   0  0  0  0  0  1  0  0  0  0  0  0
  179.2380  174.3660  140.7410 C   0  0  0  0  0  2  0  0  0  0  0  0
  183.7140  179.2560  141.1630 N   0  0  0  0  0  2  0  0  0  0  0  0
  182.9680  178.4720  140.2260 C   0  0  0  0  0  0  0  0  0  0  0  0
  183.2420  177.2560  140.0440 O   0  0  0  0  0  0  0  0  0  0  0  0
  184.8460  178.4800  143.2470 C   0  0  0  0  0  0  0  0  0  0  0  0
  186.0450  178.5970  141.1260 C   0  0  0  0  0  3  0  0  0  0  0  0
  187.2090  177.8810  143.1100 C   0  0  0  0  0  3  0  0  0  0  0  0
  184.8740  178.7890  141.8640 C   0  0  0  0  0  0  0  0  0  0  0  0
  186.0450  178.0370  143.8700 C   0  0  0  0  0  0  0  0  0  0  0  0
  187.2080  178.1490  141.7440 C   0  0  0  0  0  3  0  0  0  0  0  0
  183.3840  179.2500  145.0520 N   0  0  0  0  0  2  0  0  0  0  0  0
  183.5500  178.5750  143.9630 C   0  0  0  0  0  3  0  0  0  0  0  0
  186.1450  177.7400  145.3320 C   0  0  0  0  0  2  0  0  0  0  0  0
  187.5950  177.5210  145.7230 C   0  0  0  0  0  1  0  0  0  0  0  0
  180.1490  183.2510  136.8770 O   0  0  0  0  0  0  0  0  0  0  0  0
  179.7720  183.0000  138.0530 C   0  0  0  0  0  0  0  0  0  0  0  0
  178.9310  183.8860  138.7110 O   0  0  0  0  0  1  0  0  0  0  0  0
  1 17  1  1  0  0  0
  1  7  1  0  0  0  0
  3  5  1  0  0  0  0
  3  4  1  0  0  0  0
  4  1  1  0  0  0  0
  5 30  1  6  0  0  0
  5  6  1  0  0  0  0
  6  2  1  0  0  0  0
  7  2  1  6  0  0  0
  7 10  1  0  0  0  0
  9 11  1  0  0  0  0
 10 12  1  6  0  0  0
 10  9  1  0  0  0  0
 10 11  1  0  0  0  0
 11  8  1  0  0  0  0
 13 12  1  0  0  0  0
 13 15  1  0  0  0  0
 14 15  1  0  0  0  0
 16 22  1  0  0  0  0
 17 16  1  0  0  0  0
 18 17  2  0  0  0  0
 19 23  1  0  0  0  0
 19 26  1  0  0  0  0
 20 24  2  0  0  0  0
 20 22  1  0  0  0  0
 21 23  2  0  0  0  0
 22 19  2  0  0  0  0
 23 27  1  0  0  0  0
 24 21  1  0  0  0  0
 26 25  2  0  0  0  0
 27 28  1  0  0  0  0
 29 30  2  0  0  0  0
 30 31  1  0  0  0  0
M  END
>  <MODEL>
5

>  <REMARK>
 VINA RESULT:      -5.9      6.810     10.161
  Name = 
  9 active torsions:
  status: ('A' for Active; 'I' for Inactive)
    1  A    between atoms: C_2  and  C_28
    2  A    between atoms: C_3  and  C_7
    3  A    between atoms: C_3  and  C_9
    4  A    between atoms: C_4  and  C_19
    5  A    between atoms: N_5  and  C_15
    6  A    between atoms: C_9  and  C_18
    7  A    between atoms: C_14  and  C_22
    8  A    between atoms: C_18  and  C_27
    9  A    between atoms: C_21  and  C_25
                            x       y       z     vdW  Elec       q    Type
                         _______ _______ _______ _____ _____    ______ ____

>  <TORSDO>
F 9

$$$$
=
 OpenBabel11032419313D

 31 33  0  0  1  0  0  0  0  0999 V2000
  182.8630  179.4530  139.2130 C   0  0  2  0  0  3  0  0  0  0  0  0
  182.3910  178.7030  136.8750 C   0  0  0  0  0  2  0  0  0  0  0  0
  181.4420  181.2040  138.0280 C   0  0  0  0  0  2  0  0  0  0  0  0
  181.8290  180.5720  139.3570 C   0  0  0  0  0  2  0  0  0  0  0  0
  180.4250  180.3150  137.3230 C   0  0  2  0  0  3  0  0  0  0  0  0
  181.0610  179.2810  136.3880 C   0  0  0  0  0  2  0  0  0  0  0  0
  182.3510  178.2830  138.3420 C   0  0  1  0  0  3  0  0  0  0  0  0
  181.1000  175.9900  139.3370 C   0  0  0  0  0  1  0  0  0  0  0  0
  182.6960  175.9790  137.7160 O   0  0  0  0  0  0  0  0  0  0  0  0
  183.1620  176.9780  138.5130 C   0  0  2  0  0  0  0  0  0  0  0  0
  182.5230  175.7970  139.0820 N   0  0  0  0  0  0  0  0  0  0  0  0
  184.6980  177.0150  138.5160 C   0  0  0  0  0  2  0  0  0  0  0  0
  185.3330  176.8020  137.1430 C   0  0  0  0  0  2  0  0  0  0  0  0
  186.2560  178.9060  137.7920 O   0  0  0  0  0  1  0  0  0  0  0  0
  186.3270  177.9050  136.8230 C   0  0  0  0  0  2  0  0  0  0  0  0
  184.6140  179.3570  141.0500 N   0  0  0  0  0  2  0  0  0  0  0  0
  183.2990  179.0360  140.5830 C   0  0  0  0  0  0  0  0  0  0  0  0
  182.4890  178.4150  141.3200 O   0  0  0  0  0  0  0  0  0  0  0  0
  186.4050  178.2540  142.3920 C   0  0  0  0  0  0  0  0  0  0  0  0
  184.4270  179.1990  143.4600 C   0  0  0  0  0  3  0  0  0  0  0  0
  186.0980  178.1080  144.8100 C   0  0  0  0  0  3  0  0  0  0  0  0
  185.1550  178.9150  142.3020 C   0  0  0  0  0  0  0  0  0  0  0  0
  186.8630  177.8340  143.6720 C   0  0  0  0  0  0  0  0  0  0  0  0
  184.8920  178.7950  144.7080 C   0  0  0  0  0  3  0  0  0  0  0  0
  188.1690  178.8770  140.8150 N   0  0  0  0  0  2  0  0  0  0  0  0
  187.2040  178.0880  141.1530 C   0  0  0  0  0  3  0  0  0  0  0  0
  188.1360  177.0760  143.8760 C   0  0  0  0  0  2  0  0  0  0  0  0
  189.0960  177.8880  144.7270 C   0  0  0  0  0  1  0  0  0  0  0  0
  178.9320  180.7250  135.4980 O   0  0  0  0  0  0  0  0  0  0  0  0
  179.4320  181.1420  136.5770 C   0  0  0  0  0  0  0  0  0  0  0  0
  179.0570  182.3810  137.0770 O   0  0  0  0  0  1  0  0  0  0  0  0
  1  4  1  0  0  0  0
  1 17  1  1  0  0  0
  3  4  1  0  0  0  0
  5 30  1  6  0  0  0
  5  3  1  0  0  0  0
  6  2  1  0  0  0  0
  6  5  1  0  0  0  0
  7  2  1  6  0  0  0
  7 10  1  0  0  0  0
  7  1  1  0  0  0  0
  9 10  1  0  0  0  0
  9 11  1  0  0  0  0
 10 12  1  1  0  0  0
 10 11  1  0  0  0  0
 11  8  1  0  0  0  0
 13 12  1  0  0  0  0
 15 13  1  0  0  0  0
 15 14  1  0  0  0  0
 16 22  1  0  0  0  0
 17 16  1  0  0  0  0
 17 18  2  0  0  0  0
 19 23  1  0  0  0  0
 20 24  2  0  0  0  0
 22 19  2  0  0  0  0
 22 20  1  0  0  0  0
 23 27  1  0  0  0  0
 23 21  2  0  0  0  0
 24 21  1  0  0  0  0
 25 26  2  0  0  0  0
 26 19  1  0  0  0  0
 27 28  1  0  0  0  0
 29 30  2  0  0  0  0
 30 31  1  0  0  0  0
M  END
>  <MODEL>
6

>  <REMARK>
 VINA RESULT:      -5.8      5.933      9.613
  Name = 
  9 active torsions:
  status: ('A' for Active; 'I' for Inactive)
    1  A    between atoms: C_2  and  C_28
    2  A    between atoms: C_3  and  C_7
    3  A    between atoms: C_3  and  C_9
    4  A    between atoms: C_4  and  C_19
    5  A    between atoms: N_5  and  C_15
    6  A    between atoms: C_9  and  C_18
    7  A    between atoms: C_14  and  C_22
    8  A    between atoms: C_18  and  C_27
    9  A    between atoms: C_21  and  C_25
                            x       y       z     vdW  Elec       q    Type
                         _______ _______ _______ _____ _____    ______ ____

>  <TORSDO>
F 9

$$$$
=
 OpenBabel11032419313D

 31 33  0  0  1  0  0  0  0  0999 V2000
  187.5980  177.6770  142.8080 C   0  0  2  0  0  3  0  0  0  0  0  0
  188.3810  176.9450  145.0670 C   0  0  0  0  0  2  0  0  0  0  0  0
  185.7130  177.9630  144.4960 C   0  0  0  0  0  2  0  0  0  0  0  0
  186.3310  178.4430  143.1910 C   0  0  0  0  0  2  0  0  0  0  0  0
  186.4710  178.5730  145.6690 C   0  0  2  0  0  3  0  0  0  0  0  0
  187.6330  177.7060  146.1630 C   0  0  0  0  0  2  0  0  0  0  0  0
  188.7190  177.8220  143.8640 C   0  0  1  0  0  3  0  0  0  0  0  0
  190.8010  179.6830  143.9760 C   0  0  0  0  0  1  0  0  0  0  0  0
  191.0560  177.4500  144.3270 O   0  0  0  0  0  0  0  0  0  0  0  0
  190.1210  177.4380  143.3390 C   0  0  2  0  0  0  0  0  0  0  0  0
  191.1940  178.4260  143.3490 N   0  0  0  0  0  0  0  0  0  0  0  0
  190.2980  176.2180  142.4220 C   0  0  0  0  0  2  0  0  0  0  0  0
  190.8770  176.5470  141.0470 C   0  0  0  0  0  2  0  0  0  0  0  0
  192.7090  177.7930  140.1590 O   0  0  0  0  0  1  0  0  0  0  0  0
  192.3600  176.8630  141.1380 C   0  0  0  0  0  2  0  0  0  0  0  0
  187.6460  177.3190  140.2940 N   0  0  0  0  0  2  0  0  0  0  0  0
  188.0090  178.1050  141.4340 C   0  0  0  0  0  0  0  0  0  0  0  0
  188.6640  179.1720  141.2950 O   0  0  0  0  0  0  0  0  0  0  0  0
  187.1660  177.9300  137.9230 C   0  0  0  0  0  0  0  0  0  0  0  0
  189.4490  177.5610  138.6950 C   0  0  0  0  0  3  0  0  0  0  0  0
  189.0520  178.1050  136.3820 C   0  0  0  0  0  3  0  0  0  0  0  0
  188.0770  177.5920  138.9540 C   0  0  0  0  0  0  0  0  0  0  0  0
  187.6750  178.1710  136.6160 C   0  0  0  0  0  0  0  0  0  0  0  0
  189.9370  177.8120  137.4160 C   0  0  0  0  0  3  0  0  0  0  0  0
  185.2160  179.1710  138.7290 N   0  0  0  0  0  2  0  0  0  0  0  0
  185.7310  178.0770  138.2720 C   0  0  0  0  0  3  0  0  0  0  0  0
  186.8000  178.4750  135.4420 C   0  0  0  0  0  2  0  0  0  0  0  0
  186.5090  177.2050  134.6640 C   0  0  0  0  0  1  0  0  0  0  0  0
  184.4560  178.2480  146.9190 O   0  0  0  0  0  0  0  0  0  0  0  0
  185.5400  178.8770  146.7950 C   0  0  0  0  0  0  0  0  0  0  0  0
  185.8740  179.8630  147.7140 O   0  0  0  0  0  1  0  0  0  0  0  0
  1 17  1  6  0  0  0
  1  4  1  0  0  0  0
  1  7  1  0  0  0  0
  2  6  1  0  0  0  0
  3  5  1  0  0  0  0
  4  3  1  0  0  0  0
  5  6  1  0  0  0  0
  5 30  1  1  0  0  0
  7  2  1  1  0  0  0
 10 12  1  6  0  0  0
 10 11  1  0  0  0  0
 10  7  1  0  0  0  0
 10  9  1  0  0  0  0
 11  8  1  0  0  0  0
 11  9  1  0  0  0  0
 13 15  1  0  0  0  0
 13 12  1  0  0  0  0
 14 15  1  0  0  0  0
 16 17  1  0  0  0  0
 18 17  2  0  0  0  0
 19 26  1  0  0  0  0
 19 22  1  0  0  0  0
 20 22  2  0  0  0  0
 21 23  1  0  0  0  0
 21 24  2  0  0  0  0
 22 16  1  0  0  0  0
 23 19  2  0  0  0  0
 24 20  1  0  0  0  0
 26 25  2  0  0  0  0
 27 23  1  0  0  0  0
 28 27  1  0  0  0  0
 30 29  2  0  0  0  0
 30 31  1  0  0  0  0
M  END
>  <MODEL>
7

>  <REMARK>
 VINA RESULT:      -5.6      2.119      3.446
  Name = 
  9 active torsions:
  status: ('A' for Active; 'I' for Inactive)
    1  A    between atoms: C_2  and  C_28
    2  A    between atoms: C_3  and  C_7
    3  A    between atoms: C_3  and  C_9
    4  A    between atoms: C_4  and  C_19
    5  A    between atoms: N_5  and  C_15
    6  A    between atoms: C_9  and  C_18
    7  A    between atoms: C_14  and  C_22
    8  A    between atoms: C_18  and  C_27
    9  A    between atoms: C_21  and  C_25
                            x       y       z     vdW  Elec       q    Type
                         _______ _______ _______ _____ _____    ______ ____

>  <TORSDO>
F 9

$$$$
=
 OpenBabel11032419313D

 31 33  0  0  1  0  0  0  0  0999 V2000
  188.9330  178.2410  140.5740 C   0  0  2  0  0  3  0  0  0  0  0  0
  191.0060  177.0080  139.9150 C   0  0  0  0  0  2  0  0  0  0  0  0
  188.8940  177.7880  138.0670 C   0  0  0  0  0  2  0  0  0  0  0  0
  188.0730  178.0190  139.3280 C   0  0  0  0  0  2  0  0  0  0  0  0
  189.3700  176.3410  138.0320 C   0  0  2  0  0  3  0  0  0  0  0  0
  190.7380  176.1320  138.6900 C   0  0  0  0  0  2  0  0  0  0  0  0
  189.8350  177.0270  140.8940 C   0  0  1  0  0  3  0  0  0  0  0  0
  188.6220  175.4340  142.8440 C   0  0  0  0  0  1  0  0  0  0  0  0
  190.8620  175.8040  142.7020 O   0  0  0  0  0  0  0  0  0  0  0  0
  190.3870  177.0260  142.3380 C   0  0  2  0  0  0  0  0  0  0  0  0
  189.7220  176.2350  143.3670 N   0  0  0  0  0  0  0  0  0  0  0  0
  191.3240  178.1490  142.8110 C   0  0  0  0  0  2  0  0  0  0  0  0
  190.9960  178.6960  144.1980 C   0  0  0  0  0  2  0  0  0  0  0  0
  190.7250  177.3760  146.1690 O   0  0  0  0  0  1  0  0  0  0  0  0
  191.6780  177.8810  145.2830 C   0  0  0  0  0  2  0  0  0  0  0  0
  186.9250  177.8040  142.0660 N   0  0  0  0  0  2  0  0  0  0  0  0
  188.0330  178.6350  141.7030 C   0  0  0  0  0  0  0  0  0  0  0  0
  188.2740  179.6970  142.3360 O   0  0  0  0  0  0  0  0  0  0  0  0
  184.6350  178.5470  142.7240 C   0  0  0  0  0  0  0  0  0  0  0  0
  186.3280  178.0270  144.4020 C   0  0  0  0  0  3  0  0  0  0  0  0
  184.1500  178.7810  145.1060 C   0  0  0  0  0  3  0  0  0  0  0  0
  185.9520  178.1460  143.0620 C   0  0  0  0  0  0  0  0  0  0  0  0
  183.7370  178.8840  143.7740 C   0  0  0  0  0  0  0  0  0  0  0  0
  185.4340  178.3460  145.4210 C   0  0  0  0  0  3  0  0  0  0  0  0
  184.6750  179.3900  140.4270 N   0  0  0  0  0  2  0  0  0  0  0  0
  184.2420  178.5350  141.2940 C   0  0  0  0  0  3  0  0  0  0  0  0
  182.3450  179.3760  143.5310 C   0  0  0  0  0  2  0  0  0  0  0  0
  181.3370  178.3290  143.9690 C   0  0  0  0  0  1  0  0  0  0  0  0
  188.3380  175.3790  136.1000 O   0  0  0  0  0  1  0  0  0  0  0  0
  189.3880  175.8270  136.6320 C   0  0  0  0  0  0  0  0  0  0  0  0
  190.5730  175.8440  135.9090 O   0  0  0  0  0  0  0  0  0  0  0  0
  1  7  1  0  0  0  0
  1 17  1  1  0  0  0
  3  4  1  0  0  0  0
  4  1  1  0  0  0  0
  5 30  1  6  0  0  0
  5  3  1  0  0  0  0
  5  6  1  0  0  0  0
  6  2  1  0  0  0  0
  7  2  1  6  0  0  0
  7 10  1  0  0  0  0
  8 11  1  0  0  0  0
  9 11  1  0  0  0  0
 10  9  1  0  0  0  0
 10 12  1  1  0  0  0
 10 11  1  0  0  0  0
 12 13  1  0  0  0  0
 13 15  1  0  0  0  0
 15 14  1  0  0  0  0
 16 22  1  0  0  0  0
 17 16  1  0  0  0  0
 17 18  2  0  0  0  0
 19 22  2  0  0  0  0
 19 23  1  0  0  0  0
 20 24  2  0  0  0  0
 21 24  1  0  0  0  0
 22 20  1  0  0  0  0
 23 21  2  0  0  0  0
 25 26  2  0  0  0  0
 26 19  1  0  0  0  0
 27 23  1  0  0  0  0
 27 28  1  0  0  0  0
 29 30  1  0  0  0  0
 31 30  2  0  0  0  0
M  END
>  <MODEL>
8

>  <REMARK>
 VINA RESULT:      -5.5      2.827      7.082
  Name = 
  9 active torsions:
  status: ('A' for Active; 'I' for Inactive)
    1  A    between atoms: C_2  and  C_28
    2  A    between atoms: C_3  and  C_7
    3  A    between atoms: C_3  and  C_9
    4  A    between atoms: C_4  and  C_19
    5  A    between atoms: N_5  and  C_15
    6  A    between atoms: C_9  and  C_18
    7  A    between atoms: C_14  and  C_22
    8  A    between atoms: C_18  and  C_27
    9  A    between atoms: C_21  and  C_25
                            x       y       z     vdW  Elec       q    Type
                         _______ _______ _______ _____ _____    ______ ____

>  <TORSDO>
F 9

$$$$
=
 OpenBabel11032419313D

 31 33  0  0  1  0  0  0  0  0999 V2000
  188.0100  176.8310  138.2590 C   0  0  2  0  0  3  0  0  0  0  0  0
  190.0010  175.4110  137.7430 C   0  0  0  0  0  2  0  0  0  0  0  0
  189.7380  177.0820  140.1130 C   0  0  0  0  0  2  0  0  0  0  0  0
  188.5890  177.7300  139.3540 C   0  0  0  0  0  2  0  0  0  0  0  0
  191.0180  177.2050  139.2950 C   0  0  2  0  0  3  0  0  0  0  0  0
  191.2630  176.0160  138.3610 C   0  0  0  0  0  2  0  0  0  0  0  0
  189.0550  176.4670  137.1790 C   0  0  1  0  0  3  0  0  0  0  0  0
  189.4400  177.8700  134.7930 C   0  0  0  0  0  1  0  0  0  0  0  0
  189.3830  175.6010  134.9520 O   0  0  0  0  0  0  0  0  0  0  0  0
  188.4330  175.9360  135.8670 C   0  0  2  0  0  0  0  0  0  0  0  0
  188.5900  176.6960  134.6320 N   0  0  0  0  0  0  0  0  0  0  0  0
  187.3100  174.8880  135.9090 C   0  0  0  0  0  2  0  0  0  0  0  0
  187.8000  173.4420  135.8800 C   0  0  0  0  0  2  0  0  0  0  0  0
  186.1440  173.3700  137.5970 O   0  0  0  0  0  1  0  0  0  0  0  0
  187.1340  172.6160  136.9670 C   0  0  0  0  0  2  0  0  0  0  0  0
  185.5030  176.8660  137.8530 N   0  0  0  0  0  2  0  0  0  0  0  0
  186.7830  177.4910  137.7090 C   0  0  0  0  0  0  0  0  0  0  0  0
  186.8930  178.6060  137.1350 O   0  0  0  0  0  0  0  0  0  0  0  0
  183.4270  178.2450  137.9780 C   0  0  0  0  0  0  0  0  0  0  0  0
  183.9990  177.0020  135.9590 C   0  0  0  0  0  3  0  0  0  0  0  0
  181.9570  178.2790  136.0280 C   0  0  0  0  0  3  0  0  0  0  0  0
  184.2910  177.3690  137.2760 C   0  0  0  0  0  0  0  0  0  0  0  0
  182.2350  178.6850  137.3370 C   0  0  0  0  0  0  0  0  0  0  0  0
  182.8370  177.4500  135.3380 C   0  0  0  0  0  3  0  0  0  0  0  0
  184.5790  179.7520  139.5250 N   0  0  0  0  0  2  0  0  0  0  0  0
  183.8400  178.7100  139.3250 C   0  0  0  0  0  3  0  0  0  0  0  0
  181.2240  179.5610  138.0060 C   0  0  0  0  0  2  0  0  0  0  0  0
  180.7910  180.6700  137.0640 C   0  0  0  0  0  1  0  0  0  0  0  0
  193.3580  177.4910  139.7090 O   0  0  0  0  0  0  0  0  0  0  0  0
  192.1950  177.4100  140.1880 C   0  0  0  0  0  0  0  0  0  0  0  0
  192.0070  177.5130  141.5590 O   0  0  0  0  0  1  0  0  0  0  0  0
  1 17  1  6  0  0  0
  1  4  1  0  0  0  0
  2  6  1  0  0  0  0
  4  3  1  0  0  0  0
  5  3  1  0  0  0  0
  5 30  1  1  0  0  0
  6  5  1  0  0  0  0
  7  2  1  1  0  0  0
  7  1  1  0  0  0  0
  9 10  1  0  0  0  0
 10 12  1  1  0  0  0
 10  7  1  0  0  0  0
 11  8  1  0  0  0  0
 11  9  1  0  0  0  0
 11 10  1  0  0  0  0
 13 12  1  0  0  0  0
 13 15  1  0  0  0  0
 15 14  1  0  0  0  0
 17 16  1  0  0  0  0
 18 17  2  0  0  0  0
 19 26  1  0  0  0  0
 20 22  1  0  0  0  0
 21 23  2  0  0  0  0
 22 16  1  0  0  0  0
 22 19  2  0  0  0  0
 23 19  1  0  0  0  0
 23 27  1  0  0  0  0
 24 20  2  0  0  0  0
 24 21  1  0  0  0  0
 26 25  2  0  0  0  0
 28 27  1  0  0  0  0
 29 30  2  0  0  0  0
 30 31  1  0  0  0  0
M  END
>  <MODEL>
9

>  <REMARK>
 VINA RESULT:      -5.3      5.181      9.044
  Name = 
  9 active torsions:
  status: ('A' for Active; 'I' for Inactive)
    1  A    between atoms: C_2  and  C_28
    2  A    between atoms: C_3  and  C_7
    3  A    between atoms: C_3  and  C_9
    4  A    between atoms: C_4  and  C_19
    5  A    between atoms: N_5  and  C_15
    6  A    between atoms: C_9  and  C_18
    7  A    between atoms: C_14  and  C_22
    8  A    between atoms: C_18  and  C_27
    9  A    between atoms: C_21  and  C_25
                            x       y       z     vdW  Elec       q    Type
                         _______ _______ _______ _____ _____    ______ ____

>  <TORSDO>
F 9

$$$$
