=
 OpenBabel11042413243D

 50 53  0  0  1  0  0  0  0  0999 V2000
  188.8940  177.9560  141.7330 C   0  0  1  0  0  3  0  0  0  0  0  0
  190.1040  177.0200  141.6630 C   0  0  0  0  0  2  0  0  0  0  0  0
  191.1640  177.4170  142.6830 C   0  0  0  0  0  2  0  0  0  0  0  0
  190.9900  176.6600  143.9140 N   0  0  0  0  0  2  0  0  0  0  0  0
  191.8510  178.3260  145.3060 O   0  0  0  0  0  0  0  0  0  0  0  0
  191.3020  177.1970  145.2020 C   0  0  0  0  0  0  0  0  0  0  0  0
  190.9360  176.4390  146.4420 C   0  0  2  0  0  3  0  0  0  0  0  0
  188.8830  177.4890  147.4860 C   0  0  0  0  0  0  0  0  0  0  0  0
  188.3020  178.4480  148.4610 C   0  0  0  0  0  1  0  0  0  0  0  0
  188.1170  176.8370  146.7250 O   0  0  0  0  0  0  0  0  0  0  0  0
  190.3000  177.3160  147.4200 N   0  0  0  0  0  2  0  0  0  0  0  0
  192.6620  176.2410  148.2480 O   0  0  0  0  0  1  0  0  0  0  0  0
  192.1420  175.7930  147.0410 C   0  0  0  0  0  0  0  0  0  0  0  0
  192.6890  174.8280  146.4510 O   0  0  0  0  0  0  0  0  0  0  0  0
  188.6950  178.7050  140.5310 O   0  0  0  0  0  0  0  0  0  0  0  0
  187.0640  178.5300  138.8170 N   0  0  0  0  0  0  0  0  0  0  0  0
  185.2580  176.9310  137.5920 S   0  0  0  0  0  0  0  0  0  0  0  0
  188.9630  177.1780  138.5380 C   0  0  0  0  0  2  0  0  0  0  0  0
  188.2070  178.1890  139.3240 C   0  0  0  0  0  0  0  0  0  0  0  0
  187.9910  175.8380  136.6410 C   0  0  0  0  0  0  0  0  0  0  0  0
  186.8300  177.8480  137.5570 C   0  0  2  0  0  3  0  0  0  0  0  0
  186.8260  175.5890  135.7650 C   0  0  0  0  0  3  0  0  0  0  0  0
  185.6110  176.0820  136.0400 C   0  0  0  0  0  3  0  0  0  0  0  0
  187.9640  176.8830  137.4780 C   0  0  0  0  0  0  0  0  0  0  0  0
  190.3960  176.1350  134.9670 O   0  0  0  0  0  0  0  0  0  0  0  0
  189.1560  174.9960  136.6050 N   0  0  0  0  0  2  0  0  0  0  0  0
  190.3160  175.1720  135.7780 C   0  0  0  0  0  0  0  0  0  0  0  0
  191.2200  172.9960  135.6220 O   0  0  0  0  0  0  0  0  0  0  0  0
  191.4210  174.2160  135.8750 C   0  0  0  0  0  0  0  0  0  0  0  0
  192.6950  174.6620  136.2410 O   0  0  0  0  0  0  0  0  0  0  0  0
  193.4190  174.0700  137.3140 C   0  0  1  0  0  3  0  0  0  0  0  0
  194.8530  174.5520  137.2880 C   0  0  1  0  0  3  0  0  0  0  0  0
  193.8970  175.1150  138.3200 C   0  0  1  0  0  3  0  0  0  0  0  0
  195.7480  173.5240  137.9440 C   0  0  0  0  0  2  0  0  0  0  0  0
  195.9570  173.8690  139.2850 O   0  0  0  0  0  1  0  0  0  0  0  0
  193.5040  176.4030  137.9470 O   0  0  0  0  0  0  0  0  0  0  0  0
  193.1460  177.0260  139.1450 C   0  0  0  0  0  2  0  0  0  0  0  0
  194.2120  176.9620  140.0380 O   0  0  0  0  0  1  0  0  0  0  0  0
  187.6070  177.3050  142.2480 C   0  0  0  0  0  2  0  0  0  0  0  0
  187.1630  177.8400  143.6000 C   0  0  0  0  0  2  0  0  0  0  0  0
  185.0880  178.2360  142.3760 C   0  0  0  0  0  3  0  0  0  0  0  0
  185.7190  178.2050  143.5550 C   0  0  0  0  0  0  0  0  0  0  0  0
  182.9410  178.9840  143.5130 C   0  0  0  0  0  0  0  0  0  0  0  0
  184.9990  178.4640  144.8590 C   0  0  0  0  0  2  0  0  0  0  0  0
  183.6670  178.5950  142.2940 C   0  0  0  0  0  0  0  0  0  0  0  0
  183.5720  178.9390  144.6960 C   0  0  0  0  0  3  0  0  0  0  0  0
  183.0840  178.5900  141.1790 O   0  0  0  0  0  0  0  0  0  0  0  0
  181.6050  179.3960  143.4090 O   0  0  0  0  0  0  0  0  0  0  0  0
  179.3990  179.0540  144.3220 C   0  0  0  0  0  1  0  0  0  0  0  0
  180.5040  178.4930  143.4450 C   0  0  0  0  0  2  0  0  0  0  0  0
  1  2  1  6  0  0  0
  1 39  1  0  0  0  0
  2  3  1  0  0  0  0
  3  4  1  0  0  0  0
  4  6  1  0  0  0  0
  6  5  2  0  0  0  0
  7  6  1  6  0  0  0
  7 13  1  0  0  0  0
  7 11  1  0  0  0  0
  8  9  1  0  0  0  0
 10  8  2  0  0  0  0
 11  8  1  0  0  0  0
 13 12  1  0  0  0  0
 14 13  2  0  0  0  0
 15  1  1  0  0  0  0
 16 19  2  0  0  0  0
 18 19  1  0  0  0  0
 19 15  1  0  0  0  0
 20 24  2  0  0  0  0
 21 24  1  1  0  0  0
 21 17  1  0  0  0  0
 21 16  1  0  0  0  0
 22 23  2  0  0  0  0
 22 20  1  0  0  0  0
 23 17  1  0  0  0  0
 24 18  1  0  0  0  0
 25 27  2  0  0  0  0
 26 20  1  0  0  0  0
 27 29  1  0  0  0  0
 27 26  1  0  0  0  0
 28 29  2  0  0  0  0
 29 30  1  0  0  0  0
 31 30  1  6  0  0  0
 31 33  1  0  0  0  0
 32 31  1  0  0  0  0
 32 34  1  1  0  0  0
 32 33  1  0  0  0  0
 33 36  1  6  0  0  0
 34 35  1  0  0  0  0
 36 37  1  0  0  0  0
 37 38  1  0  0  0  0
 39 40  1  0  0  0  0
 41 42  2  0  0  0  0
 42 40  1  0  0  0  0
 42 44  1  0  0  0  0
 43 46  2  0  0  0  0
 45 41  1  0  0  0  0
 45 43  1  0  0  0  0
 46 44  1  0  0  0  0
 47 45  2  0  0  0  0
 48 50  1  0  0  0  0
 48 43  1  0  0  0  0
 50 49  1  0  0  0  0
M  END
>  <MODEL>
1

>  <REMARK>
 VINA RESULT:      -7.8      0.000      0.000
  Name = 
  20 active torsions:
  status: ('A' for Active; 'I' for Inactive)
    1  A    between atoms: C_2  and  C_7
    2  A    between atoms: C_2  and  O_8
    3  A    between atoms: C_2  and  C_35
    4  A    between atoms: N_3  and  C_18
    5  A    between atoms: O_4  and  C_9
    6  A    between atoms: O_4  and  C_40
    7  A    between atoms: C_6  and  C_7
    8  A    between atoms: C_6  and  C_15
    9  A    between atoms: O_8  and  C_23
   10  A    between atoms: C_11  and  C_36
   11  A    between atoms: C_18  and  C_35
   12  A    between atoms: C_22  and  CA_50
   13  A    between atoms: C_25  and  CA_50
   14  A    between atoms: N_26  and  C_28
   15  A    between atoms: C_30  and  C_37
   16  A    between atoms: C_30  and  O_48
   17  A    between atoms: C_33  and  O_48
   18  A    between atoms: O_38  and  C_39
   19  A    between atoms: O_38  and  C_42
   20  A    between atoms: N_47  and  CA_50
                            x       y       z     vdW  Elec       q    Type
                         _______ _______ _______ _____ _____    ______ ____

>  <TORSDO>
F 20

$$$$
=
 OpenBabel11042413243D

 50 53  0  0  1  0  0  0  0  0999 V2000
  188.9000  178.3540  140.6720 C   0  0  1  0  0  3  0  0  0  0  0  0
  189.5670  177.0230  141.0300 C   0  0  0  0  0  2  0  0  0  0  0  0
  190.7570  177.2380  141.9560 C   0  0  0  0  0  2  0  0  0  0  0  0
  190.4750  176.6930  143.2770 N   0  0  0  0  0  2  0  0  0  0  0  0
  191.7150  178.2990  144.4330 O   0  0  0  0  0  0  0  0  0  0  0  0
  190.9400  177.3080  144.4810 C   0  0  0  0  0  0  0  0  0  0  0  0
  190.4710  176.8040  145.8130 C   0  0  2  0  0  3  0  0  0  0  0  0
  188.6540  177.4870  147.4380 C   0  0  0  0  0  0  0  0  0  0  0  0
  187.8460  178.5680  148.0600 C   0  0  0  0  0  1  0  0  0  0  0  0
  188.4210  176.2850  147.7390 O   0  0  0  0  0  0  0  0  0  0  0  0
  189.6850  177.8200  146.5060 N   0  0  0  0  0  2  0  0  0  0  0  0
  191.9530  177.0850  147.8130 O   0  0  0  0  0  1  0  0  0  0  0  0
  191.6290  176.3860  146.6570 C   0  0  0  0  0  0  0  0  0  0  0  0
  192.3150  175.3870  146.3240 O   0  0  0  0  0  0  0  0  0  0  0  0
  189.0730  178.7140  139.2980 O   0  0  0  0  0  0  0  0  0  0  0  0
  187.1380  178.4470  137.9510 N   0  0  0  0  0  0  0  0  0  0  0  0
  185.1910  176.7600  137.1280 S   0  0  0  0  0  0  0  0  0  0  0  0
  188.9970  177.1670  137.3040 C   0  0  0  0  0  2  0  0  0  0  0  0
  188.3730  178.1610  138.2190 C   0  0  0  0  0  0  0  0  0  0  0  0
  187.7200  175.7600  135.6530 C   0  0  0  0  0  0  0  0  0  0  0  0
  186.6840  177.7370  136.7690 C   0  0  2  0  0  3  0  0  0  0  0  0
  186.4130  175.4510  135.0320 C   0  0  0  0  0  3  0  0  0  0  0  0
  185.2590  175.9010  135.5430 C   0  0  0  0  0  3  0  0  0  0  0  0
  187.8180  176.8170  136.4700 C   0  0  0  0  0  0  0  0  0  0  0  0
  188.5020  173.2100  136.9040 O   0  0  0  0  0  0  0  0  0  0  0  0
  188.8870  174.9650  135.3890 N   0  0  0  0  0  2  0  0  0  0  0  0
  189.2370  173.7210  136.0150 C   0  0  0  0  0  0  0  0  0  0  0  0
  190.4660  172.2620  134.6210 O   0  0  0  0  0  0  0  0  0  0  0  0
  190.4710  173.0370  135.6180 C   0  0  0  0  0  0  0  0  0  0  0  0
  191.6470  173.2510  136.3420 O   0  0  0  0  0  0  0  0  0  0  0  0
  192.3080  174.5120  136.3450 C   0  0  1  0  0  3  0  0  0  0  0  0
  192.5690  174.9460  137.7710 C   0  0  1  0  0  3  0  0  0  0  0  0
  193.7140  174.4140  136.9340 C   0  0  1  0  0  3  0  0  0  0  0  0
  192.6560  176.4550  137.8360 C   0  0  0  0  0  2  0  0  0  0  0  0
  193.5910  176.8320  138.8080 O   0  0  0  0  0  1  0  0  0  0  0  0
  194.0170  173.1070  137.3240 O   0  0  0  0  0  0  0  0  0  0  0  0
  195.3690  172.9460  137.0110 C   0  0  0  0  0  2  0  0  0  0  0  0
  195.7460  173.9090  136.0780 O   0  0  0  0  0  1  0  0  0  0  0  0
  187.4510  178.4960  141.1460 C   0  0  0  0  0  2  0  0  0  0  0  0
  187.1980  177.8570  142.5020 C   0  0  0  0  0  2  0  0  0  0  0  0
  185.6280  178.3870  144.2950 C   0  0  0  0  0  3  0  0  0  0  0  0
  185.8330  178.2080  142.9850 C   0  0  0  0  0  0  0  0  0  0  0  0
  183.1590  178.8190  143.8780 C   0  0  0  0  0  0  0  0  0  0  0  0
  184.7370  178.4150  141.9650 C   0  0  0  0  0  2  0  0  0  0  0  0
  184.2960  178.7290  144.8070 C   0  0  0  0  0  0  0  0  0  0  0  0
  183.3690  178.6520  142.5640 C   0  0  0  0  0  3  0  0  0  0  0  0
  184.1300  178.9220  146.0390 O   0  0  0  0  0  0  0  0  0  0  0  0
  181.8780  179.0730  144.3910 O   0  0  0  0  0  0  0  0  0  0  0  0
  179.7630  177.9800  144.0050 C   0  0  0  0  0  1  0  0  0  0  0  0
  180.7050  179.0940  143.5850 C   0  0  0  0  0  2  0  0  0  0  0  0
  1  2  1  6  0  0  0
  1 39  1  0  0  0  0
  2  3  1  0  0  0  0
  3  4  1  0  0  0  0
  4  6  1  0  0  0  0
  5  6  2  0  0  0  0
  7  6  1  6  0  0  0
  7 11  1  0  0  0  0
  7 13  1  0  0  0  0
  8 10  2  0  0  0  0
  8  9  1  0  0  0  0
 11  8  1  0  0  0  0
 13 12  1  0  0  0  0
 14 13  2  0  0  0  0
 15  1  1  0  0  0  0
 16 19  2  0  0  0  0
 18 19  1  0  0  0  0
 19 15  1  0  0  0  0
 20 24  2  0  0  0  0
 21 24  1  1  0  0  0
 21 17  1  0  0  0  0
 21 16  1  0  0  0  0
 22 23  2  0  0  0  0
 22 20  1  0  0  0  0
 23 17  1  0  0  0  0
 24 18  1  0  0  0  0
 26 20  1  0  0  0  0
 26 27  1  0  0  0  0
 27 25  2  0  0  0  0
 28 29  2  0  0  0  0
 29 27  1  0  0  0  0
 29 30  1  0  0  0  0
 31 30  1  1  0  0  0
 31 33  1  0  0  0  0
 31 32  1  0  0  0  0
 32 34  1  6  0  0  0
 33 36  1  1  0  0  0
 33 32  1  0  0  0  0
 34 35  1  0  0  0  0
 37 36  1  0  0  0  0
 38 37  1  0  0  0  0
 39 40  1  0  0  0  0
 40 42  1  0  0  0  0
 41 45  1  0  0  0  0
 42 41  2  0  0  0  0
 43 48  1  0  0  0  0
 43 45  1  0  0  0  0
 44 46  1  0  0  0  0
 44 42  1  0  0  0  0
 45 47  2  0  0  0  0
 46 43  2  0  0  0  0
 50 49  1  0  0  0  0
 50 48  1  0  0  0  0
M  END
>  <MODEL>
2

>  <REMARK>
 VINA RESULT:      -7.6      1.293      2.066
  Name = 
  20 active torsions:
  status: ('A' for Active; 'I' for Inactive)
    1  A    between atoms: C_2  and  C_7
    2  A    between atoms: C_2  and  O_8
    3  A    between atoms: C_2  and  C_35
    4  A    between atoms: N_3  and  C_18
    5  A    between atoms: O_4  and  C_9
    6  A    between atoms: O_4  and  C_40
    7  A    between atoms: C_6  and  C_7
    8  A    between atoms: C_6  and  C_15
    9  A    between atoms: O_8  and  C_23
   10  A    between atoms: C_11  and  C_36
   11  A    between atoms: C_18  and  C_35
   12  A    between atoms: C_22  and  CA_50
   13  A    between atoms: C_25  and  CA_50
   14  A    between atoms: N_26  and  C_28
   15  A    between atoms: C_30  and  C_37
   16  A    between atoms: C_30  and  O_48
   17  A    between atoms: C_33  and  O_48
   18  A    between atoms: O_38  and  C_39
   19  A    between atoms: O_38  and  C_42
   20  A    between atoms: N_47  and  CA_50
                            x       y       z     vdW  Elec       q    Type
                         _______ _______ _______ _____ _____    ______ ____

>  <TORSDO>
F 20

$$$$
=
 OpenBabel11042413243D

 50 53  0  0  1  0  0  0  0  0999 V2000
  188.0620  177.9400  138.2400 C   0  0  1  0  0  3  0  0  0  0  0  0
  188.6170  178.3850  139.5950 C   0  0  0  0  0  2  0  0  0  0  0  0
  188.5180  177.2650  140.6220 C   0  0  0  0  0  2  0  0  0  0  0  0
  189.2670  177.6100  141.8220 N   0  0  0  0  0  2  0  0  0  0  0  0
  188.0500  176.2070  143.2390 O   0  0  0  0  0  0  0  0  0  0  0  0
  189.0180  177.0000  143.0910 C   0  0  0  0  0  0  0  0  0  0  0  0
  189.9360  177.2640  144.2460 C   0  0  2  0  0  3  0  0  0  0  0  0
  189.4750  177.4140  146.7320 C   0  0  0  0  0  0  0  0  0  0  0  0
  188.6430  177.9510  147.8400 C   0  0  0  0  0  1  0  0  0  0  0  0
  190.4180  176.6180  146.9910 O   0  0  0  0  0  0  0  0  0  0  0  0
  189.1980  177.8040  145.3840 N   0  0  0  0  0  2  0  0  0  0  0  0
  192.1590  177.7390  143.1940 O   0  0  0  0  0  0  0  0  0  0  0  0
  191.0270  178.2030  143.8500 C   0  0  0  0  0  0  0  0  0  0  0  0
  190.9170  179.4290  144.1060 O   0  0  0  0  0  1  0  0  0  0  0  0
  186.8930  178.6660  137.8490 O   0  0  0  0  0  0  0  0  0  0  0  0
  185.0290  177.4770  136.9880 N   0  0  0  0  0  0  0  0  0  0  0  0
  182.4940  177.6450  136.0580 S   0  0  0  0  0  0  0  0  0  0  0  0
  184.6950  178.4930  139.0780 C   0  0  0  0  0  2  0  0  0  0  0  0
  185.5780  178.1890  137.9210 C   0  0  0  0  0  0  0  0  0  0  0  0
  182.2060  178.1130  139.1030 C   0  0  0  0  0  0  0  0  0  0  0  0
  183.6690  177.1150  137.3430 C   0  0  2  0  0  3  0  0  0  0  0  0
  181.0220  177.5870  138.3880 C   0  0  0  0  0  3  0  0  0  0  0  0
  181.0580  177.2750  137.0860 C   0  0  0  0  0  3  0  0  0  0  0  0
  183.4250  177.8960  138.5900 C   0  0  0  0  0  0  0  0  0  0  0  0
  180.4730  177.4930  141.4020 O   0  0  0  0  0  0  0  0  0  0  0  0
  182.0820  178.8340  140.3390 N   0  0  0  0  0  2  0  0  0  0  0  0
  181.2290  178.5020  141.4440 C   0  0  0  0  0  0  0  0  0  0  0  0
  180.2400  180.0920  142.8850 O   0  0  0  0  0  0  0  0  0  0  0  0
  181.2320  179.3520  142.6380 C   0  0  0  0  0  0  0  0  0  0  0  0
  182.3330  179.3330  143.5000 O   0  0  0  0  0  0  0  0  0  0  0  0
  183.4970  178.5630  143.2160 C   0  0  1  0  0  3  0  0  0  0  0  0
  184.7300  179.4220  143.3950 C   0  0  1  0  0  3  0  0  0  0  0  0
  184.3790  178.3930  144.4510 C   0  0  1  0  0  3  0  0  0  0  0  0
  185.8510  178.8880  142.5310 C   0  0  0  0  0  2  0  0  0  0  0  0
  186.1420  179.8070  141.5160 O   0  0  0  0  0  1  0  0  0  0  0  0
  183.8290  179.0300  145.5670 O   0  0  0  0  0  0  0  0  0  0  0  0
  184.7360  178.7840  146.6000 C   0  0  0  0  0  2  0  0  0  0  0  0
  185.5940  177.7520  146.2270 O   0  0  0  0  0  1  0  0  0  0  0  0
  189.1020  177.8410  137.1200 C   0  0  0  0  0  2  0  0  0  0  0  0
  189.4330  176.4090  136.7330 C   0  0  0  0  0  2  0  0  0  0  0  0
  191.5410  176.6610  137.9380 C   0  0  0  0  0  3  0  0  0  0  0  0
  190.8960  176.1670  136.8760 C   0  0  0  0  0  0  0  0  0  0  0  0
  193.7420  175.7310  137.0710 C   0  0  0  0  0  0  0  0  0  0  0  0
  191.5910  175.3110  135.8410 C   0  0  0  0  0  2  0  0  0  0  0  0
  192.9830  176.4460  138.1090 C   0  0  0  0  0  0  0  0  0  0  0  0
  193.0910  175.2250  136.0130 C   0  0  0  0  0  3  0  0  0  0  0  0
  193.5660  176.8940  139.1300 O   0  0  0  0  0  0  0  0  0  0  0  0
  195.1310  175.5990  137.2110 O   0  0  0  0  0  0  0  0  0  0  0  0
  195.5210  173.8050  138.7760 C   0  0  0  0  0  1  0  0  0  0  0  0
  195.7820  174.3440  137.3810 C   0  0  0  0  0  2  0  0  0  0  0  0
  1 39  1  6  0  0  0
  1  2  1  0  0  0  0
  2  3  1  0  0  0  0
  3  4  1  0  0  0  0
  4  6  1  0  0  0  0
  6  5  2  0  0  0  0
  7  6  1  6  0  0  0
  7 11  1  0  0  0  0
  8 10  2  0  0  0  0
  8  9  1  0  0  0  0
 11  8  1  0  0  0  0
 12 13  2  0  0  0  0
 13 14  1  0  0  0  0
 13  7  1  0  0  0  0
 15 19  1  0  0  0  0
 15  1  1  0  0  0  0
 16 21  1  0  0  0  0
 16 19  2  0  0  0  0
 17 23  1  0  0  0  0
 19 18  1  0  0  0  0
 20 26  1  0  0  0  0
 21 17  1  6  0  0  0
 21 24  1  0  0  0  0
 22 20  1  0  0  0  0
 23 22  2  0  0  0  0
 24 18  1  0  0  0  0
 24 20  2  0  0  0  0
 25 27  2  0  0  0  0
 26 27  1  0  0  0  0
 27 29  1  0  0  0  0
 29 28  2  0  0  0  0
 29 30  1  0  0  0  0
 31 32  1  0  0  0  0
 31 30  1  1  0  0  0
 31 33  1  0  0  0  0
 32 34  1  6  0  0  0
 32 33  1  0  0  0  0
 33 36  1  1  0  0  0
 35 34  1  0  0  0  0
 36 37  1  0  0  0  0
 38 37  1  0  0  0  0
 40 42  1  0  0  0  0
 40 39  1  0  0  0  0
 41 45  1  0  0  0  0
 42 41  2  0  0  0  0
 43 48  1  0  0  0  0
 43 45  1  0  0  0  0
 44 46  1  0  0  0  0
 44 42  1  0  0  0  0
 45 47  2  0  0  0  0
 46 43  2  0  0  0  0
 48 50  1  0  0  0  0
 50 49  1  0  0  0  0
M  END
>  <MODEL>
3

>  <REMARK>
 VINA RESULT:      -7.4      2.341      9.181
  Name = 
  20 active torsions:
  status: ('A' for Active; 'I' for Inactive)
    1  A    between atoms: C_2  and  C_7
    2  A    between atoms: C_2  and  O_8
    3  A    between atoms: C_2  and  C_35
    4  A    between atoms: N_3  and  C_18
    5  A    between atoms: O_4  and  C_9
    6  A    between atoms: O_4  and  C_40
    7  A    between atoms: C_6  and  C_7
    8  A    between atoms: C_6  and  C_15
    9  A    between atoms: O_8  and  C_23
   10  A    between atoms: C_11  and  C_36
   11  A    between atoms: C_18  and  C_35
   12  A    between atoms: C_22  and  CA_50
   13  A    between atoms: C_25  and  CA_50
   14  A    between atoms: N_26  and  C_28
   15  A    between atoms: C_30  and  C_37
   16  A    between atoms: C_30  and  O_48
   17  A    between atoms: C_33  and  O_48
   18  A    between atoms: O_38  and  C_39
   19  A    between atoms: O_38  and  C_42
   20  A    between atoms: N_47  and  CA_50
                            x       y       z     vdW  Elec       q    Type
                         _______ _______ _______ _____ _____    ______ ____

>  <TORSDO>
F 20

$$$$
=
 OpenBabel11042413243D

 50 53  0  0  1  0  0  0  0  0999 V2000
  186.3530  178.4830  144.2010 C   0  0  1  0  0  3  0  0  0  0  0  0
  186.4540  177.3620  145.2390 C   0  0  0  0  0  2  0  0  0  0  0  0
  187.2840  177.8000  146.4390 C   0  0  0  0  0  2  0  0  0  0  0  0
  188.6290  177.2500  146.3510 N   0  0  0  0  0  2  0  0  0  0  0  0
  189.3680  178.1880  148.3600 O   0  0  0  0  0  0  0  0  0  0  0  0
  189.6080  177.4360  147.3780 C   0  0  0  0  0  0  0  0  0  0  0  0
  190.9120  176.7000  147.3160 C   0  0  2  0  0  3  0  0  0  0  0  0
  192.8960  176.3880  148.8580 C   0  0  0  0  0  0  0  0  0  0  0  0
  193.7610  176.9230  149.9410 C   0  0  0  0  0  1  0  0  0  0  0  0
  193.1070  175.2270  148.4100 O   0  0  0  0  0  0  0  0  0  0  0  0
  191.8350  177.1900  148.3340 N   0  0  0  0  0  2  0  0  0  0  0  0
  191.8280  178.0770  145.4340 O   0  0  0  0  0  1  0  0  0  0  0  0
  191.5270  176.8280  145.9610 C   0  0  0  0  0  0  0  0  0  0  0  0
  191.7820  175.7950  145.2920 O   0  0  0  0  0  0  0  0  0  0  0  0
  186.4710  178.0110  142.8560 O   0  0  0  0  0  0  0  0  0  0  0  0
  188.7140  177.2390  142.8680 N   0  0  0  0  0  0  0  0  0  0  0  0
  191.3020  177.8510  142.3680 S   0  0  0  0  0  0  0  0  0  0  0  0
  187.8310  177.7260  140.7480 C   0  0  0  0  0  2  0  0  0  0  0  0
  187.6660  177.6460  142.2240 C   0  0  0  0  0  0  0  0  0  0  0  0
  190.0430  177.5670  139.5560 C   0  0  0  0  0  0  0  0  0  0  0  0
  189.7950  176.9190  141.9530 C   0  0  2  0  0  3  0  0  0  0  0  0
  191.5010  177.3400  139.6660 C   0  0  0  0  0  3  0  0  0  0  0  0
  192.1360  177.3610  140.8450 C   0  0  0  0  0  3  0  0  0  0  0  0
  189.2720  177.3820  140.6360 C   0  0  0  0  0  0  0  0  0  0  0  0
  189.6680  175.9610  137.1170 O   0  0  0  0  0  0  0  0  0  0  0  0
  189.4330  177.9660  138.3180 N   0  0  0  0  0  2  0  0  0  0  0  0
  189.2620  177.1550  137.1460 C   0  0  0  0  0  0  0  0  0  0  0  0
  189.2030  177.7100  134.8500 O   0  0  0  0  0  0  0  0  0  0  0  0
  188.6090  177.7250  135.9640 C   0  0  0  0  0  0  0  0  0  0  0  0
  187.3300  178.2760  136.0760 O   0  0  0  0  0  0  0  0  0  0  0  0
  186.1550  177.4830  135.9450 C   0  0  1  0  0  3  0  0  0  0  0  0
  186.1180  176.4420  137.0430 C   0  0  1  0  0  3  0  0  0  0  0  0
  185.2170  177.6570  137.1370 C   0  0  1  0  0  3  0  0  0  0  0  0
  185.3040  175.2510  136.5880 C   0  0  0  0  0  2  0  0  0  0  0  0
  184.3760  174.9080  137.5790 O   0  0  0  0  0  1  0  0  0  0  0  0
  185.7350  178.5580  138.0710 O   0  0  0  0  0  0  0  0  0  0  0  0
  184.6270  178.9860  138.8060 C   0  0  0  0  0  2  0  0  0  0  0  0
  185.0590  179.6510  139.9510 O   0  0  0  0  0  1  0  0  0  0  0  0
  185.1690  179.4350  144.3950 C   0  0  0  0  0  2  0  0  0  0  0  0
  183.9480  178.7590  144.9990 C   0  0  0  0  0  2  0  0  0  0  0  0
  181.5790  178.6200  144.4270 C   0  0  0  0  0  3  0  0  0  0  0  0
  182.8440  178.7130  144.0010 C   0  0  0  0  0  0  0  0  0  0  0  0
  180.7430  178.5590  142.0280 C   0  0  0  0  0  0  0  0  0  0  0  0
  183.1890  178.8410  142.5340 C   0  0  0  0  0  2  0  0  0  0  0  0
  180.4650  178.5690  143.4730 C   0  0  0  0  0  0  0  0  0  0  0  0
  182.0110  178.6660  141.6020 C   0  0  0  0  0  3  0  0  0  0  0  0
  179.2820  178.5110  143.8950 O   0  0  0  0  0  0  0  0  0  0  0  0
  179.6740  178.4350  141.1290 O   0  0  0  0  0  0  0  0  0  0  0  0
  179.9060  176.7420  139.4270 C   0  0  0  0  0  1  0  0  0  0  0  0
  179.8500  178.2280  139.7310 C   0  0  0  0  0  2  0  0  0  0  0  0
  1 39  1  6  0  0  0
  1  2  1  0  0  0  0
  2  3  1  0  0  0  0
  4  3  1  0  0  0  0
  4  6  1  0  0  0  0
  6  5  2  0  0  0  0
  7 13  1  6  0  0  0
  7  6  1  0  0  0  0
  7 11  1  0  0  0  0
  8  9  1  0  0  0  0
 10  8  2  0  0  0  0
 11  8  1  0  0  0  0
 12 13  1  0  0  0  0
 14 13  2  0  0  0  0
 15  1  1  0  0  0  0
 18 19  1  0  0  0  0
 19 15  1  0  0  0  0
 19 16  2  0  0  0  0
 20 22  1  0  0  0  0
 20 24  2  0  0  0  0
 21 24  1  6  0  0  0
 21 17  1  0  0  0  0
 21 16  1  0  0  0  0
 22 23  2  0  0  0  0
 23 17  1  0  0  0  0
 24 18  1  0  0  0  0
 25 27  2  0  0  0  0
 26 20  1  0  0  0  0
 27 26  1  0  0  0  0
 28 29  2  0  0  0  0
 29 30  1  0  0  0  0
 29 27  1  0  0  0  0
 31 30  1  1  0  0  0
 31 32  1  0  0  0  0
 31 33  1  0  0  0  0
 32 34  1  6  0  0  0
 32 33  1  0  0  0  0
 33 36  1  1  0  0  0
 34 35  1  0  0  0  0
 36 37  1  0  0  0  0
 37 38  1  0  0  0  0
 39 40  1  0  0  0  0
 42 41  2  0  0  0  0
 42 40  1  0  0  0  0
 43 45  1  0  0  0  0
 44 42  1  0  0  0  0
 45 47  2  0  0  0  0
 45 41  1  0  0  0  0
 46 43  2  0  0  0  0
 46 44  1  0  0  0  0
 48 43  1  0  0  0  0
 49 50  1  0  0  0  0
 50 48  1  0  0  0  0
M  END
>  <MODEL>
4

>  <REMARK>
 VINA RESULT:      -7.4      2.840      5.434
  Name = 
  20 active torsions:
  status: ('A' for Active; 'I' for Inactive)
    1  A    between atoms: C_2  and  C_7
    2  A    between atoms: C_2  and  O_8
    3  A    between atoms: C_2  and  C_35
    4  A    between atoms: N_3  and  C_18
    5  A    between atoms: O_4  and  C_9
    6  A    between atoms: O_4  and  C_40
    7  A    between atoms: C_6  and  C_7
    8  A    between atoms: C_6  and  C_15
    9  A    between atoms: O_8  and  C_23
   10  A    between atoms: C_11  and  C_36
   11  A    between atoms: C_18  and  C_35
   12  A    between atoms: C_22  and  CA_50
   13  A    between atoms: C_25  and  CA_50
   14  A    between atoms: N_26  and  C_28
   15  A    between atoms: C_30  and  C_37
   16  A    between atoms: C_30  and  O_48
   17  A    between atoms: C_33  and  O_48
   18  A    between atoms: O_38  and  C_39
   19  A    between atoms: O_38  and  C_42
   20  A    between atoms: N_47  and  CA_50
                            x       y       z     vdW  Elec       q    Type
                         _______ _______ _______ _____ _____    ______ ____

>  <TORSDO>
F 20

$$$$
=
 OpenBabel11042413243D

 50 53  0  0  1  0  0  0  0  0999 V2000
  183.9680  179.1600  139.2560 C   0  0  1  0  0  3  0  0  0  0  0  0
  182.6980  178.4960  139.7930 C   0  0  0  0  0  2  0  0  0  0  0  0
  181.5280  179.4710  139.7960 C   0  0  0  0  0  2  0  0  0  0  0  0
  181.5880  180.3370  138.6260 N   0  0  0  0  0  2  0  0  0  0  0  0
  179.5180  181.3490  139.0100 O   0  0  0  0  0  0  0  0  0  0  0  0
  180.5720  181.2960  138.3220 C   0  0  0  0  0  0  0  0  0  0  0  0
  180.7740  182.2790  137.2080 C   0  0  2  0  0  3  0  0  0  0  0  0
  180.3790  184.7780  137.1190 C   0  0  0  0  0  0  0  0  0  0  0  0
  179.4830  185.9340  137.3850 C   0  0  0  0  0  1  0  0  0  0  0  0
  181.5350  184.9810  136.6580 O   0  0  0  0  0  0  0  0  0  0  0  0
  179.9220  183.4500  137.3870 N   0  0  0  0  0  2  0  0  0  0  0  0
  181.0240  182.1790  134.7180 O   0  0  0  0  0  0  0  0  0  0  0  0
  180.4990  181.6420  135.8860 C   0  0  0  0  0  0  0  0  0  0  0  0
  179.7920  180.6050  135.8290 O   0  0  0  0  0  1  0  0  0  0  0  0
  184.7890  179.7120  140.2890 O   0  0  0  0  0  0  0  0  0  0  0  0
  184.2860  178.9270  142.4700 N   0  0  0  0  0  0  0  0  0  0  0  0
  184.7810  179.1810  145.1180 S   0  0  0  0  0  0  0  0  0  0  0  0
  186.4850  178.5390  141.7460 C   0  0  0  0  0  2  0  0  0  0  0  0
  185.1210  179.0750  141.4910 C   0  0  0  0  0  0  0  0  0  0  0  0
  187.3280  177.8220  144.0070 C   0  0  0  0  0  0  0  0  0  0  0  0
  184.9020  178.2190  143.5780 C   0  0  2  0  0  3  0  0  0  0  0  0
  187.0190  177.6030  145.4370 C   0  0  0  0  0  3  0  0  0  0  0  0
  185.9020  178.0800  146.0040 C   0  0  0  0  0  3  0  0  0  0  0  0
  186.3310  178.1230  143.1650 C   0  0  0  0  0  0  0  0  0  0  0  0
  188.6840  175.4050  143.0090 O   0  0  0  0  0  0  0  0  0  0  0  0
  188.6670  177.7030  143.4990 N   0  0  0  0  0  2  0  0  0  0  0  0
  189.2970  176.5070  143.0140 C   0  0  0  0  0  0  0  0  0  0  0  0
  191.6360  176.5530  143.3430 O   0  0  0  0  0  0  0  0  0  0  0  0
  190.6770  176.5680  142.5240 C   0  0  0  0  0  0  0  0  0  0  0  0
  190.9220  176.6360  141.1490 O   0  0  0  0  0  0  0  0  0  0  0  0
  189.8640  176.7320  140.2010 C   0  0  1  0  0  3  0  0  0  0  0  0
  190.0850  177.9370  139.3120 C   0  0  1  0  0  3  0  0  0  0  0  0
  190.3670  176.5500  138.7700 C   0  0  1  0  0  3  0  0  0  0  0  0
  188.7560  178.4220  138.7750 C   0  0  0  0  0  2  0  0  0  0  0  0
  188.9700  179.4540  137.8530 O   0  0  0  0  0  1  0  0  0  0  0  0
  191.7460  176.3290  138.7350 O   0  0  0  0  0  0  0  0  0  0  0  0
  191.9440  175.4920  137.6340 C   0  0  0  0  0  2  0  0  0  0  0  0
  191.2460  174.3030  137.8250 O   0  0  0  0  0  1  0  0  0  0  0  0
  184.7610  178.3170  138.2530 C   0  0  0  0  0  2  0  0  0  0  0  0
  183.9800  177.1270  137.7200 C   0  0  0  0  0  2  0  0  0  0  0  0
  186.1900  176.5030  136.8950 C   0  0  0  0  0  3  0  0  0  0  0  0
  184.9000  176.1790  137.0330 C   0  0  0  0  0  0  0  0  0  0  0  0
  186.6290  174.3410  135.6330 C   0  0  0  0  0  0  0  0  0  0  0  0
  184.3530  174.8470  136.5700 C   0  0  0  0  0  2  0  0  0  0  0  0
  187.1260  175.5950  136.2200 C   0  0  0  0  0  0  0  0  0  0  0  0
  185.3370  174.0110  135.7840 C   0  0  0  0  0  3  0  0  0  0  0  0
  188.3410  175.9050  136.1260 O   0  0  0  0  0  0  0  0  0  0  0  0
  187.5190  173.5200  134.9260 O   0  0  0  0  0  0  0  0  0  0  0  0
  188.1120  172.4270  136.9930 C   0  0  0  0  0  1  0  0  0  0  0  0
  188.1000  172.3430  135.4770 C   0  0  0  0  0  2  0  0  0  0  0  0
  1 39  1  1  0  0  0
  1  2  1  0  0  0  0
  1 15  1  0  0  0  0
  2  3  1  0  0  0  0
  4  3  1  0  0  0  0
  6  4  1  0  0  0  0
  6  5  2  0  0  0  0
  7 13  1  6  0  0  0
  7 11  1  0  0  0  0
  7  6  1  0  0  0  0
  8  9  1  0  0  0  0
  8 11  1  0  0  0  0
 10  8  2  0  0  0  0
 12 13  2  0  0  0  0
 14 13  1  0  0  0  0
 15 19  1  0  0  0  0
 17 23  1  0  0  0  0
 18 24  1  0  0  0  0
 19 18  1  0  0  0  0
 19 16  2  0  0  0  0
 20 22  1  0  0  0  0
 21 16  1  6  0  0  0
 21 17  1  0  0  0  0
 22 23  2  0  0  0  0
 24 21  1  0  0  0  0
 24 20  2  0  0  0  0
 25 27  2  0  0  0  0
 26 20  1  0  0  0  0
 27 26  1  0  0  0  0
 29 27  1  0  0  0  0
 29 28  2  0  0  0  0
 30 29  1  0  0  0  0
 31 30  1  1  0  0  0
 32 34  1  6  0  0  0
 32 31  1  0  0  0  0
 33 36  1  1  0  0  0
 33 32  1  0  0  0  0
 33 31  1  0  0  0  0
 35 34  1  0  0  0  0
 37 38  1  0  0  0  0
 37 36  1  0  0  0  0
 40 39  1  0  0  0  0
 41 42  2  0  0  0  0
 42 40  1  0  0  0  0
 43 46  2  0  0  0  0
 43 45  1  0  0  0  0
 44 42  1  0  0  0  0
 45 41  1  0  0  0  0
 46 44  1  0  0  0  0
 47 45  2  0  0  0  0
 48 50  1  0  0  0  0
 48 43  1  0  0  0  0
 50 49  1  0  0  0  0
M  END
>  <MODEL>
5

>  <REMARK>
 VINA RESULT:      -7.3      4.184      9.936
  Name = 
  20 active torsions:
  status: ('A' for Active; 'I' for Inactive)
    1  A    between atoms: C_2  and  C_7
    2  A    between atoms: C_2  and  O_8
    3  A    between atoms: C_2  and  C_35
    4  A    between atoms: N_3  and  C_18
    5  A    between atoms: O_4  and  C_9
    6  A    between atoms: O_4  and  C_40
    7  A    between atoms: C_6  and  C_7
    8  A    between atoms: C_6  and  C_15
    9  A    between atoms: O_8  and  C_23
   10  A    between atoms: C_11  and  C_36
   11  A    between atoms: C_18  and  C_35
   12  A    between atoms: C_22  and  CA_50
   13  A    between atoms: C_25  and  CA_50
   14  A    between atoms: N_26  and  C_28
   15  A    between atoms: C_30  and  C_37
   16  A    between atoms: C_30  and  O_48
   17  A    between atoms: C_33  and  O_48
   18  A    between atoms: O_38  and  C_39
   19  A    between atoms: O_38  and  C_42
   20  A    between atoms: N_47  and  CA_50
                            x       y       z     vdW  Elec       q    Type
                         _______ _______ _______ _____ _____    ______ ____

>  <TORSDO>
F 20

$$$$
=
 OpenBabel11042413243D

 50 53  0  0  1  0  0  0  0  0999 V2000
  188.4890  178.5910  140.8280 C   0  0  1  0  0  3  0  0  0  0  0  0
  189.3120  177.3880  141.2940 C   0  0  0  0  0  2  0  0  0  0  0  0
  190.3220  177.7940  142.3590 C   0  0  0  0  0  2  0  0  0  0  0  0
  189.9460  177.2390  143.6520 N   0  0  0  0  0  2  0  0  0  0  0  0
  192.0850  177.3990  144.5770 O   0  0  0  0  0  0  0  0  0  0  0  0
  190.8680  177.1220  144.7390 C   0  0  0  0  0  0  0  0  0  0  0  0
  190.3810  176.7110  146.0960 C   0  0  2  0  0  3  0  0  0  0  0  0
  188.5010  177.4450  147.6250 C   0  0  0  0  0  0  0  0  0  0  0  0
  187.6250  178.5350  148.1300 C   0  0  0  0  0  1  0  0  0  0  0  0
  188.3260  176.2660  148.0370 O   0  0  0  0  0  0  0  0  0  0  0  0
  189.5300  177.7440  146.6790 N   0  0  0  0  0  2  0  0  0  0  0  0
  192.2490  175.2390  146.8830 O   0  0  0  0  0  0  0  0  0  0  0  0
  191.5300  176.4210  147.0040 C   0  0  0  0  0  0  0  0  0  0  0  0
  191.8560  177.2580  147.8830 O   0  0  0  0  0  1  0  0  0  0  0  0
  188.7670  178.9690  139.4770 O   0  0  0  0  0  0  0  0  0  0  0  0
  187.5530  177.6970  137.8840 N   0  0  0  0  0  0  0  0  0  0  0  0
  186.9960  175.2230  136.9410 S   0  0  0  0  0  0  0  0  0  0  0  0
  189.8890  177.6340  137.6520 C   0  0  0  0  0  2  0  0  0  0  0  0
  188.6780  178.1270  138.3620 C   0  0  0  0  0  0  0  0  0  0  0  0
  189.8830  175.7620  135.9690 C   0  0  0  0  0  0  0  0  0  0  0  0
  187.7700  176.8560  136.7210 C   0  0  2  0  0  3  0  0  0  0  0  0
  189.0810  174.7940  135.1890 C   0  0  0  0  0  3  0  0  0  0  0  0
  187.7960  174.5430  135.4740 C   0  0  0  0  0  3  0  0  0  0  0  0
  189.2520  176.7010  136.6860 C   0  0  0  0  0  0  0  0  0  0  0  0
  191.6820  174.5400  137.9550 O   0  0  0  0  0  0  0  0  0  0  0  0
  191.3190  175.7300  135.9620 N   0  0  0  0  0  2  0  0  0  0  0  0
  192.1690  175.1200  136.9460 C   0  0  0  0  0  0  0  0  0  0  0  0
  194.1240  175.9230  135.8900 O   0  0  0  0  0  0  0  0  0  0  0  0
  193.6230  175.1770  136.7770 C   0  0  0  0  0  0  0  0  0  0  0  0
  194.4480  174.4090  137.6040 O   0  0  0  0  0  0  0  0  0  0  0  0
  195.7480  174.8480  137.9860 C   0  0  1  0  0  3  0  0  0  0  0  0
  196.1530  174.1740  139.2790 C   0  0  1  0  0  3  0  0  0  0  0  0
  196.7590  173.7050  137.9720 C   0  0  1  0  0  3  0  0  0  0  0  0
  197.1540  175.0410  140.0110 C   0  0  0  0  0  2  0  0  0  0  0  0
  198.0750  175.5700  139.0990 O   0  0  0  0  0  1  0  0  0  0  0  0
  196.1680  172.5000  137.5830 O   0  0  0  0  0  0  0  0  0  0  0  0
  197.0720  171.9340  136.6810 C   0  0  0  0  0  2  0  0  0  0  0  0
  197.8720  171.0090  137.3470 O   0  0  0  0  0  1  0  0  0  0  0  0
  186.9880  178.4970  141.1220 C   0  0  0  0  0  2  0  0  0  0  0  0
  186.6820  177.9720  142.5150 C   0  0  0  0  0  2  0  0  0  0  0  0
  184.9900  178.4850  144.1990 C   0  0  0  0  0  3  0  0  0  0  0  0
  185.2910  178.3370  142.9040 C   0  0  0  0  0  0  0  0  0  0  0  0
  182.5680  178.9770  143.6100 C   0  0  0  0  0  0  0  0  0  0  0  0
  184.2780  178.5930  141.8100 C   0  0  0  0  0  2  0  0  0  0  0  0
  183.6300  178.8400  144.6190 C   0  0  0  0  0  0  0  0  0  0  0  0
  182.8740  178.8410  142.3110 C   0  0  0  0  0  3  0  0  0  0  0  0
  183.3740  179.0040  145.8400 O   0  0  0  0  0  0  0  0  0  0  0  0
  181.2570  179.2430  144.0320 O   0  0  0  0  0  0  0  0  0  0  0  0
  179.2140  178.8070  142.8260 C   0  0  0  0  0  1  0  0  0  0  0  0
  180.1860  178.3160  143.8840 C   0  0  0  0  0  2  0  0  0  0  0  0
  1 39  1  6  0  0  0
  1  2  1  0  0  0  0
  2  3  1  0  0  0  0
  3  4  1  0  0  0  0
  4  6  1  0  0  0  0
  5  6  2  0  0  0  0
  7  6  1  6  0  0  0
  7 11  1  0  0  0  0
  7 13  1  0  0  0  0
  8 10  2  0  0  0  0
  8  9  1  0  0  0  0
 11  8  1  0  0  0  0
 12 13  2  0  0  0  0
 13 14  1  0  0  0  0
 15  1  1  0  0  0  0
 16 19  2  0  0  0  0
 18 19  1  0  0  0  0
 19 15  1  0  0  0  0
 20 24  2  0  0  0  0
 21 24  1  1  0  0  0
 21 17  1  0  0  0  0
 21 16  1  0  0  0  0
 22 23  2  0  0  0  0
 22 20  1  0  0  0  0
 23 17  1  0  0  0  0
 24 18  1  0  0  0  0
 26 20  1  0  0  0  0
 26 27  1  0  0  0  0
 27 25  2  0  0  0  0
 28 29  2  0  0  0  0
 29 27  1  0  0  0  0
 29 30  1  0  0  0  0
 31 30  1  6  0  0  0
 31 32  1  0  0  0  0
 32 34  1  1  0  0  0
 33 36  1  6  0  0  0
 33 31  1  0  0  0  0
 33 32  1  0  0  0  0
 35 34  1  0  0  0  0
 37 38  1  0  0  0  0
 37 36  1  0  0  0  0
 39 40  1  0  0  0  0
 40 42  1  0  0  0  0
 41 45  1  0  0  0  0
 42 41  2  0  0  0  0
 43 48  1  0  0  0  0
 43 45  1  0  0  0  0
 44 46  1  0  0  0  0
 44 42  1  0  0  0  0
 45 47  2  0  0  0  0
 46 43  2  0  0  0  0
 49 50  1  0  0  0  0
 50 48  1  0  0  0  0
M  END
>  <MODEL>
6

>  <REMARK>
 VINA RESULT:      -7.2      1.599      2.571
  Name = 
  20 active torsions:
  status: ('A' for Active; 'I' for Inactive)
    1  A    between atoms: C_2  and  C_7
    2  A    between atoms: C_2  and  O_8
    3  A    between atoms: C_2  and  C_35
    4  A    between atoms: N_3  and  C_18
    5  A    between atoms: O_4  and  C_9
    6  A    between atoms: O_4  and  C_40
    7  A    between atoms: C_6  and  C_7
    8  A    between atoms: C_6  and  C_15
    9  A    between atoms: O_8  and  C_23
   10  A    between atoms: C_11  and  C_36
   11  A    between atoms: C_18  and  C_35
   12  A    between atoms: C_22  and  CA_50
   13  A    between atoms: C_25  and  CA_50
   14  A    between atoms: N_26  and  C_28
   15  A    between atoms: C_30  and  C_37
   16  A    between atoms: C_30  and  O_48
   17  A    between atoms: C_33  and  O_48
   18  A    between atoms: O_38  and  C_39
   19  A    between atoms: O_38  and  C_42
   20  A    between atoms: N_47  and  CA_50
                            x       y       z     vdW  Elec       q    Type
                         _______ _______ _______ _____ _____    ______ ____

>  <TORSDO>
F 20

$$$$
=
 OpenBabel11042413243D

 50 53  0  0  1  0  0  0  0  0999 V2000
  190.0950  176.8690  142.5410 C   0  0  1  0  0  3  0  0  0  0  0  0
  190.4630  178.3230  142.8430 C   0  0  0  0  0  2  0  0  0  0  0  0
  191.6080  178.4020  143.8450 C   0  0  0  0  0  2  0  0  0  0  0  0
  191.1520  178.0020  145.1680 N   0  0  0  0  0  2  0  0  0  0  0  0
  192.0660  175.8550  145.0630 O   0  0  0  0  0  0  0  0  0  0  0  0
  191.4650  176.7290  145.7410 C   0  0  0  0  0  0  0  0  0  0  0  0
  191.1210  176.4430  147.1720 C   0  0  2  0  0  3  0  0  0  0  0  0
  188.9100  177.4030  147.9500 C   0  0  0  0  0  0  0  0  0  0  0  0
  188.1410  178.5630  148.4700 C   0  0  0  0  0  1  0  0  0  0  0  0
  188.3110  176.3220  147.6970 O   0  0  0  0  0  0  0  0  0  0  0  0
  190.3190  177.5230  147.7400 N   0  0  0  0  0  2  0  0  0  0  0  0
  192.7090  177.1430  148.9790 O   0  0  0  0  0  1  0  0  0  0  0  0
  192.3580  176.2420  147.9830 C   0  0  0  0  0  0  0  0  0  0  0  0
  193.0880  175.2410  147.7670 O   0  0  0  0  0  0  0  0  0  0  0  0
  188.9230  176.4320  143.2360 O   0  0  0  0  0  0  0  0  0  0  0  0
  187.6070  177.8200  144.6400 N   0  0  0  0  0  0  0  0  0  0  0  0
  185.2840  178.0760  146.0020 S   0  0  0  0  0  0  0  0  0  0  0  0
  186.7110  177.4070  142.5090 C   0  0  0  0  0  2  0  0  0  0  0  0
  187.7990  177.2200  143.5070 C   0  0  0  0  0  0  0  0  0  0  0  0
  184.4510  178.3810  143.0390 C   0  0  0  0  0  0  0  0  0  0  0  0
  186.3670  178.5730  144.6260 C   0  0  2  0  0  3  0  0  0  0  0  0
  183.5750  179.0090  144.0520 C   0  0  0  0  0  3  0  0  0  0  0  0
  183.8800  179.0050  145.3560 C   0  0  0  0  0  3  0  0  0  0  0  0
  185.7410  178.1730  143.3340 C   0  0  0  0  0  0  0  0  0  0  0  0
  184.8660  179.7540  140.4670 O   0  0  0  0  0  0  0  0  0  0  0  0
  183.9560  178.0040  141.7430 N   0  0  0  0  0  2  0  0  0  0  0  0
  184.1810  178.6950  140.5050 C   0  0  0  0  0  0  0  0  0  0  0  0
  183.9430  177.0210  138.8560 O   0  0  0  0  0  0  0  0  0  0  0  0
  183.6030  178.1640  139.2680 C   0  0  0  0  0  0  0  0  0  0  0  0
  182.6710  178.9250  138.5560 O   0  0  0  0  0  0  0  0  0  0  0  0
  181.3040  178.9980  138.9460 C   0  0  1  0  0  3  0  0  0  0  0  0
  181.0890  180.2140  139.8210 C   0  0  1  0  0  3  0  0  0  0  0  0
  180.6190  180.2400  138.3810 C   0  0  1  0  0  3  0  0  0  0  0  0
  179.9020  179.9830  140.7300 C   0  0  0  0  0  2  0  0  0  0  0  0
  179.4110  181.2130  141.1850 O   0  0  0  0  0  1  0  0  0  0  0  0
  181.4980  181.0060  137.6100 O   0  0  0  0  0  0  0  0  0  0  0  0
  180.8160  182.2020  137.3740 C   0  0  0  0  0  2  0  0  0  0  0  0
  181.6000  183.2730  137.7940 O   0  0  0  0  0  1  0  0  0  0  0  0
  190.0720  176.5070  141.0530 C   0  0  0  0  0  2  0  0  0  0  0  0
  190.8660  177.4730  140.1880 C   0  0  0  0  0  2  0  0  0  0  0  0
  192.6120  176.7560  138.6400 C   0  0  0  0  0  3  0  0  0  0  0  0
  191.3080  176.7940  138.9380 C   0  0  0  0  0  0  0  0  0  0  0  0
  192.1090  175.5300  136.4720 C   0  0  0  0  0  0  0  0  0  0  0  0
  190.2680  176.1120  138.0790 C   0  0  0  0  0  2  0  0  0  0  0  0
  193.0840  176.1000  137.4150 C   0  0  0  0  0  0  0  0  0  0  0  0
  190.8040  175.5570  136.7790 C   0  0  0  0  0  3  0  0  0  0  0  0
  194.3160  176.0480  137.1670 O   0  0  0  0  0  0  0  0  0  0  0  0
  192.5700  174.9720  135.2700 O   0  0  0  0  0  0  0  0  0  0  0  0
  193.9270  172.9800  135.1930 C   0  0  0  0  0  1  0  0  0  0  0  0
  192.5440  173.5750  134.9970 C   0  0  0  0  0  2  0  0  0  0  0  0
  1 39  1  6  0  0  0
  1  2  1  0  0  0  0
  1 15  1  0  0  0  0
  2  3  1  0  0  0  0
  3  4  1  0  0  0  0
  4  6  1  0  0  0  0
  5  6  2  0  0  0  0
  7  6  1  6  0  0  0
  7 11  1  0  0  0  0
  7 13  1  0  0  0  0
  8  9  1  0  0  0  0
 10  8  2  0  0  0  0
 11  8  1  0  0  0  0
 13 12  1  0  0  0  0
 14 13  2  0  0  0  0
 15 19  1  0  0  0  0
 18 24  1  0  0  0  0
 18 19  1  0  0  0  0
 19 16  2  0  0  0  0
 20 24  2  0  0  0  0
 20 22  1  0  0  0  0
 21 24  1  6  0  0  0
 21 16  1  0  0  0  0
 21 17  1  0  0  0  0
 22 23  2  0  0  0  0
 23 17  1  0  0  0  0
 25 27  2  0  0  0  0
 26 20  1  0  0  0  0
 27 26  1  0  0  0  0
 28 29  2  0  0  0  0
 29 27  1  0  0  0  0
 30 29  1  0  0  0  0
 31 30  1  6  0  0  0
 31 32  1  0  0  0  0
 32 34  1  1  0  0  0
 33 36  1  6  0  0  0
 33 31  1  0  0  0  0
 33 32  1  0  0  0  0
 34 35  1  0  0  0  0
 37 36  1  0  0  0  0
 37 38  1  0  0  0  0
 40 39  1  0  0  0  0
 41 42  2  0  0  0  0
 42 40  1  0  0  0  0
 43 46  2  0  0  0  0
 43 45  1  0  0  0  0
 44 42  1  0  0  0  0
 45 41  1  0  0  0  0
 46 44  1  0  0  0  0
 47 45  2  0  0  0  0
 48 43  1  0  0  0  0
 50 49  1  0  0  0  0
 50 48  1  0  0  0  0
M  END
>  <MODEL>
7

>  <REMARK>
 VINA RESULT:      -7.0      2.778      9.350
  Name = 
  20 active torsions:
  status: ('A' for Active; 'I' for Inactive)
    1  A    between atoms: C_2  and  C_7
    2  A    between atoms: C_2  and  O_8
    3  A    between atoms: C_2  and  C_35
    4  A    between atoms: N_3  and  C_18
    5  A    between atoms: O_4  and  C_9
    6  A    between atoms: O_4  and  C_40
    7  A    between atoms: C_6  and  C_7
    8  A    between atoms: C_6  and  C_15
    9  A    between atoms: O_8  and  C_23
   10  A    between atoms: C_11  and  C_36
   11  A    between atoms: C_18  and  C_35
   12  A    between atoms: C_22  and  CA_50
   13  A    between atoms: C_25  and  CA_50
   14  A    between atoms: N_26  and  C_28
   15  A    between atoms: C_30  and  C_37
   16  A    between atoms: C_30  and  O_48
   17  A    between atoms: C_33  and  O_48
   18  A    between atoms: O_38  and  C_39
   19  A    between atoms: O_38  and  C_42
   20  A    between atoms: N_47  and  CA_50
                            x       y       z     vdW  Elec       q    Type
                         _______ _______ _______ _____ _____    ______ ____

>  <TORSDO>
F 20

$$$$
=
 OpenBabel11042413243D

 50 53  0  0  1  0  0  0  0  0999 V2000
  187.8550  178.3930  141.6280 C   0  0  1  0  0  3  0  0  0  0  0  0
  189.0490  177.4430  141.7480 C   0  0  0  0  0  2  0  0  0  0  0  0
  190.2130  178.1130  142.4670 C   0  0  0  0  0  2  0  0  0  0  0  0
  189.8570  178.3980  143.8500 N   0  0  0  0  0  2  0  0  0  0  0  0
  189.2100  176.2110  144.3530 O   0  0  0  0  0  0  0  0  0  0  0  0
  189.4140  177.3860  144.7580 C   0  0  0  0  0  0  0  0  0  0  0  0
  189.2340  177.7060  146.2110 C   0  0  2  0  0  3  0  0  0  0  0  0
  191.3780  176.5580  146.9160 C   0  0  0  0  0  0  0  0  0  0  0  0
  192.0550  175.5340  147.7530 C   0  0  0  0  0  1  0  0  0  0  0  0
  192.0540  177.2380  146.0970 O   0  0  0  0  0  0  0  0  0  0  0  0
  189.9690  176.7620  147.0470 N   0  0  0  0  0  2  0  0  0  0  0  0
  187.3850  177.9160  147.8890 O   0  0  0  0  0  1  0  0  0  0  0  0
  187.7860  177.6970  146.5780 C   0  0  0  0  0  0  0  0  0  0  0  0
  186.9200  177.4960  145.6900 O   0  0  0  0  0  0  0  0  0  0  0  0
  187.7530  179.0020  140.3370 O   0  0  0  0  0  0  0  0  0  0  0  0
  186.3050  178.6280  138.4960 N   0  0  0  0  0  0  0  0  0  0  0  0
  184.6080  176.9000  137.2880 S   0  0  0  0  0  0  0  0  0  0  0  0
  188.1990  177.2440  138.5810 C   0  0  0  0  0  2  0  0  0  0  0  0
  187.3830  178.3470  139.1570 C   0  0  0  0  0  0  0  0  0  0  0  0
  187.4070  175.6880  136.7680 C   0  0  0  0  0  0  0  0  0  0  0  0
  186.1910  177.7990  137.3090 C   0  0  2  0  0  3  0  0  0  0  0  0
  186.3340  175.3400  135.8100 C   0  0  0  0  0  3  0  0  0  0  0  0
  185.1060  175.8680  135.8950 C   0  0  0  0  0  3  0  0  0  0  0  0
  187.3100  176.8280  137.4660 C   0  0  0  0  0  0  0  0  0  0  0  0
  189.8190  175.5040  135.0880 O   0  0  0  0  0  0  0  0  0  0  0  0
  188.5540  174.8440  136.9550 N   0  0  0  0  0  2  0  0  0  0  0  0
  189.7190  174.7810  136.1180 C   0  0  0  0  0  0  0  0  0  0  0  0
  191.0020  172.8300  135.7600 O   0  0  0  0  0  0  0  0  0  0  0  0
  190.8050  173.8600  136.4630 C   0  0  0  0  0  0  0  0  0  0  0  0
  191.6220  174.1320  137.5640 O   0  0  0  0  0  0  0  0  0  0  0  0
  193.0000  174.4590  137.4160 C   0  0  1  0  0  3  0  0  0  0  0  0
  193.1400  175.7020  136.5650 C   0  0  1  0  0  3  0  0  0  0  0  0
  193.3370  175.7990  138.0640 C   0  0  1  0  0  3  0  0  0  0  0  0
  194.4900  175.7010  135.8820 C   0  0  0  0  0  2  0  0  0  0  0  0
  195.5040  175.6210  136.8440 O   0  0  0  0  0  1  0  0  0  0  0  0
  192.2120  176.3840  138.6520 O   0  0  0  0  0  0  0  0  0  0  0  0
  192.7250  177.3500  139.5200 C   0  0  0  0  0  2  0  0  0  0  0  0
  194.0190  176.9960  139.8940 O   0  0  0  0  0  1  0  0  0  0  0  0
  186.5240  177.8200  142.1220 C   0  0  0  0  0  2  0  0  0  0  0  0
  185.7660  178.7670  143.0380 C   0  0  0  0  0  2  0  0  0  0  0  0
  183.9850  178.6020  141.3760 C   0  0  0  0  0  3  0  0  0  0  0  0
  184.3270  178.8060  142.6530 C   0  0  0  0  0  0  0  0  0  0  0  0
  181.5350  178.9610  141.9450 C   0  0  0  0  0  0  0  0  0  0  0  0
  183.2940  179.0120  143.7380 C   0  0  0  0  0  2  0  0  0  0  0  0
  182.5780  178.6370  140.9600 C   0  0  0  0  0  0  0  0  0  0  0  0
  181.8780  179.1520  143.2280 C   0  0  0  0  0  3  0  0  0  0  0  0
  182.2740  178.4130  139.7600 O   0  0  0  0  0  0  0  0  0  0  0  0
  180.2030  179.0650  141.5180 O   0  0  0  0  0  0  0  0  0  0  0  0
  179.2260  177.0070  140.7240 C   0  0  0  0  0  1  0  0  0  0  0  0
  179.2140  178.0800  141.7990 C   0  0  0  0  0  2  0  0  0  0  0  0
  1  2  1  6  0  0  0
  1 39  1  0  0  0  0
  2  3  1  0  0  0  0
  3  4  1  0  0  0  0
  4  6  1  0  0  0  0
  5  6  2  0  0  0  0
  7  6  1  6  0  0  0
  7 13  1  0  0  0  0
  7 11  1  0  0  0  0
  8 11  1  0  0  0  0
  8  9  1  0  0  0  0
 10  8  2  0  0  0  0
 13 12  1  0  0  0  0
 14 13  2  0  0  0  0
 15  1  1  0  0  0  0
 16 19  2  0  0  0  0
 18 19  1  0  0  0  0
 19 15  1  0  0  0  0
 20 26  1  0  0  0  0
 20 24  2  0  0  0  0
 21 17  1  1  0  0  0
 21 24  1  0  0  0  0
 21 16  1  0  0  0  0
 22 23  2  0  0  0  0
 22 20  1  0  0  0  0
 23 17  1  0  0  0  0
 24 18  1  0  0  0  0
 25 27  2  0  0  0  0
 27 29  1  0  0  0  0
 27 26  1  0  0  0  0
 28 29  2  0  0  0  0
 29 30  1  0  0  0  0
 31 30  1  1  0  0  0
 31 33  1  0  0  0  0
 32 34  1  6  0  0  0
 32 31  1  0  0  0  0
 32 33  1  0  0  0  0
 33 36  1  1  0  0  0
 34 35  1  0  0  0  0
 36 37  1  0  0  0  0
 37 38  1  0  0  0  0
 39 40  1  0  0  0  0
 41 42  2  0  0  0  0
 42 40  1  0  0  0  0
 42 44  1  0  0  0  0
 43 46  2  0  0  0  0
 45 41  1  0  0  0  0
 45 43  1  0  0  0  0
 46 44  1  0  0  0  0
 47 45  2  0  0  0  0
 48 50  1  0  0  0  0
 48 43  1  0  0  0  0
 49 50  1  0  0  0  0
M  END
>  <MODEL>
8

>  <REMARK>
 VINA RESULT:      -6.9      1.426      2.314
  Name = 
  20 active torsions:
  status: ('A' for Active; 'I' for Inactive)
    1  A    between atoms: C_2  and  C_7
    2  A    between atoms: C_2  and  O_8
    3  A    between atoms: C_2  and  C_35
    4  A    between atoms: N_3  and  C_18
    5  A    between atoms: O_4  and  C_9
    6  A    between atoms: O_4  and  C_40
    7  A    between atoms: C_6  and  C_7
    8  A    between atoms: C_6  and  C_15
    9  A    between atoms: O_8  and  C_23
   10  A    between atoms: C_11  and  C_36
   11  A    between atoms: C_18  and  C_35
   12  A    between atoms: C_22  and  CA_50
   13  A    between atoms: C_25  and  CA_50
   14  A    between atoms: N_26  and  C_28
   15  A    between atoms: C_30  and  C_37
   16  A    between atoms: C_30  and  O_48
   17  A    between atoms: C_33  and  O_48
   18  A    between atoms: O_38  and  C_39
   19  A    between atoms: O_38  and  C_42
   20  A    between atoms: N_47  and  CA_50
                            x       y       z     vdW  Elec       q    Type
                         _______ _______ _______ _____ _____    ______ ____

>  <TORSDO>
F 20

$$$$
=
 OpenBabel11042413243D

 50 53  0  0  1  0  0  0  0  0999 V2000
  188.0780  178.6340  140.6480 C   0  0  1  0  0  3  0  0  0  0  0  0
  188.6130  177.3550  141.2950 C   0  0  0  0  0  2  0  0  0  0  0  0
  189.9410  177.6090  141.9950 C   0  0  0  0  0  2  0  0  0  0  0  0
  189.7150  178.0730  143.3570 N   0  0  0  0  0  2  0  0  0  0  0  0
  188.9180  176.0230  144.1440 O   0  0  0  0  0  0  0  0  0  0  0  0
  189.2540  177.2100  144.4000 C   0  0  0  0  0  0  0  0  0  0  0  0
  189.2100  177.6980  145.8160 C   0  0  2  0  0  3  0  0  0  0  0  0
  191.3540  176.6280  146.6360 C   0  0  0  0  0  0  0  0  0  0  0  0
  192.0230  175.6400  147.5210 C   0  0  0  0  0  1  0  0  0  0  0  0
  192.0450  177.3130  145.8330 O   0  0  0  0  0  0  0  0  0  0  0  0
  189.9350  176.7920  146.7020 N   0  0  0  0  0  2  0  0  0  0  0  0
  187.5170  178.2380  147.5830 O   0  0  0  0  0  1  0  0  0  0  0  0
  187.7980  177.8480  146.2800 C   0  0  0  0  0  0  0  0  0  0  0  0
  186.8540  177.6270  145.4820 O   0  0  0  0  0  0  0  0  0  0  0  0
  188.4510  178.7640  139.2730 O   0  0  0  0  0  0  0  0  0  0  0  0
  189.8150  177.5790  137.7350 N   0  0  0  0  0  0  0  0  0  0  0  0
  190.1260  176.7700  135.1720 S   0  0  0  0  0  0  0  0  0  0  0  0
  187.7020  176.6380  138.1370 C   0  0  0  0  0  2  0  0  0  0  0  0
  188.7080  177.7030  138.3970 C   0  0  0  0  0  0  0  0  0  0  0  0
  187.8490  174.9760  136.2520 C   0  0  0  0  0  0  0  0  0  0  0  0
  189.8020  176.3780  136.9200 C   0  0  2  0  0  3  0  0  0  0  0  0
  188.6410  174.4480  135.1190 C   0  0  0  0  0  3  0  0  0  0  0  0
  189.6970  175.1060  134.6230 C   0  0  0  0  0  3  0  0  0  0  0  0
  188.4030  175.8840  137.0660 C   0  0  0  0  0  0  0  0  0  0  0  0
  186.9850  172.4060  137.4020 O   0  0  0  0  0  0  0  0  0  0  0  0
  186.5090  174.5260  136.5100 N   0  0  0  0  0  2  0  0  0  0  0  0
  186.1210  173.2650  137.0770 C   0  0  0  0  0  0  0  0  0  0  0  0
  184.2110  171.8980  136.8290 O   0  0  0  0  0  0  0  0  0  0  0  0
  184.6990  172.9720  137.2770 C   0  0  0  0  0  0  0  0  0  0  0  0
  183.8940  173.8810  137.9690 O   0  0  0  0  0  0  0  0  0  0  0  0
  182.6730  174.3710  137.4230 C   0  0  1  0  0  3  0  0  0  0  0  0
  181.8940  175.1030  138.4940 C   0  0  1  0  0  3  0  0  0  0  0  0
  182.6220  175.8970  137.4290 C   0  0  1  0  0  3  0  0  0  0  0  0
  180.4180  175.0620  138.1660 C   0  0  0  0  0  2  0  0  0  0  0  0
  180.2470  174.9060  136.7850 O   0  0  0  0  0  1  0  0  0  0  0  0
  183.7890  176.4480  137.9650 O   0  0  0  0  0  0  0  0  0  0  0  0
  183.8440  177.7430  137.4430 C   0  0  0  0  0  2  0  0  0  0  0  0
  182.8530  177.8950  136.4760 O   0  0  0  0  0  1  0  0  0  0  0  0
  186.5890  178.9020  140.8860 C   0  0  0  0  0  2  0  0  0  0  0  0
  186.0650  178.2750  142.1680 C   0  0  0  0  0  2  0  0  0  0  0  0
  183.8470  178.2380  141.1490 C   0  0  0  0  0  3  0  0  0  0  0  0
  184.5860  178.4340  142.2470 C   0  0  0  0  0  0  0  0  0  0  0  0
  181.7330  178.8220  142.4320 C   0  0  0  0  0  0  0  0  0  0  0  0
  183.9630  178.7510  143.5880 C   0  0  0  0  0  2  0  0  0  0  0  0
  182.3880  178.3900  141.1880 C   0  0  0  0  0  0  0  0  0  0  0  0
  182.4740  179.0060  143.5350 C   0  0  0  0  0  3  0  0  0  0  0  0
  181.7080  178.1710  140.1520 O   0  0  0  0  0  0  0  0  0  0  0  0
  180.3470  179.0360  142.4340 O   0  0  0  0  0  0  0  0  0  0  0  0
  178.9330  179.4010  144.3540 C   0  0  0  0  0  1  0  0  0  0  0  0
  179.7130  180.0400  143.2190 C   0  0  0  0  0  2  0  0  0  0  0  0
  1 39  1  6  0  0  0
  1  2  1  0  0  0  0
  2  3  1  0  0  0  0
  3  4  1  0  0  0  0
  4  6  1  0  0  0  0
  5  6  2  0  0  0  0
  7  6  1  6  0  0  0
  7 13  1  0  0  0  0
  7 11  1  0  0  0  0
  8 11  1  0  0  0  0
  8  9  1  0  0  0  0
 10  8  2  0  0  0  0
 13 12  1  0  0  0  0
 14 13  2  0  0  0  0
 15  1  1  0  0  0  0
 16 19  2  0  0  0  0
 18 19  1  0  0  0  0
 19 15  1  0  0  0  0
 20 26  1  0  0  0  0
 20 24  2  0  0  0  0
 21 17  1  6  0  0  0
 21 24  1  0  0  0  0
 21 16  1  0  0  0  0
 22 20  1  0  0  0  0
 23 22  2  0  0  0  0
 23 17  1  0  0  0  0
 24 18  1  0  0  0  0
 26 27  1  0  0  0  0
 27 29  1  0  0  0  0
 27 25  2  0  0  0  0
 28 29  2  0  0  0  0
 29 30  1  0  0  0  0
 31 33  1  0  0  0  0
 31 30  1  1  0  0  0
 31 32  1  0  0  0  0
 32 34  1  6  0  0  0
 33 36  1  1  0  0  0
 33 32  1  0  0  0  0
 35 34  1  0  0  0  0
 37 36  1  0  0  0  0
 38 37  1  0  0  0  0
 39 40  1  0  0  0  0
 40 42  1  0  0  0  0
 41 45  1  0  0  0  0
 41 42  2  0  0  0  0
 42 44  1  0  0  0  0
 43 48  1  0  0  0  0
 43 46  2  0  0  0  0
 45 43  1  0  0  0  0
 46 44  1  0  0  0  0
 47 45  2  0  0  0  0
 48 50  1  0  0  0  0
 50 49  1  0  0  0  0
M  END
>  <MODEL>
9

>  <REMARK>
 VINA RESULT:      -6.9      3.119      5.956
  Name = 
  20 active torsions:
  status: ('A' for Active; 'I' for Inactive)
    1  A    between atoms: C_2  and  C_7
    2  A    between atoms: C_2  and  O_8
    3  A    between atoms: C_2  and  C_35
    4  A    between atoms: N_3  and  C_18
    5  A    between atoms: O_4  and  C_9
    6  A    between atoms: O_4  and  C_40
    7  A    between atoms: C_6  and  C_7
    8  A    between atoms: C_6  and  C_15
    9  A    between atoms: O_8  and  C_23
   10  A    between atoms: C_11  and  C_36
   11  A    between atoms: C_18  and  C_35
   12  A    between atoms: C_22  and  CA_50
   13  A    between atoms: C_25  and  CA_50
   14  A    between atoms: N_26  and  C_28
   15  A    between atoms: C_30  and  C_37
   16  A    between atoms: C_30  and  O_48
   17  A    between atoms: C_33  and  O_48
   18  A    between atoms: O_38  and  C_39
   19  A    between atoms: O_38  and  C_42
   20  A    between atoms: N_47  and  CA_50
                            x       y       z     vdW  Elec       q    Type
                         _______ _______ _______ _____ _____    ______ ____

>  <TORSDO>
F 20

$$$$
