=
 OpenBabel11042411303D

 55 60  0  0  1  0  0  0  0  0999 V2000
  191.0690  177.6030  141.1220 N   0  0  0  0  0  2  0  0  0  0  0  0
  190.2430  177.1590  144.1180 C   0  0  2  0  0  3  0  0  0  0  0  0
  191.5140  177.1780  142.4440 C   0  0  1  0  0  3  0  0  0  0  0  0
  191.2990  178.5230  143.6140 S   0  0  0  0  0  0  0  0  0  0  0  0
  190.1960  175.0330  142.7390 O   0  0  0  0  0  0  0  0  0  0  0  0
  190.5500  176.1650  143.0200 C   0  0  0  0  0  0  0  0  0  0  0  0
  186.6900  178.2410  145.1890 C   0  0  0  0  0  0  0  0  0  0  0  0
  187.5750  178.3830  147.3630 C   0  0  0  0  0  2  0  0  0  0  0  0
  188.0880  177.9170  145.2020 C   0  0  0  0  0  0  0  0  0  0  0  0
  185.2780  177.4700  147.0640 C   0  0  0  0  0  1  0  0  0  0  0  0
  185.9620  178.3020  144.1150 N   0  0  0  0  0  0  0  0  0  0  0  0
  188.5930  177.9900  146.3860 N   0  0  0  0  0  0  0  0  0  0  0  0
  188.8490  177.5710  144.0410 N   0  0  0  0  0  2  0  0  0  0  0  0
  186.2560  178.5310  146.5860 C   0  0  2  0  0  3  0  0  0  0  0  0
  184.5570  178.6800  144.1080 C   0  0  0  0  0  2  0  0  0  0  0  0
  184.2210  179.4300  142.8290 C   0  0  0  0  0  2  0  0  0  0  0  0
  182.0680  178.6370  142.3300 O   0  0  0  0  0  0  0  0  0  0  0  0
  183.2290  178.7050  141.9610 C   0  0  0  0  0  0  0  0  0  0  0  0
  183.6790  177.9630  140.3840 S   0  0  0  0  0  0  0  0  0  0  0  0
  182.5170  178.6400  138.0840 C   0  0  2  0  0  3  0  0  0  0  0  0
  181.1260  177.6410  139.1410 C   0  0  0  0  0  2  0  0  0  0  0  0
  182.1920  178.6100  139.5680 C   0  0  1  0  0  0  0  0  0  0  0  0
  182.2590  179.9380  138.8320 C   0  0  2  0  0  3  0  0  0  0  0  0
  181.3950  177.8430  137.7820 O   0  0  0  0  0  0  0  0  0  0  0  0
  180.8730  180.5190  138.5440 C   0  0  0  0  0  2  0  0  0  0  0  0
  180.5520  181.1290  136.2050 C   0  0  0  0  0  2  0  0  0  0  0  0
  180.8870  181.5300  137.4250 C   0  0  0  0  0  0  0  0  0  0  0  0
  181.2530  182.9700  137.6350 C   0  0  0  0  0  1  0  0  0  0  0  0
  192.6970  176.7440  139.4680 C   0  0  0  0  0  0  0  0  0  0  0  0
  191.4790  176.6230  140.2070 N   0  0  0  0  0  2  0  0  0  0  0  0
  193.4310  177.7580  139.6060 O   0  0  0  0  0  0  0  0  0  0  0  0
  193.1910  175.4390  138.3470 S   0  0  0  0  0  0  0  0  0  0  0  0
  192.8300  176.4270  136.8640 C   0  0  0  0  0  2  0  0  0  0  0  0
  192.9910  175.3880  135.3820 S   0  0  0  0  0  0  0  0  0  0  0  0
  191.4570  174.5240  135.7150 C   0  0  0  0  0  0  0  0  0  0  0  0
  191.5000  173.2920  136.0970 N   0  0  0  0  0  2  0  0  0  0  0  0
  189.0740  174.8260  136.4400 N   0  0  0  0  0  2  0  0  0  0  0  0
  190.1700  175.2220  135.6060 C   0  0  0  0  0  0  0  0  0  0  0  0
  190.0340  176.1710  134.7850 O   0  0  0  0  0  0  0  0  0  0  0  0
  185.3170  175.1040  136.6870 C   0  0  1  0  0  3  0  0  0  0  0  0
  186.2000  178.6390  137.7870 O   0  0  0  0  0  1  0  0  0  0  0  0
  185.1030  176.2800  137.4320 O   0  0  0  0  0  0  0  0  0  0  0  0
  186.2760  177.3990  136.9210 P   0  0  2  0  0  0  0  0  0  0  0  0
  187.7980  176.6710  137.1240 O   0  0  0  0  0  0  0  0  0  0  0  0
  186.6940  174.4990  136.9690 C   0  0  0  0  0  2  0  0  0  0  0  0
  187.7590  175.4550  136.4180 C   0  0  2  0  0  3  0  0  0  0  0  0
  186.0290  177.8160  135.2980 O   0  0  0  0  0  0  0  0  0  0  0  0
  184.3260  174.1730  137.0030 O   0  0  0  0  0  0  0  0  0  0  0  0
  181.9490  173.8960  136.6080 C   0  0  1  0  0  3  0  0  0  0  0  0
  182.2270  174.6150  137.7920 O   0  0  0  0  0  0  0  0  0  0  0  0
  183.1190  174.8260  136.7240 C   0  0  1  0  0  3  0  0  0  0  0  0
  182.2470  172.3840  136.7540 C   0  0  1  0  0  3  0  0  0  0  0  0
  181.2670  171.7570  137.5210 O   0  0  0  0  0  1  0  0  0  0  0  0
  182.4700  171.6230  135.4500 C   0  0  0  0  0  2  0  0  0  0  0  0
  183.8180  171.2960  135.3160 O   0  0  0  0  0  1  0  0  0  0  0  0
  2 13  1  6  0  0  0
  3  1  1  6  0  0  0
  3  6  1  0  0  0  0
  3  4  1  0  0  0  0
  4  2  1  0  0  0  0
  5  6  2  0  0  0  0
  6  2  1  0  0  0  0
  7  9  1  0  0  0  0
  7 14  1  0  0  0  0
  9 12  2  0  0  0  0
 11  7  2  0  0  0  0
 12  8  1  0  0  0  0
 13  9  1  0  0  0  0
 14 10  1  1  0  0  0
 14  8  1  0  0  0  0
 15 11  1  0  0  0  0
 16 15  1  0  0  0  0
 18 17  2  0  0  0  0
 18 16  1  0  0  0  0
 19 18  1  0  0  0  0
 20 24  1  6  0  0  0
 20 23  1  0  0  0  0
 20 22  1  0  0  0  0
 21 22  1  0  0  0  0
 22 19  1  1  0  0  0
 23 25  1  6  0  0  0
 23 22  1  0  0  0  0
 24 21  1  0  0  0  0
 26 27  2  0  0  0  0
 27 28  1  0  0  0  0
 27 25  1  0  0  0  0
 29 31  2  0  0  0  0
 29 30  1  0  0  0  0
 30  1  1  0  0  0  0
 32 29  1  0  0  0  0
 33 32  1  0  0  0  0
 34 35  1  0  0  0  0
 34 33  1  0  0  0  0
 35 36  2  0  0  0  0
 38 35  1  0  0  0  0
 38 37  1  0  0  0  0
 39 38  2  0  0  0  0
 40 45  1  0  0  0  0
 40 48  1  1  0  0  0
 40 42  1  0  0  0  0
 43 47  2  6  0  0  0
 43 44  1  0  0  0  0
 43 42  1  0  0  0  0
 43 41  1  0  0  0  0
 46 37  1  1  0  0  0
 46 45  1  0  0  0  0
 46 44  1  0  0  0  0
 49 51  1  0  0  0  0
 49 52  1  1  0  0  0
 49 50  1  0  0  0  0
 51 48  1  1  0  0  0
 51 50  1  0  0  0  0
 52 53  1  6  0  0  0
 54 52  1  0  0  0  0
 55 54  1  0  0  0  0
M  END
>  <MODEL>
1

>  <REMARK>
 VINA RESULT:      -5.8      0.000      0.000
  Name = 
  20 active torsions:
  status: ('A' for Active; 'I' for Inactive)
    1  A    between atoms: C_1  and  C_18
    2  A    between atoms: C_2  and  N_44
    3  A    between atoms: C_3  and  O_22
    4  A    between atoms: C_5  and  N_24
    5  A    between atoms: C_6  and  C_18
    6  A    between atoms: S_8  and  C_16
    7  A    between atoms: S_8  and  C_23
    8  A    between atoms: N_10  and  C_35
    9  A    between atoms: C_16  and  C_31
   10  A    between atoms: O_22  and  C_49
   11  A    between atoms: C_23  and  S_34
   12  A    between atoms: N_24  and  N_29
   13  A    between atoms: C_25  and  S_34
   14  A    between atoms: C_27  and  C_28
   15  A    between atoms: C_27  and  C_40
   16  A    between atoms: C_28  and  N_42
   17  A    between atoms: C_32  and  S_47
   18  A    between atoms: C_36  and  C_55
   19  A    between atoms: C_38  and  C_55
   20  A    between atoms: C_40  and  S_47
                            x       y       z     vdW  Elec       q    Type
                         _______ _______ _______ _____ _____    ______ ____

>  <TORSDO>
F 20

$$$$
=
 OpenBabel11042411303D

 55 60  0  0  1  0  0  0  0  0999 V2000
  185.6760  178.4280  140.2740 N   0  0  0  0  0  2  0  0  0  0  0  0
  182.6300  178.9220  139.6940 C   0  0  2  0  0  3  0  0  0  0  0  0
  184.5730  179.3780  140.3570 C   0  0  1  0  0  3  0  0  0  0  0  0
  183.9230  179.6930  138.7130 S   0  0  0  0  0  0  0  0  0  0  0  0
  183.1010  178.2680  142.0970 O   0  0  0  0  0  0  0  0  0  0  0  0
  183.3690  178.7250  141.0000 C   0  0  0  0  0  0  0  0  0  0  0  0
  180.7140  175.6510  138.9370 C   0  0  0  0  0  0  0  0  0  0  0  0
  178.9750  176.5760  140.2220 C   0  0  0  0  0  2  0  0  0  0  0  0
  181.0570  176.9630  139.4080 C   0  0  0  0  0  0  0  0  0  0  0  0
  179.4620  174.1430  140.4410 C   0  0  0  0  0  1  0  0  0  0  0  0
  181.4640  174.9340  138.1550 N   0  0  0  0  0  0  0  0  0  0  0  0
  180.1150  177.4880  140.1130 N   0  0  0  0  0  0  0  0  0  0  0  0
  182.2890  177.6300  139.1170 N   0  0  0  0  0  2  0  0  0  0  0  0
  179.3620  175.2980  139.4570 C   0  0  2  0  0  3  0  0  0  0  0  0
  181.0840  173.6250  137.6450 C   0  0  0  0  0  2  0  0  0  0  0  0
  182.2020  173.0500  136.7880 C   0  0  0  0  0  2  0  0  0  0  0  0
  181.6020  172.4710  134.5940 O   0  0  0  0  0  0  0  0  0  0  0  0
  182.0350  173.3480  135.3230 C   0  0  0  0  0  0  0  0  0  0  0  0
  182.4150  174.9560  134.6090 S   0  0  0  0  0  0  0  0  0  0  0  0
  184.9170  175.8720  134.6370 C   0  0  2  0  0  3  0  0  0  0  0  0
  184.1660  176.2400  136.4680 C   0  0  0  0  0  2  0  0  0  0  0  0
  183.9750  175.0820  135.5300 C   0  0  1  0  0  0  0  0  0  0  0  0
  185.2270  174.4230  134.9750 C   0  0  2  0  0  3  0  0  0  0  0  0
  185.1400  176.8260  135.6500 O   0  0  0  0  0  0  0  0  0  0  0  0
  186.3320  174.2860  136.0260 C   0  0  0  0  0  2  0  0  0  0  0  0
  185.7880  171.9410  136.4160 C   0  0  0  0  0  2  0  0  0  0  0  0
  186.7390  172.8530  136.2570 C   0  0  0  0  0  0  0  0  0  0  0  0
  188.1730  172.4130  136.3060 C   0  0  0  0  0  1  0  0  0  0  0  0
  187.5010  178.5600  138.6080 C   0  0  0  0  0  0  0  0  0  0  0  0
  186.1190  178.4160  138.9450 N   0  0  0  0  0  2  0  0  0  0  0  0
  188.3650  178.7250  139.5100 O   0  0  0  0  0  0  0  0  0  0  0  0
  188.0110  178.4900  136.8940 S   0  0  0  0  0  0  0  0  0  0  0  0
  189.6870  177.9140  137.3030 C   0  0  0  0  0  2  0  0  0  0  0  0
  189.7000  176.1010  137.4170 S   0  0  0  0  0  0  0  0  0  0  0  0
  191.1210  176.0930  138.5070 C   0  0  0  0  0  0  0  0  0  0  0  0
  192.2280  175.5710  138.0930 N   0  0  0  0  0  2  0  0  0  0  0  0
  190.0680  176.2630  140.7780 N   0  0  0  0  0  2  0  0  0  0  0  0
  191.0460  176.7170  139.8340 C   0  0  0  0  0  0  0  0  0  0  0  0
  191.8470  177.6420  140.1420 O   0  0  0  0  0  0  0  0  0  0  0  0
  188.3750  177.1040  144.0470 C   0  0  1  0  0  3  0  0  0  0  0  0
  191.9490  176.8510  145.3310 O   0  0  0  0  0  1  0  0  0  0  0  0
  189.3410  176.8030  145.0270 O   0  0  0  0  0  0  0  0  0  0  0  0
  190.8430  177.2810  144.3900 P   0  0  2  0  0  0  0  0  0  0  0  0
  191.0410  176.4880  142.9000 O   0  0  0  0  0  0  0  0  0  0  0  0
  188.6100  176.3100  142.7590 C   0  0  0  0  0  2  0  0  0  0  0  0
  189.9130  176.8070  142.1220 C   0  0  2  0  0  3  0  0  0  0  0  0
  190.8890  178.9610  144.1790 O   0  0  0  0  0  0  0  0  0  0  0  0
  187.1050  176.8100  144.5480 O   0  0  0  0  0  0  0  0  0  0  0  0
  185.4450  178.5580  144.2840 C   0  0  1  0  0  3  0  0  0  0  0  0
  186.6010  178.7800  143.5050 O   0  0  0  0  0  0  0  0  0  0  0  0
  186.2180  177.4350  143.6620 C   0  0  1  0  0  3  0  0  0  0  0  0
  185.6900  178.8200  145.7890 C   0  0  1  0  0  3  0  0  0  0  0  0
  185.9220  180.1740  146.0270 O   0  0  0  0  0  1  0  0  0  0  0  0
  184.6210  178.2890  146.7390 C   0  0  0  0  0  2  0  0  0  0  0  0
  183.3530  178.6090  146.2540 O   0  0  0  0  0  1  0  0  0  0  0  0
  2 13  1  6  0  0  0
  2  6  1  0  0  0  0
  3  1  1  6  0  0  0
  3  6  1  0  0  0  0
  4  2  1  0  0  0  0
  4  3  1  0  0  0  0
  6  5  2  0  0  0  0
  7  9  1  0  0  0  0
  7 14  1  0  0  0  0
  9 12  2  0  0  0  0
 11  7  2  0  0  0  0
 12  8  1  0  0  0  0
 13  9  1  0  0  0  0
 14  8  1  0  0  0  0
 14 10  1  1  0  0  0
 15 11  1  0  0  0  0
 16 15  1  0  0  0  0
 17 18  2  0  0  0  0
 18 16  1  0  0  0  0
 19 18  1  0  0  0  0
 20 23  1  0  0  0  0
 20 22  1  0  0  0  0
 20 24  1  1  0  0  0
 22 19  1  6  0  0  0
 22 21  1  0  0  0  0
 23 22  1  0  0  0  0
 23 25  1  1  0  0  0
 24 21  1  0  0  0  0
 25 27  1  0  0  0  0
 27 28  1  0  0  0  0
 27 26  2  0  0  0  0
 29 30  1  0  0  0  0
 29 31  2  0  0  0  0
 30  1  1  0  0  0  0
 32 33  1  0  0  0  0
 32 29  1  0  0  0  0
 33 34  1  0  0  0  0
 34 35  1  0  0  0  0
 35 38  1  0  0  0  0
 36 35  2  0  0  0  0
 38 39  2  0  0  0  0
 38 37  1  0  0  0  0
 40 48  1  1  0  0  0
 40 42  1  0  0  0  0
 43 47  2  6  0  0  0
 43 42  1  0  0  0  0
 43 41  1  0  0  0  0
 44 43  1  0  0  0  0
 45 40  1  0  0  0  0
 46 37  1  6  0  0  0
 46 45  1  0  0  0  0
 46 44  1  0  0  0  0
 49 52  1  1  0  0  0
 50 51  1  0  0  0  0
 50 49  1  0  0  0  0
 51 49  1  0  0  0  0
 51 48  1  1  0  0  0
 52 53  1  6  0  0  0
 52 54  1  0  0  0  0
 55 54  1  0  0  0  0
M  END
>  <MODEL>
2

>  <REMARK>
 VINA RESULT:      -5.6      3.428      8.352
  Name = 
  20 active torsions:
  status: ('A' for Active; 'I' for Inactive)
    1  A    between atoms: C_1  and  C_18
    2  A    between atoms: C_2  and  N_44
    3  A    between atoms: C_3  and  O_22
    4  A    between atoms: C_5  and  N_24
    5  A    between atoms: C_6  and  C_18
    6  A    between atoms: S_8  and  C_16
    7  A    between atoms: S_8  and  C_23
    8  A    between atoms: N_10  and  C_35
    9  A    between atoms: C_16  and  C_31
   10  A    between atoms: O_22  and  C_49
   11  A    between atoms: C_23  and  S_34
   12  A    between atoms: N_24  and  N_29
   13  A    between atoms: C_25  and  S_34
   14  A    between atoms: C_27  and  C_28
   15  A    between atoms: C_27  and  C_40
   16  A    between atoms: C_28  and  N_42
   17  A    between atoms: C_32  and  S_47
   18  A    between atoms: C_36  and  C_55
   19  A    between atoms: C_38  and  C_55
   20  A    between atoms: C_40  and  S_47
                            x       y       z     vdW  Elec       q    Type
                         _______ _______ _______ _____ _____    ______ ____

>  <TORSDO>
F 20

$$$$
=
 OpenBabel11042411303D

 55 60  0  0  1  0  0  0  0  0999 V2000
  185.3500  177.7860  142.6690 N   0  0  0  0  0  2  0  0  0  0  0  0
  183.3320  179.0570  140.6270 C   0  0  2  0  0  3  0  0  0  0  0  0
  184.7230  179.0170  142.2030 C   0  0  1  0  0  3  0  0  0  0  0  0
  185.1090  179.2720  140.4680 S   0  0  0  0  0  0  0  0  0  0  0  0
  182.3190  178.6420  142.9130 O   0  0  0  0  0  0  0  0  0  0  0  0
  183.2230  178.8410  142.1210 C   0  0  0  0  0  0  0  0  0  0  0  0
  181.6320  176.7380  138.0440 C   0  0  0  0  0  0  0  0  0  0  0  0
  181.0160  178.7160  136.9310 C   0  0  0  0  0  2  0  0  0  0  0  0
  182.1350  177.8960  138.7270 C   0  0  0  0  0  0  0  0  0  0  0  0
  179.3790  176.8430  137.0360 C   0  0  0  0  0  1  0  0  0  0  0  0
  181.8730  175.5140  138.4040 N   0  0  0  0  0  0  0  0  0  0  0  0
  181.8090  178.9910  138.1310 N   0  0  0  0  0  0  0  0  0  0  0  0
  182.9250  177.8530  139.9190 N   0  0  0  0  0  2  0  0  0  0  0  0
  180.8480  177.1890  136.8580 C   0  0  2  0  0  3  0  0  0  0  0  0
  181.3980  174.3460  137.6760 C   0  0  0  0  0  2  0  0  0  0  0  0
  182.5340  173.3560  137.4720 C   0  0  0  0  0  2  0  0  0  0  0  0
  182.9500  174.4530  135.4390 O   0  0  0  0  0  0  0  0  0  0  0  0
  183.1740  173.4630  136.1150 C   0  0  0  0  0  0  0  0  0  0  0  0
  184.2850  172.2050  135.4640 S   0  0  0  0  0  0  0  0  0  0  0  0
  186.3470  172.8100  137.0400 C   0  0  2  0  0  3  0  0  0  0  0  0
  187.0640  172.7990  135.1590 C   0  0  0  0  0  2  0  0  0  0  0  0
  185.7450  173.2540  135.7170 C   0  0  1  0  0  0  0  0  0  0  0  0
  185.7830  174.2140  136.8950 C   0  0  2  0  0  3  0  0  0  0  0  0
  187.5930  172.5570  136.4330 O   0  0  0  0  0  0  0  0  0  0  0  0
  186.8750  175.2760  136.7500 C   0  0  0  0  0  2  0  0  0  0  0  0
  185.1480  176.9460  137.1730 C   0  0  0  0  0  2  0  0  0  0  0  0
  186.3160  176.6690  136.6050 C   0  0  0  0  0  0  0  0  0  0  0  0
  187.0280  177.7570  135.8560 C   0  0  0  0  0  1  0  0  0  0  0  0
  187.2640  177.2710  144.1510 C   0  0  0  0  0  0  0  0  0  0  0  0
  186.1920  178.1230  143.7380 N   0  0  0  0  0  2  0  0  0  0  0  0
  187.4670  176.1710  143.5720 O   0  0  0  0  0  0  0  0  0  0  0  0
  188.3350  177.7760  145.4940 S   0  0  0  0  0  0  0  0  0  0  0  0
  189.8410  177.2020  144.6520 C   0  0  0  0  0  2  0  0  0  0  0  0
  190.1270  178.2010  143.1610 S   0  0  0  0  0  0  0  0  0  0  0  0
  190.5670  176.7680  142.1810 C   0  0  0  0  0  0  0  0  0  0  0  0
  190.3760  175.5880  142.6700 N   0  0  0  0  0  2  0  0  0  0  0  0
  190.6020  176.0860  139.7660 N   0  0  0  0  0  2  0  0  0  0  0  0
  191.0890  176.9290  140.8170 C   0  0  0  0  0  0  0  0  0  0  0  0
  191.9570  177.8120  140.5750 O   0  0  0  0  0  0  0  0  0  0  0  0
  193.0010  176.1530  136.8510 C   0  0  1  0  0  3  0  0  0  0  0  0
  190.0010  174.6490  135.0560 O   0  0  0  0  0  0  0  0  0  0  0  0
  192.4000  175.3220  135.8860 O   0  0  0  0  0  0  0  0  0  0  0  0
  190.7270  175.6180  135.9650 P   0  0  2  0  0  0  0  0  0  0  0  0
  190.2380  175.3490  137.5700 O   0  0  0  0  0  0  0  0  0  0  0  0
  192.5320  175.8060  138.2660 C   0  0  0  0  0  2  0  0  0  0  0  0
  191.0460  176.1670  138.3800 C   0  0  2  0  0  3  0  0  0  0  0  0
  190.3850  177.2100  135.4990 O   0  0  0  0  0  1  0  0  0  0  0  0
  194.3890  176.0150  136.7750 O   0  0  0  0  0  0  0  0  0  0  0  0
  196.0530  174.2640  136.5700 C   0  0  1  0  0  3  0  0  0  0  0  0
  195.3890  174.2450  137.8160 O   0  0  0  0  0  0  0  0  0  0  0  0
  194.6080  174.6330  136.7120 C   0  0  1  0  0  3  0  0  0  0  0  0
  197.0620  175.4320  136.4580 C   0  0  1  0  0  3  0  0  0  0  0  0
  197.9990  175.3810  137.4890 O   0  0  0  0  0  1  0  0  0  0  0  0
  197.7610  175.5800  135.1100 C   0  0  0  0  0  2  0  0  0  0  0  0
  199.1320  175.3800  135.2610 O   0  0  0  0  0  1  0  0  0  0  0  0
  1 30  1  0  0  0  0
  2 13  1  6  0  0  0
  2  6  1  0  0  0  0
  3  1  1  6  0  0  0
  4  2  1  0  0  0  0
  4  3  1  0  0  0  0
  6  3  1  0  0  0  0
  6  5  2  0  0  0  0
  7 11  2  0  0  0  0
  7  9  1  0  0  0  0
  8 12  1  0  0  0  0
  9 13  1  0  0  0  0
 12  9  2  0  0  0  0
 14  8  1  0  0  0  0
 14 10  1  1  0  0  0
 14  7  1  0  0  0  0
 15 11  1  0  0  0  0
 16 15  1  0  0  0  0
 17 18  2  0  0  0  0
 18 16  1  0  0  0  0
 19 18  1  0  0  0  0
 20 24  1  6  0  0  0
 21 22  1  0  0  0  0
 21 24  1  0  0  0  0
 22 19  1  6  0  0  0
 22 23  1  0  0  0  0
 22 20  1  0  0  0  0
 23 25  1  6  0  0  0
 23 20  1  0  0  0  0
 27 25  1  0  0  0  0
 27 26  2  0  0  0  0
 28 27  1  0  0  0  0
 29 32  1  0  0  0  0
 30 29  1  0  0  0  0
 31 29  2  0  0  0  0
 33 32  1  0  0  0  0
 34 33  1  0  0  0  0
 35 36  2  0  0  0  0
 35 34  1  0  0  0  0
 37 38  1  0  0  0  0
 38 35  1  0  0  0  0
 39 38  2  0  0  0  0
 40 48  1  1  0  0  0
 40 45  1  0  0  0  0
 42 43  1  0  0  0  0
 42 40  1  0  0  0  0
 43 41  2  6  0  0  0
 43 44  1  0  0  0  0
 44 46  1  0  0  0  0
 45 46  1  0  0  0  0
 46 37  1  1  0  0  0
 47 43  1  0  0  0  0
 49 52  1  1  0  0  0
 49 51  1  0  0  0  0
 49 50  1  0  0  0  0
 51 48  1  1  0  0  0
 51 50  1  0  0  0  0
 52 53  1  1  0  0  0
 54 55  1  0  0  0  0
 54 52  1  0  0  0  0
M  END
>  <MODEL>
3

>  <REMARK>
 VINA RESULT:      -5.3      3.180      8.966
  Name = 
  20 active torsions:
  status: ('A' for Active; 'I' for Inactive)
    1  A    between atoms: C_1  and  C_18
    2  A    between atoms: C_2  and  N_44
    3  A    between atoms: C_3  and  O_22
    4  A    between atoms: C_5  and  N_24
    5  A    between atoms: C_6  and  C_18
    6  A    between atoms: S_8  and  C_16
    7  A    between atoms: S_8  and  C_23
    8  A    between atoms: N_10  and  C_35
    9  A    between atoms: C_16  and  C_31
   10  A    between atoms: O_22  and  C_49
   11  A    between atoms: C_23  and  S_34
   12  A    between atoms: N_24  and  N_29
   13  A    between atoms: C_25  and  S_34
   14  A    between atoms: C_27  and  C_28
   15  A    between atoms: C_27  and  C_40
   16  A    between atoms: C_28  and  N_42
   17  A    between atoms: C_32  and  S_47
   18  A    between atoms: C_36  and  C_55
   19  A    between atoms: C_38  and  C_55
   20  A    between atoms: C_40  and  S_47
                            x       y       z     vdW  Elec       q    Type
                         _______ _______ _______ _____ _____    ______ ____

>  <TORSDO>
F 20

$$$$
=
 OpenBabel11042411303D

 55 60  0  0  1  0  0  0  0  0999 V2000
  184.5870  178.7210  140.5720 N   0  0  0  0  0  2  0  0  0  0  0  0
  182.6880  177.8570  138.2250 C   0  0  2  0  0  3  0  0  0  0  0  0
  183.4280  179.0840  139.7640 C   0  0  1  0  0  3  0  0  0  0  0  0
  183.9020  179.1680  138.0340 S   0  0  0  0  0  0  0  0  0  0  0  0
  181.7400  177.3510  140.5210 O   0  0  0  0  0  0  0  0  0  0  0  0
  182.4440  177.9370  139.7160 C   0  0  0  0  0  0  0  0  0  0  0  0
  183.0990  174.2260  136.9650 C   0  0  0  0  0  0  0  0  0  0  0  0
  180.8970  174.4370  136.1680 C   0  0  0  0  0  2  0  0  0  0  0  0
  182.5720  175.5340  137.2360 C   0  0  0  0  0  0  0  0  0  0  0  0
  181.6000  172.2750  137.1850 C   0  0  0  0  0  1  0  0  0  0  0  0
  184.3130  173.8550  137.2410 N   0  0  0  0  0  0  0  0  0  0  0  0
  181.3650  175.6700  136.8050 N   0  0  0  0  0  0  0  0  0  0  0  0
  183.2980  176.5790  137.8890 N   0  0  0  0  0  2  0  0  0  0  0  0
  182.0440  173.4190  136.2880 C   0  0  2  0  0  3  0  0  0  0  0  0
  184.8520  172.5420  136.9170 C   0  0  0  0  0  2  0  0  0  0  0  0
  186.3120  172.4560  137.3350 C   0  0  0  0  0  2  0  0  0  0  0  0
  188.2180  171.7720  136.1470 O   0  0  0  0  0  0  0  0  0  0  0  0
  187.2640  172.5330  136.1730 C   0  0  0  0  0  0  0  0  0  0  0  0
  187.0350  173.6770  134.8030 S   0  0  0  0  0  0  0  0  0  0  0  0
  188.2670  176.0300  134.5940 C   0  0  2  0  0  3  0  0  0  0  0  0
  187.1320  176.1380  136.2530 C   0  0  0  0  0  2  0  0  0  0  0  0
  187.9240  175.0060  135.6630 C   0  0  1  0  0  0  0  0  0  0  0  0
  189.3780  175.2820  135.3140 C   0  0  2  0  0  3  0  0  0  0  0  0
  187.6170  177.0540  135.3120 O   0  0  0  0  0  0  0  0  0  0  0  0
  190.0800  176.1410  136.3690 C   0  0  0  0  0  2  0  0  0  0  0  0
  191.3200  174.3890  137.5250 C   0  0  0  0  0  2  0  0  0  0  0  0
  191.3720  175.5310  136.8500 C   0  0  0  0  0  0  0  0  0  0  0  0
  192.7120  176.1530  136.5880 C   0  0  0  0  0  1  0  0  0  0  0  0
  187.0200  178.5380  140.1630 C   0  0  0  0  0  0  0  0  0  0  0  0
  185.6680  178.5420  139.6980 N   0  0  0  0  0  2  0  0  0  0  0  0
  187.2790  178.7190  141.3820 O   0  0  0  0  0  0  0  0  0  0  0  0
  188.3570  178.2590  139.0050 S   0  0  0  0  0  0  0  0  0  0  0  0
  189.6360  178.3450  140.2950 C   0  0  0  0  0  2  0  0  0  0  0  0
  190.3370  176.6910  140.5720 S   0  0  0  0  0  0  0  0  0  0  0  0
  191.1760  177.2030  142.0690 C   0  0  0  0  0  0  0  0  0  0  0  0
  192.4620  177.0980  142.1380 N   0  0  0  0  0  2  0  0  0  0  0  0
  189.5610  176.9490  143.9720 N   0  0  0  0  0  2  0  0  0  0  0  0
  190.4210  177.7830  143.1870 C   0  0  0  0  0  0  0  0  0  0  0  0
  190.5360  179.0110  143.4560 O   0  0  0  0  0  0  0  0  0  0  0  0
  186.5660  178.2750  145.8510 C   0  0  1  0  0  3  0  0  0  0  0  0
  188.1780  176.3260  148.6950 O   0  0  0  0  0  1  0  0  0  0  0  0
  186.5250  177.5040  147.0290 O   0  0  0  0  0  0  0  0  0  0  0  0
  188.1380  177.2740  147.5150 P   0  0  2  0  0  0  0  0  0  0  0  0
  188.9680  176.5710  146.2090 O   0  0  0  0  0  0  0  0  0  0  0  0
  187.2940  177.5420  144.7210 C   0  0  0  0  0  2  0  0  0  0  0  0
  188.7730  177.4200  145.1050 C   0  0  2  0  0  3  0  0  0  0  0  0
  188.8450  178.7530  147.9410 O   0  0  0  0  0  0  0  0  0  0  0  0
  185.2620  178.5700  145.4490 O   0  0  0  0  0  0  0  0  0  0  0  0
  184.0440  178.9820  143.3930 C   0  0  1  0  0  3  0  0  0  0  0  0
  184.7540  180.1160  143.8450 O   0  0  0  0  0  0  0  0  0  0  0  0
  185.3680  178.8730  144.0860 C   0  0  1  0  0  3  0  0  0  0  0  0
  182.7870  178.6950  144.2490 C   0  0  1  0  0  3  0  0  0  0  0  0
  182.8690  179.3360  145.4840 O   0  0  0  0  0  1  0  0  0  0  0  0
  181.4470  178.9940  143.5820 C   0  0  0  0  0  2  0  0  0  0  0  0
  180.4020  178.6250  144.4270 O   0  0  0  0  0  1  0  0  0  0  0  0
  2 13  1  1  0  0  0
  2  6  1  0  0  0  0
  3  1  1  1  0  0  0
  4  2  1  0  0  0  0
  4  3  1  0  0  0  0
  6  3  1  0  0  0  0
  6  5  2  0  0  0  0
  7  9  1  0  0  0  0
  7 11  2  0  0  0  0
  8 14  1  0  0  0  0
  8 12  1  0  0  0  0
  9 13  1  0  0  0  0
 12  9  2  0  0  0  0
 14  7  1  0  0  0  0
 14 10  1  1  0  0  0
 15 11  1  0  0  0  0
 15 16  1  0  0  0  0
 17 18  2  0  0  0  0
 18 16  1  0  0  0  0
 19 18  1  0  0  0  0
 20 24  1  1  0  0  0
 20 23  1  0  0  0  0
 20 22  1  0  0  0  0
 22 19  1  6  0  0  0
 22 21  1  0  0  0  0
 23 22  1  0  0  0  0
 23 25  1  1  0  0  0
 24 21  1  0  0  0  0
 25 27  1  0  0  0  0
 27 26  2  0  0  0  0
 28 27  1  0  0  0  0
 29 31  2  0  0  0  0
 30 29  1  0  0  0  0
 30  1  1  0  0  0  0
 32 29  1  0  0  0  0
 32 33  1  0  0  0  0
 33 34  1  0  0  0  0
 34 35  1  0  0  0  0
 35 36  2  0  0  0  0
 35 38  1  0  0  0  0
 38 39  2  0  0  0  0
 38 37  1  0  0  0  0
 40 48  1  6  0  0  0
 40 42  1  0  0  0  0
 42 43  1  0  0  0  0
 43 47  2  1  0  0  0
 43 41  1  0  0  0  0
 44 43  1  0  0  0  0
 45 46  1  0  0  0  0
 45 40  1  0  0  0  0
 46 37  1  6  0  0  0
 46 44  1  0  0  0  0
 49 50  1  0  0  0  0
 49 51  1  0  0  0  0
 49 52  1  1  0  0  0
 50 51  1  0  0  0  0
 51 48  1  1  0  0  0
 52 53  1  1  0  0  0
 54 52  1  0  0  0  0
 54 55  1  0  0  0  0
M  END
>  <MODEL>
4

>  <REMARK>
 VINA RESULT:      -5.0      3.524      9.450
  Name = 
  20 active torsions:
  status: ('A' for Active; 'I' for Inactive)
    1  A    between atoms: C_1  and  C_18
    2  A    between atoms: C_2  and  N_44
    3  A    between atoms: C_3  and  O_22
    4  A    between atoms: C_5  and  N_24
    5  A    between atoms: C_6  and  C_18
    6  A    between atoms: S_8  and  C_16
    7  A    between atoms: S_8  and  C_23
    8  A    between atoms: N_10  and  C_35
    9  A    between atoms: C_16  and  C_31
   10  A    between atoms: O_22  and  C_49
   11  A    between atoms: C_23  and  S_34
   12  A    between atoms: N_24  and  N_29
   13  A    between atoms: C_25  and  S_34
   14  A    between atoms: C_27  and  C_28
   15  A    between atoms: C_27  and  C_40
   16  A    between atoms: C_28  and  N_42
   17  A    between atoms: C_32  and  S_47
   18  A    between atoms: C_36  and  C_55
   19  A    between atoms: C_38  and  C_55
   20  A    between atoms: C_40  and  S_47
                            x       y       z     vdW  Elec       q    Type
                         _______ _______ _______ _____ _____    ______ ____

>  <TORSDO>
F 20

$$$$
=
 OpenBabel11042411303D

 55 60  0  0  1  0  0  0  0  0999 V2000
  183.2520  175.4930  138.1360 N   0  0  0  0  0  2  0  0  0  0  0  0
  181.1060  177.5980  139.0430 C   0  0  2  0  0  3  0  0  0  0  0  0
  182.0040  176.1660  137.7930 C   0  0  1  0  0  3  0  0  0  0  0  0
  180.7720  175.8320  139.0560 S   0  0  0  0  0  0  0  0  0  0  0  0
  182.8140  178.5390  137.4230 O   0  0  0  0  0  0  0  0  0  0  0  0
  182.1560  177.6620  137.9550 C   0  0  0  0  0  0  0  0  0  0  0  0
  181.4030  178.7470  142.7220 C   0  0  0  0  0  0  0  0  0  0  0  0
  179.0720  178.4540  142.8210 C   0  0  0  0  0  2  0  0  0  0  0  0
  180.8860  178.2700  141.4700 C   0  0  0  0  0  0  0  0  0  0  0  0
  180.0840  180.4040  143.9930 C   0  0  0  0  0  1  0  0  0  0  0  0
  182.6640  178.9380  142.9680 N   0  0  0  0  0  0  0  0  0  0  0  0
  179.6090  178.1010  141.5040 N   0  0  0  0  0  0  0  0  0  0  0  0
  181.6880  177.9900  140.3180 N   0  0  0  0  0  2  0  0  0  0  0  0
  180.2650  178.9300  143.6670 C   0  0  2  0  0  3  0  0  0  0  0  0
  183.1810  179.3750  144.2570 C   0  0  0  0  0  2  0  0  0  0  0  0
  184.6920  179.5360  144.1900 C   0  0  0  0  0  2  0  0  0  0  0  0
  185.4970  179.7710  146.3820 O   0  0  0  0  0  0  0  0  0  0  0  0
  185.3950  179.0300  145.4190 C   0  0  0  0  0  0  0  0  0  0  0  0
  186.0610  177.3620  145.5380 S   0  0  0  0  0  0  0  0  0  0  0  0
  188.4400  176.5810  144.6270 C   0  0  2  0  0  3  0  0  0  0  0  0
  187.5210  177.4930  143.0850 C   0  0  0  0  0  2  0  0  0  0  0  0
  187.5260  177.7940  144.5570 C   0  0  1  0  0  0  0  0  0  0  0  0
  188.8800  177.9010  145.2400 C   0  0  2  0  0  3  0  0  0  0  0  0
  188.4830  176.4840  143.2210 O   0  0  0  0  0  0  0  0  0  0  0  0
  189.9130  178.6340  144.3810 C   0  0  0  0  0  2  0  0  0  0  0  0
  191.5990  177.8000  142.8290 C   0  0  0  0  0  2  0  0  0  0  0  0
  191.1170  177.7820  144.0660 C   0  0  0  0  0  0  0  0  0  0  0  0
  191.7980  176.9260  145.0920 C   0  0  0  0  0  1  0  0  0  0  0  0
  183.7160  174.1090  136.1370 C   0  0  0  0  0  0  0  0  0  0  0  0
  183.9490  175.2690  136.9400 N   0  0  0  0  0  2  0  0  0  0  0  0
  182.8820  173.2360  136.5000 O   0  0  0  0  0  0  0  0  0  0  0  0
  184.6040  173.8990  134.5970 S   0  0  0  0  0  0  0  0  0  0  0  0
  186.0240  173.0970  135.4000 C   0  0  0  0  0  2  0  0  0  0  0  0
  185.9250  171.2980  135.1630 S   0  0  0  0  0  0  0  0  0  0  0  0
  187.6550  171.0620  135.5610 C   0  0  0  0  0  0  0  0  0  0  0  0
  188.2290  169.9500  135.2420 N   0  0  0  0  0  2  0  0  0  0  0  0
  189.1740  173.0520  135.3790 N   0  0  0  0  0  2  0  0  0  0  0  0
  188.4280  172.1390  136.1940 C   0  0  0  0  0  0  0  0  0  0  0  0
  188.4270  172.2610  137.4500 O   0  0  0  0  0  0  0  0  0  0  0  0
  189.9070  176.3560  137.0540 C   0  0  1  0  0  3  0  0  0  0  0  0
  193.1240  174.5460  137.9820 O   0  0  0  0  0  1  0  0  0  0  0  0
  190.9940  176.0810  137.9060 O   0  0  0  0  0  0  0  0  0  0  0  0
  192.0070  175.0030  137.0670 P   0  0  2  0  0  0  0  0  0  0  0  0
  191.0660  173.6590  136.6250 O   0  0  0  0  0  0  0  0  0  0  0  0
  189.0950  175.0940  136.7480 C   0  0  0  0  0  2  0  0  0  0  0  0
  189.9660  174.1570  135.9030 C   0  0  2  0  0  3  0  0  0  0  0  0
  192.6580  175.7500  135.6930 O   0  0  0  0  0  0  0  0  0  0  0  0
  189.0800  177.3050  137.6570 O   0  0  0  0  0  0  0  0  0  0  0  0
  187.9630  179.0840  136.4430 C   0  0  1  0  0  3  0  0  0  0  0  0
  188.6700  179.5520  137.5730 O   0  0  0  0  0  0  0  0  0  0  0  0
  189.2530  178.4660  136.8930 C   0  0  1  0  0  3  0  0  0  0  0  0
  186.6640  178.3370  136.8300 C   0  0  1  0  0  3  0  0  0  0  0  0
  186.4390  177.2560  135.9790 O   0  0  0  0  0  1  0  0  0  0  0  0
  186.5590  177.8980  138.2870 C   0  0  0  0  0  2  0  0  0  0  0  0
  185.8900  178.8690  139.0300 O   0  0  0  0  0  1  0  0  0  0  0  0
  2  4  1  0  0  0  0
  2 13  1  1  0  0  0
  3  6  1  0  0  0  0
  3  1  1  1  0  0  0
  3  4  1  0  0  0  0
  5  6  2  0  0  0  0
  6  2  1  0  0  0  0
  7 11  2  0  0  0  0
  7 14  1  0  0  0  0
  8 14  1  0  0  0  0
  9 12  2  0  0  0  0
  9  7  1  0  0  0  0
 11 15  1  0  0  0  0
 12  8  1  0  0  0  0
 13  9  1  0  0  0  0
 14 10  1  6  0  0  0
 16 15  1  0  0  0  0
 16 18  1  0  0  0  0
 18 19  1  0  0  0  0
 18 17  2  0  0  0  0
 20 24  1  6  0  0  0
 20 23  1  0  0  0  0
 21 24  1  0  0  0  0
 21 22  1  0  0  0  0
 22 20  1  0  0  0  0
 22 23  1  0  0  0  0
 22 19  1  1  0  0  0
 23 25  1  6  0  0  0
 26 27  2  0  0  0  0
 27 25  1  0  0  0  0
 27 28  1  0  0  0  0
 29 31  2  0  0  0  0
 29 30  1  0  0  0  0
 30  1  1  0  0  0  0
 32 33  1  0  0  0  0
 32 29  1  0  0  0  0
 34 33  1  0  0  0  0
 34 35  1  0  0  0  0
 35 38  1  0  0  0  0
 36 35  2  0  0  0  0
 37 38  1  0  0  0  0
 38 39  2  0  0  0  0
 40 48  1  1  0  0  0
 40 42  1  0  0  0  0
 43 47  2  6  0  0  0
 43 42  1  0  0  0  0
 43 41  1  0  0  0  0
 44 43  1  0  0  0  0
 45 40  1  0  0  0  0
 46 37  1  1  0  0  0
 46 44  1  0  0  0  0
 46 45  1  0  0  0  0
 49 52  1  1  0  0  0
 49 51  1  0  0  0  0
 49 50  1  0  0  0  0
 51 50  1  0  0  0  0
 51 48  1  1  0  0  0
 52 53  1  6  0  0  0
 52 54  1  0  0  0  0
 54 55  1  0  0  0  0
M  END
>  <MODEL>
5

>  <REMARK>
 VINA RESULT:      -4.7      3.540      8.011
  Name = 
  20 active torsions:
  status: ('A' for Active; 'I' for Inactive)
    1  A    between atoms: C_1  and  C_18
    2  A    between atoms: C_2  and  N_44
    3  A    between atoms: C_3  and  O_22
    4  A    between atoms: C_5  and  N_24
    5  A    between atoms: C_6  and  C_18
    6  A    between atoms: S_8  and  C_16
    7  A    between atoms: S_8  and  C_23
    8  A    between atoms: N_10  and  C_35
    9  A    between atoms: C_16  and  C_31
   10  A    between atoms: O_22  and  C_49
   11  A    between atoms: C_23  and  S_34
   12  A    between atoms: N_24  and  N_29
   13  A    between atoms: C_25  and  S_34
   14  A    between atoms: C_27  and  C_28
   15  A    between atoms: C_27  and  C_40
   16  A    between atoms: C_28  and  N_42
   17  A    between atoms: C_32  and  S_47
   18  A    between atoms: C_36  and  C_55
   19  A    between atoms: C_38  and  C_55
   20  A    between atoms: C_40  and  S_47
                            x       y       z     vdW  Elec       q    Type
                         _______ _______ _______ _____ _____    ______ ____

>  <TORSDO>
F 20

$$$$
=
 OpenBabel11042411303D

 55 60  0  0  1  0  0  0  0  0999 V2000
  183.3260  175.3340  138.3220 N   0  0  0  0  0  2  0  0  0  0  0  0
  180.9530  177.2120  139.1590 C   0  0  2  0  0  3  0  0  0  0  0  0
  181.9880  175.8060  137.9870 C   0  0  1  0  0  3  0  0  0  0  0  0
  180.8600  175.4260  139.3320 S   0  0  0  0  0  0  0  0  0  0  0  0
  182.4570  178.2230  137.3860 O   0  0  0  0  0  0  0  0  0  0  0  0
  181.9430  177.3170  138.0190 C   0  0  0  0  0  0  0  0  0  0  0  0
  181.2240  178.7630  142.6890 C   0  0  0  0  0  0  0  0  0  0  0  0
  178.9330  178.2750  142.8910 C   0  0  0  0  0  2  0  0  0  0  0  0
  180.7260  178.1130  141.5100 C   0  0  0  0  0  0  0  0  0  0  0  0
  179.7860  180.4200  143.8250 C   0  0  0  0  0  1  0  0  0  0  0  0
  182.4670  179.0910  142.8740 N   0  0  0  0  0  0  0  0  0  0  0  0
  179.4710  177.8350  141.6020 N   0  0  0  0  0  0  0  0  0  0  0  0
  181.5240  177.7870  140.3680 N   0  0  0  0  0  2  0  0  0  0  0  0
  180.0950  178.9420  143.6460 C   0  0  2  0  0  3  0  0  0  0  0  0
  182.9700  179.7060  144.0940 C   0  0  0  0  0  2  0  0  0  0  0  0
  184.4890  179.7740  144.0610 C   0  0  0  0  0  2  0  0  0  0  0  0
  185.1870  178.1740  145.6300 O   0  0  0  0  0  0  0  0  0  0  0  0
  185.1470  178.4790  144.4490 C   0  0  0  0  0  0  0  0  0  0  0  0
  185.8470  177.3440  143.2400 S   0  0  0  0  0  0  0  0  0  0  0  0
  188.4270  176.6840  143.1640 C   0  0  2  0  0  3  0  0  0  0  0  0
  188.3330  178.6350  142.6780 C   0  0  0  0  0  2  0  0  0  0  0  0
  187.5470  177.8180  143.6640 C   0  0  1  0  0  0  0  0  0  0  0  0
  188.3350  176.9750  144.6540 C   0  0  2  0  0  3  0  0  0  0  0  0
  189.1970  177.5720  142.3870 O   0  0  0  0  0  0  0  0  0  0  0  0
  189.5700  177.7030  145.1890 C   0  0  0  0  0  2  0  0  0  0  0  0
  189.2480  176.7240  147.4000 C   0  0  0  0  0  2  0  0  0  0  0  0
  190.1080  177.0810  146.4540 C   0  0  0  0  0  0  0  0  0  0  0  0
  191.5710  176.8400  146.6820 C   0  0  0  0  0  1  0  0  0  0  0  0
  183.7880  174.2890  136.1270 C   0  0  0  0  0  0  0  0  0  0  0  0
  184.0600  175.2730  137.1290 N   0  0  0  0  0  2  0  0  0  0  0  0
  182.8850  173.4290  136.3030 O   0  0  0  0  0  0  0  0  0  0  0  0
  184.7280  174.2890  134.6040 S   0  0  0  0  0  0  0  0  0  0  0  0
  186.0980  173.3330  135.3230 C   0  0  0  0  0  2  0  0  0  0  0  0
  185.7560  171.5560  135.1600 S   0  0  0  0  0  0  0  0  0  0  0  0
  187.4590  171.1090  135.4880 C   0  0  0  0  0  0  0  0  0  0  0  0
  187.9260  170.0080  135.0010 N   0  0  0  0  0  2  0  0  0  0  0  0
  189.1910  172.9230  135.5690 N   0  0  0  0  0  2  0  0  0  0  0  0
  188.3300  172.0070  136.2570 C   0  0  0  0  0  0  0  0  0  0  0  0
  188.3130  171.9750  137.5180 O   0  0  0  0  0  0  0  0  0  0  0  0
  192.3920  174.7790  136.3220 C   0  0  1  0  0  3  0  0  0  0  0  0
  189.9310  177.4750  137.3960 O   0  0  0  0  0  0  0  0  0  0  0  0
  191.9870  176.1170  136.4900 O   0  0  0  0  0  0  0  0  0  0  0  0
  190.4990  176.0750  137.3120 P   0  0  2  0  0  0  0  0  0  0  0  0
  189.4440  175.1000  136.4050 O   0  0  0  0  0  0  0  0  0  0  0  0
  191.4030  173.9930  135.4570 C   0  0  0  0  0  2  0  0  0  0  0  0
  190.0880  173.8610  136.2340 C   0  0  2  0  0  3  0  0  0  0  0  0
  190.7010  175.4420  138.8700 O   0  0  0  0  0  1  0  0  0  0  0  0
  193.6540  174.7520  135.7260 O   0  0  0  0  0  0  0  0  0  0  0  0
  195.6590  174.9940  137.0690 C   0  0  1  0  0  3  0  0  0  0  0  0
  195.6940  175.7690  135.8890 O   0  0  0  0  0  0  0  0  0  0  0  0
  194.4310  175.6300  136.4930 C   0  0  1  0  0  3  0  0  0  0  0  0
  195.8570  173.4850  136.7880 C   0  0  1  0  0  3  0  0  0  0  0  0
  196.8910  173.2800  135.8760 O   0  0  0  0  0  1  0  0  0  0  0  0
  196.0480  172.6000  138.0160 C   0  0  0  0  0  2  0  0  0  0  0  0
  195.0770  172.8960  138.9710 O   0  0  0  0  0  1  0  0  0  0  0  0
  2  4  1  0  0  0  0
  2 13  1  1  0  0  0
  3  6  1  0  0  0  0
  3  1  1  1  0  0  0
  3  4  1  0  0  0  0
  5  6  2  0  0  0  0
  6  2  1  0  0  0  0
  7 11  2  0  0  0  0
  7 14  1  0  0  0  0
  8 14  1  0  0  0  0
  9 12  2  0  0  0  0
  9  7  1  0  0  0  0
 11 15  1  0  0  0  0
 12  8  1  0  0  0  0
 13  9  1  0  0  0  0
 14 10  1  6  0  0  0
 16 15  1  0  0  0  0
 16 18  1  0  0  0  0
 18 17  2  0  0  0  0
 19 18  1  0  0  0  0
 20 24  1  6  0  0  0
 20 22  1  0  0  0  0
 20 23  1  0  0  0  0
 21 22  1  0  0  0  0
 22 19  1  6  0  0  0
 22 23  1  0  0  0  0
 23 25  1  6  0  0  0
 24 21  1  0  0  0  0
 25 27  1  0  0  0  0
 27 28  1  0  0  0  0
 27 26  2  0  0  0  0
 29 31  2  0  0  0  0
 29 30  1  0  0  0  0
 30  1  1  0  0  0  0
 32 33  1  0  0  0  0
 32 29  1  0  0  0  0
 34 33  1  0  0  0  0
 34 35  1  0  0  0  0
 35 38  1  0  0  0  0
 36 35  2  0  0  0  0
 37 38  1  0  0  0  0
 38 39  2  0  0  0  0
 40 48  1  6  0  0  0
 40 42  1  0  0  0  0
 42 43  1  0  0  0  0
 43 41  2  1  0  0  0
 43 47  1  0  0  0  0
 44 43  1  0  0  0  0
 45 46  1  0  0  0  0
 45 40  1  0  0  0  0
 46 37  1  6  0  0  0
 46 44  1  0  0  0  0
 49 52  1  6  0  0  0
 50 51  1  0  0  0  0
 50 49  1  0  0  0  0
 51 48  1  6  0  0  0
 51 49  1  0  0  0  0
 52 53  1  6  0  0  0
 52 54  1  0  0  0  0
 54 55  1  0  0  0  0
M  END
>  <MODEL>
6

>  <REMARK>
 VINA RESULT:      -4.6      3.684      8.998
  Name = 
  20 active torsions:
  status: ('A' for Active; 'I' for Inactive)
    1  A    between atoms: C_1  and  C_18
    2  A    between atoms: C_2  and  N_44
    3  A    between atoms: C_3  and  O_22
    4  A    between atoms: C_5  and  N_24
    5  A    between atoms: C_6  and  C_18
    6  A    between atoms: S_8  and  C_16
    7  A    between atoms: S_8  and  C_23
    8  A    between atoms: N_10  and  C_35
    9  A    between atoms: C_16  and  C_31
   10  A    between atoms: O_22  and  C_49
   11  A    between atoms: C_23  and  S_34
   12  A    between atoms: N_24  and  N_29
   13  A    between atoms: C_25  and  S_34
   14  A    between atoms: C_27  and  C_28
   15  A    between atoms: C_27  and  C_40
   16  A    between atoms: C_28  and  N_42
   17  A    between atoms: C_32  and  S_47
   18  A    between atoms: C_36  and  C_55
   19  A    between atoms: C_38  and  C_55
   20  A    between atoms: C_40  and  S_47
                            x       y       z     vdW  Elec       q    Type
                         _______ _______ _______ _____ _____    ______ ____

>  <TORSDO>
F 20

$$$$
=
 OpenBabel11042411303D

 55 60  0  0  1  0  0  0  0  0999 V2000
  183.2320  178.1890  140.8600 N   0  0  0  0  0  2  0  0  0  0  0  0
  180.8060  177.8460  138.8970 C   0  0  2  0  0  3  0  0  0  0  0  0
  182.0560  178.8230  140.2770 C   0  0  1  0  0  3  0  0  0  0  0  0
  182.2220  178.8740  138.4890 S   0  0  0  0  0  0  0  0  0  0  0  0
  180.1930  177.4610  141.3260 O   0  0  0  0  0  0  0  0  0  0  0  0
  180.8530  177.9150  140.4080 C   0  0  0  0  0  0  0  0  0  0  0  0
  180.7530  174.6420  136.7350 C   0  0  0  0  0  0  0  0  0  0  0  0
  179.7370  175.9780  135.0880 C   0  0  0  0  0  2  0  0  0  0  0  0
  180.6140  176.0000  137.1800 C   0  0  0  0  0  0  0  0  0  0  0  0
  178.9330  173.6420  135.3980 C   0  0  0  0  0  1  0  0  0  0  0  0
  181.3360  173.7030  137.4180 N   0  0  0  0  0  0  0  0  0  0  0  0
  180.0600  176.7490  136.2900 N   0  0  0  0  0  0  0  0  0  0  0  0
  181.0540  176.4820  138.4540 N   0  0  0  0  0  2  0  0  0  0  0  0
  180.1680  174.5280  135.3690 C   0  0  2  0  0  3  0  0  0  0  0  0
  181.5150  172.3420  136.9350 C   0  0  0  0  0  2  0  0  0  0  0  0
  182.9600  171.9040  137.1210 C   0  0  0  0  0  2  0  0  0  0  0  0
  183.3960  172.8700  135.0260 O   0  0  0  0  0  0  0  0  0  0  0  0
  183.8020  172.1130  135.8920 C   0  0  0  0  0  0  0  0  0  0  0  0
  185.4010  171.3180  135.6650 S   0  0  0  0  0  0  0  0  0  0  0  0
  187.1680  172.7200  137.0830 C   0  0  2  0  0  3  0  0  0  0  0  0
  187.6120  173.0530  135.1480 C   0  0  0  0  0  2  0  0  0  0  0  0
  186.2940  172.8870  135.8500 C   0  0  1  0  0  0  0  0  0  0  0  0
  186.0480  173.7480  137.0790 C   0  0  2  0  0  3  0  0  0  0  0  0
  188.3290  173.0380  136.3510 O   0  0  0  0  0  0  0  0  0  0  0  0
  186.5620  175.1790  136.9040 C   0  0  0  0  0  2  0  0  0  0  0  0
  184.2460  175.8300  137.3040 C   0  0  0  0  0  2  0  0  0  0  0  0
  185.5140  176.2160  137.2180 C   0  0  0  0  0  0  0  0  0  0  0  0
  185.8430  177.6620  137.4470 C   0  0  0  0  0  1  0  0  0  0  0  0
  184.0390  178.9260  143.0810 C   0  0  0  0  0  0  0  0  0  0  0  0
  183.0900  178.2460  142.2540 N   0  0  0  0  0  2  0  0  0  0  0  0
  185.0500  179.4790  142.5730 O   0  0  0  0  0  0  0  0  0  0  0  0
  183.7800  179.0030  144.8510 S   0  0  0  0  0  0  0  0  0  0  0  0
  185.3990  179.7720  145.1620 C   0  0  0  0  0  2  0  0  0  0  0  0
  185.8330  179.5930  146.9170 S   0  0  0  0  0  0  0  0  0  0  0  0
  186.2830  177.8710  146.7200 C   0  0  0  0  0  0  0  0  0  0  0  0
  185.5910  176.9660  147.3290 N   0  0  0  0  0  2  0  0  0  0  0  0
  187.1970  177.4690  144.4190 N   0  0  0  0  0  2  0  0  0  0  0  0
  187.3920  177.4860  145.8380 C   0  0  0  0  0  0  0  0  0  0  0  0
  188.5120  177.1790  146.3300 O   0  0  0  0  0  0  0  0  0  0  0  0
  188.8680  177.0720  141.0560 C   0  0  1  0  0  3  0  0  0  0  0  0
  191.9990  177.5020  143.1760 O   0  0  0  0  0  1  0  0  0  0  0  0
  190.1910  177.5040  141.2720 O   0  0  0  0  0  0  0  0  0  0  0  0
  190.6380  176.9470  142.8150 P   0  0  2  0  0  0  0  0  0  0  0  0
  189.4880  177.5330  143.9200 O   0  0  0  0  0  0  0  0  0  0  0  0
  187.9010  177.6860  142.0710 C   0  0  0  0  0  2  0  0  0  0  0  0
  188.2290  177.1110  143.4540 C   0  0  2  0  0  3  0  0  0  0  0  0
  190.6800  175.2540  142.8440 O   0  0  0  0  0  0  0  0  0  0  0  0
  188.4740  177.4290  139.7650 O   0  0  0  0  0  0  0  0  0  0  0  0
  189.8860  178.4510  138.0790 C   0  0  1  0  0  3  0  0  0  0  0  0
  188.7080  179.1890  138.3270 O   0  0  0  0  0  0  0  0  0  0  0  0
  189.2670  178.5360  139.4410 C   0  0  1  0  0  3  0  0  0  0  0  0
  189.6120  177.1590  137.2710 C   0  0  1  0  0  3  0  0  0  0  0  0
  188.9630  177.4510  136.0730 O   0  0  0  0  0  1  0  0  0  0  0  0
  190.8220  176.2660  137.0180 C   0  0  0  0  0  2  0  0  0  0  0  0
  190.9960  176.0770  135.6480 O   0  0  0  0  0  1  0  0  0  0  0  0
  1 30  1  0  0  0  0
  2 13  1  1  0  0  0
  2  6  1  0  0  0  0
  3  6  1  0  0  0  0
  3  1  1  1  0  0  0
  4  2  1  0  0  0  0
  4  3  1  0  0  0  0
  6  5  2  0  0  0  0
  7  9  1  0  0  0  0
  7 11  2  0  0  0  0
  8 14  1  0  0  0  0
  8 12  1  0  0  0  0
  9 13  1  0  0  0  0
 12  9  2  0  0  0  0
 14 10  1  1  0  0  0
 14  7  1  0  0  0  0
 15 16  1  0  0  0  0
 15 11  1  0  0  0  0
 17 18  2  0  0  0  0
 18 16  1  0  0  0  0
 19 18  1  0  0  0  0
 20 24  1  6  0  0  0
 21 22  1  0  0  0  0
 21 24  1  0  0  0  0
 22 19  1  6  0  0  0
 22 23  1  0  0  0  0
 22 20  1  0  0  0  0
 23 25  1  6  0  0  0
 23 20  1  0  0  0  0
 25 27  1  0  0  0  0
 27 26  2  0  0  0  0
 27 28  1  0  0  0  0
 29 32  1  0  0  0  0
 30 29  1  0  0  0  0
 31 29  2  0  0  0  0
 32 33  1  0  0  0  0
 33 34  1  0  0  0  0
 35 34  1  0  0  0  0
 35 36  2  0  0  0  0
 37 38  1  0  0  0  0
 38 39  2  0  0  0  0
 38 35  1  0  0  0  0
 40 48  1  6  0  0  0
 40 42  1  0  0  0  0
 40 45  1  0  0  0  0
 42 43  1  0  0  0  0
 43 47  2  1  0  0  0
 43 41  1  0  0  0  0
 43 44  1  0  0  0  0
 45 46  1  0  0  0  0
 46 44  1  0  0  0  0
 46 37  1  1  0  0  0
 49 52  1  6  0  0  0
 49 50  1  0  0  0  0
 49 51  1  0  0  0  0
 50 51  1  0  0  0  0
 51 48  1  6  0  0  0
 52 53  1  6  0  0  0
 54 52  1  0  0  0  0
 55 54  1  0  0  0  0
M  END
>  <MODEL>
7

>  <REMARK>
 VINA RESULT:      -4.5      3.686      9.674
  Name = 
  20 active torsions:
  status: ('A' for Active; 'I' for Inactive)
    1  A    between atoms: C_1  and  C_18
    2  A    between atoms: C_2  and  N_44
    3  A    between atoms: C_3  and  O_22
    4  A    between atoms: C_5  and  N_24
    5  A    between atoms: C_6  and  C_18
    6  A    between atoms: S_8  and  C_16
    7  A    between atoms: S_8  and  C_23
    8  A    between atoms: N_10  and  C_35
    9  A    between atoms: C_16  and  C_31
   10  A    between atoms: O_22  and  C_49
   11  A    between atoms: C_23  and  S_34
   12  A    between atoms: N_24  and  N_29
   13  A    between atoms: C_25  and  S_34
   14  A    between atoms: C_27  and  C_28
   15  A    between atoms: C_27  and  C_40
   16  A    between atoms: C_28  and  N_42
   17  A    between atoms: C_32  and  S_47
   18  A    between atoms: C_36  and  C_55
   19  A    between atoms: C_38  and  C_55
   20  A    between atoms: C_40  and  S_47
                            x       y       z     vdW  Elec       q    Type
                         _______ _______ _______ _____ _____    ______ ____

>  <TORSDO>
F 20

$$$$
=
 OpenBabel11042411303D

 55 60  0  0  1  0  0  0  0  0999 V2000
  185.1090  178.6490  140.5810 N   0  0  0  0  0  2  0  0  0  0  0  0
  182.8400  178.1160  138.4780 C   0  0  2  0  0  3  0  0  0  0  0  0
  183.9630  179.2120  139.8780 C   0  0  1  0  0  3  0  0  0  0  0  0
  184.2560  179.1590  138.1070 S   0  0  0  0  0  0  0  0  0  0  0  0
  182.0640  177.8630  140.8770 O   0  0  0  0  0  0  0  0  0  0  0  0
  182.7760  178.2790  139.9810 C   0  0  0  0  0  0  0  0  0  0  0  0
  182.4070  174.4460  137.3450 C   0  0  0  0  0  0  0  0  0  0  0  0
  180.2160  175.0660  136.7590 C   0  0  0  0  0  2  0  0  0  0  0  0
  182.1740  175.8380  137.6080 C   0  0  0  0  0  0  0  0  0  0  0  0
  180.5910  172.8340  137.7970 C   0  0  0  0  0  1  0  0  0  0  0  0
  183.5490  173.8500  137.5170 N   0  0  0  0  0  0  0  0  0  0  0  0
  180.9780  176.1980  137.2920 N   0  0  0  0  0  0  0  0  0  0  0  0
  183.1530  176.7360  138.1400 N   0  0  0  0  0  2  0  0  0  0  0  0
  181.1520  173.8460  136.8110 C   0  0  2  0  0  3  0  0  0  0  0  0
  183.7870  172.4490  137.2000 C   0  0  0  0  0  2  0  0  0  0  0  0
  184.9940  172.3160  136.2840 C   0  0  0  0  0  2  0  0  0  0  0  0
  186.6910  173.7570  137.0280 O   0  0  0  0  0  0  0  0  0  0  0  0
  185.8140  173.5750  136.2000 C   0  0  0  0  0  0  0  0  0  0  0  0
  185.5760  174.8040  134.9080 S   0  0  0  0  0  0  0  0  0  0  0  0
  187.0050  177.0330  134.6000 C   0  0  2  0  0  3  0  0  0  0  0  0
  186.7100  176.8260  136.5800 C   0  0  0  0  0  2  0  0  0  0  0  0
  186.9650  175.8100  135.5030 C   0  0  1  0  0  0  0  0  0  0  0  0
  188.1620  176.0470  134.5950 C   0  0  2  0  0  3  0  0  0  0  0  0
  186.9100  177.9010  135.7060 O   0  0  0  0  0  0  0  0  0  0  0  0
  189.3820  176.5670  135.3580 C   0  0  0  0  0  2  0  0  0  0  0  0
  191.6570  176.0070  134.6790 C   0  0  0  0  0  2  0  0  0  0  0  0
  190.5520  175.6160  135.3010 C   0  0  0  0  0  0  0  0  0  0  0  0
  190.5220  174.2520  135.9270 C   0  0  0  0  0  1  0  0  0  0  0  0
  187.5300  178.6860  140.0700 C   0  0  0  0  0  0  0  0  0  0  0  0
  186.1650  178.5650  139.6630 N   0  0  0  0  0  2  0  0  0  0  0  0
  187.8220  178.8960  141.2770 O   0  0  0  0  0  0  0  0  0  0  0  0
  188.8380  178.5250  138.8570 S   0  0  0  0  0  0  0  0  0  0  0  0
  189.8100  177.3940  139.8970 C   0  0  0  0  0  2  0  0  0  0  0  0
  191.3790  176.9990  139.0700 S   0  0  0  0  0  0  0  0  0  0  0  0
  192.2970  177.0270  140.6080 C   0  0  0  0  0  0  0  0  0  0  0  0
  193.5750  177.2140  140.5750 N   0  0  0  0  0  2  0  0  0  0  0  0
  192.1700  177.4710  143.0740 N   0  0  0  0  0  2  0  0  0  0  0  0
  191.6020  176.8900  141.8940 C   0  0  0  0  0  0  0  0  0  0  0  0
  190.5040  176.2710  141.9550 O   0  0  0  0  0  0  0  0  0  0  0  0
  189.4950  177.7720  145.7220 C   0  0  1  0  0  3  0  0  0  0  0  0
  191.4770  174.9140  147.2680 O   0  0  0  0  0  0  0  0  0  0  0  0
  189.6150  176.5870  146.4740 O   0  0  0  0  0  0  0  0  0  0  0  0
  191.2790  176.2570  146.5980 P   0  0  2  0  0  0  0  0  0  0  0  0
  191.9030  176.1870  145.0180 O   0  0  0  0  0  0  0  0  0  0  0  0
  190.0430  177.5980  144.3030 C   0  0  0  0  0  2  0  0  0  0  0  0
  191.5610  177.4010  144.3960 C   0  0  2  0  0  3  0  0  0  0  0  0
  192.0580  177.4660  147.4910 O   0  0  0  0  0  1  0  0  0  0  0  0
  188.1510  178.1410  145.6590 O   0  0  0  0  0  0  0  0  0  0  0  0
  186.1210  177.5010  144.4970 C   0  0  1  0  0  3  0  0  0  0  0  0
  187.1240  177.9760  143.6240 O   0  0  0  0  0  0  0  0  0  0  0  0
  187.5780  177.2510  144.7410 C   0  0  1  0  0  3  0  0  0  0  0  0
  185.4640  178.6390  145.3140 C   0  0  1  0  0  3  0  0  0  0  0  0
  184.3910  179.1950  144.6190 O   0  0  0  0  0  1  0  0  0  0  0  0
  185.0470  178.2800  146.7370 C   0  0  0  0  0  2  0  0  0  0  0  0
  185.0760  179.4170  147.5420 O   0  0  0  0  0  1  0  0  0  0  0  0
  2 13  1  1  0  0  0
  2  6  1  0  0  0  0
  3  6  1  0  0  0  0
  3  1  1  1  0  0  0
  4  2  1  0  0  0  0
  4  3  1  0  0  0  0
  6  5  2  0  0  0  0
  7 11  2  0  0  0  0
  7  9  1  0  0  0  0
  8 14  1  0  0  0  0
  8 12  1  0  0  0  0
  9 13  1  0  0  0  0
 12  9  2  0  0  0  0
 14  7  1  0  0  0  0
 14 10  1  1  0  0  0
 15 11  1  0  0  0  0
 16 15  1  0  0  0  0
 18 16  1  0  0  0  0
 18 17  2  0  0  0  0
 19 18  1  0  0  0  0
 20 22  1  0  0  0  0
 20 24  1  1  0  0  0
 22 19  1  6  0  0  0
 22 21  1  0  0  0  0
 23 20  1  0  0  0  0
 23 25  1  1  0  0  0
 23 22  1  0  0  0  0
 24 21  1  0  0  0  0
 26 27  2  0  0  0  0
 27 25  1  0  0  0  0
 27 28  1  0  0  0  0
 29 31  2  0  0  0  0
 30 29  1  0  0  0  0
 30  1  1  0  0  0  0
 32 33  1  0  0  0  0
 32 29  1  0  0  0  0
 34 33  1  0  0  0  0
 34 35  1  0  0  0  0
 35 38  1  0  0  0  0
 36 35  2  0  0  0  0
 38 39  2  0  0  0  0
 38 37  1  0  0  0  0
 40 48  1  6  0  0  0
 40 42  1  0  0  0  0
 42 43  1  0  0  0  0
 43 41  2  1  0  0  0
 43 47  1  0  0  0  0
 44 43  1  0  0  0  0
 45 46  1  0  0  0  0
 45 40  1  0  0  0  0
 46 37  1  6  0  0  0
 46 44  1  0  0  0  0
 49 51  1  0  0  0  0
 49 52  1  1  0  0  0
 50 49  1  0  0  0  0
 50 51  1  0  0  0  0
 51 48  1  1  0  0  0
 52 53  1  6  0  0  0
 52 54  1  0  0  0  0
 54 55  1  0  0  0  0
M  END
>  <MODEL>
8

>  <REMARK>
 VINA RESULT:      -4.1      3.511      9.290
  Name = 
  20 active torsions:
  status: ('A' for Active; 'I' for Inactive)
    1  A    between atoms: C_1  and  C_18
    2  A    between atoms: C_2  and  N_44
    3  A    between atoms: C_3  and  O_22
    4  A    between atoms: C_5  and  N_24
    5  A    between atoms: C_6  and  C_18
    6  A    between atoms: S_8  and  C_16
    7  A    between atoms: S_8  and  C_23
    8  A    between atoms: N_10  and  C_35
    9  A    between atoms: C_16  and  C_31
   10  A    between atoms: O_22  and  C_49
   11  A    between atoms: C_23  and  S_34
   12  A    between atoms: N_24  and  N_29
   13  A    between atoms: C_25  and  S_34
   14  A    between atoms: C_27  and  C_28
   15  A    between atoms: C_27  and  C_40
   16  A    between atoms: C_28  and  N_42
   17  A    between atoms: C_32  and  S_47
   18  A    between atoms: C_36  and  C_55
   19  A    between atoms: C_38  and  C_55
   20  A    between atoms: C_40  and  S_47
                            x       y       z     vdW  Elec       q    Type
                         _______ _______ _______ _____ _____    ______ ____

>  <TORSDO>
F 20

$$$$
=
 OpenBabel11042411303D

 55 60  0  0  1  0  0  0  0  0999 V2000
  180.5980  175.6700  140.0790 N   0  0  0  0  0  2  0  0  0  0  0  0
  181.9370  178.5090  140.1300 C   0  0  2  0  0  3  0  0  0  0  0  0
  180.9280  176.8600  139.3040 C   0  0  1  0  0  3  0  0  0  0  0  0
  180.1540  178.3000  140.0490 S   0  0  0  0  0  0  0  0  0  0  0  0
  183.4560  176.7000  139.2130 O   0  0  0  0  0  0  0  0  0  0  0  0
  182.3870  177.2160  139.4880 C   0  0  0  0  0  0  0  0  0  0  0  0
  184.2050  178.5790  143.2590 C   0  0  0  0  0  0  0  0  0  0  0  0
  185.9870  178.8580  141.7500 C   0  0  0  0  0  2  0  0  0  0  0  0
  183.7340  178.6320  141.9050 C   0  0  0  0  0  0  0  0  0  0  0  0
  186.3170  177.3890  143.7330 C   0  0  0  0  0  1  0  0  0  0  0  0
  183.4330  178.4920  144.3000 N   0  0  0  0  0  0  0  0  0  0  0  0
  184.6960  178.7860  141.0610 N   0  0  0  0  0  0  0  0  0  0  0  0
  182.3570  178.5450  141.5230 N   0  0  0  0  0  2  0  0  0  0  0  0
  185.6920  178.6870  143.2500 C   0  0  2  0  0  3  0  0  0  0  0  0
  183.9190  178.4890  145.6730 C   0  0  0  0  0  2  0  0  0  0  0  0
  185.2480  179.2220  145.7600 C   0  0  0  0  0  2  0  0  0  0  0  0
  185.5490  178.1030  147.8020 O   0  0  0  0  0  0  0  0  0  0  0  0
  186.0540  178.8410  146.9710 C   0  0  0  0  0  0  0  0  0  0  0  0
  187.7460  179.4000  147.2270 S   0  0  0  0  0  0  0  0  0  0  0  0
  189.8680  177.7980  147.0370 C   0  0  2  0  0  3  0  0  0  0  0  0
  188.2760  176.5920  147.2940 C   0  0  0  0  0  2  0  0  0  0  0  0
  188.4370  177.8740  146.5270 C   0  0  1  0  0  0  0  0  0  0  0  0
  189.5990  177.9580  145.5490 C   0  0  2  0  0  3  0  0  0  0  0  0
  189.6430  176.5230  147.5930 O   0  0  0  0  0  0  0  0  0  0  0  0
  189.8030  176.6570  144.7700 C   0  0  0  0  0  2  0  0  0  0  0  0
  189.3490  176.8850  142.3850 C   0  0  0  0  0  2  0  0  0  0  0  0
  190.2580  176.8930  143.3520 C   0  0  0  0  0  0  0  0  0  0  0  0
  191.6920  177.1490  142.9900 C   0  0  0  0  0  1  0  0  0  0  0  0
  180.1840  173.9410  138.3580 C   0  0  0  0  0  0  0  0  0  0  0  0
  181.0220  174.5580  139.3400 N   0  0  0  0  0  2  0  0  0  0  0  0
  179.0210  174.3740  138.1460 O   0  0  0  0  0  0  0  0  0  0  0  0
  180.7980  172.5500  137.4120 S   0  0  0  0  0  0  0  0  0  0  0  0
  180.6820  173.4370  135.8290 C   0  0  0  0  0  2  0  0  0  0  0  0
  181.6790  174.9550  135.9040 S   0  0  0  0  0  0  0  0  0  0  0  0
  183.2220  174.0500  135.8090 C   0  0  0  0  0  0  0  0  0  0  0  0
  183.2650  172.9500  135.1340 N   0  0  0  0  0  2  0  0  0  0  0  0
  185.1600  175.6430  135.8210 N   0  0  0  0  0  2  0  0  0  0  0  0
  184.4360  174.5760  136.4460 C   0  0  0  0  0  0  0  0  0  0  0  0
  184.8320  174.0950  137.5430 O   0  0  0  0  0  0  0  0  0  0  0  0
  188.8480  176.1410  136.4620 C   0  0  1  0  0  3  0  0  0  0  0  0
  187.7320  179.7580  136.8500 O   0  0  0  0  0  0  0  0  0  0  0  0
  189.0350  177.5330  136.3570 O   0  0  0  0  0  0  0  0  0  0  0  0
  187.6690  178.2610  137.0610 P   0  0  2  0  0  0  0  0  0  0  0  0
  186.2980  177.6440  136.2690 O   0  0  0  0  0  0  0  0  0  0  0  0
  187.6160  175.6750  135.6810 C   0  0  0  0  0  2  0  0  0  0  0  0
  186.3700  176.2430  136.3710 C   0  0  2  0  0  3  0  0  0  0  0  0
  187.6030  177.9150  138.7180 O   0  0  0  0  0  1  0  0  0  0  0  0
  189.9810  175.4870  135.9740 O   0  0  0  0  0  0  0  0  0  0  0  0
  191.4750  174.1010  137.2890 C   0  0  1  0  0  3  0  0  0  0  0  0
  190.4600  174.7010  138.0660 O   0  0  0  0  0  0  0  0  0  0  0  0
  190.0930  174.3320  136.7590 C   0  0  1  0  0  3  0  0  0  0  0  0
  192.5630  175.1140  136.8580 C   0  0  1  0  0  3  0  0  0  0  0  0
  192.3580  176.3520  137.4650 O   0  0  0  0  0  1  0  0  0  0  0  0
  194.0060  174.6600  137.0500 C   0  0  0  0  0  2  0  0  0  0  0  0
  194.6330  174.5300  135.8120 O   0  0  0  0  0  1  0  0  0  0  0  0
  2 13  1  1  0  0  0
  3  6  1  0  0  0  0
  3  4  1  0  0  0  0
  3  1  1  1  0  0  0
  4  2  1  0  0  0  0
  5  6  2  0  0  0  0
  6  2  1  0  0  0  0
  7 11  2  0  0  0  0
  8 14  1  0  0  0  0
  9  7  1  0  0  0  0
 11 15  1  0  0  0  0
 12  8  1  0  0  0  0
 12  9  2  0  0  0  0
 13  9  1  0  0  0  0
 14  7  1  0  0  0  0
 14 10  1  6  0  0  0
 15 16  1  0  0  0  0
 16 18  1  0  0  0  0
 18 19  1  0  0  0  0
 18 17  2  0  0  0  0
 20 24  1  6  0  0  0
 21 24  1  0  0  0  0
 22 20  1  0  0  0  0
 22 19  1  1  0  0  0
 22 21  1  0  0  0  0
 23 25  1  6  0  0  0
 23 22  1  0  0  0  0
 23 20  1  0  0  0  0
 26 27  2  0  0  0  0
 27 25  1  0  0  0  0
 28 27  1  0  0  0  0
 29 30  1  0  0  0  0
 30  1  1  0  0  0  0
 31 29  2  0  0  0  0
 32 29  1  0  0  0  0
 33 34  1  0  0  0  0
 33 32  1  0  0  0  0
 35 34  1  0  0  0  0
 35 38  1  0  0  0  0
 36 35  2  0  0  0  0
 37 38  1  0  0  0  0
 38 39  2  0  0  0  0
 40 48  1  6  0  0  0
 42 40  1  0  0  0  0
 42 43  1  0  0  0  0
 43 41  2  6  0  0  0
 43 47  1  0  0  0  0
 44 46  1  0  0  0  0
 44 43  1  0  0  0  0
 45 46  1  0  0  0  0
 45 40  1  0  0  0  0
 46 37  1  6  0  0  0
 49 52  1  6  0  0  0
 49 50  1  0  0  0  0
 51 48  1  6  0  0  0
 51 49  1  0  0  0  0
 51 50  1  0  0  0  0
 52 54  1  0  0  0  0
 52 53  1  1  0  0  0
 55 54  1  0  0  0  0
M  END
>  <MODEL>
9

>  <REMARK>
 VINA RESULT:      -4.0      3.692      8.696
  Name = 
  20 active torsions:
  status: ('A' for Active; 'I' for Inactive)
    1  A    between atoms: C_1  and  C_18
    2  A    between atoms: C_2  and  N_44
    3  A    between atoms: C_3  and  O_22
    4  A    between atoms: C_5  and  N_24
    5  A    between atoms: C_6  and  C_18
    6  A    between atoms: S_8  and  C_16
    7  A    between atoms: S_8  and  C_23
    8  A    between atoms: N_10  and  C_35
    9  A    between atoms: C_16  and  C_31
   10  A    between atoms: O_22  and  C_49
   11  A    between atoms: C_23  and  S_34
   12  A    between atoms: N_24  and  N_29
   13  A    between atoms: C_25  and  S_34
   14  A    between atoms: C_27  and  C_28
   15  A    between atoms: C_27  and  C_40
   16  A    between atoms: C_28  and  N_42
   17  A    between atoms: C_32  and  S_47
   18  A    between atoms: C_36  and  C_55
   19  A    between atoms: C_38  and  C_55
   20  A    between atoms: C_40  and  S_47
                            x       y       z     vdW  Elec       q    Type
                         _______ _______ _______ _____ _____    ______ ____

>  <TORSDO>
F 20

$$$$
