=
 OpenBabel11042413013D

 40 45  0  0  1  0  0  0  0  0999 V2000
  186.9210  179.1220  147.4780 C   0  0  0  0  0  3  0  0  0  0  0  0
  182.9730  178.7420  141.8600 C   0  0  0  0  0  2  0  0  0  0  0  0
  186.3870  178.1980  142.7740 C   0  0  0  0  0  0  0  0  0  0  0  0
  190.9100  178.1440  141.4090 C   0  0  1  0  0  3  0  0  0  0  0  0
  190.0450  177.4350  143.6740 C   0  0  1  0  0  3  0  0  0  0  0  0
  184.4740  178.3640  143.8370 C   0  0  0  0  0  0  0  0  0  0  0  0
  186.5890  177.9130  145.3110 C   0  0  0  0  0  0  0  0  0  0  0  0
  186.3520  179.0310  146.2750 C   0  0  0  0  0  3  0  0  0  0  0  0
  189.6640  177.4290  140.8660 C   0  0  0  0  0  2  0  0  0  0  0  0
  187.9430  178.2140  148.0420 C   0  0  0  0  0  0  0  0  0  0  0  0
  188.0580  177.7750  144.9880 C   0  0  0  0  0  0  0  0  0  0  0  0
  187.8260  177.9890  142.5410 C   0  0  0  0  0  0  0  0  0  0  0  0
  185.8210  178.1640  144.0380 C   0  0  0  0  0  0  0  0  0  0  0  0
  188.8820  177.5830  147.3260 C   0  0  0  0  0  3  0  0  0  0  0  0
  184.3110  178.4950  142.4780 C   0  0  0  0  0  0  0  0  0  0  0  0
  187.9840  178.0780  149.4240 O   0  0  0  0  0  1  0  0  0  0  0  0
  188.3830  178.2040  141.1550 C   0  0  0  0  0  2  0  0  0  0  0  0
  189.0370  177.6030  145.8590 C   0  0  0  0  0  0  0  0  0  0  0  0
  190.3690  177.4440  145.1740 C   0  0  1  0  0  3  0  0  0  0  0  0
  183.3340  178.3320  144.8020 C   0  0  0  0  0  2  0  0  0  0  0  0
  181.9050  178.2920  142.7750 N   0  0  0  0  0  0  0  0  0  0  0  0
  185.4660  178.4050  141.8550 O   0  0  0  0  0  0  0  0  0  0  0  0
  188.5890  177.7530  143.6300 C   0  0  2  0  0  3  0  0  0  0  0  0
  190.8430  178.4780  142.9080 C   0  0  0  0  0  2  0  0  0  0  0  0
  182.0790  178.8880  144.1110 C   0  0  0  0  0  2  0  0  0  0  0  0
  191.0560  176.1700  145.5730 C   0  0  0  0  0  0  0  0  0  0  0  0
  191.1310  175.8760  146.7550 O   0  0  0  0  0  0  0  0  0  0  0  0
  191.6500  175.2550  144.5510 C   0  0  0  0  0  1  0  0  0  0  0  0
  180.6940  179.2450  140.9730 O   0  0  0  0  0  1  0  0  0  0  0  0
  180.5950  178.6990  142.2600 C   0  0  1  0  0  3  0  0  0  0  0  0
  179.7210  177.6090  142.2450 O   0  0  0  0  0  0  0  0  0  0  0  0
  179.2730  177.5300  140.9250 C   0  0  0  0  0  2  0  0  0  0  0  0
  179.3030  176.0880  140.4540 C   0  0  1  0  0  3  0  0  0  0  0  0
  180.6590  175.7870  139.8510 C   0  0  0  0  0  1  0  0  0  0  0  0
  179.0680  175.1990  141.5780 N   0  0  0  0  0  1  0  0  0  0  0  0
  192.0360  177.3590  141.1580 O   0  0  0  0  0  0  0  0  0  0  0  0
  191.9430  177.0180  139.8070 C   0  0  0  0  0  2  0  0  0  0  0  0
  193.3070  176.8820  139.2320 C   0  0  0  0  0  0  0  0  0  0  0  0
  193.4790  176.8420  137.8540 O   0  0  0  0  0  0  0  0  0  0  0  0
  194.3090  176.8420  139.9910 O   0  0  0  0  0  1  0  0  0  0  0  0
  1 10  1  0  0  0  0
  2 15  1  0  0  0  0
  2 21  1  0  0  0  0
  3 13  1  0  0  0  0
  4 36  1  1  0  0  0
  4 24  1  0  0  0  0
  5 24  1  6  0  0  0
  5 19  1  0  0  0  0
  6 13  1  0  0  0  0
  6 20  1  0  0  0  0
  7  8  1  0  0  0  0
  8  1  2  0  0  0  0
  9 17  1  0  0  0  0
  9  4  1  0  0  0  0
 10 16  1  0  0  0  0
 11  7  1  0  0  0  0
 11 18  2  0  0  0  0
 12  3  2  0  0  0  0
 13  7  2  0  0  0  0
 14 10  2  0  0  0  0
 15  6  2  0  0  0  0
 17 12  1  0  0  0  0
 18 14  1  0  0  0  0
 19 26  1  1  0  0  0
 19 18  1  0  0  0  0
 21 25  1  0  0  0  0
 22 15  1  0  0  0  0
 22  3  1  0  0  0  0
 23 12  1  6  0  0  0
 23  5  1  0  0  0  0
 23 11  1  0  0  0  0
 25 20  1  0  0  0  0
 26 27  2  0  0  0  0
 28 26  1  0  0  0  0
 30 29  1  6  0  0  0
 30 21  1  0  0  0  0
 31 30  1  0  0  0  0
 32 31  1  0  0  0  0
 33 34  1  1  0  0  0
 33 32  1  0  0  0  0
 33 35  1  0  0  0  0
 37 36  1  0  0  0  0
 38 37  1  0  0  0  0
 38 40  1  0  0  0  0
 39 38  2  0  0  0  0
M  END
>  <MODEL>
1

>  <REMARK>
 VINA RESULT:      -9.2      0.000      0.000
  Name = 
  8 active torsions:
  status: ('A' for Active; 'I' for Inactive)
    1  A    between atoms: O_3  and  C_4
    2  A    between atoms: O_3  and  C_19
    3  A    between atoms: C_4  and  C_25
    4  A    between atoms: C_6  and  O_38
    5  A    between atoms: C_7  and  C_30
    6  A    between atoms: C_15  and  C_20
    7  A    between atoms: C_19  and  N_33
    8  A    between atoms: C_20  and  O_38
                            x       y       z     vdW  Elec       q    Type
                         _______ _______ _______ _____ _____    ______ ____

>  <TORSDO>
F 8

$$$$
=
 OpenBabel11042413013D

 40 45  0  0  1  0  0  0  0  0999 V2000
  188.5960  176.7350  138.6350 C   0  0  0  0  0  3  0  0  0  0  0  0
  182.4940  179.2400  140.5810 C   0  0  0  0  0  2  0  0  0  0  0  0
  185.6530  178.4410  142.0550 C   0  0  0  0  0  0  0  0  0  0  0  0
  188.0150  177.1270  145.9290 C   0  0  1  0  0  3  0  0  0  0  0  0
  189.0520  177.7630  143.7160 C   0  0  1  0  0  3  0  0  0  0  0  0
  184.9020  178.7950  140.0230 C   0  0  0  0  0  0  0  0  0  0  0  0
  187.4570  178.2780  140.2450 C   0  0  0  0  0  0  0  0  0  0  0  0
  187.4870  177.1850  139.2250 C   0  0  0  0  0  3  0  0  0  0  0  0
  187.0580  178.2970  145.6570 C   0  0  0  0  0  2  0  0  0  0  0  0
  189.9840  177.1460  138.9340 C   0  0  0  0  0  0  0  0  0  0  0  0
  188.3420  177.9460  141.4240 C   0  0  0  0  0  0  0  0  0  0  0  0
  186.5970  178.1720  143.1530 C   0  0  0  0  0  0  0  0  0  0  0  0
  186.0450  178.4890  140.7270 C   0  0  1  0  0  3  0  0  0  0  0  0
  190.4290  177.5090  140.1450 C   0  0  0  0  0  3  0  0  0  0  0  0
  183.9040  178.9220  140.9610 C   0  0  0  0  0  0  0  0  0  0  0  0
  190.9120  177.0630  137.9040 O   0  0  0  0  0  1  0  0  0  0  0  0
  186.0590  177.9780  144.5500 C   0  0  0  0  0  2  0  0  0  0  0  0
  189.6270  177.6460  141.3760 C   0  0  0  0  0  0  0  0  0  0  0  0
  190.2000  177.4310  142.7530 C   0  0  1  0  0  3  0  0  0  0  0  0
  184.7040  179.0810  138.5710 C   0  0  0  0  0  2  0  0  0  0  0  0
  182.4660  179.8970  139.2590 N   0  0  0  0  0  0  0  0  0  0  0  0
  184.3650  178.6950  142.1720 O   0  0  0  0  0  0  0  0  0  0  0  0
  187.8870  177.9750  142.8100 C   0  0  0  0  0  0  0  0  0  0  0  0
  188.7720  176.6290  144.6880 C   0  0  0  0  0  2  0  0  0  0  0  0
  183.1980  179.0950  138.2640 C   0  0  0  0  0  2  0  0  0  0  0  0
  191.3810  178.3210  143.0130 C   0  0  0  0  0  0  0  0  0  0  0  0
  192.4340  178.1010  142.4370 O   0  0  0  0  0  0  0  0  0  0  0  0
  191.2920  179.4700  143.9650 C   0  0  0  0  0  1  0  0  0  0  0  0
  180.2540  180.5500  139.8080 O   0  0  0  0  0  1  0  0  0  0  0  0
  181.0810  180.0430  138.7980 C   0  0  1  0  0  3  0  0  0  0  0  0
  181.0300  180.8780  137.6800 O   0  0  0  0  0  0  0  0  0  0  0  0
  181.1710  182.1690  138.1950 C   0  0  0  0  0  2  0  0  0  0  0  0
  180.6480  183.1830  137.1950 C   0  0  1  0  0  3  0  0  0  0  0  0
  181.5350  184.4110  137.2170 C   0  0  0  0  0  1  0  0  0  0  0  0
  180.6560  182.6080  135.8610 N   0  0  0  0  0  1  0  0  0  0  0  0
  188.9330  177.5040  146.9120 O   0  0  0  0  0  0  0  0  0  0  0  0
  189.7230  176.3700  147.1190 C   0  0  0  0  0  2  0  0  0  0  0  0
  191.1580  176.7580  147.1230 C   0  0  0  0  0  0  0  0  0  0  0  0
  191.9440  176.5200  146.0030 O   0  0  0  0  0  0  0  0  0  0  0  0
  191.6520  177.3350  148.1250 O   0  0  0  0  0  1  0  0  0  0  0  0
  1 10  2  0  0  0  0
  1  8  1  0  0  0  0
  2 15  1  0  0  0  0
  3 22  1  0  0  0  0
  3 12  2  0  0  0  0
  4 36  1  1  0  0  0
  5 24  1  1  0  0  0
  6 15  2  0  0  0  0
  7 13  1  0  0  0  0
  7 11  1  0  0  0  0
  8  7  2  0  0  0  0
  9  4  1  0  0  0  0
 10 14  1  0  0  0  0
 11 23  2  0  0  0  0
 12 17  1  0  0  0  0
 13  6  1  1  0  0  0
 13  3  1  0  0  0  0
 14 18  2  0  0  0  0
 15 22  1  0  0  0  0
 16 10  1  0  0  0  0
 17  9  1  0  0  0  0
 18 11  1  0  0  0  0
 18 19  1  0  0  0  0
 19 26  1  1  0  0  0
 19  5  1  0  0  0  0
 20  6  1  0  0  0  0
 21  2  1  0  0  0  0
 23 12  1  0  0  0  0
 23  5  1  0  0  0  0
 24  4  1  0  0  0  0
 25 20  1  0  0  0  0
 25 21  1  0  0  0  0
 26 28  1  0  0  0  0
 27 26  2  0  0  0  0
 30 21  1  0  0  0  0
 30 29  1  1  0  0  0
 31 32  1  0  0  0  0
 31 30  1  0  0  0  0
 33 34  1  6  0  0  0
 33 32  1  0  0  0  0
 35 33  1  0  0  0  0
 36 37  1  0  0  0  0
 37 38  1  0  0  0  0
 38 40  1  0  0  0  0
 39 38  2  0  0  0  0
M  END
>  <MODEL>
2

>  <REMARK>
 VINA RESULT:      -8.2      2.929      5.901
  Name = 
  8 active torsions:
  status: ('A' for Active; 'I' for Inactive)
    1  A    between atoms: O_3  and  C_4
    2  A    between atoms: O_3  and  C_19
    3  A    between atoms: C_4  and  C_25
    4  A    between atoms: C_6  and  O_38
    5  A    between atoms: C_7  and  C_30
    6  A    between atoms: C_15  and  C_20
    7  A    between atoms: C_19  and  N_33
    8  A    between atoms: C_20  and  O_38
                            x       y       z     vdW  Elec       q    Type
                         _______ _______ _______ _____ _____    ______ ____

>  <TORSDO>
F 8

$$$$
=
 OpenBabel11042413013D

 40 45  0  0  1  0  0  0  0  0999 V2000
  186.7240  178.7280  146.2350 C   0  0  0  0  0  3  0  0  0  0  0  0
  182.1820  179.2360  141.0950 C   0  0  0  0  0  2  0  0  0  0  0  0
  185.6150  178.3450  141.5560 C   0  0  0  0  0  0  0  0  0  0  0  0
  189.9450  178.0990  139.6830 C   0  0  1  0  0  3  0  0  0  0  0  0
  189.2690  177.2220  141.9530 C   0  0  1  0  0  3  0  0  0  0  0  0
  183.8470  178.5420  142.8420 C   0  0  0  0  0  0  0  0  0  0  0  0
  186.0600  177.7820  144.0130 C   0  0  0  0  0  0  0  0  0  0  0  0
  186.0240  178.8070  145.1010 C   0  0  0  0  0  3  0  0  0  0  0  0
  188.5920  177.5390  139.2200 C   0  0  0  0  0  2  0  0  0  0  0  0
  187.7180  177.6930  146.5880 C   0  0  0  0  0  0  0  0  0  0  0  0
  187.4700  177.5690  143.5130 C   0  0  0  0  0  0  0  0  0  0  0  0
  186.9980  178.0560  141.1410 C   0  0  0  0  0  0  0  0  0  0  0  0
  185.1860  178.2220  142.8670 C   0  0  0  0  0  0  0  0  0  0  0  0
  188.5190  177.0720  145.7110 C   0  0  0  0  0  3  0  0  0  0  0  0
  183.5520  178.8260  141.5300 C   0  0  0  0  0  0  0  0  0  0  0  0
  187.8940  177.4100  147.9360 O   0  0  0  0  0  1  0  0  0  0  0  0
  187.4200  178.3730  139.7260 C   0  0  0  0  0  2  0  0  0  0  0  0
  188.5170  177.2340  144.2450 C   0  0  0  0  0  0  0  0  0  0  0  0
  189.7510  177.0490  143.4000 C   0  0  1  0  0  3  0  0  0  0  0  0
  182.8180  178.4930  143.9230 C   0  0  0  0  0  2  0  0  0  0  0  0
  181.1830  178.7730  142.0790 N   0  0  0  0  0  0  0  0  0  0  0  0
  184.6220  178.7170  140.7720 O   0  0  0  0  0  0  0  0  0  0  0  0
  187.8490  177.6510  142.1070 C   0  0  2  0  0  3  0  0  0  0  0  0
  190.0670  178.2770  141.2040 C   0  0  0  0  0  2  0  0  0  0  0  0
  181.5480  179.2110  143.4370 C   0  0  0  0  0  2  0  0  0  0  0  0
  190.3640  175.6920  143.5940 C   0  0  0  0  0  0  0  0  0  0  0  0
  189.7860  174.7080  143.1610 O   0  0  0  0  0  0  0  0  0  0  0  0
  191.6660  175.5230  144.3070 C   0  0  0  0  0  1  0  0  0  0  0  0
  179.7860  180.6880  142.0850 O   0  0  0  0  0  1  0  0  0  0  0  0
  179.8650  179.3290  141.7590 C   0  0  1  0  0  3  0  0  0  0  0  0
  179.5820  179.1500  140.4020 O   0  0  0  0  0  0  0  0  0  0  0  0
  178.9310  180.3240  140.0170 C   0  0  0  0  0  2  0  0  0  0  0  0
  179.1010  180.5440  138.5260 C   0  0  1  0  0  3  0  0  0  0  0  0
  179.3020  182.0200  138.2570 C   0  0  0  0  0  1  0  0  0  0  0  0
  180.2580  179.8060  138.0490 N   0  0  0  0  0  1  0  0  0  0  0  0
  190.9670  177.2620  139.2300 O   0  0  0  0  0  0  0  0  0  0  0  0
  190.3300  176.3300  138.4080 C   0  0  0  0  0  2  0  0  0  0  0  0
  191.3300  175.6870  137.5160 C   0  0  0  0  0  0  0  0  0  0  0  0
  192.0220  174.5610  137.9450 O   0  0  0  0  0  1  0  0  0  0  0  0
  191.5240  176.1380  136.3580 O   0  0  0  0  0  0  0  0  0  0  0  0
  1 10  1  0  0  0  0
  2 15  1  0  0  0  0
  2 21  1  0  0  0  0
  3 13  1  0  0  0  0
  4 36  1  1  0  0  0
  4 24  1  0  0  0  0
  5 24  1  1  0  0  0
  5 23  1  0  0  0  0
  5 19  1  0  0  0  0
  6 13  1  0  0  0  0
  6 20  1  0  0  0  0
  7  8  1  0  0  0  0
  8  1  2  0  0  0  0
  9  4  1  0  0  0  0
  9 17  1  0  0  0  0
 10 16  1  0  0  0  0
 11  7  1  0  0  0  0
 11 18  2  0  0  0  0
 12  3  2  0  0  0  0
 13  7  2  0  0  0  0
 14 10  2  0  0  0  0
 15  6  2  0  0  0  0
 17 12  1  0  0  0  0
 18 14  1  0  0  0  0
 19 26  1  6  0  0  0
 19 18  1  0  0  0  0
 21 25  1  0  0  0  0
 22 15  1  0  0  0  0
 22  3  1  0  0  0  0
 23 12  1  6  0  0  0
 23 11  1  0  0  0  0
 25 20  1  0  0  0  0
 26 28  1  0  0  0  0
 27 26  2  0  0  0  0
 30 21  1  0  0  0  0
 30 29  1  6  0  0  0
 31 30  1  0  0  0  0
 32 31  1  0  0  0  0
 33 34  1  1  0  0  0
 33 32  1  0  0  0  0
 35 33  1  0  0  0  0
 37 36  1  0  0  0  0
 38 39  1  0  0  0  0
 38 37  1  0  0  0  0
 40 38  2  0  0  0  0
M  END
>  <MODEL>
3

>  <REMARK>
 VINA RESULT:      -8.0      2.047      2.496
  Name = 
  8 active torsions:
  status: ('A' for Active; 'I' for Inactive)
    1  A    between atoms: O_3  and  C_4
    2  A    between atoms: O_3  and  C_19
    3  A    between atoms: C_4  and  C_25
    4  A    between atoms: C_6  and  O_38
    5  A    between atoms: C_7  and  C_30
    6  A    between atoms: C_15  and  C_20
    7  A    between atoms: C_19  and  N_33
    8  A    between atoms: C_20  and  O_38
                            x       y       z     vdW  Elec       q    Type
                         _______ _______ _______ _____ _____    ______ ____

>  <TORSDO>
F 8

$$$$
=
 OpenBabel11042413013D

 40 45  0  0  1  0  0  0  0  0999 V2000
  189.0970  178.8150  139.1900 C   0  0  0  0  0  3  0  0  0  0  0  0
  187.1940  178.1060  145.7610 C   0  0  0  0  0  2  0  0  0  0  0  0
  185.6610  178.2930  142.5350 C   0  0  0  0  0  0  0  0  0  0  0  0
  181.8430  179.4590  140.0080 C   0  0  1  0  0  3  0  0  0  0  0  0
  183.9170  178.3290  139.1110 C   0  0  1  0  0  3  0  0  0  0  0  0
  187.6760  177.8880  143.3060 C   0  0  0  0  0  0  0  0  0  0  0  0
  187.3840  177.7980  140.7070 C   0  0  0  0  0  0  0  0  0  0  0  0
  188.5180  178.7200  140.3890 C   0  0  0  0  0  3  0  0  0  0  0  0
  182.0310  178.5290  141.2170 C   0  0  0  0  0  2  0  0  0  0  0  0
  188.6840  178.1220  137.9520 C   0  0  0  0  0  0  0  0  0  0  0  0
  186.2070  178.0480  139.7940 C   0  0  1  0  0  3  0  0  0  0  0  0
  184.5540  178.4580  141.5790 C   0  0  0  0  0  0  0  0  0  0  0  0
  186.9540  177.9930  142.1390 C   0  0  0  0  0  0  0  0  0  0  0  0
  187.4200  177.8110  137.6370 C   0  0  0  0  0  3  0  0  0  0  0  0
  186.7820  178.1190  144.3250 C   0  0  0  0  0  0  0  0  0  0  0  0
  189.6690  177.8540  137.0100 O   0  0  0  0  0  1  0  0  0  0  0  0
  183.2160  178.9430  142.0830 C   0  0  0  0  0  2  0  0  0  0  0  0
  186.2230  178.0210  138.4740 C   0  0  0  0  0  0  0  0  0  0  0  0
  184.8510  178.2570  137.8960 C   0  0  1  0  0  3  0  0  0  0  0  0
  189.0950  177.4840  143.5360 C   0  0  0  0  0  2  0  0  0  0  0  0
  188.4340  177.3200  145.9210 N   0  0  0  0  0  0  0  0  0  0  0  0
  185.5820  178.3720  143.8490 O   0  0  0  0  0  0  0  0  0  0  0  0
  184.8510  178.2960  140.2720 C   0  0  0  0  0  0  0  0  0  0  0  0
  183.0930  179.6060  139.1260 C   0  0  0  0  0  2  0  0  0  0  0  0
  189.4750  177.7970  144.9930 C   0  0  0  0  0  2  0  0  0  0  0  0
  184.4340  177.1470  136.9750 C   0  0  0  0  0  0  0  0  0  0  0  0
  184.3610  177.3610  135.7760 O   0  0  0  0  0  0  0  0  0  0  0  0
  184.1040  175.7860  137.4980 C   0  0  0  0  0  1  0  0  0  0  0  0
  187.9070  177.6560  148.2080 O   0  0  0  0  0  1  0  0  0  0  0  0
  188.9450  177.4570  147.2880 C   0  0  1  0  0  3  0  0  0  0  0  0
  189.6830  176.3250  147.6430 O   0  0  0  0  0  0  0  0  0  0  0  0
  191.0110  176.7570  147.6580 C   0  0  0  0  0  2  0  0  0  0  0  0
  191.9390  175.5800  147.4260 C   0  0  1  0  0  3  0  0  0  0  0  0
  192.2370  175.4610  145.9460 C   0  0  0  0  0  1  0  0  0  0  0  0
  193.1810  175.7830  148.1520 N   0  0  0  0  0  1  0  0  0  0  0  0
  180.7790  178.9940  139.2330 O   0  0  0  0  0  0  0  0  0  0  0  0
  179.6370  179.2790  139.9840 C   0  0  0  0  0  2  0  0  0  0  0  0
  179.4150  180.7480  140.0160 C   0  0  0  0  0  0  0  0  0  0  0  0
  179.4530  181.4300  141.2260 O   0  0  0  0  0  1  0  0  0  0  0  0
  179.2310  181.3810  138.9450 O   0  0  0  0  0  0  0  0  0  0  0  0
  1  8  1  0  0  0  0
  2 21  1  0  0  0  0
  3 22  1  0  0  0  0
  4 36  1  6  0  0  0
  4  9  1  0  0  0  0
  5 24  1  6  0  0  0
  5 23  1  0  0  0  0
  6 20  1  0  0  0  0
  6 15  2  0  0  0  0
  7 13  1  0  0  0  0
  8  7  2  0  0  0  0
  9 17  1  0  0  0  0
 10  1  2  0  0  0  0
 11 18  1  6  0  0  0
 11 23  1  0  0  0  0
 11  7  1  0  0  0  0
 12 17  1  0  0  0  0
 12  3  1  0  0  0  0
 13  3  2  0  0  0  0
 13  6  1  0  0  0  0
 14 10  1  0  0  0  0
 14 18  2  0  0  0  0
 15  2  1  0  0  0  0
 16 10  1  0  0  0  0
 19 26  1  6  0  0  0
 19 18  1  0  0  0  0
 19  5  1  0  0  0  0
 20 25  1  0  0  0  0
 21 30  1  0  0  0  0
 22 15  1  0  0  0  0
 23 12  2  0  0  0  0
 24  4  1  0  0  0  0
 25 21  1  0  0  0  0
 26 28  1  0  0  0  0
 27 26  2  0  0  0  0
 30 31  1  0  0  0  0
 30 29  1  1  0  0  0
 31 32  1  0  0  0  0
 33 34  1  6  0  0  0
 33 32  1  0  0  0  0
 33 35  1  0  0  0  0
 36 37  1  0  0  0  0
 37 38  1  0  0  0  0
 38 39  1  0  0  0  0
 40 38  2  0  0  0  0
M  END
>  <MODEL>
4

>  <REMARK>
 VINA RESULT:      -7.6      3.432      9.660
  Name = 
  8 active torsions:
  status: ('A' for Active; 'I' for Inactive)
    1  A    between atoms: O_3  and  C_4
    2  A    between atoms: O_3  and  C_19
    3  A    between atoms: C_4  and  C_25
    4  A    between atoms: C_6  and  O_38
    5  A    between atoms: C_7  and  C_30
    6  A    between atoms: C_15  and  C_20
    7  A    between atoms: C_19  and  N_33
    8  A    between atoms: C_20  and  O_38
                            x       y       z     vdW  Elec       q    Type
                         _______ _______ _______ _____ _____    ______ ____

>  <TORSDO>
F 8

$$$$
=
 OpenBabel11042413013D

 40 45  0  0  1  0  0  0  0  0999 V2000
  188.5570  176.8500  138.8650 C   0  0  0  0  0  3  0  0  0  0  0  0
  182.3760  179.0150  140.9650 C   0  0  0  0  0  2  0  0  0  0  0  0
  185.5980  178.3470  142.3680 C   0  0  0  0  0  0  0  0  0  0  0  0
  188.0930  177.0810  146.1740 C   0  0  1  0  0  3  0  0  0  0  0  0
  189.0560  177.8070  143.9550 C   0  0  1  0  0  3  0  0  0  0  0  0
  184.7920  178.6990  140.3570 C   0  0  0  0  0  0  0  0  0  0  0  0
  187.3740  178.3050  140.5240 C   0  0  0  0  0  0  0  0  0  0  0  0
  187.4380  177.2340  139.4820 C   0  0  0  0  0  3  0  0  0  0  0  0
  187.0750  178.2070  145.9410 C   0  0  0  0  0  2  0  0  0  0  0  0
  189.9290  177.3240  139.1470 C   0  0  0  0  0  0  0  0  0  0  0  0
  188.2950  177.9960  141.6800 C   0  0  0  0  0  0  0  0  0  0  0  0
  186.5740  178.1050  143.4440 C   0  0  0  0  0  0  0  0  0  0  0  0
  185.9620  178.4370  141.0340 C   0  0  1  0  0  3  0  0  0  0  0  0
  190.3770  177.6870  140.3560 C   0  0  0  0  0  3  0  0  0  0  0  0
  183.8070  178.7600  141.3140 C   0  0  0  0  0  0  0  0  0  0  0  0
  190.8400  177.3050  138.1000 O   0  0  0  0  0  1  0  0  0  0  0  0
  186.0720  177.8590  144.8460 C   0  0  0  0  0  2  0  0  0  0  0  0
  189.5930  177.7610  141.6040 C   0  0  0  0  0  0  0  0  0  0  0  0
  190.2010  177.5500  142.9660 C   0  0  1  0  0  3  0  0  0  0  0  0
  184.5540  179.0020  138.9130 C   0  0  0  0  0  2  0  0  0  0  0  0
  182.2910  179.6930  139.6560 N   0  0  0  0  0  0  0  0  0  0  0  0
  184.3010  178.5350  142.5120 O   0  0  0  0  0  0  0  0  0  0  0  0
  187.8660  177.9780  143.0740 C   0  0  0  0  0  0  0  0  0  0  0  0
  188.8510  176.6440  144.9110 C   0  0  0  0  0  2  0  0  0  0  0  0
  183.0440  178.9460  138.6340 C   0  0  0  0  0  2  0  0  0  0  0  0
  191.3410  178.4930  143.2220 C   0  0  0  0  0  0  0  0  0  0  0  0
  192.4360  178.2530  142.7380 O   0  0  0  0  0  0  0  0  0  0  0  0
  191.1630  179.7180  144.0600 C   0  0  0  0  0  1  0  0  0  0  0  0
  180.5780  181.0590  138.7510 O   0  0  0  0  0  1  0  0  0  0  0  0
  180.8930  179.7790  139.2230 C   0  0  1  0  0  3  0  0  0  0  0  0
  180.6360  178.8310  138.2300 O   0  0  0  0  0  0  0  0  0  0  0  0
  179.4600  178.1980  138.6380 C   0  0  0  0  0  2  0  0  0  0  0  0
  179.6430  176.6930  138.6020 C   0  0  1  0  0  3  0  0  0  0  0  0
  180.5710  176.3290  137.4620 C   0  0  0  0  0  1  0  0  0  0  0  0
  180.2190  176.2370  139.8550 N   0  0  0  0  0  1  0  0  0  0  0  0
  189.0090  177.4850  147.1480 O   0  0  0  0  0  0  0  0  0  0  0  0
  189.8310  176.3740  147.3500 C   0  0  0  0  0  2  0  0  0  0  0  0
  191.2530  176.7650  147.1580 C   0  0  0  0  0  0  0  0  0  0  0  0
  191.9700  177.3140  148.2130 O   0  0  0  0  0  1  0  0  0  0  0  0
  191.8180  176.5640  146.0520 O   0  0  0  0  0  0  0  0  0  0  0  0
  1 10  2  0  0  0  0
  1  8  1  0  0  0  0
  2 15  1  0  0  0  0
  3 22  1  0  0  0  0
  3 12  2  0  0  0  0
  4 36  1  1  0  0  0
  5 24  1  1  0  0  0
  6 15  2  0  0  0  0
  7 13  1  0  0  0  0
  7 11  1  0  0  0  0
  8  7  2  0  0  0  0
  9  4  1  0  0  0  0
 10 14  1  0  0  0  0
 11 23  2  0  0  0  0
 12 17  1  0  0  0  0
 13  6  1  1  0  0  0
 13  3  1  0  0  0  0
 14 18  2  0  0  0  0
 15 22  1  0  0  0  0
 16 10  1  0  0  0  0
 17  9  1  0  0  0  0
 18 11  1  0  0  0  0
 18 19  1  0  0  0  0
 19 26  1  1  0  0  0
 19  5  1  0  0  0  0
 20  6  1  0  0  0  0
 21  2  1  0  0  0  0
 23 12  1  0  0  0  0
 23  5  1  0  0  0  0
 24  4  1  0  0  0  0
 25 20  1  0  0  0  0
 25 21  1  0  0  0  0
 26 28  1  0  0  0  0
 27 26  2  0  0  0  0
 30 29  1  6  0  0  0
 30 21  1  0  0  0  0
 31 32  1  0  0  0  0
 31 30  1  0  0  0  0
 33 34  1  6  0  0  0
 33 32  1  0  0  0  0
 33 35  1  0  0  0  0
 36 37  1  0  0  0  0
 38 37  1  0  0  0  0
 38 39  1  0  0  0  0
 40 38  2  0  0  0  0
M  END
>  <MODEL>
5

>  <REMARK>
 VINA RESULT:      -7.5      2.050      5.264
  Name = 
  8 active torsions:
  status: ('A' for Active; 'I' for Inactive)
    1  A    between atoms: O_3  and  C_4
    2  A    between atoms: O_3  and  C_19
    3  A    between atoms: C_4  and  C_25
    4  A    between atoms: C_6  and  O_38
    5  A    between atoms: C_7  and  C_30
    6  A    between atoms: C_15  and  C_20
    7  A    between atoms: C_19  and  N_33
    8  A    between atoms: C_20  and  O_38
                            x       y       z     vdW  Elec       q    Type
                         _______ _______ _______ _____ _____    ______ ____

>  <TORSDO>
F 8

$$$$
=
 OpenBabel11042413013D

 40 45  0  0  1  0  0  0  0  0999 V2000
  181.6620  178.4160  143.6030 C   0  0  0  0  0  3  0  0  0  0  0  0
  188.2280  177.6290  145.4910 C   0  0  0  0  0  2  0  0  0  0  0  0
  186.3530  178.1910  142.4980 C   0  0  0  0  0  0  0  0  0  0  0  0
  186.0880  177.6590  137.8120 C   0  0  1  0  0  3  0  0  0  0  0  0
  184.4540  178.9470  139.2440 C   0  0  1  0  0  3  0  0  0  0  0  0
  185.9880  178.3950  144.6540 C   0  0  0  0  0  0  0  0  0  0  0  0
  184.0190  179.0750  143.0710 C   0  0  0  0  0  0  0  0  0  0  0  0
  182.9770  178.2410  143.7460 C   0  0  0  0  0  3  0  0  0  0  0  0
  187.1590  178.2880  138.7160 C   0  0  0  0  0  2  0  0  0  0  0  0
  180.9920  179.3760  142.7000 C   0  0  0  0  0  0  0  0  0  0  0  0
  183.8480  179.0490  141.5700 C   0  0  1  0  0  3  0  0  0  0  0  0
  186.1240  178.2560  141.0450 C   0  0  0  0  0  0  0  0  0  0  0  0
  185.3920  178.5640  143.4240 C   0  0  0  0  0  0  0  0  0  0  0  0
  181.4660  179.7600  141.5070 C   0  0  0  0  0  3  0  0  0  0  0  0
  187.2620  177.9460  144.3960 C   0  0  0  0  0  0  0  0  0  0  0  0
  179.7410  179.8430  143.0790 O   0  0  0  0  0  1  0  0  0  0  0  0
  187.1630  177.6790  140.1140 C   0  0  0  0  0  2  0  0  0  0  0  0
  182.7550  179.3740  140.9020 C   0  0  0  0  0  0  0  0  0  0  0  0
  182.9670  179.2870  139.4130 C   0  0  1  0  0  3  0  0  0  0  0  0
  185.4960  178.7250  146.0240 C   0  0  0  0  0  2  0  0  0  0  0  0
  187.8450  178.3480  146.7230 N   0  0  0  0  0  0  0  0  0  0  0  0
  187.4630  177.8160  143.1020 O   0  0  0  0  0  0  0  0  0  0  0  0
  184.9180  178.7080  140.6400 C   0  0  0  0  0  0  0  0  0  0  0  0
  184.6660  177.7070  138.3910 C   0  0  0  0  0  2  0  0  0  0  0  0
  186.4360  178.0870  147.0600 C   0  0  0  0  0  2  0  0  0  0  0  0
  182.6390  180.5800  138.7240 C   0  0  0  0  0  0  0  0  0  0  0  0
  183.4680  181.4760  138.7090 O   0  0  0  0  0  0  0  0  0  0  0  0
  181.3180  180.7930  138.0590 C   0  0  0  0  0  1  0  0  0  0  0  0
  187.9000  177.6270  148.9810 O   0  0  0  0  0  1  0  0  0  0  0  0
  188.6740  177.9000  147.8460 C   0  0  1  0  0  3  0  0  0  0  0  0
  189.4040  176.7650  147.4850 O   0  0  0  0  0  0  0  0  0  0  0  0
  190.7370  177.1130  147.7120 C   0  0  0  0  0  2  0  0  0  0  0  0
  191.6440  175.9570  147.3330 C   0  0  1  0  0  3  0  0  0  0  0  0
  192.0530  176.0970  145.8810 C   0  0  0  0  0  1  0  0  0  0  0  0
  192.8310  175.9690  148.1700 N   0  0  0  0  0  1  0  0  0  0  0  0
  186.1040  178.2970  136.5690 O   0  0  0  0  0  0  0  0  0  0  0  0
  185.4440  177.4180  135.7070 C   0  0  0  0  0  2  0  0  0  0  0  0
  186.3990  176.3900  135.2160 C   0  0  0  0  0  0  0  0  0  0  0  0
  186.1100  175.0410  135.3740 O   0  0  0  0  0  1  0  0  0  0  0  0
  187.4520  176.7410  134.6230 O   0  0  0  0  0  0  0  0  0  0  0  0
  1  8  1  0  0  0  0
  2 21  1  0  0  0  0
  3 22  1  0  0  0  0
  3 13  2  0  0  0  0
  4 36  1  6  0  0  0
  4 24  1  0  0  0  0
  4  9  1  0  0  0  0
  5 24  1  6  0  0  0
  5 19  1  0  0  0  0
  5 23  1  0  0  0  0
  6 20  1  0  0  0  0
  7 13  1  0  0  0  0
  7  8  2  0  0  0  0
  9 17  1  0  0  0  0
 10 16  1  0  0  0  0
 10  1  2  0  0  0  0
 11 23  1  6  0  0  0
 11  7  1  0  0  0  0
 12  3  1  0  0  0  0
 13  6  1  0  0  0  0
 14 10  1  0  0  0  0
 15  6  2  0  0  0  0
 15  2  1  0  0  0  0
 17 12  1  0  0  0  0
 18 14  2  0  0  0  0
 18 11  1  0  0  0  0
 19 26  1  6  0  0  0
 19 18  1  0  0  0  0
 20 25  1  0  0  0  0
 21 25  1  0  0  0  0
 21 30  1  0  0  0  0
 22 15  1  0  0  0  0
 23 12  2  0  0  0  0
 27 26  2  0  0  0  0
 28 26  1  0  0  0  0
 30 29  1  1  0  0  0
 31 32  1  0  0  0  0
 31 30  1  0  0  0  0
 33 34  1  6  0  0  0
 33 32  1  0  0  0  0
 33 35  1  0  0  0  0
 37 36  1  0  0  0  0
 38 39  1  0  0  0  0
 38 37  1  0  0  0  0
 40 38  2  0  0  0  0
M  END
>  <MODEL>
6

>  <REMARK>
 VINA RESULT:      -7.3      3.778      8.359
  Name = 
  8 active torsions:
  status: ('A' for Active; 'I' for Inactive)
    1  A    between atoms: O_3  and  C_4
    2  A    between atoms: O_3  and  C_19
    3  A    between atoms: C_4  and  C_25
    4  A    between atoms: C_6  and  O_38
    5  A    between atoms: C_7  and  C_30
    6  A    between atoms: C_15  and  C_20
    7  A    between atoms: C_19  and  N_33
    8  A    between atoms: C_20  and  O_38
                            x       y       z     vdW  Elec       q    Type
                         _______ _______ _______ _____ _____    ______ ____

>  <TORSDO>
F 8

$$$$
=
 OpenBabel11042413013D

 40 45  0  0  1  0  0  0  0  0999 V2000
  193.5600  176.9870  139.2510 C   0  0  0  0  0  3  0  0  0  0  0  0
  189.2150  177.6160  144.5450 C   0  0  0  0  0  2  0  0  0  0  0  0
  189.0760  177.4230  140.9760 C   0  0  0  0  0  0  0  0  0  0  0  0
  186.7600  178.5600  137.0190 C   0  0  1  0  0  3  0  0  0  0  0  0
  188.7960  177.0720  137.1590 C   0  0  1  0  0  3  0  0  0  0  0  0
  190.5480  176.9340  142.5290 C   0  0  0  0  0  0  0  0  0  0  0  0
  191.2540  176.4380  140.0590 C   0  0  0  0  0  0  0  0  0  0  0  0
  192.5620  177.1610  140.1200 C   0  0  0  0  0  3  0  0  0  0  0  0
  186.3150  177.8340  138.2980 C   0  0  0  0  0  2  0  0  0  0  0  0
  193.5370  176.1440  138.0370 C   0  0  0  0  0  0  0  0  0  0  0  0
  190.5720  176.6580  138.7290 C   0  0  1  0  0  3  0  0  0  0  0  0
  188.4600  177.5450  139.6450 C   0  0  0  0  0  0  0  0  0  0  0  0
  190.3530  176.9190  141.1670 C   0  0  0  0  0  0  0  0  0  0  0  0
  192.4550  175.9270  137.2790 C   0  0  0  0  0  3  0  0  0  0  0  0
  189.3870  177.4310  143.0720 C   0  0  0  0  0  0  0  0  0  0  0  0
  194.7460  175.6140  137.6050 O   0  0  0  0  0  1  0  0  0  0  0  0
  187.1340  178.2540  139.5140 C   0  0  0  0  0  2  0  0  0  0  0  0
  191.0840  176.4070  137.5370 C   0  0  0  0  0  0  0  0  0  0  0  0
  190.0960  176.6920  136.4360 C   0  0  1  0  0  3  0  0  0  0  0  0
  191.6840  176.4200  143.3520 C   0  0  0  0  0  2  0  0  0  0  0  0
  190.1500  176.7370  145.2740 N   0  0  0  0  0  0  0  0  0  0  0  0
  188.5190  177.7320  142.1300 O   0  0  0  0  0  0  0  0  0  0  0  0
  189.2000  177.1330  138.5930 C   0  0  0  0  0  0  0  0  0  0  0  0
  188.2560  178.4170  136.7000 C   0  0  0  0  0  2  0  0  0  0  0  0
  191.5290  176.9300  144.7940 C   0  0  0  0  0  2  0  0  0  0  0  0
  189.8780  175.4950  135.5560 C   0  0  0  0  0  0  0  0  0  0  0  0
  190.6090  175.3200  134.5950 O   0  0  0  0  0  0  0  0  0  0  0  0
  188.7830  174.5150  135.8330 C   0  0  0  0  0  1  0  0  0  0  0  0
  191.4090  177.1360  147.2430 O   0  0  0  0  0  1  0  0  0  0  0  0
  190.1190  177.0450  146.7070 C   0  0  1  0  0  3  0  0  0  0  0  0
  189.4290  178.2390  146.9290 O   0  0  0  0  0  0  0  0  0  0  0  0
  189.1760  178.2540  148.3020 C   0  0  0  0  0  2  0  0  0  0  0  0
  187.7130  177.9540  148.5620 C   0  0  1  0  0  3  0  0  0  0  0  0
  186.9010  178.3230  147.3380 C   0  0  0  0  0  1  0  0  0  0  0  0
  187.5430  176.5390  148.8440 N   0  0  0  0  0  1  0  0  0  0  0  0
  186.0080  178.0910  135.9400 O   0  0  0  0  0  0  0  0  0  0  0  0
  185.1480  177.1370  136.4890 C   0  0  0  0  0  2  0  0  0  0  0  0
  184.1980  176.6640  135.4480 C   0  0  0  0  0  0  0  0  0  0  0  0
  184.0840  175.3070  135.1770 O   0  0  0  0  0  1  0  0  0  0  0  0
  183.4710  177.4890  134.8380 O   0  0  0  0  0  0  0  0  0  0  0  0
  1  8  1  0  0  0  0
  2 21  1  0  0  0  0
  3 13  2  0  0  0  0
  3 22  1  0  0  0  0
  4 36  1  6  0  0  0
  4  9  1  0  0  0  0
  5 24  1  6  0  0  0
  5 23  1  0  0  0  0
  6 15  2  0  0  0  0
  6 20  1  0  0  0  0
  7  8  2  0  0  0  0
  7 13  1  0  0  0  0
  9 17  1  0  0  0  0
 10  1  2  0  0  0  0
 11 18  1  1  0  0  0
 11  7  1  0  0  0  0
 12  3  1  0  0  0  0
 13  6  1  0  0  0  0
 14 18  2  0  0  0  0
 14 10  1  0  0  0  0
 15  2  1  0  0  0  0
 16 10  1  0  0  0  0
 17 12  1  0  0  0  0
 19 26  1  1  0  0  0
 19  5  1  0  0  0  0
 19 18  1  0  0  0  0
 20 25  1  0  0  0  0
 21 30  1  0  0  0  0
 22 15  1  0  0  0  0
 23 11  1  0  0  0  0
 23 12  2  0  0  0  0
 24  4  1  0  0  0  0
 25 21  1  0  0  0  0
 26 28  1  0  0  0  0
 27 26  2  0  0  0  0
 30 31  1  0  0  0  0
 30 29  1  6  0  0  0
 31 32  1  0  0  0  0
 32 33  1  0  0  0  0
 33 34  1  6  0  0  0
 33 35  1  0  0  0  0
 36 37  1  0  0  0  0
 38 37  1  0  0  0  0
 39 38  1  0  0  0  0
 40 38  2  0  0  0  0
M  END
>  <MODEL>
7

>  <REMARK>
 VINA RESULT:      -7.3      4.206      8.932
  Name = 
  8 active torsions:
  status: ('A' for Active; 'I' for Inactive)
    1  A    between atoms: O_3  and  C_4
    2  A    between atoms: O_3  and  C_19
    3  A    between atoms: C_4  and  C_25
    4  A    between atoms: C_6  and  O_38
    5  A    between atoms: C_7  and  C_30
    6  A    between atoms: C_15  and  C_20
    7  A    between atoms: C_19  and  N_33
    8  A    between atoms: C_20  and  O_38
                            x       y       z     vdW  Elec       q    Type
                         _______ _______ _______ _____ _____    ______ ____

>  <TORSDO>
F 8

$$$$
=
 OpenBabel11042413013D

 40 45  0  0  1  0  0  0  0  0999 V2000
  189.3140  178.5970  137.5420 C   0  0  0  0  0  3  0  0  0  0  0  0
  188.8840  177.9270  144.3730 C   0  0  0  0  0  2  0  0  0  0  0  0
  186.6850  178.2360  141.5700 C   0  0  0  0  0  0  0  0  0  0  0  0
  182.4750  179.6450  139.9550 C   0  0  1  0  0  3  0  0  0  0  0  0
  184.2270  178.4090  138.6200 C   0  0  1  0  0  3  0  0  0  0  0  0
  188.7940  177.7080  141.8730 C   0  0  0  0  0  0  0  0  0  0  0  0
  187.9260  177.6630  139.4050 C   0  0  0  0  0  0  0  0  0  0  0  0
  189.0110  178.5220  138.8400 C   0  0  0  0  0  3  0  0  0  0  0  0
  182.8730  178.6940  141.0940 C   0  0  0  0  0  2  0  0  0  0  0  0
  188.5960  177.9420  136.4290 C   0  0  0  0  0  0  0  0  0  0  0  0
  186.5910  177.9890  138.7770 C   0  0  1  0  0  3  0  0  0  0  0  0
  185.4040  178.4740  140.8840 C   0  0  0  0  0  0  0  0  0  0  0  0
  187.8370  177.8670  140.8960 C   0  0  0  0  0  0  0  0  0  0  0  0
  187.2770  177.7070  136.4040 C   0  0  0  0  0  3  0  0  0  0  0  0
  188.1640  177.9790  143.0650 C   0  0  0  0  0  0  0  0  0  0  0  0
  189.3290  177.6280  135.2920 O   0  0  0  0  0  1  0  0  0  0  0  0
  184.2430  179.0300  141.6730 C   0  0  0  0  0  2  0  0  0  0  0  0
  186.3110  177.9770  137.4860 C   0  0  0  0  0  0  0  0  0  0  0  0
  184.8620  178.2960  137.2280 C   0  0  1  0  0  3  0  0  0  0  0  0
  190.2030  177.2210  141.7820 C   0  0  0  0  0  2  0  0  0  0  0  0
  190.0810  177.0700  144.2540 N   0  0  0  0  0  0  0  0  0  0  0  0
  186.9040  178.3060  142.8680 O   0  0  0  0  0  0  0  0  0  0  0  0
  185.3930  178.3100  139.5440 C   0  0  0  0  0  0  0  0  0  0  0  0
  183.5020  179.7310  138.8160 C   0  0  0  0  0  2  0  0  0  0  0  0
  190.9140  177.4960  143.1160 C   0  0  0  0  0  2  0  0  0  0  0  0
  184.1860  177.2220  136.4260 C   0  0  0  0  0  0  0  0  0  0  0  0
  184.0720  177.3590  135.2190 O   0  0  0  0  0  0  0  0  0  0  0  0
  183.6470  175.9890  137.0770 C   0  0  0  0  0  1  0  0  0  0  0  0
  192.0470  177.9250  145.2660 O   0  0  0  0  0  1  0  0  0  0  0  0
  190.8900  177.1630  145.4730 C   0  0  1  0  0  3  0  0  0  0  0  0
  190.1380  177.7160  146.5110 O   0  0  0  0  0  0  0  0  0  0  0  0
  189.4650  176.6320  147.0800 C   0  0  0  0  0  2  0  0  0  0  0  0
  188.3360  177.1290  147.9620 C   0  0  1  0  0  3  0  0  0  0  0  0
  188.7850  178.3760  148.6940 C   0  0  0  0  0  1  0  0  0  0  0  0
  187.1750  177.4400  147.1460 N   0  0  0  0  0  1  0  0  0  0  0  0
  181.2390  179.2510  139.4380 O   0  0  0  0  0  0  0  0  0  0  0  0
  180.4160  179.0930  140.5550 C   0  0  0  0  0  2  0  0  0  0  0  0
  179.8040  180.4000  140.9120 C   0  0  0  0  0  0  0  0  0  0  0  0
  179.1580  181.1520  139.9390 O   0  0  0  0  0  0  0  0  0  0  0  0
  179.8380  180.8080  142.1010 O   0  0  0  0  0  1  0  0  0  0  0  0
  1  8  1  0  0  0  0
  3 22  1  0  0  0  0
  4 36  1  6  0  0  0
  4  9  1  0  0  0  0
  5 24  1  6  0  0  0
  5 23  1  0  0  0  0
  6 15  2  0  0  0  0
  7 13  1  0  0  0  0
  8  7  2  0  0  0  0
  9 17  1  0  0  0  0
 10  1  2  0  0  0  0
 11 18  1  1  0  0  0
 11  7  1  0  0  0  0
 11 23  1  0  0  0  0
 12  3  1  0  0  0  0
 12 17  1  0  0  0  0
 13  3  2  0  0  0  0
 13  6  1  0  0  0  0
 14 10  1  0  0  0  0
 14 18  2  0  0  0  0
 15  2  1  0  0  0  0
 16 10  1  0  0  0  0
 19 26  1  6  0  0  0
 19 18  1  0  0  0  0
 19  5  1  0  0  0  0
 20  6  1  0  0  0  0
 20 25  1  0  0  0  0
 21  2  1  0  0  0  0
 21 30  1  0  0  0  0
 22 15  1  0  0  0  0
 23 12  2  0  0  0  0
 24  4  1  0  0  0  0
 25 21  1  0  0  0  0
 26 28  1  0  0  0  0
 27 26  2  0  0  0  0
 30 29  1  6  0  0  0
 30 31  1  0  0  0  0
 31 32  1  0  0  0  0
 32 33  1  0  0  0  0
 33 34  1  6  0  0  0
 35 33  1  0  0  0  0
 36 37  1  0  0  0  0
 37 38  1  0  0  0  0
 38 40  1  0  0  0  0
 39 38  2  0  0  0  0
M  END
>  <MODEL>
8

>  <REMARK>
 VINA RESULT:      -7.3      3.321      9.716
  Name = 
  8 active torsions:
  status: ('A' for Active; 'I' for Inactive)
    1  A    between atoms: O_3  and  C_4
    2  A    between atoms: O_3  and  C_19
    3  A    between atoms: C_4  and  C_25
    4  A    between atoms: C_6  and  O_38
    5  A    between atoms: C_7  and  C_30
    6  A    between atoms: C_15  and  C_20
    7  A    between atoms: C_19  and  N_33
    8  A    between atoms: C_20  and  O_38
                            x       y       z     vdW  Elec       q    Type
                         _______ _______ _______ _____ _____    ______ ____

>  <TORSDO>
F 8

$$$$
=
 OpenBabel11042413013D

 40 45  0  0  1  0  0  0  0  0999 V2000
  187.2770  178.7010  137.5520 C   0  0  0  0  0  3  0  0  0  0  0  0
  193.3400  175.5380  136.8210 C   0  0  0  0  0  2  0  0  0  0  0  0
  191.2880  176.8150  139.4570 C   0  0  0  0  0  0  0  0  0  0  0  0
  191.0810  178.6270  143.8150 C   0  0  1  0  0  3  0  0  0  0  0  0
  189.0960  178.0130  142.3780 C   0  0  1  0  0  3  0  0  0  0  0  0
  190.9950  176.2600  137.3540 C   0  0  0  0  0  0  0  0  0  0  0  0
  188.8800  177.1130  138.6370 C   0  0  2  0  0  3  0  0  0  0  0  0
  188.4870  178.1440  137.6280 C   0  0  0  0  0  3  0  0  0  0  0  0
  191.6990  177.3310  143.2690 C   0  0  0  0  0  2  0  0  0  0  0  0
  186.1470  178.4890  138.4810 C   0  0  0  0  0  0  0  0  0  0  0  0
  188.6640  177.6180  140.0440 C   0  0  0  0  0  0  0  0  0  0  0  0
  190.9770  177.2610  140.8250 C   0  0  0  0  0  0  0  0  0  0  0  0
  190.3310  176.7470  138.4570 C   0  0  0  0  0  0  0  0  0  0  0  0
  186.2730  178.2510  139.7940 C   0  0  0  0  0  3  0  0  0  0  0  0
  192.2940  176.0550  137.7540 C   0  0  0  0  0  0  0  0  0  0  0  0
  184.8640  178.6360  137.9710 O   0  0  0  0  0  1  0  0  0  0  0  0
  192.1080  177.4590  141.8060 C   0  0  0  0  0  2  0  0  0  0  0  0
  187.5310  178.0780  140.5440 C   0  0  0  0  0  0  0  0  0  0  0  0
  187.6710  178.4380  142.0010 C   0  0  1  0  0  3  0  0  0  0  0  0
  190.4810  175.8730  136.0050 C   0  0  0  0  0  2  0  0  0  0  0  0
  192.7030  174.8140  135.7030 N   0  0  0  0  0  0  0  0  0  0  0  0
  192.4580  176.4030  139.0130 O   0  0  0  0  0  0  0  0  0  0  0  0
  189.6960  177.6050  141.0760 C   0  0  0  0  0  0  0  0  0  0  0  0
  189.8900  179.1520  142.9970 C   0  0  0  0  0  2  0  0  0  0  0  0
  191.6740  175.6500  135.0610 C   0  0  0  0  0  2  0  0  0  0  0  0
  186.6640  177.7220  142.8530 C   0  0  0  0  0  0  0  0  0  0  0  0
  185.4750  177.9440  142.6870 O   0  0  0  0  0  0  0  0  0  0  0  0
  187.0880  176.7460  143.9030 C   0  0  0  0  0  1  0  0  0  0  0  0
  194.9120  175.1460  134.9070 O   0  0  0  0  0  1  0  0  0  0  0  0
  193.7060  174.4670  134.6920 C   0  0  1  0  0  3  0  0  0  0  0  0
  193.9330  173.0880  134.6900 O   0  0  0  0  0  0  0  0  0  0  0  0
  195.2260  172.9410  135.1960 C   0  0  0  0  0  2  0  0  0  0  0  0
  195.2290  171.9180  136.3160 C   0  0  1  0  0  3  0  0  0  0  0  0
  195.5310  172.6110  137.6280 C   0  0  0  0  0  1  0  0  0  0  0  0
  193.9290  171.2760  136.3990 N   0  0  0  0  0  1  0  0  0  0  0  0
  190.6830  178.4250  145.1380 O   0  0  0  0  0  0  0  0  0  0  0  0
  190.8210  177.0510  145.3480 C   0  0  0  0  0  2  0  0  0  0  0  0
  190.8610  176.7710  146.8070 C   0  0  0  0  0  0  0  0  0  0  0  0
  192.0610  176.4240  147.4150 O   0  0  0  0  0  0  0  0  0  0  0  0
  189.8180  176.8860  147.5000 O   0  0  0  0  0  1  0  0  0  0  0  0
  1  8  2  0  0  0  0
  1 10  1  0  0  0  0
  2 15  1  0  0  0  0
  3 12  1  0  0  0  0
  4 36  1  1  0  0  0
  5 24  1  6  0  0  0
  6 15  2  0  0  0  0
  6 13  1  0  0  0  0
  7  8  1  6  0  0  0
  7 11  1  0  0  0  0
  9  4  1  0  0  0  0
 10 14  2  0  0  0  0
 11 18  2  0  0  0  0
 11 23  1  0  0  0  0
 12 23  2  0  0  0  0
 12 17  1  0  0  0  0
 13  7  1  0  0  0  0
 13  3  2  0  0  0  0
 14 18  1  0  0  0  0
 15 22  1  0  0  0  0
 16 10  1  0  0  0  0
 17  9  1  0  0  0  0
 18 19  1  0  0  0  0
 19  5  1  0  0  0  0
 19 26  1  1  0  0  0
 20  6  1  0  0  0  0
 21  2  1  0  0  0  0
 22  3  1  0  0  0  0
 23  5  1  0  0  0  0
 24  4  1  0  0  0  0
 25 21  1  0  0  0  0
 25 20  1  0  0  0  0
 26 28  1  0  0  0  0
 27 26  2  0  0  0  0
 30 29  1  1  0  0  0
 30 21  1  0  0  0  0
 31 30  1  0  0  0  0
 31 32  1  0  0  0  0
 32 33  1  0  0  0  0
 33 35  1  0  0  0  0
 33 34  1  1  0  0  0
 36 37  1  0  0  0  0
 37 38  1  0  0  0  0
 38 39  2  0  0  0  0
 38 40  1  0  0  0  0
M  END
>  <MODEL>
9

>  <REMARK>
 VINA RESULT:      -7.1      4.497      9.875
  Name = 
  8 active torsions:
  status: ('A' for Active; 'I' for Inactive)
    1  A    between atoms: O_3  and  C_4
    2  A    between atoms: O_3  and  C_19
    3  A    between atoms: C_4  and  C_25
    4  A    between atoms: C_6  and  O_38
    5  A    between atoms: C_7  and  C_30
    6  A    between atoms: C_15  and  C_20
    7  A    between atoms: C_19  and  N_33
    8  A    between atoms: C_20  and  O_38
                            x       y       z     vdW  Elec       q    Type
                         _______ _______ _______ _____ _____    ______ ____

>  <TORSDO>
F 8

$$$$
