=
 OpenBabel11042413333D

 41 44  0  0  1  0  0  0  0  0999 V2000
  190.8610  176.9580  145.1070 C   0  0  0  0  0  0  0  0  0  0  0  0
  188.9530  176.5470  142.6050 C   0  0  0  0  0  2  0  0  0  0  0  0
  188.0530  177.0690  143.6670 C   0  0  0  0  0  3  0  0  0  0  0  0
  189.6590  177.2330  145.5480 N   0  0  0  0  0  0  0  0  0  0  0  0
  191.1990  176.5940  143.6940 C   0  0  1  0  0  3  0  0  0  0  0  0
  188.3440  177.3350  144.9520 C   0  0  0  0  0  0  0  0  0  0  0  0
  191.3260  175.0810  143.5550 C   0  0  0  0  0  1  0  0  0  0  0  0
  190.2930  177.2450  142.6550 C   0  0  1  0  0  3  0  0  0  0  0  0
  191.9330  176.9700  146.0060 O   0  0  0  0  0  0  0  0  0  0  0  0
  191.8920  176.2860  147.2500 C   0  0  0  0  0  1  0  0  0  0  0  0
  187.2410  177.8060  145.8290 C   0  0  0  0  0  0  0  0  0  0  0  0
  186.0460  178.0720  145.2910 C   0  0  0  0  0  3  0  0  0  0  0  0
  187.4530  177.9860  147.2510 C   0  0  0  0  0  0  0  0  0  0  0  0
  187.6280  178.1360  148.4340 C   0  0  0  0  0  3  0  0  0  0  0  0
  184.8630  178.5430  146.0790 C   0  0  0  0  0  2  0  0  0  0  0  0
  183.7550  179.0100  145.1490 C   0  0  0  0  0  2  0  0  0  0  0  0
  184.0630  178.6370  143.7080 C   0  0  0  0  0  2  0  0  0  0  0  0
  182.7760  178.3710  142.9450 C   0  0  1  0  0  3  0  0  0  0  0  0
  181.8590  179.3940  143.1940 O   0  0  0  0  0  1  0  0  0  0  0  0
  183.0510  178.3110  141.5190 N   0  0  0  0  0  2  0  0  0  0  0  0
  182.4060  179.5020  139.5420 C   0  0  1  0  0  3  0  0  0  0  0  0
  181.9760  175.8190  139.8200 C   0  0  0  0  0  2  0  0  0  0  0  0
  181.6320  178.2390  139.5910 C   0  0  2  0  0  3  0  0  0  0  0  0
  181.9770  178.9440  140.8590 N   0  0  0  0  0  0  0  0  0  0  0  0
  184.4320  180.5970  138.8810 O   0  0  0  0  0  1  0  0  0  0  0  0
  183.5950  176.1550  137.3990 O   0  0  0  0  0  1  0  0  0  0  0  0
  184.1100  178.3750  138.0870 C   0  0  0  0  0  2  0  0  0  0  0  0
  183.9090  179.3530  139.2330 C   0  0  2  0  0  3  0  0  0  0  0  0
  183.7090  176.9720  138.5260 C   0  0  1  0  0  3  0  0  0  0  0  0
  182.4180  176.9650  139.3100 C   0  0  0  0  0  0  0  0  0  0  0  0
  190.9300  177.3540  141.3370 N   0  0  0  0  0  2  0  0  0  0  0  0
  190.2360  176.5670  140.3990 N   0  0  0  0  0  2  0  0  0  0  0  0
  188.8580  179.2160  138.5600 O   0  0  0  0  0  0  0  0  0  0  0  0
  190.0100  177.0000  139.0550 C   0  0  0  0  0  0  0  0  0  0  0  0
  189.4170  178.1380  138.8000 C   0  0  0  0  0  0  0  0  0  0  0  0
  190.4490  176.1380  137.9250 C   0  0  0  0  0  2  0  0  0  0  0  0
  191.2020  175.0050  138.4360 N   0  0  0  0  0  2  0  0  0  0  0  0
  192.3860  174.8590  137.6040 C   0  0  0  0  0  2  0  0  0  0  0  0
  193.9990  176.5880  137.0210 N   0  0  0  0  0  2  0  0  0  0  0  0
  192.6220  176.1260  136.8020 C   0  0  1  0  0  3  0  0  0  0  0  0
  193.6360  175.8750  135.7860 C   0  0  0  0  0  2  0  0  0  0  0  0
  1  4  2  0  0  0  0
  1  9  1  0  0  0  0
  2  8  1  0  0  0  0
  2  3  1  0  0  0  0
  3  6  2  0  0  0  0
  5  7  1  1  0  0  0
  5  1  1  0  0  0  0
  6  4  1  0  0  0  0
  6 11  1  0  0  0  0
  8 31  1  6  0  0  0
  8  5  1  0  0  0  0
  9 10  1  0  0  0  0
 11 13  1  0  0  0  0
 12 11  2  0  0  0  0
 12 15  1  0  0  0  0
 13 14  3  0  0  0  0
 16 15  1  0  0  0  0
 17 16  1  0  0  0  0
 18 19  1  6  0  0  0
 18 17  1  0  0  0  0
 20 18  1  0  0  0  0
 21 23  1  0  0  0  0
 21 24  1  1  0  0  0
 23 30  1  1  0  0  0
 23 24  1  0  0  0  0
 24 20  1  0  0  0  0
 27 29  1  0  0  0  0
 27 28  1  0  0  0  0
 28 25  1  6  0  0  0
 28 21  1  0  0  0  0
 29 26  1  6  0  0  0
 29 30  1  0  0  0  0
 30 22  2  0  0  0  0
 32 31  1  0  0  0  0
 33 35  2  0  0  0  0
 34 32  1  0  0  0  0
 35 34  2  0  0  0  0
 36 37  1  0  0  0  0
 36 34  1  0  0  0  0
 38 37  1  0  0  0  0
 40 39  1  0  0  0  0
 40 38  1  1  0  0  0
 41 40  1  0  0  0  0
 41 39  1  0  0  0  0
M  END
>  <MODEL>
1

>  <REMARK>
 VINA RESULT:      -8.4      0.000      0.000
  Name = 
  16 active torsions:
  status: ('A' for Active; 'I' for Inactive)
    1  A    between atoms: C_1  and  O_6
    2  A    between atoms: C_5  and  C_15
    3  A    between atoms: C_5  and  N_23
    4  A    between atoms: N_7  and  N_11
    5  A    between atoms: N_7  and  C_20
    6  A    between atoms: C_8  and  C_35
    7  A    between atoms: N_9  and  C_22
    8  A    between atoms: N_9  and  C_35
    9  A    between atoms: C_10  and  C_28
   10  A    between atoms: C_10  and  C_33
   11  A    between atoms: N_11  and  C_36
   12  A    between atoms: N_14  and  N_23
   13  A    between atoms: C_15  and  C_26
   14  A    between atoms: C_16  and  C_26
   15  A    between atoms: C_16  and  C_32
   16  A    between atoms: C_20  and  C_22
                            x       y       z     vdW  Elec       q    Type
                         _______ _______ _______ _____ _____    ______ ____

>  <TORSDO>
F 16

$$$$
=
 OpenBabel11042413333D

 41 44  0  0  1  0  0  0  0  0999 V2000
  190.8760  177.1870  145.0730 C   0  0  0  0  0  0  0  0  0  0  0  0
  189.6530  176.4960  142.2270 C   0  0  0  0  0  2  0  0  0  0  0  0
  188.4920  176.9870  143.0140 C   0  0  0  0  0  3  0  0  0  0  0  0
  189.5880  177.3780  145.2020 N   0  0  0  0  0  0  0  0  0  0  0  0
  191.5670  176.7870  143.8040 C   0  0  1  0  0  3  0  0  0  0  0  0
  188.4480  177.3370  144.3110 C   0  0  0  0  0  0  0  0  0  0  0  0
  191.8340  175.2870  143.7990 C   0  0  0  0  0  1  0  0  0  0  0  0
  190.8890  177.3090  142.5420 C   0  0  1  0  0  3  0  0  0  0  0  0
  191.7000  177.3330  146.1940 O   0  0  0  0  0  0  0  0  0  0  0  0
  191.4900  176.6050  147.3950 C   0  0  0  0  0  1  0  0  0  0  0  0
  187.1380  177.7520  144.8730 C   0  0  0  0  0  0  0  0  0  0  0  0
  186.0900  177.8980  144.0540 C   0  0  0  0  0  3  0  0  0  0  0  0
  186.9900  178.0060  146.2920 C   0  0  0  0  0  0  0  0  0  0  0  0
  186.8670  178.2170  147.4730 C   0  0  0  0  0  3  0  0  0  0  0  0
  184.7230  178.3020  144.5120 C   0  0  0  0  0  2  0  0  0  0  0  0
  183.9390  178.9200  143.3650 C   0  0  0  0  0  2  0  0  0  0  0  0
  182.5440  179.3230  143.8180 C   0  0  0  0  0  2  0  0  0  0  0  0
  181.5080  178.8560  142.8090 C   0  0  1  0  0  3  0  0  0  0  0  0
  180.5170  179.8290  142.6640 O   0  0  0  0  0  1  0  0  0  0  0  0
  182.1430  178.6230  141.5220 N   0  0  0  0  0  2  0  0  0  0  0  0
  182.2230  179.5950  139.3330 C   0  0  1  0  0  3  0  0  0  0  0  0
  180.9380  176.1490  139.8840 C   0  0  0  0  0  2  0  0  0  0  0  0
  181.1970  178.5260  139.3240 C   0  0  2  0  0  3  0  0  0  0  0  0
  181.4060  179.3400  140.5560 N   0  0  0  0  0  0  0  0  0  0  0  0
  184.5360  180.1680  139.0760 O   0  0  0  0  0  1  0  0  0  0  0  0
  183.0780  175.7930  137.9120 O   0  0  0  0  0  1  0  0  0  0  0  0
  183.9100  177.9530  138.4670 C   0  0  0  0  0  2  0  0  0  0  0  0
  183.6870  179.1170  139.4190 C   0  0  2  0  0  3  0  0  0  0  0  0
  183.1230  176.7370  138.9400 C   0  0  1  0  0  3  0  0  0  0  0  0
  181.7240  177.0970  139.3800 C   0  0  0  0  0  0  0  0  0  0  0  0
  191.8110  177.4110  141.4050 N   0  0  0  0  0  2  0  0  0  0  0  0
  191.0880  177.4290  140.1980 N   0  0  0  0  0  2  0  0  0  0  0  0
  193.9010  176.6170  138.2680 O   0  0  0  0  0  0  0  0  0  0  0  0
  191.4810  176.6590  139.0580 C   0  0  0  0  0  0  0  0  0  0  0  0
  192.7230  176.6380  138.6510 C   0  0  0  0  0  0  0  0  0  0  0  0
  190.4580  175.8740  138.3180 C   0  0  0  0  0  2  0  0  0  0  0  0
  189.6260  176.7690  137.5310 N   0  0  0  0  0  2  0  0  0  0  0  0
  188.2880  176.7320  138.1000 C   0  0  0  0  0  2  0  0  0  0  0  0
  188.7660  179.1120  137.9000 N   0  0  0  0  0  2  0  0  0  0  0  0
  187.7030  178.1320  138.1560 C   0  0  1  0  0  3  0  0  0  0  0  0
  187.8080  178.7540  136.8430 C   0  0  0  0  0  2  0  0  0  0  0  0
  1  4  2  0  0  0  0
  1  9  1  0  0  0  0
  2  8  1  0  0  0  0
  2  3  1  0  0  0  0
  3  6  2  0  0  0  0
  5  7  1  6  0  0  0
  5  1  1  0  0  0  0
  6 11  1  0  0  0  0
  6  4  1  0  0  0  0
  8 31  1  6  0  0  0
  8  5  1  0  0  0  0
  9 10  1  0  0  0  0
 11 13  1  0  0  0  0
 12 15  1  0  0  0  0
 12 11  2  0  0  0  0
 13 14  3  0  0  0  0
 16 17  1  0  0  0  0
 16 15  1  0  0  0  0
 18 19  1  6  0  0  0
 18 17  1  0  0  0  0
 20 18  1  0  0  0  0
 21 28  1  0  0  0  0
 21 24  1  1  0  0  0
 23 21  1  0  0  0  0
 23 30  1  1  0  0  0
 23 24  1  0  0  0  0
 24 20  1  0  0  0  0
 27 29  1  0  0  0  0
 27 28  1  0  0  0  0
 28 25  1  6  0  0  0
 29 26  1  6  0  0  0
 29 30  1  0  0  0  0
 30 22  2  0  0  0  0
 32 31  1  0  0  0  0
 33 35  2  0  0  0  0
 34 32  1  0  0  0  0
 35 34  2  0  0  0  0
 36 34  1  0  0  0  0
 37 38  1  0  0  0  0
 37 36  1  0  0  0  0
 39 40  1  0  0  0  0
 40 38  1  6  0  0  0
 41 39  1  0  0  0  0
 41 40  1  0  0  0  0
M  END
>  <MODEL>
2

>  <REMARK>
 VINA RESULT:      -8.4      1.520      2.273
  Name = 
  16 active torsions:
  status: ('A' for Active; 'I' for Inactive)
    1  A    between atoms: C_1  and  O_6
    2  A    between atoms: C_5  and  C_15
    3  A    between atoms: C_5  and  N_23
    4  A    between atoms: N_7  and  N_11
    5  A    between atoms: N_7  and  C_20
    6  A    between atoms: C_8  and  C_35
    7  A    between atoms: N_9  and  C_22
    8  A    between atoms: N_9  and  C_35
    9  A    between atoms: C_10  and  C_28
   10  A    between atoms: C_10  and  C_33
   11  A    between atoms: N_11  and  C_36
   12  A    between atoms: N_14  and  N_23
   13  A    between atoms: C_15  and  C_26
   14  A    between atoms: C_16  and  C_26
   15  A    between atoms: C_16  and  C_32
   16  A    between atoms: C_20  and  C_22
                            x       y       z     vdW  Elec       q    Type
                         _______ _______ _______ _____ _____    ______ ____

>  <TORSDO>
F 16

$$$$
=
 OpenBabel11042413333D

 41 44  0  0  1  0  0  0  0  0999 V2000
  191.2190  176.9090  145.5680 C   0  0  0  0  0  0  0  0  0  0  0  0
  189.6410  176.6230  142.8300 C   0  0  0  0  0  2  0  0  0  0  0  0
  188.6240  177.1330  143.7850 C   0  0  0  0  0  3  0  0  0  0  0  0
  189.9770  177.2010  145.8600 N   0  0  0  0  0  0  0  0  0  0  0  0
  191.7300  176.5800  144.1970 C   0  0  1  0  0  3  0  0  0  0  0  0
  188.7520  177.3530  145.1040 C   0  0  0  0  0  0  0  0  0  0  0  0
  191.8430  175.0700  144.0260 C   0  0  0  0  0  1  0  0  0  0  0  0
  190.9780  177.2850  143.0740 C   0  0  1  0  0  3  0  0  0  0  0  0
  192.1670  176.8680  146.5960 O   0  0  0  0  0  0  0  0  0  0  0  0
  192.1610  175.8600  147.5970 C   0  0  0  0  0  1  0  0  0  0  0  0
  187.5550  177.8240  145.8480 C   0  0  0  0  0  0  0  0  0  0  0  0
  186.4510  178.1540  145.1700 C   0  0  0  0  0  3  0  0  0  0  0  0
  187.5800  177.9350  147.2930 C   0  0  0  0  0  0  0  0  0  0  0  0
  187.5980  178.0290  148.4950 C   0  0  0  0  0  3  0  0  0  0  0  0
  185.1870  178.6320  145.8150 C   0  0  0  0  0  2  0  0  0  0  0  0
  184.1170  178.8880  144.7660 C   0  0  0  0  0  2  0  0  0  0  0  0
  184.4560  178.1840  143.4620 C   0  0  0  0  0  2  0  0  0  0  0  0
  184.1460  179.0870  142.2790 C   0  0  1  0  0  3  0  0  0  0  0  0
  185.3100  179.7280  141.8550 O   0  0  0  0  0  1  0  0  0  0  0  0
  183.6080  178.2970  141.1840 N   0  0  0  0  0  2  0  0  0  0  0  0
  183.1120  178.3970  138.8420 C   0  0  1  0  0  3  0  0  0  0  0  0
  180.4720  178.9060  141.4100 C   0  0  0  0  0  2  0  0  0  0  0  0
  182.0710  179.1640  139.5650 C   0  0  2  0  0  3  0  0  0  0  0  0
  183.4720  179.1570  140.0740 N   0  0  0  0  0  0  0  0  0  0  0  0
  183.8460  176.2610  138.0390 O   0  0  0  0  0  1  0  0  0  0  0  0
  179.4370  176.7100  139.7670 O   0  0  0  0  0  1  0  0  0  0  0  0
  181.6230  176.3780  138.8850 C   0  0  0  0  0  2  0  0  0  0  0  0
  183.0570  176.8650  139.0170 C   0  0  2  0  0  3  0  0  0  0  0  0
  180.7920  176.8880  140.0560 C   0  0  1  0  0  3  0  0  0  0  0  0
  181.0730  178.3390  140.3680 C   0  0  0  0  0  0  0  0  0  0  0  0
  191.7810  177.4190  141.8530 N   0  0  0  0  0  2  0  0  0  0  0  0
  190.9550  177.3160  140.7180 N   0  0  0  0  0  2  0  0  0  0  0  0
  193.9590  176.6120  139.0520 O   0  0  0  0  0  0  0  0  0  0  0  0
  191.4750  177.0330  139.4160 C   0  0  0  0  0  0  0  0  0  0  0  0
  192.7510  176.8180  139.2280 C   0  0  0  0  0  0  0  0  0  0  0  0
  190.5500  176.9920  138.2520 C   0  0  0  0  0  2  0  0  0  0  0  0
  189.4380  176.1010  138.5410 N   0  0  0  0  0  2  0  0  0  0  0  0
  188.2450  176.6920  137.9550 C   0  0  0  0  0  2  0  0  0  0  0  0
  186.6890  178.4400  138.6310 N   0  0  0  0  0  2  0  0  0  0  0  0
  188.1070  178.1390  138.3940 C   0  0  1  0  0  3  0  0  0  0  0  0
  187.5990  178.1850  139.7590 C   0  0  0  0  0  2  0  0  0  0  0  0
  1  4  2  0  0  0  0
  1  9  1  0  0  0  0
  2  8  1  0  0  0  0
  2  3  1  0  0  0  0
  3  6  2  0  0  0  0
  5  7  1  6  0  0  0
  5  1  1  0  0  0  0
  6 11  1  0  0  0  0
  6  4  1  0  0  0  0
  8 31  1  6  0  0  0
  8  5  1  0  0  0  0
  9 10  1  0  0  0  0
 11 13  1  0  0  0  0
 12 15  1  0  0  0  0
 12 11  2  0  0  0  0
 13 14  3  0  0  0  0
 16 15  1  0  0  0  0
 17 16  1  0  0  0  0
 18 19  1  6  0  0  0
 18 17  1  0  0  0  0
 20 18  1  0  0  0  0
 21 28  1  0  0  0  0
 21 23  1  0  0  0  0
 21 24  1  1  0  0  0
 23 24  1  0  0  0  0
 23 30  1  1  0  0  0
 24 20  1  0  0  0  0
 27 28  1  0  0  0  0
 27 29  1  0  0  0  0
 28 25  1  6  0  0  0
 29 26  1  6  0  0  0
 29 30  1  0  0  0  0
 30 22  2  0  0  0  0
 32 31  1  0  0  0  0
 33 35  2  0  0  0  0
 34 32  1  0  0  0  0
 35 34  2  0  0  0  0
 36 37  1  0  0  0  0
 36 34  1  0  0  0  0
 38 37  1  0  0  0  0
 39 41  1  0  0  0  0
 40 38  1  6  0  0  0
 40 39  1  0  0  0  0
 40 41  1  0  0  0  0
M  END
>  <MODEL>
3

>  <REMARK>
 VINA RESULT:      -8.3      1.813      2.878
  Name = 
  16 active torsions:
  status: ('A' for Active; 'I' for Inactive)
    1  A    between atoms: C_1  and  O_6
    2  A    between atoms: C_5  and  C_15
    3  A    between atoms: C_5  and  N_23
    4  A    between atoms: N_7  and  N_11
    5  A    between atoms: N_7  and  C_20
    6  A    between atoms: C_8  and  C_35
    7  A    between atoms: N_9  and  C_22
    8  A    between atoms: N_9  and  C_35
    9  A    between atoms: C_10  and  C_28
   10  A    between atoms: C_10  and  C_33
   11  A    between atoms: N_11  and  C_36
   12  A    between atoms: N_14  and  N_23
   13  A    between atoms: C_15  and  C_26
   14  A    between atoms: C_16  and  C_26
   15  A    between atoms: C_16  and  C_32
   16  A    between atoms: C_20  and  C_22
                            x       y       z     vdW  Elec       q    Type
                         _______ _______ _______ _____ _____    ______ ____

>  <TORSDO>
F 16

$$$$
=
 OpenBabel11042413333D

 41 44  0  0  1  0  0  0  0  0999 V2000
  181.7780  177.5620  139.5970 C   0  0  0  0  0  0  0  0  0  0  0  0
  184.4890  179.0640  138.9140 C   0  0  0  0  0  2  0  0  0  0  0  0
  184.4570  179.0280  140.4000 C   0  0  0  0  0  3  0  0  0  0  0  0
  182.2630  177.9310  140.7550 N   0  0  0  0  0  0  0  0  0  0  0  0
  182.4460  177.7800  138.2730 C   0  0  1  0  0  3  0  0  0  0  0  0
  183.4820  178.5710  141.2030 C   0  0  0  0  0  0  0  0  0  0  0  0
  181.8600  179.0060  137.5830 C   0  0  0  0  0  1  0  0  0  0  0  0
  183.9690  177.7650  138.3400 C   0  0  1  0  0  3  0  0  0  0  0  0
  180.5290  176.9340  139.5520 O   0  0  0  0  0  0  0  0  0  0  0  0
  179.4970  177.2240  140.4840 C   0  0  0  0  0  1  0  0  0  0  0  0
  183.6770  178.6960  142.6710 C   0  0  0  0  0  0  0  0  0  0  0  0
  184.9190  178.6940  143.1680 C   0  0  0  0  0  3  0  0  0  0  0  0
  182.5400  178.8090  143.5610 C   0  0  0  0  0  0  0  0  0  0  0  0
  181.5930  178.9030  144.3010 C   0  0  0  0  0  3  0  0  0  0  0  0
  185.2340  178.8220  144.6260 C   0  0  0  0  0  2  0  0  0  0  0  0
  186.2380  177.7610  145.0500 C   0  0  0  0  0  2  0  0  0  0  0  0
  186.7100  178.0010  146.4750 C   0  0  0  0  0  2  0  0  0  0  0  0
  188.2170  177.8220  146.5670 C   0  0  1  0  0  3  0  0  0  0  0  0
  188.5140  176.6940  147.3330 O   0  0  0  0  0  1  0  0  0  0  0  0
  188.7760  177.6580  145.2360 N   0  0  0  0  0  2  0  0  0  0  0  0
  191.1060  177.9560  144.7630 C   0  0  1  0  0  3  0  0  0  0  0  0
  188.5360  178.1820  142.0850 C   0  0  0  0  0  2  0  0  0  0  0  0
  190.3310  178.6360  143.6980 C   0  0  2  0  0  3  0  0  0  0  0  0
  189.8060  178.6110  145.0940 N   0  0  0  0  0  0  0  0  0  0  0  0
  192.0870  175.9160  145.5500 O   0  0  0  0  0  1  0  0  0  0  0  0
  190.3810  176.1200  141.1140 O   0  0  0  0  0  1  0  0  0  0  0  0
  191.2610  175.9130  143.3170 C   0  0  0  0  0  2  0  0  0  0  0  0
  191.0690  176.4150  144.7380 C   0  0  2  0  0  3  0  0  0  0  0  0
  190.0610  176.3000  142.4620 C   0  0  1  0  0  3  0  0  0  0  0  0
  189.6170  177.7220  142.7090 C   0  0  0  0  0  0  0  0  0  0  0  0
  184.5890  177.4190  137.0560 N   0  0  0  0  0  2  0  0  0  0  0  0
  184.4160  176.0490  136.7900 N   0  0  0  0  0  2  0  0  0  0  0  0
  185.2280  172.8090  137.8590 O   0  0  0  0  0  0  0  0  0  0  0  0
  185.5020  175.1180  136.8230 C   0  0  0  0  0  0  0  0  0  0  0  0
  185.3620  173.9330  137.3560 C   0  0  0  0  0  0  0  0  0  0  0  0
  186.8170  175.5090  136.2490 C   0  0  0  0  0  2  0  0  0  0  0  0
  187.7470  175.8250  137.3200 N   0  0  0  0  0  2  0  0  0  0  0  0
  188.7450  176.7320  136.7760 C   0  0  0  0  0  2  0  0  0  0  0  0
  187.8790  178.6340  138.0270 N   0  0  0  0  0  2  0  0  0  0  0  0
  188.1790  178.1370  136.6770 C   0  0  1  0  0  3  0  0  0  0  0  0
  189.0920  179.0740  137.3190 C   0  0  0  0  0  2  0  0  0  0  0  0
  1  4  2  0  0  0  0
  2  3  1  0  0  0  0
  3  6  2  0  0  0  0
  4  6  1  0  0  0  0
  5  7  1  1  0  0  0
  5  8  1  0  0  0  0
  5  1  1  0  0  0  0
  6 11  1  0  0  0  0
  8 31  1  6  0  0  0
  8  2  1  0  0  0  0
  9  1  1  0  0  0  0
  9 10  1  0  0  0  0
 11 12  2  0  0  0  0
 11 13  1  0  0  0  0
 12 15  1  0  0  0  0
 13 14  3  0  0  0  0
 15 16  1  0  0  0  0
 16 17  1  0  0  0  0
 17 18  1  0  0  0  0
 18 19  1  1  0  0  0
 20 18  1  0  0  0  0
 21 24  1  1  0  0  0
 22 30  2  0  0  0  0
 23 30  1  6  0  0  0
 23 21  1  0  0  0  0
 23 24  1  0  0  0  0
 24 20  1  0  0  0  0
 27 28  1  0  0  0  0
 28 21  1  0  0  0  0
 28 25  1  1  0  0  0
 29 26  1  6  0  0  0
 29 30  1  0  0  0  0
 29 27  1  0  0  0  0
 32 34  1  0  0  0  0
 32 31  1  0  0  0  0
 34 35  2  0  0  0  0
 35 33  2  0  0  0  0
 36 34  1  0  0  0  0
 36 37  1  0  0  0  0
 38 37  1  0  0  0  0
 40 38  1  1  0  0  0
 40 41  1  0  0  0  0
 40 39  1  0  0  0  0
 41 39  1  0  0  0  0
M  END
>  <MODEL>
4

>  <REMARK>
 VINA RESULT:      -7.7      2.645      7.757
  Name = 
  16 active torsions:
  status: ('A' for Active; 'I' for Inactive)
    1  A    between atoms: C_1  and  O_6
    2  A    between atoms: C_5  and  C_15
    3  A    between atoms: C_5  and  N_23
    4  A    between atoms: N_7  and  N_11
    5  A    between atoms: N_7  and  C_20
    6  A    between atoms: C_8  and  C_35
    7  A    between atoms: N_9  and  C_22
    8  A    between atoms: N_9  and  C_35
    9  A    between atoms: C_10  and  C_28
   10  A    between atoms: C_10  and  C_33
   11  A    between atoms: N_11  and  C_36
   12  A    between atoms: N_14  and  N_23
   13  A    between atoms: C_15  and  C_26
   14  A    between atoms: C_16  and  C_26
   15  A    between atoms: C_16  and  C_32
   16  A    between atoms: C_20  and  C_22
                            x       y       z     vdW  Elec       q    Type
                         _______ _______ _______ _____ _____    ______ ____

>  <TORSDO>
F 16

$$$$
=
 OpenBabel11042413333D

 41 44  0  0  1  0  0  0  0  0999 V2000
  182.5170  176.9860  139.3600 C   0  0  0  0  0  0  0  0  0  0  0  0
  184.8440  179.0840  138.8520 C   0  0  0  0  0  2  0  0  0  0  0  0
  184.7030  179.0460  140.3310 C   0  0  0  0  0  3  0  0  0  0  0  0
  182.8080  177.4630  140.5430 N   0  0  0  0  0  0  0  0  0  0  0  0
  183.2170  177.3510  138.0860 C   0  0  1  0  0  3  0  0  0  0  0  0
  183.8030  178.3750  141.0680 C   0  0  0  0  0  0  0  0  0  0  0  0
  182.4150  178.4020  137.3270 C   0  0  0  0  0  1  0  0  0  0  0  0
  184.6900  177.6970  138.2690 C   0  0  1  0  0  3  0  0  0  0  0  0
  181.4580  176.0810  139.2350 O   0  0  0  0  0  0  0  0  0  0  0  0
  181.4650  175.0270  138.2820 C   0  0  0  0  0  1  0  0  0  0  0  0
  183.8470  178.5470  142.5430 C   0  0  0  0  0  0  0  0  0  0  0  0
  185.0230  178.4660  143.1770 C   0  0  0  0  0  3  0  0  0  0  0  0
  182.6340  178.7920  143.2960 C   0  0  0  0  0  0  0  0  0  0  0  0
  181.6230  178.9960  143.9200 C   0  0  0  0  0  3  0  0  0  0  0  0
  185.1870  178.6310  144.6550 C   0  0  0  0  0  2  0  0  0  0  0  0
  186.2620  177.6930  145.1810 C   0  0  0  0  0  2  0  0  0  0  0  0
  186.7120  178.1100  146.5720 C   0  0  0  0  0  2  0  0  0  0  0  0
  188.1910  177.8130  146.7580 C   0  0  1  0  0  3  0  0  0  0  0  0
  188.3500  176.6800  147.5570 O   0  0  0  0  0  1  0  0  0  0  0  0
  188.8130  177.5780  145.4650 N   0  0  0  0  0  2  0  0  0  0  0  0
  191.1350  177.9080  144.9720 C   0  0  1  0  0  3  0  0  0  0  0  0
  188.5430  178.0630  142.3110 C   0  0  0  0  0  2  0  0  0  0  0  0
  190.3410  178.5630  143.9060 C   0  0  2  0  0  3  0  0  0  0  0  0
  189.8270  178.5460  145.3050 N   0  0  0  0  0  0  0  0  0  0  0  0
  192.1530  175.8930  145.7750 O   0  0  0  0  0  1  0  0  0  0  0  0
  190.4140  176.0210  141.3490 O   0  0  0  0  0  1  0  0  0  0  0  0
  191.3130  175.8520  143.5470 C   0  0  0  0  0  2  0  0  0  0  0  0
  191.1220  176.3660  144.9640 C   0  0  2  0  0  3  0  0  0  0  0  0
  190.1000  176.2100  142.6970 C   0  0  1  0  0  3  0  0  0  0  0  0
  189.6350  177.6280  142.9320 C   0  0  0  0  0  0  0  0  0  0  0  0
  185.4740  177.5030  137.0430 N   0  0  0  0  0  2  0  0  0  0  0  0
  186.6070  176.7130  137.3140 N   0  0  0  0  0  2  0  0  0  0  0  0
  188.8100  178.9410  138.8870 O   0  0  0  0  0  0  0  0  0  0  0  0
  187.9390  177.2260  137.2210 C   0  0  0  0  0  0  0  0  0  0  0  0
  188.3870  178.1080  138.0760 C   0  0  0  0  0  0  0  0  0  0  0  0
  188.8280  176.7540  136.1260 C   0  0  0  0  0  2  0  0  0  0  0  0
  189.6310  175.6370  136.5930 N   0  0  0  0  0  2  0  0  0  0  0  0
  190.9930  175.8560  136.1300 C   0  0  0  0  0  2  0  0  0  0  0  0
  193.0610  176.4780  137.2560 N   0  0  0  0  0  2  0  0  0  0  0  0
  191.9830  175.4810  137.2170 C   0  0  1  0  0  3  0  0  0  0  0  0
  191.9790  176.5060  138.2520 C   0  0  0  0  0  2  0  0  0  0  0  0
  1  4  2  0  0  0  0
  2  3  1  0  0  0  0
  3  6  2  0  0  0  0
  4  6  1  0  0  0  0
  5  7  1  1  0  0  0
  5  8  1  0  0  0  0
  5  1  1  0  0  0  0
  6 11  1  0  0  0  0
  8 31  1  6  0  0  0
  8  2  1  0  0  0  0
  9  1  1  0  0  0  0
 10  9  1  0  0  0  0
 11 12  2  0  0  0  0
 11 13  1  0  0  0  0
 12 15  1  0  0  0  0
 13 14  3  0  0  0  0
 15 16  1  0  0  0  0
 16 17  1  0  0  0  0
 17 18  1  0  0  0  0
 18 19  1  1  0  0  0
 20 18  1  0  0  0  0
 21 24  1  1  0  0  0
 22 30  2  0  0  0  0
 23 30  1  6  0  0  0
 23 21  1  0  0  0  0
 23 24  1  0  0  0  0
 24 20  1  0  0  0  0
 27 28  1  0  0  0  0
 28 21  1  0  0  0  0
 28 25  1  1  0  0  0
 29 26  1  6  0  0  0
 29 30  1  0  0  0  0
 29 27  1  0  0  0  0
 31 32  1  0  0  0  0
 34 32  1  0  0  0  0
 34 35  2  0  0  0  0
 35 33  2  0  0  0  0
 36 37  1  0  0  0  0
 36 34  1  0  0  0  0
 38 37  1  0  0  0  0
 39 41  1  0  0  0  0
 40 38  1  6  0  0  0
 40 39  1  0  0  0  0
 40 41  1  0  0  0  0
M  END
>  <MODEL>
5

>  <REMARK>
 VINA RESULT:      -7.7      1.977      7.252
  Name = 
  16 active torsions:
  status: ('A' for Active; 'I' for Inactive)
    1  A    between atoms: C_1  and  O_6
    2  A    between atoms: C_5  and  C_15
    3  A    between atoms: C_5  and  N_23
    4  A    between atoms: N_7  and  N_11
    5  A    between atoms: N_7  and  C_20
    6  A    between atoms: C_8  and  C_35
    7  A    between atoms: N_9  and  C_22
    8  A    between atoms: N_9  and  C_35
    9  A    between atoms: C_10  and  C_28
   10  A    between atoms: C_10  and  C_33
   11  A    between atoms: N_11  and  C_36
   12  A    between atoms: N_14  and  N_23
   13  A    between atoms: C_15  and  C_26
   14  A    between atoms: C_16  and  C_26
   15  A    between atoms: C_16  and  C_32
   16  A    between atoms: C_20  and  C_22
                            x       y       z     vdW  Elec       q    Type
                         _______ _______ _______ _____ _____    ______ ____

>  <TORSDO>
F 16

$$$$
=
 OpenBabel11042413333D

 41 44  0  0  1  0  0  0  0  0999 V2000
  182.1980  177.0520  139.3130 C   0  0  0  0  0  0  0  0  0  0  0  0
  184.4000  179.3240  139.0640 C   0  0  0  0  0  2  0  0  0  0  0  0
  184.1270  179.2390  140.5230 C   0  0  0  0  0  3  0  0  0  0  0  0
  182.3430  177.5190  140.5270 N   0  0  0  0  0  0  0  0  0  0  0  0
  182.9830  177.4990  138.1170 C   0  0  1  0  0  3  0  0  0  0  0  0
  183.2150  178.4860  141.1600 C   0  0  0  0  0  0  0  0  0  0  0  0
  182.1800  178.5080  137.3060 C   0  0  0  0  0  1  0  0  0  0  0  0
  184.4040  177.9460  138.4440 C   0  0  1  0  0  3  0  0  0  0  0  0
  181.2250  176.0770  139.0720 O   0  0  0  0  0  0  0  0  0  0  0  0
  180.3560  175.6000  140.0890 C   0  0  0  0  0  1  0  0  0  0  0  0
  183.1100  178.6240  142.6350 C   0  0  0  0  0  0  0  0  0  0  0  0
  184.2200  178.5560  143.3790 C   0  0  0  0  0  3  0  0  0  0  0  0
  181.8220  178.8200  143.2700 C   0  0  0  0  0  0  0  0  0  0  0  0
  180.7510  178.9820  143.7980 C   0  0  0  0  0  3  0  0  0  0  0  0
  184.2340  178.6900  144.8700 C   0  0  0  0  0  2  0  0  0  0  0  0
  185.6310  179.0340  145.3620 C   0  0  0  0  0  2  0  0  0  0  0  0
  186.2950  177.8230  145.9980 C   0  0  0  0  0  2  0  0  0  0  0  0
  187.8000  178.0230  146.0680 C   0  0  1  0  0  3  0  0  0  0  0  0
  188.3700  177.0510  146.8910 O   0  0  0  0  0  1  0  0  0  0  0  0
  188.3730  177.9180  144.7360 N   0  0  0  0  0  2  0  0  0  0  0  0
  188.0040  176.6900  142.7110 C   0  0  1  0  0  3  0  0  0  0  0  0
  191.2450  176.5170  144.5250 C   0  0  0  0  0  2  0  0  0  0  0  0
  189.0870  176.0170  143.4660 C   0  0  2  0  0  3  0  0  0  0  0  0
  187.9710  176.6750  144.2040 N   0  0  0  0  0  0  0  0  0  0  0  0
  187.4050  178.3980  141.1400 O   0  0  0  0  0  1  0  0  0  0  0  0
  191.9990  177.3700  141.8240 O   0  0  0  0  0  1  0  0  0  0  0  0
  189.7300  177.9620  141.4100 C   0  0  0  0  0  2  0  0  0  0  0  0
  188.3710  178.0500  142.0840 C   0  0  2  0  0  3  0  0  0  0  0  0
  190.8180  177.7620  142.4580 C   0  0  1  0  0  3  0  0  0  0  0  0
  190.4240  176.7470  143.5050 C   0  0  0  0  0  0  0  0  0  0  0  0
  185.3100  177.8400  137.2940 N   0  0  0  0  0  2  0  0  0  0  0  0
  186.4260  177.0520  137.6300 N   0  0  0  0  0  2  0  0  0  0  0  0
  189.0530  179.2900  138.2520 O   0  0  0  0  0  0  0  0  0  0  0  0
  187.7500  177.3760  137.1940 C   0  0  0  0  0  0  0  0  0  0  0  0
  188.4200  178.3600  137.7360 C   0  0  0  0  0  0  0  0  0  0  0  0
  188.3740  176.5850  136.1000 C   0  0  0  0  0  2  0  0  0  0  0  0
  188.6620  175.2400  136.5700 N   0  0  0  0  0  2  0  0  0  0  0  0
  190.0260  174.9250  136.1770 C   0  0  0  0  0  2  0  0  0  0  0  0
  190.9770  175.1720  138.4060 N   0  0  0  0  0  2  0  0  0  0  0  0
  191.0110  175.6990  137.0350 C   0  0  1  0  0  3  0  0  0  0  0  0
  192.0670  174.8030  137.4890 C   0  0  0  0  0  2  0  0  0  0  0  0
  1  4  2  0  0  0  0
  2  3  1  0  0  0  0
  3  6  2  0  0  0  0
  4  6  1  0  0  0  0
  5  7  1  1  0  0  0
  5  8  1  0  0  0  0
  5  1  1  0  0  0  0
  6 11  1  0  0  0  0
  8 31  1  6  0  0  0
  8  2  1  0  0  0  0
  9  1  1  0  0  0  0
  9 10  1  0  0  0  0
 11 13  1  0  0  0  0
 11 12  2  0  0  0  0
 12 15  1  0  0  0  0
 13 14  3  0  0  0  0
 15 16  1  0  0  0  0
 16 17  1  0  0  0  0
 17 18  1  0  0  0  0
 18 19  1  1  0  0  0
 20 18  1  0  0  0  0
 21 23  1  0  0  0  0
 21 24  1  1  0  0  0
 23 30  1  1  0  0  0
 23 24  1  0  0  0  0
 24 20  1  0  0  0  0
 27 28  1  0  0  0  0
 27 29  1  0  0  0  0
 28 25  1  6  0  0  0
 28 21  1  0  0  0  0
 29 26  1  6  0  0  0
 29 30  1  0  0  0  0
 30 22  2  0  0  0  0
 31 32  1  0  0  0  0
 34 32  1  0  0  0  0
 34 35  2  0  0  0  0
 35 33  2  0  0  0  0
 36 37  1  0  0  0  0
 36 34  1  0  0  0  0
 38 37  1  0  0  0  0
 40 38  1  6  0  0  0
 40 41  1  0  0  0  0
 40 39  1  0  0  0  0
 41 39  1  0  0  0  0
M  END
>  <MODEL>
6

>  <REMARK>
 VINA RESULT:      -7.6      2.031      6.961
  Name = 
  16 active torsions:
  status: ('A' for Active; 'I' for Inactive)
    1  A    between atoms: C_1  and  O_6
    2  A    between atoms: C_5  and  C_15
    3  A    between atoms: C_5  and  N_23
    4  A    between atoms: N_7  and  N_11
    5  A    between atoms: N_7  and  C_20
    6  A    between atoms: C_8  and  C_35
    7  A    between atoms: N_9  and  C_22
    8  A    between atoms: N_9  and  C_35
    9  A    between atoms: C_10  and  C_28
   10  A    between atoms: C_10  and  C_33
   11  A    between atoms: N_11  and  C_36
   12  A    between atoms: N_14  and  N_23
   13  A    between atoms: C_15  and  C_26
   14  A    between atoms: C_16  and  C_26
   15  A    between atoms: C_16  and  C_32
   16  A    between atoms: C_20  and  C_22
                            x       y       z     vdW  Elec       q    Type
                         _______ _______ _______ _____ _____    ______ ____

>  <TORSDO>
F 16

$$$$
=
 OpenBabel11042413333D

 41 44  0  0  1  0  0  0  0  0999 V2000
  187.7020  178.2560  141.7330 C   0  0  0  0  0  0  0  0  0  0  0  0
  190.2760  176.5050  142.3430 C   0  0  0  0  0  2  0  0  0  0  0  0
  190.2870  176.6660  140.8660 C   0  0  0  0  0  3  0  0  0  0  0  0
  188.1900  177.9490  140.5580 N   0  0  0  0  0  0  0  0  0  0  0  0
  188.3150  177.8800  143.0480 C   0  0  1  0  0  3  0  0  0  0  0  0
  189.3700  177.2590  140.0830 C   0  0  0  0  0  0  0  0  0  0  0  0
  187.6230  176.6480  143.6190 C   0  0  0  0  0  1  0  0  0  0  0  0
  189.8360  177.7860  143.0140 C   0  0  1  0  0  3  0  0  0  0  0  0
  186.5000  178.9690  141.8040 O   0  0  0  0  0  0  0  0  0  0  0  0
  185.5340  178.9400  140.7630 C   0  0  0  0  0  1  0  0  0  0  0  0
  189.5970  177.2420  138.6150 C   0  0  0  0  0  0  0  0  0  0  0  0
  190.0870  176.1380  138.0410 C   0  0  0  0  0  3  0  0  0  0  0  0
  189.3000  178.4080  137.8080 C   0  0  0  0  0  0  0  0  0  0  0  0
  189.0520  179.3780  137.1360 C   0  0  0  0  0  3  0  0  0  0  0  0
  190.3460  176.0050  136.5730 C   0  0  0  0  0  2  0  0  0  0  0  0
  191.6130  175.2020  136.3250 C   0  0  0  0  0  2  0  0  0  0  0  0
  192.4090  175.0370  137.6100 C   0  0  0  0  0  2  0  0  0  0  0  0
  193.5900  175.9940  137.6250 C   0  0  1  0  0  3  0  0  0  0  0  0
  193.5550  176.7700  138.7850 O   0  0  0  0  0  1  0  0  0  0  0  0
  194.8330  175.2430  137.5890 N   0  0  0  0  0  2  0  0  0  0  0  0
  196.9030  175.1330  136.3850 C   0  0  1  0  0  3  0  0  0  0  0  0
  194.3320  172.4640  136.0770 C   0  0  0  0  0  2  0  0  0  0  0  0
  195.9090  174.3010  135.6670 C   0  0  2  0  0  3  0  0  0  0  0  0
  195.4680  175.5430  136.3640 N   0  0  0  0  0  0  0  0  0  0  0  0
  198.5500  175.2530  138.1220 O   0  0  0  0  0  1  0  0  0  0  0  0
  196.7440  171.0220  136.9130 O   0  0  0  0  0  1  0  0  0  0  0  0
  197.7080  173.0890  137.5940 C   0  0  0  0  0  2  0  0  0  0  0  0
  197.3980  174.5700  137.7320 C   0  0  2  0  0  3  0  0  0  0  0  0
  196.4230  172.3090  137.3480 C   0  0  1  0  0  3  0  0  0  0  0  0
  195.5240  172.9910  136.3440 C   0  0  0  0  0  0  0  0  0  0  0  0
  190.4450  177.9780  144.3360 N   0  0  0  0  0  2  0  0  0  0  0  0
  190.3790  176.7830  145.0760 N   0  0  0  0  0  2  0  0  0  0  0  0
  192.7140  176.0120  147.5750 O   0  0  0  0  0  0  0  0  0  0  0  0
  190.5300  176.7530  146.4980 C   0  0  0  0  0  0  0  0  0  0  0  0
  191.6510  176.3720  147.0520 C   0  0  0  0  0  0  0  0  0  0  0  0
  189.3900  177.1570  147.3630 C   0  0  0  0  0  2  0  0  0  0  0  0
  188.4200  177.9050  146.5800 N   0  0  0  0  0  2  0  0  0  0  0  0
  187.1910  177.9680  147.3550 C   0  0  0  0  0  2  0  0  0  0  0  0
  184.8790  178.6290  146.9690 N   0  0  0  0  0  2  0  0  0  0  0  0
  185.9870  177.8200  146.4430 C   0  0  1  0  0  3  0  0  0  0  0  0
  185.6810  179.1080  145.8320 C   0  0  0  0  0  2  0  0  0  0  0  0
  1  9  1  0  0  0  0
  1  5  1  0  0  0  0
  2  8  1  0  0  0  0
  3  2  1  0  0  0  0
  4  1  2  0  0  0  0
  5  7  1  6  0  0  0
  6  4  1  0  0  0  0
  6  3  2  0  0  0  0
  8  5  1  0  0  0  0
  8 31  1  1  0  0  0
 10  9  1  0  0  0  0
 11  6  1  0  0  0  0
 12 11  2  0  0  0  0
 13 11  1  0  0  0  0
 14 13  3  0  0  0  0
 15 12  1  0  0  0  0
 16 15  1  0  0  0  0
 16 17  1  0  0  0  0
 17 18  1  0  0  0  0
 18 19  1  1  0  0  0
 20 18  1  0  0  0  0
 21 24  1  1  0  0  0
 21 28  1  0  0  0  0
 22 30  2  0  0  0  0
 23 30  1  1  0  0  0
 23 24  1  0  0  0  0
 23 21  1  0  0  0  0
 24 20  1  0  0  0  0
 27 28  1  0  0  0  0
 28 25  1  6  0  0  0
 29 26  1  6  0  0  0
 29 27  1  0  0  0  0
 30 29  1  0  0  0  0
 31 32  1  0  0  0  0
 32 34  1  0  0  0  0
 34 35  2  0  0  0  0
 34 36  1  0  0  0  0
 35 33  2  0  0  0  0
 37 38  1  0  0  0  0
 37 36  1  0  0  0  0
 40 39  1  0  0  0  0
 40 38  1  1  0  0  0
 41 40  1  0  0  0  0
 41 39  1  0  0  0  0
M  END
>  <MODEL>
7

>  <REMARK>
 VINA RESULT:      -7.5      3.446     10.664
  Name = 
  16 active torsions:
  status: ('A' for Active; 'I' for Inactive)
    1  A    between atoms: C_1  and  O_6
    2  A    between atoms: C_5  and  C_15
    3  A    between atoms: C_5  and  N_23
    4  A    between atoms: N_7  and  N_11
    5  A    between atoms: N_7  and  C_20
    6  A    between atoms: C_8  and  C_35
    7  A    between atoms: N_9  and  C_22
    8  A    between atoms: N_9  and  C_35
    9  A    between atoms: C_10  and  C_28
   10  A    between atoms: C_10  and  C_33
   11  A    between atoms: N_11  and  C_36
   12  A    between atoms: N_14  and  N_23
   13  A    between atoms: C_15  and  C_26
   14  A    between atoms: C_16  and  C_26
   15  A    between atoms: C_16  and  C_32
   16  A    between atoms: C_20  and  C_22
                            x       y       z     vdW  Elec       q    Type
                         _______ _______ _______ _____ _____    ______ ____

>  <TORSDO>
F 16

$$$$
=
 OpenBabel11042413333D

 41 44  0  0  1  0  0  0  0  0999 V2000
  187.7070  178.1740  141.8130 C   0  0  0  0  0  0  0  0  0  0  0  0
  190.5030  176.8110  142.4430 C   0  0  0  0  0  2  0  0  0  0  0  0
  190.5320  177.0410  140.9750 C   0  0  0  0  0  3  0  0  0  0  0  0
  188.2710  178.0000  140.6450 N   0  0  0  0  0  0  0  0  0  0  0  0
  188.3320  177.8350  143.1330 C   0  0  1  0  0  3  0  0  0  0  0  0
  189.5580  177.5230  140.1850 C   0  0  0  0  0  0  0  0  0  0  0  0
  187.8230  176.4860  143.6270 C   0  0  0  0  0  1  0  0  0  0  0  0
  189.8500  177.9770  143.1510 C   0  0  1  0  0  3  0  0  0  0  0  0
  186.4080  178.6900  141.8700 O   0  0  0  0  0  0  0  0  0  0  0  0
  185.4630  178.2710  142.8450 C   0  0  0  0  0  1  0  0  0  0  0  0
  189.8270  177.6090  138.7270 C   0  0  0  0  0  0  0  0  0  0  0  0
  189.0020  178.3200  137.9500 C   0  0  0  0  0  3  0  0  0  0  0  0
  190.9640  176.9260  138.1430 C   0  0  0  0  0  0  0  0  0  0  0  0
  191.9100  176.3600  137.6570 C   0  0  0  0  0  3  0  0  0  0  0  0
  189.1800  178.4830  136.4720 C   0  0  0  0  0  2  0  0  0  0  0  0
  188.1840  177.6190  135.7170 C   0  0  0  0  0  2  0  0  0  0  0  0
  186.8040  177.7050  136.3480 C   0  0  0  0  0  2  0  0  0  0  0  0
  186.2130  176.3140  136.5140 C   0  0  1  0  0  3  0  0  0  0  0  0
  187.1490  175.4700  137.1120 O   0  0  0  0  0  1  0  0  0  0  0  0
  185.0250  176.3800  137.3490 N   0  0  0  0  0  2  0  0  0  0  0  0
  182.6490  176.5090  137.0570 C   0  0  1  0  0  3  0  0  0  0  0  0
  184.5050  179.0510  139.0370 C   0  0  0  0  0  2  0  0  0  0  0  0
  183.1490  177.8700  137.3650 C   0  0  2  0  0  3  0  0  0  0  0  0
  183.9920  176.9360  136.5640 N   0  0  0  0  0  0  0  0  0  0  0  0
  181.8810  174.4050  137.9100 O   0  0  0  0  0  1  0  0  0  0  0  0
  182.4770  178.0530  140.9040 O   0  0  0  0  0  1  0  0  0  0  0  0
  182.1490  176.1650  139.4910 C   0  0  0  0  0  2  0  0  0  0  0  0
  182.6760  175.5050  138.2280 C   0  0  2  0  0  3  0  0  0  0  0  0
  183.1110  177.2540  139.9490 C   0  0  1  0  0  3  0  0  0  0  0  0
  183.6040  178.1020  138.8010 C   0  0  0  0  0  0  0  0  0  0  0  0
  190.3820  178.1980  144.5000 N   0  0  0  0  0  2  0  0  0  0  0  0
  190.8670  176.9880  145.0310 N   0  0  0  0  0  2  0  0  0  0  0  0
  192.9340  175.3410  147.3360 O   0  0  0  0  0  0  0  0  0  0  0  0
  191.0400  176.7850  146.4370 C   0  0  0  0  0  0  0  0  0  0  0  0
  192.0120  176.0420  146.8990 C   0  0  0  0  0  0  0  0  0  0  0  0
  190.0920  177.4220  147.3900 C   0  0  0  0  0  2  0  0  0  0  0  0
  188.7490  176.9180  147.1570 N   0  0  0  0  0  2  0  0  0  0  0  0
  187.8180  177.9030  147.6870 C   0  0  0  0  0  2  0  0  0  0  0  0
  185.9490  177.4560  146.1910 N   0  0  0  0  0  2  0  0  0  0  0  0
  186.9520  178.4600  146.5720 C   0  0  1  0  0  3  0  0  0  0  0  0
  185.5810  178.5970  147.0450 C   0  0  0  0  0  2  0  0  0  0  0  0
  1  9  1  0  0  0  0
  1  5  1  0  0  0  0
  2  8  1  0  0  0  0
  3  2  1  0  0  0  0
  4  1  2  0  0  0  0
  5  8  1  0  0  0  0
  5  7  1  6  0  0  0
  6  4  1  0  0  0  0
  6  3  2  0  0  0  0
  8 31  1  1  0  0  0
  9 10  1  0  0  0  0
 11  6  1  0  0  0  0
 12 11  2  0  0  0  0
 13 11  1  0  0  0  0
 14 13  3  0  0  0  0
 15 12  1  0  0  0  0
 16 17  1  0  0  0  0
 16 15  1  0  0  0  0
 17 18  1  0  0  0  0
 18 19  1  1  0  0  0
 18 20  1  0  0  0  0
 21 24  1  6  0  0  0
 21 23  1  0  0  0  0
 21 28  1  0  0  0  0
 23 30  1  1  0  0  0
 24 20  1  0  0  0  0
 24 23  1  0  0  0  0
 27 29  1  0  0  0  0
 28 25  1  6  0  0  0
 28 27  1  0  0  0  0
 29 26  1  1  0  0  0
 30 22  2  0  0  0  0
 30 29  1  0  0  0  0
 31 32  1  0  0  0  0
 32 34  1  0  0  0  0
 34 35  2  0  0  0  0
 34 36  1  0  0  0  0
 35 33  2  0  0  0  0
 37 36  1  0  0  0  0
 37 38  1  0  0  0  0
 39 40  1  0  0  0  0
 39 41  1  0  0  0  0
 40 41  1  0  0  0  0
 40 38  1  1  0  0  0
M  END
>  <MODEL>
8

>  <REMARK>
 VINA RESULT:      -7.2      2.468      7.421
  Name = 
  16 active torsions:
  status: ('A' for Active; 'I' for Inactive)
    1  A    between atoms: C_1  and  O_6
    2  A    between atoms: C_5  and  C_15
    3  A    between atoms: C_5  and  N_23
    4  A    between atoms: N_7  and  N_11
    5  A    between atoms: N_7  and  C_20
    6  A    between atoms: C_8  and  C_35
    7  A    between atoms: N_9  and  C_22
    8  A    between atoms: N_9  and  C_35
    9  A    between atoms: C_10  and  C_28
   10  A    between atoms: C_10  and  C_33
   11  A    between atoms: N_11  and  C_36
   12  A    between atoms: N_14  and  N_23
   13  A    between atoms: C_15  and  C_26
   14  A    between atoms: C_16  and  C_26
   15  A    between atoms: C_16  and  C_32
   16  A    between atoms: C_20  and  C_22
                            x       y       z     vdW  Elec       q    Type
                         _______ _______ _______ _____ _____    ______ ____

>  <TORSDO>
F 16

$$$$
=
 OpenBabel11042413333D

 41 44  0  0  1  0  0  0  0  0999 V2000
  186.3060  177.7660  144.2250 C   0  0  0  0  0  0  0  0  0  0  0  0
  185.7280  179.1360  141.4210 C   0  0  0  0  0  2  0  0  0  0  0  0
  187.1390  178.6800  141.3200 C   0  0  0  0  0  3  0  0  0  0  0  0
  187.4510  177.7400  143.5920 N   0  0  0  0  0  0  0  0  0  0  0  0
  185.0200  178.2900  143.6610 C   0  0  1  0  0  3  0  0  0  0  0  0
  187.9020  178.1060  142.2660 C   0  0  0  0  0  0  0  0  0  0  0  0
  184.7710  179.7120  144.1490 C   0  0  0  0  0  1  0  0  0  0  0  0
  184.8900  178.1120  142.1530 C   0  0  1  0  0  3  0  0  0  0  0  0
  186.2480  177.2990  145.5420 O   0  0  0  0  0  0  0  0  0  0  0  0
  187.2200  177.6460  146.5170 C   0  0  0  0  0  1  0  0  0  0  0  0
  189.3110  177.7870  141.9200 C   0  0  0  0  0  0  0  0  0  0  0  0
  189.5890  177.2730  140.7170 C   0  0  0  0  0  3  0  0  0  0  0  0
  190.3770  178.0180  142.8740 C   0  0  0  0  0  0  0  0  0  0  0  0
  191.2640  178.2110  143.6660 C   0  0  0  0  0  3  0  0  0  0  0  0
  190.9700  176.9210  140.2590 C   0  0  0  0  0  2  0  0  0  0  0  0
  191.0370  176.8890  138.7400 C   0  0  0  0  0  2  0  0  0  0  0  0
  191.4850  175.5230  138.2460 C   0  0  0  0  0  2  0  0  0  0  0  0
  190.5160  174.9960  137.2010 C   0  0  1  0  0  3  0  0  0  0  0  0
  190.1510  173.6850  137.5110 O   0  0  0  0  0  1  0  0  0  0  0  0
  189.3250  175.8290  137.1700 N   0  0  0  0  0  2  0  0  0  0  0  0
  187.5220  175.9230  135.5940 C   0  0  1  0  0  3  0  0  0  0  0  0
  188.8070  178.9890  137.2600 C   0  0  0  0  0  2  0  0  0  0  0  0
  188.1600  177.2590  135.6410 C   0  0  2  0  0  3  0  0  0  0  0  0
  188.9940  176.0350  135.8130 N   0  0  0  0  0  0  0  0  0  0  0  0
  185.8990  174.4320  136.5360 O   0  0  0  0  0  1  0  0  0  0  0  0
  185.9470  178.9870  137.9030 O   0  0  0  0  0  1  0  0  0  0  0  0
  185.8390  176.6900  137.2880 C   0  0  0  0  0  2  0  0  0  0  0  0
  186.7070  175.5260  136.8420 C   0  0  2  0  0  3  0  0  0  0  0  0
  186.7170  177.8270  137.7980 C   0  0  1  0  0  3  0  0  0  0  0  0
  187.9110  178.0710  136.9060 C   0  0  0  0  0  0  0  0  0  0  0  0
  183.4930  178.0910  141.7030 N   0  0  0  0  0  2  0  0  0  0  0  0
  183.4300  178.2960  140.3120 N   0  0  0  0  0  2  0  0  0  0  0  0
  180.4160  179.9260  141.0600 O   0  0  0  0  0  0  0  0  0  0  0  0
  182.3250  178.9530  139.6850 C   0  0  0  0  0  0  0  0  0  0  0  0
  181.3440  179.4520  140.3900 C   0  0  0  0  0  0  0  0  0  0  0  0
  182.2870  179.0640  138.2020 C   0  0  0  0  0  2  0  0  0  0  0  0
  182.5060  177.7570  137.6060 N   0  0  0  0  0  2  0  0  0  0  0  0
  181.2070  177.1150  137.4780 C   0  0  0  0  0  2  0  0  0  0  0  0
  182.6110  175.3850  138.4630 N   0  0  0  0  0  2  0  0  0  0  0  0
  181.3140  175.6400  137.8200 C   0  0  1  0  0  3  0  0  0  0  0  0
  181.3820  175.4820  139.2670 C   0  0  0  0  0  2  0  0  0  0  0  0
  1  9  1  0  0  0  0
  2  8  1  0  0  0  0
  3  2  1  0  0  0  0
  3  6  2  0  0  0  0
  4  1  2  0  0  0  0
  5  7  1  6  0  0  0
  5  1  1  0  0  0  0
  6  4  1  0  0  0  0
  8 31  1  6  0  0  0
  8  5  1  0  0  0  0
  9 10  1  0  0  0  0
 11  6  1  0  0  0  0
 11 13  1  0  0  0  0
 12 11  2  0  0  0  0
 13 14  3  0  0  0  0
 15 12  1  0  0  0  0
 16 15  1  0  0  0  0
 17 16  1  0  0  0  0
 18 19  1  1  0  0  0
 18 17  1  0  0  0  0
 20 18  1  0  0  0  0
 21 23  1  0  0  0  0
 21 24  1  1  0  0  0
 21 28  1  0  0  0  0
 23 24  1  0  0  0  0
 23 30  1  1  0  0  0
 24 20  1  0  0  0  0
 27 29  1  0  0  0  0
 28 25  1  6  0  0  0
 28 27  1  0  0  0  0
 29 26  1  6  0  0  0
 30 22  2  0  0  0  0
 30 29  1  0  0  0  0
 32 31  1  0  0  0  0
 34 32  1  0  0  0  0
 34 35  2  0  0  0  0
 35 33  2  0  0  0  0
 36 34  1  0  0  0  0
 37 36  1  0  0  0  0
 38 37  1  0  0  0  0
 39 41  1  0  0  0  0
 40 38  1  1  0  0  0
 40 39  1  0  0  0  0
 40 41  1  0  0  0  0
M  END
>  <MODEL>
9

>  <REMARK>
 VINA RESULT:      -7.1      2.537      7.616
  Name = 
  16 active torsions:
  status: ('A' for Active; 'I' for Inactive)
    1  A    between atoms: C_1  and  O_6
    2  A    between atoms: C_5  and  C_15
    3  A    between atoms: C_5  and  N_23
    4  A    between atoms: N_7  and  N_11
    5  A    between atoms: N_7  and  C_20
    6  A    between atoms: C_8  and  C_35
    7  A    between atoms: N_9  and  C_22
    8  A    between atoms: N_9  and  C_35
    9  A    between atoms: C_10  and  C_28
   10  A    between atoms: C_10  and  C_33
   11  A    between atoms: N_11  and  C_36
   12  A    between atoms: N_14  and  N_23
   13  A    between atoms: C_15  and  C_26
   14  A    between atoms: C_16  and  C_26
   15  A    between atoms: C_16  and  C_32
   16  A    between atoms: C_20  and  C_22
                            x       y       z     vdW  Elec       q    Type
                         _______ _______ _______ _____ _____    ______ ____

>  <TORSDO>
F 16

$$$$
