=
 OpenBabel11042410263D

 29 31  0  0  1  0  0  0  0  0999 V2000
  190.1490  177.4090  144.4040 N   0  0  0  0  0  0  0  0  0  0  0  0
  190.4690  177.1950  147.2610 C   0  0  0  0  0  2  0  0  0  0  0  0
  188.0360  178.5250  144.6450 O   0  0  0  0  0  0  0  0  0  0  0  0
  191.1650  176.6080  144.9750 N   0  0  0  0  0  0  0  0  0  0  0  0
  189.2840  178.2250  145.2580 C   0  0  1  0  0  3  0  0  0  0  0  0
  186.7680  177.2590  146.2660 C   0  0  2  0  0  3  0  0  0  0  0  0
  188.0270  177.0710  147.0560 C   0  0  0  0  0  3  0  0  0  0  0  0
  191.3400  176.4740  146.2640 C   0  0  0  0  0  0  0  0  0  0  0  0
  187.1470  177.4380  144.7920 C   0  0  0  0  0  2  0  0  0  0  0  0
  189.1830  177.5830  146.6190 C   0  0  0  0  0  0  0  0  0  0  0  0
  189.1520  176.4950  142.3630 C   0  0  0  0  0  2  0  0  0  0  0  0
  192.2560  178.5450  142.7500 O   0  0  0  0  0  1  0  0  0  0  0  0
  189.1790  176.5790  140.8400 C   0  0  0  0  0  2  0  0  0  0  0  0
  191.3700  177.4800  140.8100 C   0  0  0  0  0  2  0  0  0  0  0  0
  190.5420  176.3650  140.3550 N   0  0  0  0  0  0  0  0  0  0  0  0
  190.0840  177.5540  142.9530 C   0  0  2  0  0  3  0  0  0  0  0  0
  191.4810  177.4630  142.3320 C   0  0  2  0  0  3  0  0  0  0  0  0
  190.4950  176.4430  138.9030 C   0  0  0  0  0  2  0  0  0  0  0  0
  189.1430  176.9640  138.4450 C   0  0  0  0  0  2  0  0  0  0  0  0
  189.2910  178.3420  137.8300 C   0  0  0  0  0  2  0  0  0  0  0  0
  187.9870  178.8330  137.4240 N   0  0  0  0  0  2  0  0  0  0  0  0
  187.0030  178.0170  138.1120 C   0  0  0  0  0  1  0  0  0  0  0  0
  186.0030  178.4690  146.7930 C   0  0  0  0  0  2  0  0  0  0  0  0
  184.5450  178.4410  146.3510 C   0  0  0  0  0  2  0  0  0  0  0  0
  183.0310  178.8050  144.4010 C   0  0  0  0  0  1  0  0  0  0  0  0
  184.3340  179.2160  145.0590 C   0  0  0  0  0  2  0  0  0  0  0  0
  192.3710  175.6670  146.7560 O   0  0  0  0  0  0  0  0  0  0  0  0
  193.3340  176.0170  148.9410 C   0  0  0  0  0  1  0  0  0  0  0  0
  192.3970  175.1780  148.0930 C   0  0  0  0  0  2  0  0  0  0  0  0
  1  4  1  0  0  0  0
  1  5  1  0  0  0  0
  3  9  1  0  0  0  0
  4  8  2  0  0  0  0
  5  3  1  6  0  0  0
  5 10  1  0  0  0  0
  6 23  1  1  0  0  0
  6  7  1  0  0  0  0
  8 27  1  0  0  0  0
  8  2  1  0  0  0  0
  9  6  1  0  0  0  0
 10  7  2  0  0  0  0
 10  2  1  0  0  0  0
 13 11  1  0  0  0  0
 14 17  1  0  0  0  0
 15 14  1  0  0  0  0
 15 13  1  0  0  0  0
 16 11  1  6  0  0  0
 16  1  1  0  0  0  0
 17 12  1  1  0  0  0
 17 16  1  0  0  0  0
 18 15  1  0  0  0  0
 19 18  1  0  0  0  0
 20 19  1  0  0  0  0
 21 20  1  0  0  0  0
 21 22  1  0  0  0  0
 24 23  1  0  0  0  0
 25 26  1  0  0  0  0
 26 24  1  0  0  0  0
 27 29  1  0  0  0  0
 29 28  1  0  0  0  0
M  END
>  <MODEL>
1

>  <REMARK>
 VINA RESULT:      -6.9      0.000      0.000
  Name = 
  10 active torsions:
  status: ('A' for Active; 'I' for Inactive)
    1  A    between atoms: N_1  and  C_15
    2  A    between atoms: C_6  and  C_18
    3  A    between atoms: C_6  and  N_22
    4  A    between atoms: C_9  and  C_11
    5  A    between atoms: C_11  and  C_23
    6  A    between atoms: N_14  and  C_29
    7  A    between atoms: C_17  and  C_23
    8  A    between atoms: C_18  and  C_29
    9  A    between atoms: C_20  and  O_27
   10  A    between atoms: O_27  and  C_28
                            x       y       z     vdW  Elec       q    Type
                         _______ _______ _______ _____ _____    ______ ____

>  <TORSDO>
F 10

$$$$
=
 OpenBabel11042410263D

 29 31  0  0  1  0  0  0  0  0999 V2000
  185.6850  178.7490  140.4440 N   0  0  0  0  0  0  0  0  0  0  0  0
  188.5300  178.3170  140.2830 C   0  0  0  0  0  2  0  0  0  0  0  0
  185.7790  179.0100  142.8300 O   0  0  0  0  0  0  0  0  0  0  0  0
  186.2960  178.2940  139.2530 N   0  0  0  0  0  0  0  0  0  0  0  0
  186.5020  179.0970  141.6080 C   0  0  1  0  0  3  0  0  0  0  0  0
  187.1310  177.1930  143.6710 C   0  0  2  0  0  3  0  0  0  0  0  0
  188.0400  177.3660  142.4920 C   0  0  0  0  0  3  0  0  0  0  0  0
  187.5800  178.0750  139.1380 C   0  0  0  0  0  0  0  0  0  0  0  0
  185.7300  177.6710  143.2730 C   0  0  0  0  0  2  0  0  0  0  0  0
  187.7830  178.3020  141.5710 C   0  0  0  0  0  0  0  0  0  0  0  0
  183.4700  177.7830  140.8400 C   0  0  0  0  0  2  0  0  0  0  0  0
  184.3950  180.8000  138.8330 O   0  0  0  0  0  1  0  0  0  0  0  0
  181.9730  178.0580  140.7300 C   0  0  0  0  0  2  0  0  0  0  0  0
  182.2810  179.7260  139.0760 C   0  0  0  0  0  2  0  0  0  0  0  0
  181.6390  178.4440  139.3600 N   0  0  0  0  0  0  0  0  0  0  0  0
  184.2530  179.0350  140.4490 C   0  0  2  0  0  3  0  0  0  0  0  0
  183.7980  179.5640  139.0850 C   0  0  2  0  0  3  0  0  0  0  0  0
  180.2030  178.6770  139.3210 C   0  0  0  0  0  2  0  0  0  0  0  0
  179.6630  178.8860  140.7260 C   0  0  0  0  0  2  0  0  0  0  0  0
  179.0860  180.2810  140.8660 C   0  0  0  0  0  2  0  0  0  0  0  0
  179.6490  180.9210  142.0400 N   0  0  0  0  0  2  0  0  0  0  0  0
  179.4180  180.0210  143.1560 C   0  0  0  0  0  1  0  0  0  0  0  0
  187.6700  177.9820  144.8590 C   0  0  0  0  0  2  0  0  0  0  0  0
  186.9230  177.6370  146.1410 C   0  0  0  0  0  2  0  0  0  0  0  0
  189.2380  177.1930  146.9600 C   0  0  0  0  0  1  0  0  0  0  0  0
  187.8450  177.6500  147.3500 C   0  0  0  0  0  2  0  0  0  0  0  0
  188.1150  177.6300  137.9250 O   0  0  0  0  0  0  0  0  0  0  0  0
  189.8160  177.0410  136.3180 C   0  0  0  0  0  1  0  0  0  0  0  0
  189.4680  177.2110  137.7850 C   0  0  0  0  0  2  0  0  0  0  0  0
  1  5  1  0  0  0  0
  2 10  1  0  0  0  0
  3  9  1  0  0  0  0
  4  1  1  0  0  0  0
  5 10  1  1  0  0  0
  5  3  1  0  0  0  0
  6 23  1  1  0  0  0
  7  6  1  0  0  0  0
  8  4  2  0  0  0  0
  8  2  1  0  0  0  0
  9  6  1  0  0  0  0
 10  7  2  0  0  0  0
 13 11  1  0  0  0  0
 14 17  1  0  0  0  0
 14 15  1  0  0  0  0
 15 13  1  0  0  0  0
 16  1  1  6  0  0  0
 16 11  1  0  0  0  0
 17 12  1  1  0  0  0
 17 16  1  0  0  0  0
 18 15  1  0  0  0  0
 18 19  1  0  0  0  0
 19 20  1  0  0  0  0
 20 21  1  0  0  0  0
 21 22  1  0  0  0  0
 23 24  1  0  0  0  0
 24 26  1  0  0  0  0
 25 26  1  0  0  0  0
 27  8  1  0  0  0  0
 28 29  1  0  0  0  0
 29 27  1  0  0  0  0
M  END
>  <MODEL>
2

>  <REMARK>
 VINA RESULT:      -6.8      4.103      7.778
  Name = 
  10 active torsions:
  status: ('A' for Active; 'I' for Inactive)
    1  A    between atoms: N_1  and  C_15
    2  A    between atoms: C_6  and  C_18
    3  A    between atoms: C_6  and  N_22
    4  A    between atoms: C_9  and  C_11
    5  A    between atoms: C_11  and  C_23
    6  A    between atoms: N_14  and  C_29
    7  A    between atoms: C_17  and  C_23
    8  A    between atoms: C_18  and  C_29
    9  A    between atoms: C_20  and  O_27
   10  A    between atoms: O_27  and  C_28
                            x       y       z     vdW  Elec       q    Type
                         _______ _______ _______ _____ _____    ______ ____

>  <TORSDO>
F 10

$$$$
=
 OpenBabel11042410263D

 29 31  0  0  1  0  0  0  0  0999 V2000
  190.3250  176.7680  139.3080 N   0  0  0  0  0  0  0  0  0  0  0  0
  187.9400  178.2440  139.9740 C   0  0  0  0  0  2  0  0  0  0  0  0
  190.5820  176.0090  141.5720 O   0  0  0  0  0  0  0  0  0  0  0  0
  189.7440  177.6820  138.3990 N   0  0  0  0  0  0  0  0  0  0  0  0
  189.6720  176.4830  140.5880 C   0  0  1  0  0  3  0  0  0  0  0  0
  190.2900  177.9450  142.9880 C   0  0  2  0  0  3  0  0  0  0  0  0
  189.1870  178.4010  142.0820 C   0  0  0  0  0  3  0  0  0  0  0  0
  188.6700  178.3800  138.6620 C   0  0  0  0  0  0  0  0  0  0  0  0
  191.2640  177.0920  142.1680 C   0  0  0  0  0  2  0  0  0  0  0  0
  188.8540  177.6800  141.0050 C   0  0  0  0  0  0  0  0  0  0  0  0
  192.7070  176.8840  138.7550 C   0  0  0  0  0  2  0  0  0  0  0  0
  190.1890  174.2970  137.7790 O   0  0  0  0  0  1  0  0  0  0  0  0
  193.8810  176.0770  138.2090 C   0  0  0  0  0  2  0  0  0  0  0  0
  192.4610  174.5400  137.0970 C   0  0  0  0  0  2  0  0  0  0  0  0
  193.5320  175.5150  136.9040 N   0  0  0  0  0  0  0  0  0  0  0  0
  191.4810  175.9810  138.8910 C   0  0  2  0  0  3  0  0  0  0  0  0
  191.1940  175.2430  137.5800 C   0  0  2  0  0  3  0  0  0  0  0  0
  194.6930  174.7740  136.4350 C   0  0  0  0  0  2  0  0  0  0  0  0
  195.5790  174.3830  137.6060 C   0  0  0  0  0  2  0  0  0  0  0  0
  197.0210  174.2500  137.1530 C   0  0  0  0  0  2  0  0  0  0  0  0
  197.8000  175.3480  137.6930 N   0  0  0  0  0  2  0  0  0  0  0  0
  198.1990  174.9550  139.0330 C   0  0  0  0  0  1  0  0  0  0  0  0
  189.7070  177.1550  144.1550 C   0  0  0  0  0  2  0  0  0  0  0  0
  189.2230  178.0800  145.2650 C   0  0  0  0  0  2  0  0  0  0  0  0
  186.8470  177.4290  144.8650 C   0  0  0  0  0  1  0  0  0  0  0  0
  187.9420  177.5670  145.9050 C   0  0  0  0  0  2  0  0  0  0  0  0
  188.1500  179.2610  137.7100 O   0  0  0  0  0  0  0  0  0  0  0  0
  186.4610  177.8380  136.7350 C   0  0  0  0  0  1  0  0  0  0  0  0
  187.5870  178.8220  136.4770 C   0  0  0  0  0  2  0  0  0  0  0  0
  1  5  1  0  0  0  0
  2 10  1  0  0  0  0
  3  9  1  0  0  0  0
  4  8  2  0  0  0  0
  4  1  1  0  0  0  0
  5 10  1  1  0  0  0
  5  3  1  0  0  0  0
  6 23  1  1  0  0  0
  7  6  1  0  0  0  0
  8  2  1  0  0  0  0
  9  6  1  0  0  0  0
 10  7  2  0  0  0  0
 13 11  1  0  0  0  0
 14 17  1  0  0  0  0
 15 14  1  0  0  0  0
 15 13  1  0  0  0  0
 16 11  1  6  0  0  0
 16  1  1  0  0  0  0
 17 12  1  1  0  0  0
 17 16  1  0  0  0  0
 18 15  1  0  0  0  0
 18 19  1  0  0  0  0
 20 19  1  0  0  0  0
 20 21  1  0  0  0  0
 21 22  1  0  0  0  0
 23 24  1  0  0  0  0
 24 26  1  0  0  0  0
 25 26  1  0  0  0  0
 27  8  1  0  0  0  0
 29 28  1  0  0  0  0
 29 27  1  0  0  0  0
M  END
>  <MODEL>
3

>  <REMARK>
 VINA RESULT:      -6.7      3.743      7.217
  Name = 
  10 active torsions:
  status: ('A' for Active; 'I' for Inactive)
    1  A    between atoms: N_1  and  C_15
    2  A    between atoms: C_6  and  C_18
    3  A    between atoms: C_6  and  N_22
    4  A    between atoms: C_9  and  C_11
    5  A    between atoms: C_11  and  C_23
    6  A    between atoms: N_14  and  C_29
    7  A    between atoms: C_17  and  C_23
    8  A    between atoms: C_18  and  C_29
    9  A    between atoms: C_20  and  O_27
   10  A    between atoms: O_27  and  C_28
                            x       y       z     vdW  Elec       q    Type
                         _______ _______ _______ _____ _____    ______ ____

>  <TORSDO>
F 10

$$$$
=
 OpenBabel11042410263D

 29 31  0  0  1  0  0  0  0  0999 V2000
  189.6160  177.0070  141.1230 N   0  0  0  0  0  0  0  0  0  0  0  0
  187.3550  177.9130  142.6630 C   0  0  0  0  0  2  0  0  0  0  0  0
  190.6730  176.0820  143.0720 O   0  0  0  0  0  0  0  0  0  0  0  0
  188.6500  177.8790  140.5710 N   0  0  0  0  0  0  0  0  0  0  0  0
  189.4420  176.4700  142.4740 C   0  0  1  0  0  3  0  0  0  0  0  0
  190.5370  177.7680  144.7970 C   0  0  2  0  0  3  0  0  0  0  0  0
  189.1510  178.0910  144.3260 C   0  0  0  0  0  3  0  0  0  0  0  0
  187.6150  178.3230  141.2360 C   0  0  0  0  0  0  0  0  0  0  0  0
  191.3300  177.2090  143.6110 C   0  0  0  0  0  2  0  0  0  0  0  0
  188.6180  177.4350  143.2890 C   0  0  0  0  0  0  0  0  0  0  0  0
  191.9160  177.4200  140.3890 C   0  0  0  0  0  2  0  0  0  0  0  0
  189.2390  175.4130  138.7180 O   0  0  0  0  0  1  0  0  0  0  0  0
  192.9950  176.9580  139.4160 C   0  0  0  0  0  2  0  0  0  0  0  0
  191.4150  175.9930  137.9370 C   0  0  0  0  0  2  0  0  0  0  0  0
  192.4770  176.9910  138.0480 N   0  0  0  0  0  0  0  0  0  0  0  0
  190.6950  176.5070  140.2760 C   0  0  2  0  0  3  0  0  0  0  0  0
  190.2340  176.3860  138.8200 C   0  0  2  0  0  3  0  0  0  0  0  0
  193.5550  176.5540  137.1730 C   0  0  0  0  0  2  0  0  0  0  0  0
  194.0880  175.2050  137.6240 C   0  0  0  0  0  2  0  0  0  0  0  0
  195.0880  174.6710  136.6160 C   0  0  0  0  0  2  0  0  0  0  0  0
  196.3920  175.2530  136.8740 N   0  0  0  0  0  2  0  0  0  0  0  0
  197.1960  174.2150  137.4920 C   0  0  0  0  0  1  0  0  0  0  0  0
  190.4710  176.7630  145.9420 C   0  0  0  0  0  2  0  0  0  0  0  0
  189.2120  176.9550  146.7790 C   0  0  0  0  0  2  0  0  0  0  0  0
  188.1820  178.1470  148.7140 C   0  0  0  0  0  1  0  0  0  0  0  0
  189.4820  177.7960  148.0170 C   0  0  0  0  0  2  0  0  0  0  0  0
  186.6970  179.1810  140.6220 O   0  0  0  0  0  0  0  0  0  0  0  0
  184.7120  178.6400  139.3610 C   0  0  0  0  0  1  0  0  0  0  0  0
  185.2880  178.9990  140.7180 C   0  0  0  0  0  2  0  0  0  0  0  0
  1  5  1  0  0  0  0
  2 10  1  0  0  0  0
  3  9  1  0  0  0  0
  4  1  1  0  0  0  0
  4  8  2  0  0  0  0
  5  3  1  1  0  0  0
  5 10  1  0  0  0  0
  6 23  1  1  0  0  0
  7  6  1  0  0  0  0
  8  2  1  0  0  0  0
  9  6  1  0  0  0  0
 10  7  2  0  0  0  0
 13 11  1  0  0  0  0
 14 15  1  0  0  0  0
 14 17  1  0  0  0  0
 15 13  1  0  0  0  0
 16 11  1  6  0  0  0
 16  1  1  0  0  0  0
 17 12  1  1  0  0  0
 17 16  1  0  0  0  0
 18 19  1  0  0  0  0
 18 15  1  0  0  0  0
 20 21  1  0  0  0  0
 20 19  1  0  0  0  0
 21 22  1  0  0  0  0
 23 24  1  0  0  0  0
 24 26  1  0  0  0  0
 26 25  1  0  0  0  0
 27 29  1  0  0  0  0
 27  8  1  0  0  0  0
 28 29  1  0  0  0  0
M  END
>  <MODEL>
4

>  <REMARK>
 VINA RESULT:      -6.6      3.152      6.160
  Name = 
  10 active torsions:
  status: ('A' for Active; 'I' for Inactive)
    1  A    between atoms: N_1  and  C_15
    2  A    between atoms: C_6  and  C_18
    3  A    between atoms: C_6  and  N_22
    4  A    between atoms: C_9  and  C_11
    5  A    between atoms: C_11  and  C_23
    6  A    between atoms: N_14  and  C_29
    7  A    between atoms: C_17  and  C_23
    8  A    between atoms: C_18  and  C_29
    9  A    between atoms: C_20  and  O_27
   10  A    between atoms: O_27  and  C_28
                            x       y       z     vdW  Elec       q    Type
                         _______ _______ _______ _____ _____    ______ ____

>  <TORSDO>
F 10

$$$$
=
 OpenBabel11042410263D

 29 31  0  0  1  0  0  0  0  0999 V2000
  185.9560  178.7020  140.3500 N   0  0  0  0  0  0  0  0  0  0  0  0
  188.7120  178.1710  139.6940 C   0  0  0  0  0  2  0  0  0  0  0  0
  186.4720  178.9240  142.6860 O   0  0  0  0  0  0  0  0  0  0  0  0
  186.3340  178.2450  139.0670 N   0  0  0  0  0  0  0  0  0  0  0  0
  186.9760  179.0030  141.3570 C   0  0  1  0  0  3  0  0  0  0  0  0
  187.8780  177.0460  143.2630 C   0  0  2  0  0  3  0  0  0  0  0  0
  188.5760  177.2040  141.9460 C   0  0  0  0  0  3  0  0  0  0  0  0
  187.5700  177.9810  138.7290 C   0  0  0  0  0  0  0  0  0  0  0  0
  186.4500  177.5800  143.1190 C   0  0  0  0  0  2  0  0  0  0  0  0
  188.1990  178.1630  141.0920 C   0  0  0  0  0  0  0  0  0  0  0  0
  183.8440  177.8550  141.2530 C   0  0  0  0  0  2  0  0  0  0  0  0
  184.4150  180.6550  138.8400 O   0  0  0  0  0  1  0  0  0  0  0  0
  182.3600  178.1750  141.4110 C   0  0  0  0  0  2  0  0  0  0  0  0
  182.3690  179.6830  139.5840 C   0  0  0  0  0  2  0  0  0  0  0  0
  181.7710  178.4550  140.1020 N   0  0  0  0  0  0  0  0  0  0  0  0
  184.5590  179.0410  140.6060 C   0  0  2  0  0  3  0  0  0  0  0  0
  183.8560  179.4680  139.3140 C   0  0  2  0  0  3  0  0  0  0  0  0
  180.3610  178.7360  140.3210 C   0  0  0  0  0  2  0  0  0  0  0  0
  180.1960  179.8860  141.3010 C   0  0  0  0  0  2  0  0  0  0  0  0
  178.9920  179.6500  142.1920 C   0  0  0  0  0  2  0  0  0  0  0  0
  179.1330  178.3730  142.8680 N   0  0  0  0  0  2  0  0  0  0  0  0
  179.7020  178.6550  144.1730 C   0  0  0  0  0  1  0  0  0  0  0  0
  188.6450  177.7970  144.3460 C   0  0  0  0  0  2  0  0  0  0  0  0
  189.8510  177.0000  144.8280 C   0  0  0  0  0  2  0  0  0  0  0  0
  190.8910  179.1360  144.0630 C   0  0  0  0  0  1  0  0  0  0  0  0
  191.1580  177.7130  144.5140 C   0  0  0  0  0  2  0  0  0  0  0  0
  187.8680  177.5350  137.4380 O   0  0  0  0  0  0  0  0  0  0  0  0
  187.0150  175.3530  136.8600 C   0  0  0  0  0  1  0  0  0  0  0  0
  186.9260  176.8490  136.6210 C   0  0  0  0  0  2  0  0  0  0  0  0
  1  5  1  0  0  0  0
  2 10  1  0  0  0  0
  3  9  1  0  0  0  0
  4  1  1  0  0  0  0
  5 10  1  1  0  0  0
  5  3  1  0  0  0  0
  6 23  1  1  0  0  0
  7  6  1  0  0  0  0
  8  4  2  0  0  0  0
  8  2  1  0  0  0  0
  9  6  1  0  0  0  0
 10  7  2  0  0  0  0
 11 13  1  0  0  0  0
 14 15  1  0  0  0  0
 15 18  1  0  0  0  0
 15 13  1  0  0  0  0
 16  1  1  6  0  0  0
 16 11  1  0  0  0  0
 17 12  1  1  0  0  0
 17 14  1  0  0  0  0
 17 16  1  0  0  0  0
 18 19  1  0  0  0  0
 19 20  1  0  0  0  0
 20 21  1  0  0  0  0
 21 22  1  0  0  0  0
 23 24  1  0  0  0  0
 25 26  1  0  0  0  0
 26 24  1  0  0  0  0
 27  8  1  0  0  0  0
 29 28  1  0  0  0  0
 29 27  1  0  0  0  0
M  END
>  <MODEL>
5

>  <REMARK>
 VINA RESULT:      -6.6      4.052      8.140
  Name = 
  10 active torsions:
  status: ('A' for Active; 'I' for Inactive)
    1  A    between atoms: N_1  and  C_15
    2  A    between atoms: C_6  and  C_18
    3  A    between atoms: C_6  and  N_22
    4  A    between atoms: C_9  and  C_11
    5  A    between atoms: C_11  and  C_23
    6  A    between atoms: N_14  and  C_29
    7  A    between atoms: C_17  and  C_23
    8  A    between atoms: C_18  and  C_29
    9  A    between atoms: C_20  and  O_27
   10  A    between atoms: O_27  and  C_28
                            x       y       z     vdW  Elec       q    Type
                         _______ _______ _______ _____ _____    ______ ____

>  <TORSDO>
F 10

$$$$
=
 OpenBabel11042410263D

 29 31  0  0  1  0  0  0  0  0999 V2000
  187.7630  177.4670  143.1150 N   0  0  0  0  0  0  0  0  0  0  0  0
  186.1330  178.6230  141.0380 C   0  0  0  0  0  2  0  0  0  0  0  0
  185.9060  177.3820  144.6360 O   0  0  0  0  0  0  0  0  0  0  0  0
  188.3360  177.9950  141.9350 N   0  0  0  0  0  0  0  0  0  0  0  0
  186.3080  177.4160  143.2720 C   0  0  1  0  0  3  0  0  0  0  0  0
  184.8220  179.5390  144.5230 C   0  0  2  0  0  3  0  0  0  0  0  0
  185.0530  179.5410  143.0420 C   0  0  0  0  0  3  0  0  0  0  0  0
  187.6360  178.5380  140.9720 C   0  0  0  0  0  0  0  0  0  0  0  0
  185.9130  178.6860  145.1790 C   0  0  0  0  0  2  0  0  0  0  0  0
  185.6830  178.5180  142.4530 C   0  0  0  0  0  0  0  0  0  0  0  0
  188.9400  177.7790  145.2390 C   0  0  0  0  0  2  0  0  0  0  0  0
  189.6030  175.2910  142.5270 O   0  0  0  0  0  1  0  0  0  0  0  0
  189.9300  177.1290  146.2010 C   0  0  0  0  0  2  0  0  0  0  0  0
  190.8470  175.7460  144.5090 C   0  0  0  0  0  2  0  0  0  0  0  0
  191.1600  176.7840  145.4880 N   0  0  0  0  0  0  0  0  0  0  0  0
  188.6240  176.8140  144.0970 C   0  0  2  0  0  3  0  0  0  0  0  0
  189.9090  176.3000  143.4400 C   0  0  2  0  0  3  0  0  0  0  0  0
  192.0630  176.1850  146.4590 C   0  0  0  0  0  2  0  0  0  0  0  0
  191.6920  176.6240  147.8660 C   0  0  0  0  0  2  0  0  0  0  0  0
  192.8100  176.2880  148.8340 C   0  0  0  0  0  2  0  0  0  0  0  0
  193.1620  177.4710  149.5960 N   0  0  0  0  0  2  0  0  0  0  0  0
  194.3120  177.1160  150.4090 C   0  0  0  0  0  1  0  0  0  0  0  0
  183.4320  178.9920  144.8270 C   0  0  0  0  0  2  0  0  0  0  0  0
  182.4550  179.2970  143.6990 C   0  0  0  0  0  2  0  0  0  0  0  0
  180.1640  178.9340  142.7780 C   0  0  0  0  0  1  0  0  0  0  0  0
  181.1060  178.6330  143.9280 C   0  0  0  0  0  2  0  0  0  0  0  0
  188.2720  179.0340  139.8310 O   0  0  0  0  0  0  0  0  0  0  0  0
  189.0480  178.9830  137.5460 C   0  0  0  0  0  1  0  0  0  0  0  0
  188.8110  178.1910  138.8180 C   0  0  0  0  0  2  0  0  0  0  0  0
  1  5  1  0  0  0  0
  2 10  1  0  0  0  0
  3  9  1  0  0  0  0
  4  1  1  0  0  0  0
  5 10  1  1  0  0  0
  5  3  1  0  0  0  0
  6 23  1  6  0  0  0
  6  9  1  0  0  0  0
  7  6  1  0  0  0  0
  8  2  1  0  0  0  0
  8  4  2  0  0  0  0
 10  7  2  0  0  0  0
 11 13  1  0  0  0  0
 14 15  1  0  0  0  0
 15 13  1  0  0  0  0
 15 18  1  0  0  0  0
 16  1  1  6  0  0  0
 16 11  1  0  0  0  0
 17 12  1  6  0  0  0
 17 16  1  0  0  0  0
 17 14  1  0  0  0  0
 18 19  1  0  0  0  0
 19 20  1  0  0  0  0
 20 21  1  0  0  0  0
 21 22  1  0  0  0  0
 24 26  1  0  0  0  0
 24 23  1  0  0  0  0
 25 26  1  0  0  0  0
 27  8  1  0  0  0  0
 28 29  1  0  0  0  0
 29 27  1  0  0  0  0
M  END
>  <MODEL>
6

>  <REMARK>
 VINA RESULT:      -6.3      2.359      6.948
  Name = 
  10 active torsions:
  status: ('A' for Active; 'I' for Inactive)
    1  A    between atoms: N_1  and  C_15
    2  A    between atoms: C_6  and  C_18
    3  A    between atoms: C_6  and  N_22
    4  A    between atoms: C_9  and  C_11
    5  A    between atoms: C_11  and  C_23
    6  A    between atoms: N_14  and  C_29
    7  A    between atoms: C_17  and  C_23
    8  A    between atoms: C_18  and  C_29
    9  A    between atoms: C_20  and  O_27
   10  A    between atoms: O_27  and  C_28
                            x       y       z     vdW  Elec       q    Type
                         _______ _______ _______ _____ _____    ______ ____

>  <TORSDO>
F 10

$$$$
=
 OpenBabel11042410263D

 29 31  0  0  1  0  0  0  0  0999 V2000
  185.4150  178.8250  140.4510 N   0  0  0  0  0  0  0  0  0  0  0  0
  188.2830  178.5960  140.6250 C   0  0  0  0  0  2  0  0  0  0  0  0
  185.2180  179.1580  142.8220 O   0  0  0  0  0  0  0  0  0  0  0  0
  186.1880  178.3840  139.3530 N   0  0  0  0  0  0  0  0  0  0  0  0
  186.0680  179.2640  141.6860 C   0  0  1  0  0  3  0  0  0  0  0  0
  186.5860  177.4670  143.8720 C   0  0  2  0  0  3  0  0  0  0  0  0
  187.6100  177.6730  142.7970 C   0  0  0  0  0  3  0  0  0  0  0  0
  187.4890  178.2550  139.3900 C   0  0  0  0  0  0  0  0  0  0  0  0
  185.2110  177.8320  143.3040 C   0  0  0  0  0  2  0  0  0  0  0  0
  187.3960  178.5620  141.8210 C   0  0  0  0  0  0  0  0  0  0  0  0
  183.2510  177.6800  140.5020 C   0  0  0  0  0  2  0  0  0  0  0  0
  184.1790  180.8790  138.8010 O   0  0  0  0  0  1  0  0  0  0  0  0
  181.7630  177.8540  140.2140 C   0  0  0  0  0  2  0  0  0  0  0  0
  182.1420  179.6430  138.7080 C   0  0  0  0  0  2  0  0  0  0  0  0
  181.5740  178.3030  138.8350 N   0  0  0  0  0  0  0  0  0  0  0  0
  183.9760  179.0080  140.2850 C   0  0  2  0  0  3  0  0  0  0  0  0
  183.6550  179.5900  138.9050 C   0  0  2  0  0  3  0  0  0  0  0  0
  180.1410  178.4350  138.6230 C   0  0  0  0  0  2  0  0  0  0  0  0
  179.8130  179.8090  138.0640 C   0  0  0  0  0  2  0  0  0  0  0  0
  179.1270  179.6810  136.7180 C   0  0  0  0  0  2  0  0  0  0  0  0
  179.4340  180.8430  135.9050 N   0  0  0  0  0  2  0  0  0  0  0  0
  180.7600  180.6260  135.3550 C   0  0  0  0  0  1  0  0  0  0  0  0
  186.9310  178.3260  145.0850 C   0  0  0  0  0  2  0  0  0  0  0  0
  186.8140  177.5320  146.3800 C   0  0  0  0  0  2  0  0  0  0  0  0
  189.2890  177.2160  146.4130 C   0  0  0  0  0  1  0  0  0  0  0  0
  188.0770  177.6380  147.2200 C   0  0  0  0  0  2  0  0  0  0  0  0
  188.1870  177.8160  138.2610 O   0  0  0  0  0  0  0  0  0  0  0  0
  190.1730  176.4450  138.2580 C   0  0  0  0  0  1  0  0  0  0  0  0
  189.6080  177.8500  138.1710 C   0  0  0  0  0  2  0  0  0  0  0  0
  1  5  1  0  0  0  0
  2 10  1  0  0  0  0
  3  9  1  0  0  0  0
  4  8  2  0  0  0  0
  4  1  1  0  0  0  0
  5 10  1  1  0  0  0
  5  3  1  0  0  0  0
  6 23  1  1  0  0  0
  7  6  1  0  0  0  0
  8  2  1  0  0  0  0
  9  6  1  0  0  0  0
 10  7  2  0  0  0  0
 13 11  1  0  0  0  0
 14 15  1  0  0  0  0
 14 17  1  0  0  0  0
 15 13  1  0  0  0  0
 16  1  1  6  0  0  0
 16 11  1  0  0  0  0
 17 12  1  1  0  0  0
 17 16  1  0  0  0  0
 18 15  1  0  0  0  0
 19 18  1  0  0  0  0
 20 19  1  0  0  0  0
 21 20  1  0  0  0  0
 22 21  1  0  0  0  0
 23 24  1  0  0  0  0
 24 26  1  0  0  0  0
 25 26  1  0  0  0  0
 27  8  1  0  0  0  0
 29 28  1  0  0  0  0
 29 27  1  0  0  0  0
M  END
>  <MODEL>
7

>  <REMARK>
 VINA RESULT:      -6.3      4.538      7.546
  Name = 
  10 active torsions:
  status: ('A' for Active; 'I' for Inactive)
    1  A    between atoms: N_1  and  C_15
    2  A    between atoms: C_6  and  C_18
    3  A    between atoms: C_6  and  N_22
    4  A    between atoms: C_9  and  C_11
    5  A    between atoms: C_11  and  C_23
    6  A    between atoms: N_14  and  C_29
    7  A    between atoms: C_17  and  C_23
    8  A    between atoms: C_18  and  C_29
    9  A    between atoms: C_20  and  O_27
   10  A    between atoms: O_27  and  C_28
                            x       y       z     vdW  Elec       q    Type
                         _______ _______ _______ _____ _____    ______ ____

>  <TORSDO>
F 10

$$$$
=
 OpenBabel11042410263D

 29 31  0  0  1  0  0  0  0  0999 V2000
  188.7660  176.8990  144.2680 N   0  0  0  0  0  0  0  0  0  0  0  0
  191.5850  176.3070  144.1610 C   0  0  0  0  0  2  0  0  0  0  0  0
  188.4880  176.3800  141.9390 O   0  0  0  0  0  0  0  0  0  0  0  0
  189.6300  177.2250  145.3390 N   0  0  0  0  0  0  0  0  0  0  0  0
  189.2740  176.1670  143.1060 C   0  0  1  0  0  3  0  0  0  0  0  0
  190.2740  177.5040  140.7630 C   0  0  2  0  0  3  0  0  0  0  0  0
  191.1980  177.1400  141.8850 C   0  0  0  0  0  3  0  0  0  0  0  0
  190.9160  176.9850  145.3290 C   0  0  0  0  0  0  0  0  0  0  0  0
  188.8500  177.5970  141.3230 C   0  0  0  0  0  2  0  0  0  0  0  0
  190.7440  176.4560  142.9410 C   0  0  0  0  0  0  0  0  0  0  0  0
  186.8090  177.8970  143.1870 C   0  0  0  0  0  2  0  0  0  0  0  0
  187.3550  177.1160  146.8030 O   0  0  0  0  0  1  0  0  0  0  0  0
  185.3380  178.2450  143.3910 C   0  0  0  0  0  2  0  0  0  0  0  0
  185.5480  178.2610  145.7510 C   0  0  0  0  0  2  0  0  0  0  0  0
  185.1860  179.0700  144.5900 N   0  0  0  0  0  0  0  0  0  0  0  0
  187.3330  177.1400  144.4070 C   0  0  2  0  0  3  0  0  0  0  0  0
  187.0310  177.9050  145.6990 C   0  0  2  0  0  3  0  0  0  0  0  0
  183.7700  179.3770  144.7180 C   0  0  0  0  0  2  0  0  0  0  0  0
  182.9690  178.6360  143.6610 C   0  0  0  0  0  2  0  0  0  0  0  0
  181.6450  179.3340  143.4180 C   0  0  0  0  0  2  0  0  0  0  0  0
  181.0380  178.8120  142.2070 N   0  0  0  0  0  2  0  0  0  0  0  0
  182.1130  178.6290  141.2490 C   0  0  0  0  0  1  0  0  0  0  0  0
  190.3680  176.4580  139.6570 C   0  0  0  0  0  2  0  0  0  0  0  0
  190.6710  177.1000  138.3090 C   0  0  0  0  0  2  0  0  0  0  0  0
  188.2830  176.7590  137.6690 C   0  0  0  0  0  1  0  0  0  0  0  0
  189.4340  177.7460  137.7030 C   0  0  0  0  0  2  0  0  0  0  0  0
  191.7070  177.3330  146.4280 O   0  0  0  0  0  0  0  0  0  0  0  0
  192.4680  175.5690  147.8890 C   0  0  0  0  0  1  0  0  0  0  0  0
  191.5350  176.7530  147.7170 C   0  0  0  0  0  2  0  0  0  0  0  0
  1 16  1  0  0  0  0
  1  4  1  0  0  0  0
  2  8  1  0  0  0  0
  5  3  1  6  0  0  0
  5  1  1  0  0  0  0
  6 23  1  6  0  0  0
  6  9  1  0  0  0  0
  6  7  1  0  0  0  0
  7 10  2  0  0  0  0
  8  4  2  0  0  0  0
  8 27  1  0  0  0  0
  9  3  1  0  0  0  0
 10  5  1  0  0  0  0
 10  2  1  0  0  0  0
 11 13  1  0  0  0  0
 13 15  1  0  0  0  0
 15 18  1  0  0  0  0
 15 14  1  0  0  0  0
 16 11  1  6  0  0  0
 16 17  1  0  0  0  0
 17 14  1  0  0  0  0
 17 12  1  1  0  0  0
 19 18  1  0  0  0  0
 20 19  1  0  0  0  0
 21 20  1  0  0  0  0
 22 21  1  0  0  0  0
 24 23  1  0  0  0  0
 25 26  1  0  0  0  0
 26 24  1  0  0  0  0
 27 29  1  0  0  0  0
 29 28  1  0  0  0  0
M  END
>  <MODEL>
8

>  <REMARK>
 VINA RESULT:      -6.3      2.390      6.095
  Name = 
  10 active torsions:
  status: ('A' for Active; 'I' for Inactive)
    1  A    between atoms: N_1  and  C_15
    2  A    between atoms: C_6  and  C_18
    3  A    between atoms: C_6  and  N_22
    4  A    between atoms: C_9  and  C_11
    5  A    between atoms: C_11  and  C_23
    6  A    between atoms: N_14  and  C_29
    7  A    between atoms: C_17  and  C_23
    8  A    between atoms: C_18  and  C_29
    9  A    between atoms: C_20  and  O_27
   10  A    between atoms: O_27  and  C_28
                            x       y       z     vdW  Elec       q    Type
                         _______ _______ _______ _____ _____    ______ ____

>  <TORSDO>
F 10

$$$$
=
 OpenBabel11042410263D

 29 31  0  0  1  0  0  0  0  0999 V2000
  186.7260  177.7620  143.6660 N   0  0  0  0  0  0  0  0  0  0  0  0
  185.5000  178.0100  146.2620 C   0  0  0  0  0  2  0  0  0  0  0  0
  188.6340  176.6290  144.5870 O   0  0  0  0  0  0  0  0  0  0  0  0
  185.5900  178.5780  143.8700 N   0  0  0  0  0  0  0  0  0  0  0  0
  187.2580  176.9470  144.7600 C   0  0  1  0  0  3  0  0  0  0  0  0
  189.3230  177.9000  146.5220 C   0  0  2  0  0  3  0  0  0  0  0  0
  187.8780  178.1090  146.8600 C   0  0  0  0  0  3  0  0  0  0  0  0
  185.0080  178.7290  145.0320 C   0  0  0  0  0  0  0  0  0  0  0  0
  189.4400  177.7090  145.0070 C   0  0  0  0  0  2  0  0  0  0  0  0
  186.9190  177.6030  146.0760 C   0  0  0  0  0  0  0  0  0  0  0  0
  188.7500  177.9290  142.2980 C   0  0  0  0  0  2  0  0  0  0  0  0
  185.1700  178.0400  141.2230 O   0  0  0  0  0  1  0  0  0  0  0  0
  189.2720  177.8710  140.8650 C   0  0  0  0  0  2  0  0  0  0  0  0
  187.1520  178.3940  139.9460 C   0  0  0  0  0  2  0  0  0  0  0  0
  188.5440  178.8280  140.0330 N   0  0  0  0  0  0  0  0  0  0  0  0
  187.2570  177.6010  142.3150 C   0  0  2  0  0  3  0  0  0  0  0  0
  186.4910  178.4780  141.3200 C   0  0  2  0  0  3  0  0  0  0  0  0
  189.0970  178.7330  138.6910 C   0  0  0  0  0  2  0  0  0  0  0  0
  189.8950  177.4490  138.5370 C   0  0  0  0  0  2  0  0  0  0  0  0
  189.7420  176.8980  137.1320 C   0  0  0  0  0  2  0  0  0  0  0  0
  188.3460  176.5910  136.8830 N   0  0  0  0  0  2  0  0  0  0  0  0
  188.0820  176.9450  135.5000 C   0  0  0  0  0  1  0  0  0  0  0  0
  189.8600  176.6900  147.2780 C   0  0  0  0  0  2  0  0  0  0  0  0
  191.3210  176.8790  147.6660 C   0  0  0  0  0  2  0  0  0  0  0  0
  192.1440  175.3260  145.8940 C   0  0  0  0  0  1  0  0  0  0  0  0
  192.1450  175.6340  147.3790 C   0  0  0  0  0  2  0  0  0  0  0  0
  183.8840  179.5500  145.1570 O   0  0  0  0  0  0  0  0  0  0  0  0
  181.9390  178.6740  144.0280 C   0  0  0  0  0  1  0  0  0  0  0  0
  182.9740  179.7820  144.0860 C   0  0  0  0  0  2  0  0  0  0  0  0
  1  4  1  0  0  0  0
  1  5  1  0  0  0  0
  3  9  1  0  0  0  0
  4  8  2  0  0  0  0
  5  3  1  6  0  0  0
  5 10  1  0  0  0  0
  6  7  1  0  0  0  0
  6 23  1  1  0  0  0
  8 27  1  0  0  0  0
  8  2  1  0  0  0  0
  9  6  1  0  0  0  0
 10  2  1  0  0  0  0
 10  7  2  0  0  0  0
 13 11  1  0  0  0  0
 14 15  1  0  0  0  0
 14 17  1  0  0  0  0
 15 13  1  0  0  0  0
 16 11  1  1  0  0  0
 16  1  1  0  0  0  0
 17 12  1  6  0  0  0
 17 16  1  0  0  0  0
 18 15  1  0  0  0  0
 19 18  1  0  0  0  0
 20 19  1  0  0  0  0
 21 20  1  0  0  0  0
 22 21  1  0  0  0  0
 23 24  1  0  0  0  0
 25 26  1  0  0  0  0
 26 24  1  0  0  0  0
 28 29  1  0  0  0  0
 29 27  1  0  0  0  0
M  END
>  <MODEL>
9

>  <REMARK>
 VINA RESULT:      -6.2      2.166      5.630
  Name = 
  10 active torsions:
  status: ('A' for Active; 'I' for Inactive)
    1  A    between atoms: N_1  and  C_15
    2  A    between atoms: C_6  and  C_18
    3  A    between atoms: C_6  and  N_22
    4  A    between atoms: C_9  and  C_11
    5  A    between atoms: C_11  and  C_23
    6  A    between atoms: N_14  and  C_29
    7  A    between atoms: C_17  and  C_23
    8  A    between atoms: C_18  and  C_29
    9  A    between atoms: C_20  and  O_27
   10  A    between atoms: O_27  and  C_28
                            x       y       z     vdW  Elec       q    Type
                         _______ _______ _______ _____ _____    ______ ____

>  <TORSDO>
F 10

$$$$
