=
 OpenBabel11042413003D

 42 45  0  0  1  0  0  0  0  0999 V2000
  187.7010  177.7720  143.3180 C   0  0  1  0  0  3  0  0  0  0  0  0
  186.7160  178.1870  146.9810 C   0  0  0  0  0  3  0  0  0  0  0  0
  187.7510  177.7970  144.8180 C   0  0  0  0  0  0  0  0  0  0  0  0
  186.6340  178.1630  145.5860 C   0  0  0  0  0  3  0  0  0  0  0  0
  187.9150  177.8480  147.6160 C   0  0  0  0  0  0  0  0  0  0  0  0
  187.9960  177.8680  149.0020 O   0  0  0  0  0  1  0  0  0  0  0  0
  188.9500  177.4670  145.4610 C   0  0  0  0  0  3  0  0  0  0  0  0
  189.0310  177.4890  146.8570 C   0  0  0  0  0  3  0  0  0  0  0  0
  190.1280  176.2400  141.0290 O   0  0  0  0  0  0  0  0  0  0  0  0
  188.6930  176.8660  142.7460 N   0  0  0  0  0  2  0  0  0  0  0  0
  189.2640  177.0520  141.4470 C   0  0  0  0  0  0  0  0  0  0  0  0
  188.8240  178.1720  140.5650 C   0  0  0  0  0  2  0  0  0  0  0  0
  189.4300  178.0240  139.2430 N   0  0  0  0  0  2  0  0  0  0  0  0
  188.4130  177.7760  138.2120 C   0  0  0  0  0  0  0  0  0  0  0  0
  188.7640  178.6220  136.9980 C   0  0  0  0  0  1  0  0  0  0  0  0
  187.0440  178.2340  138.7070 C   0  0  0  0  0  1  0  0  0  0  0  0
  188.6170  174.7570  135.7040 C   0  0  0  0  0  2  0  0  0  0  0  0
  189.5680  174.4200  136.8310 C   0  0  0  0  0  2  0  0  0  0  0  0
  189.7580  175.6860  137.6250 C   0  0  0  0  0  2  0  0  0  0  0  0
  187.3790  175.9330  136.3300 S   0  0  0  0  0  0  0  0  0  0  0  0
  188.3730  176.2790  137.8280 C   0  0  2  0  0  3  0  0  0  0  0  0
  185.7750  179.6140  142.0510 N   0  0  0  0  0  2  0  0  0  0  0  0
  185.4430  178.3760  142.2330 C   0  0  0  0  0  0  0  0  0  0  0  0
  186.3600  177.4500  142.8330 N   0  0  0  0  0  2  0  0  0  0  0  0
  183.7840  178.6410  140.4350 C   0  0  2  0  0  3  0  0  0  0  0  0
  184.1390  177.8800  141.7010 C   0  0  2  0  0  3  0  0  0  0  0  0
  183.0980  178.9830  141.7390 C   0  0  0  0  0  2  0  0  0  0  0  0
  182.2920  178.6270  138.4470 C   0  0  2  0  0  3  0  0  0  0  0  0
  182.4940  177.7740  137.2400 C   0  0  0  0  0  2  0  0  0  0  0  0
  183.5600  176.6900  139.0530 O   0  0  0  0  0  0  0  0  0  0  0  0
  182.8580  177.7950  139.5780 C   0  0  1  0  0  3  0  0  0  0  0  0
  183.6190  176.8650  137.6610 C   0  0  1  0  0  3  0  0  0  0  0  0
  183.5000  175.5200  136.9680 C   0  0  0  0  0  2  0  0  0  0  0  0
  183.9030  174.4820  137.8510 O   0  0  0  0  0  0  0  0  0  0  0  0
  184.2790  172.7550  136.3640 O   0  0  0  0  0  0  0  0  0  0  0  0
  184.6250  173.3770  137.4040 C   0  0  0  0  0  0  0  0  0  0  0  0
  185.7430  172.9580  138.1130 O   0  0  0  0  0  1  0  0  0  0  0  0
  180.9270  178.8430  138.6530 O   0  0  0  0  0  0  0  0  0  0  0  0
  180.1360  180.9570  140.2680 O   0  0  0  0  0  1  0  0  0  0  0  0
  179.6740  181.0600  137.5450 O   0  0  0  0  0  0  0  0  0  0  0  0
  180.7400  180.5270  138.7470 P   0  0  0  0  0  0  0  0  0  0  0  0
  182.0850  181.1860  138.5420 O   0  0  0  0  0  1  0  0  0  0  0  0
  1 10  1  1  0  0  0
  1  3  1  0  0  0  0
  2  5  1  0  0  0  0
  3  7  2  0  0  0  0
  3  4  1  0  0  0  0
  4  2  2  0  0  0  0
  5  6  1  0  0  0  0
  7  8  1  0  0  0  0
  8  5  2  0  0  0  0
  9 11  2  0  0  0  0
 11 10  1  0  0  0  0
 12 11  1  0  0  0  0
 13 12  1  0  0  0  0
 14 16  1  0  0  0  0
 14 13  1  0  0  0  0
 15 14  1  0  0  0  0
 17 20  1  0  0  0  0
 17 18  1  0  0  0  0
 18 19  1  0  0  0  0
 19 21  1  0  0  0  0
 20 21  1  0  0  0  0
 21 14  1  6  0  0  0
 22 23  2  0  0  0  0
 23 24  1  0  0  0  0
 24  1  1  0  0  0  0
 25 26  1  0  0  0  0
 25 27  1  1  0  0  0
 26 27  1  0  0  0  0
 26 23  1  1  0  0  0
 28 38  1  1  0  0  0
 28 31  1  0  0  0  0
 29 32  1  0  0  0  0
 29 28  1  0  0  0  0
 31 30  1  6  0  0  0
 31 25  1  0  0  0  0
 32 33  1  6  0  0  0
 32 30  1  0  0  0  0
 33 34  1  0  0  0  0
 35 36  2  0  0  0  0
 36 34  1  0  0  0  0
 36 37  1  0  0  0  0
 38 41  1  0  0  0  0
 40 41  2  0  0  0  0
 41 39  1  0  0  0  0
 42 41  1  0  0  0  0
M  END
>  <MODEL>
1

>  <REMARK>
 VINA RESULT:      -7.3      0.000      0.000
  Name = 
  14 active torsions:
  status: ('A' for Active; 'I' for Inactive)
    1  A    between atoms: C_1  and  N_12
    2  A    between atoms: C_1  and  C_13
    3  A    between atoms: C_1  and  N_39
    4  A    between atoms: C_4  and  N_28
    5  A    between atoms: C_4  and  C_37
    6  A    between atoms: C_5  and  C_17
    7  A    between atoms: C_6  and  O_27
    8  A    between atoms: C_11  and  C_25
    9  A    between atoms: C_11  and  N_28
   10  A    between atoms: O_19  and  C_20
   11  A    between atoms: O_19  and  C_31
   12  A    between atoms: C_20  and  C_23
   13  A    between atoms: C_24  and  C_32
   14  A    between atoms: O_27  and  P_33
                            x       y       z     vdW  Elec       q    Type
                         _______ _______ _______ _____ _____    ______ ____

>  <TORSDO>
F 14

$$$$
=
 OpenBabel11042413003D

 42 45  0  0  1  0  0  0  0  0999 V2000
  188.5390  177.4340  145.4320 C   0  0  1  0  0  3  0  0  0  0  0  0
  191.0220  177.0010  148.2970 C   0  0  0  0  0  3  0  0  0  0  0  0
  189.7580  177.0570  146.2230 C   0  0  0  0  0  0  0  0  0  0  0  0
  189.8690  177.3560  147.5900 C   0  0  0  0  0  3  0  0  0  0  0  0
  192.0700  176.3480  147.6410 C   0  0  0  0  0  0  0  0  0  0  0  0
  193.2130  175.9920  148.3440 O   0  0  0  0  0  1  0  0  0  0  0  0
  190.8150  176.4100  145.5720 C   0  0  0  0  0  3  0  0  0  0  0  0
  191.9670  176.0540  146.2800 C   0  0  0  0  0  3  0  0  0  0  0  0
  185.5940  179.3200  146.5500 O   0  0  0  0  0  0  0  0  0  0  0  0
  187.6740  178.3610  146.1560 N   0  0  0  0  0  2  0  0  0  0  0  0
  186.2800  178.5150  145.8700 C   0  0  0  0  0  0  0  0  0  0  0  0
  185.6360  177.7640  144.7540 C   0  0  0  0  0  2  0  0  0  0  0  0
  184.2430  178.1880  144.6170 N   0  0  0  0  0  2  0  0  0  0  0  0
  184.0130  178.8670  143.3350 C   0  0  0  0  0  0  0  0  0  0  0  0
  184.4550  177.9270  142.2230 C   0  0  0  0  0  1  0  0  0  0  0  0
  184.8810  180.1190  143.2440 C   0  0  0  0  0  1  0  0  0  0  0  0
  180.2880  178.1570  142.3040 C   0  0  0  0  0  2  0  0  0  0  0  0
  180.2310  178.6710  143.7250 C   0  0  0  0  0  2  0  0  0  0  0  0
  181.6420  178.6370  144.2520 C   0  0  0  0  0  2  0  0  0  0  0  0
  181.8280  178.7500  141.5410 S   0  0  0  0  0  0  0  0  0  0  0  0
  182.5210  179.2330  143.1650 C   0  0  2  0  0  3  0  0  0  0  0  0
  188.3970  176.0400  142.8350 N   0  0  0  0  0  2  0  0  0  0  0  0
  188.8290  177.2600  142.8770 C   0  0  0  0  0  0  0  0  0  0  0  0
  188.8970  177.9720  144.1210 N   0  0  0  0  0  2  0  0  0  0  0  0
  189.4180  176.9580  140.5060 C   0  0  2  0  0  3  0  0  0  0  0  0
  189.1410  177.9730  141.6030 C   0  0  2  0  0  3  0  0  0  0  0  0
  190.5670  177.6850  141.1710 C   0  0  0  0  0  2  0  0  0  0  0  0
  189.6230  176.6750  138.0460 C   0  0  2  0  0  3  0  0  0  0  0  0
  188.4710  176.6110  137.1000 C   0  0  0  0  0  2  0  0  0  0  0  0
  187.7490  177.8120  139.0070 O   0  0  0  0  0  0  0  0  0  0  0  0
  189.1330  177.5850  139.1530 C   0  0  1  0  0  3  0  0  0  0  0  0
  187.3000  176.9660  137.9790 C   0  0  1  0  0  3  0  0  0  0  0  0
  186.2250  177.6660  137.1690 C   0  0  0  0  0  2  0  0  0  0  0  0
  185.8420  178.8740  137.8130 O   0  0  0  0  0  0  0  0  0  0  0  0
  184.5110  179.9400  139.3710 O   0  0  0  0  0  1  0  0  0  0  0  0
  184.7030  178.9520  138.6120 C   0  0  0  0  0  0  0  0  0  0  0  0
  183.7670  177.9280  138.5710 O   0  0  0  0  0  0  0  0  0  0  0  0
  190.7270  177.2500  137.4120 O   0  0  0  0  0  0  0  0  0  0  0  0
  193.2800  176.7210  138.3650 O   0  0  0  0  0  1  0  0  0  0  0  0
  192.4640  175.6480  135.9520 O   0  0  0  0  0  0  0  0  0  0  0  0
  191.9640  176.0920  137.5070 P   0  0  0  0  0  0  0  0  0  0  0  0
  191.4410  174.8700  138.2260 O   0  0  0  0  0  1  0  0  0  0  0  0
  1 24  1  6  0  0  0
  1 10  1  0  0  0  0
  1  3  1  0  0  0  0
  3  4  1  0  0  0  0
  4  2  2  0  0  0  0
  5  2  1  0  0  0  0
  5  6  1  0  0  0  0
  7  3  2  0  0  0  0
  7  8  1  0  0  0  0
  8  5  2  0  0  0  0
 11 10  1  0  0  0  0
 11  9  2  0  0  0  0
 12 11  1  0  0  0  0
 13 12  1  0  0  0  0
 14 13  1  0  0  0  0
 15 14  1  0  0  0  0
 16 14  1  0  0  0  0
 17 18  1  0  0  0  0
 18 19  1  0  0  0  0
 20 17  1  0  0  0  0
 20 21  1  0  0  0  0
 21 14  1  1  0  0  0
 21 19  1  0  0  0  0
 22 23  2  0  0  0  0
 23 24  1  0  0  0  0
 25 27  1  6  0  0  0
 25 26  1  0  0  0  0
 26 23  1  1  0  0  0
 27 26  1  0  0  0  0
 28 38  1  6  0  0  0
 28 31  1  0  0  0  0
 29 32  1  0  0  0  0
 29 28  1  0  0  0  0
 31 30  1  6  0  0  0
 31 25  1  0  0  0  0
 32 33  1  6  0  0  0
 32 30  1  0  0  0  0
 33 34  1  0  0  0  0
 34 36  1  0  0  0  0
 36 35  1  0  0  0  0
 37 36  2  0  0  0  0
 38 41  1  0  0  0  0
 40 41  2  0  0  0  0
 41 42  1  0  0  0  0
 41 39  1  0  0  0  0
M  END
>  <MODEL>
2

>  <REMARK>
 VINA RESULT:      -7.1      3.500      7.250
  Name = 
  14 active torsions:
  status: ('A' for Active; 'I' for Inactive)
    1  A    between atoms: C_1  and  N_12
    2  A    between atoms: C_1  and  C_13
    3  A    between atoms: C_1  and  N_39
    4  A    between atoms: C_4  and  N_28
    5  A    between atoms: C_4  and  C_37
    6  A    between atoms: C_5  and  C_17
    7  A    between atoms: C_6  and  O_27
    8  A    between atoms: C_11  and  C_25
    9  A    between atoms: C_11  and  N_28
   10  A    between atoms: O_19  and  C_20
   11  A    between atoms: O_19  and  C_31
   12  A    between atoms: C_20  and  C_23
   13  A    between atoms: C_24  and  C_32
   14  A    between atoms: O_27  and  P_33
                            x       y       z     vdW  Elec       q    Type
                         _______ _______ _______ _____ _____    ______ ____

>  <TORSDO>
F 14

$$$$
=
 OpenBabel11042413003D

 42 45  0  0  1  0  0  0  0  0999 V2000
  186.2870  177.8920  144.1610 C   0  0  1  0  0  3  0  0  0  0  0  0
  186.8210  178.5220  147.8860 C   0  0  0  0  0  3  0  0  0  0  0  0
  186.9080  177.9520  145.5260 C   0  0  0  0  0  0  0  0  0  0  0  0
  186.2110  178.4690  146.6290 C   0  0  0  0  0  3  0  0  0  0  0  0
  188.1300  178.0600  148.0470 C   0  0  0  0  0  0  0  0  0  0  0  0
  188.7350  178.1090  149.2960 O   0  0  0  0  0  1  0  0  0  0  0  0
  188.2220  177.4990  145.6930 C   0  0  0  0  0  3  0  0  0  0  0  0
  188.8300  177.5500  146.9510 C   0  0  0  0  0  3  0  0  0  0  0  0
  183.1460  179.3530  142.9440 O   0  0  0  0  0  0  0  0  0  0  0  0
  185.0640  178.6850  144.0730 N   0  0  0  0  0  2  0  0  0  0  0  0
  184.1930  178.6570  142.9380 C   0  0  0  0  0  0  0  0  0  0  0  0
  184.5250  177.8430  141.7330 C   0  0  0  0  0  2  0  0  0  0  0  0
  184.6520  178.7180  140.5690 N   0  0  0  0  0  2  0  0  0  0  0  0
  183.6510  178.3950  139.5440 C   0  0  0  0  0  0  0  0  0  0  0  0
  184.3860  177.8530  138.3280 C   0  0  0  0  0  1  0  0  0  0  0  0
  182.9210  179.6620  139.1080 C   0  0  0  0  0  1  0  0  0  0  0  0
  180.1830  176.5470  139.6250 C   0  0  0  0  0  2  0  0  0  0  0  0
  181.2270  175.4580  139.5200 C   0  0  0  0  0  2  0  0  0  0  0  0
  182.5230  176.1380  139.1580 C   0  0  0  0  0  2  0  0  0  0  0  0
  180.9640  178.0220  140.3480 S   0  0  0  0  0  0  0  0  0  0  0  0
  182.6420  177.3480  140.0690 C   0  0  2  0  0  3  0  0  0  0  0  0
  188.2690  176.1690  142.8160 N   0  0  0  0  0  2  0  0  0  0  0  0
  188.1990  177.4220  142.4990 C   0  0  0  0  0  0  0  0  0  0  0  0
  187.2370  178.2850  143.1220 N   0  0  0  0  0  2  0  0  0  0  0  0
  188.8920  177.0500  140.1670 C   0  0  2  0  0  3  0  0  0  0  0  0
  189.0440  177.9450  141.3840 C   0  0  2  0  0  3  0  0  0  0  0  0
  190.1300  176.9470  141.0300 C   0  0  0  0  0  2  0  0  0  0  0  0
  189.9310  176.9660  137.9110 C   0  0  2  0  0  3  0  0  0  0  0  0
  189.2030  177.2100  136.6310 C   0  0  0  0  0  2  0  0  0  0  0  0
  188.0210  178.3430  138.3400 O   0  0  0  0  0  0  0  0  0  0  0  0
  189.2100  177.8440  138.9120 C   0  0  1  0  0  3  0  0  0  0  0  0
  187.8580  177.6970  137.1030 C   0  0  1  0  0  3  0  0  0  0  0  0
  187.2620  178.6620  136.0950 C   0  0  0  0  0  2  0  0  0  0  0  0
  186.9980  177.9860  134.8740 O   0  0  0  0  0  0  0  0  0  0  0  0
  184.7790  177.3450  134.8110 O   0  0  0  0  0  1  0  0  0  0  0  0
  185.9960  177.0210  134.7700 C   0  0  0  0  0  0  0  0  0  0  0  0
  186.3460  175.6860  134.6170 O   0  0  0  0  0  0  0  0  0  0  0  0
  191.2610  177.3780  137.7880 O   0  0  0  0  0  0  0  0  0  0  0  0
  191.3020  174.6280  138.1560 O   0  0  0  0  0  1  0  0  0  0  0  0
  193.6470  176.0760  138.3540 O   0  0  0  0  0  1  0  0  0  0  0  0
  192.1590  175.9580  137.5560 P   0  0  0  0  0  0  0  0  0  0  0  0
  192.4060  175.7640  136.0770 O   0  0  0  0  0  0  0  0  0  0  0  0
  1 24  1  6  0  0  0
  1  3  1  0  0  0  0
  2  5  1  0  0  0  0
  3  7  2  0  0  0  0
  3  4  1  0  0  0  0
  4  2  2  0  0  0  0
  5  6  1  0  0  0  0
  7  8  1  0  0  0  0
  8  5  2  0  0  0  0
 10  1  1  0  0  0  0
 11  9  2  0  0  0  0
 11 10  1  0  0  0  0
 12 11  1  0  0  0  0
 13 12  1  0  0  0  0
 14 13  1  0  0  0  0
 15 14  1  0  0  0  0
 16 14  1  0  0  0  0
 17 20  1  0  0  0  0
 18 17  1  0  0  0  0
 19 18  1  0  0  0  0
 19 21  1  0  0  0  0
 21 14  1  6  0  0  0
 21 20  1  0  0  0  0
 23 22  2  0  0  0  0
 23 24  1  0  0  0  0
 25 27  1  1  0  0  0
 25 26  1  0  0  0  0
 26 23  1  1  0  0  0
 27 26  1  0  0  0  0
 28 38  1  6  0  0  0
 28 31  1  0  0  0  0
 29 32  1  0  0  0  0
 29 28  1  0  0  0  0
 31 30  1  6  0  0  0
 31 25  1  0  0  0  0
 32 33  1  6  0  0  0
 32 30  1  0  0  0  0
 34 33  1  0  0  0  0
 36 35  1  0  0  0  0
 36 34  1  0  0  0  0
 37 36  2  0  0  0  0
 41 38  1  0  0  0  0
 41 39  1  0  0  0  0
 41 40  1  0  0  0  0
 42 41  2  0  0  0  0
M  END
>  <MODEL>
3

>  <REMARK>
 VINA RESULT:      -6.8      3.458      6.536
  Name = 
  14 active torsions:
  status: ('A' for Active; 'I' for Inactive)
    1  A    between atoms: C_1  and  N_12
    2  A    between atoms: C_1  and  C_13
    3  A    between atoms: C_1  and  N_39
    4  A    between atoms: C_4  and  N_28
    5  A    between atoms: C_4  and  C_37
    6  A    between atoms: C_5  and  C_17
    7  A    between atoms: C_6  and  O_27
    8  A    between atoms: C_11  and  C_25
    9  A    between atoms: C_11  and  N_28
   10  A    between atoms: O_19  and  C_20
   11  A    between atoms: O_19  and  C_31
   12  A    between atoms: C_20  and  C_23
   13  A    between atoms: C_24  and  C_32
   14  A    between atoms: O_27  and  P_33
                            x       y       z     vdW  Elec       q    Type
                         _______ _______ _______ _____ _____    ______ ____

>  <TORSDO>
F 14

$$$$
=
 OpenBabel11042413003D

 42 45  0  0  1  0  0  0  0  0999 V2000
  188.6570  176.7860  137.6030 C   0  0  1  0  0  3  0  0  0  0  0  0
  191.1160  175.8780  134.8300 C   0  0  0  0  0  3  0  0  0  0  0  0
  189.9240  176.4770  136.8610 C   0  0  0  0  0  0  0  0  0  0  0  0
  189.9190  176.1730  135.4910 C   0  0  0  0  0  3  0  0  0  0  0  0
  192.3220  175.8840  135.5360 C   0  0  0  0  0  0  0  0  0  0  0  0
  193.5110  175.5950  134.8790 O   0  0  0  0  0  1  0  0  0  0  0  0
  191.1360  176.4730  137.5620 C   0  0  0  0  0  3  0  0  0  0  0  0
  192.3320  176.1800  136.9010 C   0  0  0  0  0  3  0  0  0  0  0  0
  185.2390  175.8490  136.6420 O   0  0  0  0  0  0  0  0  0  0  0  0
  187.5130  176.0440  137.0790 N   0  0  0  0  0  2  0  0  0  0  0  0
  186.1710  176.5360  137.1320 C   0  0  0  0  0  0  0  0  0  0  0  0
  185.8530  177.8350  137.7920 C   0  0  0  0  0  2  0  0  0  0  0  0
  184.4030  177.9990  137.8840 N   0  0  0  0  0  2  0  0  0  0  0  0
  184.0030  178.5110  139.2020 C   0  0  0  0  0  0  0  0  0  0  0  0
  183.2550  179.8170  138.9870 C   0  0  0  0  0  1  0  0  0  0  0  0
  185.2400  178.8260  140.0380 C   0  0  0  0  0  1  0  0  0  0  0  0
  180.5690  176.8240  140.1020 C   0  0  0  0  0  2  0  0  0  0  0  0
  181.4950  175.6920  139.7150 C   0  0  0  0  0  2  0  0  0  0  0  0
  182.6940  176.3240  139.0570 C   0  0  0  0  0  2  0  0  0  0  0  0
  181.5830  178.2350  140.6420 S   0  0  0  0  0  0  0  0  0  0  0  0
  183.1010  177.4930  139.9380 C   0  0  2  0  0  3  0  0  0  0  0  0
  188.7700  178.8350  139.7230 N   0  0  0  0  0  2  0  0  0  0  0  0
  188.8740  177.5850  140.0430 C   0  0  0  0  0  0  0  0  0  0  0  0
  188.8080  176.5620  139.0400 N   0  0  0  0  0  2  0  0  0  0  0  0
  187.9320  178.0160  142.2760 C   0  0  2  0  0  3  0  0  0  0  0  0
  188.9390  177.1990  141.4850 C   0  0  2  0  0  3  0  0  0  0  0  0
  189.4010  178.3730  142.3270 C   0  0  0  0  0  2  0  0  0  0  0  0
  188.5350  177.5620  144.6440 C   0  0  2  0  0  3  0  0  0  0  0  0
  187.6710  177.8850  145.8170 C   0  0  0  0  0  2  0  0  0  0  0  0
  186.2470  177.6320  143.9430 O   0  0  0  0  0  0  0  0  0  0  0  0
  187.5470  177.2620  143.5370 C   0  0  1  0  0  3  0  0  0  0  0  0
  186.3770  178.3050  145.1690 C   0  0  1  0  0  3  0  0  0  0  0  0
  185.2020  177.9660  146.0680 C   0  0  0  0  0  2  0  0  0  0  0  0
  184.1970  178.9640  145.9500 O   0  0  0  0  0  0  0  0  0  0  0  0
  182.4490  178.5510  144.4970 O   0  0  0  0  0  1  0  0  0  0  0  0
  183.5120  179.1770  144.7540 C   0  0  0  0  0  0  0  0  0  0  0  0
  184.0060  180.0950  143.8370 O   0  0  0  0  0  0  0  0  0  0  0  0
  189.3020  176.4260  144.9170 O   0  0  0  0  0  0  0  0  0  0  0  0
  192.0030  175.9400  145.3280 O   0  0  0  0  0  1  0  0  0  0  0  0
  190.5030  177.1320  147.3190 O   0  0  0  0  0  1  0  0  0  0  0  0
  190.7230  177.0000  145.6460 P   0  0  0  0  0  0  0  0  0  0  0  0
  191.0530  178.3620  145.0820 O   0  0  0  0  0  0  0  0  0  0  0  0
  1 10  1  6  0  0  0
  1 24  1  0  0  0  0
  2  4  2  0  0  0  0
  2  5  1  0  0  0  0
  3  7  2  0  0  0  0
  3  1  1  0  0  0  0
  4  3  1  0  0  0  0
  5  8  2  0  0  0  0
  6  5  1  0  0  0  0
  8  7  1  0  0  0  0
  9 11  2  0  0  0  0
 10 11  1  0  0  0  0
 11 12  1  0  0  0  0
 12 13  1  0  0  0  0
 13 14  1  0  0  0  0
 14 16  1  0  0  0  0
 15 14  1  0  0  0  0
 17 20  1  0  0  0  0
 18 17  1  0  0  0  0
 19 18  1  0  0  0  0
 19 21  1  0  0  0  0
 21 14  1  6  0  0  0
 21 20  1  0  0  0  0
 22 23  2  0  0  0  0
 24 23  1  0  0  0  0
 25 27  1  1  0  0  0
 25 31  1  0  0  0  0
 26 23  1  6  0  0  0
 26 25  1  0  0  0  0
 26 27  1  0  0  0  0
 28 38  1  1  0  0  0
 28 29  1  0  0  0  0
 30 32  1  0  0  0  0
 31 30  1  1  0  0  0
 31 28  1  0  0  0  0
 32 29  1  0  0  0  0
 32 33  1  1  0  0  0
 34 33  1  0  0  0  0
 35 36  1  0  0  0  0
 36 34  1  0  0  0  0
 37 36  2  0  0  0  0
 38 41  1  0  0  0  0
 39 41  1  0  0  0  0
 41 40  1  0  0  0  0
 42 41  2  0  0  0  0
M  END
>  <MODEL>
4

>  <REMARK>
 VINA RESULT:      -6.7      3.684      8.772
  Name = 
  14 active torsions:
  status: ('A' for Active; 'I' for Inactive)
    1  A    between atoms: C_1  and  N_12
    2  A    between atoms: C_1  and  C_13
    3  A    between atoms: C_1  and  N_39
    4  A    between atoms: C_4  and  N_28
    5  A    between atoms: C_4  and  C_37
    6  A    between atoms: C_5  and  C_17
    7  A    between atoms: C_6  and  O_27
    8  A    between atoms: C_11  and  C_25
    9  A    between atoms: C_11  and  N_28
   10  A    between atoms: O_19  and  C_20
   11  A    between atoms: O_19  and  C_31
   12  A    between atoms: C_20  and  C_23
   13  A    between atoms: C_24  and  C_32
   14  A    between atoms: O_27  and  P_33
                            x       y       z     vdW  Elec       q    Type
                         _______ _______ _______ _____ _____    ______ ____

>  <TORSDO>
F 14

$$$$
=
 OpenBabel11042413003D

 42 45  0  0  1  0  0  0  0  0999 V2000
  190.8560  175.2600  137.0620 C   0  0  1  0  0  3  0  0  0  0  0  0
  194.5370  174.3970  137.5740 C   0  0  0  0  0  3  0  0  0  0  0  0
  192.3490  175.2180  136.9120 C   0  0  0  0  0  0  0  0  0  0  0  0
  193.1480  174.4060  137.7310 C   0  0  0  0  0  3  0  0  0  0  0  0
  195.1350  175.2020  136.5990 C   0  0  0  0  0  0  0  0  0  0  0  0
  196.5140  175.1910  136.4400 O   0  0  0  0  0  1  0  0  0  0  0  0
  192.9550  176.0270  135.9430 C   0  0  0  0  0  3  0  0  0  0  0  0
  194.3440  176.0160  135.7850 C   0  0  0  0  0  3  0  0  0  0  0  0
  188.5530  172.4020  137.1560 O   0  0  0  0  0  0  0  0  0  0  0  0
  190.2880  173.9390  137.3180 N   0  0  0  0  0  2  0  0  0  0  0  0
  188.9660  173.5650  136.9180 C   0  0  0  0  0  0  0  0  0  0  0  0
  188.0570  174.5440  136.2550 C   0  0  0  0  0  2  0  0  0  0  0  0
  187.1210  175.0900  137.2370 N   0  0  0  0  0  2  0  0  0  0  0  0
  185.7640  175.1920  136.6850 C   0  0  0  0  0  0  0  0  0  0  0  0
  185.8520  174.9630  135.1840 C   0  0  0  0  0  1  0  0  0  0  0  0
  185.2160  176.6000  136.8990 C   0  0  0  0  0  1  0  0  0  0  0  0
  182.5870  172.8810  136.8090 C   0  0  0  0  0  2  0  0  0  0  0  0
  183.7640  171.9790  137.1070 C   0  0  0  0  0  2  0  0  0  0  0  0
  185.0030  172.7560  136.7440 C   0  0  0  0  0  2  0  0  0  0  0  0
  183.0530  174.5890  137.2270 S   0  0  0  0  0  0  0  0  0  0  0  0
  184.8260  174.1460  137.3310 C   0  0  2  0  0  3  0  0  0  0  0  0
  189.4310  177.8130  136.6670 N   0  0  0  0  0  2  0  0  0  0  0  0
  189.7680  177.4530  137.8640 C   0  0  0  0  0  0  0  0  0  0  0  0
  190.4470  176.2110  138.0940 N   0  0  0  0  0  2  0  0  0  0  0  0
  188.7430  177.3800  140.1010 C   0  0  2  0  0  3  0  0  0  0  0  0
  189.3320  178.2800  139.0290 C   0  0  2  0  0  3  0  0  0  0  0  0
  187.8280  178.1900  139.2100 C   0  0  0  0  0  2  0  0  0  0  0  0
  187.5460  177.9840  142.1940 C   0  0  2  0  0  3  0  0  0  0  0  0
  187.9260  177.5070  143.5560 C   0  0  0  0  0  2  0  0  0  0  0  0
  189.8760  177.4330  142.2180 O   0  0  0  0  0  0  0  0  0  0  0  0
  188.8660  178.0570  141.4550 C   0  0  1  0  0  3  0  0  0  0  0  0
  189.2440  176.8200  143.3120 C   0  0  1  0  0  3  0  0  0  0  0  0
  190.1290  176.9220  144.5410 C   0  0  0  0  0  2  0  0  0  0  0  0
  189.5340  177.7900  145.4960 O   0  0  0  0  0  0  0  0  0  0  0  0
  188.6900  178.0520  147.6300 O   0  0  0  0  0  1  0  0  0  0  0  0
  189.4940  177.4710  146.8530 C   0  0  0  0  0  0  0  0  0  0  0  0
  190.3510  176.5000  147.3530 O   0  0  0  0  0  0  0  0  0  0  0  0
  186.9770  179.2570  142.2770 O   0  0  0  0  0  0  0  0  0  0  0  0
  184.8880  179.6800  140.5010 O   0  0  0  0  0  0  0  0  0  0  0  0
  184.4220  179.7960  143.2220 O   0  0  0  0  0  1  0  0  0  0  0  0
  185.3180  179.0340  142.0040 P   0  0  0  0  0  0  0  0  0  0  0  0
  185.0090  177.5550  142.0160 O   0  0  0  0  0  1  0  0  0  0  0  0
  1 10  1  1  0  0  0
  1 24  1  0  0  0  0
  2  4  1  0  0  0  0
  3  1  1  0  0  0  0
  3  4  2  0  0  0  0
  5  2  2  0  0  0  0
  6  5  1  0  0  0  0
  7  3  1  0  0  0  0
  8  7  2  0  0  0  0
  8  5  1  0  0  0  0
 11  9  2  0  0  0  0
 11 10  1  0  0  0  0
 12 11  1  0  0  0  0
 12 13  1  0  0  0  0
 14 16  1  0  0  0  0
 14 13  1  0  0  0  0
 15 14  1  0  0  0  0
 17 18  1  0  0  0  0
 17 20  1  0  0  0  0
 19 18  1  0  0  0  0
 19 21  1  0  0  0  0
 20 21  1  0  0  0  0
 21 14  1  6  0  0  0
 22 23  2  0  0  0  0
 23 24  1  0  0  0  0
 25 27  1  6  0  0  0
 25 31  1  0  0  0  0
 26 23  1  6  0  0  0
 26 27  1  0  0  0  0
 26 25  1  0  0  0  0
 28 38  1  1  0  0  0
 28 29  1  0  0  0  0
 30 32  1  0  0  0  0
 31 28  1  0  0  0  0
 31 30  1  1  0  0  0
 32 29  1  0  0  0  0
 32 33  1  1  0  0  0
 33 34  1  0  0  0  0
 34 36  1  0  0  0  0
 36 37  2  0  0  0  0
 36 35  1  0  0  0  0
 39 41  2  0  0  0  0
 41 42  1  0  0  0  0
 41 38  1  0  0  0  0
 41 40  1  0  0  0  0
M  END
>  <MODEL>
5

>  <REMARK>
 VINA RESULT:      -6.5      3.357      8.123
  Name = 
  14 active torsions:
  status: ('A' for Active; 'I' for Inactive)
    1  A    between atoms: C_1  and  N_12
    2  A    between atoms: C_1  and  C_13
    3  A    between atoms: C_1  and  N_39
    4  A    between atoms: C_4  and  N_28
    5  A    between atoms: C_4  and  C_37
    6  A    between atoms: C_5  and  C_17
    7  A    between atoms: C_6  and  O_27
    8  A    between atoms: C_11  and  C_25
    9  A    between atoms: C_11  and  N_28
   10  A    between atoms: O_19  and  C_20
   11  A    between atoms: O_19  and  C_31
   12  A    between atoms: C_20  and  C_23
   13  A    between atoms: C_24  and  C_32
   14  A    between atoms: O_27  and  P_33
                            x       y       z     vdW  Elec       q    Type
                         _______ _______ _______ _____ _____    ______ ____

>  <TORSDO>
F 14

$$$$
=
 OpenBabel11042413003D

 42 45  0  0  1  0  0  0  0  0999 V2000
  190.1020  177.7880  138.7130 C   0  0  1  0  0  3  0  0  0  0  0  0
  191.1590  175.8950  135.5730 C   0  0  0  0  0  3  0  0  0  0  0  0
  190.6900  176.7540  137.7960 C   0  0  0  0  0  0  0  0  0  0  0  0
  190.6120  176.8800  136.4000 C   0  0  0  0  0  3  0  0  0  0  0  0
  191.7850  174.7790  136.1360 C   0  0  0  0  0  0  0  0  0  0  0  0
  192.3310  173.8010  135.3150 O   0  0  0  0  0  1  0  0  0  0  0  0
  191.3100  175.6300  138.3520 C   0  0  0  0  0  3  0  0  0  0  0  0
  191.8590  174.6460  137.5240 C   0  0  0  0  0  3  0  0  0  0  0  0
  187.1510  179.1730  137.0240 O   0  0  0  0  0  0  0  0  0  0  0  0
  189.1990  178.6980  138.0150 N   0  0  0  0  0  2  0  0  0  0  0  0
  187.8790  178.3270  137.6030 C   0  0  0  0  0  0  0  0  0  0  0  0
  187.3660  176.9440  137.8170 C   0  0  0  0  0  2  0  0  0  0  0  0
  186.3990  176.6100  136.7730 N   0  0  0  0  0  2  0  0  0  0  0  0
  186.7510  175.3540  136.0980 C   0  0  0  0  0  0  0  0  0  0  0  0
  187.8260  174.6660  136.9250 C   0  0  0  0  0  1  0  0  0  0  0  0
  187.3500  175.6480  134.7250 C   0  0  0  0  0  1  0  0  0  0  0  0
  184.3500  172.4520  137.2200 C   0  0  0  0  0  2  0  0  0  0  0  0
  183.4610  173.6530  136.9830 C   0  0  0  0  0  2  0  0  0  0  0  0
  184.3730  174.8480  136.8760 C   0  0  0  0  0  2  0  0  0  0  0  0
  185.8760  172.6680  136.2530 S   0  0  0  0  0  0  0  0  0  0  0  0
  185.5130  174.4380  135.9590 C   0  0  2  0  0  3  0  0  0  0  0  0
  191.1690  177.5000  141.4490 N   0  0  0  0  0  2  0  0  0  0  0  0
  189.9920  177.0350  141.1750 C   0  0  0  0  0  0  0  0  0  0  0  0
  189.4370  177.1720  139.8590 N   0  0  0  0  0  2  0  0  0  0  0  0
  188.7290  177.5720  143.2180 C   0  0  2  0  0  3  0  0  0  0  0  0
  189.1550  176.4630  142.2710 C   0  0  2  0  0  3  0  0  0  0  0  0
  189.8480  176.6330  143.6100 C   0  0  0  0  0  2  0  0  0  0  0  0
  187.3760  177.8370  145.2860 C   0  0  2  0  0  3  0  0  0  0  0  0
  185.9950  178.4010  145.3300 C   0  0  0  0  0  2  0  0  0  0  0  0
  186.3290  177.5300  143.1550 O   0  0  0  0  0  0  0  0  0  0  0  0
  187.4500  177.1670  143.9300 C   0  0  1  0  0  3  0  0  0  0  0  0
  185.6400  178.5230  143.8710 C   0  0  1  0  0  3  0  0  0  0  0  0
  184.1440  178.3530  143.6750 C   0  0  0  0  0  2  0  0  0  0  0  0
  183.7230  179.0590  142.5170 O   0  0  0  0  0  0  0  0  0  0  0  0
  183.5520  177.5730  140.7580 O   0  0  0  0  0  1  0  0  0  0  0  0
  184.0520  178.6280  141.2330 C   0  0  0  0  0  0  0  0  0  0  0  0
  184.9400  179.3710  140.4670 O   0  0  0  0  0  0  0  0  0  0  0  0
  187.5330  176.8850  146.2960 O   0  0  0  0  0  0  0  0  0  0  0  0
  188.3750  177.9560  148.7140 O   0  0  0  0  0  1  0  0  0  0  0  0
  189.6900  178.6330  146.3790 O   0  0  0  0  0  0  0  0  0  0  0  0
  188.8770  177.3950  147.1980 P   0  0  0  0  0  0  0  0  0  0  0  0
  189.8170  176.2270  147.3880 O   0  0  0  0  0  1  0  0  0  0  0  0
  1 10  1  6  0  0  0
  1 24  1  0  0  0  0
  2  5  2  0  0  0  0
  2  4  1  0  0  0  0
  3  7  1  0  0  0  0
  3  1  1  0  0  0  0
  4  3  2  0  0  0  0
  5  8  1  0  0  0  0
  6  5  1  0  0  0  0
  8  7  2  0  0  0  0
  9 11  2  0  0  0  0
 11 12  1  0  0  0  0
 11 10  1  0  0  0  0
 13 12  1  0  0  0  0
 14 13  1  0  0  0  0
 14 15  1  0  0  0  0
 16 14  1  0  0  0  0
 18 17  1  0  0  0  0
 19 18  1  0  0  0  0
 20 17  1  0  0  0  0
 21 14  1  1  0  0  0
 21 20  1  0  0  0  0
 21 19  1  0  0  0  0
 23 22  2  0  0  0  0
 24 23  1  0  0  0  0
 25 27  1  1  0  0  0
 25 31  1  0  0  0  0
 26 23  1  6  0  0  0
 26 25  1  0  0  0  0
 26 27  1  0  0  0  0
 28 29  1  0  0  0  0
 28 38  1  1  0  0  0
 30 32  1  0  0  0  0
 31 30  1  6  0  0  0
 31 28  1  0  0  0  0
 32 33  1  1  0  0  0
 32 29  1  0  0  0  0
 34 33  1  0  0  0  0
 35 36  1  0  0  0  0
 36 34  1  0  0  0  0
 37 36  2  0  0  0  0
 38 41  1  0  0  0  0
 40 41  2  0  0  0  0
 41 42  1  0  0  0  0
 41 39  1  0  0  0  0
M  END
>  <MODEL>
6

>  <REMARK>
 VINA RESULT:      -6.4      3.430      7.862
  Name = 
  14 active torsions:
  status: ('A' for Active; 'I' for Inactive)
    1  A    between atoms: C_1  and  N_12
    2  A    between atoms: C_1  and  C_13
    3  A    between atoms: C_1  and  N_39
    4  A    between atoms: C_4  and  N_28
    5  A    between atoms: C_4  and  C_37
    6  A    between atoms: C_5  and  C_17
    7  A    between atoms: C_6  and  O_27
    8  A    between atoms: C_11  and  C_25
    9  A    between atoms: C_11  and  N_28
   10  A    between atoms: O_19  and  C_20
   11  A    between atoms: O_19  and  C_31
   12  A    between atoms: C_20  and  C_23
   13  A    between atoms: C_24  and  C_32
   14  A    between atoms: O_27  and  P_33
                            x       y       z     vdW  Elec       q    Type
                         _______ _______ _______ _____ _____    ______ ____

>  <TORSDO>
F 14

$$$$
=
 OpenBabel11042413003D

 42 45  0  0  1  0  0  0  0  0999 V2000
  187.5050  177.7020  143.8130 C   0  0  1  0  0  3  0  0  0  0  0  0
  190.7790  177.4570  145.7560 C   0  0  0  0  0  3  0  0  0  0  0  0
  188.4980  177.5190  144.9230 C   0  0  0  0  0  0  0  0  0  0  0  0
  189.8790  177.6440  144.7030 C   0  0  0  0  0  3  0  0  0  0  0  0
  190.3050  177.1420  147.0330 C   0  0  0  0  0  0  0  0  0  0  0  0
  191.1990  176.9600  148.0800 O   0  0  0  0  0  1  0  0  0  0  0  0
  188.0320  177.1960  146.2030 C   0  0  0  0  0  3  0  0  0  0  0  0
  188.9330  177.0110  147.2560 C   0  0  0  0  0  3  0  0  0  0  0  0
  184.4040  179.6660  143.7220 O   0  0  0  0  0  0  0  0  0  0  0  0
  186.4230  178.6120  144.1810 N   0  0  0  0  0  2  0  0  0  0  0  0
  185.3080  178.8860  143.3280 C   0  0  0  0  0  0  0  0  0  0  0  0
  185.2180  178.2930  141.9630 C   0  0  0  0  0  2  0  0  0  0  0  0
  184.9630  179.3470  140.9830 N   0  0  0  0  0  2  0  0  0  0  0  0
  184.2390  178.8290  139.8140 C   0  0  0  0  0  0  0  0  0  0  0  0
  185.2640  178.2540  138.8490 C   0  0  0  0  0  1  0  0  0  0  0  0
  183.5250  179.9700  139.0940 C   0  0  0  0  0  1  0  0  0  0  0  0
  180.7180  177.0830  139.8240 C   0  0  0  0  0  2  0  0  0  0  0  0
  181.7150  175.9980  139.4840 C   0  0  0  0  0  2  0  0  0  0  0  0
  183.0110  176.6920  139.1520 C   0  0  0  0  0  2  0  0  0  0  0  0
  181.5920  178.4040  140.7180 S   0  0  0  0  0  0  0  0  0  0  0  0
  183.2260  177.7390  140.2320 C   0  0  2  0  0  3  0  0  0  0  0  0
  189.0580  176.0420  141.9320 N   0  0  0  0  0  2  0  0  0  0  0  0
  188.9160  177.3060  141.6940 C   0  0  0  0  0  0  0  0  0  0  0  0
  188.1550  178.1390  142.5790 N   0  0  0  0  0  2  0  0  0  0  0  0
  189.7460  176.7520  139.4430 C   0  0  2  0  0  3  0  0  0  0  0  0
  189.4460  177.8770  140.4190 C   0  0  2  0  0  3  0  0  0  0  0  0
  190.8760  177.4250  140.1910 C   0  0  0  0  0  2  0  0  0  0  0  0
  190.2800  176.2730  137.0640 C   0  0  2  0  0  3  0  0  0  0  0  0
  189.2700  176.1840  135.9690 C   0  0  0  0  0  2  0  0  0  0  0  0
  188.3490  177.5550  137.6630 O   0  0  0  0  0  0  0  0  0  0  0  0
  189.6860  177.2840  138.0230 C   0  0  1  0  0  3  0  0  0  0  0  0
  188.0070  176.6520  136.6440 C   0  0  1  0  0  3  0  0  0  0  0  0
  187.0920  177.3310  135.6410 C   0  0  0  0  0  2  0  0  0  0  0  0
  186.1300  176.4050  135.1570 O   0  0  0  0  0  0  0  0  0  0  0  0
  184.7510  175.1430  136.5140 O   0  0  0  0  0  1  0  0  0  0  0  0
  184.9250  176.1830  135.8230 C   0  0  0  0  0  0  0  0  0  0  0  0
  183.9060  177.1200  135.7240 O   0  0  0  0  0  0  0  0  0  0  0  0
  191.4900  176.7540  136.5560 O   0  0  0  0  0  0  0  0  0  0  0  0
  193.6250  175.1170  135.8770 O   0  0  0  0  0  0  0  0  0  0  0  0
  191.9620  174.4090  137.9680 O   0  0  0  0  0  1  0  0  0  0  0  0
  192.6830  175.7060  137.1530 P   0  0  0  0  0  0  0  0  0  0  0  0
  193.5690  176.4640  138.1160 O   0  0  0  0  0  1  0  0  0  0  0  0
  1 24  1  6  0  0  0
  1 10  1  0  0  0  0
  1  3  1  0  0  0  0
  2  5  1  0  0  0  0
  3  7  2  0  0  0  0
  4  3  1  0  0  0  0
  4  2  2  0  0  0  0
  5  8  2  0  0  0  0
  5  6  1  0  0  0  0
  7  8  1  0  0  0  0
 11  9  2  0  0  0  0
 11 10  1  0  0  0  0
 12 11  1  0  0  0  0
 13 12  1  0  0  0  0
 14 13  1  0  0  0  0
 15 14  1  0  0  0  0
 16 14  1  0  0  0  0
 17 20  1  0  0  0  0
 18 17  1  0  0  0  0
 19 18  1  0  0  0  0
 19 21  1  0  0  0  0
 21 14  1  6  0  0  0
 21 20  1  0  0  0  0
 23 22  2  0  0  0  0
 23 24  1  0  0  0  0
 25 27  1  1  0  0  0
 25 26  1  0  0  0  0
 26 23  1  1  0  0  0
 27 26  1  0  0  0  0
 28 38  1  6  0  0  0
 28 31  1  0  0  0  0
 29 32  1  0  0  0  0
 29 28  1  0  0  0  0
 31 30  1  6  0  0  0
 31 25  1  0  0  0  0
 32 33  1  6  0  0  0
 32 30  1  0  0  0  0
 34 33  1  0  0  0  0
 34 36  1  0  0  0  0
 36 35  1  0  0  0  0
 37 36  2  0  0  0  0
 38 41  1  0  0  0  0
 39 41  2  0  0  0  0
 41 40  1  0  0  0  0
 41 42  1  0  0  0  0
M  END
>  <MODEL>
7

>  <REMARK>
 VINA RESULT:      -6.2      3.382      6.671
  Name = 
  14 active torsions:
  status: ('A' for Active; 'I' for Inactive)
    1  A    between atoms: C_1  and  N_12
    2  A    between atoms: C_1  and  C_13
    3  A    between atoms: C_1  and  N_39
    4  A    between atoms: C_4  and  N_28
    5  A    between atoms: C_4  and  C_37
    6  A    between atoms: C_5  and  C_17
    7  A    between atoms: C_6  and  O_27
    8  A    between atoms: C_11  and  C_25
    9  A    between atoms: C_11  and  N_28
   10  A    between atoms: O_19  and  C_20
   11  A    between atoms: O_19  and  C_31
   12  A    between atoms: C_20  and  C_23
   13  A    between atoms: C_24  and  C_32
   14  A    between atoms: O_27  and  P_33
                            x       y       z     vdW  Elec       q    Type
                         _______ _______ _______ _____ _____    ______ ____

>  <TORSDO>
F 14

$$$$
=
 OpenBabel11042413003D

 42 45  0  0  1  0  0  0  0  0999 V2000
  187.3430  177.2870  143.3260 C   0  0  1  0  0  3  0  0  0  0  0  0
  189.7760  177.5090  146.2580 C   0  0  0  0  0  3  0  0  0  0  0  0
  188.5680  177.1430  144.1820 C   0  0  0  0  0  0  0  0  0  0  0  0
  188.6150  177.6490  145.4900 C   0  0  0  0  0  3  0  0  0  0  0  0
  190.8950  176.8660  145.7210 C   0  0  0  0  0  0  0  0  0  0  0  0
  192.0460  176.7230  146.4840 O   0  0  0  0  0  1  0  0  0  0  0  0
  189.6960  176.5070  143.6490 C   0  0  0  0  0  3  0  0  0  0  0  0
  190.8550  176.3660  144.4180 C   0  0  0  0  0  3  0  0  0  0  0  0
  184.6290  179.7530  143.4900 O   0  0  0  0  0  0  0  0  0  0  0  0
  186.4890  178.3880  143.7620 N   0  0  0  0  0  2  0  0  0  0  0  0
  185.3270  178.8080  143.0420 C   0  0  0  0  0  0  0  0  0  0  0  0
  184.9490  178.1690  141.7480 C   0  0  0  0  0  2  0  0  0  0  0  0
  184.8060  179.1940  140.7160 N   0  0  0  0  0  2  0  0  0  0  0  0
  183.9370  178.7370  139.6230 C   0  0  0  0  0  0  0  0  0  0  0  0
  184.8280  178.2730  138.4810 C   0  0  0  0  0  1  0  0  0  0  0  0
  183.0960  179.8990  139.1030 C   0  0  0  0  0  1  0  0  0  0  0  0
  180.5990  176.6630  139.6900 C   0  0  0  0  0  2  0  0  0  0  0  0
  181.7010  175.6600  139.4320 C   0  0  0  0  0  2  0  0  0  0  0  0
  182.9310  176.4550  139.0760 C   0  0  0  0  0  2  0  0  0  0  0  0
  181.3240  178.1140  140.5140 S   0  0  0  0  0  0  0  0  0  0  0  0
  183.0240  177.5810  140.0930 C   0  0  2  0  0  3  0  0  0  0  0  0
  189.0300  179.3730  142.1000 N   0  0  0  0  0  2  0  0  0  0  0  0
  188.5020  178.4620  141.3480 C   0  0  0  0  0  0  0  0  0  0  0  0
  187.6890  177.4240  141.9130 N   0  0  0  0  0  2  0  0  0  0  0  0
  189.0710  176.9790  139.4670 C   0  0  2  0  0  3  0  0  0  0  0  0
  188.8450  178.4190  139.8950 C   0  0  2  0  0  3  0  0  0  0  0  0
  190.2550  177.8930  139.6990 C   0  0  0  0  0  2  0  0  0  0  0  0
  189.6850  175.7550  137.3940 C   0  0  2  0  0  3  0  0  0  0  0  0
  188.7380  174.9400  136.5770 C   0  0  0  0  0  2  0  0  0  0  0  0
  187.4550  176.5490  137.7440 O   0  0  0  0  0  0  0  0  0  0  0  0
  188.8140  176.8470  137.9760 C   0  0  1  0  0  3  0  0  0  0  0  0
  187.4050  175.2530  137.2050 C   0  0  1  0  0  3  0  0  0  0  0  0
  186.3000  175.1700  136.1680 C   0  0  0  0  0  2  0  0  0  0  0  0
  185.8590  173.8260  136.0350 O   0  0  0  0  0  0  0  0  0  0  0  0
  183.5880  173.4530  136.2320 O   0  0  0  0  0  0  0  0  0  0  0  0
  184.7440  173.3480  136.7230 C   0  0  0  0  0  0  0  0  0  0  0  0
  184.9110  172.7450  137.9620 O   0  0  0  0  0  1  0  0  0  0  0  0
  190.6630  176.3160  136.5680 O   0  0  0  0  0  0  0  0  0  0  0  0
  193.0780  176.7360  137.8690 O   0  0  0  0  0  1  0  0  0  0  0  0
  192.9680  175.0420  135.6880 O   0  0  0  0  0  0  0  0  0  0  0  0
  192.1270  175.6040  137.0450 P   0  0  0  0  0  0  0  0  0  0  0  0
  191.8340  174.4400  137.9630 O   0  0  0  0  0  1  0  0  0  0  0  0
  1 24  1  6  0  0  0
  1 10  1  0  0  0  0
  1  3  1  0  0  0  0
  3  4  1  0  0  0  0
  4  2  2  0  0  0  0
  5  2  1  0  0  0  0
  5  6  1  0  0  0  0
  7  3  2  0  0  0  0
  7  8  1  0  0  0  0
  8  5  2  0  0  0  0
 11  9  2  0  0  0  0
 11 10  1  0  0  0  0
 12 11  1  0  0  0  0
 13 12  1  0  0  0  0
 14 13  1  0  0  0  0
 15 14  1  0  0  0  0
 16 14  1  0  0  0  0
 17 20  1  0  0  0  0
 18 17  1  0  0  0  0
 19 18  1  0  0  0  0
 19 21  1  0  0  0  0
 21 14  1  6  0  0  0
 21 20  1  0  0  0  0
 23 24  1  0  0  0  0
 23 22  2  0  0  0  0
 25 27  1  6  0  0  0
 25 26  1  0  0  0  0
 26 23  1  1  0  0  0
 27 26  1  0  0  0  0
 28 38  1  6  0  0  0
 28 31  1  0  0  0  0
 29 32  1  0  0  0  0
 29 28  1  0  0  0  0
 31 30  1  1  0  0  0
 31 25  1  0  0  0  0
 32 33  1  6  0  0  0
 32 30  1  0  0  0  0
 34 33  1  0  0  0  0
 34 36  1  0  0  0  0
 35 36  2  0  0  0  0
 36 37  1  0  0  0  0
 38 41  1  0  0  0  0
 40 41  2  0  0  0  0
 41 39  1  0  0  0  0
 41 42  1  0  0  0  0
M  END
>  <MODEL>
8

>  <REMARK>
 VINA RESULT:      -6.1      3.504      6.355
  Name = 
  14 active torsions:
  status: ('A' for Active; 'I' for Inactive)
    1  A    between atoms: C_1  and  N_12
    2  A    between atoms: C_1  and  C_13
    3  A    between atoms: C_1  and  N_39
    4  A    between atoms: C_4  and  N_28
    5  A    between atoms: C_4  and  C_37
    6  A    between atoms: C_5  and  C_17
    7  A    between atoms: C_6  and  O_27
    8  A    between atoms: C_11  and  C_25
    9  A    between atoms: C_11  and  N_28
   10  A    between atoms: O_19  and  C_20
   11  A    between atoms: O_19  and  C_31
   12  A    between atoms: C_20  and  C_23
   13  A    between atoms: C_24  and  C_32
   14  A    between atoms: O_27  and  P_33
                            x       y       z     vdW  Elec       q    Type
                         _______ _______ _______ _____ _____    ______ ____

>  <TORSDO>
F 14

$$$$
=
 OpenBabel11042413003D

 42 45  0  0  1  0  0  0  0  0999 V2000
  182.7600  177.7250  138.8960 C   0  0  1  0  0  3  0  0  0  0  0  0
  183.2760  174.2240  137.4720 C   0  0  0  0  0  3  0  0  0  0  0  0
  183.2900  176.5710  138.0960 C   0  0  0  0  0  0  0  0  0  0  0  0
  182.7530  175.2800  138.2240 C   0  0  0  0  0  3  0  0  0  0  0  0
  184.3380  174.4510  136.5910 C   0  0  0  0  0  0  0  0  0  0  0  0
  184.8550  173.4020  135.8420 O   0  0  0  0  0  1  0  0  0  0  0  0
  184.3580  176.7890  137.2180 C   0  0  0  0  0  3  0  0  0  0  0  0
  184.8780  175.7320  136.4650 C   0  0  0  0  0  3  0  0  0  0  0  0
  179.1070  177.9020  139.2240 O   0  0  0  0  0  0  0  0  0  0  0  0
  181.3920  177.5000  139.3560 N   0  0  0  0  0  2  0  0  0  0  0  0
  180.2580  178.1630  138.7890 C   0  0  0  0  0  0  0  0  0  0  0  0
  180.4200  179.1860  137.7160 C   0  0  0  0  0  2  0  0  0  0  0  0
  179.3440  180.1710  137.8080 N   0  0  0  0  0  2  0  0  0  0  0  0
  179.8470  181.4750  138.2590 C   0  0  0  0  0  0  0  0  0  0  0  0
  181.3230  181.3160  138.5890 C   0  0  0  0  0  1  0  0  0  0  0  0
  179.1350  181.8930  139.5430 C   0  0  0  0  0  1  0  0  0  0  0  0
  180.7220  184.8160  136.3840 C   0  0  0  0  0  2  0  0  0  0  0  0
  180.6690  183.7470  135.3170 C   0  0  0  0  0  2  0  0  0  0  0  0
  180.6640  182.4220  136.0350 C   0  0  0  0  0  2  0  0  0  0  0  0
  179.7210  184.2640  137.8000 S   0  0  0  0  0  0  0  0  0  0  0  0
  179.6560  182.5490  137.1640 C   0  0  2  0  0  3  0  0  0  0  0  0
  184.5870  180.0310  139.1230 N   0  0  0  0  0  2  0  0  0  0  0  0
  184.5270  179.1720  140.0900 C   0  0  0  0  0  0  0  0  0  0  0  0
  183.6390  178.0480  140.0190 N   0  0  0  0  0  2  0  0  0  0  0  0
  185.5950  178.1010  142.0320 C   0  0  2  0  0  3  0  0  0  0  0  0
  185.2990  179.4220  141.3430 C   0  0  2  0  0  3  0  0  0  0  0  0
  184.4930  178.9950  142.5560 C   0  0  0  0  0  2  0  0  0  0  0  0
  186.5100  177.8490  144.3290 C   0  0  2  0  0  3  0  0  0  0  0  0
  187.6270  176.9330  144.7010 C   0  0  0  0  0  2  0  0  0  0  0  0
  187.8750  177.4440  142.4040 O   0  0  0  0  0  0  0  0  0  0  0  0
  186.8300  178.2500  142.9040 C   0  0  1  0  0  3  0  0  0  0  0  0
  188.1180  176.4470  143.3620 C   0  0  1  0  0  3  0  0  0  0  0  0
  189.6040  176.1440  143.4220 C   0  0  0  0  0  2  0  0  0  0  0  0
  190.3440  177.3550  143.4900 O   0  0  0  0  0  0  0  0  0  0  0  0
  191.1570  176.9450  145.6130 O   0  0  0  0  0  1  0  0  0  0  0  0
  191.1880  177.6410  144.5630 C   0  0  0  0  0  0  0  0  0  0  0  0
  192.0750  178.7050  144.4710 O   0  0  0  0  0  0  0  0  0  0  0  0
  186.5250  178.9770  145.1540 O   0  0  0  0  0  0  0  0  0  0  0  0
  183.8510  178.7530  145.8610 O   0  0  0  0  0  0  0  0  0  0  0  0
  185.6810  179.7170  147.6940 O   0  0  0  0  0  1  0  0  0  0  0  0
  185.4450  178.6320  146.4160 P   0  0  0  0  0  0  0  0  0  0  0  0
  185.6940  177.2250  146.9100 O   0  0  0  0  0  1  0  0  0  0  0  0
  1 10  1  1  0  0  0
  1 24  1  0  0  0  0
  2  4  1  0  0  0  0
  3  4  2  0  0  0  0
  3  1  1  0  0  0  0
  5  2  2  0  0  0  0
  6  5  1  0  0  0  0
  7  3  1  0  0  0  0
  8  5  1  0  0  0  0
  8  7  2  0  0  0  0
 11  9  2  0  0  0  0
 11 10  1  0  0  0  0
 12 13  1  0  0  0  0
 12 11  1  0  0  0  0
 13 14  1  0  0  0  0
 14 15  1  0  0  0  0
 14 16  1  0  0  0  0
 17 20  1  0  0  0  0
 18 19  1  0  0  0  0
 18 17  1  0  0  0  0
 19 21  1  0  0  0  0
 21 20  1  0  0  0  0
 21 14  1  1  0  0  0
 22 23  2  0  0  0  0
 24 23  1  0  0  0  0
 25 27  1  1  0  0  0
 25 31  1  0  0  0  0
 26 23  1  6  0  0  0
 26 25  1  0  0  0  0
 26 27  1  0  0  0  0
 28 29  1  0  0  0  0
 28 38  1  1  0  0  0
 30 32  1  0  0  0  0
 31 30  1  6  0  0  0
 31 28  1  0  0  0  0
 32 33  1  1  0  0  0
 32 29  1  0  0  0  0
 33 34  1  0  0  0  0
 34 36  1  0  0  0  0
 36 35  1  0  0  0  0
 37 36  2  0  0  0  0
 38 41  1  0  0  0  0
 39 41  2  0  0  0  0
 41 42  1  0  0  0  0
 41 40  1  0  0  0  0
M  END
>  <MODEL>
9

>  <REMARK>
 VINA RESULT:      -6.0      4.002      9.202
  Name = 
  14 active torsions:
  status: ('A' for Active; 'I' for Inactive)
    1  A    between atoms: C_1  and  N_12
    2  A    between atoms: C_1  and  C_13
    3  A    between atoms: C_1  and  N_39
    4  A    between atoms: C_4  and  N_28
    5  A    between atoms: C_4  and  C_37
    6  A    between atoms: C_5  and  C_17
    7  A    between atoms: C_6  and  O_27
    8  A    between atoms: C_11  and  C_25
    9  A    between atoms: C_11  and  N_28
   10  A    between atoms: O_19  and  C_20
   11  A    between atoms: O_19  and  C_31
   12  A    between atoms: C_20  and  C_23
   13  A    between atoms: C_24  and  C_32
   14  A    between atoms: O_27  and  P_33
                            x       y       z     vdW  Elec       q    Type
                         _______ _______ _______ _____ _____    ______ ____

>  <TORSDO>
F 14

$$$$
