=
 OpenBabel11032421253D

 34 36  0  0  1  0  0  0  0  0999 V2000
  187.1210  177.4440  145.9000 C   0  0  2  0  0  3  0  0  0  0  0  0
  189.2800  176.8790  146.4280 O   0  0  0  0  0  0  0  0  0  0  0  0
  189.5980  178.2180  148.3190 C   0  0  0  0  0  2  0  0  0  0  0  0
  187.4400  177.7240  149.1340 O   0  0  0  0  0  1  0  0  0  0  0  0
  190.1960  177.1490  147.4550 C   0  0  0  0  0  2  0  0  0  0  0  0
  188.0430  177.0570  146.9790 N   0  0  0  0  0  0  0  0  0  0  0  0
  188.1460  178.1060  147.9930 C   0  0  2  0  0  3  0  0  0  0  0  0
  187.8360  177.8070  144.5960 C   0  0  0  0  0  2  0  0  0  0  0  0
  187.4990  176.7850  143.5270 C   0  0  0  0  0  2  0  0  0  0  0  0
  188.4990  176.8340  142.4690 N   0  0  0  0  0  0  0  0  0  0  0  0
  189.7870  177.1300  143.0820 C   0  0  0  0  0  2  0  0  0  0  0  0
  191.6610  175.8430  143.9750 C   0  0  0  0  0  2  0  0  0  0  0  0
  190.5950  175.8810  143.1830 C   0  0  0  0  0  3  0  0  0  0  0  0
  188.1480  177.8700  141.4860 C   0  0  0  0  0  2  0  0  0  0  0  0
  189.0680  177.9110  140.2620 C   0  0  0  0  0  2  0  0  0  0  0  0
  187.2100  178.9340  137.0990 N   0  0  0  0  0  1  0  0  0  0  0  0
  187.6880  176.8560  138.0130 O   0  0  0  0  0  0  0  0  0  0  0  0
  188.4640  178.7070  139.2060 N   0  0  0  0  0  2  0  0  0  0  0  0
  187.7850  178.1080  138.1040 C   0  0  0  0  0  0  0  0  0  0  0  0
  186.1820  178.5590  146.3570 C   0  0  0  0  0  2  0  0  0  0  0  0
  185.4920  179.2040  145.1670 C   0  0  0  0  0  2  0  0  0  0  0  0
  183.9880  179.0100  145.2620 C   0  0  0  0  0  2  0  0  0  0  0  0
  181.1240  178.9500  142.6270 C   0  0  0  0  0  3  0  0  0  0  0  0
  181.5570  178.5380  141.4590 C   0  0  0  0  0  0  0  0  0  0  0  0
  182.8980  178.1160  141.0190 C   0  0  0  0  0  0  0  0  0  0  0  0
  183.4160  178.7690  143.9100 C   0  0  0  0  0  0  0  0  0  0  0  0
  180.9940  178.3220  140.1280 N   0  0  0  0  0  2  0  0  0  0  0  0
  184.2830  178.3270  142.9710 C   0  0  0  0  0  3  0  0  0  0  0  0
  182.2960  177.8960  139.7380 C   0  0  1  0  0  3  0  0  0  0  0  0
  182.0050  179.0480  143.7520 N   0  0  0  0  0  2  0  0  0  0  0  0
  184.0450  178.0080  141.5910 N   0  0  0  0  0  0  0  0  0  0  0  0
  182.8800  178.8520  138.7060 C   0  0  0  0  0  2  0  0  0  0  0  0
  184.1150  177.0930  137.5460 C   0  0  0  0  0  2  0  0  0  0  0  0
  183.2610  178.1070  137.4720 C   0  0  0  0  0  3  0  0  0  0  0  0
  1  8  1  6  0  0  0
  1 20  1  0  0  0  0
  1  6  1  0  0  0  0
  2  6  1  0  0  0  0
  2  5  1  0  0  0  0
  5  3  1  0  0  0  0
  6  7  1  0  0  0  0
  7  3  1  0  0  0  0
  7  4  1  1  0  0  0
  9  8  1  0  0  0  0
 10 11  1  0  0  0  0
 10  9  1  0  0  0  0
 11 13  1  0  0  0  0
 13 12  2  0  0  0  0
 14 10  1  0  0  0  0
 15 14  1  0  0  0  0
 16 19  1  0  0  0  0
 17 19  2  0  0  0  0
 18 15  1  0  0  0  0
 19 18  1  0  0  0  0
 21 22  1  0  0  0  0
 21 20  1  0  0  0  0
 23 30  1  0  0  0  0
 24 23  2  0  0  0  0
 25 24  1  0  0  0  0
 25 31  2  0  0  0  0
 26 22  1  0  0  0  0
 27 24  1  0  0  0  0
 28 26  2  0  0  0  0
 29 32  1  6  0  0  0
 29 27  1  0  0  0  0
 29 25  1  0  0  0  0
 30 26  1  0  0  0  0
 31 28  1  0  0  0  0
 34 33  2  0  0  0  0
 34 32  1  0  0  0  0
M  END
>  <MODEL>
1

>  <REMARK>
 VINA RESULT:      -7.0      0.000      0.000
  Name = 
  15 active torsions:
  status: ('A' for Active; 'I' for Inactive)
    1  A    between atoms: C_7  and  C_13
    2  A    between atoms: C_7  and  N_33
    3  A    between atoms: C_9  and  C_20
    4  A    between atoms: C_9  and  C_22
    5  A    between atoms: C_10  and  C_24
    6  A    between atoms: C_15  and  C_28
    7  A    between atoms: C_15  and  N_30
    8  A    between atoms: C_16  and  C_18
    9  A    between atoms: C_16  and  C_24
   10  A    between atoms: N_17  and  C_20
   11  A    between atoms: C_18  and  C_20
   12  A    between atoms: C_21  and  C_25
   13  A    between atoms: C_21  and  C_27
   14  A    between atoms: C_22  and  N_33
   15  A    between atoms: C_28  and  N_33
                            x       y       z     vdW  Elec       q    Type
                         _______ _______ _______ _____ _____    ______ ____

>  <TORSDO>
F 15

$$$$
=
 OpenBabel11032421253D

 34 36  0  0  1  0  0  0  0  0999 V2000
  190.7800  176.8110  139.7300 C   0  0  2  0  0  3  0  0  0  0  0  0
  190.3820  175.0410  138.3270 O   0  0  0  0  0  0  0  0  0  0  0  0
  191.7570  175.6310  136.5290 C   0  0  0  0  0  2  0  0  0  0  0  0
  193.4860  176.3280  137.9750 O   0  0  0  0  0  1  0  0  0  0  0  0
  190.8630  174.5700  137.0970 C   0  0  0  0  0  2  0  0  0  0  0  0
  191.3890  175.7980  138.8540 N   0  0  0  0  0  0  0  0  0  0  0  0
  192.1140  176.4200  137.7460 C   0  0  2  0  0  3  0  0  0  0  0  0
  189.9450  177.8440  138.9700 C   0  0  0  0  0  2  0  0  0  0  0  0
  188.6170  178.0460  139.6730 C   0  0  0  0  0  2  0  0  0  0  0  0
  187.6530  178.6220  138.7460 N   0  0  0  0  0  0  0  0  0  0  0  0
  186.3190  178.2430  139.1900 C   0  0  0  0  0  2  0  0  0  0  0  0
  185.0000  179.1190  141.0490 C   0  0  0  0  0  2  0  0  0  0  0  0
  186.1460  178.5970  140.6280 C   0  0  0  0  0  3  0  0  0  0  0  0
  187.9020  178.1270  137.3830 C   0  0  0  0  0  2  0  0  0  0  0  0
  186.8690  177.1100  136.8880 C   0  0  0  0  0  2  0  0  0  0  0  0
  187.3190  173.3280  136.9690 N   0  0  0  0  0  1  0  0  0  0  0  0
  185.4580  174.6760  137.2910 O   0  0  0  0  0  0  0  0  0  0  0  0
  187.4620  175.7830  136.8280 N   0  0  0  0  0  2  0  0  0  0  0  0
  186.6900  174.6020  137.0410 C   0  0  0  0  0  0  0  0  0  0  0  0
  191.8350  177.4770  140.6110 C   0  0  0  0  0  2  0  0  0  0  0  0
  191.3800  177.5160  142.0610 C   0  0  0  0  0  2  0  0  0  0  0  0
  190.4460  176.3520  142.3490 C   0  0  0  0  0  2  0  0  0  0  0  0
  189.4470  177.4590  145.9450 C   0  0  0  0  0  3  0  0  0  0  0  0
  188.1460  177.5900  146.0610 C   0  0  2  0  0  3  0  0  0  0  0  0
  187.0630  177.3900  145.0820 C   0  0  0  0  0  0  0  0  0  0  0  0
  189.4790  176.7240  143.4160 C   0  0  0  0  0  0  0  0  0  0  0  0
  187.2020  177.9760  147.1070 N   0  0  0  0  0  2  0  0  0  0  0  0
  188.1750  176.7250  143.0580 C   0  0  0  0  0  3  0  0  0  0  0  0
  186.1750  177.7500  146.1460 C   0  0  1  0  0  3  0  0  0  0  0  0
  190.0440  177.0540  144.7070 N   0  0  0  0  0  0  0  0  0  0  0  0
  187.0140  177.0360  143.8470 N   0  0  0  0  0  0  0  0  0  0  0  0
  185.4590  179.0550  145.8210 C   0  0  0  0  0  2  0  0  0  0  0  0
  183.4550  178.9520  144.4270 C   0  0  0  0  0  2  0  0  0  0  0  0
  184.0010  178.8070  145.6290 C   0  0  0  0  0  3  0  0  0  0  0  0
  1  8  1  6  0  0  0
  1 20  1  0  0  0  0
  2  6  1  0  0  0  0
  3  5  1  0  0  0  0
  3  7  1  0  0  0  0
  5  2  1  0  0  0  0
  6  1  1  0  0  0  0
  7  4  1  1  0  0  0
  7  6  1  0  0  0  0
  8  9  1  0  0  0  0
 10 11  1  0  0  0  0
 10  9  1  0  0  0  0
 11 13  1  0  0  0  0
 13 12  2  0  0  0  0
 14 10  1  0  0  0  0
 15 14  1  0  0  0  0
 16 19  1  0  0  0  0
 18 15  1  0  0  0  0
 18 19  1  0  0  0  0
 19 17  2  0  0  0  0
 20 21  1  0  0  0  0
 21 22  1  0  0  0  0
 22 26  1  0  0  0  0
 24 23  1  6  0  0  0
 24 27  1  0  0  0  0
 25 24  1  0  0  0  0
 25 29  1  0  0  0  0
 26 30  1  0  0  0  0
 28 26  2  0  0  0  0
 28 31  1  0  0  0  0
 29 32  1  6  0  0  0
 29 27  1  0  0  0  0
 30 23  2  0  0  0  0
 31 25  2  0  0  0  0
 33 34  2  0  0  0  0
 34 32  1  0  0  0  0
M  END
>  <MODEL>
2

>  <REMARK>
 VINA RESULT:      -7.0      3.477      7.418
  Name = 
  15 active torsions:
  status: ('A' for Active; 'I' for Inactive)
    1  A    between atoms: C_7  and  C_13
    2  A    between atoms: C_7  and  N_33
    3  A    between atoms: C_9  and  C_20
    4  A    between atoms: C_9  and  C_22
    5  A    between atoms: C_10  and  C_24
    6  A    between atoms: C_15  and  C_28
    7  A    between atoms: C_15  and  N_30
    8  A    between atoms: C_16  and  C_18
    9  A    between atoms: C_16  and  C_24
   10  A    between atoms: N_17  and  C_20
   11  A    between atoms: C_18  and  C_20
   12  A    between atoms: C_21  and  C_25
   13  A    between atoms: C_21  and  C_27
   14  A    between atoms: C_22  and  N_33
   15  A    between atoms: C_28  and  N_33
                            x       y       z     vdW  Elec       q    Type
                         _______ _______ _______ _____ _____    ______ ____

>  <TORSDO>
F 15

$$$$
=
 OpenBabel11032421253D

 34 36  0  0  1  0  0  0  0  0999 V2000
  188.8720  177.1060  144.2470 C   0  0  2  0  0  3  0  0  0  0  0  0
  188.6330  177.5640  146.4820 O   0  0  0  0  0  0  0  0  0  0  0  0
  190.6970  176.8020  147.2740 C   0  0  0  0  0  2  0  0  0  0  0  0
  191.8420  177.7390  145.4360 O   0  0  0  0  0  1  0  0  0  0  0  0
  189.4240  177.5060  147.6380 C   0  0  0  0  0  2  0  0  0  0  0  0
  189.5070  177.6870  145.4390 N   0  0  0  0  0  0  0  0  0  0  0  0
  190.7330  176.9700  145.7910 C   0  0  2  0  0  3  0  0  0  0  0  0
  189.1750  177.8810  142.9630 C   0  0  0  0  0  2  0  0  0  0  0  0
  190.2090  177.1320  142.1450 C   0  0  0  0  0  2  0  0  0  0  0  0
  189.6930  176.8890  140.8050 N   0  0  0  0  0  0  0  0  0  0  0  0
  190.8010  177.0110  139.8670 C   0  0  0  0  0  2  0  0  0  0  0  0
  193.2130  177.3620  140.0180 C   0  0  0  0  0  2  0  0  0  0  0  0
  192.0180  177.4890  140.5840 C   0  0  0  0  0  3  0  0  0  0  0  0
  188.6380  177.8620  140.4840 C   0  0  0  0  0  2  0  0  0  0  0  0
  188.6680  178.3650  139.0370 C   0  0  0  0  0  2  0  0  0  0  0  0
  186.0470  177.6460  136.3690 N   0  0  0  0  0  1  0  0  0  0  0  0
  187.4600  179.4550  136.7070 O   0  0  0  0  0  0  0  0  0  0  0  0
  187.6260  177.7170  138.2580 N   0  0  0  0  0  2  0  0  0  0  0  0
  187.0640  178.3250  137.0960 C   0  0  0  0  0  0  0  0  0  0  0  0
  187.3690  176.9300  144.4590 C   0  0  0  0  0  2  0  0  0  0  0  0
  186.5830  177.7850  143.4780 C   0  0  0  0  0  2  0  0  0  0  0  0
  185.4270  178.4700  144.1880 C   0  0  0  0  0  2  0  0  0  0  0  0
  181.6700  179.0730  143.3680 C   0  0  0  0  0  3  0  0  0  0  0  0
  181.4340  178.9420  142.0830 C   0  0  0  0  0  0  0  0  0  0  0  0
  182.3340  178.6160  140.9630 C   0  0  0  0  0  0  0  0  0  0  0  0
  184.2520  178.5630  143.2810 C   0  0  0  0  0  0  0  0  0  0  0  0
  180.2800  179.0530  141.1940 N   0  0  0  0  0  2  0  0  0  0  0  0
  184.4990  178.3420  141.9690 C   0  0  0  0  0  3  0  0  0  0  0  0
  181.1690  178.7130  140.1350 C   0  0  1  0  0  3  0  0  0  0  0  0
  182.9870  178.8910  143.9020 N   0  0  0  0  0  2  0  0  0  0  0  0
  183.5890  178.3610  140.8560 N   0  0  0  0  0  0  0  0  0  0  0  0
  181.3050  179.8770  139.1620 C   0  0  0  0  0  2  0  0  0  0  0  0
  181.7850  178.6070  137.1320 C   0  0  0  0  0  2  0  0  0  0  0  0
  180.9710  179.4330  137.7790 C   0  0  0  0  0  3  0  0  0  0  0  0
  1  8  1  6  0  0  0
  1 20  1  0  0  0  0
  1  6  1  0  0  0  0
  2  5  1  0  0  0  0
  3  5  1  0  0  0  0
  6  7  1  0  0  0  0
  6  2  1  0  0  0  0
  7  4  1  1  0  0  0
  7  3  1  0  0  0  0
  9  8  1  0  0  0  0
 10  9  1  0  0  0  0
 11 13  1  0  0  0  0
 11 10  1  0  0  0  0
 12 13  2  0  0  0  0
 14 10  1  0  0  0  0
 15 14  1  0  0  0  0
 16 19  1  0  0  0  0
 17 19  2  0  0  0  0
 18 15  1  0  0  0  0
 19 18  1  0  0  0  0
 21 22  1  0  0  0  0
 21 20  1  0  0  0  0
 23 30  1  0  0  0  0
 24 23  2  0  0  0  0
 25 24  1  0  0  0  0
 26 30  1  0  0  0  0
 26 22  1  0  0  0  0
 27 24  1  0  0  0  0
 28 26  2  0  0  0  0
 29 32  1  6  0  0  0
 29 25  1  0  0  0  0
 29 27  1  0  0  0  0
 31 25  2  0  0  0  0
 31 28  1  0  0  0  0
 33 34  2  0  0  0  0
 34 32  1  0  0  0  0
M  END
>  <MODEL>
3

>  <REMARK>
 VINA RESULT:      -6.7      1.709      2.361
  Name = 
  15 active torsions:
  status: ('A' for Active; 'I' for Inactive)
    1  A    between atoms: C_7  and  C_13
    2  A    between atoms: C_7  and  N_33
    3  A    between atoms: C_9  and  C_20
    4  A    between atoms: C_9  and  C_22
    5  A    between atoms: C_10  and  C_24
    6  A    between atoms: C_15  and  C_28
    7  A    between atoms: C_15  and  N_30
    8  A    between atoms: C_16  and  C_18
    9  A    between atoms: C_16  and  C_24
   10  A    between atoms: N_17  and  C_20
   11  A    between atoms: C_18  and  C_20
   12  A    between atoms: C_21  and  C_25
   13  A    between atoms: C_21  and  C_27
   14  A    between atoms: C_22  and  N_33
   15  A    between atoms: C_28  and  N_33
                            x       y       z     vdW  Elec       q    Type
                         _______ _______ _______ _____ _____    ______ ____

>  <TORSDO>
F 15

$$$$
=
 OpenBabel11032421253D

 34 36  0  0  1  0  0  0  0  0999 V2000
  186.2220  177.3740  144.4060 C   0  0  2  0  0  3  0  0  0  0  0  0
  187.3240  177.4230  146.4170 O   0  0  0  0  0  0  0  0  0  0  0  0
  186.3470  179.3240  147.3680 C   0  0  0  0  0  2  0  0  0  0  0  0
  184.2050  178.7110  146.5920 O   0  0  0  0  0  1  0  0  0  0  0  0
  187.2760  178.1700  147.6030 C   0  0  0  0  0  2  0  0  0  0  0  0
  186.0800  177.5270  145.8620 N   0  0  0  0  0  0  0  0  0  0  0  0
  185.5400  178.8410  146.2080 C   0  0  2  0  0  3  0  0  0  0  0  0
  187.6270  176.9420  143.9780 C   0  0  0  0  0  2  0  0  0  0  0  0
  188.0050  177.6400  142.6860 C   0  0  0  0  0  2  0  0  0  0  0  0
  189.4540  177.7600  142.6000 N   0  0  0  0  0  0  0  0  0  0  0  0
  189.8620  177.3430  141.2660 C   0  0  0  0  0  2  0  0  0  0  0  0
  189.0620  178.3890  139.2090 C   0  0  0  0  0  2  0  0  0  0  0  0
  188.7850  177.6630  140.2860 C   0  0  0  0  0  3  0  0  0  0  0  0
  190.0950  176.9170  143.6200 C   0  0  0  0  0  2  0  0  0  0  0  0
  190.9210  177.6960  144.6490 C   0  0  0  0  0  2  0  0  0  0  0  0
  192.4220  175.6050  147.4570 N   0  0  0  0  0  1  0  0  0  0  0  0
  190.5960  177.0350  147.3940 O   0  0  0  0  0  0  0  0  0  0  0  0
  191.7780  176.7880  145.3950 N   0  0  0  0  0  2  0  0  0  0  0  0
  191.5540  176.5020  146.7750 C   0  0  0  0  0  0  0  0  0  0  0  0
  185.7740  178.6400  143.6770 C   0  0  0  0  0  2  0  0  0  0  0  0
  184.4080  178.4400  143.0420 C   0  0  0  0  0  2  0  0  0  0  0  0
  184.5550  178.1580  141.5560 C   0  0  0  0  0  2  0  0  0  0  0  0
  180.8720  179.3000  141.0300 C   0  0  0  0  0  3  0  0  0  0  0  0
  180.7230  179.9230  139.8840 C   0  0  0  0  0  0  0  0  0  0  0  0
  181.6940  180.2380  138.8210 C   0  0  0  0  0  0  0  0  0  0  0  0
  183.4470  178.8000  140.8000 C   0  0  0  0  0  0  0  0  0  0  0  0
  179.6350  180.5710  139.1550 N   0  0  0  0  0  2  0  0  0  0  0  0
  183.7800  179.3410  139.6060 C   0  0  0  0  0  3  0  0  0  0  0  0
  180.5910  180.8390  138.1340 C   0  0  1  0  0  3  0  0  0  0  0  0
  182.1460  178.7860  141.4340 N   0  0  0  0  0  2  0  0  0  0  0  0
  182.9500  180.0240  138.6530 N   0  0  0  0  0  0  0  0  0  0  0  0
  180.8080  182.3400  137.9920 C   0  0  0  0  0  2  0  0  0  0  0  0
  180.9490  183.7500  136.0030 C   0  0  0  0  0  2  0  0  0  0  0  0
  180.2920  182.8120  136.6760 C   0  0  0  0  0  3  0  0  0  0  0  0
  1 20  1  6  0  0  0
  1  6  1  0  0  0  0
  2  5  1  0  0  0  0
  3  5  1  0  0  0  0
  6  7  1  0  0  0  0
  6  2  1  0  0  0  0
  7  4  1  1  0  0  0
  7  3  1  0  0  0  0
  8  1  1  0  0  0  0
  9  8  1  0  0  0  0
 10  9  1  0  0  0  0
 10 14  1  0  0  0  0
 11 10  1  0  0  0  0
 12 13  2  0  0  0  0
 13 11  1  0  0  0  0
 14 15  1  0  0  0  0
 15 18  1  0  0  0  0
 18 19  1  0  0  0  0
 19 17  2  0  0  0  0
 19 16  1  0  0  0  0
 21 20  1  0  0  0  0
 22 21  1  0  0  0  0
 23 30  1  0  0  0  0
 24 23  2  0  0  0  0
 25 24  1  0  0  0  0
 26 30  1  0  0  0  0
 26 22  1  0  0  0  0
 27 24  1  0  0  0  0
 28 26  2  0  0  0  0
 29 32  1  1  0  0  0
 29 25  1  0  0  0  0
 29 27  1  0  0  0  0
 31 25  2  0  0  0  0
 31 28  1  0  0  0  0
 33 34  2  0  0  0  0
 34 32  1  0  0  0  0
M  END
>  <MODEL>
4

>  <REMARK>
 VINA RESULT:      -6.6      2.504      4.718
  Name = 
  15 active torsions:
  status: ('A' for Active; 'I' for Inactive)
    1  A    between atoms: C_7  and  C_13
    2  A    between atoms: C_7  and  N_33
    3  A    between atoms: C_9  and  C_20
    4  A    between atoms: C_9  and  C_22
    5  A    between atoms: C_10  and  C_24
    6  A    between atoms: C_15  and  C_28
    7  A    between atoms: C_15  and  N_30
    8  A    between atoms: C_16  and  C_18
    9  A    between atoms: C_16  and  C_24
   10  A    between atoms: N_17  and  C_20
   11  A    between atoms: C_18  and  C_20
   12  A    between atoms: C_21  and  C_25
   13  A    between atoms: C_21  and  C_27
   14  A    between atoms: C_22  and  N_33
   15  A    between atoms: C_28  and  N_33
                            x       y       z     vdW  Elec       q    Type
                         _______ _______ _______ _____ _____    ______ ____

>  <TORSDO>
F 15

$$$$
=
 OpenBabel11032421253D

 34 36  0  0  1  0  0  0  0  0999 V2000
  190.4140  176.0240  138.3420 C   0  0  2  0  0  3  0  0  0  0  0  0
  191.7340  174.2580  137.7110 O   0  0  0  0  0  0  0  0  0  0  0  0
  193.6220  175.4140  136.9540 C   0  0  0  0  0  2  0  0  0  0  0  0
  193.5190  176.9280  138.7610 O   0  0  0  0  0  1  0  0  0  0  0  0
  193.0420  174.0620  137.2440 C   0  0  0  0  0  2  0  0  0  0  0  0
  191.7600  175.4350  138.4030 N   0  0  0  0  0  0  0  0  0  0  0  0
  192.7510  176.3070  137.7750 C   0  0  2  0  0  3  0  0  0  0  0  0
  190.0070  176.4550  136.9310 C   0  0  0  0  0  2  0  0  0  0  0  0
  188.6340  177.0980  136.9680 C   0  0  0  0  0  2  0  0  0  0  0  0
  187.6300  176.0920  137.2890 N   0  0  0  0  0  0  0  0  0  0  0  0
  187.6510  175.0850  136.2370 C   0  0  0  0  0  2  0  0  0  0  0  0
  187.8730  172.7750  136.9990 C   0  0  0  0  0  2  0  0  0  0  0  0
  187.0760  173.8080  136.7500 C   0  0  0  0  0  3  0  0  0  0  0  0
  186.3000  176.7140  137.3780 C   0  0  0  0  0  2  0  0  0  0  0  0
  186.3300  178.2300  137.5960 C   0  0  0  0  0  2  0  0  0  0  0  0
  184.9910  179.3080  140.9950 N   0  0  0  0  0  1  0  0  0  0  0  0
  184.0020  179.2100  138.8980 O   0  0  0  0  0  0  0  0  0  0  0  0
  186.2350  178.5360  139.0140 N   0  0  0  0  0  2  0  0  0  0  0  0
  185.0300  179.0260  139.6010 C   0  0  0  0  0  0  0  0  0  0  0  0
  190.2710  177.1670  139.3450 C   0  0  0  0  0  2  0  0  0  0  0  0
  190.1020  176.6270  140.7560 C   0  0  0  0  0  2  0  0  0  0  0  0
  190.5080  177.6800  141.7730 C   0  0  0  0  0  2  0  0  0  0  0  0
  189.5260  177.7390  145.5400 C   0  0  0  0  0  3  0  0  0  0  0  0
  188.2230  177.7500  145.6940 C   0  0  2  0  0  3  0  0  0  0  0  0
  187.1320  177.7430  144.7040 C   0  0  0  0  0  0  0  0  0  0  0  0
  189.5450  177.6960  142.9060 C   0  0  0  0  0  0  0  0  0  0  0  0
  187.2820  177.7860  146.8110 N   0  0  0  0  0  2  0  0  0  0  0  0
  188.2350  177.7060  142.5690 C   0  0  0  0  0  3  0  0  0  0  0  0
  186.2480  177.7530  145.8300 C   0  0  1  0  0  3  0  0  0  0  0  0
  190.1190  177.7130  144.2350 N   0  0  0  0  0  0  0  0  0  0  0  0
  187.0770  177.7240  143.4190 N   0  0  0  0  0  0  0  0  0  0  0  0
  185.4460  179.0480  145.8640 C   0  0  0  0  0  2  0  0  0  0  0  0
  183.5380  179.0120  144.3380 C   0  0  0  0  0  2  0  0  0  0  0  0
  184.0130  178.7730  145.5560 C   0  0  0  0  0  3  0  0  0  0  0  0
  1  8  1  6  0  0  0
  1  6  1  0  0  0  0
  1 20  1  0  0  0  0
  2  6  1  0  0  0  0
  3  5  1  0  0  0  0
  3  7  1  0  0  0  0
  5  2  1  0  0  0  0
  7  6  1  0  0  0  0
  7  4  1  1  0  0  0
  8  9  1  0  0  0  0
  9 10  1  0  0  0  0
 10 14  1  0  0  0  0
 11 13  1  0  0  0  0
 11 10  1  0  0  0  0
 13 12  2  0  0  0  0
 14 15  1  0  0  0  0
 15 18  1  0  0  0  0
 17 19  2  0  0  0  0
 18 19  1  0  0  0  0
 19 16  1  0  0  0  0
 20 21  1  0  0  0  0
 21 22  1  0  0  0  0
 22 26  1  0  0  0  0
 24 23  1  6  0  0  0
 24 27  1  0  0  0  0
 25 24  1  0  0  0  0
 25 29  1  0  0  0  0
 26 30  1  0  0  0  0
 28 26  2  0  0  0  0
 28 31  1  0  0  0  0
 29 32  1  6  0  0  0
 29 27  1  0  0  0  0
 30 23  2  0  0  0  0
 31 25  2  0  0  0  0
 33 34  2  0  0  0  0
 34 32  1  0  0  0  0
M  END
>  <MODEL>
5

>  <REMARK>
 VINA RESULT:      -6.6      3.300      7.687
  Name = 
  15 active torsions:
  status: ('A' for Active; 'I' for Inactive)
    1  A    between atoms: C_7  and  C_13
    2  A    between atoms: C_7  and  N_33
    3  A    between atoms: C_9  and  C_20
    4  A    between atoms: C_9  and  C_22
    5  A    between atoms: C_10  and  C_24
    6  A    between atoms: C_15  and  C_28
    7  A    between atoms: C_15  and  N_30
    8  A    between atoms: C_16  and  C_18
    9  A    between atoms: C_16  and  C_24
   10  A    between atoms: N_17  and  C_20
   11  A    between atoms: C_18  and  C_20
   12  A    between atoms: C_21  and  C_25
   13  A    between atoms: C_21  and  C_27
   14  A    between atoms: C_22  and  N_33
   15  A    between atoms: C_28  and  N_33
                            x       y       z     vdW  Elec       q    Type
                         _______ _______ _______ _____ _____    ______ ____

>  <TORSDO>
F 15

$$$$
=
 OpenBabel11032421253D

 34 36  0  0  1  0  0  0  0  0999 V2000
  189.1360  177.2480  144.0470 C   0  0  2  0  0  3  0  0  0  0  0  0
  188.6450  177.7700  146.2260 O   0  0  0  0  0  0  0  0  0  0  0  0
  190.4100  176.6830  147.3100 C   0  0  0  0  0  2  0  0  0  0  0  0
  191.9570  177.3910  145.6770 O   0  0  0  0  0  1  0  0  0  0  0  0
  189.2330  177.5950  147.4870 C   0  0  0  0  0  2  0  0  0  0  0  0
  189.6740  177.7300  145.3290 N   0  0  0  0  0  0  0  0  0  0  0  0
  190.6950  176.8240  145.8520 C   0  0  2  0  0  3  0  0  0  0  0  0
  187.6350  176.9530  144.0950 C   0  0  0  0  0  2  0  0  0  0  0  0
  186.9140  177.8020  143.0650 C   0  0  0  0  0  2  0  0  0  0  0  0
  185.8480  178.5560  143.7100 N   0  0  0  0  0  0  0  0  0  0  0  0
  185.4290  177.8190  144.8950 C   0  0  0  0  0  2  0  0  0  0  0  0
  185.5550  178.6770  147.1780 C   0  0  0  0  0  2  0  0  0  0  0  0
  185.0220  178.7740  145.9650 C   0  0  0  0  0  3  0  0  0  0  0  0
  184.7180  178.7290  142.7860 C   0  0  0  0  0  2  0  0  0  0  0  0
  185.0140  178.2970  141.3460 C   0  0  0  0  0  2  0  0  0  0  0  0
  183.8490  180.7700  138.6930 N   0  0  0  0  0  1  0  0  0  0  0  0
  182.9250  178.7940  139.4840 O   0  0  0  0  0  0  0  0  0  0  0  0
  184.9470  179.4440  140.4540 N   0  0  0  0  0  2  0  0  0  0  0  0
  183.8650  179.6290  139.5420 C   0  0  0  0  0  0  0  0  0  0  0  0
  189.9310  176.0470  143.5380 C   0  0  0  0  0  2  0  0  0  0  0  0
  190.9140  176.4700  142.4600 C   0  0  0  0  0  2  0  0  0  0  0  0
  190.3740  177.6680  141.6960 C   0  0  0  0  0  2  0  0  0  0  0  0
  190.5480  175.7150  138.3340 C   0  0  0  0  0  3  0  0  0  0  0  0
  189.4790  175.9260  137.6020 C   0  0  0  0  0  0  0  0  0  0  0  0
  188.2840  176.7520  137.8510 C   0  0  0  0  0  0  0  0  0  0  0  0
  189.8600  177.2400  140.3680 C   0  0  0  0  0  0  0  0  0  0  0  0
  188.9710  175.4860  136.3050 N   0  0  0  0  0  2  0  0  0  0  0  0
  188.6520  177.7330  140.0140 C   0  0  0  0  0  3  0  0  0  0  0  0
  187.8390  176.3120  136.5630 C   0  0  1  0  0  3  0  0  0  0  0  0
  190.7040  176.3360  139.6150 N   0  0  0  0  0  2  0  0  0  0  0  0
  187.8940  177.5090  138.8130 N   0  0  0  0  0  0  0  0  0  0  0  0
  186.5820  175.4620  136.6980 C   0  0  0  0  0  2  0  0  0  0  0  0
  184.9560  177.2690  136.4600 C   0  0  0  0  0  2  0  0  0  0  0  0
  185.4390  176.1200  136.0020 C   0  0  0  0  0  3  0  0  0  0  0  0
  1 20  1  1  0  0  0
  1  8  1  0  0  0  0
  1  6  1  0  0  0  0
  2  5  1  0  0  0  0
  3  5  1  0  0  0  0
  6  7  1  0  0  0  0
  6  2  1  0  0  0  0
  7  4  1  1  0  0  0
  7  3  1  0  0  0  0
  9 10  1  0  0  0  0
  9  8  1  0  0  0  0
 10 11  1  0  0  0  0
 11 13  1  0  0  0  0
 13 12  2  0  0  0  0
 14 10  1  0  0  0  0
 15 14  1  0  0  0  0
 16 19  1  0  0  0  0
 17 19  2  0  0  0  0
 18 15  1  0  0  0  0
 19 18  1  0  0  0  0
 21 20  1  0  0  0  0
 22 21  1  0  0  0  0
 23 30  1  0  0  0  0
 24 25  1  0  0  0  0
 24 23  2  0  0  0  0
 25 31  2  0  0  0  0
 26 22  1  0  0  0  0
 27 29  1  0  0  0  0
 27 24  1  0  0  0  0
 28 26  2  0  0  0  0
 29 32  1  1  0  0  0
 29 25  1  0  0  0  0
 30 26  1  0  0  0  0
 31 28  1  0  0  0  0
 34 33  2  0  0  0  0
 34 32  1  0  0  0  0
M  END
>  <MODEL>
6

>  <REMARK>
 VINA RESULT:      -6.6      2.211      5.601
  Name = 
  15 active torsions:
  status: ('A' for Active; 'I' for Inactive)
    1  A    between atoms: C_7  and  C_13
    2  A    between atoms: C_7  and  N_33
    3  A    between atoms: C_9  and  C_20
    4  A    between atoms: C_9  and  C_22
    5  A    between atoms: C_10  and  C_24
    6  A    between atoms: C_15  and  C_28
    7  A    between atoms: C_15  and  N_30
    8  A    between atoms: C_16  and  C_18
    9  A    between atoms: C_16  and  C_24
   10  A    between atoms: N_17  and  C_20
   11  A    between atoms: C_18  and  C_20
   12  A    between atoms: C_21  and  C_25
   13  A    between atoms: C_21  and  C_27
   14  A    between atoms: C_22  and  N_33
   15  A    between atoms: C_28  and  N_33
                            x       y       z     vdW  Elec       q    Type
                         _______ _______ _______ _____ _____    ______ ____

>  <TORSDO>
F 15

$$$$
=
 OpenBabel11032421253D

 34 36  0  0  1  0  0  0  0  0999 V2000
  187.2050  178.0830  145.1460 C   0  0  2  0  0  3  0  0  0  0  0  0
  187.4600  178.2320  147.4200 O   0  0  0  0  0  0  0  0  0  0  0  0
  189.2790  176.7930  147.7190 C   0  0  0  0  0  2  0  0  0  0  0  0
  190.3680  177.6390  145.8050 O   0  0  0  0  0  1  0  0  0  0  0  0
  188.3590  177.7670  148.3910 C   0  0  0  0  0  2  0  0  0  0  0  0
  188.1620  178.2610  146.2490 N   0  0  0  0  0  0  0  0  0  0  0  0
  189.1420  177.1760  146.2820 C   0  0  2  0  0  3  0  0  0  0  0  0
  185.7460  178.2470  145.5790 C   0  0  0  0  0  2  0  0  0  0  0  0
  185.0470  179.2300  144.6610 C   0  0  0  0  0  2  0  0  0  0  0  0
  183.8580  178.6110  144.0930 N   0  0  0  0  0  0  0  0  0  0  0  0
  184.1890  178.1460  142.7530 C   0  0  0  0  0  2  0  0  0  0  0  0
  185.3010  179.0110  140.7580 C   0  0  0  0  0  2  0  0  0  0  0  0
  184.9190  179.2150  142.0140 C   0  0  0  0  0  3  0  0  0  0  0  0
  182.7550  179.5820  144.0420 C   0  0  0  0  0  2  0  0  0  0  0  0
  181.4160  178.9890  143.5900 C   0  0  0  0  0  2  0  0  0  0  0  0
  180.2170  180.2390  140.1980 N   0  0  0  0  0  1  0  0  0  0  0  0
  181.2980  178.2890  140.8380 O   0  0  0  0  0  0  0  0  0  0  0  0
  180.8300  179.8120  142.5450 N   0  0  0  0  0  2  0  0  0  0  0  0
  180.8060  179.3960  141.1800 C   0  0  0  0  0  0  0  0  0  0  0  0
  187.4360  176.7530  144.4310 C   0  0  0  0  0  2  0  0  0  0  0  0
  187.5200  176.9580  142.9270 C   0  0  0  0  0  2  0  0  0  0  0  0
  188.6570  177.9080  142.5890 C   0  0  0  0  0  2  0  0  0  0  0  0
  189.0150  178.2670  138.7300 C   0  0  0  0  0  3  0  0  0  0  0  0
  189.9190  177.4440  138.2540 C   0  0  0  0  0  0  0  0  0  0  0  0
  190.7750  176.4520  138.9310 C   0  0  0  0  0  0  0  0  0  0  0  0
  189.2300  177.5680  141.2600 C   0  0  0  0  0  0  0  0  0  0  0  0
  190.4930  177.1280  136.9490 N   0  0  0  0  0  2  0  0  0  0  0  0
  190.1860  176.6120  141.2550 C   0  0  0  0  0  3  0  0  0  0  0  0
  191.2900  176.1600  137.6270 C   0  0  1  0  0  3  0  0  0  0  0  0
  188.7100  178.3080  140.1290 N   0  0  0  0  0  2  0  0  0  0  0  0
  190.9260  176.0690  140.1490 N   0  0  0  0  0  0  0  0  0  0  0  0
  192.7640  176.5350  137.5420 C   0  0  0  0  0  2  0  0  0  0  0  0
  193.1910  174.1460  137.2600 C   0  0  0  0  0  2  0  0  0  0  0  0
  193.5530  175.3950  136.9920 C   0  0  0  0  0  3  0  0  0  0  0  0
  1 20  1  1  0  0  0
  1  8  1  0  0  0  0
  1  6  1  0  0  0  0
  2  5  1  0  0  0  0
  3  5  1  0  0  0  0
  6  7  1  0  0  0  0
  6  2  1  0  0  0  0
  7  4  1  1  0  0  0
  7  3  1  0  0  0  0
  9  8  1  0  0  0  0
 10  9  1  0  0  0  0
 11 10  1  0  0  0  0
 12 13  2  0  0  0  0
 13 11  1  0  0  0  0
 14 10  1  0  0  0  0
 15 14  1  0  0  0  0
 16 19  1  0  0  0  0
 17 19  2  0  0  0  0
 18 15  1  0  0  0  0
 19 18  1  0  0  0  0
 21 20  1  0  0  0  0
 22 21  1  0  0  0  0
 23 30  1  0  0  0  0
 24 23  2  0  0  0  0
 24 25  1  0  0  0  0
 25 31  2  0  0  0  0
 26 22  1  0  0  0  0
 27 29  1  0  0  0  0
 27 24  1  0  0  0  0
 28 26  2  0  0  0  0
 29 32  1  1  0  0  0
 29 25  1  0  0  0  0
 30 26  1  0  0  0  0
 31 28  1  0  0  0  0
 34 33  2  0  0  0  0
 34 32  1  0  0  0  0
M  END
>  <MODEL>
7

>  <REMARK>
 VINA RESULT:      -6.6      2.706      6.754
  Name = 
  15 active torsions:
  status: ('A' for Active; 'I' for Inactive)
    1  A    between atoms: C_7  and  C_13
    2  A    between atoms: C_7  and  N_33
    3  A    between atoms: C_9  and  C_20
    4  A    between atoms: C_9  and  C_22
    5  A    between atoms: C_10  and  C_24
    6  A    between atoms: C_15  and  C_28
    7  A    between atoms: C_15  and  N_30
    8  A    between atoms: C_16  and  C_18
    9  A    between atoms: C_16  and  C_24
   10  A    between atoms: N_17  and  C_20
   11  A    between atoms: C_18  and  C_20
   12  A    between atoms: C_21  and  C_25
   13  A    between atoms: C_21  and  C_27
   14  A    between atoms: C_22  and  N_33
   15  A    between atoms: C_28  and  N_33
                            x       y       z     vdW  Elec       q    Type
                         _______ _______ _______ _____ _____    ______ ____

>  <TORSDO>
F 15

$$$$
=
 OpenBabel11032421253D

 34 36  0  0  1  0  0  0  0  0999 V2000
  186.6140  178.3530  138.5940 C   0  0  2  0  0  3  0  0  0  0  0  0
  186.0580  176.7050  137.0980 O   0  0  0  0  0  0  0  0  0  0  0  0
  186.9300  177.6300  135.1340 C   0  0  0  0  0  2  0  0  0  0  0  0
  188.8780  178.3600  136.2460 O   0  0  0  0  0  1  0  0  0  0  0  0
  186.2830  176.4210  135.7430 C   0  0  0  0  0  2  0  0  0  0  0  0
  187.0900  177.5110  137.4850 N   0  0  0  0  0  0  0  0  0  0  0  0
  187.4860  178.3220  136.3340 C   0  0  2  0  0  3  0  0  0  0  0  0
  187.2930  178.0350  139.9280 C   0  0  0  0  0  2  0  0  0  0  0  0
  188.7970  178.1520  139.7770 C   0  0  0  0  0  2  0  0  0  0  0  0
  189.4560  177.3740  140.8180 N   0  0  0  0  0  0  0  0  0  0  0  0
  189.4200  178.1500  142.0500 C   0  0  0  0  0  2  0  0  0  0  0  0
  188.6990  176.1140  143.1910 C   0  0  0  0  0  2  0  0  0  0  0  0
  189.4180  177.2310  143.2240 C   0  0  0  0  0  3  0  0  0  0  0  0
  190.8460  177.0860  140.4320 C   0  0  0  0  0  2  0  0  0  0  0  0
  191.0030  176.5520  139.0050 C   0  0  0  0  0  2  0  0  0  0  0  0
  194.1620  176.4820  136.8780 N   0  0  0  0  0  1  0  0  0  0  0  0
  191.9540  175.9590  136.3930 O   0  0  0  0  0  0  0  0  0  0  0  0
  192.3880  176.6670  138.5760 N   0  0  0  0  0  2  0  0  0  0  0  0
  192.7940  176.3510  137.2450 C   0  0  0  0  0  0  0  0  0  0  0  0
  185.0920  178.2970  138.7070 C   0  0  0  0  0  2  0  0  0  0  0  0
  184.5950  179.2680  139.7660 C   0  0  0  0  0  2  0  0  0  0  0  0
  183.5850  178.5840  140.6740 C   0  0  0  0  0  2  0  0  0  0  0  0
  183.0790  178.9650  144.5140 C   0  0  0  0  0  3  0  0  0  0  0  0
  184.2170  178.8580  145.1600 C   0  0  2  0  0  3  0  0  0  0  0  0
  185.5880  178.6280  144.6710 C   0  0  0  0  0  0  0  0  0  0  0  0
  184.0470  178.6410  142.0860 C   0  0  0  0  0  0  0  0  0  0  0  0
  184.6610  178.8950  146.5510 N   0  0  0  0  0  2  0  0  0  0  0  0
  185.3730  178.4650  142.2830 C   0  0  0  0  0  3  0  0  0  0  0  0
  185.9790  178.6960  146.0470 C   0  0  1  0  0  3  0  0  0  0  0  0
  183.0240  178.8620  143.0860 N   0  0  0  0  0  0  0  0  0  0  0  0
  186.1190  178.4620  143.5120 N   0  0  0  0  0  0  0  0  0  0  0  0
  186.5260  177.3510  146.5100 C   0  0  0  0  0  2  0  0  0  0  0  0
  188.0350  178.3280  148.1640 C   0  0  0  0  0  2  0  0  0  0  0  0
  187.8770  177.5270  147.1160 C   0  0  0  0  0  3  0  0  0  0  0  0
  1 20  1  1  0  0  0
  1  8  1  0  0  0  0
  2  6  1  0  0  0  0
  3  5  1  0  0  0  0
  3  7  1  0  0  0  0
  5  2  1  0  0  0  0
  6  1  1  0  0  0  0
  7  4  1  6  0  0  0
  7  6  1  0  0  0  0
  9  8  1  0  0  0  0
  9 10  1  0  0  0  0
 10 11  1  0  0  0  0
 11 13  1  0  0  0  0
 12 13  2  0  0  0  0
 14 10  1  0  0  0  0
 15 14  1  0  0  0  0
 16 19  1  0  0  0  0
 17 19  2  0  0  0  0
 18 15  1  0  0  0  0
 19 18  1  0  0  0  0
 20 21  1  0  0  0  0
 21 22  1  0  0  0  0
 22 26  1  0  0  0  0
 24 23  1  1  0  0  0
 24 27  1  0  0  0  0
 25 24  1  0  0  0  0
 25 29  1  0  0  0  0
 26 28  2  0  0  0  0
 26 30  1  0  0  0  0
 28 31  1  0  0  0  0
 29 32  1  1  0  0  0
 29 27  1  0  0  0  0
 30 23  2  0  0  0  0
 31 25  2  0  0  0  0
 32 34  1  0  0  0  0
 34 33  2  0  0  0  0
M  END
>  <MODEL>
8

>  <REMARK>
 VINA RESULT:      -6.5      3.235      7.045
  Name = 
  15 active torsions:
  status: ('A' for Active; 'I' for Inactive)
    1  A    between atoms: C_7  and  C_13
    2  A    between atoms: C_7  and  N_33
    3  A    between atoms: C_9  and  C_20
    4  A    between atoms: C_9  and  C_22
    5  A    between atoms: C_10  and  C_24
    6  A    between atoms: C_15  and  C_28
    7  A    between atoms: C_15  and  N_30
    8  A    between atoms: C_16  and  C_18
    9  A    between atoms: C_16  and  C_24
   10  A    between atoms: N_17  and  C_20
   11  A    between atoms: C_18  and  C_20
   12  A    between atoms: C_21  and  C_25
   13  A    between atoms: C_21  and  C_27
   14  A    between atoms: C_22  and  N_33
   15  A    between atoms: C_28  and  N_33
                            x       y       z     vdW  Elec       q    Type
                         _______ _______ _______ _____ _____    ______ ____

>  <TORSDO>
F 15

$$$$
=
 OpenBabel11032421253D

 34 36  0  0  1  0  0  0  0  0999 V2000
  186.2580  177.4520  144.1030 C   0  0  2  0  0  3  0  0  0  0  0  0
  187.2950  177.3480  146.1460 O   0  0  0  0  0  0  0  0  0  0  0  0
  186.2930  179.1780  147.2030 C   0  0  0  0  0  2  0  0  0  0  0  0
  184.1750  178.6340  146.3170 O   0  0  0  0  0  1  0  0  0  0  0  0
  187.2110  178.0060  147.3820 C   0  0  0  0  0  2  0  0  0  0  0  0
  186.0700  177.4980  145.5610 N   0  0  0  0  0  0  0  0  0  0  0  0
  185.5220  178.7860  145.9860 C   0  0  2  0  0  3  0  0  0  0  0  0
  187.5760  176.7970  143.6840 C   0  0  0  0  0  2  0  0  0  0  0  0
  188.5460  177.8610  143.2070 C   0  0  0  0  0  2  0  0  0  0  0  0
  189.9040  177.3340  143.2340 N   0  0  0  0  0  0  0  0  0  0  0  0
  190.6480  178.0590  144.2540 C   0  0  0  0  0  2  0  0  0  0  0  0
  191.6790  176.5140  145.8410 C   0  0  0  0  0  2  0  0  0  0  0  0
  190.6430  177.2850  145.5280 C   0  0  0  0  0  3  0  0  0  0  0  0
  190.5390  177.5000  141.9180 C   0  0  0  0  0  2  0  0  0  0  0  0
  189.7220  176.9350  140.7520 C   0  0  0  0  0  2  0  0  0  0  0  0
  189.0540  179.3880  137.9150 N   0  0  0  0  0  1  0  0  0  0  0  0
  187.7170  178.6200  139.6500 O   0  0  0  0  0  0  0  0  0  0  0  0
  189.8900  177.7670  139.5710 N   0  0  0  0  0  2  0  0  0  0  0  0
  188.8360  178.5910  139.0730 C   0  0  0  0  0  0  0  0  0  0  0  0
  186.0960  178.8400  143.4870 C   0  0  0  0  0  2  0  0  0  0  0  0
  185.3760  178.7550  142.1500 C   0  0  0  0  0  2  0  0  0  0  0  0
  183.9970  178.1440  142.3340 C   0  0  0  0  0  2  0  0  0  0  0  0
  180.5020  179.5050  141.2920 C   0  0  0  0  0  3  0  0  0  0  0  0
  180.5200  179.9880  140.0720 C   0  0  0  0  0  0  0  0  0  0  0  0
  181.6130  180.0850  139.0870 C   0  0  0  0  0  0  0  0  0  0  0  0
  183.0290  178.7730  141.3960 C   0  0  0  0  0  0  0  0  0  0  0  0
  179.5710  180.6230  139.1620 N   0  0  0  0  0  2  0  0  0  0  0  0
  183.5230  179.1290  140.1870 C   0  0  0  0  0  3  0  0  0  0  0  0
  180.6400  180.6810  138.2210 C   0  0  1  0  0  3  0  0  0  0  0  0
  181.6790  178.9450  141.8870 N   0  0  0  0  0  2  0  0  0  0  0  0
  182.8540  179.7510  139.0780 N   0  0  0  0  0  0  0  0  0  0  0  0
  181.0090  182.1300  137.9270 C   0  0  0  0  0  2  0  0  0  0  0  0
  180.4360  181.6420  135.6030 C   0  0  0  0  0  2  0  0  0  0  0  0
  180.4880  182.5310  136.5890 C   0  0  0  0  0  3  0  0  0  0  0  0
  1 20  1  1  0  0  0
  1  6  1  0  0  0  0
  2  5  1  0  0  0  0
  3  5  1  0  0  0  0
  6  7  1  0  0  0  0
  6  2  1  0  0  0  0
  7  4  1  1  0  0  0
  7  3  1  0  0  0  0
  8  1  1  0  0  0  0
  9 10  1  0  0  0  0
  9  8  1  0  0  0  0
 10 11  1  0  0  0  0
 11 13  1  0  0  0  0
 13 12  2  0  0  0  0
 14 10  1  0  0  0  0
 15 14  1  0  0  0  0
 16 19  1  0  0  0  0
 18 15  1  0  0  0  0
 19 18  1  0  0  0  0
 19 17  2  0  0  0  0
 21 22  1  0  0  0  0
 21 20  1  0  0  0  0
 23 30  1  0  0  0  0
 24 23  2  0  0  0  0
 25 24  1  0  0  0  0
 26 30  1  0  0  0  0
 26 22  1  0  0  0  0
 27 24  1  0  0  0  0
 28 26  2  0  0  0  0
 29 32  1  1  0  0  0
 29 25  1  0  0  0  0
 29 27  1  0  0  0  0
 31 25  2  0  0  0  0
 31 28  1  0  0  0  0
 33 34  2  0  0  0  0
 34 32  1  0  0  0  0
M  END
>  <MODEL>
9

>  <REMARK>
 VINA RESULT:      -6.5      2.274      2.910
  Name = 
  15 active torsions:
  status: ('A' for Active; 'I' for Inactive)
    1  A    between atoms: C_7  and  C_13
    2  A    between atoms: C_7  and  N_33
    3  A    between atoms: C_9  and  C_20
    4  A    between atoms: C_9  and  C_22
    5  A    between atoms: C_10  and  C_24
    6  A    between atoms: C_15  and  C_28
    7  A    between atoms: C_15  and  N_30
    8  A    between atoms: C_16  and  C_18
    9  A    between atoms: C_16  and  C_24
   10  A    between atoms: N_17  and  C_20
   11  A    between atoms: C_18  and  C_20
   12  A    between atoms: C_21  and  C_25
   13  A    between atoms: C_21  and  C_27
   14  A    between atoms: C_22  and  N_33
   15  A    between atoms: C_28  and  N_33
                            x       y       z     vdW  Elec       q    Type
                         _______ _______ _______ _____ _____    ______ ____

>  <TORSDO>
F 15

$$$$
