=
 OpenBabel11032421243D

 64 69  0  0  1  0  0  0  0  0999 V2000
  182.0480  178.5870  137.9710 C   0  0  1  0  0  3  0  0  0  0  0  0
  180.2130  179.9580  138.6760 N   0  0  0  0  0  0  0  0  0  0  0  0
  180.6360  180.4210  137.3470 C   0  0  1  0  0  3  0  0  0  0  0  0
  181.5020  181.6810  137.3920 C   0  0  0  0  0  1  0  0  0  0  0  0
  181.4600  179.2920  136.7640 C   0  0  0  0  0  2  0  0  0  0  0  0
  181.2920  179.1020  139.1890 C   0  0  2  0  0  3  0  0  0  0  0  0
  179.8350  181.0410  139.5850 C   0  0  0  0  0  1  0  0  0  0  0  0
  182.6390  176.4710  136.8830 N   0  0  0  0  0  0  0  0  0  0  0  0
  182.0100  177.0830  137.8510 C   0  0  0  0  0  0  0  0  0  0  0  0
  181.0660  174.9020  140.8100 C   0  0  0  0  0  3  0  0  0  0  0  0
  179.8470  175.9810  138.5440 C   0  0  0  0  0  3  0  0  0  0  0  0
  178.9360  173.7870  141.4830 C   0  0  0  0  0  1  0  0  0  0  0  0
  179.1080  175.1840  139.4220 C   0  0  0  0  0  3  0  0  0  0  0  0
  181.2030  176.2510  138.7860 C   0  0  0  0  0  0  0  0  0  0  0  0
  181.8030  175.7000  139.9310 C   0  0  0  0  0  3  0  0  0  0  0  0
  179.7180  174.6440  140.5550 C   0  0  0  0  0  0  0  0  0  0  0  0
  183.4860  176.9990  135.8450 C   0  0  0  0  0  0  0  0  0  0  0  0
  182.9620  178.1230  134.7710 S   0  0  0  0  0  0  0  0  0  0  0  0
  184.8890  176.7400  135.8990 N   0  0  0  0  0  2  0  0  0  0  0  0
  185.8530  177.5050  135.1250 C   0  0  1  0  0  3  0  0  0  0  0  0
  186.4690  178.5660  135.9830 C   0  0  0  0  0  3  0  0  0  0  0  0
  187.4080  178.2660  136.8740 C   0  0  0  0  0  2  0  0  0  0  0  0
  186.9240  176.5690  134.5950 C   0  0  0  0  0  2  0  0  0  0  0  0
  186.4900  175.1910  134.7500 N   0  0  0  0  0  2  0  0  0  0  0  0
  187.1230  174.6590  135.9500 C   0  0  2  0  0  3  0  0  0  0  0  0
  188.6020  174.5630  135.7600 C   0  0  0  0  0  0  0  0  0  0  0  0
  189.4650  174.7140  136.8410 O   0  0  0  0  0  1  0  0  0  0  0  0
  189.0730  174.3560  134.6110 O   0  0  0  0  0  0  0  0  0  0  0  0
  186.5150  173.3200  136.3770 C   0  0  0  0  0  2  0  0  0  0  0  0
  184.0870  173.5260  137.6090 S   0  0  0  0  0  1  0  0  0  0  0  0
  185.0210  173.2060  136.0780 C   0  0  2  0  0  3  0  0  0  0  0  0
  185.6720  171.3910  134.6420 O   0  0  0  0  0  1  0  0  0  0  0  0
  183.3470  171.8030  134.8490 C   0  0  0  0  0  1  0  0  0  0  0  0
  184.6960  171.8100  135.5490 C   0  0  2  0  0  3  0  0  0  0  0  0
  182.1770  179.8180  140.0050 O   0  0  0  0  0  0  0  0  0  0  0  0
  182.7710  178.8540  140.8250 C   0  0  0  0  0  2  0  0  0  0  0  0
  181.9470  178.6790  142.0830 C   0  0  2  0  0  3  0  0  0  0  0  0
  180.5020  179.0300  141.7900 C   0  0  0  0  0  1  0  0  0  0  0  0
  182.4840  179.5920  143.1710 C   0  0  0  0  0  2  0  0  0  0  0  0
  188.5690  177.4480  144.7710 C   0  0  1  0  0  3  0  0  0  0  0  0
  187.3300  178.1610  145.0800 N   0  0  0  0  0  2  0  0  0  0  0  0
  186.8520  177.7240  142.1580 N   0  0  0  0  0  0  0  0  0  0  0  0
  189.0200  177.7650  143.3480 C   0  0  0  0  0  2  0  0  0  0  0  0
  183.7760  179.0700  143.6920 C   0  0  0  0  0  0  0  0  0  0  0  0
  188.1390  177.0430  142.3300 C   0  0  2  0  0  3  0  0  0  0  0  0
  186.2270  177.4130  144.4930 C   0  0  0  0  0  2  0  0  0  0  0  0
  183.9930  179.0710  144.9330 O   0  0  0  0  0  0  0  0  0  0  0  0
  184.7520  178.5800  142.7660 N   0  0  0  0  0  2  0  0  0  0  0  0
  185.9700  177.9020  143.0970 C   0  0  0  0  0  0  0  0  0  0  0  0
  189.6900  177.7940  145.7620 C   0  0  1  0  0  0  0  0  0  0  0  0
  191.1840  175.2900  147.7350 C   0  0  0  0  0  1  0  0  0  0  0  0
  191.1200  177.8510  145.2820 C   0  0  0  0  0  2  0  0  0  0  0  0
  189.3640  178.4190  147.1030 C   0  0  0  0  0  2  0  0  0  0  0  0
  191.8680  176.8810  146.1690 C   0  0  0  0  0  2  0  0  0  0  0  0
  191.0780  176.6940  147.3790 N   0  0  0  0  0  0  0  0  0  0  0  0
  189.6890  176.9310  147.0060 C   0  0  2  0  0  3  0  0  0  0  0  0
  192.6570  177.5980  140.7320 Cl  0  0  0  0  0  0  0  0  0  0  0  0
  191.0690  177.1320  140.0820 C   0  0  2  0  0  3  0  0  0  0  0  0
  189.0240  178.2750  140.3300 C   0  0  0  0  0  2  0  0  0  0  0  0
  190.3320  178.3270  139.6770 N   0  0  0  0  0  0  0  0  0  0  0  0
  188.8740  176.9230  140.9950 C   0  0  1  0  0  3  0  0  0  0  0  0
  190.2810  176.4050  141.1470 C   0  0  0  0  0  2  0  0  0  0  0  0
  190.9480  177.0920  137.6760 C   0  0  0  0  0  1  0  0  0  0  0  0
  190.1040  178.2150  138.2450 C   0  0  0  0  0  2  0  0  0  0  0  0
  1  9  1  6  0  0  0
  1  6  1  0  0  0  0
  2  6  1  0  0  0  0
  2  7  1  0  0  0  0
  3  4  1  1  0  0  0
  3  2  1  0  0  0  0
  5  3  1  0  0  0  0
  5  1  1  0  0  0  0
  6 35  1  1  0  0  0
  8  9  2  0  0  0  0
  9 14  1  0  0  0  0
 11 14  2  0  0  0  0
 11 13  1  0  0  0  0
 13 16  2  0  0  0  0
 14 15  1  0  0  0  0
 15 10  2  0  0  0  0
 16 10  1  0  0  0  0
 16 12  1  0  0  0  0
 17 19  1  0  0  0  0
 17  8  1  0  0  0  0
 18 17  2  0  0  0  0
 20 23  1  1  0  0  0
 20 19  1  0  0  0  0
 20 21  1  0  0  0  0
 21 22  2  0  0  0  0
 23 24  1  0  0  0  0
 24 25  1  0  0  0  0
 25 29  1  6  0  0  0
 26 25  1  0  0  0  0
 26 27  1  0  0  0  0
 28 26  2  0  0  0  0
 31 29  1  0  0  0  0
 31 30  1  1  0  0  0
 32 34  1  0  0  0  0
 34 33  1  6  0  0  0
 34 31  1  0  0  0  0
 35 36  1  0  0  0  0
 36 37  1  0  0  0  0
 37 38  1  6  0  0  0
 37 39  1  0  0  0  0
 39 44  1  0  0  0  0
 40 43  1  6  0  0  0
 40 41  1  0  0  0  0
 40 50  1  0  0  0  0
 42 45  1  0  0  0  0
 42 49  2  0  0  0  0
 44 47  2  0  0  0  0
 45 43  1  1  0  0  0
 46 41  1  0  0  0  0
 48 49  1  0  0  0  0
 48 44  1  0  0  0  0
 49 46  1  0  0  0  0
 50 52  1  6  0  0  0
 50 56  1  0  0  0  0
 50 53  1  0  0  0  0
 52 54  1  0  0  0  0
 54 55  1  0  0  0  0
 55 51  1  0  0  0  0
 56 53  1  1  0  0  0
 56 55  1  0  0  0  0
 58 57  1  1  0  0  0
 58 62  1  0  0  0  0
 60 58  1  0  0  0  0
 60 59  1  0  0  0  0
 61 59  1  1  0  0  0
 61 62  1  0  0  0  0
 61 45  1  0  0  0  0
 63 64  1  0  0  0  0
 64 60  1  0  0  0  0
M  END
>  <MODEL>
1

>  <REMARK>
 VINA RESULT:      -4.7      0.000      0.000
  Name = 
  21 active torsions:
  status: ('A' for Active; 'I' for Inactive)
    1  A    between atoms: C_1  and  C_6
    2  A    between atoms: C_2  and  C_29
    3  A    between atoms: C_2  and  C_38
    4  A    between atoms: C_13  and  C_60
    5  A    between atoms: C_14  and  N_17
    6  A    between atoms: C_14  and  N_39
    7  A    between atoms: C_18  and  CA_54
    8  A    between atoms: C_19  and  C_27
    9  A    between atoms: C_19  and  C_31
   10  A    between atoms: C_19  and  N_39
   11  A    between atoms: N_24  and  C_27
   12  A    between atoms: N_24  and  CA_54
   13  A    between atoms: C_26  and  C_38
   14  A    between atoms: C_26  and  O_40
   15  A    between atoms: C_30  and  C_60
   16  A    between atoms: C_33  and  C_48
   17  A    between atoms: O_40  and  C_61
   18  A    between atoms: N_45  and  C_46
   19  A    between atoms: C_49  and  C_58
   20  A    between atoms: C_50  and  CA_54
   21  A    between atoms: C_50  and  C_58
                            x       y       z     vdW  Elec       q    Type
                         _______ _______ _______ _____ _____    ______ ____

>  <TORSDO>
F 21

$$$$
=
 OpenBabel11032421243D

 64 69  0  0  1  0  0  0  0  0999 V2000
  185.9060  176.1090  136.9260 C   0  0  1  0  0  3  0  0  0  0  0  0
  186.3690  177.5820  135.0920 N   0  0  0  0  0  0  0  0  0  0  0  0
  187.6090  177.4190  135.8620 C   0  0  1  0  0  3  0  0  0  0  0  0
  187.9050  178.5990  136.7910 C   0  0  0  0  0  1  0  0  0  0  0  0
  187.4050  176.1800  136.7080 C   0  0  0  0  0  2  0  0  0  0  0  0
  185.2760  177.0850  135.9400 C   0  0  2  0  0  3  0  0  0  0  0  0
  186.1580  178.9430  134.5940 C   0  0  0  0  0  1  0  0  0  0  0  0
  184.1210  174.4410  137.1210 N   0  0  0  0  0  0  0  0  0  0  0  0
  185.3570  174.7090  136.7950 C   0  0  0  0  0  0  0  0  0  0  0  0
  188.1730  172.1660  136.7240 C   0  0  0  0  0  3  0  0  0  0  0  0
  185.9560  172.8640  135.1800 C   0  0  0  0  0  3  0  0  0  0  0  0
  188.7850  170.3580  135.1130 C   0  0  0  0  0  1  0  0  0  0  0  0
  186.7860  171.8150  134.7760 C   0  0  0  0  0  3  0  0  0  0  0  0
  186.2200  173.5760  136.3600 C   0  0  0  0  0  0  0  0  0  0  0  0
  187.3410  173.2140  137.1260 C   0  0  0  0  0  3  0  0  0  0  0  0
  187.8950  171.4670  135.5480 C   0  0  0  0  0  0  0  0  0  0  0  0
  183.0670  175.3140  137.5680 C   0  0  0  0  0  0  0  0  0  0  0  0
  182.8570  175.6990  139.1490 S   0  0  0  0  0  0  0  0  0  0  0  0
  182.3410  176.0740  136.6010 N   0  0  0  0  0  2  0  0  0  0  0  0
  181.0070  175.7040  136.1600 C   0  0  1  0  0  3  0  0  0  0  0  0
  180.4170  174.7030  137.1050 C   0  0  0  0  0  3  0  0  0  0  0  0
  180.1750  173.4550  136.7180 C   0  0  0  0  0  2  0  0  0  0  0  0
  180.1370  176.9460  136.1000 C   0  0  0  0  0  2  0  0  0  0  0  0
  179.3140  177.0260  137.2950 N   0  0  0  0  0  2  0  0  0  0  0  0
  178.9310  178.4200  137.4770 C   0  0  2  0  0  3  0  0  0  0  0  0
  179.8020  179.3110  136.6510 C   0  0  0  0  0  0  0  0  0  0  0  0
  180.1730  180.5680  137.1200 O   0  0  0  0  0  1  0  0  0  0  0  0
  180.1930  178.9280  135.5180 O   0  0  0  0  0  0  0  0  0  0  0  0
  178.9310  178.8300  138.9520 C   0  0  0  0  0  2  0  0  0  0  0  0
  179.4040  177.1320  141.0380 S   0  0  0  0  0  1  0  0  0  0  0  0
  180.0850  178.2280  139.7510 C   0  0  2  0  0  3  0  0  0  0  0  0
  181.5800  178.8560  141.5260 O   0  0  0  0  0  1  0  0  0  0  0  0
  180.0290  180.4990  140.8100 C   0  0  0  0  0  1  0  0  0  0  0  0
  180.9150  179.3360  140.3950 C   0  0  2  0  0  3  0  0  0  0  0  0
  184.6630  178.1230  136.6560 O   0  0  0  0  0  0  0  0  0  0  0  0
  185.1950  178.0330  137.9450 C   0  0  0  0  0  2  0  0  0  0  0  0
  184.1900  178.5600  138.9480 C   0  0  2  0  0  3  0  0  0  0  0  0
  183.0550  179.2420  138.2100 C   0  0  0  0  0  1  0  0  0  0  0  0
  184.8700  179.5560  139.8690 C   0  0  0  0  0  2  0  0  0  0  0  0
  190.4400  176.9470  142.3890 C   0  0  1  0  0  3  0  0  0  0  0  0
  189.1770  177.6700  142.5290 N   0  0  0  0  0  2  0  0  0  0  0  0
  189.3200  177.6370  139.5400 N   0  0  0  0  0  0  0  0  0  0  0  0
  191.1880  177.4250  141.1470 C   0  0  0  0  0  2  0  0  0  0  0  0
  186.0130  178.9130  140.5710 C   0  0  0  0  0  0  0  0  0  0  0  0
  190.5290  176.8810  139.8810 C   0  0  2  0  0  3  0  0  0  0  0  0
  188.2100  177.0560  141.6300 C   0  0  0  0  0  2  0  0  0  0  0  0
  185.9630  178.7430  141.8180 O   0  0  0  0  0  0  0  0  0  0  0  0
  187.1550  178.5020  139.8100 N   0  0  0  0  0  2  0  0  0  0  0  0
  188.2630  177.7320  140.2910 C   0  0  0  0  0  0  0  0  0  0  0  0
  191.3320  177.1100  143.6280 C   0  0  1  0  0  0  0  0  0  0  0  0
  189.9140  177.5300  146.8240 C   0  0  0  0  0  1  0  0  0  0  0  0
  191.8470  175.8860  144.3460 C   0  0  0  0  0  2  0  0  0  0  0  0
  191.9890  178.4410  143.9320 C   0  0  0  0  0  2  0  0  0  0  0  0
  191.3800  176.0460  145.7760 C   0  0  0  0  0  2  0  0  0  0  0  0
  191.1010  177.4600  145.9910 N   0  0  0  0  0  0  0  0  0  0  0  0
  190.7370  178.0110  144.6900 C   0  0  2  0  0  3  0  0  0  0  0  0
  190.8760  174.9110  135.4900 Cl  0  0  0  0  0  0  0  0  0  0  0  0
  191.8070  176.0200  136.5230 C   0  0  2  0  0  3  0  0  0  0  0  0
  192.4430  175.6970  138.7680 C   0  0  0  0  0  2  0  0  0  0  0  0
  192.6910  175.2530  137.3970 N   0  0  0  0  0  0  0  0  0  0  0  0
  191.5280  176.9020  138.7230 C   0  0  1  0  0  3  0  0  0  0  0  0
  190.8590  176.8330  137.3740 C   0  0  0  0  0  2  0  0  0  0  0  0
  194.5720  174.7590  135.9370 C   0  0  0  0  0  1  0  0  0  0  0  0
  194.0530  175.6380  137.0580 C   0  0  0  0  0  2  0  0  0  0  0  0
  1  9  1  6  0  0  0
  2  3  1  0  0  0  0
  2  6  1  0  0  0  0
  3  5  1  0  0  0  0
  3  4  1  1  0  0  0
  5  1  1  0  0  0  0
  6 35  1  1  0  0  0
  6  1  1  0  0  0  0
  7  2  1  0  0  0  0
  8 17  1  0  0  0  0
  9  8  2  0  0  0  0
 10 15  1  0  0  0  0
 11 14  1  0  0  0  0
 12 16  1  0  0  0  0
 13 11  2  0  0  0  0
 13 16  1  0  0  0  0
 14  9  1  0  0  0  0
 14 15  2  0  0  0  0
 16 10  2  0  0  0  0
 17 18  2  0  0  0  0
 19 17  1  0  0  0  0
 20 23  1  1  0  0  0
 20 19  1  0  0  0  0
 20 21  1  0  0  0  0
 22 21  2  0  0  0  0
 23 24  1  0  0  0  0
 24 25  1  0  0  0  0
 25 29  1  1  0  0  0
 26 27  1  0  0  0  0
 26 25  1  0  0  0  0
 28 26  2  0  0  0  0
 29 31  1  0  0  0  0
 31 34  1  0  0  0  0
 31 30  1  1  0  0  0
 34 33  1  1  0  0  0
 34 32  1  0  0  0  0
 35 36  1  0  0  0  0
 36 37  1  0  0  0  0
 37 38  1  6  0  0  0
 37 39  1  0  0  0  0
 39 44  1  0  0  0  0
 40 43  1  6  0  0  0
 40 41  1  0  0  0  0
 40 50  1  0  0  0  0
 42 45  1  0  0  0  0
 42 49  2  0  0  0  0
 44 47  2  0  0  0  0
 45 43  1  1  0  0  0
 46 41  1  0  0  0  0
 48 49  1  0  0  0  0
 48 44  1  0  0  0  0
 49 46  1  0  0  0  0
 50 53  1  6  0  0  0
 50 52  1  0  0  0  0
 50 56  1  0  0  0  0
 52 54  1  0  0  0  0
 54 55  1  0  0  0  0
 55 51  1  0  0  0  0
 56 53  1  6  0  0  0
 56 55  1  0  0  0  0
 58 57  1  6  0  0  0
 58 62  1  0  0  0  0
 58 60  1  0  0  0  0
 60 59  1  0  0  0  0
 61 62  1  6  0  0  0
 61 59  1  0  0  0  0
 61 45  1  0  0  0  0
 63 64  1  0  0  0  0
 64 60  1  0  0  0  0
M  END
>  <MODEL>
2

>  <REMARK>
 VINA RESULT:      -4.4      2.718      6.362
  Name = 
  21 active torsions:
  status: ('A' for Active; 'I' for Inactive)
    1  A    between atoms: C_1  and  C_6
    2  A    between atoms: C_2  and  C_29
    3  A    between atoms: C_2  and  C_38
    4  A    between atoms: C_13  and  C_60
    5  A    between atoms: C_14  and  N_17
    6  A    between atoms: C_14  and  N_39
    7  A    between atoms: C_18  and  CA_54
    8  A    between atoms: C_19  and  C_27
    9  A    between atoms: C_19  and  C_31
   10  A    between atoms: C_19  and  N_39
   11  A    between atoms: N_24  and  C_27
   12  A    between atoms: N_24  and  CA_54
   13  A    between atoms: C_26  and  C_38
   14  A    between atoms: C_26  and  O_40
   15  A    between atoms: C_30  and  C_60
   16  A    between atoms: C_33  and  C_48
   17  A    between atoms: O_40  and  C_61
   18  A    between atoms: N_45  and  C_46
   19  A    between atoms: C_49  and  C_58
   20  A    between atoms: C_50  and  CA_54
   21  A    between atoms: C_50  and  C_58
                            x       y       z     vdW  Elec       q    Type
                         _______ _______ _______ _____ _____    ______ ____

>  <TORSDO>
F 21

$$$$
=
 OpenBabel11032421243D

 64 69  0  0  1  0  0  0  0  0999 V2000
  189.6160  177.6940  142.8040 C   0  0  1  0  0  3  0  0  0  0  0  0
  188.4980  177.7890  140.6860 N   0  0  0  0  0  0  0  0  0  0  0  0
  188.7800  179.1680  141.1080 C   0  0  1  0  0  3  0  0  0  0  0  0
  187.5640  179.8810  141.7020 C   0  0  0  0  0  1  0  0  0  0  0  0
  189.8440  179.0570  142.1810 C   0  0  0  0  0  2  0  0  0  0  0  0
  188.6770  176.9380  141.8710 C   0  0  2  0  0  3  0  0  0  0  0  0
  187.1960  177.6270  140.0340 C   0  0  0  0  0  1  0  0  0  0  0  0
  191.6940  176.6050  142.0950 N   0  0  0  0  0  0  0  0  0  0  0  0
  190.9000  176.9460  143.0730 C   0  0  0  0  0  0  0  0  0  0  0  0
  191.2430  176.9100  146.8530 C   0  0  0  0  0  3  0  0  0  0  0  0
  192.0140  175.3440  144.6750 C   0  0  0  0  0  3  0  0  0  0  0  0
  192.3700  175.3440  148.4380 C   0  0  0  0  0  1  0  0  0  0  0  0
  192.3690  174.9610  145.9710 C   0  0  0  0  0  3  0  0  0  0  0  0
  191.2700  176.5120  144.4490 C   0  0  0  0  0  0  0  0  0  0  0  0
  190.8900  177.2910  145.5560 C   0  0  0  0  0  3  0  0  0  0  0  0
  191.9840  175.7450  147.0600 C   0  0  0  0  0  0  0  0  0  0  0  0
  191.6030  176.8790  140.6840 C   0  0  0  0  0  0  0  0  0  0  0  0
  192.7100  177.7960  139.8930 S   0  0  0  0  0  0  0  0  0  0  0  0
  190.6790  176.1300  139.8930 N   0  0  0  0  0  2  0  0  0  0  0  0
  190.8380  175.9620  138.4580 C   0  0  1  0  0  3  0  0  0  0  0  0
  190.2830  177.1530  137.7410 C   0  0  0  0  0  3  0  0  0  0  0  0
  189.2940  177.0240  136.8620 C   0  0  0  0  0  2  0  0  0  0  0  0
  192.3120  175.7940  138.1350 C   0  0  0  0  0  2  0  0  0  0  0  0
  192.4740  175.5250  136.7150 N   0  0  0  0  0  2  0  0  0  0  0  0
  193.2880  174.3230  136.5840 C   0  0  2  0  0  3  0  0  0  0  0  0
  192.4410  173.1630  136.1680 C   0  0  0  0  0  0  0  0  0  0  0  0
  193.0130  172.0620  135.5370 O   0  0  0  0  0  0  0  0  0  0  0  0
  191.2010  173.1880  136.3770 O   0  0  0  0  0  1  0  0  0  0  0  0
  194.0800  174.0210  137.8590 C   0  0  0  0  0  2  0  0  0  0  0  0
  196.0740  174.6640  136.1070 S   0  0  0  0  0  1  0  0  0  0  0  0
  195.5650  173.7640  137.6070 C   0  0  2  0  0  3  0  0  0  0  0  0
  195.3160  171.5550  138.5230 O   0  0  0  0  0  1  0  0  0  0  0  0
  197.3050  171.9850  137.3070 C   0  0  0  0  0  1  0  0  0  0  0  0
  195.8170  172.2680  137.4300 C   0  0  2  0  0  3  0  0  0  0  0  0
  187.4640  176.7100  142.5340 O   0  0  0  0  0  0  0  0  0  0  0  0
  187.6400  177.2600  143.8070 C   0  0  0  0  0  2  0  0  0  0  0  0
  186.5140  178.2270  144.1040 C   0  0  2  0  0  3  0  0  0  0  0  0
  186.5440  178.5970  145.5730 C   0  0  0  0  0  1  0  0  0  0  0  0
  185.1850  177.5750  143.7690 C   0  0  0  0  0  2  0  0  0  0  0  0
  182.0800  179.8830  138.3630 C   0  0  1  0  0  3  0  0  0  0  0  0
  182.4680  179.9850  139.7690 N   0  0  0  0  0  2  0  0  0  0  0  0
  183.3680  177.1720  139.2810 N   0  0  0  0  0  0  0  0  0  0  0  0
  181.6600  178.4530  138.0330 C   0  0  0  0  0  2  0  0  0  0  0  0
  184.5550  178.2550  142.6050 C   0  0  0  0  0  0  0  0  0  0  0  0
  182.8810  177.5390  137.9480 C   0  0  2  0  0  3  0  0  0  0  0  0
  183.8310  179.4860  139.8920 C   0  0  0  0  0  2  0  0  0  0  0  0
  184.2880  179.4850  142.6710 O   0  0  0  0  0  0  0  0  0  0  0  0
  184.2600  177.4930  141.4290 N   0  0  0  0  0  2  0  0  0  0  0  0
  183.8070  178.0110  140.1730 C   0  0  0  0  0  0  0  0  0  0  0  0
  180.9430  180.8530  138.0120 C   0  0  1  0  0  0  0  0  0  0  0  0
  181.6220  184.2250  137.2580 C   0  0  0  0  0  1  0  0  0  0  0  0
  180.4500  180.9450  136.5880 C   0  0  0  0  0  2  0  0  0  0  0  0
  180.0770  181.4480  139.1040 C   0  0  0  0  0  2  0  0  0  0  0  0
  180.5940  182.4040  136.2190 C   0  0  0  0  0  2  0  0  0  0  0  0
  180.6460  183.1680  137.4580 N   0  0  0  0  0  0  0  0  0  0  0  0
  181.1930  182.2740  138.4720 C   0  0  2  0  0  3  0  0  0  0  0  0
  180.0580  173.6580  138.4390 Cl  0  0  0  0  0  0  0  0  0  0  0  0
  181.1690  174.3450  137.2320 C   0  0  2  0  0  3  0  0  0  0  0  0
  183.3710  175.1060  137.5770 C   0  0  0  0  0  2  0  0  0  0  0  0
  182.5340  173.9080  137.5130 N   0  0  0  0  0  0  0  0  0  0  0  0
  182.5450  176.2920  137.1300 C   0  0  1  0  0  3  0  0  0  0  0  0
  181.1120  175.8540  137.2950 C   0  0  0  0  0  2  0  0  0  0  0  0
  182.8770  171.6530  136.6720 C   0  0  0  0  0  1  0  0  0  0  0  0
  182.9730  173.1340  136.3620 C   0  0  0  0  0  2  0  0  0  0  0  0
  1  9  1  6  0  0  0
  2  3  1  0  0  0  0
  2  6  1  0  0  0  0
  3  4  1  1  0  0  0
  3  5  1  0  0  0  0
  5  1  1  0  0  0  0
  6 35  1  1  0  0  0
  6  1  1  0  0  0  0
  7  2  1  0  0  0  0
  8  9  2  0  0  0  0
  9 14  1  0  0  0  0
 10 16  1  0  0  0  0
 11 13  1  0  0  0  0
 13 16  2  0  0  0  0
 14 11  2  0  0  0  0
 14 15  1  0  0  0  0
 15 10  2  0  0  0  0
 16 12  1  0  0  0  0
 17  8  1  0  0  0  0
 18 17  2  0  0  0  0
 19 17  1  0  0  0  0
 20 21  1  6  0  0  0
 20 19  1  0  0  0  0
 22 21  2  0  0  0  0
 23 20  1  0  0  0  0
 24 23  1  0  0  0  0
 25 24  1  0  0  0  0
 25 29  1  1  0  0  0
 26 28  1  0  0  0  0
 26 25  1  0  0  0  0
 27 26  2  0  0  0  0
 31 30  1  6  0  0  0
 31 29  1  0  0  0  0
 34 33  1  1  0  0  0
 34 31  1  0  0  0  0
 34 32  1  0  0  0  0
 35 36  1  0  0  0  0
 36 37  1  0  0  0  0
 37 38  1  1  0  0  0
 39 37  1  0  0  0  0
 40 43  1  1  0  0  0
 40 41  1  0  0  0  0
 41 46  1  0  0  0  0
 42 49  2  0  0  0  0
 44 47  2  0  0  0  0
 44 39  1  0  0  0  0
 45 43  1  1  0  0  0
 45 42  1  0  0  0  0
 46 49  1  0  0  0  0
 48 44  1  0  0  0  0
 49 48  1  0  0  0  0
 50 52  1  6  0  0  0
 50 40  1  0  0  0  0
 50 56  1  0  0  0  0
 50 53  1  0  0  0  0
 51 55  1  0  0  0  0
 54 52  1  0  0  0  0
 54 55  1  0  0  0  0
 55 56  1  0  0  0  0
 56 53  1  1  0  0  0
 58 62  1  0  0  0  0
 58 60  1  0  0  0  0
 58 57  1  1  0  0  0
 60 59  1  0  0  0  0
 61 62  1  1  0  0  0
 61 59  1  0  0  0  0
 61 45  1  0  0  0  0
 64 63  1  0  0  0  0
 64 60  1  0  0  0  0
M  END
>  <MODEL>
3

>  <REMARK>
 VINA RESULT:      -4.4      3.751      9.651
  Name = 
  21 active torsions:
  status: ('A' for Active; 'I' for Inactive)
    1  A    between atoms: C_1  and  C_6
    2  A    between atoms: C_2  and  C_29
    3  A    between atoms: C_2  and  C_38
    4  A    between atoms: C_13  and  C_60
    5  A    between atoms: C_14  and  N_17
    6  A    between atoms: C_14  and  N_39
    7  A    between atoms: C_18  and  CA_54
    8  A    between atoms: C_19  and  C_27
    9  A    between atoms: C_19  and  C_31
   10  A    between atoms: C_19  and  N_39
   11  A    between atoms: N_24  and  C_27
   12  A    between atoms: N_24  and  CA_54
   13  A    between atoms: C_26  and  C_38
   14  A    between atoms: C_26  and  O_40
   15  A    between atoms: C_30  and  C_60
   16  A    between atoms: C_33  and  C_48
   17  A    between atoms: O_40  and  C_61
   18  A    between atoms: N_45  and  C_46
   19  A    between atoms: C_49  and  C_58
   20  A    between atoms: C_50  and  CA_54
   21  A    between atoms: C_50  and  C_58
                            x       y       z     vdW  Elec       q    Type
                         _______ _______ _______ _____ _____    ______ ____

>  <TORSDO>
F 21

$$$$
=
 OpenBabel11032421243D

 64 69  0  0  1  0  0  0  0  0999 V2000
  182.1530  179.9650  140.6130 C   0  0  1  0  0  3  0  0  0  0  0  0
  183.3060  177.9310  141.1400 N   0  0  0  0  0  0  0  0  0  0  0  0
  183.0090  178.6200  142.4030 C   0  0  1  0  0  3  0  0  0  0  0  0
  184.2110  179.3690  142.9830 C   0  0  0  0  0  1  0  0  0  0  0  0
  181.9280  179.6280  142.0740 C   0  0  0  0  0  2  0  0  0  0  0  0
  183.1120  178.9140  140.0650 C   0  0  2  0  0  3  0  0  0  0  0  0
  184.6200  177.2830  141.1170 C   0  0  0  0  0  1  0  0  0  0  0  0
  179.8750  179.2430  140.0680 N   0  0  0  0  0  0  0  0  0  0  0  0
  180.8690  180.0530  139.8230 C   0  0  0  0  0  0  0  0  0  0  0  0
  181.4200  183.0620  137.5770 C   0  0  0  0  0  3  0  0  0  0  0  0
  179.7300  180.8450  137.7140 C   0  0  0  0  0  3  0  0  0  0  0  0
  180.2770  183.8640  135.5070 C   0  0  0  0  0  1  0  0  0  0  0  0
  179.5890  181.7680  136.6740 C   0  0  0  0  0  3  0  0  0  0  0  0
  180.7170  181.0160  138.6980 C   0  0  0  0  0  0  0  0  0  0  0  0
  181.5590  182.1380  138.6160 C   0  0  0  0  0  3  0  0  0  0  0  0
  180.4330  182.8770  136.6060 C   0  0  0  0  0  0  0  0  0  0  0  0
  179.7320  178.2240  141.0760 C   0  0  0  0  0  0  0  0  0  0  0  0
  179.5070  178.5830  142.6620 S   0  0  0  0  0  0  0  0  0  0  0  0
  179.5190  176.8730  140.6680 N   0  0  0  0  0  2  0  0  0  0  0  0
  180.5290  176.1040  139.9600 C   0  0  1  0  0  3  0  0  0  0  0  0
  180.2000  174.6450  140.0300 C   0  0  0  0  0  3  0  0  0  0  0  0
  178.9880  174.2320  140.3880 C   0  0  0  0  0  2  0  0  0  0  0  0
  180.5830  176.5620  138.5140 C   0  0  0  0  0  2  0  0  0  0  0  0
  180.2460  175.4530  137.6360 N   0  0  0  0  0  2  0  0  0  0  0  0
  181.0460  175.5880  136.4250 C   0  0  2  0  0  3  0  0  0  0  0  0
  180.3330  176.4380  135.4230 C   0  0  0  0  0  0  0  0  0  0  0  0
  178.9720  176.2690  135.1930 O   0  0  0  0  0  1  0  0  0  0  0  0
  180.9730  177.3050  134.7710 O   0  0  0  0  0  0  0  0  0  0  0  0
  181.4410  174.2290  135.8410 C   0  0  0  0  0  2  0  0  0  0  0  0
  183.9240  173.6070  136.7930 S   0  0  0  0  0  1  0  0  0  0  0  0
  182.1270  173.3090  136.8490 C   0  0  2  0  0  3  0  0  0  0  0  0
  180.9390  171.3070  137.4480 O   0  0  0  0  0  1  0  0  0  0  0  0
  183.1050  171.0240  136.5290 C   0  0  0  0  0  1  0  0  0  0  0  0
  181.8290  171.8490  136.5170 C   0  0  2  0  0  3  0  0  0  0  0  0
  184.3150  179.5380  139.7100 O   0  0  0  0  0  0  0  0  0  0  0  0
  185.0540  178.5490  139.0560 C   0  0  0  0  0  2  0  0  0  0  0  0
  184.7130  178.5510  137.5800 C   0  0  2  0  0  3  0  0  0  0  0  0
  183.2090  178.6290  137.4120 C   0  0  0  0  0  1  0  0  0  0  0  0
  185.2320  177.2770  136.9390 C   0  0  0  0  0  2  0  0  0  0  0  0
  191.7920  176.7550  137.8800 C   0  0  1  0  0  3  0  0  0  0  0  0
  190.6000  176.6730  137.0370 N   0  0  0  0  0  2  0  0  0  0  0  0
  189.2320  176.9910  139.6800 N   0  0  0  0  0  0  0  0  0  0  0  0
  191.5140  176.1400  139.2490 C   0  0  0  0  0  2  0  0  0  0  0  0
  186.7190  177.2430  136.9880 C   0  0  0  0  0  0  0  0  0  0  0  0
  190.6390  177.0690  140.0880 C   0  0  2  0  0  3  0  0  0  0  0  0
  189.7100  177.7610  137.4180 C   0  0  0  0  0  2  0  0  0  0  0  0
  187.3790  177.2680  135.9150 O   0  0  0  0  0  0  0  0  0  0  0  0
  187.3710  177.1780  138.2610 N   0  0  0  0  0  2  0  0  0  0  0  0
  188.7790  177.2980  138.5010 C   0  0  0  0  0  0  0  0  0  0  0  0
  192.9980  176.0590  137.2320 C   0  0  1  0  0  0  0  0  0  0  0  0
  192.9310  172.6040  136.5510 C   0  0  0  0  0  1  0  0  0  0  0  0
  193.1370  176.0490  135.7290 C   0  0  0  0  0  2  0  0  0  0  0  0
  194.2140  175.6990  138.0610 C   0  0  0  0  0  2  0  0  0  0  0  0
  193.2380  174.5860  135.3560 C   0  0  0  0  0  2  0  0  0  0  0  0
  193.6630  173.8580  136.5440 N   0  0  0  0  0  0  0  0  0  0  0  0
  193.1920  174.6290  137.6900 C   0  0  2  0  0  3  0  0  0  0  0  0
  187.8560  177.1480  144.0280 Cl  0  0  0  0  0  0  0  0  0  0  0  0
  189.5180  176.6950  143.5880 C   0  0  2  0  0  3  0  0  0  0  0  0
  191.0850  177.9770  142.3850 C   0  0  0  0  0  2  0  0  0  0  0  0
  190.3850  177.8680  143.6640 N   0  0  0  0  0  0  0  0  0  0  0  0
  190.7940  176.7350  141.5720 C   0  0  1  0  0  3  0  0  0  0  0  0
  189.5380  176.1590  142.1750 C   0  0  0  0  0  2  0  0  0  0  0  0
  190.7390  176.8820  145.8580 C   0  0  0  0  0  1  0  0  0  0  0  0
  191.3860  177.5850  144.6820 C   0  0  0  0  0  2  0  0  0  0  0  0
  1  9  1  6  0  0  0
  1  5  1  0  0  0  0
  2  3  1  0  0  0  0
  3  4  1  6  0  0  0
  5  3  1  0  0  0  0
  6 35  1  1  0  0  0
  6  1  1  0  0  0  0
  6  2  1  0  0  0  0
  7  2  1  0  0  0  0
  8 17  1  0  0  0  0
  9  8  2  0  0  0  0
 10 15  1  0  0  0  0
 11 14  1  0  0  0  0
 12 16  1  0  0  0  0
 13 11  2  0  0  0  0
 14  9  1  0  0  0  0
 15 14  2  0  0  0  0
 16 13  1  0  0  0  0
 16 10  2  0  0  0  0
 17 18  2  0  0  0  0
 19 17  1  0  0  0  0
 20 23  1  6  0  0  0
 20 21  1  0  0  0  0
 20 19  1  0  0  0  0
 21 22  2  0  0  0  0
 24 23  1  0  0  0  0
 25 29  1  6  0  0  0
 25 24  1  0  0  0  0
 26 25  1  0  0  0  0
 27 26  1  0  0  0  0
 28 26  2  0  0  0  0
 29 31  1  0  0  0  0
 31 30  1  6  0  0  0
 34 33  1  1  0  0  0
 34 31  1  0  0  0  0
 34 32  1  0  0  0  0
 36 35  1  0  0  0  0
 37 38  1  1  0  0  0
 37 36  1  0  0  0  0
 39 44  1  0  0  0  0
 39 37  1  0  0  0  0
 40 43  1  1  0  0  0
 41 46  1  0  0  0  0
 41 40  1  0  0  0  0
 42 45  1  0  0  0  0
 44 48  1  0  0  0  0
 45 43  1  6  0  0  0
 45 61  1  0  0  0  0
 46 49  1  0  0  0  0
 47 44  2  0  0  0  0
 48 49  1  0  0  0  0
 49 42  2  0  0  0  0
 50 52  1  6  0  0  0
 50 56  1  0  0  0  0
 50 40  1  0  0  0  0
 50 53  1  0  0  0  0
 54 52  1  0  0  0  0
 54 55  1  0  0  0  0
 55 51  1  0  0  0  0
 55 56  1  0  0  0  0
 56 53  1  1  0  0  0
 58 60  1  0  0  0  0
 58 57  1  6  0  0  0
 59 60  1  0  0  0  0
 60 64  1  0  0  0  0
 61 62  1  1  0  0  0
 61 59  1  0  0  0  0
 62 58  1  0  0  0  0
 64 63  1  0  0  0  0
M  END
>  <MODEL>
4

>  <REMARK>
 VINA RESULT:      -4.2      2.904      6.957
  Name = 
  21 active torsions:
  status: ('A' for Active; 'I' for Inactive)
    1  A    between atoms: C_1  and  C_6
    2  A    between atoms: C_2  and  C_29
    3  A    between atoms: C_2  and  C_38
    4  A    between atoms: C_13  and  C_60
    5  A    between atoms: C_14  and  N_17
    6  A    between atoms: C_14  and  N_39
    7  A    between atoms: C_18  and  CA_54
    8  A    between atoms: C_19  and  C_27
    9  A    between atoms: C_19  and  C_31
   10  A    between atoms: C_19  and  N_39
   11  A    between atoms: N_24  and  C_27
   12  A    between atoms: N_24  and  CA_54
   13  A    between atoms: C_26  and  C_38
   14  A    between atoms: C_26  and  O_40
   15  A    between atoms: C_30  and  C_60
   16  A    between atoms: C_33  and  C_48
   17  A    between atoms: O_40  and  C_61
   18  A    between atoms: N_45  and  C_46
   19  A    between atoms: C_49  and  C_58
   20  A    between atoms: C_50  and  CA_54
   21  A    between atoms: C_50  and  C_58
                            x       y       z     vdW  Elec       q    Type
                         _______ _______ _______ _____ _____    ______ ____

>  <TORSDO>
F 21

$$$$
=
 OpenBabel11032421243D

 64 69  0  0  1  0  0  0  0  0999 V2000
  186.4390  175.6320  135.9160 C   0  0  1  0  0  3  0  0  0  0  0  0
  184.4290  176.8710  136.3290 N   0  0  0  0  0  0  0  0  0  0  0  0
  184.8790  177.1850  134.9660 C   0  0  1  0  0  3  0  0  0  0  0  0
  185.6010  178.5290  134.8610 C   0  0  0  0  0  1  0  0  0  0  0  0
  185.8520  176.0860  134.5940 C   0  0  0  0  0  2  0  0  0  0  0  0
  185.5600  176.2260  137.0110 C   0  0  2  0  0  3  0  0  0  0  0  0
  183.8830  178.0230  137.0500 C   0  0  0  0  0  1  0  0  0  0  0  0
  187.7340  173.5520  135.9150 N   0  0  0  0  0  0  0  0  0  0  0  0
  186.5690  174.1320  136.0200 C   0  0  0  0  0  0  0  0  0  0  0  0
  183.0060  173.0190  136.7030 C   0  0  0  0  0  3  0  0  0  0  0  0
  185.4480  171.8700  135.9900 C   0  0  0  0  0  3  0  0  0  0  0  0
  181.8990  170.7800  136.7030 C   0  0  0  0  0  1  0  0  0  0  0  0
  184.3190  171.0640  136.1570 C   0  0  0  0  0  3  0  0  0  0  0  0
  185.3730  173.2600  136.1750 C   0  0  0  0  0  0  0  0  0  0  0  0
  184.1360  173.8230  136.5350 C   0  0  0  0  0  3  0  0  0  0  0  0
  183.0980  171.6380  136.5140 C   0  0  0  0  0  0  0  0  0  0  0  0
  189.0470  174.1230  135.7620 C   0  0  0  0  0  0  0  0  0  0  0  0
  189.3950  175.2280  134.6010 S   0  0  0  0  0  0  0  0  0  0  0  0
  190.0120  173.9280  136.7980 N   0  0  0  0  0  2  0  0  0  0  0  0
  191.4360  173.8290  136.5280 C   0  0  1  0  0  3  0  0  0  0  0  0
  191.6750  172.8850  135.3900 C   0  0  0  0  0  3  0  0  0  0  0  0
  192.6830  172.0190  135.4180 C   0  0  0  0  0  2  0  0  0  0  0  0
  191.9780  175.2060  136.1910 C   0  0  0  0  0  2  0  0  0  0  0  0
  193.4250  175.2120  136.3400 N   0  0  0  0  0  2  0  0  0  0  0  0
  193.7300  174.7970  137.7030 C   0  0  2  0  0  3  0  0  0  0  0  0
  193.8500  175.9890  138.5970 C   0  0  0  0  0  0  0  0  0  0  0  0
  192.9670  177.0570  138.4720 O   0  0  0  0  0  0  0  0  0  0  0  0
  194.7640  176.0330  139.4620 O   0  0  0  0  0  1  0  0  0  0  0  0
  194.9760  173.9080  137.7690 C   0  0  0  0  0  2  0  0  0  0  0  0
  196.5160  172.6640  135.8890 S   0  0  0  0  0  1  0  0  0  0  0  0
  196.0050  174.2210  136.6850 C   0  0  2  0  0  3  0  0  0  0  0  0
  197.7270  175.8780  136.4160 O   0  0  0  0  0  1  0  0  0  0  0  0
  198.3160  173.9140  137.6050 C   0  0  0  0  0  1  0  0  0  0  0  0
  197.2190  174.9190  137.2960 C   0  0  2  0  0  3  0  0  0  0  0  0
  186.3140  177.1480  137.7490 O   0  0  0  0  0  0  0  0  0  0  0  0
  187.5880  177.1120  137.1760 C   0  0  0  0  0  2  0  0  0  0  0  0
  188.3130  178.4100  137.4650 C   0  0  2  0  0  3  0  0  0  0  0  0
  189.0550  178.8580  136.2220 C   0  0  0  0  0  1  0  0  0  0  0  0
  189.2990  178.1970  138.5990 C   0  0  0  0  0  2  0  0  0  0  0  0
  186.7560  177.8290  144.7300 C   0  0  1  0  0  3  0  0  0  0  0  0
  186.6600  178.1760  143.3130 N   0  0  0  0  0  2  0  0  0  0  0  0
  189.5940  177.5940  143.4110 N   0  0  0  0  0  0  0  0  0  0  0  0
  188.1170  178.2430  145.2840 C   0  0  0  0  0  2  0  0  0  0  0  0
  188.5760  178.0560  139.8920 C   0  0  0  0  0  0  0  0  0  0  0  0
  189.2090  177.2950  144.7930 C   0  0  2  0  0  3  0  0  0  0  0  0
  187.3570  177.1470  142.5540 C   0  0  0  0  0  2  0  0  0  0  0  0
  187.3190  178.1300  139.9150 O   0  0  0  0  0  0  0  0  0  0  0  0
  189.3300  177.8440  141.0910 N   0  0  0  0  0  2  0  0  0  0  0  0
  188.7980  177.5320  142.3840 C   0  0  0  0  0  0  0  0  0  0  0  0
  185.6370  178.4810  145.5550 C   0  0  1  0  0  0  0  0  0  0  0  0
  182.6010  179.4230  144.0420 C   0  0  0  0  0  1  0  0  0  0  0  0
  184.6520  177.6110  146.2980 C   0  0  0  0  0  2  0  0  0  0  0  0
  185.7120  179.9480  145.9260 C   0  0  0  0  0  2  0  0  0  0  0  0
  183.2930  178.0400  145.7900 C   0  0  0  0  0  2  0  0  0  0  0  0
  183.4360  179.3770  145.2290 N   0  0  0  0  0  0  0  0  0  0  0  0
  184.8180  179.4890  144.7780 C   0  0  2  0  0  3  0  0  0  0  0  0
  192.7630  174.3470  146.1900 Cl  0  0  0  0  0  0  0  0  0  0  0  0
  192.2470  176.0250  146.4690 C   0  0  2  0  0  3  0  0  0  0  0  0
  190.1030  176.7850  147.0820 C   0  0  0  0  0  2  0  0  0  0  0  0
  191.2840  176.0690  147.5660 N   0  0  0  0  0  0  0  0  0  0  0  0
  190.4210  177.3690  145.7230 C   0  0  1  0  0  3  0  0  0  0  0  0
  191.5930  176.5670  145.2190 C   0  0  0  0  0  2  0  0  0  0  0  0
  191.0550  178.1320  148.8320 C   0  0  0  0  0  1  0  0  0  0  0  0
  191.8800  176.8780  148.6170 C   0  0  0  0  0  2  0  0  0  0  0  0
  1  9  1  6  0  0  0
  1  6  1  0  0  0  0
  2  6  1  0  0  0  0
  2  7  1  0  0  0  0
  3  4  1  1  0  0  0
  3  2  1  0  0  0  0
  5  3  1  0  0  0  0
  5  1  1  0  0  0  0
  6 35  1  6  0  0  0
  8  9  2  0  0  0  0
  9 14  1  0  0  0  0
 11 13  2  0  0  0  0
 11 14  1  0  0  0  0
 13 16  1  0  0  0  0
 14 15  2  0  0  0  0
 15 10  1  0  0  0  0
 16 12  1  0  0  0  0
 16 10  2  0  0  0  0
 17  8  1  0  0  0  0
 17 19  1  0  0  0  0
 18 17  2  0  0  0  0
 20 21  1  6  0  0  0
 20 19  1  0  0  0  0
 21 22  2  0  0  0  0
 23 24  1  0  0  0  0
 23 20  1  0  0  0  0
 24 25  1  0  0  0  0
 25 29  1  6  0  0  0
 25 26  1  0  0  0  0
 26 28  1  0  0  0  0
 27 26  2  0  0  0  0
 31 30  1  1  0  0  0
 31 34  1  0  0  0  0
 31 29  1  0  0  0  0
 32 34  1  0  0  0  0
 34 33  1  6  0  0  0
 36 37  1  0  0  0  0
 36 35  1  0  0  0  0
 37 38  1  6  0  0  0
 37 39  1  0  0  0  0
 39 44  1  0  0  0  0
 40 43  1  1  0  0  0
 40 50  1  0  0  0  0
 41 40  1  0  0  0  0
 42 45  1  0  0  0  0
 44 47  2  0  0  0  0
 44 48  1  0  0  0  0
 45 43  1  1  0  0  0
 45 61  1  0  0  0  0
 46 41  1  0  0  0  0
 48 49  1  0  0  0  0
 49 46  1  0  0  0  0
 49 42  2  0  0  0  0
 50 53  1  1  0  0  0
 50 52  1  0  0  0  0
 51 55  1  0  0  0  0
 54 52  1  0  0  0  0
 55 54  1  0  0  0  0
 56 55  1  0  0  0  0
 56 50  1  0  0  0  0
 56 53  1  1  0  0  0
 58 57  1  6  0  0  0
 58 60  1  0  0  0  0
 59 60  1  0  0  0  0
 60 64  1  0  0  0  0
 61 62  1  6  0  0  0
 61 59  1  0  0  0  0
 62 58  1  0  0  0  0
 64 63  1  0  0  0  0
M  END
>  <MODEL>
5

>  <REMARK>
 VINA RESULT:      -3.8      3.558      7.208
  Name = 
  21 active torsions:
  status: ('A' for Active; 'I' for Inactive)
    1  A    between atoms: C_1  and  C_6
    2  A    between atoms: C_2  and  C_29
    3  A    between atoms: C_2  and  C_38
    4  A    between atoms: C_13  and  C_60
    5  A    between atoms: C_14  and  N_17
    6  A    between atoms: C_14  and  N_39
    7  A    between atoms: C_18  and  CA_54
    8  A    between atoms: C_19  and  C_27
    9  A    between atoms: C_19  and  C_31
   10  A    between atoms: C_19  and  N_39
   11  A    between atoms: N_24  and  C_27
   12  A    between atoms: N_24  and  CA_54
   13  A    between atoms: C_26  and  C_38
   14  A    between atoms: C_26  and  O_40
   15  A    between atoms: C_30  and  C_60
   16  A    between atoms: C_33  and  C_48
   17  A    between atoms: O_40  and  C_61
   18  A    between atoms: N_45  and  C_46
   19  A    between atoms: C_49  and  C_58
   20  A    between atoms: C_50  and  CA_54
   21  A    between atoms: C_50  and  C_58
                            x       y       z     vdW  Elec       q    Type
                         _______ _______ _______ _____ _____    ______ ____

>  <TORSDO>
F 21

$$$$
=
 OpenBabel11032421243D

 64 69  0  0  1  0  0  0  0  0999 V2000
  186.6510  176.1710  136.5640 C   0  0  1  0  0  3  0  0  0  0  0  0
  184.9420  177.4320  137.6750 N   0  0  0  0  0  0  0  0  0  0  0  0
  185.1580  178.0340  136.3530 C   0  0  1  0  0  3  0  0  0  0  0  0
  186.0190  179.2980  136.3950 C   0  0  0  0  0  1  0  0  0  0  0  0
  185.8850  176.9840  135.5390 C   0  0  0  0  0  2  0  0  0  0  0  0
  186.0880  176.5470  137.9300 C   0  0  2  0  0  3  0  0  0  0  0  0
  184.7050  178.4120  138.7380 C   0  0  0  0  0  1  0  0  0  0  0  0
  187.6640  174.0330  135.9220 N   0  0  0  0  0  0  0  0  0  0  0  0
  186.5980  174.6860  136.2980 C   0  0  0  0  0  0  0  0  0  0  0  0
  182.9520  173.7370  135.8400 C   0  0  0  0  0  3  0  0  0  0  0  0
  185.2230  172.7310  137.1130 C   0  0  0  0  0  3  0  0  0  0  0  0
  181.5810  171.8200  136.6680 C   0  0  0  0  0  1  0  0  0  0  0  0
  184.0100  172.0430  137.2020 C   0  0  0  0  0  3  0  0  0  0  0  0
  185.3180  173.9290  136.3870 C   0  0  0  0  0  0  0  0  0  0  0  0
  184.1660  174.4230  135.7520 C   0  0  0  0  0  3  0  0  0  0  0  0
  182.8740  172.5460  136.5660 C   0  0  0  0  0  0  0  0  0  0  0  0
  189.0200  174.4870  135.7510 C   0  0  0  0  0  0  0  0  0  0  0  0
  189.4410  175.5830  134.6040 S   0  0  0  0  0  0  0  0  0  0  0  0
  189.9840  174.1840  136.7590 N   0  0  0  0  0  2  0  0  0  0  0  0
  191.2780  173.5980  136.4500 C   0  0  1  0  0  3  0  0  0  0  0  0
  191.1530  172.6790  135.2740 C   0  0  0  0  0  3  0  0  0  0  0  0
  190.1870  171.7690  135.2160 C   0  0  0  0  0  2  0  0  0  0  0  0
  192.2700  174.7060  136.1480 C   0  0  0  0  0  2  0  0  0  0  0  0
  193.2250  174.2510  135.1510 N   0  0  0  0  0  2  0  0  0  0  0  0
  194.5210  174.1240  135.8060 C   0  0  2  0  0  3  0  0  0  0  0  0
  195.4610  175.1740  135.3080 C   0  0  0  0  0  0  0  0  0  0  0  0
  195.2510  176.5140  135.6160 O   0  0  0  0  0  1  0  0  0  0  0  0
  196.4440  174.8450  134.5940 O   0  0  0  0  0  0  0  0  0  0  0  0
  195.1070  172.7170  135.6550 C   0  0  0  0  0  2  0  0  0  0  0  0
  194.8170  173.0950  138.3440 S   0  0  0  0  0  1  0  0  0  0  0  0
  195.2210  171.9600  136.9770 C   0  0  2  0  0  3  0  0  0  0  0  0
  197.5090  172.0220  136.2430 O   0  0  0  0  0  1  0  0  0  0  0  0
  196.6660  169.9130  136.9220 C   0  0  0  0  0  1  0  0  0  0  0  0
  196.6370  171.4150  137.1510 C   0  0  2  0  0  3  0  0  0  0  0  0
  187.0860  177.1920  138.6720 O   0  0  0  0  0  0  0  0  0  0  0  0
  188.2890  176.7760  138.0940 C   0  0  0  0  0  2  0  0  0  0  0  0
  189.3940  177.7400  138.4710 C   0  0  2  0  0  3  0  0  0  0  0  0
  190.2100  178.0750  137.2390 C   0  0  0  0  0  1  0  0  0  0  0  0
  190.2890  177.1000  139.5170 C   0  0  0  0  0  2  0  0  0  0  0  0
  187.9240  177.2960  145.7260 C   0  0  1  0  0  3  0  0  0  0  0  0
  187.7830  177.5050  144.2850 N   0  0  0  0  0  2  0  0  0  0  0  0
  190.7260  176.9630  144.3530 N   0  0  0  0  0  0  0  0  0  0  0  0
  189.2940  177.7750  146.1980 C   0  0  0  0  0  2  0  0  0  0  0  0
  189.6050  177.0770  140.8380 C   0  0  0  0  0  0  0  0  0  0  0  0
  190.3840  176.7950  145.7690 C   0  0  2  0  0  3  0  0  0  0  0  0
  188.4720  176.4150  143.6080 C   0  0  0  0  0  2  0  0  0  0  0  0
  188.3480  177.1400  140.8890 O   0  0  0  0  0  0  0  0  0  0  0  0
  190.3950  176.9880  142.0290 N   0  0  0  0  0  2  0  0  0  0  0  0
  189.9030  176.7960  143.3600 C   0  0  0  0  0  0  0  0  0  0  0  0
  186.8200  178.0130  146.5170 C   0  0  1  0  0  0  0  0  0  0  0  0
  183.8250  178.9920  144.9460 C   0  0  0  0  0  1  0  0  0  0  0  0
  185.8030  177.2030  147.2840 C   0  0  0  0  0  2  0  0  0  0  0  0
  186.9380  179.4900  146.8340 C   0  0  0  0  0  2  0  0  0  0  0  0
  184.4620  177.6540  146.7500 C   0  0  0  0  0  2  0  0  0  0  0  0
  184.6500  178.9640  146.1400 N   0  0  0  0  0  0  0  0  0  0  0  0
  186.0380  179.0160  145.6960 C   0  0  2  0  0  3  0  0  0  0  0  0
  192.5610  174.3430  149.3080 Cl  0  0  0  0  0  0  0  0  0  0  0  0
  192.8120  175.8420  148.3850 C   0  0  2  0  0  3  0  0  0  0  0  0
  191.2540  177.5650  147.9930 C   0  0  0  0  0  2  0  0  0  0  0  0
  192.0870  176.9390  149.0200 N   0  0  0  0  0  0  0  0  0  0  0  0
  191.6200  176.9690  146.6510 C   0  0  1  0  0  3  0  0  0  0  0  0
  192.2940  175.6610  146.9770 C   0  0  0  0  0  2  0  0  0  0  0  0
  194.1240  177.2600  150.3080 C   0  0  0  0  0  1  0  0  0  0  0  0
  193.0810  177.9200  149.4270 C   0  0  0  0  0  2  0  0  0  0  0  0
  1  9  1  6  0  0  0
  1  6  1  0  0  0  0
  2  6  1  0  0  0  0
  2  7  1  0  0  0  0
  3  4  1  1  0  0  0
  3  2  1  0  0  0  0
  5  3  1  0  0  0  0
  5  1  1  0  0  0  0
  6 35  1  1  0  0  0
  8  9  2  0  0  0  0
  9 14  1  0  0  0  0
 10 16  1  0  0  0  0
 11 13  1  0  0  0  0
 14 11  2  0  0  0  0
 15 10  2  0  0  0  0
 15 14  1  0  0  0  0
 16 12  1  0  0  0  0
 16 13  2  0  0  0  0
 17  8  1  0  0  0  0
 17 19  1  0  0  0  0
 18 17  2  0  0  0  0
 20 21  1  6  0  0  0
 20 19  1  0  0  0  0
 22 21  2  0  0  0  0
 23 20  1  0  0  0  0
 24 25  1  0  0  0  0
 24 23  1  0  0  0  0
 25 29  1  6  0  0  0
 26 27  1  0  0  0  0
 26 25  1  0  0  0  0
 28 26  2  0  0  0  0
 29 31  1  0  0  0  0
 31 34  1  0  0  0  0
 31 30  1  1  0  0  0
 32 34  1  0  0  0  0
 34 33  1  6  0  0  0
 36 37  1  0  0  0  0
 36 35  1  0  0  0  0
 37 38  1  6  0  0  0
 37 39  1  0  0  0  0
 39 44  1  0  0  0  0
 40 43  1  1  0  0  0
 40 50  1  0  0  0  0
 41 40  1  0  0  0  0
 42 45  1  0  0  0  0
 44 47  2  0  0  0  0
 44 48  1  0  0  0  0
 45 43  1  1  0  0  0
 45 61  1  0  0  0  0
 46 41  1  0  0  0  0
 48 49  1  0  0  0  0
 49 46  1  0  0  0  0
 49 42  2  0  0  0  0
 50 53  1  1  0  0  0
 50 52  1  0  0  0  0
 51 55  1  0  0  0  0
 54 52  1  0  0  0  0
 55 54  1  0  0  0  0
 56 55  1  0  0  0  0
 56 50  1  0  0  0  0
 56 53  1  1  0  0  0
 58 60  1  0  0  0  0
 58 57  1  1  0  0  0
 59 60  1  0  0  0  0
 60 64  1  0  0  0  0
 61 62  1  1  0  0  0
 61 59  1  0  0  0  0
 62 58  1  0  0  0  0
 64 63  1  0  0  0  0
M  END
>  <MODEL>
6

>  <REMARK>
 VINA RESULT:      -3.0      3.970      7.168
  Name = 
  21 active torsions:
  status: ('A' for Active; 'I' for Inactive)
    1  A    between atoms: C_1  and  C_6
    2  A    between atoms: C_2  and  C_29
    3  A    between atoms: C_2  and  C_38
    4  A    between atoms: C_13  and  C_60
    5  A    between atoms: C_14  and  N_17
    6  A    between atoms: C_14  and  N_39
    7  A    between atoms: C_18  and  CA_54
    8  A    between atoms: C_19  and  C_27
    9  A    between atoms: C_19  and  C_31
   10  A    between atoms: C_19  and  N_39
   11  A    between atoms: N_24  and  C_27
   12  A    between atoms: N_24  and  CA_54
   13  A    between atoms: C_26  and  C_38
   14  A    between atoms: C_26  and  O_40
   15  A    between atoms: C_30  and  C_60
   16  A    between atoms: C_33  and  C_48
   17  A    between atoms: O_40  and  C_61
   18  A    between atoms: N_45  and  C_46
   19  A    between atoms: C_49  and  C_58
   20  A    between atoms: C_50  and  CA_54
   21  A    between atoms: C_50  and  C_58
                            x       y       z     vdW  Elec       q    Type
                         _______ _______ _______ _____ _____    ______ ____

>  <TORSDO>
F 21

$$$$
=
 OpenBabel11032421243D

 64 69  0  0  1  0  0  0  0  0999 V2000
  186.1470  176.3780  136.3580 C   0  0  1  0  0  3  0  0  0  0  0  0
  187.4320  178.4010  136.4150 N   0  0  0  0  0  0  0  0  0  0  0  0
  187.4840  177.8720  135.0450 C   0  0  1  0  0  3  0  0  0  0  0  0
  188.7880  177.1370  134.7280 C   0  0  0  0  0  1  0  0  0  0  0  0
  186.3400  176.8860  134.9430 C   0  0  0  0  0  2  0  0  0  0  0  0
  186.9330  177.3140  137.2690 C   0  0  2  0  0  3  0  0  0  0  0  0
  188.6970  178.9790  136.8730 C   0  0  0  0  0  1  0  0  0  0  0  0
  184.0250  175.1630  136.5300 N   0  0  0  0  0  0  0  0  0  0  0  0
  184.6940  176.2630  136.7510 C   0  0  0  0  0  0  0  0  0  0  0  0
  182.2160  179.1100  137.1470 C   0  0  0  0  0  3  0  0  0  0  0  0
  184.2970  177.9420  138.5940 C   0  0  0  0  0  3  0  0  0  0  0  0
  181.8390  180.7910  138.9550 C   0  0  0  0  0  1  0  0  0  0  0  0
  183.6070  179.0360  139.1220 C   0  0  0  0  0  3  0  0  0  0  0  0
  183.9570  177.4150  137.3380 C   0  0  0  0  0  0  0  0  0  0  0  0
  182.9070  178.0150  136.6210 C   0  0  0  0  0  3  0  0  0  0  0  0
  182.5670  179.6200  138.3980 C   0  0  0  0  0  0  0  0  0  0  0  0
  184.4600  173.9030  135.9850 C   0  0  0  0  0  0  0  0  0  0  0  0
  185.2820  172.7970  136.8760 S   0  0  0  0  0  0  0  0  0  0  0  0
  183.9480  173.4840  134.7190 N   0  0  0  0  0  2  0  0  0  0  0  0
  182.7480  172.6740  134.5940 C   0  0  1  0  0  3  0  0  0  0  0  0
  182.7850  171.5500  135.5820 C   0  0  0  0  0  3  0  0  0  0  0  0
  182.6110  170.2910  135.1950 C   0  0  0  0  0  2  0  0  0  0  0  0
  181.5290  173.5460  134.8350 C   0  0  0  0  0  2  0  0  0  0  0  0
  180.6430  172.8970  135.7880 N   0  0  0  0  0  2  0  0  0  0  0  0
  180.4680  173.8020  136.9160 C   0  0  2  0  0  3  0  0  0  0  0  0
  180.2770  173.0270  138.1810 C   0  0  0  0  0  0  0  0  0  0  0  0
  179.8610  171.7000  138.1400 O   0  0  0  0  0  0  0  0  0  0  0  0
  180.4820  173.5830  139.2910 O   0  0  0  0  0  1  0  0  0  0  0  0
  179.3300  174.8000  136.6830 C   0  0  0  0  0  2  0  0  0  0  0  0
  179.5320  176.7810  138.5510 S   0  0  0  0  0  1  0  0  0  0  0  0
  179.7620  176.2590  136.8210 C   0  0  2  0  0  3  0  0  0  0  0  0
  178.9340  176.6270  134.5940 O   0  0  0  0  0  1  0  0  0  0  0  0
  179.4920  178.5550  135.8550 C   0  0  0  0  0  1  0  0  0  0  0  0
  178.9320  177.1430  135.8930 C   0  0  2  0  0  3  0  0  0  0  0  0
  187.9820  176.5970  137.8610 O   0  0  0  0  0  0  0  0  0  0  0  0
  188.8210  177.5730  138.4070 C   0  0  0  0  0  2  0  0  0  0  0  0
  190.2640  177.2310  138.1020 C   0  0  2  0  0  3  0  0  0  0  0  0
  190.3650  175.7660  137.7270 C   0  0  0  0  0  1  0  0  0  0  0  0
  191.1180  177.5030  139.3270 C   0  0  0  0  0  2  0  0  0  0  0  0
  188.1820  176.9380  145.2640 C   0  0  1  0  0  3  0  0  0  0  0  0
  188.1540  177.2530  143.8370 N   0  0  0  0  0  2  0  0  0  0  0  0
  191.1190  177.0040  144.1590 N   0  0  0  0  0  0  0  0  0  0  0  0
  189.4440  177.5090  145.9060 C   0  0  0  0  0  2  0  0  0  0  0  0
  190.3210  177.3010  140.5670 C   0  0  0  0  0  0  0  0  0  0  0  0
  190.6680  176.6830  145.5170 C   0  0  2  0  0  3  0  0  0  0  0  0
  189.0150  176.2980  143.1530 C   0  0  0  0  0  2  0  0  0  0  0  0
  189.0650  177.2330  140.4970 O   0  0  0  0  0  0  0  0  0  0  0  0
  191.0030  177.1910  141.8220 N   0  0  0  0  0  2  0  0  0  0  0  0
  190.4140  176.8390  143.0790 C   0  0  0  0  0  0  0  0  0  0  0  0
  186.9400  177.4720  145.9920 C   0  0  1  0  0  0  0  0  0  0  0  0
  184.8800  179.9000  144.4890 C   0  0  0  0  0  1  0  0  0  0  0  0
  185.6320  176.7260  145.8830 C   0  0  0  0  0  2  0  0  0  0  0  0
  187.0780  178.5110  147.0860 C   0  0  0  0  0  2  0  0  0  0  0  0
  184.6460  177.7430  145.3520 C   0  0  0  0  0  2  0  0  0  0  0  0
  185.1830  179.0670  145.6390 N   0  0  0  0  0  0  0  0  0  0  0  0
  186.6340  178.9220  145.6850 C   0  0  2  0  0  3  0  0  0  0  0  0
  192.4180  174.4040  149.3920 Cl  0  0  0  0  0  0  0  0  0  0  0  0
  192.7730  175.8630  148.4400 C   0  0  2  0  0  3  0  0  0  0  0  0
  191.2690  177.5560  147.7920 C   0  0  0  0  0  2  0  0  0  0  0  0
  191.9770  176.9820  148.9360 N   0  0  0  0  0  0  0  0  0  0  0  0
  191.7920  176.9040  146.5300 C   0  0  1  0  0  3  0  0  0  0  0  0
  192.4250  175.6170  146.9900 C   0  0  0  0  0  2  0  0  0  0  0  0
  194.0910  177.3120  150.0890 C   0  0  0  0  0  1  0  0  0  0  0  0
  192.9150  177.9870  149.4130 C   0  0  0  0  0  2  0  0  0  0  0  0
  1  9  1  1  0  0  0
  1  6  1  0  0  0  0
  2  7  1  0  0  0  0
  2  6  1  0  0  0  0
  3  4  1  1  0  0  0
  3  2  1  0  0  0  0
  5  3  1  0  0  0  0
  5  1  1  0  0  0  0
  6 35  1  6  0  0  0
  8  9  2  0  0  0  0
  9 14  1  0  0  0  0
 10 16  1  0  0  0  0
 11 13  1  0  0  0  0
 14 11  2  0  0  0  0
 15 10  2  0  0  0  0
 15 14  1  0  0  0  0
 16 12  1  0  0  0  0
 16 13  2  0  0  0  0
 17  8  1  0  0  0  0
 17 18  2  0  0  0  0
 19 17  1  0  0  0  0
 20 19  1  0  0  0  0
 20 23  1  1  0  0  0
 20 21  1  0  0  0  0
 22 21  2  0  0  0  0
 23 24  1  0  0  0  0
 24 25  1  0  0  0  0
 25 29  1  6  0  0  0
 25 26  1  0  0  0  0
 26 28  1  0  0  0  0
 27 26  2  0  0  0  0
 29 31  1  0  0  0  0
 31 30  1  1  0  0  0
 32 34  1  0  0  0  0
 34 33  1  6  0  0  0
 34 31  1  0  0  0  0
 35 36  1  0  0  0  0
 37 38  1  1  0  0  0
 37 36  1  0  0  0  0
 37 39  1  0  0  0  0
 39 44  1  0  0  0  0
 40 43  1  1  0  0  0
 40 50  1  0  0  0  0
 41 40  1  0  0  0  0
 42 45  1  0  0  0  0
 44 48  1  0  0  0  0
 45 43  1  1  0  0  0
 45 61  1  0  0  0  0
 46 41  1  0  0  0  0
 47 44  2  0  0  0  0
 48 49  1  0  0  0  0
 49 46  1  0  0  0  0
 49 42  2  0  0  0  0
 50 52  1  1  0  0  0
 50 53  1  0  0  0  0
 51 55  1  0  0  0  0
 54 55  1  0  0  0  0
 54 52  1  0  0  0  0
 55 56  1  0  0  0  0
 56 50  1  0  0  0  0
 56 53  1  1  0  0  0
 58 60  1  0  0  0  0
 58 57  1  1  0  0  0
 59 60  1  0  0  0  0
 60 64  1  0  0  0  0
 61 62  1  1  0  0  0
 61 59  1  0  0  0  0
 62 58  1  0  0  0  0
 64 63  1  0  0  0  0
M  END
>  <MODEL>
7

>  <REMARK>
 VINA RESULT:      -2.3      2.898      6.992
  Name = 
  21 active torsions:
  status: ('A' for Active; 'I' for Inactive)
    1  A    between atoms: C_1  and  C_6
    2  A    between atoms: C_2  and  C_29
    3  A    between atoms: C_2  and  C_38
    4  A    between atoms: C_13  and  C_60
    5  A    between atoms: C_14  and  N_17
    6  A    between atoms: C_14  and  N_39
    7  A    between atoms: C_18  and  CA_54
    8  A    between atoms: C_19  and  C_27
    9  A    between atoms: C_19  and  C_31
   10  A    between atoms: C_19  and  N_39
   11  A    between atoms: N_24  and  C_27
   12  A    between atoms: N_24  and  CA_54
   13  A    between atoms: C_26  and  C_38
   14  A    between atoms: C_26  and  O_40
   15  A    between atoms: C_30  and  C_60
   16  A    between atoms: C_33  and  C_48
   17  A    between atoms: O_40  and  C_61
   18  A    between atoms: N_45  and  C_46
   19  A    between atoms: C_49  and  C_58
   20  A    between atoms: C_50  and  CA_54
   21  A    between atoms: C_50  and  C_58
                            x       y       z     vdW  Elec       q    Type
                         _______ _______ _______ _____ _____    ______ ____

>  <TORSDO>
F 21

$$$$
=
 OpenBabel11032421243D

 64 69  0  0  1  0  0  0  0  0999 V2000
  182.2000  178.7200  138.0580 C   0  0  1  0  0  3  0  0  0  0  0  0
  180.2870  179.8440  138.9640 N   0  0  0  0  0  0  0  0  0  0  0  0
  180.6010  180.4620  137.6690 C   0  0  1  0  0  3  0  0  0  0  0  0
  181.3520  181.7890  137.7960 C   0  0  0  0  0  1  0  0  0  0  0  0
  181.4920  179.4720  136.9490 C   0  0  0  0  0  2  0  0  0  0  0  0
  181.4620  179.0500  139.3500 C   0  0  2  0  0  3  0  0  0  0  0  0
  179.8600  180.8020  139.9870 C   0  0  0  0  0  1  0  0  0  0  0  0
  183.0540  176.7650  136.8500 N   0  0  0  0  0  0  0  0  0  0  0  0
  182.2900  177.2350  137.7990 C   0  0  0  0  0  0  0  0  0  0  0  0
  179.3220  175.1600  138.9340 C   0  0  0  0  0  3  0  0  0  0  0  0
  181.9870  175.5560  139.6600 C   0  0  0  0  0  3  0  0  0  0  0  0
  179.0100  173.5210  140.7920 C   0  0  0  0  0  1  0  0  0  0  0  0
  181.1920  174.6620  140.3820 C   0  0  0  0  0  3  0  0  0  0  0  0
  181.4630  176.2630  138.5670 C   0  0  0  0  0  0  0  0  0  0  0  0
  180.1190  176.0540  138.2140 C   0  0  0  0  0  3  0  0  0  0  0  0
  179.8590  174.4650  140.0190 C   0  0  0  0  0  0  0  0  0  0  0  0
  183.9530  177.4480  135.9560 C   0  0  0  0  0  0  0  0  0  0  0  0
  183.5400  178.8380  135.1870 S   0  0  0  0  0  0  0  0  0  0  0  0
  185.3270  177.0620  135.9290 N   0  0  0  0  0  2  0  0  0  0  0  0
  186.3860  177.9750  135.5310 C   0  0  1  0  0  3  0  0  0  0  0  0
  186.8780  178.7340  136.7250 C   0  0  0  0  0  3  0  0  0  0  0  0
  186.6260  178.3090  137.9590 C   0  0  0  0  0  2  0  0  0  0  0  0
  187.5210  177.1840  134.9060 C   0  0  0  0  0  2  0  0  0  0  0  0
  187.1020  175.8080  134.7000 N   0  0  0  0  0  2  0  0  0  0  0  0
  187.8550  174.9730  135.6270 C   0  0  2  0  0  3  0  0  0  0  0  0
  186.9530  173.9740  136.2790 C   0  0  0  0  0  0  0  0  0  0  0  0
  186.0160  173.2720  135.5280 O   0  0  0  0  0  0  0  0  0  0  0  0
  187.0340  173.7760  137.5200 O   0  0  0  0  0  1  0  0  0  0  0  0
  188.6240  175.8050  136.6580 C   0  0  0  0  0  2  0  0  0  0  0  0
  190.3970  176.2580  134.6310 S   0  0  0  0  0  1  0  0  0  0  0  0
  190.1260  175.8690  136.3900 C   0  0  2  0  0  3  0  0  0  0  0  0
  190.4810  174.1690  138.0530 O   0  0  0  0  0  1  0  0  0  0  0  0
  192.2900  174.6200  136.5890 C   0  0  0  0  0  1  0  0  0  0  0  0
  190.7800  174.5330  136.7370 C   0  0  2  0  0  3  0  0  0  0  0  0
  182.3200  179.7700  140.1920 O   0  0  0  0  0  0  0  0  0  0  0  0
  182.9990  178.7970  140.9310 C   0  0  0  0  0  2  0  0  0  0  0  0
  182.1270  178.3280  142.0770 C   0  0  2  0  0  3  0  0  0  0  0  0
  180.6690  178.5130  141.7060 C   0  0  0  0  0  1  0  0  0  0  0  0
  182.4440  179.1390  143.3200 C   0  0  0  0  0  2  0  0  0  0  0  0
  188.5470  177.3540  145.2590 C   0  0  1  0  0  3  0  0  0  0  0  0
  187.2510  177.9880  145.5000 N   0  0  0  0  0  2  0  0  0  0  0  0
  186.9700  177.5490  142.5520 N   0  0  0  0  0  0  0  0  0  0  0  0
  189.0580  177.7110  143.8660 C   0  0  0  0  0  2  0  0  0  0  0  0
  183.7340  178.6920  143.9120 C   0  0  0  0  0  0  0  0  0  0  0  0
  188.2840  176.9450  142.7960 C   0  0  2  0  0  3  0  0  0  0  0  0
  186.2310  177.1800  144.8460 C   0  0  0  0  0  2  0  0  0  0  0  0
  183.8790  178.6950  145.1640 O   0  0  0  0  0  0  0  0  0  0  0  0
  184.7900  178.2700  143.0420 N   0  0  0  0  0  2  0  0  0  0  0  0
  186.0250  177.6640  143.4400 C   0  0  0  0  0  0  0  0  0  0  0  0
  189.5850  177.7590  146.3150 C   0  0  1  0  0  0  0  0  0  0  0  0
  192.0140  175.4640  147.4240 C   0  0  0  0  0  1  0  0  0  0  0  0
  190.8600  178.4440  145.8860 C   0  0  0  0  0  2  0  0  0  0  0  0
  189.2100  177.8110  147.7820 C   0  0  0  0  0  2  0  0  0  0  0  0
  191.9720  177.5770  146.4330 C   0  0  0  0  0  2  0  0  0  0  0  0
  191.4160  176.7830  147.5200 N   0  0  0  0  0  0  0  0  0  0  0  0
  189.9950  176.6250  147.2300 C   0  0  2  0  0  3  0  0  0  0  0  0
  192.6860  178.2790  141.3410 Cl  0  0  0  0  0  0  0  0  0  0  0  0
  191.2590  177.4610  140.6670 C   0  0  2  0  0  3  0  0  0  0  0  0
  189.0190  178.1870  140.7420 C   0  0  0  0  0  2  0  0  0  0  0  0
  190.3250  178.4530  140.1400 N   0  0  0  0  0  0  0  0  0  0  0  0
  189.1000  176.8820  141.5040 C   0  0  1  0  0  3  0  0  0  0  0  0
  190.5710  176.6670  141.7530 C   0  0  0  0  0  2  0  0  0  0  0  0
  191.4230  177.4490  138.2180 C   0  0  0  0  0  1  0  0  0  0  0  0
  190.2030  178.1990  138.7130 C   0  0  0  0  0  2  0  0  0  0  0  0
  1  9  1  6  0  0  0
  1  6  1  0  0  0  0
  2  6  1  0  0  0  0
  2  7  1  0  0  0  0
  3  4  1  1  0  0  0
  3  2  1  0  0  0  0
  5  3  1  0  0  0  0
  5  1  1  0  0  0  0
  6 35  1  1  0  0  0
  8  9  2  0  0  0  0
  9 14  1  0  0  0  0
 10 16  1  0  0  0  0
 11 13  1  0  0  0  0
 14 11  2  0  0  0  0
 15 14  1  0  0  0  0
 15 10  2  0  0  0  0
 16 13  2  0  0  0  0
 16 12  1  0  0  0  0
 17  8  1  0  0  0  0
 18 17  2  0  0  0  0
 19 17  1  0  0  0  0
 20 23  1  1  0  0  0
 20 19  1  0  0  0  0
 20 21  1  0  0  0  0
 21 22  2  0  0  0  0
 24 23  1  0  0  0  0
 24 25  1  0  0  0  0
 25 26  1  0  0  0  0
 25 29  1  1  0  0  0
 26 28  1  0  0  0  0
 27 26  2  0  0  0  0
 31 30  1  6  0  0  0
 31 29  1  0  0  0  0
 31 34  1  0  0  0  0
 34 33  1  1  0  0  0
 34 32  1  0  0  0  0
 35 36  1  0  0  0  0
 36 37  1  0  0  0  0
 37 38  1  6  0  0  0
 37 39  1  0  0  0  0
 39 44  1  0  0  0  0
 40 43  1  6  0  0  0
 40 41  1  0  0  0  0
 40 50  1  0  0  0  0
 42 45  1  0  0  0  0
 42 49  2  0  0  0  0
 44 47  2  0  0  0  0
 45 43  1  1  0  0  0
 46 41  1  0  0  0  0
 48 49  1  0  0  0  0
 48 44  1  0  0  0  0
 49 46  1  0  0  0  0
 50 52  1  6  0  0  0
 50 56  1  0  0  0  0
 50 53  1  0  0  0  0
 51 55  1  0  0  0  0
 52 54  1  0  0  0  0
 54 55  1  0  0  0  0
 56 55  1  0  0  0  0
 56 53  1  1  0  0  0
 58 57  1  1  0  0  0
 58 62  1  0  0  0  0
 60 58  1  0  0  0  0
 60 59  1  0  0  0  0
 61 59  1  1  0  0  0
 61 62  1  0  0  0  0
 61 45  1  0  0  0  0
 63 64  1  0  0  0  0
 64 60  1  0  0  0  0
M  END
>  <MODEL>
8

>  <REMARK>
 VINA RESULT:      -2.2      1.324      2.355
  Name = 
  21 active torsions:
  status: ('A' for Active; 'I' for Inactive)
    1  A    between atoms: C_1  and  C_6
    2  A    between atoms: C_2  and  C_29
    3  A    between atoms: C_2  and  C_38
    4  A    between atoms: C_13  and  C_60
    5  A    between atoms: C_14  and  N_17
    6  A    between atoms: C_14  and  N_39
    7  A    between atoms: C_18  and  CA_54
    8  A    between atoms: C_19  and  C_27
    9  A    between atoms: C_19  and  C_31
   10  A    between atoms: C_19  and  N_39
   11  A    between atoms: N_24  and  C_27
   12  A    between atoms: N_24  and  CA_54
   13  A    between atoms: C_26  and  C_38
   14  A    between atoms: C_26  and  O_40
   15  A    between atoms: C_30  and  C_60
   16  A    between atoms: C_33  and  C_48
   17  A    between atoms: O_40  and  C_61
   18  A    between atoms: N_45  and  C_46
   19  A    between atoms: C_49  and  C_58
   20  A    between atoms: C_50  and  CA_54
   21  A    between atoms: C_50  and  C_58
                            x       y       z     vdW  Elec       q    Type
                         _______ _______ _______ _____ _____    ______ ____

>  <TORSDO>
F 21

$$$$
=
 OpenBabel11032421243D

 64 69  0  0  1  0  0  0  0  0999 V2000
  186.9770  176.1980  136.5720 C   0  0  1  0  0  3  0  0  0  0  0  0
  187.1000  177.9920  134.9870 N   0  0  0  0  0  0  0  0  0  0  0  0
  188.2160  178.1470  135.9300 C   0  0  1  0  0  3  0  0  0  0  0  0
  187.9600  179.2070  137.0030 C   0  0  0  0  0  1  0  0  0  0  0  0
  188.3670  176.8020  136.6090 C   0  0  0  0  0  2  0  0  0  0  0  0
  186.1620  177.0360  135.5940 C   0  0  2  0  0  3  0  0  0  0  0  0
  186.4800  179.2590  134.5940 C   0  0  0  0  0  1  0  0  0  0  0  0
  185.8840  174.0240  136.2730 N   0  0  0  0  0  0  0  0  0  0  0  0
  186.9820  174.7290  136.2210 C   0  0  0  0  0  0  0  0  0  0  0  0
  190.3180  173.9350  134.5950 C   0  0  0  0  0  3  0  0  0  0  0  0
  188.5620  172.7710  136.4250 C   0  0  0  0  0  3  0  0  0  0  0  0
  191.8690  171.9860  134.7720 C   0  0  0  0  0  1  0  0  0  0  0  0
  189.7410  172.1110  136.0720 C   0  0  0  0  0  3  0  0  0  0  0  0
  188.2440  174.0200  135.8710 C   0  0  0  0  0  0  0  0  0  0  0  0
  189.1380  174.5940  134.9500 C   0  0  0  0  0  3  0  0  0  0  0  0
  190.6190  172.6930  135.1560 C   0  0  0  0  0  0  0  0  0  0  0  0
  184.5340  174.4260  136.5750 C   0  0  0  0  0  0  0  0  0  0  0  0
  184.0700  174.8850  138.0810 S   0  0  0  0  0  0  0  0  0  0  0  0
  183.6320  174.6850  135.4980 N   0  0  0  0  0  2  0  0  0  0  0  0
  182.3750  173.9720  135.3460 C   0  0  1  0  0  3  0  0  0  0  0  0
  182.0650  173.2130  136.5980 C   0  0  0  0  0  3  0  0  0  0  0  0
  182.1680  171.8880  136.6400 C   0  0  0  0  0  2  0  0  0  0  0  0
  181.2690  174.9670  135.0460 C   0  0  0  0  0  2  0  0  0  0  0  0
  180.0980  174.6540  135.8500 N   0  0  0  0  0  2  0  0  0  0  0  0
  179.3550  175.8910  136.0490 C   0  0  2  0  0  3  0  0  0  0  0  0
  180.1210  177.0530  135.5040 C   0  0  0  0  0  0  0  0  0  0  0  0
  181.3810  177.3650  136.0050 O   0  0  0  0  0  1  0  0  0  0  0  0
  179.6180  177.7630  134.5950 O   0  0  0  0  0  0  0  0  0  0  0  0
  178.9680  176.1010  137.5160 C   0  0  0  0  0  2  0  0  0  0  0  0
  178.9550  173.4460  138.1520 S   0  0  0  0  0  1  0  0  0  0  0  0
  179.6310  175.1080  138.4690 C   0  0  2  0  0  3  0  0  0  0  0  0
  180.1570  176.6100  140.2700 O   0  0  0  0  0  1  0  0  0  0  0  0
  179.6810  174.3650  140.8610 C   0  0  0  0  0  1  0  0  0  0  0  0
  179.3670  175.5130  139.9170 C   0  0  2  0  0  3  0  0  0  0  0  0
  185.1400  177.6890  136.2970 O   0  0  0  0  0  0  0  0  0  0  0  0
  185.6410  177.8510  137.5920 C   0  0  0  0  0  2  0  0  0  0  0  0
  184.5120  178.2190  138.5310 C   0  0  2  0  0  3  0  0  0  0  0  0
  183.3280  178.7140  137.7240 C   0  0  0  0  0  1  0  0  0  0  0  0
  184.9760  179.3100  139.4780 C   0  0  0  0  0  2  0  0  0  0  0  0
  190.2170  177.1220  142.9330 C   0  0  1  0  0  3  0  0  0  0  0  0
  188.9710  177.8790  142.8220 N   0  0  0  0  0  2  0  0  0  0  0  0
  189.3730  177.2910  139.9150 N   0  0  0  0  0  0  0  0  0  0  0  0
  191.0850  177.3500  141.6980 C   0  0  0  0  0  2  0  0  0  0  0  0
  186.0320  178.7890  140.3880 C   0  0  0  0  0  0  0  0  0  0  0  0
  190.5220  176.5910  140.4980 C   0  0  2  0  0  3  0  0  0  0  0  0
  188.0660  177.1250  141.9650 C   0  0  0  0  0  2  0  0  0  0  0  0
  185.8680  178.8540  141.6350 O   0  0  0  0  0  0  0  0  0  0  0  0
  187.2210  178.2260  139.8220 N   0  0  0  0  0  2  0  0  0  0  0  0
  188.2570  177.5410  140.5360 C   0  0  0  0  0  0  0  0  0  0  0  0
  191.0020  177.4980  144.1980 C   0  0  1  0  0  0  0  0  0  0  0  0
  189.4250  177.5520  147.3460 C   0  0  0  0  0  1  0  0  0  0  0  0
  191.7790  176.4360  144.9390 C   0  0  0  0  0  2  0  0  0  0  0  0
  191.3030  178.9490  144.5130 C   0  0  0  0  0  2  0  0  0  0  0  0
  191.2430  176.4750  146.3520 C   0  0  0  0  0  2  0  0  0  0  0  0
  190.6180  177.7770  146.5500 N   0  0  0  0  0  0  0  0  0  0  0  0
  190.1720  178.2240  145.2350 C   0  0  2  0  0  3  0  0  0  0  0  0
  191.0160  177.2060  135.7380 Cl  0  0  0  0  0  0  0  0  0  0  0  0
  192.0040  176.6680  137.1150 C   0  0  2  0  0  3  0  0  0  0  0  0
  191.4460  175.0560  138.7400 C   0  0  0  0  0  2  0  0  0  0  0  0
  191.8070  175.2370  137.3340 N   0  0  0  0  0  0  0  0  0  0  0  0
  191.6170  176.3810  139.4520 C   0  0  1  0  0  3  0  0  0  0  0  0
  191.5880  177.4180  138.3590 C   0  0  0  0  0  2  0  0  0  0  0  0
  194.1690  175.6540  136.9360 C   0  0  0  0  0  1  0  0  0  0  0  0
  193.0990  174.5990  137.1340 C   0  0  0  0  0  2  0  0  0  0  0  0
  1  9  1  6  0  0  0
  1  5  1  0  0  0  0
  2  6  1  0  0  0  0
  2  3  1  0  0  0  0
  3  5  1  0  0  0  0
  3  4  1  1  0  0  0
  6 35  1  1  0  0  0
  6  1  1  0  0  0  0
  7  2  1  0  0  0  0
  8 17  1  0  0  0  0
  9  8  2  0  0  0  0
 10 15  2  0  0  0  0
 10 16  1  0  0  0  0
 12 16  1  0  0  0  0
 13 11  1  0  0  0  0
 14  9  1  0  0  0  0
 14 11  2  0  0  0  0
 15 14  1  0  0  0  0
 16 13  2  0  0  0  0
 17 18  2  0  0  0  0
 19 17  1  0  0  0  0
 20 23  1  1  0  0  0
 20 19  1  0  0  0  0
 20 21  1  0  0  0  0
 21 22  2  0  0  0  0
 23 24  1  0  0  0  0
 24 25  1  0  0  0  0
 25 29  1  1  0  0  0
 26 27  1  0  0  0  0
 26 25  1  0  0  0  0
 28 26  2  0  0  0  0
 29 31  1  0  0  0  0
 31 30  1  1  0  0  0
 31 34  1  0  0  0  0
 34 32  1  0  0  0  0
 34 33  1  1  0  0  0
 35 36  1  0  0  0  0
 36 37  1  0  0  0  0
 37 38  1  6  0  0  0
 37 39  1  0  0  0  0
 39 44  1  0  0  0  0
 40 43  1  6  0  0  0
 40 50  1  0  0  0  0
 41 40  1  0  0  0  0
 42 45  1  0  0  0  0
 42 49  2  0  0  0  0
 44 47  2  0  0  0  0
 45 43  1  1  0  0  0
 46 41  1  0  0  0  0
 48 44  1  0  0  0  0
 48 49  1  0  0  0  0
 49 46  1  0  0  0  0
 50 53  1  6  0  0  0
 50 52  1  0  0  0  0
 50 56  1  0  0  0  0
 52 54  1  0  0  0  0
 54 55  1  0  0  0  0
 55 51  1  0  0  0  0
 56 53  1  1  0  0  0
 56 55  1  0  0  0  0
 58 57  1  6  0  0  0
 58 60  1  0  0  0  0
 58 62  1  0  0  0  0
 59 61  1  0  0  0  0
 60 59  1  0  0  0  0
 61 62  1  6  0  0  0
 61 45  1  0  0  0  0
 63 64  1  0  0  0  0
 64 60  1  0  0  0  0
M  END
>  <MODEL>
9

>  <REMARK>
 VINA RESULT:      -2.2      2.747      6.346
  Name = 
  21 active torsions:
  status: ('A' for Active; 'I' for Inactive)
    1  A    between atoms: C_1  and  C_6
    2  A    between atoms: C_2  and  C_29
    3  A    between atoms: C_2  and  C_38
    4  A    between atoms: C_13  and  C_60
    5  A    between atoms: C_14  and  N_17
    6  A    between atoms: C_14  and  N_39
    7  A    between atoms: C_18  and  CA_54
    8  A    between atoms: C_19  and  C_27
    9  A    between atoms: C_19  and  C_31
   10  A    between atoms: C_19  and  N_39
   11  A    between atoms: N_24  and  C_27
   12  A    between atoms: N_24  and  CA_54
   13  A    between atoms: C_26  and  C_38
   14  A    between atoms: C_26  and  O_40
   15  A    between atoms: C_30  and  C_60
   16  A    between atoms: C_33  and  C_48
   17  A    between atoms: O_40  and  C_61
   18  A    between atoms: N_45  and  C_46
   19  A    between atoms: C_49  and  C_58
   20  A    between atoms: C_50  and  CA_54
   21  A    between atoms: C_50  and  C_58
                            x       y       z     vdW  Elec       q    Type
                         _______ _______ _______ _____ _____    ______ ____

>  <TORSDO>
F 21

$$$$
