=
 OpenBabel11042410003D

 38 40  0  0  1  0  0  0  0  0999 V2000
  185.4970  178.6560  143.6310 C   0  0  0  0  0  2  0  0  0  0  0  0
  182.5210  178.8630  143.4870 C   0  0  0  0  0  0  0  0  0  0  0  0
  184.1400  179.0120  141.5260 C   0  0  0  0  0  3  0  0  0  0  0  0
  182.9280  178.8930  142.0800 C   0  0  0  0  0  0  0  0  0  0  0  0
  185.4240  179.2890  142.2530 C   0  0  0  0  0  2  0  0  0  0  0  0
  181.2390  178.7110  143.5590 N   0  0  0  0  0  0  0  0  0  0  0  0
  180.6920  178.6730  142.2680 N   0  0  0  0  0  0  0  0  0  0  0  0
  181.3980  178.7440  139.9910 N   0  0  0  0  0  2  0  0  0  0  0  0
  183.4030  178.6770  144.6830 C   0  0  0  0  0  2  0  0  0  0  0  0
  181.6430  178.7580  141.4010 C   0  0  0  0  0  0  0  0  0  0  0  0
  184.6510  179.4100  144.5430 N   0  0  0  0  0  0  0  0  0  0  0  0
  182.4300  178.9550  138.9860 C   0  0  1  0  0  3  0  0  0  0  0  0
  184.2310  177.2340  136.3550 C   0  0  0  0  0  3  0  0  0  0  0  0
  183.1090  177.6570  138.6710 C   0  0  0  0  0  3  0  0  0  0  0  0
  183.6700  177.4440  137.5120 C   0  0  0  0  0  0  0  0  0  0  0  0
  185.5380  176.6680  136.2870 N   0  0  0  0  0  2  0  0  0  0  0  0
  186.9520  177.5030  134.6130 O   0  0  0  0  0  1  0  0  0  0  0  0
  186.7260  177.4660  135.9930 C   0  0  2  0  0  3  0  0  0  0  0  0
  187.9740  176.9940  136.7650 C   0  0  0  0  0  0  0  0  0  0  0  0
  189.2010  176.9570  135.8680 C   0  0  0  0  0  1  0  0  0  0  0  0
  187.7410  175.6010  137.3270 C   0  0  0  0  0  1  0  0  0  0  0  0
  189.3730  177.3950  139.2510 O   0  0  0  0  0  1  0  0  0  0  0  0
  188.9070  179.4070  137.6480 O   0  0  0  0  0  0  0  0  0  0  0  0
  188.3010  178.1210  138.1610 P   0  0  0  0  0  0  0  0  0  0  0  0
  186.8520  178.4680  138.9590 O   0  0  0  0  0  1  0  0  0  0  0  0
  181.8510  179.5170  137.8120 O   0  0  0  0  0  0  0  0  0  0  0  0
  181.2470  180.7750  137.8030 C   0  0  0  0  0  0  0  0  0  0  0  0
  181.8620  181.8880  138.4500 N   0  0  0  0  0  1  0  0  0  0  0  0
  180.1420  180.9290  137.2220 O   0  0  0  0  0  0  0  0  0  0  0  0
  185.2770  179.3760  145.7960 N   0  0  0  0  0  2  0  0  0  0  0  0
  185.8490  178.1040  145.9280 N   0  0  0  0  0  2  0  0  0  0  0  0
  188.5230  178.0820  148.5510 C   0  0  0  0  0  3  0  0  0  0  0  0
  189.7400  177.5800  147.8180 C   0  0  0  0  0  2  0  0  0  0  0  0
  187.3350  178.2370  147.9610 C   0  0  0  0  0  3  0  0  0  0  0  0
  188.1390  177.4710  145.7880 C   0  0  0  0  0  3  0  0  0  0  0  0
  187.1280  177.9230  146.5320 C   0  0  0  0  0  0  0  0  0  0  0  0
  189.4750  177.2750  146.3690 C   0  0  0  0  0  0  0  0  0  0  0  0
  190.4090  176.8470  145.6450 O   0  0  0  0  0  0  0  0  0  0  0  0
  1 11  1  0  0  0  0
  2  6  2  0  0  0  0
  2  9  1  0  0  0  0
  3  4  2  0  0  0  0
  3  5  1  0  0  0  0
  4  2  1  0  0  0  0
  5  1  1  0  0  0  0
  7  6  1  0  0  0  0
  8 10  1  0  0  0  0
 10  4  1  0  0  0  0
 10  7  2  0  0  0  0
 11  9  1  0  0  0  0
 11 30  1  0  0  0  0
 12 14  1  6  0  0  0
 12  8  1  0  0  0  0
 13 15  2  0  0  0  0
 15 14  2  0  0  0  0
 16 13  1  0  0  0  0
 18 17  1  6  0  0  0
 18 16  1  0  0  0  0
 18 19  1  0  0  0  0
 19 21  1  0  0  0  0
 19 24  1  0  0  0  0
 20 19  1  0  0  0  0
 23 24  2  0  0  0  0
 24 25  1  0  0  0  0
 24 22  1  0  0  0  0
 26 12  1  0  0  0  0
 27 26  1  0  0  0  0
 27 28  1  0  0  0  0
 29 27  2  0  0  0  0
 30 31  1  0  0  0  0
 31 36  1  0  0  0  0
 33 32  1  0  0  0  0
 34 32  2  0  0  0  0
 35 37  1  0  0  0  0
 35 36  2  0  0  0  0
 36 34  1  0  0  0  0
 37 33  1  0  0  0  0
 38 37  2  0  0  0  0
M  END
>  <MODEL>
1

>  <REMARK>
 VINA RESULT:      -7.9      0.000      0.000
  Name = 
  11 active torsions:
  status: ('A' for Active; 'I' for Inactive)
    1  A    between atoms: C_2  and  O_4
    2  A    between atoms: C_2  and  C_15
    3  A    between atoms: C_2  and  N_20
    4  A    between atoms: O_4  and  C_7
    5  A    between atoms: C_13  and  N_17
    6  A    between atoms: N_17  and  C_33
    7  A    between atoms: N_19  and  C_23
    8  A    between atoms: N_19  and  N_37
    9  A    between atoms: C_21  and  P_29
   10  A    between atoms: C_21  and  C_33
   11  A    between atoms: N_31  and  N_37
                            x       y       z     vdW  Elec       q    Type
                         _______ _______ _______ _____ _____    ______ ____

>  <TORSDO>
F 11

$$$$
=
 OpenBabel11042410003D

 38 40  0  0  1  0  0  0  0  0999 V2000
  183.7780  179.0040  142.6360 C   0  0  0  0  0  2  0  0  0  0  0  0
  184.9140  178.6750  145.3790 C   0  0  0  0  0  0  0  0  0  0  0  0
  185.9930  177.9190  143.1980 C   0  0  0  0  0  3  0  0  0  0  0  0
  185.9860  178.1840  144.5100 C   0  0  0  0  0  0  0  0  0  0  0  0
  184.8030  177.9410  142.2830 C   0  0  0  0  0  2  0  0  0  0  0  0
  185.3640  178.8050  146.5840 N   0  0  0  0  0  0  0  0  0  0  0  0
  186.7030  178.3910  146.6380 N   0  0  0  0  0  0  0  0  0  0  0  0
  188.4140  177.5750  145.1910 N   0  0  0  0  0  2  0  0  0  0  0  0
  183.6100  179.2790  144.9570 C   0  0  0  0  0  2  0  0  0  0  0  0
  187.0880  178.0450  145.4570 C   0  0  0  0  0  0  0  0  0  0  0  0
  183.0430  178.5770  143.8160 N   0  0  0  0  0  0  0  0  0  0  0  0
  188.8510  177.0670  143.8980 C   0  0  1  0  0  3  0  0  0  0  0  0
  189.2870  177.7920  140.3750 C   0  0  0  0  0  3  0  0  0  0  0  0
  189.0320  178.2030  142.9380 C   0  0  0  0  0  3  0  0  0  0  0  0
  189.1610  177.9990  141.6550 C   0  0  0  0  0  0  0  0  0  0  0  0
  188.5380  178.5760  139.4480 N   0  0  0  0  0  2  0  0  0  0  0  0
  189.0360  179.7340  137.4710 O   0  0  0  0  0  1  0  0  0  0  0  0
  188.7280  178.4780  138.0030 C   0  0  2  0  0  3  0  0  0  0  0  0
  187.5300  177.8290  137.2820 C   0  0  0  0  0  0  0  0  0  0  0  0
  187.1780  178.5770  136.0060 C   0  0  0  0  0  1  0  0  0  0  0  0
  186.3140  177.8260  138.1940 C   0  0  0  0  0  1  0  0  0  0  0  0
  189.2750  175.5840  137.7380 O   0  0  0  0  0  1  0  0  0  0  0  0
  186.7480  175.2110  137.1850 O   0  0  0  0  0  1  0  0  0  0  0  0
  187.9250  176.1000  136.8580 P   0  0  0  0  0  0  0  0  0  0  0  0
  188.2660  175.9870  135.2060 O   0  0  0  0  0  0  0  0  0  0  0  0
  190.0660  176.3400  144.0510 O   0  0  0  0  0  0  0  0  0  0  0  0
  191.1930  176.8860  144.6680 C   0  0  0  0  0  0  0  0  0  0  0  0
  191.6950  176.3450  145.8880 N   0  0  0  0  0  1  0  0  0  0  0  0
  191.7700  177.8730  144.1440 O   0  0  0  0  0  0  0  0  0  0  0  0
  181.7320  179.0500  143.6680 N   0  0  0  0  0  2  0  0  0  0  0  0
  181.3060  178.6660  142.3900 N   0  0  0  0  0  2  0  0  0  0  0  0
  178.9330  181.3210  141.2250 C   0  0  0  0  0  3  0  0  0  0  0  0
  179.2640  181.4820  139.7650 C   0  0  0  0  0  2  0  0  0  0  0  0
  179.5680  180.4560  142.0210 C   0  0  0  0  0  3  0  0  0  0  0  0
  181.0240  179.6450  140.2390 C   0  0  0  0  0  3  0  0  0  0  0  0
  180.6500  179.5850  141.5180 C   0  0  0  0  0  0  0  0  0  0  0  0
  180.3720  180.5740  139.3050 C   0  0  0  0  0  0  0  0  0  0  0  0
  180.7450  180.6100  138.1050 O   0  0  0  0  0  0  0  0  0  0  0  0
  1 11  1  0  0  0  0
  2  6  2  0  0  0  0
  3  4  2  0  0  0  0
  4  2  1  0  0  0  0
  4 10  1  0  0  0  0
  5  1  1  0  0  0  0
  5  3  1  0  0  0  0
  6  7  1  0  0  0  0
  8 10  1  0  0  0  0
  9  2  1  0  0  0  0
 10  7  2  0  0  0  0
 11  9  1  0  0  0  0
 12 14  1  6  0  0  0
 12 26  1  0  0  0  0
 12  8  1  0  0  0  0
 13 15  2  0  0  0  0
 15 14  2  0  0  0  0
 16 13  1  0  0  0  0
 18 17  1  6  0  0  0
 18 16  1  0  0  0  0
 19 18  1  0  0  0  0
 19 21  1  0  0  0  0
 20 19  1  0  0  0  0
 24 23  1  0  0  0  0
 24 19  1  0  0  0  0
 24 22  1  0  0  0  0
 25 24  2  0  0  0  0
 26 27  1  0  0  0  0
 27 28  1  0  0  0  0
 29 27  2  0  0  0  0
 30 11  1  0  0  0  0
 31 30  1  0  0  0  0
 32 34  2  0  0  0  0
 33 32  1  0  0  0  0
 35 36  2  0  0  0  0
 36 34  1  0  0  0  0
 36 31  1  0  0  0  0
 37 33  1  0  0  0  0
 37 35  1  0  0  0  0
 38 37  2  0  0  0  0
M  END
>  <MODEL>
2

>  <REMARK>
 VINA RESULT:      -7.7      2.411      7.602
  Name = 
  11 active torsions:
  status: ('A' for Active; 'I' for Inactive)
    1  A    between atoms: C_2  and  O_4
    2  A    between atoms: C_2  and  C_15
    3  A    between atoms: C_2  and  N_20
    4  A    between atoms: O_4  and  C_7
    5  A    between atoms: C_13  and  N_17
    6  A    between atoms: N_17  and  C_33
    7  A    between atoms: N_19  and  C_23
    8  A    between atoms: N_19  and  N_37
    9  A    between atoms: C_21  and  P_29
   10  A    between atoms: C_21  and  C_33
   11  A    between atoms: N_31  and  N_37
                            x       y       z     vdW  Elec       q    Type
                         _______ _______ _______ _____ _____    ______ ____

>  <TORSDO>
F 11

$$$$
=
 OpenBabel11042410003D

 38 40  0  0  1  0  0  0  0  0999 V2000
  183.7410  179.0280  141.9730 C   0  0  0  0  0  2  0  0  0  0  0  0
  184.5120  178.8170  144.8500 C   0  0  0  0  0  0  0  0  0  0  0  0
  185.8600  177.9690  142.8610 C   0  0  0  0  0  3  0  0  0  0  0  0
  185.6850  178.2900  144.1490 C   0  0  0  0  0  0  0  0  0  0  0  0
  184.7970  177.9510  141.8000 C   0  0  0  0  0  2  0  0  0  0  0  0
  184.8050  179.0000  146.0970 N   0  0  0  0  0  0  0  0  0  0  0  0
  186.1230  178.5880  146.3410 N   0  0  0  0  0  0  0  0  0  0  0  0
  188.0020  177.7110  145.1620 N   0  0  0  0  0  2  0  0  0  0  0  0
  183.2770  179.4030  144.2390 C   0  0  0  0  0  2  0  0  0  0  0  0
  186.6560  178.1910  145.2340 C   0  0  0  0  0  0  0  0  0  0  0  0
  182.8580  178.6520  143.0660 N   0  0  0  0  0  0  0  0  0  0  0  0
  188.5990  177.1480  143.9590 C   0  0  1  0  0  3  0  0  0  0  0  0
  189.1800  177.7680  140.4370 C   0  0  0  0  0  3  0  0  0  0  0  0
  188.9210  178.2420  142.9890 C   0  0  0  0  0  3  0  0  0  0  0  0
  189.0520  178.0060  141.7110 C   0  0  0  0  0  0  0  0  0  0  0  0
  188.5390  178.6140  139.4840 N   0  0  0  0  0  2  0  0  0  0  0  0
  189.0740  179.7610  137.5100 O   0  0  0  0  0  1  0  0  0  0  0  0
  188.7810  178.5040  138.0470 C   0  0  2  0  0  3  0  0  0  0  0  0
  187.6250  177.8140  137.2950 C   0  0  0  0  0  0  0  0  0  0  0  0
  187.3010  178.5350  135.9960 C   0  0  0  0  0  1  0  0  0  0  0  0
  186.3780  177.7940  138.1640 C   0  0  0  0  0  1  0  0  0  0  0  0
  186.8280  175.0480  137.3760 O   0  0  0  0  0  1  0  0  0  0  0  0
  188.3230  175.9430  135.4280 O   0  0  0  0  0  0  0  0  0  0  0  0
  188.0780  176.0900  136.9120 P   0  0  0  0  0  0  0  0  0  0  0  0
  189.4850  175.6740  137.7530 O   0  0  0  0  0  1  0  0  0  0  0  0
  189.7730  176.4170  144.3000 O   0  0  0  0  0  0  0  0  0  0  0  0
  190.8240  176.9830  145.0230 C   0  0  0  0  0  0  0  0  0  0  0  0
  190.9460  176.7690  146.4280 N   0  0  0  0  0  1  0  0  0  0  0  0
  191.6720  177.6980  144.4300 O   0  0  0  0  0  0  0  0  0  0  0  0
  181.5800  179.1190  142.7300 N   0  0  0  0  0  2  0  0  0  0  0  0
  181.4350  178.9430  141.3470 N   0  0  0  0  0  2  0  0  0  0  0  0
  179.0590  176.1100  140.7460 C   0  0  0  0  0  3  0  0  0  0  0  0
  179.7670  175.2580  139.7250 C   0  0  0  0  0  2  0  0  0  0  0  0
  179.5800  177.2390  141.2340 C   0  0  0  0  0  3  0  0  0  0  0  0
  181.6160  177.0600  139.9030 C   0  0  0  0  0  3  0  0  0  0  0  0
  180.9020  177.7370  140.8030 C   0  0  0  0  0  0  0  0  0  0  0  0
  181.1070  175.8110  139.3200 C   0  0  0  0  0  0  0  0  0  0  0  0
  181.8010  175.1940  138.4730 O   0  0  0  0  0  0  0  0  0  0  0  0
  1 11  1  0  0  0  0
  2  6  2  0  0  0  0
  3  4  2  0  0  0  0
  4  2  1  0  0  0  0
  4 10  1  0  0  0  0
  5  1  1  0  0  0  0
  5  3  1  0  0  0  0
  6  7  1  0  0  0  0
  8 10  1  0  0  0  0
  9  2  1  0  0  0  0
 10  7  2  0  0  0  0
 11  9  1  0  0  0  0
 12 14  1  6  0  0  0
 12 26  1  0  0  0  0
 12  8  1  0  0  0  0
 13 15  2  0  0  0  0
 15 14  2  0  0  0  0
 16 13  1  0  0  0  0
 18 17  1  6  0  0  0
 18 16  1  0  0  0  0
 19 18  1  0  0  0  0
 19 21  1  0  0  0  0
 20 19  1  0  0  0  0
 23 24  2  0  0  0  0
 24 19  1  0  0  0  0
 24 22  1  0  0  0  0
 24 25  1  0  0  0  0
 26 27  1  0  0  0  0
 27 28  1  0  0  0  0
 29 27  2  0  0  0  0
 30 11  1  0  0  0  0
 31 30  1  0  0  0  0
 32 34  2  0  0  0  0
 33 32  1  0  0  0  0
 35 36  2  0  0  0  0
 36 34  1  0  0  0  0
 36 31  1  0  0  0  0
 37 33  1  0  0  0  0
 37 35  1  0  0  0  0
 38 37  2  0  0  0  0
M  END
>  <MODEL>
3

>  <REMARK>
 VINA RESULT:      -7.6      2.498      7.394
  Name = 
  11 active torsions:
  status: ('A' for Active; 'I' for Inactive)
    1  A    between atoms: C_2  and  O_4
    2  A    between atoms: C_2  and  C_15
    3  A    between atoms: C_2  and  N_20
    4  A    between atoms: O_4  and  C_7
    5  A    between atoms: C_13  and  N_17
    6  A    between atoms: N_17  and  C_33
    7  A    between atoms: N_19  and  C_23
    8  A    between atoms: N_19  and  N_37
    9  A    between atoms: C_21  and  P_29
   10  A    between atoms: C_21  and  C_33
   11  A    between atoms: N_31  and  N_37
                            x       y       z     vdW  Elec       q    Type
                         _______ _______ _______ _____ _____    ______ ____

>  <TORSDO>
F 11

$$$$
=
 OpenBabel11042410003D

 38 40  0  0  1  0  0  0  0  0999 V2000
  189.4180  178.0650  142.9320 C   0  0  0  0  0  2  0  0  0  0  0  0
  191.5950  177.3310  141.0250 C   0  0  0  0  0  0  0  0  0  0  0  0
  189.0910  177.1140  140.6100 C   0  0  0  0  0  3  0  0  0  0  0  0
  190.3770  177.1220  140.2390 C   0  0  0  0  0  0  0  0  0  0  0  0
  188.5740  177.1930  142.0180 C   0  0  0  0  0  2  0  0  0  0  0  0
  192.6240  177.2730  140.2430 N   0  0  0  0  0  0  0  0  0  0  0  0
  192.2110  176.9870  138.9340 N   0  0  0  0  0  0  0  0  0  0  0  0
  190.2020  176.6330  137.6970 N   0  0  0  0  0  2  0  0  0  0  0  0
  191.6950  177.8750  142.4160 C   0  0  0  0  0  2  0  0  0  0  0  0
  190.9230  176.9120  138.9020 C   0  0  0  0  0  0  0  0  0  0  0  0
  190.6390  177.3510  143.2690 N   0  0  0  0  0  0  0  0  0  0  0  0
  188.7610  176.4260  137.6440 C   0  0  1  0  0  3  0  0  0  0  0  0
  185.4800  177.9380  137.9160 C   0  0  0  0  0  3  0  0  0  0  0  0
  188.0580  177.7460  137.5680 C   0  0  0  0  0  3  0  0  0  0  0  0
  186.7680  177.8440  137.7410 C   0  0  0  0  0  0  0  0  0  0  0  0
  184.9480  178.9490  138.7700 N   0  0  0  0  0  2  0  0  0  0  0  0
  183.3860  180.6890  138.9430 O   0  0  0  0  0  1  0  0  0  0  0  0
  183.5320  179.3090  138.7720 C   0  0  2  0  0  3  0  0  0  0  0  0
  182.7130  178.5140  139.8090 C   0  0  0  0  0  0  0  0  0  0  0  0
  181.6110  179.3670  140.4190 C   0  0  0  0  0  1  0  0  0  0  0  0
  183.6210  178.0230  140.9240 C   0  0  0  0  0  1  0  0  0  0  0  0
  180.4620  176.7180  139.7360 O   0  0  0  0  0  1  0  0  0  0  0  0
  181.7440  177.3320  137.5420 O   0  0  0  0  0  0  0  0  0  0  0  0
  181.9540  177.0590  139.0140 P   0  0  0  0  0  0  0  0  0  0  0  0
  182.9730  175.7210  139.1920 O   0  0  0  0  0  1  0  0  0  0  0  0
  188.4330  175.6160  136.5190 O   0  0  0  0  0  0  0  0  0  0  0  0
  187.7470  174.4060  136.6410 C   0  0  0  0  0  0  0  0  0  0  0  0
  188.2530  173.2140  136.0460 N   0  0  0  0  0  1  0  0  0  0  0  0
  186.6630  174.3690  137.2790 O   0  0  0  0  0  0  0  0  0  0  0  0
  190.9700  177.7140  144.5810 N   0  0  0  0  0  2  0  0  0  0  0  0
  190.2770  176.8400  145.4290 N   0  0  0  0  0  2  0  0  0  0  0  0
  188.8060  178.0940  148.6380 C   0  0  0  0  0  3  0  0  0  0  0  0
  187.3500  178.2970  148.3100 C   0  0  0  0  0  2  0  0  0  0  0  0
  189.6940  177.6490  147.7460 C   0  0  0  0  0  3  0  0  0  0  0  0
  188.0420  177.4630  145.9600 C   0  0  0  0  0  3  0  0  0  0  0  0
  189.3070  177.3200  146.3590 C   0  0  0  0  0  0  0  0  0  0  0  0
  187.0100  177.9500  146.8870 C   0  0  0  0  0  0  0  0  0  0  0  0
  185.8260  178.0760  146.4840 O   0  0  0  0  0  0  0  0  0  0  0  0
  1 11  1  0  0  0  0
  2  9  1  0  0  0  0
  3  5  1  0  0  0  0
  4  3  2  0  0  0  0
  4  2  1  0  0  0  0
  5  1  1  0  0  0  0
  6  2  2  0  0  0  0
  7  6  1  0  0  0  0
  8 10  1  0  0  0  0
  9 11  1  0  0  0  0
 10  7  2  0  0  0  0
 10  4  1  0  0  0  0
 11 30  1  0  0  0  0
 12 14  1  6  0  0  0
 12  8  1  0  0  0  0
 13 16  1  0  0  0  0
 14 15  2  0  0  0  0
 15 13  2  0  0  0  0
 16 18  1  0  0  0  0
 18 17  1  1  0  0  0
 18 19  1  0  0  0  0
 19 20  1  0  0  0  0
 19 21  1  0  0  0  0
 23 24  2  0  0  0  0
 24 25  1  0  0  0  0
 24 22  1  0  0  0  0
 24 19  1  0  0  0  0
 26 27  1  0  0  0  0
 26 12  1  0  0  0  0
 27 29  2  0  0  0  0
 28 27  1  0  0  0  0
 30 31  1  0  0  0  0
 31 36  1  0  0  0  0
 33 32  1  0  0  0  0
 34 32  2  0  0  0  0
 35 36  2  0  0  0  0
 35 37  1  0  0  0  0
 36 34  1  0  0  0  0
 37 33  1  0  0  0  0
 38 37  2  0  0  0  0
M  END
>  <MODEL>
4

>  <REMARK>
 VINA RESULT:      -7.5      3.715      6.846
  Name = 
  11 active torsions:
  status: ('A' for Active; 'I' for Inactive)
    1  A    between atoms: C_2  and  O_4
    2  A    between atoms: C_2  and  C_15
    3  A    between atoms: C_2  and  N_20
    4  A    between atoms: O_4  and  C_7
    5  A    between atoms: C_13  and  N_17
    6  A    between atoms: N_17  and  C_33
    7  A    between atoms: N_19  and  C_23
    8  A    between atoms: N_19  and  N_37
    9  A    between atoms: C_21  and  P_29
   10  A    between atoms: C_21  and  C_33
   11  A    between atoms: N_31  and  N_37
                            x       y       z     vdW  Elec       q    Type
                         _______ _______ _______ _____ _____    ______ ____

>  <TORSDO>
F 11

$$$$
=
 OpenBabel11042410003D

 38 40  0  0  1  0  0  0  0  0999 V2000
  191.0310  177.1370  142.2800 C   0  0  0  0  0  2  0  0  0  0  0  0
  188.4170  178.2570  141.3680 C   0  0  0  0  0  0  0  0  0  0  0  0
  190.3450  177.5200  139.8760 C   0  0  0  0  0  3  0  0  0  0  0  0
  189.0840  177.8980  140.1140 C   0  0  0  0  0  0  0  0  0  0  0  0
  191.4680  177.4990  140.8720 C   0  0  0  0  0  2  0  0  0  0  0  0
  187.1780  178.5390  141.1290 N   0  0  0  0  0  0  0  0  0  0  0  0
  186.9260  178.4430  139.7520 N   0  0  0  0  0  0  0  0  0  0  0  0
  188.0580  177.8700  137.7320 N   0  0  0  0  0  2  0  0  0  0  0  0
  188.9130  178.0180  142.7610 C   0  0  0  0  0  2  0  0  0  0  0  0
  188.0010  178.0610  139.1500 C   0  0  0  0  0  0  0  0  0  0  0  0
  190.3410  178.2750  142.8670 N   0  0  0  0  0  0  0  0  0  0  0  0
  189.2790  177.5520  137.0050 C   0  0  1  0  0  3  0  0  0  0  0  0
  191.8980  175.1370  136.3500 C   0  0  0  0  0  3  0  0  0  0  0  0
  189.6430  176.1160  137.2220 C   0  0  0  0  0  3  0  0  0  0  0  0
  190.7720  175.6240  136.7850 C   0  0  0  0  0  0  0  0  0  0  0  0
  192.7030  174.3250  137.2040 N   0  0  0  0  0  2  0  0  0  0  0  0
  194.2920  176.0460  137.3000 O   0  0  0  0  0  1  0  0  0  0  0  0
  194.0620  174.6980  137.5900 C   0  0  2  0  0  3  0  0  0  0  0  0
  195.1350  173.7860  136.9620 C   0  0  0  0  0  0  0  0  0  0  0  0
  195.3750  174.1360  135.5020 C   0  0  0  0  0  1  0  0  0  0  0  0
  194.6980  172.3330  137.0480 C   0  0  0  0  0  1  0  0  0  0  0  0
  196.3980  174.1240  139.5280 O   0  0  0  0  0  1  0  0  0  0  0  0
  197.5680  172.7420  137.6430 O   0  0  0  0  0  1  0  0  0  0  0  0
  196.7050  173.9620  137.8720 P   0  0  0  0  0  0  0  0  0  0  0  0
  197.5250  175.3350  137.3250 O   0  0  0  0  0  0  0  0  0  0  0  0
  189.0970  177.8210  135.6180 O   0  0  0  0  0  0  0  0  0  0  0  0
  187.8840  177.5960  134.9640 C   0  0  0  0  0  0  0  0  0  0  0  0
  187.4840  176.2790  134.5940 N   0  0  0  0  0  1  0  0  0  0  0  0
  187.1360  178.5700  134.6920 O   0  0  0  0  0  0  0  0  0  0  0  0
  190.6460  178.2710  144.2350 N   0  0  0  0  0  2  0  0  0  0  0  0
  189.8300  177.2990  144.8280 N   0  0  0  0  0  2  0  0  0  0  0  0
  189.0820  177.8310  148.4600 C   0  0  0  0  0  3  0  0  0  0  0  0
  187.6050  178.1260  148.4830 C   0  0  0  0  0  2  0  0  0  0  0  0
  189.7540  177.5810  147.3330 C   0  0  0  0  0  3  0  0  0  0  0  0
  187.7800  177.8240  145.9190 C   0  0  0  0  0  3  0  0  0  0  0  0
  189.0870  177.5760  146.0150 C   0  0  0  0  0  0  0  0  0  0  0  0
  186.9770  178.1090  147.1160 C   0  0  0  0  0  0  0  0  0  0  0  0
  185.7470  178.3410  146.9960 O   0  0  0  0  0  0  0  0  0  0  0  0
  1 11  1  0  0  0  0
  2  9  1  0  0  0  0
  3  4  2  0  0  0  0
  3  5  1  0  0  0  0
  4  2  1  0  0  0  0
  5  1  1  0  0  0  0
  6  2  2  0  0  0  0
  7  6  1  0  0  0  0
  8 10  1  0  0  0  0
  9 11  1  0  0  0  0
 10  7  2  0  0  0  0
 10  4  1  0  0  0  0
 11 30  1  0  0  0  0
 12 14  1  6  0  0  0
 12  8  1  0  0  0  0
 13 15  2  0  0  0  0
 13 16  1  0  0  0  0
 15 14  2  0  0  0  0
 16 18  1  0  0  0  0
 18 17  1  6  0  0  0
 19 21  1  0  0  0  0
 19 18  1  0  0  0  0
 19 24  1  0  0  0  0
 20 19  1  0  0  0  0
 23 24  1  0  0  0  0
 24 22  1  0  0  0  0
 25 24  2  0  0  0  0
 26 12  1  0  0  0  0
 27 26  1  0  0  0  0
 28 27  1  0  0  0  0
 29 27  2  0  0  0  0
 30 31  1  0  0  0  0
 31 36  1  0  0  0  0
 32 33  1  0  0  0  0
 34 32  2  0  0  0  0
 35 36  2  0  0  0  0
 35 37  1  0  0  0  0
 36 34  1  0  0  0  0
 37 33  1  0  0  0  0
 38 37  2  0  0  0  0
M  END
>  <MODEL>
5

>  <REMARK>
 VINA RESULT:      -7.5      4.777      6.845
  Name = 
  11 active torsions:
  status: ('A' for Active; 'I' for Inactive)
    1  A    between atoms: C_2  and  O_4
    2  A    between atoms: C_2  and  C_15
    3  A    between atoms: C_2  and  N_20
    4  A    between atoms: O_4  and  C_7
    5  A    between atoms: C_13  and  N_17
    6  A    between atoms: N_17  and  C_33
    7  A    between atoms: N_19  and  C_23
    8  A    between atoms: N_19  and  N_37
    9  A    between atoms: C_21  and  P_29
   10  A    between atoms: C_21  and  C_33
   11  A    between atoms: N_31  and  N_37
                            x       y       z     vdW  Elec       q    Type
                         _______ _______ _______ _____ _____    ______ ____

>  <TORSDO>
F 11

$$$$
=
 OpenBabel11042410003D

 38 40  0  0  1  0  0  0  0  0999 V2000
  185.2910  178.2550  143.4440 C   0  0  0  0  0  2  0  0  0  0  0  0
  182.3830  178.9360  143.4510 C   0  0  0  0  0  0  0  0  0  0  0  0
  183.8130  178.4460  141.4000 C   0  0  0  0  0  3  0  0  0  0  0  0
  182.6550  178.6380  142.0430 C   0  0  0  0  0  0  0  0  0  0  0  0
  185.1880  178.6290  141.9760 C   0  0  0  0  0  2  0  0  0  0  0  0
  181.1060  179.0200  143.6320 N   0  0  0  0  0  0  0  0  0  0  0  0
  180.4400  178.8390  142.4110 N   0  0  0  0  0  0  0  0  0  0  0  0
  180.9300  178.3720  140.1240 N   0  0  0  0  0  2  0  0  0  0  0  0
  183.3350  178.8240  144.6020 C   0  0  0  0  0  2  0  0  0  0  0  0
  181.3070  178.6020  141.4860 C   0  0  0  0  0  0  0  0  0  0  0  0
  184.6630  179.2970  144.2420 N   0  0  0  0  0  0  0  0  0  0  0  0
  181.8830  178.2160  139.0340 C   0  0  1  0  0  3  0  0  0  0  0  0
  183.1040  176.1570  136.3150 C   0  0  0  0  0  3  0  0  0  0  0  0
  181.7710  176.8420  138.4490 C   0  0  0  0  0  3  0  0  0  0  0  0
  182.4370  176.4980  137.3800 C   0  0  0  0  0  0  0  0  0  0  0  0
  183.8100  174.9180  136.2810 N   0  0  0  0  0  2  0  0  0  0  0  0
  184.6510  173.3790  137.8380 O   0  0  0  0  0  1  0  0  0  0  0  0
  183.4950  173.8100  137.1790 C   0  0  2  0  0  3  0  0  0  0  0  0
  182.7740  172.6470  136.4680 C   0  0  0  0  0  0  0  0  0  0  0  0
  183.2130  171.3000  137.0210 C   0  0  0  0  0  1  0  0  0  0  0  0
  183.0740  172.6820  134.9790 C   0  0  0  0  0  1  0  0  0  0  0  0
  180.2470  171.2810  136.6770 O   0  0  0  0  0  1  0  0  0  0  0  0
  180.6760  173.4910  138.0050 O   0  0  0  0  0  1  0  0  0  0  0  0
  180.9710  172.8100  136.6880 P   0  0  0  0  0  0  0  0  0  0  0  0
  180.3290  173.7340  135.4260 O   0  0  0  0  0  0  0  0  0  0  0  0
  181.6410  179.2070  138.0380 O   0  0  0  0  0  0  0  0  0  0  0  0
  181.8860  180.5640  138.2560 C   0  0  0  0  0  0  0  0  0  0  0  0
  183.0940  181.0000  138.8760 N   0  0  0  0  0  1  0  0  0  0  0  0
  181.0260  181.4130  137.9080 O   0  0  0  0  0  0  0  0  0  0  0  0
  185.3910  179.3860  145.4350 N   0  0  0  0  0  2  0  0  0  0  0  0
  185.8880  178.1040  145.7030 N   0  0  0  0  0  2  0  0  0  0  0  0
  188.4170  178.0410  148.4660 C   0  0  0  0  0  3  0  0  0  0  0  0
  189.6720  177.5530  147.7920 C   0  0  0  0  0  2  0  0  0  0  0  0
  187.2620  178.2040  147.8150 C   0  0  0  0  0  3  0  0  0  0  0  0
  188.1840  177.4760  145.6770 C   0  0  0  0  0  3  0  0  0  0  0  0
  187.1340  177.9140  146.3730 C   0  0  0  0  0  0  0  0  0  0  0  0
  189.4860  177.2720  146.3260 C   0  0  0  0  0  0  0  0  0  0  0  0
  190.4590  176.8570  145.6470 O   0  0  0  0  0  0  0  0  0  0  0  0
  1 11  1  0  0  0  0
  2  6  2  0  0  0  0
  2  9  1  0  0  0  0
  3  5  1  0  0  0  0
  3  4  2  0  0  0  0
  4  2  1  0  0  0  0
  5  1  1  0  0  0  0
  7  6  1  0  0  0  0
  8 10  1  0  0  0  0
 10  4  1  0  0  0  0
 10  7  2  0  0  0  0
 11  9  1  0  0  0  0
 11 30  1  0  0  0  0
 12 14  1  6  0  0  0
 12  8  1  0  0  0  0
 13 15  2  0  0  0  0
 15 14  2  0  0  0  0
 16 13  1  0  0  0  0
 16 18  1  0  0  0  0
 18 17  1  6  0  0  0
 19 24  1  0  0  0  0
 19 20  1  0  0  0  0
 19 18  1  0  0  0  0
 21 19  1  0  0  0  0
 22 24  1  0  0  0  0
 24 23  1  0  0  0  0
 25 24  2  0  0  0  0
 26 27  1  0  0  0  0
 26 12  1  0  0  0  0
 27 28  1  0  0  0  0
 29 27  2  0  0  0  0
 30 31  1  0  0  0  0
 31 36  1  0  0  0  0
 33 32  1  0  0  0  0
 34 32  2  0  0  0  0
 35 37  1  0  0  0  0
 35 36  2  0  0  0  0
 36 34  1  0  0  0  0
 37 33  1  0  0  0  0
 38 37  2  0  0  0  0
M  END
>  <MODEL>
6

>  <REMARK>
 VINA RESULT:      -7.5      3.185      4.047
  Name = 
  11 active torsions:
  status: ('A' for Active; 'I' for Inactive)
    1  A    between atoms: C_2  and  O_4
    2  A    between atoms: C_2  and  C_15
    3  A    between atoms: C_2  and  N_20
    4  A    between atoms: O_4  and  C_7
    5  A    between atoms: C_13  and  N_17
    6  A    between atoms: N_17  and  C_33
    7  A    between atoms: N_19  and  C_23
    8  A    between atoms: N_19  and  N_37
    9  A    between atoms: C_21  and  P_29
   10  A    between atoms: C_21  and  C_33
   11  A    between atoms: N_31  and  N_37
                            x       y       z     vdW  Elec       q    Type
                         _______ _______ _______ _____ _____    ______ ____

>  <TORSDO>
F 11

$$$$
=
 OpenBabel11042410003D

 38 40  0  0  1  0  0  0  0  0999 V2000
  183.9890  178.9760  142.1690 C   0  0  0  0  0  2  0  0  0  0  0  0
  184.6620  178.8140  145.0740 C   0  0  0  0  0  0  0  0  0  0  0  0
  186.0530  177.8910  143.1500 C   0  0  0  0  0  3  0  0  0  0  0  0
  185.8450  178.2450  144.4240 C   0  0  0  0  0  0  0  0  0  0  0  0
  185.0250  177.8720  142.0560 C   0  0  0  0  0  2  0  0  0  0  0  0
  184.9180  179.0190  146.3260 N   0  0  0  0  0  0  0  0  0  0  0  0
  186.2180  178.5830  146.6220 N   0  0  0  0  0  0  0  0  0  0  0  0
  188.1140  177.6380  145.5250 N   0  0  0  0  0  2  0  0  0  0  0  0
  183.4610  179.4130  144.4100 C   0  0  0  0  0  2  0  0  0  0  0  0
  186.7770  178.1500  145.5430 C   0  0  0  0  0  0  0  0  0  0  0  0
  183.0620  178.6450  143.2410 N   0  0  0  0  0  0  0  0  0  0  0  0
  188.7350  177.0340  144.3550 C   0  0  1  0  0  3  0  0  0  0  0  0
  190.2280  177.5170  141.0890 C   0  0  0  0  0  3  0  0  0  0  0  0
  188.9940  178.0820  143.3170 C   0  0  0  0  0  3  0  0  0  0  0  0
  189.6130  177.8010  142.2010 C   0  0  0  0  0  0  0  0  0  0  0  0
  189.7060  177.9820  139.8460 N   0  0  0  0  0  2  0  0  0  0  0  0
  189.8520  175.9540  138.6780 O   0  0  0  0  0  1  0  0  0  0  0  0
  189.0650  177.0920  138.8810 C   0  0  2  0  0  3  0  0  0  0  0  0
  188.7210  177.7950  137.5520 C   0  0  0  0  0  0  0  0  0  0  0  0
  189.4860  177.1860  136.3870 C   0  0  0  0  0  1  0  0  0  0  0  0
  189.0660  179.2730  137.6410 C   0  0  0  0  0  1  0  0  0  0  0  0
  186.5960  178.1570  135.6410 O   0  0  0  0  0  0  0  0  0  0  0  0
  186.5000  176.2090  137.3810 O   0  0  0  0  0  1  0  0  0  0  0  0
  186.9340  177.6480  137.2190 P   0  0  0  0  0  0  0  0  0  0  0  0
  186.0750  178.6150  138.3080 O   0  0  0  0  0  1  0  0  0  0  0  0
  189.9490  176.3900  144.7330 O   0  0  0  0  0  0  0  0  0  0  0  0
  190.8350  176.9460  145.6570 C   0  0  0  0  0  0  0  0  0  0  0  0
  190.7640  176.6000  147.0390 N   0  0  0  0  0  1  0  0  0  0  0  0
  191.7050  177.7670  145.2680 O   0  0  0  0  0  0  0  0  0  0  0  0
  181.8070  179.1320  142.8530 N   0  0  0  0  0  2  0  0  0  0  0  0
  181.7200  178.9660  141.4640 N   0  0  0  0  0  2  0  0  0  0  0  0
  179.0110  176.4720  140.7740 C   0  0  0  0  0  3  0  0  0  0  0  0
  179.6230  175.5530  139.7490 C   0  0  0  0  0  2  0  0  0  0  0  0
  179.6640  177.5170  141.2910 C   0  0  0  0  0  3  0  0  0  0  0  0
  181.6850  177.0990  139.9890 C   0  0  0  0  0  3  0  0  0  0  0  0
  181.0460  177.8470  140.8900 C   0  0  0  0  0  0  0  0  0  0  0  0
  181.0300  175.9340  139.3760 C   0  0  0  0  0  0  0  0  0  0  0  0
  181.6540  175.2470  138.5290 O   0  0  0  0  0  0  0  0  0  0  0  0
  1 11  1  0  0  0  0
  2  6  2  0  0  0  0
  3  4  2  0  0  0  0
  4  2  1  0  0  0  0
  4 10  1  0  0  0  0
  5  1  1  0  0  0  0
  5  3  1  0  0  0  0
  6  7  1  0  0  0  0
  8 10  1  0  0  0  0
  9  2  1  0  0  0  0
 10  7  2  0  0  0  0
 11  9  1  0  0  0  0
 12 14  1  6  0  0  0
 12 26  1  0  0  0  0
 12  8  1  0  0  0  0
 13 15  2  0  0  0  0
 15 14  2  0  0  0  0
 16 13  1  0  0  0  0
 18 17  1  6  0  0  0
 18 16  1  0  0  0  0
 19 21  1  0  0  0  0
 19 18  1  0  0  0  0
 20 19  1  0  0  0  0
 22 24  2  0  0  0  0
 24 23  1  0  0  0  0
 24 19  1  0  0  0  0
 24 25  1  0  0  0  0
 26 27  1  0  0  0  0
 27 28  1  0  0  0  0
 29 27  2  0  0  0  0
 30 11  1  0  0  0  0
 31 30  1  0  0  0  0
 32 34  2  0  0  0  0
 33 32  1  0  0  0  0
 35 36  2  0  0  0  0
 36 34  1  0  0  0  0
 36 31  1  0  0  0  0
 37 33  1  0  0  0  0
 37 35  1  0  0  0  0
 38 37  2  0  0  0  0
M  END
>  <MODEL>
7

>  <REMARK>
 VINA RESULT:      -7.4      2.534      7.564
  Name = 
  11 active torsions:
  status: ('A' for Active; 'I' for Inactive)
    1  A    between atoms: C_2  and  O_4
    2  A    between atoms: C_2  and  C_15
    3  A    between atoms: C_2  and  N_20
    4  A    between atoms: O_4  and  C_7
    5  A    between atoms: C_13  and  N_17
    6  A    between atoms: N_17  and  C_33
    7  A    between atoms: N_19  and  C_23
    8  A    between atoms: N_19  and  N_37
    9  A    between atoms: C_21  and  P_29
   10  A    between atoms: C_21  and  C_33
   11  A    between atoms: N_31  and  N_37
                            x       y       z     vdW  Elec       q    Type
                         _______ _______ _______ _____ _____    ______ ____

>  <TORSDO>
F 11

$$$$
=
 OpenBabel11042410003D

 38 40  0  0  1  0  0  0  0  0999 V2000
  189.4220  177.7730  143.1040 C   0  0  0  0  0  2  0  0  0  0  0  0
  191.7860  177.4540  141.3080 C   0  0  0  0  0  0  0  0  0  0  0  0
  189.3900  176.7650  140.7850 C   0  0  0  0  0  3  0  0  0  0  0  0
  190.6670  177.0140  140.4710 C   0  0  0  0  0  0  0  0  0  0  0  0
  188.8020  176.7520  142.1660 C   0  0  0  0  0  2  0  0  0  0  0  0
  192.8430  177.5880  140.5740 N   0  0  0  0  0  0  0  0  0  0  0  0
  192.5520  177.2220  139.2510 N   0  0  0  0  0  0  0  0  0  0  0  0
  190.7070  176.4870  137.9310 N   0  0  0  0  0  2  0  0  0  0  0  0
  191.7170  178.0150  142.6940 C   0  0  0  0  0  2  0  0  0  0  0  0
  191.3050  176.9040  139.1630 C   0  0  0  0  0  0  0  0  0  0  0  0
  190.7400  177.3050  143.5060 N   0  0  0  0  0  0  0  0  0  0  0  0
  189.3350  176.0110  137.8170 C   0  0  1  0  0  3  0  0  0  0  0  0
  186.1910  177.0420  136.3410 C   0  0  0  0  0  3  0  0  0  0  0  0
  188.3960  177.1750  137.7270 C   0  0  0  0  0  3  0  0  0  0  0  0
  187.2920  177.1100  137.0330 C   0  0  0  0  0  0  0  0  0  0  0  0
  184.9650  177.5080  136.9020 N   0  0  0  0  0  2  0  0  0  0  0  0
  183.6990  175.6860  137.6580 O   0  0  0  0  0  1  0  0  0  0  0  0
  184.3340  176.8670  138.0530 C   0  0  2  0  0  3  0  0  0  0  0  0
  183.3760  177.8060  138.8130 C   0  0  0  0  0  0  0  0  0  0  0  0
  182.5030  177.0350  139.7900 C   0  0  0  0  0  1  0  0  0  0  0  0
  182.4770  178.5380  137.8310 C   0  0  0  0  0  1  0  0  0  0  0  0
  185.9720  178.6210  139.7580 O   0  0  0  0  0  1  0  0  0  0  0  0
  184.1820  180.4040  139.0870 O   0  0  0  0  0  0  0  0  0  0  0  0
  184.3350  179.0490  139.7400 P   0  0  0  0  0  0  0  0  0  0  0  0
  183.7680  179.1300  141.3300 O   0  0  0  0  0  1  0  0  0  0  0  0
  189.2100  175.1760  136.6690 O   0  0  0  0  0  0  0  0  0  0  0  0
  189.4540  173.8020  136.7120 C   0  0  0  0  0  0  0  0  0  0  0  0
  188.5020  172.8730  136.2000 N   0  0  0  0  0  1  0  0  0  0  0  0
  190.5250  173.3770  137.2160 O   0  0  0  0  0  0  0  0  0  0  0  0
  190.9340  177.7310  144.8270 N   0  0  0  0  0  2  0  0  0  0  0  0
  190.1720  176.8840  145.6410 N   0  0  0  0  0  2  0  0  0  0  0  0
  188.4720  178.2640  148.6810 C   0  0  0  0  0  3  0  0  0  0  0  0
  187.0400  178.4320  148.2450 C   0  0  0  0  0  2  0  0  0  0  0  0
  189.4240  177.7900  147.8720 C   0  0  0  0  0  3  0  0  0  0  0  0
  187.9000  177.5000  145.9890 C   0  0  0  0  0  3  0  0  0  0  0  0
  189.1360  177.3920  146.4800 C   0  0  0  0  0  0  0  0  0  0  0  0
  186.8010  178.0140  146.8200 C   0  0  0  0  0  0  0  0  0  0  0  0
  185.6460  178.1060  146.3320 O   0  0  0  0  0  0  0  0  0  0  0  0
  1 11  1  0  0  0  0
  2  9  1  0  0  0  0
  3  5  1  0  0  0  0
  4  3  2  0  0  0  0
  4  2  1  0  0  0  0
  5  1  1  0  0  0  0
  6  2  2  0  0  0  0
  7  6  1  0  0  0  0
  8 10  1  0  0  0  0
  9 11  1  0  0  0  0
 10  7  2  0  0  0  0
 10  4  1  0  0  0  0
 11 30  1  0  0  0  0
 12 14  1  6  0  0  0
 12  8  1  0  0  0  0
 13 16  1  0  0  0  0
 13 15  2  0  0  0  0
 15 14  2  0  0  0  0
 16 18  1  0  0  0  0
 18 17  1  6  0  0  0
 18 19  1  0  0  0  0
 19 24  1  0  0  0  0
 19 20  1  0  0  0  0
 21 19  1  0  0  0  0
 23 24  2  0  0  0  0
 24 22  1  0  0  0  0
 24 25  1  0  0  0  0
 26 27  1  0  0  0  0
 26 12  1  0  0  0  0
 27 29  2  0  0  0  0
 28 27  1  0  0  0  0
 30 31  1  0  0  0  0
 31 36  1  0  0  0  0
 33 32  1  0  0  0  0
 34 32  2  0  0  0  0
 35 36  2  0  0  0  0
 35 37  1  0  0  0  0
 36 34  1  0  0  0  0
 37 33  1  0  0  0  0
 38 37  2  0  0  0  0
M  END
>  <MODEL>
8

>  <REMARK>
 VINA RESULT:      -7.3      3.717      6.814
  Name = 
  11 active torsions:
  status: ('A' for Active; 'I' for Inactive)
    1  A    between atoms: C_2  and  O_4
    2  A    between atoms: C_2  and  C_15
    3  A    between atoms: C_2  and  N_20
    4  A    between atoms: O_4  and  C_7
    5  A    between atoms: C_13  and  N_17
    6  A    between atoms: N_17  and  C_33
    7  A    between atoms: N_19  and  C_23
    8  A    between atoms: N_19  and  N_37
    9  A    between atoms: C_21  and  P_29
   10  A    between atoms: C_21  and  C_33
   11  A    between atoms: N_31  and  N_37
                            x       y       z     vdW  Elec       q    Type
                         _______ _______ _______ _____ _____    ______ ____

>  <TORSDO>
F 11

$$$$
=
 OpenBabel11042410003D

 38 40  0  0  1  0  0  0  0  0999 V2000
  187.1540  177.0680  144.4370 C   0  0  0  0  0  2  0  0  0  0  0  0
  184.6550  178.5860  145.0450 C   0  0  0  0  0  0  0  0  0  0  0  0
  185.4690  177.8820  142.7350 C   0  0  0  0  0  3  0  0  0  0  0  0
  184.5630  178.3520  143.6010 C   0  0  0  0  0  0  0  0  0  0  0  0
  186.9120  177.5900  143.0320 C   0  0  0  0  0  2  0  0  0  0  0  0
  183.5210  179.0320  145.4790 N   0  0  0  0  0  0  0  0  0  0  0  0
  182.6250  179.1740  144.4090 N   0  0  0  0  0  0  0  0  0  0  0  0
  182.5280  178.7960  142.0560 N   0  0  0  0  0  2  0  0  0  0  0  0
  185.7130  178.0870  145.9790 C   0  0  0  0  0  2  0  0  0  0  0  0
  183.1950  178.7750  143.3230 C   0  0  0  0  0  0  0  0  0  0  0  0
  187.0360  178.1710  145.3780 N   0  0  0  0  0  0  0  0  0  0  0  0
  183.1730  178.4640  140.7940 C   0  0  1  0  0  3  0  0  0  0  0  0
  183.0240  176.0870  138.0640 C   0  0  0  0  0  3  0  0  0  0  0  0
  183.0120  177.0040  140.5060 C   0  0  0  0  0  3  0  0  0  0  0  0
  183.0170  176.5430  139.2840 C   0  0  0  0  0  0  0  0  0  0  0  0
  183.8060  174.9400  137.7350 N   0  0  0  0  0  2  0  0  0  0  0  0
  184.8860  176.0370  135.9670 O   0  0  0  0  0  1  0  0  0  0  0  0
  185.0150  175.0220  136.9200 C   0  0  2  0  0  3  0  0  0  0  0  0
  185.3950  173.6750  136.2730 C   0  0  0  0  0  0  0  0  0  0  0  0
  184.9920  173.6290  134.8070 C   0  0  0  0  0  1  0  0  0  0  0  0
  184.7040  172.5340  137.0020 C   0  0  0  0  0  1  0  0  0  0  0  0
  187.5360  172.2630  137.5840 O   0  0  0  0  0  1  0  0  0  0  0  0
  187.7340  172.9350  135.0660 O   0  0  0  0  0  0  0  0  0  0  0  0
  187.1960  173.4160  136.3940 P   0  0  0  0  0  0  0  0  0  0  0  0
  187.9500  174.8730  136.8050 O   0  0  0  0  0  1  0  0  0  0  0  0
  182.6120  179.2480  139.7450 O   0  0  0  0  0  0  0  0  0  0  0  0
  183.3250  180.2620  139.1030 C   0  0  0  0  0  0  0  0  0  0  0  0
  182.6720  181.4510  138.6620 N   0  0  0  0  0  1  0  0  0  0  0  0
  184.5590  180.1230  138.9040 O   0  0  0  0  0  0  0  0  0  0  0  0
  187.9560  177.9260  146.4050 N   0  0  0  0  0  2  0  0  0  0  0  0
  189.2220  178.2540  145.9010 N   0  0  0  0  0  2  0  0  0  0  0  0
  191.6820  175.8060  144.4920 C   0  0  0  0  0  3  0  0  0  0  0  0
  192.4260  175.3080  145.7040 C   0  0  0  0  0  2  0  0  0  0  0  0
  190.7030  176.7110  144.5650 C   0  0  0  0  0  3  0  0  0  0  0  0
  190.8660  176.9240  146.9900 C   0  0  0  0  0  3  0  0  0  0  0  0
  190.2750  177.2930  145.8530 C   0  0  0  0  0  0  0  0  0  0  0  0
  191.9530  175.9330  146.9880 C   0  0  0  0  0  0  0  0  0  0  0  0
  192.4930  175.6030  148.0740 O   0  0  0  0  0  0  0  0  0  0  0  0
  1 11  1  0  0  0  0
  2  6  2  0  0  0  0
  2  9  1  0  0  0  0
  3  5  1  0  0  0  0
  3  4  2  0  0  0  0
  4  2  1  0  0  0  0
  5  1  1  0  0  0  0
  7  6  1  0  0  0  0
  8 10  1  0  0  0  0
 10  4  1  0  0  0  0
 10  7  2  0  0  0  0
 11  9  1  0  0  0  0
 11 30  1  0  0  0  0
 12 14  1  6  0  0  0
 12  8  1  0  0  0  0
 13 15  2  0  0  0  0
 15 14  2  0  0  0  0
 16 13  1  0  0  0  0
 18 17  1  6  0  0  0
 18 16  1  0  0  0  0
 19 24  1  0  0  0  0
 19 18  1  0  0  0  0
 19 21  1  0  0  0  0
 20 19  1  0  0  0  0
 23 24  2  0  0  0  0
 24 25  1  0  0  0  0
 24 22  1  0  0  0  0
 26 12  1  0  0  0  0
 27 26  1  0  0  0  0
 28 27  1  0  0  0  0
 29 27  2  0  0  0  0
 31 30  1  0  0  0  0
 32 34  2  0  0  0  0
 32 33  1  0  0  0  0
 33 37  1  0  0  0  0
 34 36  1  0  0  0  0
 36 31  1  0  0  0  0
 36 35  2  0  0  0  0
 37 35  1  0  0  0  0
 37 38  2  0  0  0  0
M  END
>  <MODEL>
9

>  <REMARK>
 VINA RESULT:      -7.3      2.704      3.556
  Name = 
  11 active torsions:
  status: ('A' for Active; 'I' for Inactive)
    1  A    between atoms: C_2  and  O_4
    2  A    between atoms: C_2  and  C_15
    3  A    between atoms: C_2  and  N_20
    4  A    between atoms: O_4  and  C_7
    5  A    between atoms: C_13  and  N_17
    6  A    between atoms: N_17  and  C_33
    7  A    between atoms: N_19  and  C_23
    8  A    between atoms: N_19  and  N_37
    9  A    between atoms: C_21  and  P_29
   10  A    between atoms: C_21  and  C_33
   11  A    between atoms: N_31  and  N_37
                            x       y       z     vdW  Elec       q    Type
                         _______ _______ _______ _____ _____    ______ ____

>  <TORSDO>
F 11

$$$$
