=
 OpenBabel11032420593D

 39 43  0  0  1  0  0  0  0  0999 V2000
  185.3760  179.5430  145.8810 N   0  0  0  0  0  0  0  0  0  0  0  0
  186.3820  178.6530  145.2760 C   0  0  2  0  0  3  0  0  0  0  0  0
  184.7400  178.1420  143.4230 C   0  0  2  0  0  3  0  0  0  0  0  0
  184.0320  179.0100  145.6710 C   0  0  0  0  0  2  0  0  0  0  0  0
  183.7010  178.9880  144.1810 C   0  0  2  0  0  3  0  0  0  0  0  0
  185.6050  179.6490  147.3150 C   0  0  0  0  0  1  0  0  0  0  0  0
  186.1650  178.5950  143.7620 C   0  0  0  0  0  2  0  0  0  0  0  0
  185.6870  178.9820  141.2730 C   0  0  0  0  0  1  0  0  0  0  0  0
  184.5310  178.2400  141.9180 C   0  0  0  0  0  2  0  0  0  0  0  0
  182.2980  178.4140  144.0200 C   0  0  0  0  0  2  0  0  0  0  0  0
  181.3870  179.3790  143.2790 C   0  0  0  0  0  2  0  0  0  0  0  0
  180.0490  180.8600  141.2550 O   0  0  0  0  0  0  0  0  0  0  0  0
  181.2220  178.9470  141.8990 N   0  0  0  0  0  2  0  0  0  0  0  0
  180.5230  179.7350  140.9380 C   0  0  0  0  0  0  0  0  0  0  0  0
  180.3380  179.1980  139.5540 C   0  0  2  0  0  3  0  0  0  0  0  0
  180.4240  177.8050  139.5500 O   0  0  0  0  0  1  0  0  0  0  0  0
  181.3310  179.8070  138.5610 C   0  0  0  0  0  0  0  0  0  0  0  0
  182.3020  178.7870  138.0050 C   0  0  0  0  0  2  0  0  0  0  0  0
  182.7800  179.8250  139.0070 C   0  0  0  0  0  2  0  0  0  0  0  0
  180.9980  183.1470  137.0550 O   0  0  0  0  0  1  0  0  0  0  0  0
  180.8840  182.2100  138.0810 C   0  0  1  0  0  3  0  0  0  0  0  0
  179.7070  181.4660  137.8970 O   0  0  0  0  0  0  0  0  0  0  0  0
  180.9090  180.8410  137.5100 C   0  0  2  0  0  3  0  0  0  0  0  0
  186.3900  177.2430  145.8820 C   0  0  0  0  0  2  0  0  0  0  0  0
  187.7690  176.6170  145.7360 C   0  0  0  0  0  2  0  0  0  0  0  0
  188.5940  176.7480  147.0170 C   0  0  1  0  0  3  0  0  0  0  0  0
  190.9860  176.4750  147.4860 N   0  0  0  0  0  2  0  0  0  0  0  0
  190.3110  177.2110  145.3160 N   0  0  2  0  0  0  0  0  0  0  0  0
  191.3520  177.9000  142.5860 C   0  0  0  0  0  2  0  0  0  0  0  0
  190.2010  178.6090  143.3060 C   0  0  0  0  0  2  0  0  0  0  0  0
  190.3700  178.5800  144.8210 C   0  0  0  0  0  2  0  0  0  0  0  0
  190.0100  177.2720  146.7450 C   0  0  1  0  0  3  0  0  0  0  0  0
  191.6610  176.6920  145.2350 C   0  0  1  0  0  3  0  0  0  0  0  0
  191.8910  175.9190  146.4980 C   0  0  0  0  0  2  0  0  0  0  0  0
  191.8410  175.7960  144.0110 C   0  0  0  0  0  2  0  0  0  0  0  0
  191.2790  176.3720  142.7030 C   0  0  1  0  0  3  0  0  0  0  0  0
  189.9810  175.9060  142.4820 O   0  0  0  0  0  1  0  0  0  0  0  0
  187.9330  177.5790  147.9290 O   0  0  0  0  0  0  0  0  0  0  0  0
  188.9360  178.3860  148.4710 C   0  0  0  0  0  1  0  0  0  0  0  0
  1  6  1  0  0  0  0
  2  1  1  0  0  0  0
  2 24  1  1  0  0  0
  3  9  1  6  0  0  0
  3  7  1  0  0  0  0
  3  5  1  0  0  0  0
  4  1  1  0  0  0  0
  5 10  1  1  0  0  0
  5  4  1  0  0  0  0
  7  2  1  0  0  0  0
  8  9  1  0  0  0  0
 11 10  1  0  0  0  0
 13 11  1  0  0  0  0
 14 12  2  0  0  0  0
 14 13  1  0  0  0  0
 15 16  1  1  0  0  0
 15 14  1  0  0  0  0
 17 19  1  0  0  0  0
 17 15  1  0  0  0  0
 18 17  1  0  0  0  0
 18 19  1  0  0  0  0
 21 20  1  6  0  0  0
 22 21  1  0  0  0  0
 23 22  1  0  0  0  0
 23 21  1  0  0  0  0
 23 17  1  1  0  0  0
 25 24  1  0  0  0  0
 26 25  1  6  0  0  0
 26 38  1  0  0  0  0
 28 31  1  1  0  0  0
 28 32  1  0  0  0  0
 29 36  1  0  0  0  0
 29 30  1  0  0  0  0
 30 31  1  0  0  0  0
 32 26  1  6  0  0  0
 32 27  1  0  0  0  0
 33 35  1  6  0  0  0
 33 28  1  0  0  0  0
 33 34  1  0  0  0  0
 34 27  1  0  0  0  0
 36 37  1  1  0  0  0
 36 35  1  0  0  0  0
 38 39  1  0  0  0  0
M  END
>  <MODEL>
1

>  <REMARK>
 VINA RESULT:      -7.5      0.000      0.000
  Name = 
  12 active torsions:
  status: ('A' for Active; 'I' for Inactive)
    1  A    between atoms: C_2  and  N_19
    2  A    between atoms: C_2  and  C_27
    3  A    between atoms: O_3  and  C_4
    4  A    between atoms: C_4  and  C_18
    5  A    between atoms: C_4  and  C_21
    6  A    between atoms: C_6  and  C_32
    7  A    between atoms: C_14  and  C_17
    8  A    between atoms: C_14  and  C_34
    9  A    between atoms: C_15  and  C_35
   10  A    between atoms: C_18  and  C_32
   11  A    between atoms: C_24  and  C_34
   12  A    between atoms: C_25  and  C_27
                            x       y       z     vdW  Elec       q    Type
                         _______ _______ _______ _____ _____    ______ ____

>  <TORSDO>
F 12

$$$$
=
 OpenBabel11032420593D

 39 43  0  0  1  0  0  0  0  0999 V2000
  186.3850  176.8360  143.7680 N   0  0  0  0  0  0  0  0  0  0  0  0
  186.1700  177.5800  145.0210 C   0  0  2  0  0  3  0  0  0  0  0  0
  184.6720  179.1770  143.7570 C   0  0  2  0  0  3  0  0  0  0  0  0
  186.4080  177.7520  142.6300 C   0  0  0  0  0  2  0  0  0  0  0  0
  185.0450  178.4240  142.4670 C   0  0  2  0  0  3  0  0  0  0  0  0
  187.6630  176.1390  143.8160 C   0  0  0  0  0  1  0  0  0  0  0  0
  184.8010  178.2610  144.9810 C   0  0  0  0  0  2  0  0  0  0  0  0
  182.2550  178.6190  144.0190 C   0  0  0  0  0  1  0  0  0  0  0  0
  183.2500  179.7140  143.6840 C   0  0  0  0  0  2  0  0  0  0  0  0
  185.1290  179.3730  141.2770 C   0  0  0  0  0  2  0  0  0  0  0  0
  184.6860  178.6900  139.9930 C   0  0  0  0  0  2  0  0  0  0  0  0
  184.6720  177.3750  137.4740 O   0  0  0  0  0  0  0  0  0  0  0  0
  185.7210  178.8190  138.9790 N   0  0  0  0  0  2  0  0  0  0  0  0
  185.6590  178.1150  137.7400 C   0  0  0  0  0  0  0  0  0  0  0  0
  186.7900  178.2470  136.7710 C   0  0  2  0  0  3  0  0  0  0  0  0
  186.3500  178.0190  135.4650 O   0  0  0  0  0  1  0  0  0  0  0  0
  187.9590  177.3220  137.1190 C   0  0  0  0  0  0  0  0  0  0  0  0
  188.1940  176.2550  136.0710 C   0  0  0  0  0  2  0  0  0  0  0  0
  187.5930  175.8820  137.4160 C   0  0  0  0  0  2  0  0  0  0  0  0
  190.5240  177.8380  139.7060 O   0  0  0  0  0  1  0  0  0  0  0  0
  189.2260  177.8480  139.1990 C   0  0  1  0  0  3  0  0  0  0  0  0
  189.0310  179.0240  138.4570 O   0  0  0  0  0  0  0  0  0  0  0  0
  189.2700  177.8500  137.7160 C   0  0  2  0  0  3  0  0  0  0  0  0
  187.2790  178.5980  145.3220 C   0  0  0  0  0  2  0  0  0  0  0  0
  187.7360  178.4640  146.7690 C   0  0  0  0  0  2  0  0  0  0  0  0
  188.6340  177.2430  146.9720 C   0  0  1  0  0  3  0  0  0  0  0  0
  190.9380  176.8350  147.7080 N   0  0  0  0  0  2  0  0  0  0  0  0
  190.5150  177.2110  145.3870 N   0  0  2  0  0  0  0  0  0  0  0  0
  191.8310  177.2710  142.6890 C   0  0  0  0  0  2  0  0  0  0  0  0
  190.7150  178.2090  143.1580 C   0  0  0  0  0  2  0  0  0  0  0  0
  190.7640  178.4500  144.6630 C   0  0  0  0  0  2  0  0  0  0  0  0
  190.1160  177.5680  146.7460 C   0  0  1  0  0  3  0  0  0  0  0  0
  191.8010  176.5590  145.5290 C   0  0  1  0  0  3  0  0  0  0  0  0
  191.8480  176.0190  146.9260 C   0  0  0  0  0  2  0  0  0  0  0  0
  191.9730  175.4360  144.5080 C   0  0  0  0  0  2  0  0  0  0  0  0
  191.5800  175.8060  143.0710 C   0  0  1  0  0  3  0  0  0  0  0  0
  190.2580  175.4330  142.8150 O   0  0  0  0  0  1  0  0  0  0  0  0
  188.4390  176.7130  148.2520 O   0  0  0  0  0  0  0  0  0  0  0  0
  187.8940  177.7610  148.9960 C   0  0  0  0  0  1  0  0  0  0  0  0
  1  6  1  0  0  0  0
  1  2  1  0  0  0  0
  2 24  1  6  0  0  0
  3  9  1  6  0  0  0
  3  7  1  0  0  0  0
  4  1  1  0  0  0  0
  5 10  1  6  0  0  0
  5  4  1  0  0  0  0
  5  3  1  0  0  0  0
  7  2  1  0  0  0  0
  9  8  1  0  0  0  0
 11 10  1  0  0  0  0
 12 14  2  0  0  0  0
 13 11  1  0  0  0  0
 14 13  1  0  0  0  0
 15 16  1  6  0  0  0
 15 17  1  0  0  0  0
 15 14  1  0  0  0  0
 17 19  1  0  0  0  0
 18 17  1  0  0  0  0
 18 19  1  0  0  0  0
 21 20  1  1  0  0  0
 22 21  1  0  0  0  0
 23 17  1  6  0  0  0
 23 22  1  0  0  0  0
 23 21  1  0  0  0  0
 24 25  1  0  0  0  0
 26 25  1  1  0  0  0
 26 38  1  0  0  0  0
 28 31  1  6  0  0  0
 28 33  1  0  0  0  0
 28 32  1  0  0  0  0
 29 36  1  0  0  0  0
 29 30  1  0  0  0  0
 30 31  1  0  0  0  0
 32 26  1  1  0  0  0
 32 27  1  0  0  0  0
 33 35  1  6  0  0  0
 33 34  1  0  0  0  0
 34 27  1  0  0  0  0
 36 37  1  1  0  0  0
 36 35  1  0  0  0  0
 38 39  1  0  0  0  0
M  END
>  <MODEL>
2

>  <REMARK>
 VINA RESULT:      -7.4      2.998      4.783
  Name = 
  12 active torsions:
  status: ('A' for Active; 'I' for Inactive)
    1  A    between atoms: C_2  and  N_19
    2  A    between atoms: C_2  and  C_27
    3  A    between atoms: O_3  and  C_4
    4  A    between atoms: C_4  and  C_18
    5  A    between atoms: C_4  and  C_21
    6  A    between atoms: C_6  and  C_32
    7  A    between atoms: C_14  and  C_17
    8  A    between atoms: C_14  and  C_34
    9  A    between atoms: C_15  and  C_35
   10  A    between atoms: C_18  and  C_32
   11  A    between atoms: C_24  and  C_34
   12  A    between atoms: C_25  and  C_27
                            x       y       z     vdW  Elec       q    Type
                         _______ _______ _______ _____ _____    ______ ____

>  <TORSDO>
F 12

$$$$
=
 OpenBabel11032420593D

 39 43  0  0  1  0  0  0  0  0999 V2000
  184.7140  179.2650  141.6310 N   0  0  0  0  0  0  0  0  0  0  0  0
  183.5450  179.4090  142.5160 C   0  0  2  0  0  3  0  0  0  0  0  0
  184.9740  178.6220  144.4470 C   0  0  2  0  0  3  0  0  0  0  0  0
  185.5310  178.1280  142.0480 C   0  0  0  0  0  2  0  0  0  0  0  0
  186.1110  178.3780  143.4380 C   0  0  2  0  0  3  0  0  0  0  0  0
  184.2750  179.0340  140.2620 C   0  0  0  0  0  1  0  0  0  0  0  0
  184.0180  179.7080  143.9400 C   0  0  0  0  0  2  0  0  0  0  0  0
  184.9610  178.1520  146.8970 C   0  0  0  0  0  1  0  0  0  0  0  0
  185.5270  179.0380  145.8030 C   0  0  0  0  0  2  0  0  0  0  0  0
  186.9420  177.1600  143.8260 C   0  0  0  0  0  2  0  0  0  0  0  0
  188.2790  177.1500  143.1030 C   0  0  0  0  0  2  0  0  0  0  0  0
  190.2600  178.8630  144.2090 O   0  0  0  0  0  0  0  0  0  0  0  0
  189.3330  176.7290  144.0140 N   0  0  0  0  0  2  0  0  0  0  0  0
  190.3070  177.6410  144.5180 C   0  0  0  0  0  0  0  0  0  0  0  0
  191.3990  177.1250  145.4000 C   0  0  2  0  0  3  0  0  0  0  0  0
  192.0090  176.0070  144.8270 O   0  0  0  0  0  1  0  0  0  0  0  0
  190.9000  176.8070  146.8120 C   0  0  0  0  0  0  0  0  0  0  0  0
  191.9970  176.2900  147.7180 C   0  0  0  0  0  2  0  0  0  0  0  0
  190.9250  175.3420  147.2040 C   0  0  0  0  0  2  0  0  0  0  0  0
  187.9990  177.6260  148.9200 O   0  0  0  0  0  1  0  0  0  0  0  0
  188.6470  177.0000  147.8570 C   0  0  1  0  0  3  0  0  0  0  0  0
  188.7460  177.9000  146.7830 O   0  0  0  0  0  0  0  0  0  0  0  0
  189.9110  177.7140  147.5540 C   0  0  2  0  0  3  0  0  0  0  0  0
  182.6120  178.1900  142.4940 C   0  0  0  0  0  2  0  0  0  0  0  0
  181.1810  178.6200  142.7880 C   0  0  0  0  0  2  0  0  0  0  0  0
  180.7630  179.8250  141.9450 C   0  0  1  0  0  3  0  0  0  0  0  0
  180.1260  180.4020  139.6470 N   0  0  0  0  0  2  0  0  0  0  0  0
  180.3680  178.1000  140.2360 N   0  0  2  0  0  0  0  0  0  0  0  0
  180.3070  175.3180  139.1090 C   0  0  0  0  0  2  0  0  0  0  0  0
  179.7930  175.7320  140.4900 C   0  0  0  0  0  2  0  0  0  0  0  0
  179.2820  177.1680  140.5050 C   0  0  0  0  0  2  0  0  0  0  0  0
  179.9480  179.4160  140.7110 C   0  0  1  0  0  3  0  0  0  0  0  0
  180.4470  178.2260  138.7940 C   0  0  1  0  0  3  0  0  0  0  0  0
  180.6650  179.6810  138.5100 C   0  0  0  0  0  2  0  0  0  0  0  0
  181.5870  177.3860  138.2230 C   0  0  0  0  0  2  0  0  0  0  0  0
  181.6620  175.9500  138.7620 C   0  0  1  0  0  3  0  0  0  0  0  0
  182.5470  175.8780  139.8400 O   0  0  0  0  0  1  0  0  0  0  0  0
  180.0410  180.7320  142.7290 O   0  0  0  0  0  0  0  0  0  0  0  0
  179.1370  179.9450  143.4460 C   0  0  0  0  0  1  0  0  0  0  0  0
  1  4  1  0  0  0  0
  1  2  1  0  0  0  0
  2 24  1  1  0  0  0
  2  7  1  0  0  0  0
  3  9  1  1  0  0  0
  4  5  1  0  0  0  0
  5 10  1  1  0  0  0
  5  3  1  0  0  0  0
  6  1  1  0  0  0  0
  7  3  1  0  0  0  0
  9  8  1  0  0  0  0
 11 10  1  0  0  0  0
 11 13  1  0  0  0  0
 12 14  2  0  0  0  0
 13 14  1  0  0  0  0
 14 15  1  0  0  0  0
 15 16  1  6  0  0  0
 15 17  1  0  0  0  0
 17 19  1  0  0  0  0
 17 18  1  0  0  0  0
 19 18  1  0  0  0  0
 21 20  1  1  0  0  0
 22 23  1  0  0  0  0
 22 21  1  0  0  0  0
 23 17  1  6  0  0  0
 23 21  1  0  0  0  0
 24 25  1  0  0  0  0
 26 38  1  0  0  0  0
 26 25  1  1  0  0  0
 27 32  1  0  0  0  0
 28 31  1  6  0  0  0
 28 32  1  0  0  0  0
 29 30  1  0  0  0  0
 30 31  1  0  0  0  0
 32 26  1  1  0  0  0
 33 35  1  1  0  0  0
 33 28  1  0  0  0  0
 34 33  1  0  0  0  0
 34 27  1  0  0  0  0
 35 36  1  0  0  0  0
 36 29  1  0  0  0  0
 36 37  1  1  0  0  0
 38 39  1  0  0  0  0
M  END
>  <MODEL>
3

>  <REMARK>
 VINA RESULT:      -7.0      2.203     10.275
  Name = 
  12 active torsions:
  status: ('A' for Active; 'I' for Inactive)
    1  A    between atoms: C_2  and  N_19
    2  A    between atoms: C_2  and  C_27
    3  A    between atoms: O_3  and  C_4
    4  A    between atoms: C_4  and  C_18
    5  A    between atoms: C_4  and  C_21
    6  A    between atoms: C_6  and  C_32
    7  A    between atoms: C_14  and  C_17
    8  A    between atoms: C_14  and  C_34
    9  A    between atoms: C_15  and  C_35
   10  A    between atoms: C_18  and  C_32
   11  A    between atoms: C_24  and  C_34
   12  A    between atoms: C_25  and  C_27
                            x       y       z     vdW  Elec       q    Type
                         _______ _______ _______ _____ _____    ______ ____

>  <TORSDO>
F 12

$$$$
=
 OpenBabel11032420593D

 39 43  0  0  1  0  0  0  0  0999 V2000
  185.6330  179.2150  142.1790 N   0  0  0  0  0  0  0  0  0  0  0  0
  184.5470  179.2830  143.1720 C   0  0  2  0  0  3  0  0  0  0  0  0
  185.9580  177.8860  144.7360 C   0  0  2  0  0  3  0  0  0  0  0  0
  186.3060  177.9200  142.2490 C   0  0  0  0  0  2  0  0  0  0  0  0
  186.9920  177.7550  143.6040 C   0  0  2  0  0  3  0  0  0  0  0  0
  185.0910  179.3740  140.8370 C   0  0  0  0  0  1  0  0  0  0  0  0
  185.1350  179.1710  144.5800 C   0  0  0  0  0  2  0  0  0  0  0  0
  186.0020  178.9350  147.0000 C   0  0  0  0  0  1  0  0  0  0  0  0
  186.6370  177.8930  146.0980 C   0  0  0  0  0  2  0  0  0  0  0  0
  187.6660  176.3880  143.6250 C   0  0  0  0  0  2  0  0  0  0  0  0
  189.0630  176.4500  143.0300 C   0  0  0  0  0  2  0  0  0  0  0  0
  191.2920  177.3540  141.5150 O   0  0  0  0  0  0  0  0  0  0  0  0
  188.9990  176.9370  141.6610 N   0  0  0  0  0  2  0  0  0  0  0  0
  190.1570  177.3930  140.9640 C   0  0  0  0  0  0  0  0  0  0  0  0
  190.0060  177.9390  139.5800 C   0  0  2  0  0  3  0  0  0  0  0  0
  188.7840  178.6010  139.4420 O   0  0  0  0  0  1  0  0  0  0  0  0
  190.1590  176.8540  138.5110 C   0  0  0  0  0  0  0  0  0  0  0  0
  189.6720  177.3020  137.1490 C   0  0  0  0  0  2  0  0  0  0  0  0
  188.8670  176.2940  137.9520 C   0  0  0  0  0  2  0  0  0  0  0  0
  193.7530  176.0670  138.5300 O   0  0  0  0  0  1  0  0  0  0  0  0
  192.6190  176.7660  138.1220 C   0  0  1  0  0  3  0  0  0  0  0  0
  191.9570  176.0310  137.1250 O   0  0  0  0  0  0  0  0  0  0  0  0
  191.4060  175.9650  138.4200 C   0  0  2  0  0  3  0  0  0  0  0  0
  183.4540  178.2290  142.9500 C   0  0  0  0  0  2  0  0  0  0  0  0
  182.3410  178.8010  142.0820 C   0  0  0  0  0  2  0  0  0  0  0  0
  181.1630  179.2980  142.9220 C   0  0  1  0  0  3  0  0  0  0  0  0
  179.6820  180.9150  141.8230 N   0  0  0  0  0  2  0  0  0  0  0  0
  180.0030  178.7730  140.8160 N   0  0  2  0  0  0  0  0  0  0  0  0
  179.3220  177.1350  138.3950 C   0  0  0  0  0  2  0  0  0  0  0  0
  179.4400  176.6040  139.8260 C   0  0  0  0  0  2  0  0  0  0  0  0
  179.0670  177.6590  140.8610 C   0  0  0  0  0  2  0  0  0  0  0  0
  179.8940  179.4920  142.0830 C   0  0  1  0  0  3  0  0  0  0  0  0
  179.4960  179.6890  139.8150 C   0  0  1  0  0  3  0  0  0  0  0  0
  179.6660  181.0670  140.3810 C   0  0  0  0  0  2  0  0  0  0  0  0
  180.2520  179.5480  138.4960 C   0  0  0  0  0  2  0  0  0  0  0  0
  180.4530  178.1020  138.0200 C   0  0  1  0  0  3  0  0  0  0  0  0
  181.6950  177.6180  138.4400 O   0  0  0  0  0  1  0  0  0  0  0  0
  180.9200  178.4120  143.9780 O   0  0  0  0  0  0  0  0  0  0  0  0
  179.6160  178.6940  144.3900 C   0  0  0  0  0  1  0  0  0  0  0  0
  1  4  1  0  0  0  0
  1  2  1  0  0  0  0
  2 24  1  6  0  0  0
  2  7  1  0  0  0  0
  3  9  1  1  0  0  0
  4  5  1  0  0  0  0
  5 10  1  6  0  0  0
  5  3  1  0  0  0  0
  6  1  1  0  0  0  0
  7  3  1  0  0  0  0
  9  8  1  0  0  0  0
 11 10  1  0  0  0  0
 13 11  1  0  0  0  0
 14 12  2  0  0  0  0
 14 13  1  0  0  0  0
 15 16  1  1  0  0  0
 15 14  1  0  0  0  0
 17 15  1  0  0  0  0
 18 19  1  0  0  0  0
 18 17  1  0  0  0  0
 19 17  1  0  0  0  0
 21 23  1  0  0  0  0
 21 20  1  1  0  0  0
 22 21  1  0  0  0  0
 22 23  1  0  0  0  0
 23 17  1  6  0  0  0
 25 24  1  0  0  0  0
 26 25  1  6  0  0  0
 26 38  1  0  0  0  0
 27 32  1  0  0  0  0
 28 31  1  1  0  0  0
 28 32  1  0  0  0  0
 29 30  1  0  0  0  0
 30 31  1  0  0  0  0
 32 26  1  1  0  0  0
 33 35  1  6  0  0  0
 33 34  1  0  0  0  0
 33 28  1  0  0  0  0
 34 27  1  0  0  0  0
 36 29  1  0  0  0  0
 36 37  1  1  0  0  0
 36 35  1  0  0  0  0
 38 39  1  0  0  0  0
M  END
>  <MODEL>
4

>  <REMARK>
 VINA RESULT:      -7.0      2.939      9.626
  Name = 
  12 active torsions:
  status: ('A' for Active; 'I' for Inactive)
    1  A    between atoms: C_2  and  N_19
    2  A    between atoms: C_2  and  C_27
    3  A    between atoms: O_3  and  C_4
    4  A    between atoms: C_4  and  C_18
    5  A    between atoms: C_4  and  C_21
    6  A    between atoms: C_6  and  C_32
    7  A    between atoms: C_14  and  C_17
    8  A    between atoms: C_14  and  C_34
    9  A    between atoms: C_15  and  C_35
   10  A    between atoms: C_18  and  C_32
   11  A    between atoms: C_24  and  C_34
   12  A    between atoms: C_25  and  C_27
                            x       y       z     vdW  Elec       q    Type
                         _______ _______ _______ _____ _____    ______ ____

>  <TORSDO>
F 12

$$$$
=
 OpenBabel11032420593D

 39 43  0  0  1  0  0  0  0  0999 V2000
  186.5430  177.8710  141.6220 N   0  0  0  0  0  0  0  0  0  0  0  0
  187.7380  177.4680  142.3840 C   0  0  2  0  0  3  0  0  0  0  0  0
  186.4890  177.9900  144.5190 C   0  0  2  0  0  3  0  0  0  0  0  0
  185.8580  178.9710  142.2950 C   0  0  0  0  0  2  0  0  0  0  0  0
  185.3290  178.5120  143.6520 C   0  0  2  0  0  3  0  0  0  0  0  0
  186.9300  178.3200  140.2920 C   0  0  0  0  0  1  0  0  0  0  0  0
  187.3140  176.9440  143.7580 C   0  0  0  0  0  2  0  0  0  0  0  0
  186.5630  178.0850  147.0110 C   0  0  0  0  0  1  0  0  0  0  0  0
  185.9710  177.3720  145.8100 C   0  0  0  0  0  2  0  0  0  0  0  0
  184.6360  179.6980  144.3120 C   0  0  0  0  0  2  0  0  0  0  0  0
  183.1360  179.4740  144.4160 C   0  0  0  0  0  2  0  0  0  0  0  0
  180.6550  178.3670  143.5800 O   0  0  0  0  0  0  0  0  0  0  0  0
  182.5060  179.7160  143.1270 N   0  0  0  0  0  2  0  0  0  0  0  0
  181.2650  179.1130  142.7660 C   0  0  0  0  0  0  0  0  0  0  0  0
  180.7080  179.3580  141.3990 C   0  0  2  0  0  3  0  0  0  0  0  0
  179.3140  179.2820  141.4140 O   0  0  0  0  0  1  0  0  0  0  0  0
  181.2930  178.4010  140.3570 C   0  0  0  0  0  0  0  0  0  0  0  0
  180.2960  178.0270  139.2810 C   0  0  0  0  0  2  0  0  0  0  0  0
  180.6970  177.0080  140.3350 C   0  0  0  0  0  2  0  0  0  0  0  0
  184.2450  180.2110  139.1150 O   0  0  0  0  0  1  0  0  0  0  0  0
  182.8910  179.8860  139.1530 C   0  0  1  0  0  3  0  0  0  0  0  0
  182.6760  178.7180  138.4030 O   0  0  0  0  0  0  0  0  0  0  0  0
  182.7140  178.5640  139.8030 C   0  0  2  0  0  3  0  0  0  0  0  0
  188.7770  178.5890  142.5230 C   0  0  0  0  0  2  0  0  0  0  0  0
  190.1840  178.0120  142.4450 C   0  0  0  0  0  2  0  0  0  0  0  0
  190.3100  176.9640  141.3380 C   0  0  1  0  0  3  0  0  0  0  0  0
  192.4700  177.5960  140.3630 N   0  0  0  0  0  2  0  0  0  0  0  0
  190.7970  176.6450  138.9480 N   0  0  2  0  0  0  0  0  0  0  0  0
  190.2810  175.7010  136.1450 C   0  0  0  0  0  2  0  0  0  0  0  0
  189.2710  176.4170  137.0450 C   0  0  0  0  0  2  0  0  0  0  0  0
  189.9480  177.3760  138.0180 C   0  0  0  0  0  2  0  0  0  0  0  0
  191.0350  177.5100  140.1010 C   0  0  1  0  0  3  0  0  0  0  0  0
  192.0870  176.5130  138.3020 C   0  0  1  0  0  3  0  0  0  0  0  0
  193.1170  176.7720  139.3600 C   0  0  0  0  0  2  0  0  0  0  0  0
  192.2690  175.1220  137.6980 C   0  0  0  0  0  2  0  0  0  0  0  0
  191.0720  174.6120  136.8830 C   0  0  1  0  0  3  0  0  0  0  0  0
  190.2350  173.8300  137.6830 O   0  0  0  0  0  1  0  0  0  0  0  0
  190.9650  175.8280  141.8260 O   0  0  0  0  0  0  0  0  0  0  0  0
  190.9870  175.9940  143.2130 C   0  0  0  0  0  1  0  0  0  0  0  0
  1  4  1  0  0  0  0
  1  2  1  0  0  0  0
  2 24  1  1  0  0  0
  2  7  1  0  0  0  0
  3  9  1  1  0  0  0
  4  5  1  0  0  0  0
  5 10  1  1  0  0  0
  5  3  1  0  0  0  0
  6  1  1  0  0  0  0
  7  3  1  0  0  0  0
  9  8  1  0  0  0  0
 10 11  1  0  0  0  0
 13 11  1  0  0  0  0
 14 13  1  0  0  0  0
 14 12  2  0  0  0  0
 15 16  1  1  0  0  0
 15 14  1  0  0  0  0
 17 15  1  0  0  0  0
 18 19  1  0  0  0  0
 18 17  1  0  0  0  0
 19 17  1  0  0  0  0
 21 20  1  6  0  0  0
 21 23  1  0  0  0  0
 22 21  1  0  0  0  0
 22 23  1  0  0  0  0
 23 17  1  1  0  0  0
 25 24  1  0  0  0  0
 26 38  1  0  0  0  0
 26 25  1  1  0  0  0
 28 31  1  6  0  0  0
 28 32  1  0  0  0  0
 29 36  1  0  0  0  0
 29 30  1  0  0  0  0
 30 31  1  0  0  0  0
 32 27  1  0  0  0  0
 32 26  1  1  0  0  0
 33 35  1  1  0  0  0
 33 28  1  0  0  0  0
 33 34  1  0  0  0  0
 34 27  1  0  0  0  0
 36 37  1  1  0  0  0
 36 35  1  0  0  0  0
 38 39  1  0  0  0  0
M  END
>  <MODEL>
5

>  <REMARK>
 VINA RESULT:      -7.0      3.268      4.920
  Name = 
  12 active torsions:
  status: ('A' for Active; 'I' for Inactive)
    1  A    between atoms: C_2  and  N_19
    2  A    between atoms: C_2  and  C_27
    3  A    between atoms: O_3  and  C_4
    4  A    between atoms: C_4  and  C_18
    5  A    between atoms: C_4  and  C_21
    6  A    between atoms: C_6  and  C_32
    7  A    between atoms: C_14  and  C_17
    8  A    between atoms: C_14  and  C_34
    9  A    between atoms: C_15  and  C_35
   10  A    between atoms: C_18  and  C_32
   11  A    between atoms: C_24  and  C_34
   12  A    between atoms: C_25  and  C_27
                            x       y       z     vdW  Elec       q    Type
                         _______ _______ _______ _____ _____    ______ ____

>  <TORSDO>
F 12

$$$$
=
 OpenBabel11032420593D

 39 43  0  0  1  0  0  0  0  0999 V2000
  189.6920  177.2930  137.4030 N   0  0  0  0  0  0  0  0  0  0  0  0
  188.2270  177.3860  137.5320 C   0  0  2  0  0  3  0  0  0  0  0  0
  188.5170  177.6930  140.0240 C   0  0  2  0  0  3  0  0  0  0  0  0
  190.2630  176.6250  138.5700 C   0  0  0  0  0  2  0  0  0  0  0  0
  190.0250  177.4600  139.8250 C   0  0  2  0  0  3  0  0  0  0  0  0
  190.0390  176.5200  136.2190 C   0  0  0  0  0  1  0  0  0  0  0  0
  187.8760  178.2480  138.7460 C   0  0  0  0  0  2  0  0  0  0  0  0
  186.8210  178.5490  141.6420 C   0  0  0  0  0  1  0  0  0  0  0  0
  188.2590  178.6600  141.1710 C   0  0  0  0  0  2  0  0  0  0  0  0
  190.6300  176.7130  141.0080 C   0  0  0  0  0  2  0  0  0  0  0  0
  191.8460  177.4400  141.5590 C   0  0  0  0  0  2  0  0  0  0  0  0
  191.8290  175.6970  143.8040 O   0  0  0  0  0  0  0  0  0  0  0  0
  191.5990  177.8510  142.9330 N   0  0  0  0  0  2  0  0  0  0  0  0
  191.5890  176.9180  144.0120 C   0  0  0  0  0  0  0  0  0  0  0  0
  191.2660  177.4040  145.3890 C   0  0  2  0  0  3  0  0  0  0  0  0
  192.0240  176.7210  146.3430 O   0  0  0  0  0  1  0  0  0  0  0  0
  189.7720  177.2960  145.7040 C   0  0  0  0  0  0  0  0  0  0  0  0
  188.9850  176.6390  144.5900 C   0  0  0  0  0  2  0  0  0  0  0  0
  188.8550  178.1330  144.8350 C   0  0  0  0  0  2  0  0  0  0  0  0
  187.8750  177.6770  148.8330 O   0  0  0  0  0  1  0  0  0  0  0  0
  188.7660  178.0860  147.8420 C   0  0  1  0  0  3  0  0  0  0  0  0
  190.0270  177.5210  148.0950 O   0  0  0  0  0  0  0  0  0  0  0  0
  189.2550  176.9020  147.0930 C   0  0  2  0  0  3  0  0  0  0  0  0
  187.5360  176.0180  137.6130 C   0  0  0  0  0  2  0  0  0  0  0  0
  186.4270  175.9290  136.5730 C   0  0  0  0  0  2  0  0  0  0  0  0
  185.1800  175.2400  137.1300 C   0  0  1  0  0  3  0  0  0  0  0  0
  182.7860  175.1520  136.6000 N   0  0  0  0  0  2  0  0  0  0  0  0
  183.5900  176.8890  138.0290 N   0  0  2  0  0  0  0  0  0  0  0  0
  182.7030  179.2040  139.7220 C   0  0  0  0  0  2  0  0  0  0  0  0
  183.9810  179.1530  138.8810 C   0  0  0  0  0  2  0  0  0  0  0  0
  183.8180  178.2750  137.6450 C   0  0  0  0  0  2  0  0  0  0  0  0
  183.9040  176.0530  136.8730 C   0  0  1  0  0  3  0  0  0  0  0  0
  182.1600  176.7510  138.2190 C   0  0  1  0  0  3  0  0  0  0  0  0
  181.7790  175.4380  137.6040 C   0  0  0  0  0  2  0  0  0  0  0  0
  181.7880  176.7830  139.7000 C   0  0  0  0  0  2  0  0  0  0  0  0
  182.4520  177.9080  140.5060 C   0  0  1  0  0  3  0  0  0  0  0  0
  183.6220  177.4490  141.1160 O   0  0  0  0  0  1  0  0  0  0  0  0
  185.0580  173.9560  136.5870 O   0  0  0  0  0  0  0  0  0  0  0  0
  186.1040  173.2260  137.1540 C   0  0  0  0  0  1  0  0  0  0  0  0
  1  2  1  0  0  0  0
  1  4  1  0  0  0  0
  2 24  1  1  0  0  0
  2  7  1  0  0  0  0
  3  9  1  1  0  0  0
  4  5  1  0  0  0  0
  5  3  1  0  0  0  0
  5 10  1  1  0  0  0
  6  1  1  0  0  0  0
  7  3  1  0  0  0  0
  9  8  1  0  0  0  0
 10 11  1  0  0  0  0
 11 13  1  0  0  0  0
 12 14  2  0  0  0  0
 13 14  1  0  0  0  0
 14 15  1  0  0  0  0
 15 17  1  0  0  0  0
 15 16  1  1  0  0  0
 18 19  1  0  0  0  0
 18 17  1  0  0  0  0
 19 17  1  0  0  0  0
 21 22  1  0  0  0  0
 21 20  1  1  0  0  0
 23 17  1  6  0  0  0
 23 21  1  0  0  0  0
 23 22  1  0  0  0  0
 25 24  1  0  0  0  0
 26 25  1  6  0  0  0
 27 32  1  0  0  0  0
 27 34  1  0  0  0  0
 28 31  1  6  0  0  0
 28 33  1  0  0  0  0
 29 36  1  0  0  0  0
 30 29  1  0  0  0  0
 31 30  1  0  0  0  0
 32 26  1  1  0  0  0
 32 28  1  0  0  0  0
 33 34  1  1  0  0  0
 33 35  1  0  0  0  0
 35 36  1  0  0  0  0
 36 37  1  6  0  0  0
 38 26  1  0  0  0  0
 38 39  1  0  0  0  0
M  END
>  <MODEL>
6

>  <REMARK>
 VINA RESULT:      -7.0      3.704     10.621
  Name = 
  12 active torsions:
  status: ('A' for Active; 'I' for Inactive)
    1  A    between atoms: C_2  and  N_19
    2  A    between atoms: C_2  and  C_27
    3  A    between atoms: O_3  and  C_4
    4  A    between atoms: C_4  and  C_18
    5  A    between atoms: C_4  and  C_21
    6  A    between atoms: C_6  and  C_32
    7  A    between atoms: C_14  and  C_17
    8  A    between atoms: C_14  and  C_34
    9  A    between atoms: C_15  and  C_35
   10  A    between atoms: C_18  and  C_32
   11  A    between atoms: C_24  and  C_34
   12  A    between atoms: C_25  and  C_27
                            x       y       z     vdW  Elec       q    Type
                         _______ _______ _______ _____ _____    ______ ____

>  <TORSDO>
F 12

$$$$
=
 OpenBabel11032420593D

 39 43  0  0  1  0  0  0  0  0999 V2000
  184.3160  179.5300  140.2320 N   0  0  0  0  0  0  0  0  0  0  0  0
  183.2250  178.7630  140.8570 C   0  0  2  0  0  3  0  0  0  0  0  0
  184.8150  178.1080  142.7100 C   0  0  2  0  0  3  0  0  0  0  0  0
  185.5960  178.8580  140.4440 C   0  0  0  0  0  2  0  0  0  0  0  0
  185.9340  178.8250  141.9330 C   0  0  2  0  0  3  0  0  0  0  0  0
  184.0900  179.6380  138.7970 C   0  0  0  0  0  1  0  0  0  0  0  0
  183.4440  178.7060  142.3700 C   0  0  0  0  0  2  0  0  0  0  0  0
  183.8920  178.9420  144.8720 C   0  0  0  0  0  1  0  0  0  0  0  0
  185.0420  178.2070  144.2110 C   0  0  0  0  0  2  0  0  0  0  0  0
  187.2680  178.1060  142.0950 C   0  0  0  0  0  2  0  0  0  0  0  0
  188.3040  178.6360  141.1180 C   0  0  0  0  0  2  0  0  0  0  0  0
  189.0480  179.2700  138.4490 O   0  0  0  0  0  0  0  0  0  0  0  0
  188.5350  177.6620  140.0620 N   0  0  0  0  0  2  0  0  0  0  0  0
  188.8910  178.0520  138.7370 C   0  0  0  0  0  0  0  0  0  0  0  0
  189.0510  176.9980  137.6870 C   0  0  2  0  0  3  0  0  0  0  0  0
  189.8710  177.4540  136.6520 O   0  0  0  0  0  1  0  0  0  0  0  0
  187.7040  176.5180  137.1410 C   0  0  0  0  0  0  0  0  0  0  0  0
  187.3350  177.1770  135.8290 C   0  0  0  0  0  2  0  0  0  0  0  0
  186.6000  177.5560  137.1040 C   0  0  0  0  0  2  0  0  0  0  0  0
  188.1630  172.8680  137.0930 O   0  0  0  0  0  1  0  0  0  0  0  0
  188.3170  174.1640  136.6030 C   0  0  1  0  0  3  0  0  0  0  0  0
  187.1650  174.5260  135.8870 O   0  0  0  0  0  0  0  0  0  0  0  0
  187.2790  175.0450  137.1920 C   0  0  2  0  0  3  0  0  0  0  0  0
  183.0610  177.3530  140.2730 C   0  0  0  0  0  2  0  0  0  0  0  0
  181.5860  177.0400  140.0640 C   0  0  0  0  0  2  0  0  0  0  0  0
  180.8970  178.0930  139.1960 C   0  0  1  0  0  3  0  0  0  0  0  0
  181.1300  178.6340  136.8140 N   0  0  0  0  0  2  0  0  0  0  0  0
  181.4220  176.3700  137.5190 N   0  0  2  0  0  0  0  0  0  0  0  0
  182.1630  173.6310  136.5400 C   0  0  0  0  0  2  0  0  0  0  0  0
  181.1060  173.9420  137.6020 C   0  0  0  0  0  2  0  0  0  0  0  0
  180.4470  175.2980  137.3750 C   0  0  0  0  0  2  0  0  0  0  0  0
  180.6840  177.6090  137.7560 C   0  0  1  0  0  3  0  0  0  0  0  0
  182.0350  176.5380  136.2170 C   0  0  1  0  0  3  0  0  0  0  0  0
  182.1550  178.0160  135.9950 C   0  0  0  0  0  2  0  0  0  0  0  0
  183.4060  175.8680  136.1550 C   0  0  0  0  0  2  0  0  0  0  0  0
  183.4530  174.4430  136.7240 C   0  0  1  0  0  3  0  0  0  0  0  0
  183.8530  174.4640  138.0620 O   0  0  0  0  0  1  0  0  0  0  0  0
  179.6780  178.4670  139.7710 O   0  0  0  0  0  0  0  0  0  0  0  0
  179.5060  177.5930  140.8460 C   0  0  0  0  0  1  0  0  0  0  0  0
  1  4  1  0  0  0  0
  1  2  1  0  0  0  0
  2 24  1  6  0  0  0
  2  7  1  0  0  0  0
  3  9  1  1  0  0  0
  4  5  1  0  0  0  0
  5 10  1  6  0  0  0
  5  3  1  0  0  0  0
  6  1  1  0  0  0  0
  7  3  1  0  0  0  0
  9  8  1  0  0  0  0
 11 10  1  0  0  0  0
 12 14  2  0  0  0  0
 13 11  1  0  0  0  0
 14 13  1  0  0  0  0
 15 16  1  6  0  0  0
 15 14  1  0  0  0  0
 17 15  1  0  0  0  0
 18 19  1  0  0  0  0
 18 17  1  0  0  0  0
 19 17  1  0  0  0  0
 21 20  1  1  0  0  0
 21 23  1  0  0  0  0
 22 21  1  0  0  0  0
 22 23  1  0  0  0  0
 23 17  1  6  0  0  0
 25 24  1  0  0  0  0
 26 38  1  0  0  0  0
 26 25  1  1  0  0  0
 27 32  1  0  0  0  0
 28 31  1  6  0  0  0
 28 32  1  0  0  0  0
 29 36  1  0  0  0  0
 29 30  1  0  0  0  0
 31 30  1  0  0  0  0
 32 26  1  1  0  0  0
 33 34  1  1  0  0  0
 33 28  1  0  0  0  0
 34 27  1  0  0  0  0
 35 33  1  0  0  0  0
 35 36  1  0  0  0  0
 36 37  1  1  0  0  0
 38 39  1  0  0  0  0
M  END
>  <MODEL>
7

>  <REMARK>
 VINA RESULT:      -6.7      4.094      9.379
  Name = 
  12 active torsions:
  status: ('A' for Active; 'I' for Inactive)
    1  A    between atoms: C_2  and  N_19
    2  A    between atoms: C_2  and  C_27
    3  A    between atoms: O_3  and  C_4
    4  A    between atoms: C_4  and  C_18
    5  A    between atoms: C_4  and  C_21
    6  A    between atoms: C_6  and  C_32
    7  A    between atoms: C_14  and  C_17
    8  A    between atoms: C_14  and  C_34
    9  A    between atoms: C_15  and  C_35
   10  A    between atoms: C_18  and  C_32
   11  A    between atoms: C_24  and  C_34
   12  A    between atoms: C_25  and  C_27
                            x       y       z     vdW  Elec       q    Type
                         _______ _______ _______ _____ _____    ______ ____

>  <TORSDO>
F 12

$$$$
=
 OpenBabel11032420593D

 39 43  0  0  1  0  0  0  0  0999 V2000
  191.7300  177.1310  138.2370 N   0  0  0  0  0  0  0  0  0  0  0  0
  191.1110  176.1940  137.2840 C   0  0  2  0  0  3  0  0  0  0  0  0
  188.8430  176.8600  138.1810 C   0  0  2  0  0  3  0  0  0  0  0  0
  190.9680  177.1660  139.4840 C   0  0  0  0  0  2  0  0  0  0  0  0
  189.5680  177.7210  139.2300 C   0  0  2  0  0  3  0  0  0  0  0  0
  193.0870  176.7030  138.5440 C   0  0  0  0  0  1  0  0  0  0  0  0
  189.7070  176.6860  136.9250 C   0  0  0  0  0  2  0  0  0  0  0  0
  187.7360  178.6470  136.8370 C   0  0  0  0  0  1  0  0  0  0  0  0
  187.5120  177.4850  137.7860 C   0  0  0  0  0  2  0  0  0  0  0  0
  188.8180  177.7250  140.5570 C   0  0  0  0  0  2  0  0  0  0  0  0
  189.4890  176.8170  141.5750 C   0  0  0  0  0  2  0  0  0  0  0  0
  187.9320  176.2810  143.8910 O   0  0  0  0  0  0  0  0  0  0  0  0
  189.6220  177.5090  142.8480 N   0  0  0  0  0  2  0  0  0  0  0  0
  188.7930  177.2000  143.9670 C   0  0  0  0  0  0  0  0  0  0  0  0
  188.9430  177.9960  145.2250 C   0  0  2  0  0  3  0  0  0  0  0  0
  190.2250  177.8410  145.7560 O   0  0  0  0  0  1  0  0  0  0  0  0
  187.8780  177.6400  146.2640 C   0  0  0  0  0  0  0  0  0  0  0  0
  188.1570  178.2500  147.6210 C   0  0  0  0  0  2  0  0  0  0  0  0
  188.3410  176.7570  147.4060 C   0  0  0  0  0  2  0  0  0  0  0  0
  184.6700  178.9920  145.0740 O   0  0  0  0  0  1  0  0  0  0  0  0
  185.8340  179.0000  145.8410 C   0  0  1  0  0  3  0  0  0  0  0  0
  185.6410  178.2020  146.9800 O   0  0  0  0  0  0  0  0  0  0  0  0
  186.3810  177.6240  145.9300 C   0  0  2  0  0  3  0  0  0  0  0  0
  191.0710  174.7470  137.7930 C   0  0  0  0  0  2  0  0  0  0  0  0
  191.9570  173.8620  136.9270 C   0  0  0  0  0  2  0  0  0  0  0  0
  192.1540  174.4480  135.5280 C   0  0  1  0  0  3  0  0  0  0  0  0
  194.1400  175.7130  134.8410 N   0  0  0  0  0  2  0  0  0  0  0  0
  194.4300  173.6830  136.0660 N   0  0  2  0  0  0  0  0  0  0  0  0
  196.5040  171.9290  137.3450 C   0  0  0  0  0  2  0  0  0  0  0  0
  195.2500  171.4400  136.6150 C   0  0  0  0  0  2  0  0  0  0  0  0
  194.8220  172.3960  135.5070 C   0  0  0  0  0  2  0  0  0  0  0  0
  193.6140  174.3670  135.0650 C   0  0  1  0  0  3  0  0  0  0  0  0
  195.6430  174.4680  136.1670 C   0  0  1  0  0  3  0  0  0  0  0  0
  195.2880  175.8530  135.7170 C   0  0  0  0  0  2  0  0  0  0  0  0
  196.1790  174.4850  137.5970 C   0  0  0  0  0  2  0  0  0  0  0  0
  196.2260  173.1120  138.2830 C   0  0  1  0  0  3  0  0  0  0  0  0
  195.0690  172.9020  139.0360 O   0  0  0  0  0  1  0  0  0  0  0  0
  191.3160  173.7990  134.6140 O   0  0  0  0  0  0  0  0  0  0  0  0
  191.1920  172.4970  135.1030 C   0  0  0  0  0  1  0  0  0  0  0  0
  1  6  1  0  0  0  0
  1  4  1  0  0  0  0
  2 24  1  1  0  0  0
  2  1  1  0  0  0  0
  3  9  1  6  0  0  0
  3  5  1  0  0  0  0
  5  4  1  0  0  0  0
  5 10  1  1  0  0  0
  7  2  1  0  0  0  0
  7  3  1  0  0  0  0
  8  9  1  0  0  0  0
 10 11  1  0  0  0  0
 11 13  1  0  0  0  0
 12 14  2  0  0  0  0
 13 14  1  0  0  0  0
 14 15  1  0  0  0  0
 15 16  1  1  0  0  0
 15 17  1  0  0  0  0
 17 19  1  0  0  0  0
 17 18  1  0  0  0  0
 19 18  1  0  0  0  0
 21 20  1  6  0  0  0
 21 23  1  0  0  0  0
 21 22  1  0  0  0  0
 23 17  1  1  0  0  0
 23 22  1  0  0  0  0
 25 24  1  0  0  0  0
 26 25  1  1  0  0  0
 27 32  1  0  0  0  0
 27 34  1  0  0  0  0
 28 31  1  6  0  0  0
 28 33  1  0  0  0  0
 29 36  1  0  0  0  0
 30 29  1  0  0  0  0
 31 30  1  0  0  0  0
 32 26  1  1  0  0  0
 32 28  1  0  0  0  0
 33 34  1  1  0  0  0
 33 35  1  0  0  0  0
 35 36  1  0  0  0  0
 36 37  1  6  0  0  0
 38 39  1  0  0  0  0
 38 26  1  0  0  0  0
M  END
>  <MODEL>
8

>  <REMARK>
 VINA RESULT:      -6.6      5.984     10.132
  Name = 
  12 active torsions:
  status: ('A' for Active; 'I' for Inactive)
    1  A    between atoms: C_2  and  N_19
    2  A    between atoms: C_2  and  C_27
    3  A    between atoms: O_3  and  C_4
    4  A    between atoms: C_4  and  C_18
    5  A    between atoms: C_4  and  C_21
    6  A    between atoms: C_6  and  C_32
    7  A    between atoms: C_14  and  C_17
    8  A    between atoms: C_14  and  C_34
    9  A    between atoms: C_15  and  C_35
   10  A    between atoms: C_18  and  C_32
   11  A    between atoms: C_24  and  C_34
   12  A    between atoms: C_25  and  C_27
                            x       y       z     vdW  Elec       q    Type
                         _______ _______ _______ _____ _____    ______ ____

>  <TORSDO>
F 12

$$$$
=
 OpenBabel11032420593D

 39 43  0  0  1  0  0  0  0  0999 V2000
  184.5030  179.3700  140.1090 N   0  0  0  0  0  0  0  0  0  0  0  0
  183.2470  178.8150  140.6430 C   0  0  2  0  0  3  0  0  0  0  0  0
  184.4660  178.2500  142.7840 C   0  0  2  0  0  3  0  0  0  0  0  0
  185.6460  178.6000  140.5950 C   0  0  0  0  0  2  0  0  0  0  0  0
  185.7640  178.7320  142.1120 C   0  0  2  0  0  3  0  0  0  0  0  0
  184.4960  179.3070  138.6550 C   0  0  0  0  0  1  0  0  0  0  0  0
  183.2420  178.9390  142.1680 C   0  0  0  0  0  2  0  0  0  0  0  0
  183.1300  179.0040  144.7520 C   0  0  0  0  0  1  0  0  0  0  0  0
  184.4900  178.5250  144.2810 C   0  0  0  0  0  2  0  0  0  0  0  0
  186.9610  177.9040  142.5630 C   0  0  0  0  0  2  0  0  0  0  0  0
  188.1850  178.1890  141.7080 C   0  0  0  0  0  2  0  0  0  0  0  0
  189.2050  175.7850  142.8290 O   0  0  0  0  0  0  0  0  0  0  0  0
  189.3900  178.0910  142.5160 N   0  0  0  0  0  2  0  0  0  0  0  0
  189.8370  176.8520  143.0620 C   0  0  0  0  0  0  0  0  0  0  0  0
  191.0510  176.8370  143.9360 C   0  0  2  0  0  3  0  0  0  0  0  0
  191.6840  175.5940  143.8810 O   0  0  0  0  0  1  0  0  0  0  0  0
  190.7260  177.2170  145.3830 C   0  0  0  0  0  0  0  0  0  0  0  0
  189.3630  176.7260  145.8250 C   0  0  0  0  0  2  0  0  0  0  0  0
  189.5910  178.2060  145.5640 C   0  0  0  0  0  2  0  0  0  0  0  0
  193.0450  175.5760  147.7190 O   0  0  0  0  0  1  0  0  0  0  0  0
  191.8140  175.7730  147.0960 C   0  0  1  0  0  3  0  0  0  0  0  0
  191.1400  176.8290  147.7300 O   0  0  0  0  0  0  0  0  0  0  0  0
  191.7670  177.1330  146.5050 C   0  0  2  0  0  3  0  0  0  0  0  0
  182.9910  177.3640  140.2110 C   0  0  0  0  0  2  0  0  0  0  0  0
  181.4950  177.1110  140.0820 C   0  0  0  0  0  2  0  0  0  0  0  0
  180.7410  178.3670  139.6430 C   0  0  1  0  0  3  0  0  0  0  0  0
  180.8920  179.2240  137.3500 N   0  0  0  0  0  2  0  0  0  0  0  0
  180.4270  176.9060  137.6880 N   0  0  2  0  0  0  0  0  0  0  0  0
  180.0240  174.3060  136.2440 C   0  0  0  0  0  2  0  0  0  0  0  0
  179.2710  174.7540  137.4990 C   0  0  0  0  0  2  0  0  0  0  0  0
  179.1220  176.2700  137.5670 C   0  0  0  0  0  2  0  0  0  0  0  0
  180.2130  178.2550  138.2070 C   0  0  1  0  0  3  0  0  0  0  0  0
  180.9140  177.0930  136.3370 C   0  0  1  0  0  3  0  0  0  0  0  0
  181.5320  178.4590  136.2970 C   0  0  0  0  0  2  0  0  0  0  0  0
  181.9380  176.0250  135.9600 C   0  0  0  0  0  2  0  0  0  0  0  0
  181.5310  174.5880  136.3180 C   0  0  1  0  0  3  0  0  0  0  0  0
  182.0550  174.2270  137.5620 O   0  0  0  0  0  1  0  0  0  0  0  0
  179.6910  178.6300  140.5310 O   0  0  0  0  0  0  0  0  0  0  0  0
  179.6240  180.0230  140.6030 C   0  0  0  0  0  1  0  0  0  0  0  0
  1  4  1  0  0  0  0
  1  2  1  0  0  0  0
  2 24  1  1  0  0  0
  2  7  1  0  0  0  0
  3  9  1  1  0  0  0
  4  5  1  0  0  0  0
  5 10  1  1  0  0  0
  5  3  1  0  0  0  0
  6  1  1  0  0  0  0
  7  3  1  0  0  0  0
  9  8  1  0  0  0  0
 11 13  1  0  0  0  0
 11 10  1  0  0  0  0
 12 14  2  0  0  0  0
 13 14  1  0  0  0  0
 14 15  1  0  0  0  0
 15 16  1  1  0  0  0
 15 17  1  0  0  0  0
 17 19  1  0  0  0  0
 17 18  1  0  0  0  0
 19 18  1  0  0  0  0
 21 20  1  1  0  0  0
 21 22  1  0  0  0  0
 23 17  1  6  0  0  0
 23 21  1  0  0  0  0
 23 22  1  0  0  0  0
 25 24  1  0  0  0  0
 26 25  1  1  0  0  0
 26 38  1  0  0  0  0
 27 32  1  0  0  0  0
 28 31  1  6  0  0  0
 28 32  1  0  0  0  0
 29 36  1  0  0  0  0
 29 30  1  0  0  0  0
 30 31  1  0  0  0  0
 32 26  1  1  0  0  0
 33 35  1  1  0  0  0
 33 28  1  0  0  0  0
 34 33  1  0  0  0  0
 34 27  1  0  0  0  0
 35 36  1  0  0  0  0
 36 37  1  1  0  0  0
 38 39  1  0  0  0  0
M  END
>  <MODEL>
9

>  <REMARK>
 VINA RESULT:      -6.6      2.753     10.875
  Name = 
  12 active torsions:
  status: ('A' for Active; 'I' for Inactive)
    1  A    between atoms: C_2  and  N_19
    2  A    between atoms: C_2  and  C_27
    3  A    between atoms: O_3  and  C_4
    4  A    between atoms: C_4  and  C_18
    5  A    between atoms: C_4  and  C_21
    6  A    between atoms: C_6  and  C_32
    7  A    between atoms: C_14  and  C_17
    8  A    between atoms: C_14  and  C_34
    9  A    between atoms: C_15  and  C_35
   10  A    between atoms: C_18  and  C_32
   11  A    between atoms: C_24  and  C_34
   12  A    between atoms: C_25  and  C_27
                            x       y       z     vdW  Elec       q    Type
                         _______ _______ _______ _____ _____    ______ ____

>  <TORSDO>
F 12

$$$$
