=
 OpenBabel11042411553D

 37 39  0  0  1  0  0  0  0  0999 V2000
  187.4860  177.8760  144.3170 C   0  0  2  0  0  3  0  0  0  0  0  0
  188.5920  177.5490  145.2730 C   0  0  0  0  0  0  0  0  0  0  0  0
  191.7770  176.6630  147.8610 N   0  0  0  0  0  1  0  0  0  0  0  0
  190.6920  176.9690  146.9930 C   0  0  0  0  0  0  0  0  0  0  0  0
  190.9180  177.1660  145.6650 N   0  0  0  0  0  0  0  0  0  0  0  0
  188.3420  177.3550  146.6380 C   0  0  0  0  0  3  0  0  0  0  0  0
  189.3950  177.0620  147.5040 C   0  0  0  0  0  3  0  0  0  0  0  0
  189.9040  177.4530  144.8040 C   0  0  0  0  0  3  0  0  0  0  0  0
  186.1200  177.7960  145.0260 C   0  0  1  0  0  3  0  0  0  0  0  0
  185.8950  178.9560  145.9780 C   0  0  0  0  0  2  0  0  0  0  0  0
  185.1750  178.9230  144.6410 C   0  0  2  0  0  3  0  0  0  0  0  0
  183.7500  178.4600  144.8500 C   0  0  0  0  0  2  0  0  0  0  0  0
  182.7970  179.3920  144.1230 C   0  0  0  0  0  2  0  0  0  0  0  0
  181.6380  178.6050  143.5380 C   0  0  1  0  0  3  0  0  0  0  0  0
  180.5430  178.6900  144.3980 O   0  0  0  0  0  1  0  0  0  0  0  0
  181.2620  179.1690  142.1760 C   0  0  0  0  0  2  0  0  0  0  0  0
  180.9190  178.0470  141.1980 C   0  0  1  0  0  3  0  0  0  0  0  0
  179.5330  177.9210  141.0530 O   0  0  0  0  0  1  0  0  0  0  0  0
  181.5640  178.1870  139.9460 O   0  0  0  0  0  0  0  0  0  0  0  0
  182.5390  176.1270  139.7800 O   0  0  0  0  0  1  0  0  0  0  0  0
  182.7830  177.4860  139.9790 C   0  0  1  0  0  3  0  0  0  0  0  0
  183.7010  178.0120  138.8870 C   0  0  0  0  0  2  0  0  0  0  0  0
  184.2490  180.3320  139.0520 O   0  0  0  0  0  1  0  0  0  0  0  0
  184.6700  178.9730  140.9520 C   0  0  0  0  0  1  0  0  0  0  0  0
  184.6580  179.0550  139.4410 C   0  0  1  0  0  3  0  0  0  0  0  0
  187.6240  177.0960  143.0000 C   0  0  0  0  0  2  0  0  0  0  0  0
  187.7910  178.0370  141.8170 C   0  0  0  0  0  2  0  0  0  0  0  0
  189.1470  178.2450  141.5610 O   0  0  0  0  0  0  0  0  0  0  0  0
  189.5870  177.0480  140.9950 C   0  0  0  0  0  2  0  0  0  0  0  0
  191.9150  177.4890  141.2080 O   0  0  0  0  0  0  0  0  0  0  0  0
  190.9520  177.2370  140.4340 C   0  0  0  0  0  0  0  0  0  0  0  0
  191.1590  177.0960  139.0640 O   0  0  0  0  0  0  0  0  0  0  0  0
  189.4370  177.5450  137.5900 C   0  0  0  0  0  0  0  0  0  0  0  0
  189.0760  178.9770  137.2110 C   0  0  0  0  0  2  0  0  0  0  0  0
  188.3100  177.9200  136.6330 C   0  0  2  0  0  3  0  0  0  0  0  0
  190.1450  176.6780  138.2340 N   0  0  0  0  0  0  0  0  0  0  0  0
  187.0930  177.7910  137.3020 O   0  0  0  0  0  1  0  0  0  0  0  0
  1 26  1  6  0  0  0
  1  2  1  0  0  0  0
  2  6  1  0  0  0  0
  4  7  1  0  0  0  0
  4  3  1  0  0  0  0
  5  4  2  0  0  0  0
  6  7  2  0  0  0  0
  8  2  2  0  0  0  0
  8  5  1  0  0  0  0
  9  1  1  6  0  0  0
  9 10  1  0  0  0  0
 11 12  1  1  0  0  0
 11  9  1  0  0  0  0
 11 10  1  0  0  0  0
 13 12  1  0  0  0  0
 14 13  1  0  0  0  0
 14 15  1  1  0  0  0
 16 14  1  0  0  0  0
 17 18  1  6  0  0  0
 17 16  1  0  0  0  0
 19 21  1  0  0  0  0
 19 17  1  0  0  0  0
 21 20  1  6  0  0  0
 22 25  1  0  0  0  0
 22 21  1  0  0  0  0
 23 25  1  0  0  0  0
 25 24  1  1  0  0  0
 27 26  1  0  0  0  0
 28 27  1  0  0  0  0
 29 28  1  0  0  0  0
 31 29  1  0  0  0  0
 31 30  2  0  0  0  0
 32 31  1  0  0  0  0
 33 36  2  0  0  0  0
 34 33  1  0  0  0  0
 35 34  1  0  0  0  0
 35 37  1  1  0  0  0
 35 33  1  0  0  0  0
 36 32  1  0  0  0  0
M  END
>  <MODEL>
1

>  <REMARK>
 VINA RESULT:      -7.4      0.000      0.000
  Name = 
  18 active torsions:
  status: ('A' for Active; 'I' for Inactive)
    1  A    between atoms: C_1  and  C_19
    2  A    between atoms: O_4  and  N_23
    3  A    between atoms: O_4  and  C_31
    4  A    between atoms: C_5  and  C_19
    5  A    between atoms: C_10  and  O_25
    6  A    between atoms: C_10  and  C_33
    7  A    between atoms: C_12  and  C_18
    8  A    between atoms: C_12  and  C_33
    9  A    between atoms: C_17  and  C_19
   10  A    between atoms: C_17  and  C_29
   11  A    between atoms: C_18  and  C_30
   12  A    between atoms: C_20  and  C_28
   13  A    between atoms: O_25  and  C_26
   14  A    between atoms: C_26  and  C_28
   15  A    between atoms: C_29  and  O_37
   16  A    between atoms: C_30  and  C_35
   17  A    between atoms: C_31  and  C_34
   18  A    between atoms: C_34  and  O_37
                            x       y       z     vdW  Elec       q    Type
                         _______ _______ _______ _____ _____    ______ ____

>  <TORSDO>
F 18

$$$$
=
 OpenBabel11042411553D

 37 39  0  0  1  0  0  0  0  0999 V2000
  188.1640  177.7300  144.6690 C   0  0  2  0  0  3  0  0  0  0  0  0
  189.3330  177.2410  145.4680 C   0  0  0  0  0  0  0  0  0  0  0  0
  192.6870  175.8970  147.6050 N   0  0  0  0  0  1  0  0  0  0  0  0
  191.5470  176.3580  146.8910 C   0  0  0  0  0  0  0  0  0  0  0  0
  191.6320  176.5940  145.5530 N   0  0  0  0  0  0  0  0  0  0  0  0
  189.2280  177.0090  146.8450 C   0  0  0  0  0  3  0  0  0  0  0  0
  190.3390  176.5630  147.5620 C   0  0  0  0  0  3  0  0  0  0  0  0
  190.5610  177.0290  144.8350 C   0  0  0  0  0  3  0  0  0  0  0  0
  186.8580  177.5650  145.4700 C   0  0  1  0  0  3  0  0  0  0  0  0
  186.8690  178.3620  146.7610 C   0  0  0  0  0  2  0  0  0  0  0  0
  186.0520  178.8500  145.5770 C   0  0  2  0  0  3  0  0  0  0  0  0
  184.5960  178.4980  145.7930 C   0  0  0  0  0  2  0  0  0  0  0  0
  183.7250  179.3340  144.8720 C   0  0  0  0  0  2  0  0  0  0  0  0
  183.1900  178.4790  143.7380 C   0  0  1  0  0  3  0  0  0  0  0  0
  182.2540  179.2120  143.0110 O   0  0  0  0  0  1  0  0  0  0  0  0
  184.3300  178.0580  142.8220 C   0  0  0  0  0  2  0  0  0  0  0  0
  184.4110  178.9690  141.5990 C   0  0  1  0  0  3  0  0  0  0  0  0
  185.5290  179.8070  141.6760 O   0  0  0  0  0  1  0  0  0  0  0  0
  184.3720  178.2600  140.3760 O   0  0  0  0  0  0  0  0  0  0  0  0
  185.4570  178.9140  138.4740 O   0  0  0  0  0  1  0  0  0  0  0  0
  184.3740  179.1800  139.3120 C   0  0  1  0  0  3  0  0  0  0  0  0
  183.0740  179.0580  138.5330 C   0  0  0  0  0  2  0  0  0  0  0  0
  182.9830  181.4370  138.7240 O   0  0  0  0  0  1  0  0  0  0  0  0
  181.1680  180.3590  137.6390 C   0  0  0  0  0  1  0  0  0  0  0  0
  182.2000  180.2820  138.7440 C   0  0  1  0  0  3  0  0  0  0  0  0
  188.1720  177.1590  143.2420 C   0  0  0  0  0  2  0  0  0  0  0  0
  188.5500  178.2240  142.2240 C   0  0  0  0  0  2  0  0  0  0  0  0
  188.0790  177.8650  140.9600 O   0  0  0  0  0  0  0  0  0  0  0  0
  189.2080  177.4050  140.2800 C   0  0  0  0  0  2  0  0  0  0  0  0
  188.8060  178.9800  138.5430 O   0  0  0  0  0  0  0  0  0  0  0  0
  189.1180  177.7970  138.8490 C   0  0  0  0  0  0  0  0  0  0  0  0
  189.4170  176.8630  137.8590 O   0  0  0  0  0  0  0  0  0  0  0  0
  191.5210  176.2730  137.1080 C   0  0  0  0  0  0  0  0  0  0  0  0
  192.2890  175.1160  137.7400 C   0  0  0  0  0  2  0  0  0  0  0  0
  192.9150  175.8310  136.6740 C   0  0  2  0  0  3  0  0  0  0  0  0
  190.4890  177.0440  137.0160 N   0  0  0  0  0  0  0  0  0  0  0  0
  193.8500  176.7310  137.1850 O   0  0  0  0  0  1  0  0  0  0  0  0
  1 26  1  6  0  0  0
  1  2  1  0  0  0  0
  2  6  1  0  0  0  0
  4  7  1  0  0  0  0
  4  3  1  0  0  0  0
  5  4  2  0  0  0  0
  6  7  2  0  0  0  0
  8  2  2  0  0  0  0
  8  5  1  0  0  0  0
  9  1  1  6  0  0  0
  9 11  1  0  0  0  0
  9 10  1  0  0  0  0
 11 12  1  1  0  0  0
 11 10  1  0  0  0  0
 13 12  1  0  0  0  0
 14 15  1  6  0  0  0
 14 13  1  0  0  0  0
 16 14  1  0  0  0  0
 17 18  1  1  0  0  0
 17 16  1  0  0  0  0
 19 17  1  0  0  0  0
 21 20  1  6  0  0  0
 21 19  1  0  0  0  0
 22 25  1  0  0  0  0
 22 21  1  0  0  0  0
 23 25  1  0  0  0  0
 25 24  1  6  0  0  0
 27 26  1  0  0  0  0
 28 27  1  0  0  0  0
 29 28  1  0  0  0  0
 30 31  2  0  0  0  0
 31 29  1  0  0  0  0
 32 31  1  0  0  0  0
 33 34  1  0  0  0  0
 35 33  1  0  0  0  0
 35 37  1  1  0  0  0
 35 34  1  0  0  0  0
 36 33  2  0  0  0  0
 36 32  1  0  0  0  0
M  END
>  <MODEL>
2

>  <REMARK>
 VINA RESULT:      -7.4      1.882      2.825
  Name = 
  18 active torsions:
  status: ('A' for Active; 'I' for Inactive)
    1  A    between atoms: C_1  and  C_19
    2  A    between atoms: O_4  and  N_23
    3  A    between atoms: O_4  and  C_31
    4  A    between atoms: C_5  and  C_19
    5  A    between atoms: C_10  and  O_25
    6  A    between atoms: C_10  and  C_33
    7  A    between atoms: C_12  and  C_18
    8  A    between atoms: C_12  and  C_33
    9  A    between atoms: C_17  and  C_19
   10  A    between atoms: C_17  and  C_29
   11  A    between atoms: C_18  and  C_30
   12  A    between atoms: C_20  and  C_28
   13  A    between atoms: O_25  and  C_26
   14  A    between atoms: C_26  and  C_28
   15  A    between atoms: C_29  and  O_37
   16  A    between atoms: C_30  and  C_35
   17  A    between atoms: C_31  and  C_34
   18  A    between atoms: C_34  and  O_37
                            x       y       z     vdW  Elec       q    Type
                         _______ _______ _______ _____ _____    ______ ____

>  <TORSDO>
F 18

$$$$
=
 OpenBabel11042411553D

 37 39  0  0  1  0  0  0  0  0999 V2000
  187.9740  177.4710  144.6840 C   0  0  2  0  0  3  0  0  0  0  0  0
  189.1950  177.1400  145.4850 C   0  0  0  0  0  0  0  0  0  0  0  0
  192.5410  176.1700  147.8290 N   0  0  0  0  0  1  0  0  0  0  0  0
  191.4120  176.4940  147.0250 C   0  0  0  0  0  0  0  0  0  0  0  0
  190.1690  176.5240  147.5790 N   0  0  0  0  0  0  0  0  0  0  0  0
  190.4660  177.1080  144.8970 C   0  0  0  0  0  3  0  0  0  0  0  0
  191.5820  176.7850  145.6690 C   0  0  0  0  0  3  0  0  0  0  0  0
  189.0680  176.8360  146.8430 C   0  0  0  0  0  3  0  0  0  0  0  0
  186.7230  177.4730  145.5850 C   0  0  1  0  0  3  0  0  0  0  0  0
  186.7620  178.5770  146.6250 C   0  0  0  0  0  2  0  0  0  0  0  0
  185.8580  178.7110  145.4120 C   0  0  2  0  0  3  0  0  0  0  0  0
  184.4370  178.3750  145.8060 C   0  0  0  0  0  2  0  0  0  0  0  0
  183.4680  179.2150  144.9940 C   0  0  0  0  0  2  0  0  0  0  0  0
  183.2960  178.6220  143.6070 C   0  0  1  0  0  3  0  0  0  0  0  0
  182.0970  179.0760  143.0570 O   0  0  0  0  0  1  0  0  0  0  0  0
  184.4550  179.0410  142.7150 C   0  0  0  0  0  2  0  0  0  0  0  0
  184.0900  178.8920  141.2400 C   0  0  1  0  0  3  0  0  0  0  0  0
  185.0290  179.5360  140.4280 O   0  0  0  0  0  1  0  0  0  0  0  0
  183.8980  177.5460  140.8500 O   0  0  0  0  0  0  0  0  0  0  0  0
  182.8120  176.2330  139.3270 O   0  0  0  0  0  1  0  0  0  0  0  0
  183.2880  177.5190  139.5820 C   0  0  1  0  0  3  0  0  0  0  0  0
  182.1370  178.5120  139.5520 C   0  0  0  0  0  2  0  0  0  0  0  0
  181.0510  178.7120  137.4340 O   0  0  0  0  0  1  0  0  0  0  0  0
  181.8290  180.7090  138.4540 C   0  0  0  0  0  1  0  0  0  0  0  0
  182.0810  179.2350  138.2170 C   0  0  1  0  0  3  0  0  0  0  0  0
  187.8930  176.6340  143.3970 C   0  0  0  0  0  2  0  0  0  0  0  0
  187.6250  177.5110  142.1850 C   0  0  0  0  0  2  0  0  0  0  0  0
  188.7030  177.4470  141.3020 O   0  0  0  0  0  0  0  0  0  0  0  0
  188.6090  178.6150  140.5430 C   0  0  0  0  0  2  0  0  0  0  0  0
  189.8990  177.3540  138.9930 O   0  0  0  0  0  0  0  0  0  0  0  0
  189.1980  178.3820  139.1980 C   0  0  0  0  0  0  0  0  0  0  0  0
  188.9380  179.2820  138.1670 O   0  0  0  0  0  0  0  0  0  0  0  0
  187.5180  178.2780  136.6460 C   0  0  0  0  0  0  0  0  0  0  0  0
  186.1410  177.7750  137.0650 C   0  0  0  0  0  2  0  0  0  0  0  0
  186.5300  177.5980  135.7030 C   0  0  2  0  0  3  0  0  0  0  0  0
  188.6530  178.8400  136.8960 N   0  0  0  0  0  0  0  0  0  0  0  0
  186.9460  176.2840  135.4910 O   0  0  0  0  0  1  0  0  0  0  0  0
  1 26  1  6  0  0  0
  1  2  1  0  0  0  0
  2  8  1  0  0  0  0
  4  5  1  0  0  0  0
  4  3  1  0  0  0  0
  6  2  2  0  0  0  0
  6  7  1  0  0  0  0
  7  4  2  0  0  0  0
  8  5  2  0  0  0  0
  9  1  1  6  0  0  0
  9 10  1  0  0  0  0
 11  9  1  0  0  0  0
 11 12  1  1  0  0  0
 11 10  1  0  0  0  0
 13 12  1  0  0  0  0
 14 15  1  6  0  0  0
 14 13  1  0  0  0  0
 16 14  1  0  0  0  0
 17 18  1  6  0  0  0
 17 16  1  0  0  0  0
 19 17  1  0  0  0  0
 21 20  1  1  0  0  0
 21 19  1  0  0  0  0
 22 21  1  0  0  0  0
 23 25  1  0  0  0  0
 25 24  1  1  0  0  0
 25 22  1  0  0  0  0
 27 26  1  0  0  0  0
 28 27  1  0  0  0  0
 29 28  1  0  0  0  0
 30 31  2  0  0  0  0
 31 29  1  0  0  0  0
 32 31  1  0  0  0  0
 33 36  2  0  0  0  0
 33 34  1  0  0  0  0
 35 37  1  1  0  0  0
 35 33  1  0  0  0  0
 35 34  1  0  0  0  0
 36 32  1  0  0  0  0
M  END
>  <MODEL>
3

>  <REMARK>
 VINA RESULT:      -7.3      1.654      2.392
  Name = 
  18 active torsions:
  status: ('A' for Active; 'I' for Inactive)
    1  A    between atoms: C_1  and  C_19
    2  A    between atoms: O_4  and  N_23
    3  A    between atoms: O_4  and  C_31
    4  A    between atoms: C_5  and  C_19
    5  A    between atoms: C_10  and  O_25
    6  A    between atoms: C_10  and  C_33
    7  A    between atoms: C_12  and  C_18
    8  A    between atoms: C_12  and  C_33
    9  A    between atoms: C_17  and  C_19
   10  A    between atoms: C_17  and  C_29
   11  A    between atoms: C_18  and  C_30
   12  A    between atoms: C_20  and  C_28
   13  A    between atoms: O_25  and  C_26
   14  A    between atoms: C_26  and  C_28
   15  A    between atoms: C_29  and  O_37
   16  A    between atoms: C_30  and  C_35
   17  A    between atoms: C_31  and  C_34
   18  A    between atoms: C_34  and  O_37
                            x       y       z     vdW  Elec       q    Type
                         _______ _______ _______ _____ _____    ______ ____

>  <TORSDO>
F 18

$$$$
=
 OpenBabel11042411553D

 37 39  0  0  1  0  0  0  0  0999 V2000
  187.9760  177.5540  144.6090 C   0  0  2  0  0  3  0  0  0  0  0  0
  189.1690  177.2210  145.4510 C   0  0  0  0  0  0  0  0  0  0  0  0
  192.4310  176.2460  147.9070 N   0  0  0  0  0  1  0  0  0  0  0  0
  191.3310  176.5710  147.0650 C   0  0  0  0  0  0  0  0  0  0  0  0
  190.0700  176.6090  147.5780 N   0  0  0  0  0  0  0  0  0  0  0  0
  190.4580  177.1810  144.9060 C   0  0  0  0  0  3  0  0  0  0  0  0
  191.5470  176.8570  145.7150 C   0  0  0  0  0  3  0  0  0  0  0  0
  188.9950  176.9230  146.8050 C   0  0  0  0  0  3  0  0  0  0  0  0
  186.6890  177.5120  145.4570 C   0  0  1  0  0  3  0  0  0  0  0  0
  186.7280  178.4930  146.6130 C   0  0  0  0  0  2  0  0  0  0  0  0
  185.8810  178.7980  145.3900 C   0  0  2  0  0  3  0  0  0  0  0  0
  184.4330  178.4830  145.6910 C   0  0  0  0  0  2  0  0  0  0  0  0
  183.5320  179.2840  144.7680 C   0  0  0  0  0  2  0  0  0  0  0  0
  183.2580  178.5030  143.4960 C   0  0  1  0  0  3  0  0  0  0  0  0
  182.1700  179.0690  142.8320 O   0  0  0  0  0  1  0  0  0  0  0  0
  184.4810  178.5390  142.5900 C   0  0  0  0  0  2  0  0  0  0  0  0
  184.0820  178.8500  141.1490 C   0  0  1  0  0  3  0  0  0  0  0  0
  185.1020  179.5480  140.4920 O   0  0  0  0  0  1  0  0  0  0  0  0
  183.6830  177.7020  140.4240 O   0  0  0  0  0  0  0  0  0  0  0  0
  183.9420  177.4600  138.1670 O   0  0  0  0  0  1  0  0  0  0  0  0
  183.2050  178.1010  139.1630 C   0  0  1  0  0  3  0  0  0  0  0  0
  181.7360  177.7310  139.0370 C   0  0  0  0  0  2  0  0  0  0  0  0
  181.3180  180.0380  139.4980 O   0  0  0  0  0  1  0  0  0  0  0  0
  181.0420  179.3060  137.2580 C   0  0  0  0  0  1  0  0  0  0  0  0
  180.8950  178.9570  138.7230 C   0  0  1  0  0  3  0  0  0  0  0  0
  187.9620  176.7500  143.2990 C   0  0  0  0  0  2  0  0  0  0  0  0
  187.9880  177.6700  142.0880 C   0  0  0  0  0  2  0  0  0  0  0  0
  189.3080  177.9480  141.7290 O   0  0  0  0  0  0  0  0  0  0  0  0
  189.3950  177.5750  140.3870 C   0  0  0  0  0  2  0  0  0  0  0  0
  191.7440  177.4650  140.7490 O   0  0  0  0  0  0  0  0  0  0  0  0
  190.7490  177.0230  140.1130 C   0  0  0  0  0  0  0  0  0  0  0  0
  190.8980  175.9970  139.1830 O   0  0  0  0  0  0  0  0  0  0  0  0
  192.5430  175.8250  137.5690 C   0  0  0  0  0  0  0  0  0  0  0  0
  193.8520  175.0950  137.8510 C   0  0  0  0  0  2  0  0  0  0  0  0
  193.6770  175.6790  136.5600 C   0  0  2  0  0  3  0  0  0  0  0  0
  191.3740  176.2510  137.9180 N   0  0  0  0  0  0  0  0  0  0  0  0
  194.3670  176.8880  136.4840 O   0  0  0  0  0  1  0  0  0  0  0  0
  1 26  1  6  0  0  0
  1  2  1  0  0  0  0
  2  8  1  0  0  0  0
  4  5  1  0  0  0  0
  4  3  1  0  0  0  0
  6  2  2  0  0  0  0
  6  7  1  0  0  0  0
  7  4  2  0  0  0  0
  8  5  2  0  0  0  0
  9  1  1  6  0  0  0
  9 10  1  0  0  0  0
 11  9  1  0  0  0  0
 11 12  1  1  0  0  0
 11 10  1  0  0  0  0
 13 12  1  0  0  0  0
 14 15  1  6  0  0  0
 14 13  1  0  0  0  0
 16 14  1  0  0  0  0
 17 18  1  6  0  0  0
 17 16  1  0  0  0  0
 19 17  1  0  0  0  0
 21 20  1  6  0  0  0
 21 19  1  0  0  0  0
 22 21  1  0  0  0  0
 25 24  1  6  0  0  0
 25 22  1  0  0  0  0
 25 23  1  0  0  0  0
 27 26  1  0  0  0  0
 28 27  1  0  0  0  0
 29 28  1  0  0  0  0
 31 29  1  0  0  0  0
 31 30  2  0  0  0  0
 32 31  1  0  0  0  0
 33 34  1  0  0  0  0
 33 36  2  0  0  0  0
 35 37  1  1  0  0  0
 35 33  1  0  0  0  0
 35 34  1  0  0  0  0
 36 32  1  0  0  0  0
M  END
>  <MODEL>
4

>  <REMARK>
 VINA RESULT:      -7.2      1.929      2.880
  Name = 
  18 active torsions:
  status: ('A' for Active; 'I' for Inactive)
    1  A    between atoms: C_1  and  C_19
    2  A    between atoms: O_4  and  N_23
    3  A    between atoms: O_4  and  C_31
    4  A    between atoms: C_5  and  C_19
    5  A    between atoms: C_10  and  O_25
    6  A    between atoms: C_10  and  C_33
    7  A    between atoms: C_12  and  C_18
    8  A    between atoms: C_12  and  C_33
    9  A    between atoms: C_17  and  C_19
   10  A    between atoms: C_17  and  C_29
   11  A    between atoms: C_18  and  C_30
   12  A    between atoms: C_20  and  C_28
   13  A    between atoms: O_25  and  C_26
   14  A    between atoms: C_26  and  C_28
   15  A    between atoms: C_29  and  O_37
   16  A    between atoms: C_30  and  C_35
   17  A    between atoms: C_31  and  C_34
   18  A    between atoms: C_34  and  O_37
                            x       y       z     vdW  Elec       q    Type
                         _______ _______ _______ _____ _____    ______ ____

>  <TORSDO>
F 18

$$$$
=
 OpenBabel11042411553D

 37 39  0  0  1  0  0  0  0  0999 V2000
  187.8190  177.7980  144.2900 C   0  0  2  0  0  3  0  0  0  0  0  0
  188.9560  177.4550  145.2040 C   0  0  0  0  0  0  0  0  0  0  0  0
  192.0540  176.4440  147.8490 N   0  0  0  0  0  1  0  0  0  0  0  0
  191.0110  176.7830  146.9430 C   0  0  0  0  0  0  0  0  0  0  0  0
  189.7120  176.7140  147.3460 N   0  0  0  0  0  0  0  0  0  0  0  0
  190.2850  177.5260  144.7710 C   0  0  0  0  0  3  0  0  0  0  0  0
  191.3200  177.1900  145.6430 C   0  0  0  0  0  3  0  0  0  0  0  0
  188.6890  177.0380  146.5100 C   0  0  0  0  0  3  0  0  0  0  0  0
  186.4750  177.6800  145.0350 C   0  0  1  0  0  3  0  0  0  0  0  0
  186.2660  178.8070  146.0300 C   0  0  0  0  0  2  0  0  0  0  0  0
  185.5070  178.8080  144.7140 C   0  0  2  0  0  3  0  0  0  0  0  0
  184.0940  178.3230  144.9490 C   0  0  0  0  0  2  0  0  0  0  0  0
  183.1080  179.3050  144.3420 C   0  0  0  0  0  2  0  0  0  0  0  0
  182.0210  178.5590  143.5900 C   0  0  1  0  0  3  0  0  0  0  0  0
  180.8360  178.6100  144.3220 O   0  0  0  0  0  1  0  0  0  0  0  0
  181.8040  179.1950  142.2250 C   0  0  0  0  0  2  0  0  0  0  0  0
  181.1300  178.2140  141.2670 C   0  0  1  0  0  3  0  0  0  0  0  0
  179.7510  178.4440  141.2090 O   0  0  0  0  0  1  0  0  0  0  0  0
  181.7140  178.2070  139.9790 O   0  0  0  0  0  0  0  0  0  0  0  0
  182.6710  176.1340  139.9010 O   0  0  0  0  0  1  0  0  0  0  0  0
  182.9290  177.4990  140.0310 C   0  0  1  0  0  3  0  0  0  0  0  0
  183.8350  177.9630  138.9020 C   0  0  0  0  0  2  0  0  0  0  0  0
  184.3590  180.2820  139.1410 O   0  0  0  0  0  1  0  0  0  0  0  0
  185.0300  178.8250  140.8910 C   0  0  0  0  0  1  0  0  0  0  0  0
  184.8330  178.9950  139.4000 C   0  0  1  0  0  3  0  0  0  0  0  0
  187.9270  177.0580  142.9470 C   0  0  0  0  0  2  0  0  0  0  0  0
  188.4300  177.9820  141.8480 C   0  0  0  0  0  2  0  0  0  0  0  0
  188.5200  177.2850  140.6430 O   0  0  0  0  0  0  0  0  0  0  0  0
  189.7280  177.7030  140.0830 C   0  0  0  0  0  2  0  0  0  0  0  0
  188.8940  179.2270  138.4580 O   0  0  0  0  0  0  0  0  0  0  0  0
  189.4990  178.1440  138.6810 C   0  0  0  0  0  0  0  0  0  0  0  0
  189.9900  177.3740  137.6290 O   0  0  0  0  0  0  0  0  0  0  0  0
  191.5790  175.6970  137.6880 C   0  0  0  0  0  0  0  0  0  0  0  0
  193.0460  175.9900  137.3910 C   0  0  0  0  0  2  0  0  0  0  0  0
  192.6820  174.6440  137.6980 C   0  0  2  0  0  3  0  0  0  0  0  0
  190.3460  176.0590  137.8190 N   0  0  0  0  0  0  0  0  0  0  0  0
  192.5950  173.8930  136.5260 O   0  0  0  0  0  1  0  0  0  0  0  0
  1 26  1  6  0  0  0
  1  2  1  0  0  0  0
  2  8  1  0  0  0  0
  4  5  1  0  0  0  0
  4  3  1  0  0  0  0
  6  2  2  0  0  0  0
  6  7  1  0  0  0  0
  7  4  2  0  0  0  0
  8  5  2  0  0  0  0
  9  1  1  6  0  0  0
  9 10  1  0  0  0  0
 11 12  1  1  0  0  0
 11  9  1  0  0  0  0
 11 10  1  0  0  0  0
 13 12  1  0  0  0  0
 14 15  1  1  0  0  0
 14 13  1  0  0  0  0
 16 14  1  0  0  0  0
 17 18  1  6  0  0  0
 17 16  1  0  0  0  0
 19 21  1  0  0  0  0
 19 17  1  0  0  0  0
 21 20  1  6  0  0  0
 22 25  1  0  0  0  0
 22 21  1  0  0  0  0
 23 25  1  0  0  0  0
 25 24  1  1  0  0  0
 27 26  1  0  0  0  0
 28 27  1  0  0  0  0
 29 28  1  0  0  0  0
 30 31  2  0  0  0  0
 31 29  1  0  0  0  0
 32 36  1  0  0  0  0
 32 31  1  0  0  0  0
 33 35  1  0  0  0  0
 33 36  2  0  0  0  0
 34 33  1  0  0  0  0
 34 35  1  0  0  0  0
 35 37  1  6  0  0  0
M  END
>  <MODEL>
5

>  <REMARK>
 VINA RESULT:      -7.2      1.517      2.141
  Name = 
  18 active torsions:
  status: ('A' for Active; 'I' for Inactive)
    1  A    between atoms: C_1  and  C_19
    2  A    between atoms: O_4  and  N_23
    3  A    between atoms: O_4  and  C_31
    4  A    between atoms: C_5  and  C_19
    5  A    between atoms: C_10  and  O_25
    6  A    between atoms: C_10  and  C_33
    7  A    between atoms: C_12  and  C_18
    8  A    between atoms: C_12  and  C_33
    9  A    between atoms: C_17  and  C_19
   10  A    between atoms: C_17  and  C_29
   11  A    between atoms: C_18  and  C_30
   12  A    between atoms: C_20  and  C_28
   13  A    between atoms: O_25  and  C_26
   14  A    between atoms: C_26  and  C_28
   15  A    between atoms: C_29  and  O_37
   16  A    between atoms: C_30  and  C_35
   17  A    between atoms: C_31  and  C_34
   18  A    between atoms: C_34  and  O_37
                            x       y       z     vdW  Elec       q    Type
                         _______ _______ _______ _____ _____    ______ ____

>  <TORSDO>
F 18

$$$$
=
 OpenBabel11042411553D

 37 39  0  0  1  0  0  0  0  0999 V2000
  187.8060  177.8120  144.4970 C   0  0  2  0  0  3  0  0  0  0  0  0
  188.9610  177.3930  145.3540 C   0  0  0  0  0  0  0  0  0  0  0  0
  192.2800  176.2600  147.6620 N   0  0  0  0  0  1  0  0  0  0  0  0
  191.1500  176.6490  146.8900 C   0  0  0  0  0  0  0  0  0  0  0  0
  191.3040  176.9760  145.5770 N   0  0  0  0  0  0  0  0  0  0  0  0
  188.7860  177.0660  146.7050 C   0  0  0  0  0  3  0  0  0  0  0  0
  189.8840  176.6900  147.4780 C   0  0  0  0  0  3  0  0  0  0  0  0
  190.2460  177.3450  144.8060 C   0  0  0  0  0  3  0  0  0  0  0  0
  186.4860  177.7090  145.2860 C   0  0  1  0  0  3  0  0  0  0  0  0
  186.4290  178.6850  146.4460 C   0  0  0  0  0  2  0  0  0  0  0  0
  185.6260  178.9590  145.1860 C   0  0  2  0  0  3  0  0  0  0  0  0
  184.1800  178.5790  145.4200 C   0  0  0  0  0  2  0  0  0  0  0  0
  183.2790  179.4350  144.5480 C   0  0  0  0  0  2  0  0  0  0  0  0
  182.4280  178.5530  143.6520 C   0  0  1  0  0  3  0  0  0  0  0  0
  181.0920  178.6560  144.0390 O   0  0  0  0  0  1  0  0  0  0  0  0
  182.5730  178.9940  142.2020 C   0  0  0  0  0  2  0  0  0  0  0  0
  184.0330  178.9360  141.7580 C   0  0  1  0  0  3  0  0  0  0  0  0
  184.5480  177.6440  141.9110 O   0  0  0  0  0  1  0  0  0  0  0  0
  184.2330  179.4280  140.4470 O   0  0  0  0  0  0  0  0  0  0  0  0
  182.4970  179.9580  139.0590 O   0  0  0  0  0  1  0  0  0  0  0  0
  183.2330  178.9070  139.6060 C   0  0  1  0  0  3  0  0  0  0  0  0
  183.8780  178.0940  138.4940 C   0  0  0  0  0  2  0  0  0  0  0  0
  184.0120  175.7750  137.9390 O   0  0  0  0  0  1  0  0  0  0  0  0
  182.3650  176.4250  139.5200 C   0  0  0  0  0  1  0  0  0  0  0  0
  183.1200  176.7980  138.2620 C   0  0  1  0  0  3  0  0  0  0  0  0
  187.8410  177.1270  143.1220 C   0  0  0  0  0  2  0  0  0  0  0  0
  187.7970  178.1480  141.9960 C   0  0  0  0  0  2  0  0  0  0  0  0
  189.0480  178.2380  141.3840 O   0  0  0  0  0  0  0  0  0  0  0  0
  189.4110  176.9150  141.1270 C   0  0  0  0  0  2  0  0  0  0  0  0
  191.6730  177.5970  140.8540 O   0  0  0  0  0  0  0  0  0  0  0  0
  190.7220  176.8870  140.4270 C   0  0  0  0  0  0  0  0  0  0  0  0
  190.8990  176.0480  139.3290 O   0  0  0  0  0  0  0  0  0  0  0  0
  189.3910  176.7070  137.7080 C   0  0  0  0  0  0  0  0  0  0  0  0
  189.3720  178.1390  137.1830 C   0  0  0  0  0  2  0  0  0  0  0  0
  188.4220  177.2190  136.6470 C   0  0  2  0  0  3  0  0  0  0  0  0
  189.8600  175.7770  138.4710 N   0  0  0  0  0  0  0  0  0  0  0  0
  187.1750  177.4200  137.2400 O   0  0  0  0  0  1  0  0  0  0  0  0
  1 26  1  6  0  0  0
  1  2  1  0  0  0  0
  2  6  1  0  0  0  0
  4  7  1  0  0  0  0
  4  3  1  0  0  0  0
  5  4  2  0  0  0  0
  6  7  2  0  0  0  0
  8  2  2  0  0  0  0
  8  5  1  0  0  0  0
  9  1  1  6  0  0  0
  9 10  1  0  0  0  0
 11  9  1  0  0  0  0
 11 12  1  1  0  0  0
 11 10  1  0  0  0  0
 13 12  1  0  0  0  0
 14 15  1  1  0  0  0
 14 13  1  0  0  0  0
 16 14  1  0  0  0  0
 17 18  1  6  0  0  0
 17 16  1  0  0  0  0
 19 17  1  0  0  0  0
 21 20  1  6  0  0  0
 21 19  1  0  0  0  0
 22 21  1  0  0  0  0
 23 25  1  0  0  0  0
 25 22  1  0  0  0  0
 25 24  1  1  0  0  0
 27 26  1  0  0  0  0
 28 27  1  0  0  0  0
 29 28  1  0  0  0  0
 31 30  2  0  0  0  0
 31 29  1  0  0  0  0
 32 31  1  0  0  0  0
 33 36  2  0  0  0  0
 34 33  1  0  0  0  0
 35 34  1  0  0  0  0
 35 37  1  1  0  0  0
 35 33  1  0  0  0  0
 36 32  1  0  0  0  0
M  END
>  <MODEL>
6

>  <REMARK>
 VINA RESULT:      -7.2      1.121      1.803
  Name = 
  18 active torsions:
  status: ('A' for Active; 'I' for Inactive)
    1  A    between atoms: C_1  and  C_19
    2  A    between atoms: O_4  and  N_23
    3  A    between atoms: O_4  and  C_31
    4  A    between atoms: C_5  and  C_19
    5  A    between atoms: C_10  and  O_25
    6  A    between atoms: C_10  and  C_33
    7  A    between atoms: C_12  and  C_18
    8  A    between atoms: C_12  and  C_33
    9  A    between atoms: C_17  and  C_19
   10  A    between atoms: C_17  and  C_29
   11  A    between atoms: C_18  and  C_30
   12  A    between atoms: C_20  and  C_28
   13  A    between atoms: O_25  and  C_26
   14  A    between atoms: C_26  and  C_28
   15  A    between atoms: C_29  and  O_37
   16  A    between atoms: C_30  and  C_35
   17  A    between atoms: C_31  and  C_34
   18  A    between atoms: C_34  and  O_37
                            x       y       z     vdW  Elec       q    Type
                         _______ _______ _______ _____ _____    ______ ____

>  <TORSDO>
F 18

$$$$
=
 OpenBabel11042411553D

 37 39  0  0  1  0  0  0  0  0999 V2000
  188.7860  178.0660  144.5710 C   0  0  2  0  0  3  0  0  0  0  0  0
  189.8350  177.3880  145.3980 C   0  0  0  0  0  0  0  0  0  0  0  0
  192.8500  175.4800  147.6100 N   0  0  0  0  0  1  0  0  0  0  0  0
  191.8270  176.1350  146.8700 C   0  0  0  0  0  0  0  0  0  0  0  0
  191.8760  176.1480  145.5090 N   0  0  0  0  0  0  0  0  0  0  0  0
  189.7730  177.3890  146.7970 C   0  0  0  0  0  3  0  0  0  0  0  0
  190.7720  176.7580  147.5390 C   0  0  0  0  0  3  0  0  0  0  0  0
  190.9110  176.7580  144.7680 C   0  0  0  0  0  3  0  0  0  0  0  0
  187.3950  177.4770  144.8780 C   0  0  1  0  0  3  0  0  0  0  0  0
  186.9480  177.7650  146.3000 C   0  0  0  0  0  2  0  0  0  0  0  0
  186.3380  178.5370  145.1430 C   0  0  2  0  0  3  0  0  0  0  0  0
  184.9760  177.9630  144.8190 C   0  0  0  0  0  2  0  0  0  0  0  0
  183.9060  179.0080  145.0730 C   0  0  0  0  0  2  0  0  0  0  0  0
  183.0000  179.1360  143.8620 C   0  0  1  0  0  3  0  0  0  0  0  0
  183.5110  178.3620  142.8210 O   0  0  0  0  0  1  0  0  0  0  0  0
  181.5970  178.6590  144.2100 C   0  0  0  0  0  2  0  0  0  0  0  0
  180.6690  178.7720  143.0020 C   0  0  1  0  0  3  0  0  0  0  0  0
  179.4040  178.2490  143.2980 O   0  0  0  0  0  1  0  0  0  0  0  0
  180.5840  180.0870  142.4890 O   0  0  0  0  0  0  0  0  0  0  0  0
  179.8370  181.3140  140.7120 O   0  0  0  0  0  1  0  0  0  0  0  0
  180.1570  180.0280  141.1500 C   0  0  1  0  0  3  0  0  0  0  0  0
  181.2670  179.4490  140.2880 C   0  0  0  0  0  2  0  0  0  0  0  0
  181.7560  178.4840  138.1580 O   0  0  0  0  0  1  0  0  0  0  0  0
  179.7840  177.7550  139.2600 C   0  0  0  0  0  1  0  0  0  0  0  0
  180.7120  178.9170  138.9770 C   0  0  1  0  0  3  0  0  0  0  0  0
  189.1900  178.1380  143.0890 C   0  0  0  0  0  2  0  0  0  0  0  0
  188.1650  177.4440  142.2050 C   0  0  0  0  0  2  0  0  0  0  0  0
  187.8550  178.2520  141.1100 O   0  0  0  0  0  0  0  0  0  0  0  0
  186.5920  178.7680  141.3990 C   0  0  0  0  0  2  0  0  0  0  0  0
  184.8450  179.6930  140.0750 O   0  0  0  0  0  0  0  0  0  0  0  0
  185.7990  178.8710  140.1450 C   0  0  0  0  0  0  0  0  0  0  0  0
  186.1430  178.0870  139.0460 O   0  0  0  0  0  0  0  0  0  0  0  0
  186.9400  177.9140  136.8840 C   0  0  0  0  0  0  0  0  0  0  0  0
  187.0850  176.5570  136.2030 C   0  0  0  0  0  2  0  0  0  0  0  0
  187.4660  177.7180  135.4660 C   0  0  2  0  0  3  0  0  0  0  0  0
  186.6240  178.6580  137.8910 N   0  0  0  0  0  0  0  0  0  0  0  0
  188.8530  177.8610  135.4790 O   0  0  0  0  0  1  0  0  0  0  0  0
  1 26  1  6  0  0  0
  1  2  1  0  0  0  0
  2  6  1  0  0  0  0
  4  7  1  0  0  0  0
  4  3  1  0  0  0  0
  5  4  2  0  0  0  0
  6  7  2  0  0  0  0
  8  2  2  0  0  0  0
  8  5  1  0  0  0  0
  9  1  1  1  0  0  0
  9 11  1  0  0  0  0
  9 10  1  0  0  0  0
 11 12  1  6  0  0  0
 11 10  1  0  0  0  0
 12 13  1  0  0  0  0
 14 15  1  6  0  0  0
 14 16  1  0  0  0  0
 14 13  1  0  0  0  0
 17 18  1  1  0  0  0
 17 16  1  0  0  0  0
 19 17  1  0  0  0  0
 21 20  1  6  0  0  0
 21 19  1  0  0  0  0
 22 21  1  0  0  0  0
 23 25  1  0  0  0  0
 25 24  1  1  0  0  0
 25 22  1  0  0  0  0
 27 26  1  0  0  0  0
 28 29  1  0  0  0  0
 28 27  1  0  0  0  0
 30 31  2  0  0  0  0
 31 29  1  0  0  0  0
 32 31  1  0  0  0  0
 33 36  2  0  0  0  0
 34 33  1  0  0  0  0
 35 37  1  1  0  0  0
 35 34  1  0  0  0  0
 35 33  1  0  0  0  0
 36 32  1  0  0  0  0
M  END
>  <MODEL>
7

>  <REMARK>
 VINA RESULT:      -7.0      1.962      3.078
  Name = 
  18 active torsions:
  status: ('A' for Active; 'I' for Inactive)
    1  A    between atoms: C_1  and  C_19
    2  A    between atoms: O_4  and  N_23
    3  A    between atoms: O_4  and  C_31
    4  A    between atoms: C_5  and  C_19
    5  A    between atoms: C_10  and  O_25
    6  A    between atoms: C_10  and  C_33
    7  A    between atoms: C_12  and  C_18
    8  A    between atoms: C_12  and  C_33
    9  A    between atoms: C_17  and  C_19
   10  A    between atoms: C_17  and  C_29
   11  A    between atoms: C_18  and  C_30
   12  A    between atoms: C_20  and  C_28
   13  A    between atoms: O_25  and  C_26
   14  A    between atoms: C_26  and  C_28
   15  A    between atoms: C_29  and  O_37
   16  A    between atoms: C_30  and  C_35
   17  A    between atoms: C_31  and  C_34
   18  A    between atoms: C_34  and  O_37
                            x       y       z     vdW  Elec       q    Type
                         _______ _______ _______ _____ _____    ______ ____

>  <TORSDO>
F 18

$$$$
=
 OpenBabel11042411553D

 37 39  0  0  1  0  0  0  0  0999 V2000
  185.2040  178.5340  143.5060 C   0  0  2  0  0  3  0  0  0  0  0  0
  183.7760  178.6610  143.0730 C   0  0  0  0  0  0  0  0  0  0  0  0
  179.7460  179.0820  141.9720 N   0  0  0  0  0  1  0  0  0  0  0  0
  181.1150  178.9420  142.3340 C   0  0  0  0  0  0  0  0  0  0  0  0
  181.5130  179.2170  143.6070 N   0  0  0  0  0  0  0  0  0  0  0  0
  183.3850  178.3800  141.7580 C   0  0  0  0  0  3  0  0  0  0  0  0
  182.0480  178.5190  141.3840 C   0  0  0  0  0  3  0  0  0  0  0  0
  182.8120  179.0880  143.9910 C   0  0  0  0  0  3  0  0  0  0  0  0
  185.3730  179.0270  144.9570 C   0  0  1  0  0  3  0  0  0  0  0  0
  184.5380  178.2260  145.9380 C   0  0  0  0  0  2  0  0  0  0  0  0
  186.0390  178.0050  145.8650 C   0  0  2  0  0  3  0  0  0  0  0  0
  186.7090  178.7320  147.0110 C   0  0  0  0  0  2  0  0  0  0  0  0
  187.5200  177.7490  147.8350 C   0  0  0  0  0  2  0  0  0  0  0  0
  189.0040  177.9920  147.6290 C   0  0  1  0  0  3  0  0  0  0  0  0
  189.5900  178.3280  148.8490 O   0  0  0  0  0  1  0  0  0  0  0  0
  189.6640  176.7370  147.0770 C   0  0  0  0  0  2  0  0  0  0  0  0
  190.8070  177.0950  146.1280 C   0  0  1  0  0  3  0  0  0  0  0  0
  192.0450  176.8020  146.7090 O   0  0  0  0  0  1  0  0  0  0  0  0
  190.6740  176.4990  144.8510 O   0  0  0  0  0  0  0  0  0  0  0  0
  190.0200  178.6710  144.5750 O   0  0  0  0  0  1  0  0  0  0  0  0
  190.3790  177.5000  143.9080 C   0  0  1  0  0  3  0  0  0  0  0  0
  191.6010  177.7540  143.0390 C   0  0  0  0  0  2  0  0  0  0  0  0
  190.4690  176.0430  141.8140 O   0  0  0  0  0  1  0  0  0  0  0  0
  191.8800  177.5090  140.5920 C   0  0  0  0  0  1  0  0  0  0  0  0
  191.6630  176.7610  141.8900 C   0  0  1  0  0  3  0  0  0  0  0  0
  186.1690  179.1230  142.4630 C   0  0  0  0  0  2  0  0  0  0  0  0
  187.2340  178.1130  142.0660 C   0  0  0  0  0  2  0  0  0  0  0  0
  188.1690  178.7130  141.2220 O   0  0  0  0  0  0  0  0  0  0  0  0
  188.2630  177.8490  140.1290 C   0  0  0  0  0  2  0  0  0  0  0  0
  189.0530  179.3670  138.4780 O   0  0  0  0  0  0  0  0  0  0  0  0
  188.1130  178.6240  138.8690 C   0  0  0  0  0  0  0  0  0  0  0  0
  186.9500  178.4920  138.1140 O   0  0  0  0  0  0  0  0  0  0  0  0
  184.6960  177.9820  138.1660 C   0  0  0  0  0  0  0  0  0  0  0  0
  184.0560  177.1240  137.0790 C   0  0  0  0  0  2  0  0  0  0  0  0
  183.2170  177.6120  138.1270 C   0  0  2  0  0  3  0  0  0  0  0  0
  185.7090  178.5760  138.7030 N   0  0  0  0  0  0  0  0  0  0  0  0
  182.4910  178.7160  137.6830 O   0  0  0  0  0  1  0  0  0  0  0  0
  1 26  1  6  0  0  0
  2  1  1  0  0  0  0
  2  8  1  0  0  0  0
  3  4  1  0  0  0  0
  4  5  1  0  0  0  0
  5  8  2  0  0  0  0
  6  2  2  0  0  0  0
  7  6  1  0  0  0  0
  7  4  2  0  0  0  0
  9  1  1  6  0  0  0
  9 11  1  0  0  0  0
  9 10  1  0  0  0  0
 11 10  1  0  0  0  0
 11 12  1  1  0  0  0
 12 13  1  0  0  0  0
 14 13  1  0  0  0  0
 14 15  1  1  0  0  0
 16 14  1  0  0  0  0
 17 18  1  1  0  0  0
 17 16  1  0  0  0  0
 19 17  1  0  0  0  0
 21 20  1  1  0  0  0
 21 19  1  0  0  0  0
 22 21  1  0  0  0  0
 23 25  1  0  0  0  0
 25 24  1  6  0  0  0
 25 22  1  0  0  0  0
 27 26  1  0  0  0  0
 28 27  1  0  0  0  0
 29 28  1  0  0  0  0
 30 31  2  0  0  0  0
 31 29  1  0  0  0  0
 32 36  1  0  0  0  0
 32 31  1  0  0  0  0
 33 36  2  0  0  0  0
 34 35  1  0  0  0  0
 34 33  1  0  0  0  0
 35 37  1  6  0  0  0
 35 33  1  0  0  0  0
M  END
>  <MODEL>
8

>  <REMARK>
 VINA RESULT:      -6.9      3.392      7.342
  Name = 
  18 active torsions:
  status: ('A' for Active; 'I' for Inactive)
    1  A    between atoms: C_1  and  C_19
    2  A    between atoms: O_4  and  N_23
    3  A    between atoms: O_4  and  C_31
    4  A    between atoms: C_5  and  C_19
    5  A    between atoms: C_10  and  O_25
    6  A    between atoms: C_10  and  C_33
    7  A    between atoms: C_12  and  C_18
    8  A    between atoms: C_12  and  C_33
    9  A    between atoms: C_17  and  C_19
   10  A    between atoms: C_17  and  C_29
   11  A    between atoms: C_18  and  C_30
   12  A    between atoms: C_20  and  C_28
   13  A    between atoms: O_25  and  C_26
   14  A    between atoms: C_26  and  C_28
   15  A    between atoms: C_29  and  O_37
   16  A    between atoms: C_30  and  C_35
   17  A    between atoms: C_31  and  C_34
   18  A    between atoms: C_34  and  O_37
                            x       y       z     vdW  Elec       q    Type
                         _______ _______ _______ _____ _____    ______ ____

>  <TORSDO>
F 18

$$$$
=
 OpenBabel11042411553D

 37 39  0  0  1  0  0  0  0  0999 V2000
  185.1190  178.4290  142.6690 C   0  0  2  0  0  3  0  0  0  0  0  0
  183.6470  178.6070  142.4560 C   0  0  0  0  0  0  0  0  0  0  0  0
  179.5190  179.1870  141.9590 N   0  0  0  0  0  1  0  0  0  0  0  0
  180.9190  178.9910  142.1150 C   0  0  0  0  0  0  0  0  0  0  0  0
  181.5490  179.4500  143.2320 N   0  0  0  0  0  0  0  0  0  0  0  0
  183.0160  178.1340  141.2980 C   0  0  0  0  0  3  0  0  0  0  0  0
  181.6450  178.3240  141.1250 C   0  0  0  0  0  3  0  0  0  0  0  0
  182.8860  179.2740  143.4190 C   0  0  0  0  0  3  0  0  0  0  0  0
  185.5160  178.8800  144.0880 C   0  0  1  0  0  3  0  0  0  0  0  0
  184.8260  178.0650  145.1660 C   0  0  0  0  0  2  0  0  0  0  0  0
  186.2940  177.8260  144.8590 C   0  0  2  0  0  3  0  0  0  0  0  0
  187.1430  178.5130  145.9060 C   0  0  0  0  0  2  0  0  0  0  0  0
  187.5880  177.5020  146.9480 C   0  0  0  0  0  2  0  0  0  0  0  0
  188.9650  177.8630  147.4750 C   0  0  1  0  0  3  0  0  0  0  0  0
  188.8660  178.2140  148.8210 O   0  0  0  0  0  1  0  0  0  0  0  0
  189.9060  176.6760  147.3260 C   0  0  0  0  0  2  0  0  0  0  0  0
  191.3580  177.1400  147.2320 C   0  0  1  0  0  3  0  0  0  0  0  0
  192.0800  176.7450  148.3640 O   0  0  0  0  0  1  0  0  0  0  0  0
  191.9940  176.7310  146.0370 O   0  0  0  0  0  0  0  0  0  0  0  0
  191.8860  178.4140  144.4950 O   0  0  0  0  0  1  0  0  0  0  0  0
  191.2760  177.2410  144.9390 C   0  0  1  0  0  3  0  0  0  0  0  0
  191.2620  176.2110  143.8210 C   0  0  0  0  0  2  0  0  0  0  0  0
  190.5560  176.0020  141.5480 O   0  0  0  0  0  1  0  0  0  0  0  0
  188.8700  176.0040  143.2180 C   0  0  0  0  0  1  0  0  0  0  0  0
  190.2090  176.5570  142.7810 C   0  0  1  0  0  3  0  0  0  0  0  0
  185.9360  179.0180  141.5070 C   0  0  0  0  0  2  0  0  0  0  0  0
  187.3680  178.5050  141.5270 C   0  0  0  0  0  2  0  0  0  0  0  0
  187.6990  177.9700  140.2810 O   0  0  0  0  0  0  0  0  0  0  0  0
  188.8740  178.6290  139.9150 C   0  0  0  0  0  2  0  0  0  0  0  0
  188.6620  179.4410  137.6890 O   0  0  0  0  0  0  0  0  0  0  0  0
  189.0670  178.5160  138.4450 C   0  0  0  0  0  0  0  0  0  0  0  0
  189.7290  177.4080  137.9200 O   0  0  0  0  0  0  0  0  0  0  0  0
  191.7900  176.3950  137.6630 C   0  0  0  0  0  0  0  0  0  0  0  0
  192.2180  175.8060  136.3230 C   0  0  0  0  0  2  0  0  0  0  0  0
  193.1270  175.7050  137.4190 C   0  0  2  0  0  3  0  0  0  0  0  0
  190.9420  177.0030  138.4250 N   0  0  0  0  0  0  0  0  0  0  0  0
  193.0760  174.4230  137.9670 O   0  0  0  0  0  1  0  0  0  0  0  0
  1 26  1  6  0  0  0
  2  1  1  0  0  0  0
  2  8  1  0  0  0  0
  3  4  1  0  0  0  0
  4  5  1  0  0  0  0
  5  8  2  0  0  0  0
  6  2  2  0  0  0  0
  7  6  1  0  0  0  0
  7  4  2  0  0  0  0
  9  1  1  6  0  0  0
  9 11  1  0  0  0  0
  9 10  1  0  0  0  0
 11 10  1  0  0  0  0
 11 12  1  1  0  0  0
 12 13  1  0  0  0  0
 13 14  1  0  0  0  0
 14 15  1  1  0  0  0
 16 14  1  0  0  0  0
 17 16  1  0  0  0  0
 17 18  1  1  0  0  0
 19 17  1  0  0  0  0
 21 20  1  6  0  0  0
 21 19  1  0  0  0  0
 22 21  1  0  0  0  0
 23 25  1  0  0  0  0
 25 24  1  1  0  0  0
 25 22  1  0  0  0  0
 26 27  1  0  0  0  0
 28 27  1  0  0  0  0
 29 28  1  0  0  0  0
 30 31  2  0  0  0  0
 31 29  1  0  0  0  0
 32 36  1  0  0  0  0
 32 31  1  0  0  0  0
 33 36  2  0  0  0  0
 34 35  1  0  0  0  0
 34 33  1  0  0  0  0
 35 33  1  0  0  0  0
 35 37  1  1  0  0  0
M  END
>  <MODEL>
9

>  <REMARK>
 VINA RESULT:      -6.9      3.581      7.533
  Name = 
  18 active torsions:
  status: ('A' for Active; 'I' for Inactive)
    1  A    between atoms: C_1  and  C_19
    2  A    between atoms: O_4  and  N_23
    3  A    between atoms: O_4  and  C_31
    4  A    between atoms: C_5  and  C_19
    5  A    between atoms: C_10  and  O_25
    6  A    between atoms: C_10  and  C_33
    7  A    between atoms: C_12  and  C_18
    8  A    between atoms: C_12  and  C_33
    9  A    between atoms: C_17  and  C_19
   10  A    between atoms: C_17  and  C_29
   11  A    between atoms: C_18  and  C_30
   12  A    between atoms: C_20  and  C_28
   13  A    between atoms: O_25  and  C_26
   14  A    between atoms: C_26  and  C_28
   15  A    between atoms: C_29  and  O_37
   16  A    between atoms: C_30  and  C_35
   17  A    between atoms: C_31  and  C_34
   18  A    between atoms: C_34  and  O_37
                            x       y       z     vdW  Elec       q    Type
                         _______ _______ _______ _____ _____    ______ ____

>  <TORSDO>
F 18

$$$$
