=
 OpenBabel11042411523D

 35 40  0  0  0  0  0  0  0  0999 V2000
  182.7900  179.1640  143.6380 C   0  0  0  0  0  0  0  0  0  0  0  0
  186.1500  178.1020  143.9220 C   0  0  0  0  0  3  0  0  0  0  0  0
  181.6400  177.9850  140.5860 C   0  0  0  0  0  3  0  0  0  0  0  0
  179.5740  177.8090  142.6530 C   0  0  0  0  0  2  0  0  0  0  0  0
  180.8150  178.5720  142.7720 N   0  0  0  0  0  0  0  0  0  0  0  0
  186.4010  178.0720  145.3100 C   0  0  0  0  0  0  0  0  0  0  0  0
  181.4260  178.9140  143.9900 N   0  0  0  0  0  2  0  0  0  0  0  0
  179.3270  177.4150  141.2120 C   0  0  0  0  0  3  0  0  0  0  0  0
  184.3340  178.5370  142.2240 C   0  0  0  0  0  0  0  0  0  0  0  0
  183.0580  178.9640  142.3410 N   0  0  0  0  0  0  0  0  0  0  0  0
  181.8320  178.5350  141.7810 C   0  0  0  0  0  0  0  0  0  0  0  0
  185.3750  178.4300  146.2200 C   0  0  0  0  0  3  0  0  0  0  0  0
  183.9180  178.9140  144.3890 C   0  0  0  0  0  0  0  0  0  0  0  0
  184.1090  178.8370  145.7640 C   0  0  0  0  0  3  0  0  0  0  0  0
  180.2900  177.4710  140.2760 C   0  0  0  0  0  3  0  0  0  0  0  0
  184.9020  178.5430  143.4910 C   0  0  0  0  0  0  0  0  0  0  0  0
  187.9940  177.2030  147.0920 C   0  0  0  0  0  3  0  0  0  0  0  0
  189.2970  176.8830  147.1850 N   0  0  0  0  0  2  0  0  0  0  0  0
  188.8880  177.5900  145.0740 C   0  0  0  0  0  3  0  0  0  0  0  0
  189.8260  177.1260  145.9720 C   0  0  0  0  0  0  0  0  0  0  0  0
  187.7190  177.6390  145.8090 C   0  0  0  0  0  0  0  0  0  0  0  0
  191.2500  176.8550  145.6360 C   0  0  0  0  0  2  0  0  0  0  0  0
  191.9860  176.6930  146.8090 O   0  0  0  0  0  1  0  0  0  0  0  0
  184.9480  177.9780  140.9810 C   0  0  0  0  0  2  0  0  0  0  0  0
  185.0250  179.0320  139.8800 C   0  0  0  0  0  2  0  0  0  0  0  0
  184.9310  178.4140  138.4910 C   0  0  0  0  0  2  0  0  0  0  0  0
  186.2730  177.8570  138.0550 C   0  0  0  0  0  2  0  0  0  0  0  0
  187.3380  178.6670  138.6260 N   0  0  0  0  0  2  0  0  0  0  0  0
  189.6760  177.5940  141.4360 C   0  0  0  0  0  2  0  0  0  0  0  0
  188.4530  178.1130  139.3300 C   0  0  0  0  0  0  0  0  0  0  0  0
  191.6480  176.4320  138.5300 C   0  0  0  0  0  1  0  0  0  0  0  0
  188.5040  178.1410  140.6690 C   0  0  0  0  0  3  0  0  0  0  0  0
  190.7770  177.3160  139.2810 N   0  0  0  0  0  0  0  0  0  0  0  0
  190.5160  176.6650  140.5610 C   0  0  0  0  0  2  0  0  0  0  0  0
  189.5160  177.3920  138.5430 C   0  0  0  0  0  2  0  0  0  0  0  0
  1  7  1  0  0  0  0
  1 13  2  0  0  0  0
  2  6  2  0  0  0  0
  3 11  2  0  0  0  0
  4  5  1  0  0  0  0
  5  7  1  0  0  0  0
  6 21  1  0  0  0  0
  6 12  1  0  0  0  0
  8  4  1  0  0  0  0
  9 10  1  0  0  0  0
  9 16  2  0  0  0  0
 10  1  1  0  0  0  0
 11 10  1  0  0  0  0
 11  5  1  0  0  0  0
 13 14  1  0  0  0  0
 14 12  2  0  0  0  0
 15  3  1  0  0  0  0
 15  8  2  0  0  0  0
 16  2  1  0  0  0  0
 16 13  1  0  0  0  0
 17 18  1  0  0  0  0
 19 21  1  0  0  0  0
 19 20  2  0  0  0  0
 20 18  1  0  0  0  0
 21 17  2  0  0  0  0
 22 20  1  0  0  0  0
 22 23  1  0  0  0  0
 24  9  1  0  0  0  0
 25 24  1  0  0  0  0
 26 25  1  0  0  0  0
 27 26  1  0  0  0  0
 27 28  1  0  0  0  0
 28 30  1  0  0  0  0
 30 32  2  0  0  0  0
 31 33  1  0  0  0  0
 32 29  1  0  0  0  0
 33 34  1  0  0  0  0
 34 29  1  0  0  0  0
 35 33  1  0  0  0  0
 35 30  1  0  0  0  0
M  END
>  <MODEL>
1

>  <REMARK>
 VINA RESULT:      -9.6      0.000      0.000
  Name = 
  8 active torsions:
  status: ('A' for Active; 'I' for Inactive)
    1  A    between atoms: C_5  and  CA_20
    2  A    between atoms: C_6  and  N_21
    3  A    between atoms: C_8  and  C_23
    4  A    between atoms: C_8  and  C_27
    5  A    between atoms: C_13  and  C_17
    6  A    between atoms: C_13  and  C_27
    7  A    between atoms: C_14  and  C_31
    8  A    between atoms: C_17  and  N_21
                            x       y       z     vdW  Elec       q    Type
                         _______ _______ _______ _____ _____    ______ ____

>  <TORSDO>
F 8

$$$$
=
 OpenBabel11042411523D

 35 40  0  0  0  0  0  0  0  0999 V2000
  185.6950  178.2370  138.0460 C   0  0  0  0  0  0  0  0  0  0  0  0
  186.1780  178.6310  141.5250 C   0  0  0  0  0  3  0  0  0  0  0  0
  188.6610  176.9630  136.7790 C   0  0  0  0  0  3  0  0  0  0  0  0
  186.3320  175.7710  135.4640 C   0  0  0  0  0  2  0  0  0  0  0  0
  186.2990  176.9630  136.3090 N   0  0  0  0  0  0  0  0  0  0  0  0
  184.8790  178.5850  142.0760 C   0  0  0  0  0  0  0  0  0  0  0  0
  185.1620  177.4180  137.0000 N   0  0  0  0  0  2  0  0  0  0  0  0
  187.7560  175.4390  135.0680 C   0  0  0  0  0  3  0  0  0  0  0  0
  187.4380  178.4280  139.3490 C   0  0  0  0  0  0  0  0  0  0  0  0
  187.0330  178.2800  138.0690 N   0  0  0  0  0  0  0  0  0  0  0  0
  187.4400  177.4350  137.0100 C   0  0  0  0  0  0  0  0  0  0  0  0
  183.7590  178.4070  141.2250 C   0  0  0  0  0  3  0  0  0  0  0  0
  185.2030  178.4080  139.3210 C   0  0  0  0  0  0  0  0  0  0  0  0
  183.9140  178.2950  139.8320 C   0  0  0  0  0  3  0  0  0  0  0  0
  188.8190  175.9690  135.6970 C   0  0  0  0  0  3  0  0  0  0  0  0
  186.3060  178.5550  140.1410 C   0  0  0  0  0  0  0  0  0  0  0  0
  183.5190  179.0280  144.1780 C   0  0  0  0  0  3  0  0  0  0  0  0
  183.7190  179.0170  145.5090 N   0  0  0  0  0  2  0  0  0  0  0  0
  185.6640  178.4600  144.4920 C   0  0  0  0  0  3  0  0  0  0  0  0
  185.0100  178.6830  145.6860 C   0  0  0  0  0  0  0  0  0  0  0  0
  184.6950  178.6910  143.5350 C   0  0  0  0  0  0  0  0  0  0  0  0
  185.6290  178.5130  147.0280 C   0  0  0  0  0  2  0  0  0  0  0  0
  185.8260  179.7620  147.6150 O   0  0  0  0  0  1  0  0  0  0  0  0
  188.8460  178.2830  139.8310 C   0  0  0  0  0  2  0  0  0  0  0  0
  189.1590  176.8350  140.1980 C   0  0  0  0  0  2  0  0  0  0  0  0
  189.9690  176.7350  141.4850 C   0  0  0  0  0  2  0  0  0  0  0  0
  189.7880  177.9780  142.3350 C   0  0  0  0  0  2  0  0  0  0  0  0
  190.8160  178.0110  143.3640 N   0  0  0  0  0  2  0  0  0  0  0  0
  189.1510  177.7280  146.7790 C   0  0  0  0  0  2  0  0  0  0  0  0
  190.5670  177.6740  144.7320 C   0  0  0  0  0  0  0  0  0  0  0  0
  192.2910  175.9040  147.4840 C   0  0  0  0  0  1  0  0  0  0  0  0
  189.4280  178.0410  145.3350 C   0  0  0  0  0  3  0  0  0  0  0  0
  191.4500  176.9330  146.9030 N   0  0  0  0  0  0  0  0  0  0  0  0
  190.0760  176.6240  147.2870 C   0  0  0  0  0  2  0  0  0  0  0  0
  191.5590  176.7960  145.4490 C   0  0  0  0  0  2  0  0  0  0  0  0
  1 10  1  0  0  0  0
  1 13  2  0  0  0  0
  2  6  2  0  0  0  0
  3 11  2  0  0  0  0
  4  5  1  0  0  0  0
  5  7  1  0  0  0  0
  5 11  1  0  0  0  0
  6 21  1  0  0  0  0
  7  1  1  0  0  0  0
  8  4  1  0  0  0  0
  8 15  2  0  0  0  0
  9 24  1  0  0  0  0
  9 16  2  0  0  0  0
 10  9  1  0  0  0  0
 11 10  1  0  0  0  0
 12  6  1  0  0  0  0
 13 14  1  0  0  0  0
 13 16  1  0  0  0  0
 14 12  2  0  0  0  0
 15  3  1  0  0  0  0
 16  2  1  0  0  0  0
 17 18  1  0  0  0  0
 18 20  1  0  0  0  0
 19 20  2  0  0  0  0
 20 22  1  0  0  0  0
 21 17  2  0  0  0  0
 21 19  1  0  0  0  0
 22 23  1  0  0  0  0
 24 25  1  0  0  0  0
 25 26  1  0  0  0  0
 26 27  1  0  0  0  0
 27 28  1  0  0  0  0
 28 30  1  0  0  0  0
 29 34  1  0  0  0  0
 30 32  2  0  0  0  0
 30 35  1  0  0  0  0
 32 29  1  0  0  0  0
 33 34  1  0  0  0  0
 33 31  1  0  0  0  0
 35 33  1  0  0  0  0
M  END
>  <MODEL>
2

>  <REMARK>
 VINA RESULT:      -8.9      2.374      6.452
  Name = 
  8 active torsions:
  status: ('A' for Active; 'I' for Inactive)
    1  A    between atoms: C_5  and  CA_20
    2  A    between atoms: C_6  and  N_21
    3  A    between atoms: C_8  and  C_23
    4  A    between atoms: C_8  and  C_27
    5  A    between atoms: C_13  and  C_17
    6  A    between atoms: C_13  and  C_27
    7  A    between atoms: C_14  and  C_31
    8  A    between atoms: C_17  and  N_21
                            x       y       z     vdW  Elec       q    Type
                         _______ _______ _______ _____ _____    ______ ____

>  <TORSDO>
F 8

$$$$
=
 OpenBabel11042411523D

 35 40  0  0  1  0  0  0  0  0999 V2000
  184.5190  179.2770  144.7300 C   0  0  0  0  0  0  0  0  0  0  0  0
  187.7740  177.9500  144.3600 C   0  0  0  0  0  3  0  0  0  0  0  0
  182.8540  178.6460  141.7530 C   0  0  0  0  0  3  0  0  0  0  0  0
  181.0870  178.3140  144.0640 C   0  0  0  0  0  2  0  0  0  0  0  0
  182.3960  178.9600  144.0980 N   0  0  0  0  0  0  0  0  0  0  0  0
  188.2110  177.6960  145.6780 C   0  0  0  0  0  0  0  0  0  0  0  0
  183.1990  179.0750  145.2460 N   0  0  0  0  0  2  0  0  0  0  0  0
  180.6080  178.1560  142.6360 C   0  0  0  0  0  3  0  0  0  0  0  0
  185.7880  178.7580  143.0290 C   0  0  0  0  0  0  0  0  0  0  0  0
  184.5850  179.2520  143.3930 N   0  0  0  0  0  0  0  0  0  0  0  0
  183.2600  178.9980  142.9700 C   0  0  0  0  0  0  0  0  0  0  0  0
  187.3570  177.9880  146.7710 C   0  0  0  0  0  3  0  0  0  0  0  0
  185.7110  178.8390  145.2620 C   0  0  0  0  0  0  0  0  0  0  0  0
  186.0830  178.5470  146.5700 C   0  0  0  0  0  3  0  0  0  0  0  0
  181.4330  178.2810  141.5830 C   0  0  0  0  0  3  0  0  0  0  0  0
  186.5240  178.5360  144.1850 C   0  0  0  0  0  0  0  0  0  0  0  0
  190.4730  176.8030  144.9340 C   0  0  0  0  0  3  0  0  0  0  0  0
  191.5720  176.2830  145.5120 N   0  0  0  0  0  0  0  0  0  0  0  0
  190.0710  176.7600  147.1390 C   0  0  0  0  0  3  0  0  0  0  0  0
  191.3170  176.2550  146.8330 C   0  0  0  0  0  0  0  0  0  0  0  0
  189.5400  177.1020  145.9100 C   0  0  1  0  0  3  0  0  0  0  0  0
  192.3060  175.7890  147.8420 C   0  0  0  0  0  2  0  0  0  0  0  0
  192.6960  176.8600  148.6450 O   0  0  0  0  0  1  0  0  0  0  0  0
  186.1700  178.3470  141.6430 C   0  0  0  0  0  2  0  0  0  0  0  0
  187.5510  178.8780  141.2700 C   0  0  0  0  0  2  0  0  0  0  0  0
  188.4220  177.8020  140.6320 C   0  0  0  0  0  2  0  0  0  0  0  0
  189.0290  178.2990  139.3340 C   0  0  0  0  0  2  0  0  0  0  0  0
  187.9630  178.6410  138.4040 N   0  0  0  0  0  2  0  0  0  0  0  0
  186.6750  175.4580  136.7540 C   0  0  0  0  0  2  0  0  0  0  0  0
  187.0910  177.6690  137.8200 C   0  0  0  0  0  0  0  0  0  0  0  0
  183.5030  177.3470  136.9830 C   0  0  0  0  0  1  0  0  0  0  0  0
  187.5610  176.4870  137.3990 C   0  0  0  0  0  3  0  0  0  0  0  0
  184.9260  177.1520  136.7780 N   0  0  0  0  0  0  0  0  0  0  0  0
  185.2030  175.7440  137.0440 C   0  0  0  0  0  2  0  0  0  0  0  0
  185.6110  177.9520  137.7940 C   0  0  0  0  0  2  0  0  0  0  0  0
  1  7  1  0  0  0  0
  1 13  2  0  0  0  0
  2  6  2  0  0  0  0
  3 11  2  0  0  0  0
  4  5  1  0  0  0  0
  5  7  1  0  0  0  0
  6 12  1  0  0  0  0
  8  4  1  0  0  0  0
  9 10  1  0  0  0  0
  9 16  2  0  0  0  0
 10  1  1  0  0  0  0
 11 10  1  0  0  0  0
 11  5  1  0  0  0  0
 13 14  1  0  0  0  0
 14 12  2  0  0  0  0
 15  3  1  0  0  0  0
 15  8  2  0  0  0  0
 16  2  1  0  0  0  0
 16 13  1  0  0  0  0
 17 18  2  0  0  0  0
 17 21  1  0  0  0  0
 18 20  1  0  0  0  0
 20 19  2  0  0  0  0
 20 22  1  0  0  0  0
 21  6  1  1  0  0  0
 21 19  1  0  0  0  0
 22 23  1  0  0  0  0
 24  9  1  0  0  0  0
 25 24  1  0  0  0  0
 26 25  1  0  0  0  0
 27 26  1  0  0  0  0
 28 27  1  0  0  0  0
 29 34  1  0  0  0  0
 29 32  1  0  0  0  0
 30 28  1  0  0  0  0
 32 30  2  0  0  0  0
 33 31  1  0  0  0  0
 33 34  1  0  0  0  0
 33 35  1  0  0  0  0
 35 30  1  0  0  0  0
M  END
>  <MODEL>
3

>  <REMARK>
 VINA RESULT:      -8.7      1.589      3.229
  Name = 
  8 active torsions:
  status: ('A' for Active; 'I' for Inactive)
    1  A    between atoms: C_5  and  CA_20
    2  A    between atoms: C_6  and  N_21
    3  A    between atoms: C_8  and  C_23
    4  A    between atoms: C_8  and  C_27
    5  A    between atoms: C_13  and  C_17
    6  A    between atoms: C_13  and  C_27
    7  A    between atoms: C_14  and  C_31
    8  A    between atoms: C_17  and  N_21
                            x       y       z     vdW  Elec       q    Type
                         _______ _______ _______ _____ _____    ______ ____

>  <TORSDO>
F 8

$$$$
=
 OpenBabel11042411523D

 35 40  0  0  0  0  0  0  0  0999 V2000
  183.0900  179.1950  143.8430 C   0  0  0  0  0  0  0  0  0  0  0  0
  186.4180  178.0950  144.3030 C   0  0  0  0  0  3  0  0  0  0  0  0
  182.0980  178.0510  140.7230 C   0  0  0  0  0  3  0  0  0  0  0  0
  179.9190  177.8830  142.6720 C   0  0  0  0  0  2  0  0  0  0  0  0
  181.1590  178.6310  142.8650 N   0  0  0  0  0  0  0  0  0  0  0  0
  186.5910  178.0510  145.7030 C   0  0  0  0  0  0  0  0  0  0  0  0
  181.7050  178.9580  144.1180 N   0  0  0  0  0  2  0  0  0  0  0  0
  179.7470  177.5020  141.2160 C   0  0  0  0  0  3  0  0  0  0  0  0
  184.7020  178.5610  142.5120 C   0  0  0  0  0  0  0  0  0  0  0  0
  183.4270  179.0020  142.5620 N   0  0  0  0  0  0  0  0  0  0  0  0
  182.2290  178.5900  141.9310 C   0  0  0  0  0  0  0  0  0  0  0  0
  185.5200  178.4130  146.5580 C   0  0  0  0  0  3  0  0  0  0  0  0
  184.1710  178.9270  144.6530 C   0  0  0  0  0  0  0  0  0  0  0  0
  184.2850  178.8380  146.0360 C   0  0  0  0  0  3  0  0  0  0  0  0
  180.7610  177.5550  140.3350 C   0  0  0  0  0  3  0  0  0  0  0  0
  185.2000  178.5520  143.8080 C   0  0  0  0  0  0  0  0  0  0  0  0
  188.0920  177.2300  147.5850 C   0  0  0  0  0  3  0  0  0  0  0  0
  189.3780  176.8680  147.7400 N   0  0  0  0  0  2  0  0  0  0  0  0
  189.0640  177.4670  145.5790 C   0  0  0  0  0  3  0  0  0  0  0  0
  189.9550  177.0210  146.5340 C   0  0  0  0  0  0  0  0  0  0  0  0
  187.8750  177.6010  146.2710 C   0  0  0  0  0  0  0  0  0  0  0  0
  191.3770  176.6800  146.2620 C   0  0  0  0  0  2  0  0  0  0  0  0
  191.8120  175.7230  147.1780 O   0  0  0  0  0  1  0  0  0  0  0  0
  185.3780  178.0050  141.2990 C   0  0  0  0  0  2  0  0  0  0  0  0
  186.4410  178.9630  140.7700 C   0  0  0  0  0  2  0  0  0  0  0  0
  187.8440  178.5490  141.1940 C   0  0  0  0  0  2  0  0  0  0  0  0
  188.5580  177.8280  140.0660 C   0  0  0  0  0  2  0  0  0  0  0  0
  188.4200  178.5990  138.8390 N   0  0  0  0  0  2  0  0  0  0  0  0
  186.9890  178.0910  135.3450 C   0  0  0  0  0  2  0  0  0  0  0  0
  188.0890  178.0120  137.5780 C   0  0  0  0  0  0  0  0  0  0  0  0
  188.6270  174.8070  135.8110 C   0  0  0  0  0  1  0  0  0  0  0  0
  187.3770  178.6920  136.6680 C   0  0  0  0  0  3  0  0  0  0  0  0
  187.8800  175.9900  136.1960 N   0  0  0  0  0  0  0  0  0  0  0  0
  187.8440  176.8650  135.0290 C   0  0  0  0  0  2  0  0  0  0  0  0
  188.6560  176.6570  137.2420 C   0  0  0  0  0  2  0  0  0  0  0  0
  1  7  1  0  0  0  0
  1 13  2  0  0  0  0
  2  6  2  0  0  0  0
  3 11  2  0  0  0  0
  4  5  1  0  0  0  0
  5  7  1  0  0  0  0
  6 21  1  0  0  0  0
  6 12  1  0  0  0  0
  8  4  1  0  0  0  0
  9 10  1  0  0  0  0
  9 16  2  0  0  0  0
 10  1  1  0  0  0  0
 11 10  1  0  0  0  0
 11  5  1  0  0  0  0
 13 14  1  0  0  0  0
 14 12  2  0  0  0  0
 15  3  1  0  0  0  0
 15  8  2  0  0  0  0
 16  2  1  0  0  0  0
 16 13  1  0  0  0  0
 17 18  1  0  0  0  0
 19 21  1  0  0  0  0
 19 20  2  0  0  0  0
 20 18  1  0  0  0  0
 21 17  2  0  0  0  0
 22 20  1  0  0  0  0
 22 23  1  0  0  0  0
 24  9  1  0  0  0  0
 25 26  1  0  0  0  0
 25 24  1  0  0  0  0
 27 26  1  0  0  0  0
 28 27  1  0  0  0  0
 29 32  1  0  0  0  0
 30 28  1  0  0  0  0
 31 33  1  0  0  0  0
 32 30  2  0  0  0  0
 33 35  1  0  0  0  0
 34 29  1  0  0  0  0
 34 33  1  0  0  0  0
 35 30  1  0  0  0  0
M  END
>  <MODEL>
4

>  <REMARK>
 VINA RESULT:      -8.7      1.416      2.268
  Name = 
  8 active torsions:
  status: ('A' for Active; 'I' for Inactive)
    1  A    between atoms: C_5  and  CA_20
    2  A    between atoms: C_6  and  N_21
    3  A    between atoms: C_8  and  C_23
    4  A    between atoms: C_8  and  C_27
    5  A    between atoms: C_13  and  C_17
    6  A    between atoms: C_13  and  C_27
    7  A    between atoms: C_14  and  C_31
    8  A    between atoms: C_17  and  N_21
                            x       y       z     vdW  Elec       q    Type
                         _______ _______ _______ _____ _____    ______ ____

>  <TORSDO>
F 8

$$$$
=
 OpenBabel11042411523D

 35 40  0  0  1  0  0  0  0  0999 V2000
  186.6840  177.4990  146.1570 C   0  0  0  0  0  0  0  0  0  0  0  0
  186.1930  177.8490  142.6740 C   0  0  0  0  0  3  0  0  0  0  0  0
  190.0660  176.8890  146.6190 C   0  0  0  0  0  3  0  0  0  0  0  0
  188.9920  178.6280  148.7160 C   0  0  0  0  0  2  0  0  0  0  0  0
  188.1860  177.8510  147.7770 N   0  0  0  0  0  0  0  0  0  0  0  0
  185.0230  178.6280  142.5520 C   0  0  0  0  0  0  0  0  0  0  0  0
  186.8660  178.1670  147.4100 N   0  0  0  0  0  2  0  0  0  0  0  0
  190.4300  178.1530  148.7010 C   0  0  0  0  0  3  0  0  0  0  0  0
  187.7830  176.8760  144.3750 C   0  0  0  0  0  0  0  0  0  0  0  0
  187.7740  176.8540  145.7250 N   0  0  0  0  0  0  0  0  0  0  0  0
  188.7580  177.1080  146.7100 C   0  0  0  0  0  0  0  0  0  0  0  0
  184.3480  179.0720  143.7170 C   0  0  0  0  0  3  0  0  0  0  0  0
  185.9320  177.9120  145.0800 C   0  0  0  0  0  0  0  0  0  0  0  0
  184.8110  178.7320  145.0000 C   0  0  0  0  0  3  0  0  0  0  0  0
  190.9220  177.3790  147.7190 C   0  0  0  0  0  3  0  0  0  0  0  0
  186.6150  177.4940  143.9520 C   0  0  0  0  0  0  0  0  0  0  0  0
  185.3060  179.3780  140.1390 C   0  0  0  0  0  3  0  0  0  0  0  0
  184.5140  179.6390  139.0830 N   0  0  0  0  0  0  0  0  0  0  0  0
  183.2000  179.0290  140.8230 C   0  0  0  0  0  3  0  0  0  0  0  0
  183.2530  179.4350  139.5060 C   0  0  0  0  0  0  0  0  0  0  0  0
  184.5250  179.0030  141.2160 C   0  0  1  0  0  3  0  0  0  0  0  0
  182.0660  179.5700  138.6200 C   0  0  0  0  0  2  0  0  0  0  0  0
  181.7620  180.9200  138.4480 O   0  0  0  0  0  1  0  0  0  0  0  0
  188.9380  176.4780  143.5120 C   0  0  0  0  0  2  0  0  0  0  0  0
  189.8250  177.6770  143.1880 C   0  0  0  0  0  2  0  0  0  0  0  0
  191.2570  177.2600  142.8770 C   0  0  0  0  0  2  0  0  0  0  0  0
  191.5850  177.5030  141.4160 C   0  0  0  0  0  2  0  0  0  0  0  0
  190.8140  176.5860  140.5910 N   0  0  0  0  0  2  0  0  0  0  0  0
  188.2950  178.2530  138.2700 C   0  0  0  0  0  2  0  0  0  0  0  0
  190.1130  176.9930  139.4130 C   0  0  0  0  0  0  0  0  0  0  0  0
  190.2740  176.3790  135.7690 C   0  0  0  0  0  1  0  0  0  0  0  0
  189.0690  177.8310  139.4870 C   0  0  0  0  0  3  0  0  0  0  0  0
  189.6100  176.6150  137.0370 N   0  0  0  0  0  0  0  0  0  0  0  0
  189.0880  177.9770  136.9940 C   0  0  0  0  0  2  0  0  0  0  0  0
  190.6420  176.5550  138.0720 C   0  0  0  0  0  2  0  0  0  0  0  0
  1  7  1  0  0  0  0
  2 16  1  0  0  0  0
  3 11  2  0  0  0  0
  3 15  1  0  0  0  0
  5  4  1  0  0  0  0
  6  2  2  0  0  0  0
  6 12  1  0  0  0  0
  7  5  1  0  0  0  0
  8  4  1  0  0  0  0
  9 10  1  0  0  0  0
 10  1  1  0  0  0  0
 10 11  1  0  0  0  0
 11  5  1  0  0  0  0
 12 14  2  0  0  0  0
 13  1  2  0  0  0  0
 14 13  1  0  0  0  0
 15  8  2  0  0  0  0
 16  9  2  0  0  0  0
 16 13  1  0  0  0  0
 17 21  1  0  0  0  0
 18 20  1  0  0  0  0
 18 17  2  0  0  0  0
 19 21  1  0  0  0  0
 20 19  2  0  0  0  0
 21  6  1  6  0  0  0
 22 20  1  0  0  0  0
 23 22  1  0  0  0  0
 24  9  1  0  0  0  0
 25 24  1  0  0  0  0
 26 25  1  0  0  0  0
 27 26  1  0  0  0  0
 28 27  1  0  0  0  0
 29 32  1  0  0  0  0
 30 32  2  0  0  0  0
 30 28  1  0  0  0  0
 31 33  1  0  0  0  0
 33 35  1  0  0  0  0
 34 33  1  0  0  0  0
 34 29  1  0  0  0  0
 35 30  1  0  0  0  0
M  END
>  <MODEL>
5

>  <REMARK>
 VINA RESULT:      -8.3      3.247      7.153
  Name = 
  8 active torsions:
  status: ('A' for Active; 'I' for Inactive)
    1  A    between atoms: C_5  and  CA_20
    2  A    between atoms: C_6  and  N_21
    3  A    between atoms: C_8  and  C_23
    4  A    between atoms: C_8  and  C_27
    5  A    between atoms: C_13  and  C_17
    6  A    between atoms: C_13  and  C_27
    7  A    between atoms: C_14  and  C_31
    8  A    between atoms: C_17  and  N_21
                            x       y       z     vdW  Elec       q    Type
                         _______ _______ _______ _____ _____    ______ ____

>  <TORSDO>
F 8

$$$$
=
 OpenBabel11042411523D

 35 40  0  0  1  0  0  0  0  0999 V2000
  184.4510  179.2460  144.7030 C   0  0  0  0  0  0  0  0  0  0  0  0
  187.7320  177.9910  144.3030 C   0  0  0  0  0  3  0  0  0  0  0  0
  182.8130  178.6940  141.6970 C   0  0  0  0  0  3  0  0  0  0  0  0
  181.0400  178.2460  143.9840 C   0  0  0  0  0  2  0  0  0  0  0  0
  182.3380  178.9140  144.0480 N   0  0  0  0  0  0  0  0  0  0  0  0
  188.1670  177.6990  145.6130 C   0  0  0  0  0  0  0  0  0  0  0  0
  183.1320  179.0020  145.2040 N   0  0  0  0  0  2  0  0  0  0  0  0
  180.5710  178.1310  142.5490 C   0  0  0  0  0  3  0  0  0  0  0  0
  185.7370  178.8110  142.9920 C   0  0  0  0  0  0  0  0  0  0  0  0
  184.5240  179.2710  143.3670 N   0  0  0  0  0  0  0  0  0  0  0  0
  183.2050  179.0080  142.9270 C   0  0  0  0  0  0  0  0  0  0  0  0
  187.3030  177.9350  146.7120 C   0  0  0  0  0  3  0  0  0  0  0  0
  185.6490  178.8110  145.2260 C   0  0  0  0  0  0  0  0  0  0  0  0
  186.0190  178.4780  146.5240 C   0  0  0  0  0  3  0  0  0  0  0  0
  181.3990  178.3090  141.5050 C   0  0  0  0  0  3  0  0  0  0  0  0
  186.4720  178.5610  144.1430 C   0  0  0  0  0  0  0  0  0  0  0  0
  190.4710  176.9300  144.8600 C   0  0  0  0  0  3  0  0  0  0  0  0
  191.5680  176.3910  145.4220 N   0  0  0  0  0  0  0  0  0  0  0  0
  190.0130  176.6880  147.0410 C   0  0  0  0  0  3  0  0  0  0  0  0
  191.2810  176.2420  146.7280 C   0  0  0  0  0  0  0  0  0  0  0  0
  189.5060  177.1210  145.8310 C   0  0  1  0  0  3  0  0  0  0  0  0
  192.2560  175.7160  147.7210 C   0  0  0  0  0  2  0  0  0  0  0  0
  192.7320  176.7630  148.5090 O   0  0  0  0  0  1  0  0  0  0  0  0
  186.1330  178.4580  141.5940 C   0  0  0  0  0  2  0  0  0  0  0  0
  187.5700  178.8800  141.3020 C   0  0  0  0  0  2  0  0  0  0  0  0
  188.3360  177.8090  140.5360 C   0  0  0  0  0  2  0  0  0  0  0  0
  188.7330  178.3090  139.1600 C   0  0  0  0  0  2  0  0  0  0  0  0
  190.0870  177.8700  138.8610 N   0  0  0  0  0  2  0  0  0  0  0  0
  191.9180  174.7780  137.5950 C   0  0  0  0  0  2  0  0  0  0  0  0
  190.3820  176.6520  138.1720 C   0  0  0  0  0  0  0  0  0  0  0  0
  188.7140  174.3660  135.7910 C   0  0  0  0  0  1  0  0  0  0  0  0
  191.5670  176.0440  138.3270 C   0  0  0  0  0  3  0  0  0  0  0  0
  189.8400  175.0820  136.3600 N   0  0  0  0  0  0  0  0  0  0  0  0
  190.6640  174.0950  137.0510 C   0  0  0  0  0  2  0  0  0  0  0  0
  189.2930  176.0000  137.3610 C   0  0  0  0  0  2  0  0  0  0  0  0
  1  7  1  0  0  0  0
  1 13  2  0  0  0  0
  2  6  2  0  0  0  0
  3 11  2  0  0  0  0
  4  5  1  0  0  0  0
  5  7  1  0  0  0  0
  6 12  1  0  0  0  0
  8  4  1  0  0  0  0
  9 10  1  0  0  0  0
  9 16  2  0  0  0  0
 10  1  1  0  0  0  0
 11 10  1  0  0  0  0
 11  5  1  0  0  0  0
 13 14  1  0  0  0  0
 14 12  2  0  0  0  0
 15  3  1  0  0  0  0
 15  8  2  0  0  0  0
 16  2  1  0  0  0  0
 16 13  1  0  0  0  0
 17 18  2  0  0  0  0
 17 21  1  0  0  0  0
 18 20  1  0  0  0  0
 20 19  2  0  0  0  0
 20 22  1  0  0  0  0
 21  6  1  1  0  0  0
 21 19  1  0  0  0  0
 22 23  1  0  0  0  0
 24  9  1  0  0  0  0
 25 24  1  0  0  0  0
 26 25  1  0  0  0  0
 27 26  1  0  0  0  0
 28 27  1  0  0  0  0
 29 32  1  0  0  0  0
 30 32  2  0  0  0  0
 30 28  1  0  0  0  0
 31 33  1  0  0  0  0
 33 34  1  0  0  0  0
 33 35  1  0  0  0  0
 34 29  1  0  0  0  0
 35 30  1  0  0  0  0
M  END
>  <MODEL>
6

>  <REMARK>
 VINA RESULT:      -8.2      1.687      2.693
  Name = 
  8 active torsions:
  status: ('A' for Active; 'I' for Inactive)
    1  A    between atoms: C_5  and  CA_20
    2  A    between atoms: C_6  and  N_21
    3  A    between atoms: C_8  and  C_23
    4  A    between atoms: C_8  and  C_27
    5  A    between atoms: C_13  and  C_17
    6  A    between atoms: C_13  and  C_27
    7  A    between atoms: C_14  and  C_31
    8  A    between atoms: C_17  and  N_21
                            x       y       z     vdW  Elec       q    Type
                         _______ _______ _______ _____ _____    ______ ____

>  <TORSDO>
F 8

$$$$
=
 OpenBabel11042411523D

 35 40  0  0  1  0  0  0  0  0999 V2000
  186.6540  177.4630  144.3920 C   0  0  0  0  0  0  0  0  0  0  0  0
  188.3530  177.4600  141.2920 C   0  0  0  0  0  3  0  0  0  0  0  0
  189.0840  177.1550  146.8460 C   0  0  0  0  0  3  0  0  0  0  0  0
  186.9540  178.9890  147.6670 C   0  0  0  0  0  2  0  0  0  0  0  0
  186.8790  178.0720  146.5330 N   0  0  0  0  0  0  0  0  0  0  0  0
  187.4850  178.1340  140.4060 C   0  0  0  0  0  0  0  0  0  0  0  0
  186.0420  178.2520  145.4170 N   0  0  0  0  0  2  0  0  0  0  0  0
  188.1160  178.6260  148.5690 C   0  0  0  0  0  3  0  0  0  0  0  0
  188.6080  176.7680  143.7050 C   0  0  0  0  0  0  0  0  0  0  0  0
  187.7900  176.8660  144.7750 N   0  0  0  0  0  0  0  0  0  0  0  0
  187.9830  177.2820  146.1130 C   0  0  0  0  0  0  0  0  0  0  0  0
  186.2430  178.6280  140.8760 C   0  0  0  0  0  3  0  0  0  0  0  0
  186.6970  177.7190  143.0390 C   0  0  0  0  0  0  0  0  0  0  0  0
  185.8440  178.4410  142.2120 C   0  0  0  0  0  3  0  0  0  0  0  0
  189.1040  177.8060  148.1730 C   0  0  0  0  0  3  0  0  0  0  0  0
  187.9240  177.2550  142.6000 C   0  0  0  0  0  0  0  0  0  0  0  0
  189.0010  179.0520  138.5810 C   0  0  0  0  0  3  0  0  0  0  0  0
  189.0560  179.0320  137.2370 N   0  0  0  0  0  0  0  0  0  0  0  0
  187.2240  177.8720  137.8890 C   0  0  0  0  0  3  0  0  0  0  0  0
  187.9830  178.3300  136.8320 C   0  0  0  0  0  0  0  0  0  0  0  0
  187.8880  178.3480  139.0040 C   0  0  1  0  0  3  0  0  0  0  0  0
  187.6970  178.0320  135.4020 C   0  0  0  0  0  2  0  0  0  0  0  0
  186.3760  177.6090  135.2660 O   0  0  0  0  0  1  0  0  0  0  0  0
  190.0520  176.3830  143.7540 C   0  0  0  0  0  2  0  0  0  0  0  0
  190.9370  177.5920  144.0410 C   0  0  0  0  0  2  0  0  0  0  0  0
  191.6760  178.0670  142.7960 C   0  0  0  0  0  2  0  0  0  0  0  0
  191.8050  176.9440  141.7840 C   0  0  0  0  0  2  0  0  0  0  0  0
  191.8030  177.5040  140.4410 N   0  0  0  0  0  2  0  0  0  0  0  0
  190.7090  175.2210  137.5950 C   0  0  0  0  0  2  0  0  0  0  0  0
  191.8230  176.7030  139.2570 C   0  0  0  0  0  0  0  0  0  0  0  0
  194.2770  175.6290  136.7070 C   0  0  0  0  0  1  0  0  0  0  0  0
  190.7120  176.0930  138.8190 C   0  0  0  0  0  3  0  0  0  0  0  0
  193.1330  175.4680  137.5830 N   0  0  0  0  0  0  0  0  0  0  0  0
  191.9450  175.4800  136.7350 C   0  0  0  0  0  2  0  0  0  0  0  0
  193.0900  176.6510  138.4440 C   0  0  0  0  0  2  0  0  0  0  0  0
  1 10  1  0  0  0  0
  1  7  1  0  0  0  0
  2 16  1  0  0  0  0
  3 15  1  0  0  0  0
  4  8  1  0  0  0  0
  5  4  1  0  0  0  0
  6 12  1  0  0  0  0
  6  2  2  0  0  0  0
  7  5  1  0  0  0  0
  9 24  1  0  0  0  0
  9 10  1  0  0  0  0
 10 11  1  0  0  0  0
 11  5  1  0  0  0  0
 11  3  2  0  0  0  0
 12 14  2  0  0  0  0
 13  1  2  0  0  0  0
 14 13  1  0  0  0  0
 15  8  2  0  0  0  0
 16 13  1  0  0  0  0
 16  9  2  0  0  0  0
 17 21  1  0  0  0  0
 18 17  2  0  0  0  0
 19 21  1  0  0  0  0
 20 18  1  0  0  0  0
 20 19  2  0  0  0  0
 21  6  1  1  0  0  0
 22 20  1  0  0  0  0
 23 22  1  0  0  0  0
 24 25  1  0  0  0  0
 26 25  1  0  0  0  0
 27 26  1  0  0  0  0
 28 27  1  0  0  0  0
 29 32  1  0  0  0  0
 30 28  1  0  0  0  0
 31 33  1  0  0  0  0
 32 30  2  0  0  0  0
 33 35  1  0  0  0  0
 34 33  1  0  0  0  0
 34 29  1  0  0  0  0
 35 30  1  0  0  0  0
M  END
>  <MODEL>
7

>  <REMARK>
 VINA RESULT:      -8.2      3.729      7.057
  Name = 
  8 active torsions:
  status: ('A' for Active; 'I' for Inactive)
    1  A    between atoms: C_5  and  CA_20
    2  A    between atoms: C_6  and  N_21
    3  A    between atoms: C_8  and  C_23
    4  A    between atoms: C_8  and  C_27
    5  A    between atoms: C_13  and  C_17
    6  A    between atoms: C_13  and  C_27
    7  A    between atoms: C_14  and  C_31
    8  A    between atoms: C_17  and  N_21
                            x       y       z     vdW  Elec       q    Type
                         _______ _______ _______ _____ _____    ______ ____

>  <TORSDO>
F 8

$$$$
=
 OpenBabel11042411523D

 35 40  0  0  1  0  0  0  0  0999 V2000
  190.7750  178.0890  143.0100 C   0  0  0  0  0  0  0  0  0  0  0  0
  189.0470  177.2870  140.0320 C   0  0  0  0  0  3  0  0  0  0  0  0
  188.5210  177.6410  145.6070 C   0  0  0  0  0  3  0  0  0  0  0  0
  191.2110  176.7590  146.3550 C   0  0  0  0  0  2  0  0  0  0  0  0
  190.8910  177.5700  145.1830 N   0  0  0  0  0  0  0  0  0  0  0  0
  190.0580  176.9220  139.1170 C   0  0  0  0  0  0  0  0  0  0  0  0
  191.6810  177.6390  144.0220 N   0  0  0  0  0  2  0  0  0  0  0  0
  190.0420  176.7300  147.3170 C   0  0  0  0  0  3  0  0  0  0  0  0
  188.6720  177.9850  142.4280 C   0  0  0  0  0  0  0  0  0  0  0  0
  189.5200  178.2550  143.4440 N   0  0  0  0  0  0  0  0  0  0  0  0
  189.5560  177.8790  144.8070 C   0  0  0  0  0  0  0  0  0  0  0  0
  191.4160  176.9420  139.5230 C   0  0  0  0  0  3  0  0  0  0  0  0
  190.7640  177.7530  141.6740 C   0  0  0  0  0  0  0  0  0  0  0  0
  191.7820  177.3410  140.8200 C   0  0  0  0  0  3  0  0  0  0  0  0
  188.8040  177.1090  146.9560 C   0  0  0  0  0  3  0  0  0  0  0  0
  189.4330  177.7130  141.3000 C   0  0  0  0  0  0  0  0  0  0  0  0
  189.8050  177.2590  136.6090 C   0  0  0  0  0  3  0  0  0  0  0  0
  189.3930  176.5400  135.5490 N   0  0  0  0  0  0  0  0  0  0  0  0
  189.1980  175.2520  137.4020 C   0  0  0  0  0  3  0  0  0  0  0  0
  189.0230  175.3410  136.0360 C   0  0  0  0  0  0  0  0  0  0  0  0
  189.6950  176.4920  137.7540 C   0  0  1  0  0  3  0  0  0  0  0  0
  188.5460  174.2260  135.1750 C   0  0  0  0  0  2  0  0  0  0  0  0
  187.1690  174.3400  134.9820 O   0  0  0  0  0  1  0  0  0  0  0  0
  187.1910  177.8210  142.5580 C   0  0  0  0  0  2  0  0  0  0  0  0
  186.4490  179.0100  141.9550 C   0  0  0  0  0  2  0  0  0  0  0  0
  184.9700  179.0040  142.3220 C   0  0  0  0  0  2  0  0  0  0  0  0
  184.1100  178.7790  141.0930 C   0  0  0  0  0  2  0  0  0  0  0  0
  184.8400  179.2080  139.9100 N   0  0  0  0  0  2  0  0  0  0  0  0
  186.0850  177.4940  136.7440 C   0  0  0  0  0  2  0  0  0  0  0  0
  184.8710  178.4580  138.6930 C   0  0  0  0  0  0  0  0  0  0  0  0
  182.4820  176.6950  136.4880 C   0  0  0  0  0  1  0  0  0  0  0  0
  186.0240  178.2530  138.0400 C   0  0  0  0  0  3  0  0  0  0  0  0
  183.6490  177.5030  136.7860 N   0  0  0  0  0  0  0  0  0  0  0  0
  184.8180  176.6650  136.5350 C   0  0  0  0  0  2  0  0  0  0  0  0
  183.6010  177.8010  138.2180 C   0  0  0  0  0  2  0  0  0  0  0  0
  1 10  1  0  0  0  0
  1  7  1  0  0  0  0
  2 16  1  0  0  0  0
  3 15  1  0  0  0  0
  4  8  1  0  0  0  0
  5  4  1  0  0  0  0
  6 12  1  0  0  0  0
  6  2  2  0  0  0  0
  7  5  1  0  0  0  0
  9 24  1  0  0  0  0
  9 10  1  0  0  0  0
 10 11  1  0  0  0  0
 11  5  1  0  0  0  0
 11  3  2  0  0  0  0
 12 14  2  0  0  0  0
 13  1  2  0  0  0  0
 14 13  1  0  0  0  0
 15  8  2  0  0  0  0
 16 13  1  0  0  0  0
 16  9  2  0  0  0  0
 17 21  1  0  0  0  0
 18 20  1  0  0  0  0
 18 17  2  0  0  0  0
 19 21  1  0  0  0  0
 20 19  2  0  0  0  0
 21  6  1  6  0  0  0
 22 20  1  0  0  0  0
 23 22  1  0  0  0  0
 25 26  1  0  0  0  0
 25 24  1  0  0  0  0
 27 26  1  0  0  0  0
 28 27  1  0  0  0  0
 29 32  1  0  0  0  0
 30 28  1  0  0  0  0
 31 33  1  0  0  0  0
 32 30  2  0  0  0  0
 33 35  1  0  0  0  0
 34 29  1  0  0  0  0
 34 33  1  0  0  0  0
 35 30  1  0  0  0  0
M  END
>  <MODEL>
8

>  <REMARK>
 VINA RESULT:      -8.2      3.379      8.200
  Name = 
  8 active torsions:
  status: ('A' for Active; 'I' for Inactive)
    1  A    between atoms: C_5  and  CA_20
    2  A    between atoms: C_6  and  N_21
    3  A    between atoms: C_8  and  C_23
    4  A    between atoms: C_8  and  C_27
    5  A    between atoms: C_13  and  C_17
    6  A    between atoms: C_13  and  C_27
    7  A    between atoms: C_14  and  C_31
    8  A    between atoms: C_17  and  N_21
                            x       y       z     vdW  Elec       q    Type
                         _______ _______ _______ _____ _____    ______ ____

>  <TORSDO>
F 8

$$$$
=
 OpenBabel11042411523D

 35 40  0  0  1  0  0  0  0  0999 V2000
  186.1530  177.5040  145.8450 C   0  0  0  0  0  0  0  0  0  0  0  0
  185.7410  177.8780  142.3540 C   0  0  0  0  0  3  0  0  0  0  0  0
  189.5380  176.9800  146.3860 C   0  0  0  0  0  3  0  0  0  0  0  0
  188.3650  178.6660  148.4720 C   0  0  0  0  0  2  0  0  0  0  0  0
  187.6040  177.8780  147.5060 N   0  0  0  0  0  0  0  0  0  0  0  0
  184.5540  178.6270  142.2100 C   0  0  0  0  0  0  0  0  0  0  0  0
  186.2860  178.1620  147.1090 N   0  0  0  0  0  2  0  0  0  0  0  0
  189.8150  178.2310  148.4900 C   0  0  0  0  0  3  0  0  0  0  0  0
  187.3140  176.9300  144.0850 C   0  0  0  0  0  0  0  0  0  0  0  0
  187.2710  176.8930  145.4340 N   0  0  0  0  0  0  0  0  0  0  0  0
  188.2230  177.1630  146.4460 C   0  0  0  0  0  0  0  0  0  0  0  0
  183.8370  179.0400  143.3620 C   0  0  0  0  0  3  0  0  0  0  0  0
  185.4170  177.9080  144.7530 C   0  0  0  0  0  0  0  0  0  0  0  0
  184.2770  178.6990  144.6530 C   0  0  0  0  0  3  0  0  0  0  0  0
  190.3530  177.4810  147.5120 C   0  0  0  0  0  3  0  0  0  0  0  0
  186.1400  177.5210  143.6390 C   0  0  0  0  0  0  0  0  0  0  0  0
  184.8820  179.2910  139.7780 C   0  0  0  0  0  3  0  0  0  0  0  0
  184.1070  179.5830  138.7170 N   0  0  0  0  0  0  0  0  0  0  0  0
  182.7590  179.1170  140.4750 C   0  0  0  0  0  3  0  0  0  0  0  0
  182.8360  179.4830  139.1480 C   0  0  0  0  0  0  0  0  0  0  0  0
  184.0790  179.0030  140.8660 C   0  0  1  0  0  3  0  0  0  0  0  0
  181.6580  179.6840  138.2610 C   0  0  0  0  0  2  0  0  0  0  0  0
  181.7580  178.8430  137.1530 O   0  0  0  0  0  1  0  0  0  0  0  0
  188.5000  176.5730  143.2470 C   0  0  0  0  0  2  0  0  0  0  0  0
  189.2820  177.8170  142.8370 C   0  0  0  0  0  2  0  0  0  0  0  0
  189.2770  178.0220  141.3270 C   0  0  0  0  0  2  0  0  0  0  0  0
  190.2580  177.0820  140.6520 C   0  0  0  0  0  2  0  0  0  0  0  0
  190.4390  177.4900  139.2670 N   0  0  0  0  0  2  0  0  0  0  0  0
  187.9080  178.9820  136.8430 C   0  0  0  0  0  2  0  0  0  0  0  0
  189.3580  177.6200  138.3400 C   0  0  0  0  0  0  0  0  0  0  0  0
  186.7950  175.4550  136.7840 C   0  0  0  0  0  1  0  0  0  0  0  0
  189.0570  178.8080  137.7970 C   0  0  0  0  0  3  0  0  0  0  0  0
  187.3050  176.6810  137.3670 N   0  0  0  0  0  0  0  0  0  0  0  0
  187.4590  177.6370  136.2750 C   0  0  0  0  0  2  0  0  0  0  0  0
  188.6350  176.3750  137.8960 C   0  0  0  0  0  2  0  0  0  0  0  0
  1  7  1  0  0  0  0
  2 16  1  0  0  0  0
  3 11  2  0  0  0  0
  3 15  1  0  0  0  0
  4  8  1  0  0  0  0
  5  4  1  0  0  0  0
  6  2  2  0  0  0  0
  6 12  1  0  0  0  0
  7  5  1  0  0  0  0
  9 10  1  0  0  0  0
 10  1  1  0  0  0  0
 10 11  1  0  0  0  0
 11  5  1  0  0  0  0
 12 14  2  0  0  0  0
 13  1  2  0  0  0  0
 14 13  1  0  0  0  0
 15  8  2  0  0  0  0
 16  9  2  0  0  0  0
 16 13  1  0  0  0  0
 17 21  1  0  0  0  0
 18 20  1  0  0  0  0
 18 17  2  0  0  0  0
 19 21  1  0  0  0  0
 20 19  2  0  0  0  0
 21  6  1  6  0  0  0
 22 20  1  0  0  0  0
 23 22  1  0  0  0  0
 24  9  1  0  0  0  0
 25 24  1  0  0  0  0
 26 25  1  0  0  0  0
 27 26  1  0  0  0  0
 28 27  1  0  0  0  0
 29 32  1  0  0  0  0
 30 28  1  0  0  0  0
 31 33  1  0  0  0  0
 32 30  2  0  0  0  0
 33 35  1  0  0  0  0
 34 29  1  0  0  0  0
 34 33  1  0  0  0  0
 35 30  1  0  0  0  0
M  END
>  <MODEL>
9

>  <REMARK>
 VINA RESULT:      -8.1      3.247      7.064
  Name = 
  8 active torsions:
  status: ('A' for Active; 'I' for Inactive)
    1  A    between atoms: C_5  and  CA_20
    2  A    between atoms: C_6  and  N_21
    3  A    between atoms: C_8  and  C_23
    4  A    between atoms: C_8  and  C_27
    5  A    between atoms: C_13  and  C_17
    6  A    between atoms: C_13  and  C_27
    7  A    between atoms: C_14  and  C_31
    8  A    between atoms: C_17  and  N_21
                            x       y       z     vdW  Elec       q    Type
                         _______ _______ _______ _____ _____    ______ ____

>  <TORSDO>
F 8

$$$$
