=
 OpenBabel11042409583D

 38 40  0  0  1  0  0  0  0  0999 V2000
  190.4480  177.2520  145.8550 C   0  0  2  0  0  3  0  0  0  0  0  0
  188.4330  178.2780  147.6140 O   0  0  0  0  0  0  0  0  0  0  0  0
  189.0200  177.3130  145.5710 N   0  0  0  0  0  2  0  0  0  0  0  0
  188.0640  177.8470  146.4880 C   0  0  0  0  0  0  0  0  0  0  0  0
  186.6150  177.8350  146.1140 C   0  0  1  0  0  3  0  0  0  0  0  0
  185.0940  178.8750  147.2210 O   0  0  0  0  0  1  0  0  0  0  0  0
  186.0430  179.0910  146.3330 O   0  0  0  0  0  0  0  0  0  0  0  0
  186.3770  177.3510  144.6810 C   0  0  0  0  0  2  0  0  0  0  0  0
  186.0300  178.4900  143.7260 C   0  0  0  0  0  2  0  0  0  0  0  0
  184.5660  178.4700  143.4190 C   0  0  0  0  0  0  0  0  0  0  0  0
  183.2230  178.7400  139.4150 N   0  0  0  0  0  2  0  0  0  0  0  0
  182.4270  178.0450  140.4260 C   0  0  0  0  0  2  0  0  0  0  0  0
  184.0940  178.6980  142.0820 N   0  0  0  0  0  0  0  0  0  0  0  0
  183.7480  178.2170  144.3450 O   0  0  0  0  0  0  0  0  0  0  0  0
  184.6380  178.5170  139.7110 C   0  0  0  0  0  2  0  0  0  0  0  0
  185.0030  179.1720  141.0390 C   0  0  0  0  0  2  0  0  0  0  0  0
  182.6610  178.6760  141.7960 C   0  0  0  0  0  2  0  0  0  0  0  0
  191.1720  176.6430  144.6630 C   0  0  0  0  0  2  0  0  0  0  0  0
  191.6320  178.8880  143.9870 O   0  0  0  0  0  1  0  0  0  0  0  0
  191.2670  177.6280  143.5090 C   0  0  1  0  0  3  0  0  0  0  0  0
  192.2270  177.1830  142.5990 O   0  0  0  0  0  0  0  0  0  0  0  0
  191.6640  177.4190  141.3420 C   0  0  0  0  0  2  0  0  0  0  0  0
  190.3520  176.6630  141.2040 C   0  0  0  0  0  2  0  0  0  0  0  0
  188.6430  177.5970  138.1400 C   0  0  0  0  0  0  0  0  0  0  0  0
  188.4140  178.8660  141.2220 O   0  0  0  0  0  0  0  0  0  0  0  0
  189.3830  177.2290  135.8280 C   0  0  0  0  0  3  0  0  0  0  0  0
  187.2660  178.4060  136.2290 C   0  0  0  0  0  1  0  0  0  0  0  0
  190.6190  175.4930  137.0810 C   0  0  0  0  0  3  0  0  0  0  0  0
  190.3770  176.4080  135.9960 N   0  0  0  0  0  0  0  0  0  0  0  0
  188.2040  177.3270  136.7410 C   0  0  2  0  0  3  0  0  0  0  0  0
  190.2600  175.6930  138.3190 N   0  0  0  0  0  0  0  0  0  0  0  0
  188.6770  178.2300  140.1650 C   0  0  0  0  0  0  0  0  0  0  0  0
  188.0760  178.4900  138.9830 N   0  0  0  0  0  2  0  0  0  0  0  0
  189.5570  177.2120  140.1110 N   0  0  0  0  0  0  0  0  0  0  0  0
  189.5410  176.8190  138.8280 C   0  0  0  0  0  0  0  0  0  0  0  0
  190.7070  176.4440  147.1250 C   0  0  0  0  0  2  0  0  0  0  0  0
  192.6020  175.7090  147.9820 C   0  0  0  0  0  1  0  0  0  0  0  0
  191.8760  176.8770  147.7580 O   0  0  0  0  0  0  0  0  0  0  0  0
  1 18  1  6  0  0  0
  1 36  1  0  0  0  0
  3  1  1  0  0  0  0
  3  4  1  0  0  0  0
  4  2  2  0  0  0  0
  5  8  1  6  0  0  0
  5  7  1  0  0  0  0
  5  4  1  0  0  0  0
  7  6  1  0  0  0  0
  9  8  1  0  0  0  0
 10  9  1  0  0  0  0
 10 14  2  0  0  0  0
 11 15  1  0  0  0  0
 11 12  1  0  0  0  0
 12 17  1  0  0  0  0
 13 10  1  0  0  0  0
 15 16  1  0  0  0  0
 16 13  1  0  0  0  0
 17 13  1  0  0  0  0
 20 19  1  1  0  0  0
 20 18  1  0  0  0  0
 21 20  1  0  0  0  0
 22 21  1  0  0  0  0
 23 22  1  0  0  0  0
 24 35  2  0  0  0  0
 24 33  1  0  0  0  0
 26 29  2  0  0  0  0
 26 30  1  0  0  0  0
 28 31  2  0  0  0  0
 29 28  1  0  0  0  0
 30 27  1  6  0  0  0
 30 24  1  0  0  0  0
 31 35  1  0  0  0  0
 32 25  2  0  0  0  0
 33 32  1  0  0  0  0
 34 32  1  0  0  0  0
 34 23  1  0  0  0  0
 35 34  1  0  0  0  0
 36 38  1  0  0  0  0
 38 37  1  0  0  0  0
M  END
>  <MODEL>
1

>  <REMARK>
 VINA RESULT:      -7.9      0.000      0.000
  Name = 
  14 active torsions:
  status: ('A' for Active; 'I' for Inactive)
    1  A    between atoms: C_1  and  C_14
    2  A    between atoms: C_1  and  N_37
    3  A    between atoms: C_2  and  C_5
    4  A    between atoms: C_2  and  N_18
    5  A    between atoms: C_2  and  C_36
    6  A    between atoms: C_5  and  C_21
    7  A    between atoms: C_6  and  C_31
    8  A    between atoms: C_14  and  O_30
    9  A    between atoms: C_16  and  C_25
   10  A    between atoms: C_16  and  C_31
   11  A    between atoms: C_21  and  O_30
   12  A    between atoms: C_25  and  O_29
   13  A    between atoms: C_25  and  C_32
   14  A    between atoms: O_28  and  C_36
                            x       y       z     vdW  Elec       q    Type
                         _______ _______ _______ _____ _____    ______ ____

>  <TORSDO>
F 14

$$$$
=
 OpenBabel11042409583D

 38 40  0  0  1  0  0  0  0  0999 V2000
  187.5200  177.3200  145.8510 C   0  0  2  0  0  3  0  0  0  0  0  0
  188.0310  176.2270  143.2530 O   0  0  0  0  0  0  0  0  0  0  0  0
  188.6790  177.6110  145.0180 N   0  0  0  0  0  2  0  0  0  0  0  0
  188.8720  177.0410  143.7230 C   0  0  0  0  0  0  0  0  0  0  0  0
  190.1130  177.3800  142.9590 C   0  0  1  0  0  3  0  0  0  0  0  0
  191.5790  176.0810  143.8440 O   0  0  0  0  0  1  0  0  0  0  0  0
  191.2290  177.3500  143.8000 O   0  0  0  0  0  0  0  0  0  0  0  0
  190.3130  176.4900  141.7280 C   0  0  0  0  0  2  0  0  0  0  0  0
  190.8390  177.2650  140.5230 C   0  0  0  0  0  2  0  0  0  0  0  0
  190.4870  176.5450  139.2600 C   0  0  0  0  0  0  0  0  0  0  0  0
  188.2900  178.5100  136.2240 N   0  0  0  0  0  2  0  0  0  0  0  0
  189.2170  177.4270  135.8950 C   0  0  0  0  0  2  0  0  0  0  0  0
  189.6280  177.1530  138.2840 N   0  0  0  0  0  0  0  0  0  0  0  0
  190.9820  175.4050  139.0460 O   0  0  0  0  0  0  0  0  0  0  0  0
  188.8440  179.2650  137.3470 C   0  0  0  0  0  2  0  0  0  0  0  0
  188.9010  178.3840  138.5910 C   0  0  0  0  0  2  0  0  0  0  0  0
  189.2920  176.4370  137.0550 C   0  0  0  0  0  2  0  0  0  0  0  0
  186.4830  178.4190  145.6720 C   0  0  0  0  0  2  0  0  0  0  0  0
  185.8700  179.8520  147.4830 O   0  0  0  0  0  1  0  0  0  0  0  0
  185.6380  178.5940  146.9250 C   0  0  1  0  0  3  0  0  0  0  0  0
  184.2890  178.4770  146.5920 O   0  0  0  0  0  0  0  0  0  0  0  0
  184.2700  178.4040  145.1970 C   0  0  0  0  0  2  0  0  0  0  0  0
  183.3320  179.4570  144.6270 C   0  0  0  0  0  2  0  0  0  0  0  0
  182.7700  178.4780  141.1770 C   0  0  0  0  0  0  0  0  0  0  0  0
  180.6000  178.9900  143.6660 O   0  0  0  0  0  0  0  0  0  0  0  0
  184.2190  178.8850  139.2380 C   0  0  0  0  0  3  0  0  0  0  0  0
  182.0810  177.7240  138.9060 C   0  0  0  0  0  1  0  0  0  0  0  0
  185.7950  179.0200  141.1370 C   0  0  0  0  0  3  0  0  0  0  0  0
  185.3140  179.2910  139.8080 N   0  0  0  0  0  0  0  0  0  0  0  0
  183.2380  177.9490  139.8640 C   0  0  2  0  0  3  0  0  0  0  0  0
  185.0360  178.8350  142.1810 N   0  0  0  0  0  0  0  0  0  0  0  0
  181.5960  178.8630  142.9030 C   0  0  0  0  0  0  0  0  0  0  0  0
  181.4880  178.4820  141.6110 N   0  0  0  0  0  2  0  0  0  0  0  0
  182.8670  179.0660  143.3020 N   0  0  0  0  0  0  0  0  0  0  0  0
  183.6060  178.8310  142.2070 C   0  0  0  0  0  0  0  0  0  0  0  0
  187.9320  177.1900  147.3170 C   0  0  0  0  0  2  0  0  0  0  0  0
  189.2130  178.4090  148.6360 C   0  0  0  0  0  1  0  0  0  0  0  0
  189.2550  177.6050  147.4990 O   0  0  0  0  0  0  0  0  0  0  0  0
  1 18  1  1  0  0  0
  1 36  1  0  0  0  0
  2  4  2  0  0  0  0
  3  1  1  0  0  0  0
  4  3  1  0  0  0  0
  5  8  1  6  0  0  0
  5  4  1  0  0  0  0
  5  7  1  0  0  0  0
  7  6  1  0  0  0  0
  9  8  1  0  0  0  0
 10  9  1  0  0  0  0
 11 15  1  0  0  0  0
 12 11  1  0  0  0  0
 12 17  1  0  0  0  0
 13 16  1  0  0  0  0
 13 10  1  0  0  0  0
 14 10  2  0  0  0  0
 15 16  1  0  0  0  0
 17 13  1  0  0  0  0
 18 20  1  0  0  0  0
 20 19  1  6  0  0  0
 21 20  1  0  0  0  0
 22 21  1  0  0  0  0
 23 22  1  0  0  0  0
 24 33  1  0  0  0  0
 24 35  2  0  0  0  0
 26 29  2  0  0  0  0
 26 30  1  0  0  0  0
 28 31  2  0  0  0  0
 29 28  1  0  0  0  0
 30 27  1  6  0  0  0
 30 24  1  0  0  0  0
 31 35  1  0  0  0  0
 32 34  1  0  0  0  0
 32 25  2  0  0  0  0
 33 32  1  0  0  0  0
 34 23  1  0  0  0  0
 35 34  1  0  0  0  0
 36 38  1  0  0  0  0
 38 37  1  0  0  0  0
M  END
>  <MODEL>
2

>  <REMARK>
 VINA RESULT:      -7.6      1.816      6.482
  Name = 
  14 active torsions:
  status: ('A' for Active; 'I' for Inactive)
    1  A    between atoms: C_1  and  C_14
    2  A    between atoms: C_1  and  N_37
    3  A    between atoms: C_2  and  C_5
    4  A    between atoms: C_2  and  N_18
    5  A    between atoms: C_2  and  C_36
    6  A    between atoms: C_5  and  C_21
    7  A    between atoms: C_6  and  C_31
    8  A    between atoms: C_14  and  O_30
    9  A    between atoms: C_16  and  C_25
   10  A    between atoms: C_16  and  C_31
   11  A    between atoms: C_21  and  O_30
   12  A    between atoms: C_25  and  O_29
   13  A    between atoms: C_25  and  C_32
   14  A    between atoms: O_28  and  C_36
                            x       y       z     vdW  Elec       q    Type
                         _______ _______ _______ _____ _____    ______ ____

>  <TORSDO>
F 14

$$$$
=
 OpenBabel11042409583D

 38 40  0  0  1  0  0  0  0  0999 V2000
  187.2940  177.1180  137.0030 C   0  0  2  0  0  3  0  0  0  0  0  0
  188.7080  178.6570  138.9610 O   0  0  0  0  0  0  0  0  0  0  0  0
  188.1170  176.5790  138.0770 N   0  0  0  0  0  2  0  0  0  0  0  0
  188.7900  177.4010  139.0310 C   0  0  0  0  0  0  0  0  0  0  0  0
  189.6380  176.7500  140.0780 C   0  0  1  0  0  3  0  0  0  0  0  0
  191.6150  177.5560  140.3220 O   0  0  0  0  0  1  0  0  0  0  0  0
  190.9600  176.6400  139.6390 O   0  0  0  0  0  0  0  0  0  0  0  0
  189.5530  177.4580  141.4340 C   0  0  0  0  0  2  0  0  0  0  0  0
  189.2490  176.4980  142.5800 C   0  0  0  0  0  2  0  0  0  0  0  0
  190.3610  176.5270  143.5800 C   0  0  0  0  0  0  0  0  0  0  0  0
  189.6000  177.6520  147.5870 N   0  0  0  0  0  2  0  0  0  0  0  0
  190.6980  176.7420  147.2620 C   0  0  0  0  0  2  0  0  0  0  0  0
  190.1440  177.0360  144.9040 N   0  0  0  0  0  0  0  0  0  0  0  0
  191.4900  176.0670  143.2550 O   0  0  0  0  0  0  0  0  0  0  0  0
  188.4940  177.3870  146.6670 C   0  0  0  0  0  2  0  0  0  0  0  0
  188.9070  177.7390  145.2420 C   0  0  0  0  0  2  0  0  0  0  0  0
  191.2400  177.0600  145.8710 C   0  0  0  0  0  2  0  0  0  0  0  0
  185.8460  176.7060  137.2240 C   0  0  0  0  0  2  0  0  0  0  0  0
  185.7080  179.0130  137.8340 O   0  0  0  0  0  1  0  0  0  0  0  0
  185.0740  177.7780  137.9790 C   0  0  1  0  0  3  0  0  0  0  0  0
  183.7780  177.8610  137.4690 O   0  0  0  0  0  0  0  0  0  0  0  0
  182.9460  177.6640  138.5740 C   0  0  0  0  0  2  0  0  0  0  0  0
  182.5780  179.0010  139.1990 C   0  0  0  0  0  2  0  0  0  0  0  0
  183.3070  178.8760  142.7540 C   0  0  0  0  0  0  0  0  0  0  0  0
  180.3980  178.6320  141.1280 O   0  0  0  0  0  0  0  0  0  0  0  0
  185.4200  178.2580  143.8400 C   0  0  0  0  0  3  0  0  0  0  0  0
  183.4850  178.8320  145.2370 C   0  0  0  0  0  1  0  0  0  0  0  0
  186.1490  178.9610  141.5850 C   0  0  0  0  0  3  0  0  0  0  0  0
  186.2420  178.2500  142.8330 N   0  0  0  0  0  0  0  0  0  0  0  0
  184.1970  179.1120  143.9260 C   0  0  2  0  0  3  0  0  0  0  0  0
  185.0330  179.2660  140.9820 N   0  0  0  0  0  0  0  0  0  0  0  0
  181.5960  178.7450  141.5040 C   0  0  0  0  0  0  0  0  0  0  0  0
  181.9630  178.7330  142.8050 N   0  0  0  0  0  2  0  0  0  0  0  0
  182.6280  178.9170  140.6550 N   0  0  0  0  0  0  0  0  0  0  0  0
  183.7090  178.9900  141.4460 C   0  0  0  0  0  0  0  0  0  0  0  0
  187.7990  176.6320  135.6450 C   0  0  0  0  0  2  0  0  0  0  0  0
  188.2340  174.5340  135.1200 C   0  0  0  0  0  1  0  0  0  0  0  0
  188.7600  175.6290  135.8020 O   0  0  0  0  0  0  0  0  0  0  0  0
  1 36  1  6  0  0  0
  1 18  1  0  0  0  0
  1  3  1  0  0  0  0
  2  4  2  0  0  0  0
  3  4  1  0  0  0  0
  4  5  1  0  0  0  0
  5  8  1  1  0  0  0
  7  5  1  0  0  0  0
  7  6  1  0  0  0  0
  8  9  1  0  0  0  0
  9 10  1  0  0  0  0
 10 13  1  0  0  0  0
 12 11  1  0  0  0  0
 13 16  1  0  0  0  0
 13 17  1  0  0  0  0
 14 10  2  0  0  0  0
 15 11  1  0  0  0  0
 16 15  1  0  0  0  0
 17 12  1  0  0  0  0
 18 20  1  0  0  0  0
 20 19  1  6  0  0  0
 21 20  1  0  0  0  0
 21 22  1  0  0  0  0
 22 23  1  0  0  0  0
 23 34  1  0  0  0  0
 24 33  1  0  0  0  0
 24 30  1  0  0  0  0
 25 32  2  0  0  0  0
 26 30  1  0  0  0  0
 28 29  1  0  0  0  0
 29 26  2  0  0  0  0
 30 27  1  1  0  0  0
 31 35  1  0  0  0  0
 31 28  2  0  0  0  0
 32 33  1  0  0  0  0
 34 35  1  0  0  0  0
 34 32  1  0  0  0  0
 35 24  2  0  0  0  0
 36 38  1  0  0  0  0
 37 38  1  0  0  0  0
M  END
>  <MODEL>
3

>  <REMARK>
 VINA RESULT:      -7.4      2.736      8.560
  Name = 
  14 active torsions:
  status: ('A' for Active; 'I' for Inactive)
    1  A    between atoms: C_1  and  C_14
    2  A    between atoms: C_1  and  N_37
    3  A    between atoms: C_2  and  C_5
    4  A    between atoms: C_2  and  N_18
    5  A    between atoms: C_2  and  C_36
    6  A    between atoms: C_5  and  C_21
    7  A    between atoms: C_6  and  C_31
    8  A    between atoms: C_14  and  O_30
    9  A    between atoms: C_16  and  C_25
   10  A    between atoms: C_16  and  C_31
   11  A    between atoms: C_21  and  O_30
   12  A    between atoms: C_25  and  O_29
   13  A    between atoms: C_25  and  C_32
   14  A    between atoms: O_28  and  C_36
                            x       y       z     vdW  Elec       q    Type
                         _______ _______ _______ _____ _____    ______ ____

>  <TORSDO>
F 14

$$$$
=
 OpenBabel11042409583D

 38 40  0  0  1  0  0  0  0  0999 V2000
  189.1780  177.4880  143.1000 C   0  0  2  0  0  3  0  0  0  0  0  0
  188.2440  178.0020  145.7600 O   0  0  0  0  0  0  0  0  0  0  0  0
  187.7830  177.5370  143.5190 N   0  0  0  0  0  2  0  0  0  0  0  0
  187.3810  177.8100  144.8620 C   0  0  0  0  0  0  0  0  0  0  0  0
  185.9220  177.8070  145.1960 C   0  0  1  0  0  3  0  0  0  0  0  0
  184.8690  178.8420  146.7580 O   0  0  0  0  0  1  0  0  0  0  0  0
  185.7370  177.8670  146.5800 O   0  0  0  0  0  0  0  0  0  0  0  0
  185.1470  178.9150  144.4770 C   0  0  0  0  0  2  0  0  0  0  0  0
  184.2590  178.3780  143.3580 C   0  0  0  0  0  2  0  0  0  0  0  0
  184.6320  179.0180  142.0580 C   0  0  0  0  0  0  0  0  0  0  0  0
  182.0910  178.6590  138.6940 N   0  0  0  0  0  2  0  0  0  0  0  0
  182.9670  179.8190  138.8490 C   0  0  0  0  0  2  0  0  0  0  0  0
  183.8500  178.7900  140.8760 N   0  0  0  0  0  0  0  0  0  0  0  0
  185.6290  179.7900  142.0190 O   0  0  0  0  0  0  0  0  0  0  0  0
  181.6300  178.2500  140.0200 C   0  0  0  0  0  2  0  0  0  0  0  0
  182.8100  177.7630  140.8550 C   0  0  0  0  0  2  0  0  0  0  0  0
  184.2270  179.4210  139.6130 C   0  0  0  0  0  2  0  0  0  0  0  0
  189.3510  178.3070  141.8300 C   0  0  0  0  0  2  0  0  0  0  0  0
  187.6300  178.5220  140.1860 O   0  0  0  0  0  1  0  0  0  0  0  0
  188.6280  177.6670  140.6550 C   0  0  1  0  0  3  0  0  0  0  0  0
  189.5410  177.4170  139.6300 O   0  0  0  0  0  0  0  0  0  0  0  0
  189.2830  178.4030  138.6740 C   0  0  0  0  0  2  0  0  0  0  0  0
  189.2540  177.7900  137.2820 C   0  0  0  0  0  2  0  0  0  0  0  0
  187.0380  174.9240  137.0540 C   0  0  0  0  0  0  0  0  0  0  0  0
  186.3550  178.1940  137.0890 O   0  0  0  0  0  0  0  0  0  0  0  0
  187.5670  172.6700  136.2380 C   0  0  0  0  0  3  0  0  0  0  0  0
  185.2760  173.1660  136.9670 C   0  0  0  0  0  1  0  0  0  0  0  0
  189.7820  173.5460  136.8990 C   0  0  0  0  0  3  0  0  0  0  0  0
  188.8640  172.7120  136.1680 N   0  0  0  0  0  0  0  0  0  0  0  0
  186.7460  173.4690  137.1970 C   0  0  2  0  0  3  0  0  0  0  0  0
  189.5240  174.7570  137.3080 N   0  0  0  0  0  0  0  0  0  0  0  0
  186.8590  177.0380  137.0900 C   0  0  0  0  0  0  0  0  0  0  0  0
  186.1140  175.9120  137.0310 N   0  0  0  0  0  2  0  0  0  0  0  0
  188.1830  176.8060  137.1780 N   0  0  0  0  0  0  0  0  0  0  0  0
  188.2940  175.4700  137.1460 C   0  0  0  0  0  0  0  0  0  0  0  0
  189.6210  176.0420  142.8840 C   0  0  0  0  0  2  0  0  0  0  0  0
  191.2040  176.4730  144.3580 C   0  0  0  0  0  1  0  0  0  0  0  0
  190.9950  175.9060  143.1030 O   0  0  0  0  0  0  0  0  0  0  0  0
  1 18  1  6  0  0  0
  1  3  1  0  0  0  0
  3  4  1  0  0  0  0
  4  5  1  0  0  0  0
  4  2  2  0  0  0  0
  5  8  1  6  0  0  0
  5  7  1  0  0  0  0
  7  6  1  0  0  0  0
  9  8  1  0  0  0  0
 10  9  1  0  0  0  0
 11 12  1  0  0  0  0
 11 15  1  0  0  0  0
 12 17  1  0  0  0  0
 13 10  1  0  0  0  0
 14 10  2  0  0  0  0
 15 16  1  0  0  0  0
 16 13  1  0  0  0  0
 17 13  1  0  0  0  0
 20 19  1  6  0  0  0
 20 18  1  0  0  0  0
 21 20  1  0  0  0  0
 22 21  1  0  0  0  0
 23 22  1  0  0  0  0
 24 35  2  0  0  0  0
 24 30  1  0  0  0  0
 25 32  2  0  0  0  0
 26 30  1  0  0  0  0
 28 31  2  0  0  0  0
 29 26  2  0  0  0  0
 29 28  1  0  0  0  0
 30 27  1  6  0  0  0
 32 34  1  0  0  0  0
 33 24  1  0  0  0  0
 33 32  1  0  0  0  0
 34 23  1  0  0  0  0
 35 34  1  0  0  0  0
 35 31  1  0  0  0  0
 36  1  1  0  0  0  0
 36 38  1  0  0  0  0
 38 37  1  0  0  0  0
M  END
>  <MODEL>
4

>  <REMARK>
 VINA RESULT:      -7.3      2.297      3.321
  Name = 
  14 active torsions:
  status: ('A' for Active; 'I' for Inactive)
    1  A    between atoms: C_1  and  C_14
    2  A    between atoms: C_1  and  N_37
    3  A    between atoms: C_2  and  C_5
    4  A    between atoms: C_2  and  N_18
    5  A    between atoms: C_2  and  C_36
    6  A    between atoms: C_5  and  C_21
    7  A    between atoms: C_6  and  C_31
    8  A    between atoms: C_14  and  O_30
    9  A    between atoms: C_16  and  C_25
   10  A    between atoms: C_16  and  C_31
   11  A    between atoms: C_21  and  O_30
   12  A    between atoms: C_25  and  O_29
   13  A    between atoms: C_25  and  C_32
   14  A    between atoms: O_28  and  C_36
                            x       y       z     vdW  Elec       q    Type
                         _______ _______ _______ _____ _____    ______ ____

>  <TORSDO>
F 14

$$$$
=
 OpenBabel11042409583D

 38 40  0  0  1  0  0  0  0  0999 V2000
  187.8810  177.4230  146.2510 C   0  0  2  0  0  3  0  0  0  0  0  0
  188.3450  176.2620  143.6740 O   0  0  0  0  0  0  0  0  0  0  0  0
  188.6730  178.0150  145.1810 N   0  0  0  0  0  2  0  0  0  0  0  0
  188.8580  177.3890  143.9100 C   0  0  0  0  0  0  0  0  0  0  0  0
  189.7170  178.0650  142.8880 C   0  0  1  0  0  3  0  0  0  0  0  0
  191.6520  177.3820  143.5270 O   0  0  0  0  0  1  0  0  0  0  0  0
  190.9240  178.4780  143.4580 O   0  0  0  0  0  0  0  0  0  0  0  0
  189.9490  177.2010  141.6450 C   0  0  0  0  0  2  0  0  0  0  0  0
  189.2640  177.7650  140.4020 C   0  0  0  0  0  2  0  0  0  0  0  0
  189.5720  176.9070  139.2160 C   0  0  0  0  0  0  0  0  0  0  0  0
  187.5810  177.5550  135.5390 N   0  0  0  0  0  2  0  0  0  0  0  0
  188.9260  176.9820  135.5700 C   0  0  0  0  0  2  0  0  0  0  0  0
  188.8080  177.0260  138.0060 N   0  0  0  0  0  0  0  0  0  0  0  0
  190.5340  176.0950  139.2800 O   0  0  0  0  0  0  0  0  0  0  0  0
  187.4700  178.5280  136.6250 C   0  0  0  0  0  2  0  0  0  0  0  0
  187.5810  177.8200  137.9720 C   0  0  0  0  0  2  0  0  0  0  0  0
  189.1190  176.1810  136.8560 C   0  0  0  0  0  2  0  0  0  0  0  0
  186.9020  178.4590  146.7840 C   0  0  0  0  0  2  0  0  0  0  0  0
  184.5150  178.5040  146.8840 O   0  0  0  0  0  1  0  0  0  0  0  0
  185.5960  178.4420  146.0040 C   0  0  1  0  0  3  0  0  0  0  0  0
  185.5570  179.5400  145.1440 O   0  0  0  0  0  0  0  0  0  0  0  0
  184.3410  179.4180  144.4660 C   0  0  0  0  0  2  0  0  0  0  0  0
  184.3890  178.2370  143.5090 C   0  0  0  0  0  2  0  0  0  0  0  0
  182.8820  179.1880  140.3460 C   0  0  0  0  0  0  0  0  0  0  0  0
  186.0900  179.0780  141.2710 O   0  0  0  0  0  0  0  0  0  0  0  0
  180.6970  178.5120  139.4530 C   0  0  0  0  0  3  0  0  0  0  0  0
  182.1390  179.9680  138.1010 C   0  0  0  0  0  1  0  0  0  0  0  0
  180.4120  178.2000  141.8880 C   0  0  0  0  0  3  0  0  0  0  0  0
  180.1440  177.9650  140.4940 N   0  0  0  0  0  0  0  0  0  0  0  0
  181.7170  179.6020  139.5130 C   0  0  2  0  0  3  0  0  0  0  0  0
  181.5760  178.5270  142.3780 N   0  0  0  0  0  0  0  0  0  0  0  0
  184.8350  179.0320  141.1610 C   0  0  0  0  0  0  0  0  0  0  0  0
  184.1820  179.3870  140.0320 N   0  0  0  0  0  2  0  0  0  0  0  0
  184.0160  178.6540  142.1620 N   0  0  0  0  0  0  0  0  0  0  0  0
  182.7820  178.7450  141.6410 C   0  0  0  0  0  0  0  0  0  0  0  0
  188.7890  176.9040  147.3650 C   0  0  0  0  0  2  0  0  0  0  0  0
  190.9530  176.4850  147.3050 C   0  0  0  0  0  1  0  0  0  0  0  0
  190.0360  177.5330  147.3240 O   0  0  0  0  0  0  0  0  0  0  0  0
  1 18  1  1  0  0  0
  1 36  1  0  0  0  0
  2  4  2  0  0  0  0
  3  1  1  0  0  0  0
  4  3  1  0  0  0  0
  5  8  1  6  0  0  0
  5  7  1  0  0  0  0
  5  4  1  0  0  0  0
  7  6  1  0  0  0  0
  9  8  1  0  0  0  0
 10 14  2  0  0  0  0
 10  9  1  0  0  0  0
 11 12  1  0  0  0  0
 11 15  1  0  0  0  0
 12 17  1  0  0  0  0
 13 10  1  0  0  0  0
 15 16  1  0  0  0  0
 16 13  1  0  0  0  0
 17 13  1  0  0  0  0
 20 18  1  0  0  0  0
 20 19  1  1  0  0  0
 21 20  1  0  0  0  0
 22 21  1  0  0  0  0
 23 22  1  0  0  0  0
 24 35  2  0  0  0  0
 26 30  1  0  0  0  0
 26 29  2  0  0  0  0
 28 31  2  0  0  0  0
 29 28  1  0  0  0  0
 30 27  1  6  0  0  0
 30 24  1  0  0  0  0
 32 25  2  0  0  0  0
 32 34  1  0  0  0  0
 33 24  1  0  0  0  0
 33 32  1  0  0  0  0
 34 23  1  0  0  0  0
 35 34  1  0  0  0  0
 35 31  1  0  0  0  0
 37 38  1  0  0  0  0
 38 36  1  0  0  0  0
M  END
>  <MODEL>
5

>  <REMARK>
 VINA RESULT:      -7.3      1.775      6.447
  Name = 
  14 active torsions:
  status: ('A' for Active; 'I' for Inactive)
    1  A    between atoms: C_1  and  C_14
    2  A    between atoms: C_1  and  N_37
    3  A    between atoms: C_2  and  C_5
    4  A    between atoms: C_2  and  N_18
    5  A    between atoms: C_2  and  C_36
    6  A    between atoms: C_5  and  C_21
    7  A    between atoms: C_6  and  C_31
    8  A    between atoms: C_14  and  O_30
    9  A    between atoms: C_16  and  C_25
   10  A    between atoms: C_16  and  C_31
   11  A    between atoms: C_21  and  O_30
   12  A    between atoms: C_25  and  O_29
   13  A    between atoms: C_25  and  C_32
   14  A    between atoms: O_28  and  C_36
                            x       y       z     vdW  Elec       q    Type
                         _______ _______ _______ _____ _____    ______ ____

>  <TORSDO>
F 14

$$$$
=
 OpenBabel11042409583D

 38 40  0  0  1  0  0  0  0  0999 V2000
  184.2700  178.1780  141.8700 C   0  0  2  0  0  3  0  0  0  0  0  0
  184.6110  180.1290  143.9400 O   0  0  0  0  0  0  0  0  0  0  0  0
  184.9020  177.9470  143.1620 N   0  0  0  0  0  2  0  0  0  0  0  0
  185.0320  178.9620  144.1590 C   0  0  0  0  0  0  0  0  0  0  0  0
  185.7260  178.6310  145.4430 C   0  0  1  0  0  3  0  0  0  0  0  0
  185.6730  179.4470  147.4310 O   0  0  0  0  0  1  0  0  0  0  0  0
  184.8890  178.8880  146.5320 O   0  0  0  0  0  0  0  0  0  0  0  0
  186.2650  177.1980  145.4740 C   0  0  0  0  0  2  0  0  0  0  0  0
  187.7900  177.1440  145.4700 C   0  0  0  0  0  2  0  0  0  0  0  0
  188.2870  176.8410  144.0910 C   0  0  0  0  0  0  0  0  0  0  0  0
  192.0640  178.2650  142.8230 N   0  0  0  0  0  2  0  0  0  0  0  0
  191.4980  177.0410  142.2570 C   0  0  0  0  0  2  0  0  0  0  0  0
  189.5010  177.4300  143.6030 N   0  0  0  0  0  0  0  0  0  0  0  0
  187.6410  176.0330  143.3710 O   0  0  0  0  0  0  0  0  0  0  0  0
  191.6740  178.3450  144.2300 C   0  0  0  0  0  2  0  0  0  0  0  0
  190.1610  178.5040  144.3440 C   0  0  0  0  0  2  0  0  0  0  0  0
  189.9730  177.1260  142.2540 C   0  0  0  0  0  2  0  0  0  0  0  0
  185.1210  179.1460  141.0600 C   0  0  0  0  0  2  0  0  0  0  0  0
  184.2360  180.1570  139.0840 O   0  0  0  0  0  1  0  0  0  0  0  0
  184.8550  179.0040  139.5690 C   0  0  1  0  0  3  0  0  0  0  0  0
  186.0640  178.8110  138.9000 O   0  0  0  0  0  0  0  0  0  0  0  0
  185.8070  177.7850  137.9870 C   0  0  0  0  0  2  0  0  0  0  0  0
  186.6280  177.9880  136.7230 C   0  0  0  0  0  2  0  0  0  0  0  0
  189.8210  176.2800  136.9840 C   0  0  0  0  0  0  0  0  0  0  0  0
  188.9760  179.4210  137.7430 O   0  0  0  0  0  0  0  0  0  0  0  0
  190.2280  173.8680  137.1950 C   0  0  0  0  0  3  0  0  0  0  0  0
  192.1430  175.4050  137.1990 C   0  0  0  0  0  1  0  0  0  0  0  0
  187.9890  173.9550  136.1530 C   0  0  0  0  0  3  0  0  0  0  0  0
  189.0540  173.3770  136.9290 N   0  0  0  0  0  0  0  0  0  0  0  0
  190.7470  175.1590  136.6530 C   0  0  2  0  0  3  0  0  0  0  0  0
  187.7420  175.2330  136.0600 N   0  0  0  0  0  0  0  0  0  0  0  0
  189.0450  178.2120  137.3930 C   0  0  0  0  0  0  0  0  0  0  0  0
  190.1930  177.5000  137.4330 N   0  0  0  0  0  2  0  0  0  0  0  0
  187.9940  177.5160  136.9190 N   0  0  0  0  0  0  0  0  0  0  0  0
  188.4850  176.2920  136.6690 C   0  0  0  0  0  0  0  0  0  0  0  0
  182.8530  178.7190  142.0560 C   0  0  0  0  0  2  0  0  0  0  0  0
  180.7970  178.8590  141.2710 C   0  0  0  0  0  1  0  0  0  0  0  0
  181.9690  178.1150  141.1580 O   0  0  0  0  0  0  0  0  0  0  0  0
  1 18  1  6  0  0  0
  1 36  1  0  0  0  0
  1  3  1  0  0  0  0
  2  4  2  0  0  0  0
  3  4  1  0  0  0  0
  4  5  1  0  0  0  0
  5  8  1  6  0  0  0
  5  7  1  0  0  0  0
  7  6  1  0  0  0  0
  9  8  1  0  0  0  0
 10  9  1  0  0  0  0
 11 15  1  0  0  0  0
 12 11  1  0  0  0  0
 13 10  1  0  0  0  0
 13 16  1  0  0  0  0
 14 10  2  0  0  0  0
 15 16  1  0  0  0  0
 17 12  1  0  0  0  0
 17 13  1  0  0  0  0
 20 19  1  6  0  0  0
 20 18  1  0  0  0  0
 21 20  1  0  0  0  0
 22 21  1  0  0  0  0
 23 34  1  0  0  0  0
 23 22  1  0  0  0  0
 24 33  1  0  0  0  0
 28 29  1  0  0  0  0
 29 26  2  0  0  0  0
 30 24  1  0  0  0  0
 30 26  1  0  0  0  0
 30 27  1  1  0  0  0
 31 28  2  0  0  0  0
 31 35  1  0  0  0  0
 32 33  1  0  0  0  0
 32 25  2  0  0  0  0
 34 32  1  0  0  0  0
 35 34  1  0  0  0  0
 35 24  2  0  0  0  0
 38 37  1  0  0  0  0
 38 36  1  0  0  0  0
M  END
>  <MODEL>
6

>  <REMARK>
 VINA RESULT:      -7.2      2.442      6.186
  Name = 
  14 active torsions:
  status: ('A' for Active; 'I' for Inactive)
    1  A    between atoms: C_1  and  C_14
    2  A    between atoms: C_1  and  N_37
    3  A    between atoms: C_2  and  C_5
    4  A    between atoms: C_2  and  N_18
    5  A    between atoms: C_2  and  C_36
    6  A    between atoms: C_5  and  C_21
    7  A    between atoms: C_6  and  C_31
    8  A    between atoms: C_14  and  O_30
    9  A    between atoms: C_16  and  C_25
   10  A    between atoms: C_16  and  C_31
   11  A    between atoms: C_21  and  O_30
   12  A    between atoms: C_25  and  O_29
   13  A    between atoms: C_25  and  C_32
   14  A    between atoms: O_28  and  C_36
                            x       y       z     vdW  Elec       q    Type
                         _______ _______ _______ _____ _____    ______ ____

>  <TORSDO>
F 14

$$$$
=
 OpenBabel11042409583D

 38 40  0  0  1  0  0  0  0  0999 V2000
  190.3140  177.7740  143.9260 C   0  0  2  0  0  3  0  0  0  0  0  0
  188.5540  178.1450  146.1550 O   0  0  0  0  0  0  0  0  0  0  0  0
  188.8610  177.6830  143.8870 N   0  0  0  0  0  2  0  0  0  0  0  0
  188.0360  177.8900  145.0350 C   0  0  0  0  0  0  0  0  0  0  0  0
  186.5530  177.7430  144.8970 C   0  0  1  0  0  3  0  0  0  0  0  0
  185.2570  178.2070  146.5480 O   0  0  0  0  0  1  0  0  0  0  0  0
  185.8950  178.7870  145.5530 O   0  0  0  0  0  0  0  0  0  0  0  0
  186.1020  177.6220  143.4390 C   0  0  0  0  0  2  0  0  0  0  0  0
  184.9830  178.5990  143.0870 C   0  0  0  0  0  2  0  0  0  0  0  0
  185.1390  179.0660  141.6740 C   0  0  0  0  0  0  0  0  0  0  0  0
  181.8300  179.0250  139.0370 N   0  0  0  0  0  2  0  0  0  0  0  0
  182.9160  179.9890  138.8600 C   0  0  0  0  0  2  0  0  0  0  0  0
  184.0630  178.9300  140.7340 N   0  0  0  0  0  0  0  0  0  0  0  0
  186.2200  179.6120  141.3250 O   0  0  0  0  0  0  0  0  0  0  0  0
  181.6400  178.8040  140.4700 C   0  0  0  0  0  2  0  0  0  0  0  0
  182.8780  178.1380  141.0630 C   0  0  0  0  0  2  0  0  0  0  0  0
  184.2290  179.3890  139.3570 C   0  0  0  0  0  2  0  0  0  0  0  0
  190.8590  177.7280  142.5060 C   0  0  0  0  0  2  0  0  0  0  0  0
  189.2140  178.0420  140.8010 O   0  0  0  0  0  1  0  0  0  0  0  0
  189.8710  177.0690  141.5540 C   0  0  1  0  0  3  0  0  0  0  0  0
  190.5590  176.2080  140.6980 O   0  0  0  0  0  0  0  0  0  0  0  0
  191.1620  177.0470  139.7580 C   0  0  0  0  0  2  0  0  0  0  0  0
  191.4690  176.2730  138.4850 C   0  0  0  0  0  2  0  0  0  0  0  0
  188.3560  176.2160  136.6180 C   0  0  0  0  0  0  0  0  0  0  0  0
  190.3170  173.7120  137.6390 O   0  0  0  0  0  0  0  0  0  0  0  0
  186.5850  177.9150  136.5870 C   0  0  0  0  0  3  0  0  0  0  0  0
  186.2930  175.8660  135.2670 C   0  0  0  0  0  1  0  0  0  0  0  0
  188.5700  179.2080  137.2930 C   0  0  0  0  0  3  0  0  0  0  0  0
  187.1650  178.9140  137.1850 N   0  0  0  0  0  0  0  0  0  0  0  0
  187.3010  176.8730  135.7940 C   0  0  2  0  0  3  0  0  0  0  0  0
  189.5170  178.3130  137.3430 N   0  0  0  0  0  0  0  0  0  0  0  0
  189.7510  174.8070  137.3730 C   0  0  0  0  0  0  0  0  0  0  0  0
  188.6020  174.8870  136.6650 N   0  0  0  0  0  2  0  0  0  0  0  0
  190.2440  176.0050  137.7400 N   0  0  0  0  0  0  0  0  0  0  0  0
  189.3570  176.8940  137.2690 C   0  0  0  0  0  0  0  0  0  0  0  0
  190.8990  176.6440  144.7730 C   0  0  0  0  0  2  0  0  0  0  0  0
  192.0020  176.0450  146.5860 C   0  0  0  0  0  1  0  0  0  0  0  0
  191.6870  177.1560  145.8070 O   0  0  0  0  0  0  0  0  0  0  0  0
  1 18  1  6  0  0  0
  1 36  1  0  0  0  0
  3  1  1  0  0  0  0
  3  4  1  0  0  0  0
  4  2  2  0  0  0  0
  5  8  1  6  0  0  0
  5  4  1  0  0  0  0
  5  7  1  0  0  0  0
  7  6  1  0  0  0  0
  9  8  1  0  0  0  0
 10  9  1  0  0  0  0
 11 15  1  0  0  0  0
 12 11  1  0  0  0  0
 12 17  1  0  0  0  0
 13 16  1  0  0  0  0
 13 10  1  0  0  0  0
 14 10  2  0  0  0  0
 15 16  1  0  0  0  0
 17 13  1  0  0  0  0
 20 19  1  6  0  0  0
 20 18  1  0  0  0  0
 21 20  1  0  0  0  0
 22 21  1  0  0  0  0
 23 22  1  0  0  0  0
 24 33  1  0  0  0  0
 24 35  2  0  0  0  0
 26 29  2  0  0  0  0
 28 31  2  0  0  0  0
 29 28  1  0  0  0  0
 30 27  1  1  0  0  0
 30 26  1  0  0  0  0
 30 24  1  0  0  0  0
 32 25  2  0  0  0  0
 32 34  1  0  0  0  0
 33 32  1  0  0  0  0
 34 23  1  0  0  0  0
 35 31  1  0  0  0  0
 35 34  1  0  0  0  0
 36 38  1  0  0  0  0
 38 37  1  0  0  0  0
M  END
>  <MODEL>
7

>  <REMARK>
 VINA RESULT:      -7.2      1.827      2.777
  Name = 
  14 active torsions:
  status: ('A' for Active; 'I' for Inactive)
    1  A    between atoms: C_1  and  C_14
    2  A    between atoms: C_1  and  N_37
    3  A    between atoms: C_2  and  C_5
    4  A    between atoms: C_2  and  N_18
    5  A    between atoms: C_2  and  C_36
    6  A    between atoms: C_5  and  C_21
    7  A    between atoms: C_6  and  C_31
    8  A    between atoms: C_14  and  O_30
    9  A    between atoms: C_16  and  C_25
   10  A    between atoms: C_16  and  C_31
   11  A    between atoms: C_21  and  O_30
   12  A    between atoms: C_25  and  O_29
   13  A    between atoms: C_25  and  C_32
   14  A    between atoms: O_28  and  C_36
                            x       y       z     vdW  Elec       q    Type
                         _______ _______ _______ _____ _____    ______ ____

>  <TORSDO>
F 14

$$$$
=
 OpenBabel11042409583D

 38 40  0  0  1  0  0  0  0  0999 V2000
  188.0310  177.8770  145.8190 C   0  0  2  0  0  3  0  0  0  0  0  0
  185.7370  179.5880  145.9530 O   0  0  0  0  0  0  0  0  0  0  0  0
  186.8750  177.8220  144.9340 N   0  0  0  0  0  2  0  0  0  0  0  0
  185.7640  178.7120  145.0460 C   0  0  0  0  0  0  0  0  0  0  0  0
  184.6100  178.5530  144.1070 C   0  0  1  0  0  3  0  0  0  0  0  0
  182.6120  179.0090  144.7530 O   0  0  0  0  0  1  0  0  0  0  0  0
  183.6930  179.5930  144.2770 O   0  0  0  0  0  0  0  0  0  0  0  0
  185.0490  178.4240  142.6450 C   0  0  0  0  0  2  0  0  0  0  0  0
  183.8810  178.1370  141.7050 C   0  0  0  0  0  2  0  0  0  0  0  0
  184.2710  178.4530  140.2950 C   0  0  0  0  0  0  0  0  0  0  0  0
  182.3970  176.4630  137.0660 N   0  0  0  0  0  2  0  0  0  0  0  0
  182.9380  177.8120  136.9000 C   0  0  0  0  0  2  0  0  0  0  0  0
  183.7430  177.6910  139.2000 N   0  0  0  0  0  0  0  0  0  0  0  0
  185.0480  179.4210  140.0760 O   0  0  0  0  0  0  0  0  0  0  0  0
  181.8630  176.3440  138.4220 C   0  0  0  0  0  2  0  0  0  0  0  0
  182.9940  176.4580  139.4390 C   0  0  0  0  0  2  0  0  0  0  0  0
  184.1340  178.0090  137.8280 C   0  0  0  0  0  2  0  0  0  0  0  0
  189.1440  177.0120  145.2460 C   0  0  0  0  0  2  0  0  0  0  0  0
  190.2810  178.8600  144.2460 O   0  0  0  0  0  1  0  0  0  0  0  0
  189.7150  177.6140  143.9720 C   0  0  1  0  0  3  0  0  0  0  0  0
  190.6950  176.7650  143.4570 O   0  0  0  0  0  0  0  0  0  0  0  0
  190.1790  176.3250  142.2350 C   0  0  0  0  0  2  0  0  0  0  0  0
  190.7520  177.1520  141.0950 C   0  0  0  0  0  2  0  0  0  0  0  0
  188.8190  176.8050  138.0410 C   0  0  0  0  0  0  0  0  0  0  0  0
  188.2970  178.7150  140.7320 O   0  0  0  0  0  0  0  0  0  0  0  0
  189.6020  176.0620  135.8370 C   0  0  0  0  0  3  0  0  0  0  0  0
  187.2530  176.7210  136.1070 C   0  0  0  0  0  1  0  0  0  0  0  0
  191.2730  175.0780  137.3700 C   0  0  0  0  0  3  0  0  0  0  0  0
  190.7810  175.5930  136.1190 N   0  0  0  0  0  0  0  0  0  0  0  0
  188.4520  176.0850  136.7890 C   0  0  2  0  0  3  0  0  0  0  0  0
  190.8890  175.4880  138.5470 N   0  0  0  0  0  0  0  0  0  0  0  0
  188.7070  177.9200  139.8430 C   0  0  0  0  0  0  0  0  0  0  0  0
  188.0440  177.7070  138.6850 N   0  0  0  0  0  2  0  0  0  0  0  0
  189.8270  177.1820  139.9680 N   0  0  0  0  0  0  0  0  0  0  0  0
  189.9010  176.4840  138.8240 C   0  0  0  0  0  0  0  0  0  0  0  0
  187.6510  177.4190  147.2260 C   0  0  0  0  0  2  0  0  0  0  0  0
  189.0240  178.1810  148.7750 C   0  0  0  0  0  1  0  0  0  0  0  0
  187.8120  178.4590  148.1470 O   0  0  0  0  0  0  0  0  0  0  0  0
  1 18  1  6  0  0  0
  1 36  1  0  0  0  0
  3  4  1  0  0  0  0
  3  1  1  0  0  0  0
  4  2  2  0  0  0  0
  5  8  1  6  0  0  0
  5  7  1  0  0  0  0
  5  4  1  0  0  0  0
  7  6  1  0  0  0  0
  9  8  1  0  0  0  0
 10  9  1  0  0  0  0
 11 15  1  0  0  0  0
 12 11  1  0  0  0  0
 12 17  1  0  0  0  0
 13 16  1  0  0  0  0
 13 10  1  0  0  0  0
 14 10  2  0  0  0  0
 15 16  1  0  0  0  0
 17 13  1  0  0  0  0
 20 19  1  1  0  0  0
 20 18  1  0  0  0  0
 21 20  1  0  0  0  0
 22 21  1  0  0  0  0
 23 22  1  0  0  0  0
 24 33  1  0  0  0  0
 24 35  2  0  0  0  0
 26 29  2  0  0  0  0
 26 30  1  0  0  0  0
 28 31  2  0  0  0  0
 29 28  1  0  0  0  0
 30 27  1  6  0  0  0
 30 24  1  0  0  0  0
 31 35  1  0  0  0  0
 32 34  1  0  0  0  0
 32 25  2  0  0  0  0
 33 32  1  0  0  0  0
 34 23  1  0  0  0  0
 35 34  1  0  0  0  0
 36 38  1  0  0  0  0
 38 37  1  0  0  0  0
M  END
>  <MODEL>
8

>  <REMARK>
 VINA RESULT:      -7.2      1.670      2.643
  Name = 
  14 active torsions:
  status: ('A' for Active; 'I' for Inactive)
    1  A    between atoms: C_1  and  C_14
    2  A    between atoms: C_1  and  N_37
    3  A    between atoms: C_2  and  C_5
    4  A    between atoms: C_2  and  N_18
    5  A    between atoms: C_2  and  C_36
    6  A    between atoms: C_5  and  C_21
    7  A    between atoms: C_6  and  C_31
    8  A    between atoms: C_14  and  O_30
    9  A    between atoms: C_16  and  C_25
   10  A    between atoms: C_16  and  C_31
   11  A    between atoms: C_21  and  O_30
   12  A    between atoms: C_25  and  O_29
   13  A    between atoms: C_25  and  C_32
   14  A    between atoms: O_28  and  C_36
                            x       y       z     vdW  Elec       q    Type
                         _______ _______ _______ _____ _____    ______ ____

>  <TORSDO>
F 14

$$$$
=
 OpenBabel11042409583D

 38 40  0  0  1  0  0  0  0  0999 V2000
  190.3010  177.1920  144.6670 C   0  0  2  0  0  3  0  0  0  0  0  0
  188.6720  176.4590  142.4270 O   0  0  0  0  0  0  0  0  0  0  0  0
  190.4970  177.6320  143.2920 N   0  0  0  0  0  2  0  0  0  0  0  0
  189.6410  177.2380  142.2180 C   0  0  0  0  0  0  0  0  0  0  0  0
  189.9460  177.7200  140.8340 C   0  0  1  0  0  3  0  0  0  0  0  0
  191.8040  176.9920  140.0370 O   0  0  0  0  0  1  0  0  0  0  0  0
  190.5210  176.6970  140.0760 O   0  0  0  0  0  0  0  0  0  0  0  0
  188.7240  178.3210  140.1330 C   0  0  0  0  0  2  0  0  0  0  0  0
  188.6920  178.0070  138.6390 C   0  0  0  0  0  2  0  0  0  0  0  0
  187.2750  177.8670  138.1780 C   0  0  0  0  0  0  0  0  0  0  0  0
  186.1480  174.6260  135.7030 N   0  0  0  0  0  2  0  0  0  0  0  0
  185.1790  175.2520  136.6020 C   0  0  0  0  0  2  0  0  0  0  0  0
  186.9090  176.8530  137.2300 N   0  0  0  0  0  0  0  0  0  0  0  0
  186.3960  178.6330  138.6570 O   0  0  0  0  0  0  0  0  0  0  0  0
  187.4580  174.6430  136.3530 C   0  0  0  0  0  2  0  0  0  0  0  0
  187.9340  176.0820  136.5270 C   0  0  0  0  0  2  0  0  0  0  0  0
  185.5220  176.7280  136.7880 C   0  0  0  0  0  2  0  0  0  0  0  0
  189.3430  178.1450  145.3670 C   0  0  0  0  0  2  0  0  0  0  0  0
  188.2150  177.0950  147.1930 O   0  0  0  0  0  1  0  0  0  0  0  0
  188.0910  177.4230  145.8420 C   0  0  1  0  0  3  0  0  0  0  0  0
  186.9840  178.2530  145.6680 O   0  0  0  0  0  0  0  0  0  0  0  0
  186.2230  177.6290  144.6760 C   0  0  0  0  0  2  0  0  0  0  0  0
  185.7490  178.6520  143.6550 C   0  0  0  0  0  2  0  0  0  0  0  0
  182.1800  178.7300  142.9960 C   0  0  0  0  0  0  0  0  0  0  0  0
  183.8590  179.0060  145.8710 O   0  0  0  0  0  0  0  0  0  0  0  0
  181.0450  179.3260  140.9020 C   0  0  0  0  0  3  0  0  0  0  0  0
  179.6930  178.7430  142.8660 C   0  0  0  0  0  1  0  0  0  0  0  0
  183.2930  178.6470  140.1320 C   0  0  0  0  0  3  0  0  0  0  0  0
  182.0360  179.3430  140.0600 N   0  0  0  0  0  0  0  0  0  0  0  0
  180.9940  178.4760  142.1290 C   0  0  2  0  0  3  0  0  0  0  0  0
  183.9220  178.3550  141.2370 N   0  0  0  0  0  0  0  0  0  0  0  0
  183.4610  178.8840  144.6810 C   0  0  0  0  0  0  0  0  0  0  0  0
  182.1530  178.8780  144.3400 N   0  0  0  0  0  2  0  0  0  0  0  0
  184.2920  178.7180  143.6340 N   0  0  0  0  0  0  0  0  0  0  0  0
  183.4800  178.6300  142.5690 C   0  0  0  0  0  0  0  0  0  0  0  0
  191.6380  177.1220  145.4020 C   0  0  0  0  0  2  0  0  0  0  0  0
  192.2610  175.6510  146.9230 C   0  0  0  0  0  1  0  0  0  0  0  0
  191.4500  176.7700  146.7420 O   0  0  0  0  0  0  0  0  0  0  0  0
  1 18  1  1  0  0  0
  1 36  1  0  0  0  0
  3  1  1  0  0  0  0
  4  2  2  0  0  0  0
  4  3  1  0  0  0  0
  5  8  1  6  0  0  0
  5  4  1  0  0  0  0
  6  7  1  0  0  0  0
  7  5  1  0  0  0  0
  9  8  1  0  0  0  0
 10  9  1  0  0  0  0
 10 14  2  0  0  0  0
 11 15  1  0  0  0  0
 11 12  1  0  0  0  0
 12 17  1  0  0  0  0
 13 10  1  0  0  0  0
 15 16  1  0  0  0  0
 16 13  1  0  0  0  0
 17 13  1  0  0  0  0
 18 20  1  0  0  0  0
 20 19  1  1  0  0  0
 21 20  1  0  0  0  0
 22 21  1  0  0  0  0
 23 22  1  0  0  0  0
 24 33  1  0  0  0  0
 26 30  1  0  0  0  0
 28 31  2  0  0  0  0
 29 28  1  0  0  0  0
 29 26  2  0  0  0  0
 30 27  1  1  0  0  0
 30 24  1  0  0  0  0
 31 35  1  0  0  0  0
 32 25  2  0  0  0  0
 33 32  1  0  0  0  0
 34 23  1  0  0  0  0
 34 32  1  0  0  0  0
 35 24  2  0  0  0  0
 35 34  1  0  0  0  0
 36 38  1  0  0  0  0
 38 37  1  0  0  0  0
M  END
>  <MODEL>
9

>  <REMARK>
 VINA RESULT:      -7.1      2.035      6.491
  Name = 
  14 active torsions:
  status: ('A' for Active; 'I' for Inactive)
    1  A    between atoms: C_1  and  C_14
    2  A    between atoms: C_1  and  N_37
    3  A    between atoms: C_2  and  C_5
    4  A    between atoms: C_2  and  N_18
    5  A    between atoms: C_2  and  C_36
    6  A    between atoms: C_5  and  C_21
    7  A    between atoms: C_6  and  C_31
    8  A    between atoms: C_14  and  O_30
    9  A    between atoms: C_16  and  C_25
   10  A    between atoms: C_16  and  C_31
   11  A    between atoms: C_21  and  O_30
   12  A    between atoms: C_25  and  O_29
   13  A    between atoms: C_25  and  C_32
   14  A    between atoms: O_28  and  C_36
                            x       y       z     vdW  Elec       q    Type
                         _______ _______ _______ _____ _____    ______ ____

>  <TORSDO>
F 14

$$$$
