=
 OpenBabel11032419193D

 25 28  0  0  1  0  0  0  0  0999 V2000
  192.4320  176.0220  147.3830 N   0  0  0  0  0  0  0  0  0  0  0  0
  187.8990  176.5150  143.7420 C   0  0  0  0  0  3  0  0  0  0  0  0
  192.0170  174.6860  147.7790 C   0  0  0  0  0  1  0  0  0  0  0  0
  187.8680  178.0910  147.8990 C   0  0  0  0  0  3  0  0  0  0  0  0
  189.2260  178.1750  144.9890 C   0  0  1  0  0  3  0  0  0  0  0  0
  185.6750  177.2130  145.2700 O   0  0  0  0  0  0  0  0  0  0  0  0
  191.5930  177.6390  141.3950 C   0  0  0  0  0  2  0  0  0  0  0  0
  190.7870  177.3200  146.7390 C   0  0  0  0  0  0  0  0  0  0  0  0
  191.5530  176.6660  142.5690 C   0  0  0  0  0  2  0  0  0  0  0  0
  190.7700  177.1320  140.2490 C   0  0  0  0  0  0  0  0  0  0  0  0
  186.8300  177.3990  145.7380 C   0  0  0  0  0  0  0  0  0  0  0  0
  188.9970  176.4290  142.7300 C   0  0  1  0  0  3  0  0  0  0  0  0
  187.9830  177.3280  144.8030 C   0  0  0  0  0  0  0  0  0  0  0  0
  191.7550  176.3280  146.1470 C   0  0  0  0  0  2  0  0  0  0  0  0
  189.7800  178.1210  146.3710 C   0  0  0  0  0  0  0  0  0  0  0  0
  189.4390  176.9990  140.3370 C   0  0  0  0  0  3  0  0  0  0  0  0
  189.0210  178.8910  147.3840 C   0  0  0  0  0  2  0  0  0  0  0  0
  186.9560  177.5160  147.1690 N   0  0  0  0  0  0  0  0  0  0  0  0
  190.2090  178.1380  143.9610 O   0  0  0  0  0  0  0  0  0  0  0  0
  188.6590  177.3570  141.5650 C   0  0  0  0  0  2  0  0  0  0  0  0
  191.5230  176.9520  148.0030 C   0  0  0  0  0  2  0  0  0  0  0  0
  190.3010  176.8330  143.4310 C   0  0  2  0  0  3  0  0  0  0  0  0
  191.4700  176.7470  138.9830 C   0  0  0  0  0  2  0  0  0  0  0  0
  191.1850  174.6040  137.9620 O   0  0  0  0  0  1  0  0  0  0  0  0
  190.5940  175.8590  138.1130 C   0  0  0  0  0  2  0  0  0  0  0  0
  1  3  1  0  0  0  0
  1 21  1  0  0  0  0
  2 13  2  0  0  0  0
  5 19  1  6  0  0  0
  5 15  1  0  0  0  0
  6 11  2  0  0  0  0
  7  9  1  0  0  0  0
  8 21  1  0  0  0  0
 10 16  2  0  0  0  0
 10  7  1  0  0  0  0
 11 18  1  0  0  0  0
 12 20  1  6  0  0  0
 12 22  1  0  0  0  0
 12  2  1  0  0  0  0
 13  5  1  0  0  0  0
 13 11  1  0  0  0  0
 14  8  1  0  0  0  0
 14  1  1  0  0  0  0
 15  8  2  0  0  0  0
 15 17  1  0  0  0  0
 16 20  1  0  0  0  0
 17  4  1  0  0  0  0
 18  4  2  0  0  0  0
 22  9  1  6  0  0  0
 22 19  1  0  0  0  0
 23 10  1  0  0  0  0
 24 25  1  0  0  0  0
 25 23  1  0  0  0  0
M  END
>  <MODEL>
1

>  <REMARK>
 VINA RESULT:      -7.0      0.000      0.000
  Name = 
  2 active torsions:
  status: ('A' for Active; 'I' for Inactive)
    1  A    between atoms: C_10  and  C_21
    2  A    between atoms: C_19  and  C_21
                            x       y       z     vdW  Elec       q    Type
                         _______ _______ _______ _____ _____    ______ ____

>  <TORSDO>
F 2

$$$$
=
 OpenBabel11032419193D

 25 28  0  0  1  0  0  0  0  0999 V2000
  184.9950  177.4910  137.5410 N   0  0  0  0  0  0  0  0  0  0  0  0
  188.6220  176.6120  142.0260 C   0  0  0  0  0  3  0  0  0  0  0  0
  184.9190  176.0630  137.2730 C   0  0  0  0  0  1  0  0  0  0  0  0
  190.0160  177.6180  137.9260 C   0  0  0  0  0  3  0  0  0  0  0  0
  188.2980  178.5110  140.4890 C   0  0  1  0  0  3  0  0  0  0  0  0
  191.1790  176.2560  140.9740 O   0  0  0  0  0  0  0  0  0  0  0  0
  185.3030  179.2850  143.5290 C   0  0  0  0  0  2  0  0  0  0  0  0
  186.8710  178.1300  138.4770 C   0  0  0  0  0  0  0  0  0  0  0  0
  185.1710  178.2520  142.4140 C   0  0  0  0  0  2  0  0  0  0  0  0
  185.6410  178.6260  144.8330 C   0  0  0  0  0  0  0  0  0  0  0  0
  190.2930  176.8140  140.2730 C   0  0  0  0  0  0  0  0  0  0  0  0
  187.4150  177.0520  142.7910 C   0  0  1  0  0  3  0  0  0  0  0  0
  189.0560  177.2810  140.9500 C   0  0  0  0  0  0  0  0  0  0  0  0
  185.5030  177.6450  138.8810 C   0  0  0  0  0  2  0  0  0  0  0  0
  188.0270  178.5260  139.0240 C   0  0  0  0  0  0  0  0  0  0  0  0
  186.8060  177.9920  145.0260 C   0  0  0  0  0  3  0  0  0  0  0  0
  189.1950  178.8430  138.1720 C   0  0  0  0  0  2  0  0  0  0  0  0
  190.4830  176.8210  138.8440 N   0  0  0  0  0  0  0  0  0  0  0  0
  187.2110  178.9540  141.2930 O   0  0  0  0  0  0  0  0  0  0  0  0
  187.8720  177.9000  143.9770 C   0  0  0  0  0  2  0  0  0  0  0  0
  186.2910  177.9380  137.0980 C   0  0  0  0  0  2  0  0  0  0  0  0
  186.5220  177.8430  141.8260 C   0  0  2  0  0  3  0  0  0  0  0  0
  184.6300  178.6680  145.9360 C   0  0  0  0  0  2  0  0  0  0  0  0
  185.8000  179.8210  147.6730 O   0  0  0  0  0  1  0  0  0  0  0  0
  185.2950  178.5740  147.3010 C   0  0  0  0  0  2  0  0  0  0  0  0
  1 14  1  0  0  0  0
  3  1  1  0  0  0  0
  4 17  1  0  0  0  0
  4 18  2  0  0  0  0
  5 15  1  6  0  0  0
  5 13  1  0  0  0  0
  5 19  1  0  0  0  0
  7 10  1  0  0  0  0
  8 14  1  0  0  0  0
  8 15  2  0  0  0  0
  9  7  1  0  0  0  0
 10 16  2  0  0  0  0
 10 23  1  0  0  0  0
 11 13  1  0  0  0  0
 11  6  2  0  0  0  0
 12  2  1  6  0  0  0
 12 20  1  0  0  0  0
 13  2  2  0  0  0  0
 17 15  1  0  0  0  0
 18 11  1  0  0  0  0
 19 22  1  0  0  0  0
 20 16  1  0  0  0  0
 21  1  1  0  0  0  0
 21  8  1  0  0  0  0
 22  9  1  1  0  0  0
 22 12  1  0  0  0  0
 23 25  1  0  0  0  0
 25 24  1  0  0  0  0
M  END
>  <MODEL>
2

>  <REMARK>
 VINA RESULT:      -6.6      3.830      8.213
  Name = 
  2 active torsions:
  status: ('A' for Active; 'I' for Inactive)
    1  A    between atoms: C_10  and  C_21
    2  A    between atoms: C_19  and  C_21
                            x       y       z     vdW  Elec       q    Type
                         _______ _______ _______ _____ _____    ______ ____

>  <TORSDO>
F 2

$$$$
=
 OpenBabel11032419193D

 25 28  0  0  1  0  0  0  0  0999 V2000
  186.5470  177.5160  137.4370 N   0  0  0  0  0  0  0  0  0  0  0  0
  187.9730  176.4130  142.9860 C   0  0  0  0  0  3  0  0  0  0  0  0
  186.3450  176.1010  137.1680 C   0  0  0  0  0  1  0  0  0  0  0  0
  190.9810  176.9150  139.7500 C   0  0  0  0  0  3  0  0  0  0  0  0
  188.5820  178.2290  141.4360 C   0  0  1  0  0  3  0  0  0  0  0  0
  190.6410  175.6060  143.0170 O   0  0  0  0  0  0  0  0  0  0  0  0
  184.8220  179.6500  143.0620 C   0  0  0  0  0  2  0  0  0  0  0  0
  187.9970  177.9300  139.0280 C   0  0  0  0  0  0  0  0  0  0  0  0
  184.9600  178.5750  141.9890 C   0  0  0  0  0  2  0  0  0  0  0  0
  184.5190  179.0390  144.3980 C   0  0  0  0  0  0  0  0  0  0  0  0
  190.1980  176.2410  142.0230 C   0  0  0  0  0  0  0  0  0  0  0  0
  186.6560  177.0810  143.2180 C   0  0  1  0  0  3  0  0  0  0  0  0
  188.8910  176.9340  142.1620 C   0  0  0  0  0  0  0  0  0  0  0  0
  186.5180  177.6840  138.8680 C   0  0  0  0  0  2  0  0  0  0  0  0
  188.9010  178.1850  139.9810 C   0  0  0  0  0  0  0  0  0  0  0  0
  185.3990  178.2520  145.0330 C   0  0  0  0  0  3  0  0  0  0  0  0
  190.3430  178.2630  139.6510 C   0  0  0  0  0  2  0  0  0  0  0  0
  190.9210  176.1210  140.7820 N   0  0  0  0  0  0  0  0  0  0  0  0
  187.3590  178.8840  141.7500 O   0  0  0  0  0  0  0  0  0  0  0  0
  186.7550  177.9290  144.4840 C   0  0  0  0  0  2  0  0  0  0  0  0
  187.9680  177.7330  137.5330 C   0  0  0  0  0  2  0  0  0  0  0  0
  186.3460  177.9280  141.9770 C   0  0  2  0  0  3  0  0  0  0  0  0
  183.1840  179.3080  145.0190 C   0  0  0  0  0  2  0  0  0  0  0  0
  181.4790  179.5550  143.3610 O   0  0  0  0  0  1  0  0  0  0  0  0
  182.0640  178.6390  144.2360 C   0  0  0  0  0  2  0  0  0  0  0  0
  1 21  1  0  0  0  0
  1 14  1  0  0  0  0
  3  1  1  0  0  0  0
  4 18  2  0  0  0  0
  5 15  1  6  0  0  0
  5 19  1  0  0  0  0
  5 13  1  0  0  0  0
  7 10  1  0  0  0  0
  8 15  2  0  0  0  0
  9  7  1  0  0  0  0
 10 23  1  0  0  0  0
 10 16  2  0  0  0  0
 11 13  1  0  0  0  0
 11  6  2  0  0  0  0
 12  2  1  6  0  0  0
 12 20  1  0  0  0  0
 13  2  2  0  0  0  0
 14  8  1  0  0  0  0
 17  4  1  0  0  0  0
 17 15  1  0  0  0  0
 18 11  1  0  0  0  0
 19 22  1  0  0  0  0
 20 16  1  0  0  0  0
 21  8  1  0  0  0  0
 22  9  1  1  0  0  0
 22 12  1  0  0  0  0
 24 25  1  0  0  0  0
 25 23  1  0  0  0  0
M  END
>  <MODEL>
3

>  <REMARK>
 VINA RESULT:      -6.6      3.690      7.756
  Name = 
  2 active torsions:
  status: ('A' for Active; 'I' for Inactive)
    1  A    between atoms: C_10  and  C_21
    2  A    between atoms: C_19  and  C_21
                            x       y       z     vdW  Elec       q    Type
                         _______ _______ _______ _____ _____    ______ ____

>  <TORSDO>
F 2

$$$$
=
 OpenBabel11032419193D

 25 28  0  0  1  0  0  0  0  0999 V2000
  192.5650  174.5430  144.7530 N   0  0  0  0  0  0  0  0  0  0  0  0
  187.4350  177.0700  143.5910 C   0  0  0  0  0  3  0  0  0  0  0  0
  191.9210  173.2610  144.9940 C   0  0  0  0  0  1  0  0  0  0  0  0
  189.3670  177.2030  147.5940 C   0  0  0  0  0  3  0  0  0  0  0  0
  189.5640  177.9430  144.4740 C   0  0  1  0  0  3  0  0  0  0  0  0
  186.2300  177.6700  146.0320 O   0  0  0  0  0  0  0  0  0  0  0  0
  190.2170  178.1270  140.1910 C   0  0  0  0  0  2  0  0  0  0  0  0
  191.2910  176.2780  145.1650 C   0  0  0  0  0  0  0  0  0  0  0  0
  190.2920  176.8570  141.0330 C   0  0  0  0  0  2  0  0  0  0  0  0
  188.9280  178.1880  139.4260 C   0  0  0  0  0  0  0  0  0  0  0  0
  187.4720  177.4620  145.9900 C   0  0  0  0  0  0  0  0  0  0  0  0
  188.0200  177.0960  142.2150 C   0  0  1  0  0  3  0  0  0  0  0  0
  188.1370  177.4660  144.6610 C   0  0  0  0  0  0  0  0  0  0  0  0
  191.6270  175.3560  144.0200 C   0  0  0  0  0  2  0  0  0  0  0  0
  190.5230  177.3390  145.4410 C   0  0  0  0  0  0  0  0  0  0  0  0
  187.7430  178.3020  140.0430 C   0  0  0  0  0  3  0  0  0  0  0  0
  190.4510  177.8790  146.8190 C   0  0  0  0  0  2  0  0  0  0  0  0
  188.1250  177.0870  147.2190 N   0  0  0  0  0  0  0  0  0  0  0  0
  190.0560  178.0420  143.1420 O   0  0  0  0  0  0  0  0  0  0  0  0
  187.6000  178.3960  141.5320 C   0  0  0  0  0  2  0  0  0  0  0  0
  192.2710  175.3860  145.8840 C   0  0  0  0  0  2  0  0  0  0  0  0
  189.5430  176.9850  142.3600 C   0  0  2  0  0  3  0  0  0  0  0  0
  188.9790  178.0980  137.9330 C   0  0  0  0  0  2  0  0  0  0  0  0
  187.4280  179.4780  136.7480 O   0  0  0  0  0  1  0  0  0  0  0  0
  187.5900  178.2170  137.3230 C   0  0  0  0  0  2  0  0  0  0  0  0
  1  3  1  0  0  0  0
  1 21  1  0  0  0  0
  2 13  2  0  0  0  0
  5 19  1  6  0  0  0
  5 13  1  0  0  0  0
  5 15  1  0  0  0  0
  7  9  1  0  0  0  0
  8 15  2  0  0  0  0
  8 21  1  0  0  0  0
 10 16  2  0  0  0  0
 10  7  1  0  0  0  0
 11  6  2  0  0  0  0
 11 18  1  0  0  0  0
 12 20  1  1  0  0  0
 12 22  1  0  0  0  0
 12  2  1  0  0  0  0
 13 11  1  0  0  0  0
 14  1  1  0  0  0  0
 14  8  1  0  0  0  0
 15 17  1  0  0  0  0
 16 20  1  0  0  0  0
 17  4  1  0  0  0  0
 18  4  2  0  0  0  0
 22  9  1  6  0  0  0
 22 19  1  0  0  0  0
 23 10  1  0  0  0  0
 24 25  1  0  0  0  0
 25 23  1  0  0  0  0
M  END
>  <MODEL>
4

>  <REMARK>
 VINA RESULT:      -6.5      2.077      2.331
  Name = 
  2 active torsions:
  status: ('A' for Active; 'I' for Inactive)
    1  A    between atoms: C_10  and  C_21
    2  A    between atoms: C_19  and  C_21
                            x       y       z     vdW  Elec       q    Type
                         _______ _______ _______ _____ _____    ______ ____

>  <TORSDO>
F 2

$$$$
=
 OpenBabel11032419193D

 25 28  0  0  1  0  0  0  0  0999 V2000
  185.0480  178.7890  142.0360 N   0  0  0  0  0  0  0  0  0  0  0  0
  190.0520  175.8000  141.7790 C   0  0  0  0  0  3  0  0  0  0  0  0
  184.2730  177.5900  141.7520 C   0  0  0  0  0  1  0  0  0  0  0  0
  188.3860  178.0640  138.3340 C   0  0  0  0  0  3  0  0  0  0  0  0
  189.4940  178.1620  141.3480 C   0  0  1  0  0  3  0  0  0  0  0  0
  190.7150  175.5130  139.0860 O   0  0  0  0  0  0  0  0  0  0  0  0
  190.1250  178.1500  145.6380 C   0  0  0  0  0  2  0  0  0  0  0  0
  187.0760  178.7640  141.2060 C   0  0  0  0  0  0  0  0  0  0  0  0
  188.8710  177.6390  144.9370 C   0  0  0  0  0  2  0  0  0  0  0  0
  190.9970  177.0110  146.0760 C   0  0  0  0  0  0  0  0  0  0  0  0
  189.9000  176.4100  139.4310 C   0  0  0  0  0  0  0  0  0  0  0  0
  190.0320  176.0860  143.2460 C   0  0  1  0  0  3  0  0  0  0  0  0
  189.8090  176.7560  140.8730 C   0  0  0  0  0  0  0  0  0  0  0  0
  186.3540  178.3580  142.4650 C   0  0  0  0  0  2  0  0  0  0  0  0
  188.3060  178.7620  140.6780 C   0  0  0  0  0  0  0  0  0  0  0  0
  191.5940  176.1960  145.1950 C   0  0  0  0  0  3  0  0  0  0  0  0
  188.5290  179.2090  139.2840 C   0  0  0  0  0  2  0  0  0  0  0  0
  189.0110  176.9250  138.4190 N   0  0  0  0  0  0  0  0  0  0  0  0
  189.5740  178.4180  142.7450 O   0  0  0  0  0  0  0  0  0  0  0  0
  191.4620  176.3550  143.7110 C   0  0  0  0  0  2  0  0  0  0  0  0
  185.6850  179.1850  140.8050 C   0  0  0  0  0  2  0  0  0  0  0  0
  189.1150  177.2960  143.4670 C   0  0  2  0  0  3  0  0  0  0  0  0
  191.1820  176.7770  147.5430 C   0  0  0  0  0  2  0  0  0  0  0  0
  193.1820  176.3550  148.7830 O   0  0  0  0  0  1  0  0  0  0  0  0
  192.3340  175.8210  147.8110 C   0  0  0  0  0  2  0  0  0  0  0  0
  1 14  1  0  0  0  0
  3  1  1  0  0  0  0
  4 18  2  0  0  0  0
  4 17  1  0  0  0  0
  5 15  1  1  0  0  0
  5 19  1  0  0  0  0
  6 11  2  0  0  0  0
  7 10  1  0  0  0  0
  8 14  1  0  0  0  0
  9  7  1  0  0  0  0
 10 23  1  0  0  0  0
 11 13  1  0  0  0  0
 12  2  1  6  0  0  0
 12 22  1  0  0  0  0
 12 20  1  0  0  0  0
 13  5  1  0  0  0  0
 13  2  2  0  0  0  0
 15  8  2  0  0  0  0
 16 10  2  0  0  0  0
 17 15  1  0  0  0  0
 18 11  1  0  0  0  0
 19 22  1  0  0  0  0
 20 16  1  0  0  0  0
 21  8  1  0  0  0  0
 21  1  1  0  0  0  0
 22  9  1  1  0  0  0
 23 25  1  0  0  0  0
 25 24  1  0  0  0  0
M  END
>  <MODEL>
5

>  <REMARK>
 VINA RESULT:      -6.5      2.996      6.991
  Name = 
  2 active torsions:
  status: ('A' for Active; 'I' for Inactive)
    1  A    between atoms: C_10  and  C_21
    2  A    between atoms: C_19  and  C_21
                            x       y       z     vdW  Elec       q    Type
                         _______ _______ _______ _____ _____    ______ ____

>  <TORSDO>
F 2

$$$$
=
 OpenBabel11032419193D

 25 28  0  0  1  0  0  0  0  0999 V2000
  193.8020  175.5860  136.7670 N   0  0  0  0  0  0  0  0  0  0  0  0
  188.8090  178.3290  138.0290 C   0  0  0  0  0  3  0  0  0  0  0  0
  194.2920  176.7370  136.0260 C   0  0  0  0  0  1  0  0  0  0  0  0
  189.2570  175.5400  134.5950 C   0  0  0  0  0  3  0  0  0  0  0  0
  189.3870  175.9470  137.7790 C   0  0  1  0  0  3  0  0  0  0  0  0
  187.1530  178.1140  135.7970 O   0  0  0  0  0  0  0  0  0  0  0  0
  190.4290  176.7020  141.9200 C   0  0  0  0  0  2  0  0  0  0  0  0
  191.6180  175.4020  136.8010 C   0  0  0  0  0  0  0  0  0  0  0  0
  191.2700  177.1180  140.7170 C   0  0  0  0  0  2  0  0  0  0  0  0
  189.6830  177.8740  142.4840 C   0  0  0  0  0  0  0  0  0  0  0  0
  188.1200  177.3170  135.9290 C   0  0  0  0  0  0  0  0  0  0  0  0
  189.4110  178.3100  139.3970 C   0  0  1  0  0  3  0  0  0  0  0  0
  188.7820  177.2350  137.2560 C   0  0  0  0  0  0  0  0  0  0  0  0
  192.7200  176.0470  137.6010 C   0  0  0  0  0  2  0  0  0  0  0  0
  190.2860  175.2730  136.7990 C   0  0  0  0  0  0  0  0  0  0  0  0
  188.7210  178.5010  141.7920 C   0  0  0  0  0  3  0  0  0  0  0  0
  189.5960  174.5790  135.6880 C   0  0  0  0  0  2  0  0  0  0  0  0
  188.6040  176.6580  134.7420 N   0  0  0  0  0  0  0  0  0  0  0  0
  189.8680  175.9410  139.1180 O   0  0  0  0  0  0  0  0  0  0  0  0
  188.2970  178.0840  140.4170 C   0  0  0  0  0  2  0  0  0  0  0  0
  192.7880  174.9580  135.9580 C   0  0  0  0  0  2  0  0  0  0  0  0
  190.4560  177.1870  139.4240 C   0  0  2  0  0  3  0  0  0  0  0  0
  190.0460  178.3590  143.8520 C   0  0  0  0  0  2  0  0  0  0  0  0
  191.6400  177.3070  145.2910 O   0  0  0  0  0  1  0  0  0  0  0  0
  191.5160  178.1120  144.1570 C   0  0  0  0  0  2  0  0  0  0  0  0
  1 14  1  0  0  0  0
  3  1  1  0  0  0  0
  4 18  2  0  0  0  0
  4 17  1  0  0  0  0
  5 15  1  6  0  0  0
  5 19  1  0  0  0  0
  6 11  2  0  0  0  0
  7 10  1  0  0  0  0
  8 14  1  0  0  0  0
  9  7  1  0  0  0  0
 10 23  1  0  0  0  0
 11 13  1  0  0  0  0
 12  2  1  6  0  0  0
 12 22  1  0  0  0  0
 12 20  1  0  0  0  0
 13  5  1  0  0  0  0
 13  2  2  0  0  0  0
 15  8  2  0  0  0  0
 16 10  2  0  0  0  0
 17 15  1  0  0  0  0
 18 11  1  0  0  0  0
 19 22  1  0  0  0  0
 20 16  1  0  0  0  0
 21  1  1  0  0  0  0
 21  8  1  0  0  0  0
 22  9  1  1  0  0  0
 23 25  1  0  0  0  0
 25 24  1  0  0  0  0
M  END
>  <MODEL>
6

>  <REMARK>
 VINA RESULT:      -6.5      4.286      8.348
  Name = 
  2 active torsions:
  status: ('A' for Active; 'I' for Inactive)
    1  A    between atoms: C_10  and  C_21
    2  A    between atoms: C_19  and  C_21
                            x       y       z     vdW  Elec       q    Type
                         _______ _______ _______ _____ _____    ______ ____

>  <TORSDO>
F 2

$$$$
=
 OpenBabel11032419193D

 25 28  0  0  1  0  0  0  0  0999 V2000
  184.5710  179.2490  143.8040 N   0  0  0  0  0  0  0  0  0  0  0  0
  190.3250  178.3650  143.4040 C   0  0  0  0  0  3  0  0  0  0  0  0
  184.7730  180.6310  144.2100 C   0  0  0  0  0  1  0  0  0  0  0  0
  187.9450  177.3290  147.0150 C   0  0  0  0  0  3  0  0  0  0  0  0
  188.4330  176.8570  143.8740 C   0  0  1  0  0  3  0  0  0  0  0  0
  191.2780  177.8990  145.9820 O   0  0  0  0  0  0  0  0  0  0  0  0
  188.5020  176.8980  139.5390 C   0  0  0  0  0  2  0  0  0  0  0  0
  186.2160  177.9050  144.3420 C   0  0  0  0  0  0  0  0  0  0  0  0
  187.9400  178.0120  140.4150 C   0  0  0  0  0  2  0  0  0  0  0  0
  189.8510  177.2680  139.0000 C   0  0  0  0  0  0  0  0  0  0  0  0
  190.0490  177.7570  145.7410 C   0  0  0  0  0  0  0  0  0  0  0  0
  189.9830  178.3050  141.9500 C   0  0  1  0  0  3  0  0  0  0  0  0
  189.6170  177.6920  144.3210 C   0  0  0  0  0  0  0  0  0  0  0  0
  185.8010  178.7990  143.2020 C   0  0  0  0  0  2  0  0  0  0  0  0
  187.2080  177.0780  144.6940 C   0  0  0  0  0  0  0  0  0  0  0  0
  190.9140  177.4300  139.8010 C   0  0  0  0  0  3  0  0  0  0  0  0
  187.2290  176.4540  146.0370 C   0  0  0  0  0  2  0  0  0  0  0  0
  189.1410  177.8200  146.8590 N   0  0  0  0  0  0  0  0  0  0  0  0
  188.1930  176.7490  142.4760 O   0  0  0  0  0  0  0  0  0  0  0  0
  190.8560  177.2420  141.2870 C   0  0  0  0  0  2  0  0  0  0  0  0
  184.9250  178.4190  144.9270 C   0  0  0  0  0  2  0  0  0  0  0  0
  188.4890  177.9750  141.8420 C   0  0  2  0  0  3  0  0  0  0  0  0
  189.9980  177.4780  137.5260 C   0  0  0  0  0  2  0  0  0  0  0  0
  189.0360  179.6660  137.4370 O   0  0  0  0  0  1  0  0  0  0  0  0
  188.8830  178.3570  136.9770 C   0  0  0  0  0  2  0  0  0  0  0  0
  1  3  1  0  0  0  0
  1 21  1  0  0  0  0
  2 13  2  0  0  0  0
  5 19  1  6  0  0  0
  5 13  1  0  0  0  0
  5 15  1  0  0  0  0
  7  9  1  0  0  0  0
  8 15  2  0  0  0  0
  8 21  1  0  0  0  0
 10  7  1  0  0  0  0
 10 16  2  0  0  0  0
 11  6  2  0  0  0  0
 11 18  1  0  0  0  0
 12 20  1  6  0  0  0
 12  2  1  0  0  0  0
 13 11  1  0  0  0  0
 14  1  1  0  0  0  0
 14  8  1  0  0  0  0
 15 17  1  0  0  0  0
 16 20  1  0  0  0  0
 17  4  1  0  0  0  0
 18  4  2  0  0  0  0
 22  9  1  6  0  0  0
 22 12  1  0  0  0  0
 22 19  1  0  0  0  0
 23 10  1  0  0  0  0
 25 24  1  0  0  0  0
 25 23  1  0  0  0  0
M  END
>  <MODEL>
7

>  <REMARK>
 VINA RESULT:      -6.2      2.321      4.534
  Name = 
  2 active torsions:
  status: ('A' for Active; 'I' for Inactive)
    1  A    between atoms: C_10  and  C_21
    2  A    between atoms: C_19  and  C_21
                            x       y       z     vdW  Elec       q    Type
                         _______ _______ _______ _____ _____    ______ ____

>  <TORSDO>
F 2

$$$$
=
 OpenBabel11032419193D

 25 28  0  0  1  0  0  0  0  0999 V2000
  188.7520  178.1190  141.5150 N   0  0  0  0  0  0  0  0  0  0  0  0
  189.2330  174.4280  137.0210 C   0  0  0  0  0  3  0  0  0  0  0  0
  188.1430  177.0900  142.3430 C   0  0  0  0  0  1  0  0  0  0  0  0
  185.8360  177.2580  137.4980 C   0  0  0  0  0  3  0  0  0  0  0  0
  189.0070  176.8790  137.1510 C   0  0  1  0  0  3  0  0  0  0  0  0
  186.7450  174.3120  135.7670 O   0  0  0  0  0  0  0  0  0  0  0  0
  193.2880  176.3400  137.5870 C   0  0  0  0  0  2  0  0  0  0  0  0
  188.4060  177.8620  139.3650 C   0  0  0  0  0  0  0  0  0  0  0  0
  192.2600  176.1030  138.6880 C   0  0  0  0  0  2  0  0  0  0  0  0
  193.7540  175.0410  137.0000 C   0  0  0  0  0  0  0  0  0  0  0  0
  187.0140  175.2860  136.5200 C   0  0  0  0  0  0  0  0  0  0  0  0
  190.6820  174.5650  137.3600 C   0  0  1  0  0  3  0  0  0  0  0  0
  188.4310  175.4970  136.9130 C   0  0  0  0  0  0  0  0  0  0  0  0
  189.4030  177.4490  140.4170 C   0  0  0  0  0  2  0  0  0  0  0  0
  188.1730  177.7210  138.0550 C   0  0  0  0  0  0  0  0  0  0  0  0
  192.9300  174.2350  136.3170 C   0  0  0  0  0  3  0  0  0  0  0  0
  186.9380  178.2650  137.4460 C   0  0  0  0  0  2  0  0  0  0  0  0
  185.9060  176.0320  137.0630 N   0  0  0  0  0  0  0  0  0  0  0  0
  190.4080  176.9790  137.3810 O   0  0  0  0  0  0  0  0  0  0  0  0
  191.4890  174.5610  136.0630 C   0  0  0  0  0  2  0  0  0  0  0  0
  187.7610  178.5320  140.5530 C   0  0  0  0  0  2  0  0  0  0  0  0
  190.8500  175.8750  138.1410 C   0  0  2  0  0  3  0  0  0  0  0  0
  195.1800  174.6350  137.2090 C   0  0  0  0  0  2  0  0  0  0  0  0
  195.4780  172.9780  138.9060 O   0  0  0  0  0  1  0  0  0  0  0  0
  195.4680  174.3540  138.6760 C   0  0  0  0  0  2  0  0  0  0  0  0
  1  3  1  0  0  0  0
  2 12  1  0  0  0  0
  5 13  1  1  0  0  0
  5 19  1  0  0  0  0
  5 15  1  0  0  0  0
  6 11  2  0  0  0  0
  7  9  1  0  0  0  0
  8 14  1  0  0  0  0
  8 21  1  0  0  0  0
 10 23  1  0  0  0  0
 10  7  1  0  0  0  0
 11 13  1  0  0  0  0
 11 18  1  0  0  0  0
 12 20  1  6  0  0  0
 12 22  1  0  0  0  0
 13  2  2  0  0  0  0
 14  1  1  0  0  0  0
 15  8  2  0  0  0  0
 16 10  2  0  0  0  0
 17  4  1  0  0  0  0
 17 15  1  0  0  0  0
 18  4  2  0  0  0  0
 19 22  1  0  0  0  0
 20 16  1  0  0  0  0
 21  1  1  0  0  0  0
 22  9  1  6  0  0  0
 23 25  1  0  0  0  0
 25 24  1  0  0  0  0
M  END
>  <MODEL>
8

>  <REMARK>
 VINA RESULT:      -6.1      4.525      7.370
  Name = 
  2 active torsions:
  status: ('A' for Active; 'I' for Inactive)
    1  A    between atoms: C_10  and  C_21
    2  A    between atoms: C_19  and  C_21
                            x       y       z     vdW  Elec       q    Type
                         _______ _______ _______ _____ _____    ______ ____

>  <TORSDO>
F 2

$$$$
=
 OpenBabel11032419193D

 25 28  0  0  1  0  0  0  0  0999 V2000
  185.3300  176.9800  137.1960 N   0  0  0  0  0  0  0  0  0  0  0  0
  190.8570  176.0750  138.8300 C   0  0  0  0  0  3  0  0  0  0  0  0
  185.1050  175.5520  137.0310 C   0  0  0  0  0  1  0  0  0  0  0  0
  189.6790  177.0540  134.6550 C   0  0  0  0  0  3  0  0  0  0  0  0
  189.7300  177.9730  137.7340 C   0  0  1  0  0  3  0  0  0  0  0  0
  192.3590  175.6880  136.5130 O   0  0  0  0  0  0  0  0  0  0  0  0
  189.0010  178.7880  141.9300 C   0  0  0  0  0  2  0  0  0  0  0  0
  187.4100  177.6020  136.8930 C   0  0  0  0  0  0  0  0  0  0  0  0
  188.2520  177.7540  141.0970 C   0  0  0  0  0  2  0  0  0  0  0  0
  190.0160  178.1300  142.8160 C   0  0  0  0  0  0  0  0  0  0  0  0
  191.2360  176.2540  136.4360 C   0  0  0  0  0  0  0  0  0  0  0  0
  190.3030  176.5310  140.1420 C   0  0  1  0  0  3  0  0  0  0  0  0
  190.6070  176.7360  137.6920 C   0  0  0  0  0  0  0  0  0  0  0  0
  186.5100  177.1320  138.0080 C   0  0  0  0  0  2  0  0  0  0  0  0
  188.6740  177.9870  136.6830 C   0  0  0  0  0  0  0  0  0  0  0  0
  191.0800  177.4840  142.3180 C   0  0  0  0  0  3  0  0  0  0  0  0
  189.1530  178.2880  135.3140 C   0  0  0  0  0  2  0  0  0  0  0  0
  190.5800  176.2540  135.1520 N   0  0  0  0  0  0  0  0  0  0  0  0
  189.2970  178.4300  139.0090 O   0  0  0  0  0  0  0  0  0  0  0  0
  191.3590  177.3770  140.8490 C   0  0  0  0  0  2  0  0  0  0  0  0
  186.1470  177.4120  136.0900 C   0  0  0  0  0  2  0  0  0  0  0  0
  189.0250  177.3280  139.8490 C   0  0  2  0  0  3  0  0  0  0  0  0
  189.8130  178.1860  144.2980 C   0  0  0  0  0  2  0  0  0  0  0  0
  187.7480  177.8310  145.4500 O   0  0  0  0  0  1  0  0  0  0  0  0
  188.7660  177.1790  144.7530 C   0  0  0  0  0  2  0  0  0  0  0  0
  1 14  1  0  0  0  0
  3  1  1  0  0  0  0
  4 18  2  0  0  0  0
  4 17  1  0  0  0  0
  5 15  1  6  0  0  0
  5 19  1  0  0  0  0
  7 10  1  0  0  0  0
  8 14  1  0  0  0  0
  9  7  1  0  0  0  0
 10 23  1  0  0  0  0
 11  6  2  0  0  0  0
 11 13  1  0  0  0  0
 12  2  1  6  0  0  0
 12 20  1  0  0  0  0
 13  5  1  0  0  0  0
 13  2  2  0  0  0  0
 15  8  2  0  0  0  0
 16 10  2  0  0  0  0
 17 15  1  0  0  0  0
 18 11  1  0  0  0  0
 19 22  1  0  0  0  0
 20 16  1  0  0  0  0
 21  8  1  0  0  0  0
 21  1  1  0  0  0  0
 22 12  1  0  0  0  0
 22  9  1  1  0  0  0
 23 25  1  0  0  0  0
 25 24  1  0  0  0  0
M  END
>  <MODEL>
9

>  <REMARK>
 VINA RESULT:      -6.0      4.147      8.723
  Name = 
  2 active torsions:
  status: ('A' for Active; 'I' for Inactive)
    1  A    between atoms: C_10  and  C_21
    2  A    between atoms: C_19  and  C_21
                            x       y       z     vdW  Elec       q    Type
                         _______ _______ _______ _____ _____    ______ ____

>  <TORSDO>
F 2

$$$$
