=
 OpenBabel11042412143D

 37 38  0  0  1  0  0  0  0  0999 V2000
  191.3240  176.5950  138.9510 C   0  0  0  0  0  0  0  0  0  0  0  0
  189.2470  177.3620  137.8190 C   0  0  2  0  0  3  0  0  0  0  0  0
  189.8960  176.2340  138.6030 C   0  0  2  0  0  3  0  0  0  0  0  0
  191.6200  177.2910  140.0600 C   0  0  0  0  0  3  0  0  0  0  0  0
  189.3730  178.2480  140.1340 C   0  0  2  0  0  3  0  0  0  0  0  0
  188.8170  177.1230  139.2510 C   0  0  1  0  0  3  0  0  0  0  0  0
  188.0210  176.6860  136.7240 Cl  0  0  0  0  0  0  0  0  0  0  0  0
  190.5470  177.7620  140.9910 C   0  0  1  0  0  3  0  0  0  0  0  0
  191.3810  173.9550  137.6510 O   0  0  0  0  0  1  0  0  0  0  0  0
  192.4100  176.1380  138.0670 C   0  0  0  0  0  0  0  0  0  0  0  0
  193.4230  176.8770  137.9050 O   0  0  0  0  0  0  0  0  0  0  0  0
  192.3610  174.8710  137.4020 N   0  0  0  0  0  2  0  0  0  0  0  0
  188.2630  178.8640  140.9770 C   0  0  0  0  0  2  0  0  0  0  0  0
  186.8930  178.3950  140.5010 C   0  0  0  0  0  2  0  0  0  0  0  0
  185.8060  178.9220  141.3830 C   0  0  0  0  0  3  0  0  0  0  0  0
  184.5700  178.5220  141.2400 C   0  0  0  0  0  0  0  0  0  0  0  0
  183.3480  178.0910  141.0960 C   0  0  0  0  0  3  0  0  0  0  0  0
  182.2080  178.8030  141.7470 C   0  0  0  0  0  2  0  0  0  0  0  0
  180.8850  178.3390  141.1610 C   0  0  0  0  0  2  0  0  0  0  0  0
  179.8740  178.0570  142.2690 C   0  0  0  0  0  1  0  0  0  0  0  0
  190.1390  176.6990  141.8320 O   0  0  0  0  0  0  0  0  0  0  0  0
  190.4000  176.9330  143.2170 C   0  0  1  0  0  0  0  0  0  0  0  0
  191.3170  175.8790  143.8780 C   0  0  0  0  0  1  0  0  0  0  0  0
  191.1300  178.2800  143.2500 C   0  0  0  0  0  2  0  0  0  0  0  0
  191.8150  178.4960  144.4560 O   0  0  0  0  0  1  0  0  0  0  0  0
  189.0550  177.0530  143.9820 C   0  0  1  0  0  3  0  0  0  0  0  0
  187.9580  176.2330  143.3210 C   0  0  0  0  0  1  0  0  0  0  0  0
  189.1640  176.6310  145.4530 C   0  0  0  0  0  2  0  0  0  0  0  0
  188.8420  177.7580  146.4440 C   0  0  2  0  0  3  0  0  0  0  0  0
  189.7200  177.6960  147.6580 C   0  0  0  0  0  0  0  0  0  0  0  0
  189.3350  178.3610  148.8140 O   0  0  0  0  0  1  0  0  0  0  0  0
  190.8350  177.1050  147.6230 O   0  0  0  0  0  0  0  0  0  0  0  0
  187.3640  177.8090  146.8130 C   0  0  0  0  0  2  0  0  0  0  0  0
  185.2030  178.6910  145.8660 C   0  0  0  0  0  0  0  0  0  0  0  0
  184.5810  178.4220  146.9330 O   0  0  0  0  0  1  0  0  0  0  0  0
  184.5090  179.1710  144.7630 O   0  0  0  0  0  0  0  0  0  0  0  0
  186.6130  178.5160  145.7850 N   0  0  0  0  0  2  0  0  0  0  0  0
  1  4  2  0  0  0  0
  2  7  1  6  0  0  0
  2  3  1  0  0  0  0
  2  6  1  0  0  0  0
  3  1  1  1  0  0  0
  3  6  1  0  0  0  0
  4  8  1  0  0  0  0
  5 13  1  1  0  0  0
  5  8  1  0  0  0  0
  6  5  1  0  0  0  0
  8 21  1  0  0  0  0
 10  1  1  0  0  0  0
 11 10  2  0  0  0  0
 12  9  1  0  0  0  0
 12 10  1  0  0  0  0
 14 13  1  0  0  0  0
 14 15  1  0  0  0  0
 16 15  2  0  0  0  0
 17 16  2  0  0  0  0
 17 18  1  0  0  0  0
 19 18  1  0  0  0  0
 19 20  1  0  0  0  0
 21 22  1  0  0  0  0
 22 24  1  0  0  0  0
 22 23  1  0  0  0  0
 22 26  1  0  0  0  0
 24 25  1  0  0  0  0
 26 28  1  0  0  0  0
 27 26  1  0  0  0  0
 28 29  1  0  0  0  0
 29 33  1  0  0  0  0
 29 30  1  0  0  0  0
 30 31  1  0  0  0  0
 32 30  2  0  0  0  0
 34 35  1  0  0  0  0
 36 34  2  0  0  0  0
 37 34  1  0  0  0  0
 37 33  1  0  0  0  0
M  END
>  <MODEL>
1

>  <REMARK>
 VINA RESULT:      -7.4      0.000      0.000
  Name = 
  15 active torsions:
  status: ('A' for Active; 'I' for Inactive)
    1  A    between atoms: C_1  and  C_10
    2  A    between atoms: C_3  and  C_16
    3  A    between atoms: C_6  and  C_8
    4  A    between atoms: C_8  and  C_20
    5  A    between atoms: C_8  and  O_34
    6  A    between atoms: C_13  and  C_23
    7  A    between atoms: C_13  and  C_24
    8  A    between atoms: C_13  and  C_37
    9  A    between atoms: C_15  and  C_26
   10  A    between atoms: C_16  and  C_26
   11  A    between atoms: C_19  and  C_29
   12  A    between atoms: C_20  and  C_23
   13  A    between atoms: C_25  and  O_34
   14  A    between atoms: N_27  and  C_37
   15  A    between atoms: C_29  and  C_30
                            x       y       z     vdW  Elec       q    Type
                         _______ _______ _______ _____ _____    ______ ____

>  <TORSDO>
F 15

$$$$
=
 OpenBabel11042412143D

 37 38  0  0  1  0  0  0  0  0999 V2000
  186.6630  178.5010  141.7070 C   0  0  0  0  0  0  0  0  0  0  0  0
  187.5820  177.7610  143.8950 C   0  0  2  0  0  3  0  0  0  0  0  0
  186.8460  177.3230  142.6400 C   0  0  2  0  0  3  0  0  0  0  0  0
  187.6060  178.8400  140.8140 C   0  0  0  0  0  3  0  0  0  0  0  0
  189.3450  177.7600  142.1490 C   0  0  2  0  0  3  0  0  0  0  0  0
  188.3080  176.9000  142.8830 C   0  0  1  0  0  3  0  0  0  0  0  0
  187.0680  176.7460  145.2600 Cl  0  0  0  0  0  0  0  0  0  0  0  0
  188.8950  178.0840  140.7200 C   0  0  1  0  0  3  0  0  0  0  0  0
  185.0770  179.2150  139.3320 O   0  0  0  0  0  1  0  0  0  0  0  0
  185.4030  179.2610  141.7590 C   0  0  0  0  0  0  0  0  0  0  0  0
  185.0010  179.7090  142.8710 O   0  0  0  0  0  0  0  0  0  0  0  0
  184.6300  179.5260  140.5820 N   0  0  0  0  0  2  0  0  0  0  0  0
  190.7140  177.0900  142.1810 C   0  0  0  0  0  2  0  0  0  0  0  0
  191.7530  178.0060  142.8160 C   0  0  0  0  0  2  0  0  0  0  0  0
  191.4140  178.3000  144.2430 C   0  0  0  0  0  3  0  0  0  0  0  0
  191.5490  177.3870  145.1690 C   0  0  0  0  0  0  0  0  0  0  0  0
  191.7140  176.4700  146.0800 C   0  0  0  0  0  3  0  0  0  0  0  0
  191.1130  176.6300  147.4380 C   0  0  0  0  0  2  0  0  0  0  0  0
  189.6150  176.8610  147.3350 C   0  0  0  0  0  2  0  0  0  0  0  0
  189.1940  178.0580  148.1830 C   0  0  0  0  0  1  0  0  0  0  0  0
  188.7010  176.8930  139.9790 O   0  0  0  0  0  0  0  0  0  0  0  0
  188.9280  177.0490  138.5770 C   0  0  1  0  0  0  0  0  0  0  0  0
  189.5920  178.3890  138.1860 C   0  0  0  0  0  1  0  0  0  0  0  0
  189.8980  175.9190  138.2160 C   0  0  0  0  0  2  0  0  0  0  0  0
  190.9060  175.7410  139.1750 O   0  0  0  0  0  1  0  0  0  0  0  0
  187.5920  176.8500  137.8130 C   0  0  1  0  0  3  0  0  0  0  0  0
  187.1680  178.1160  137.0850 C   0  0  0  0  0  1  0  0  0  0  0  0
  187.6470  175.6970  136.8020 C   0  0  0  0  0  2  0  0  0  0  0  0
  186.6470  174.5700  137.0970 C   0  0  2  0  0  3  0  0  0  0  0  0
  187.1640  173.2380  136.6440 C   0  0  0  0  0  0  0  0  0  0  0  0
  186.6400  172.6560  135.4980 O   0  0  0  0  0  0  0  0  0  0  0  0
  188.0190  172.6070  137.3260 O   0  0  0  0  0  1  0  0  0  0  0  0
  185.2570  174.8610  136.5400 C   0  0  0  0  0  2  0  0  0  0  0  0
  183.5840  176.0490  138.0000 C   0  0  0  0  0  0  0  0  0  0  0  0
  183.6440  177.0900  137.2860 O   0  0  0  0  0  0  0  0  0  0  0  0
  182.8300  176.0520  139.1660 O   0  0  0  0  0  1  0  0  0  0  0  0
  184.2760  174.8660  137.6160 N   0  0  0  0  0  2  0  0  0  0  0  0
  1 10  1  0  0  0  0
  2  7  1  1  0  0  0
  3  1  1  6  0  0  0
  3  6  1  0  0  0  0
  3  2  1  0  0  0  0
  4  1  2  0  0  0  0
  5 13  1  6  0  0  0
  5  6  1  0  0  0  0
  6  2  1  0  0  0  0
  8  4  1  0  0  0  0
  8  5  1  0  0  0  0
  9 12  1  0  0  0  0
 10 11  2  0  0  0  0
 12 10  1  0  0  0  0
 13 14  1  0  0  0  0
 14 15  1  0  0  0  0
 15 16  2  0  0  0  0
 16 17  2  0  0  0  0
 17 18  1  0  0  0  0
 19 18  1  0  0  0  0
 19 20  1  0  0  0  0
 21  8  1  0  0  0  0
 22 21  1  0  0  0  0
 23 22  1  0  0  0  0
 24 22  1  0  0  0  0
 24 25  1  0  0  0  0
 26 22  1  0  0  0  0
 27 26  1  0  0  0  0
 28 29  1  0  0  0  0
 28 26  1  0  0  0  0
 30 29  1  0  0  0  0
 30 32  1  0  0  0  0
 31 30  2  0  0  0  0
 33 29  1  0  0  0  0
 33 37  1  0  0  0  0
 34 36  1  0  0  0  0
 35 34  2  0  0  0  0
 37 34  1  0  0  0  0
M  END
>  <MODEL>
2

>  <REMARK>
 VINA RESULT:      -7.1      3.634      8.164
  Name = 
  15 active torsions:
  status: ('A' for Active; 'I' for Inactive)
    1  A    between atoms: C_1  and  C_10
    2  A    between atoms: C_3  and  C_16
    3  A    between atoms: C_6  and  C_8
    4  A    between atoms: C_8  and  C_20
    5  A    between atoms: C_8  and  O_34
    6  A    between atoms: C_13  and  C_23
    7  A    between atoms: C_13  and  C_24
    8  A    between atoms: C_13  and  C_37
    9  A    between atoms: C_15  and  C_26
   10  A    between atoms: C_16  and  C_26
   11  A    between atoms: C_19  and  C_29
   12  A    between atoms: C_20  and  C_23
   13  A    between atoms: C_25  and  O_34
   14  A    between atoms: N_27  and  C_37
   15  A    between atoms: C_29  and  C_30
                            x       y       z     vdW  Elec       q    Type
                         _______ _______ _______ _____ _____    ______ ____

>  <TORSDO>
F 15

$$$$
=
 OpenBabel11042412143D

 37 38  0  0  1  0  0  0  0  0999 V2000
  190.4410  176.7300  146.1830 C   0  0  0  0  0  0  0  0  0  0  0  0
  188.5500  177.2090  147.7260 C   0  0  2  0  0  3  0  0  0  0  0  0
  189.6650  177.8200  146.8930 C   0  0  2  0  0  3  0  0  0  0  0  0
  190.0530  176.2610  144.9870 C   0  0  0  0  0  3  0  0  0  0  0  0
  187.7470  176.9600  145.3910 C   0  0  2  0  0  3  0  0  0  0  0  0
  188.1930  177.9630  146.4620 C   0  0  1  0  0  3  0  0  0  0  0  0
  188.2330  178.2480  149.1320 Cl  0  0  0  0  0  0  0  0  0  0  0  0
  188.8200  176.7760  144.3120 C   0  0  1  0  0  3  0  0  0  0  0  0
  191.6770  177.8830  148.5930 O   0  0  0  0  0  1  0  0  0  0  0  0
  191.6670  176.2070  146.8070 C   0  0  0  0  0  0  0  0  0  0  0  0
  192.2840  175.2550  146.2490 O   0  0  0  0  0  0  0  0  0  0  0  0
  192.1940  176.7590  148.0200 N   0  0  0  0  0  2  0  0  0  0  0  0
  186.4040  177.3710  144.8000 C   0  0  0  0  0  2  0  0  0  0  0  0
  185.8370  178.5860  145.5250 C   0  0  0  0  0  2  0  0  0  0  0  0
  184.9630  179.3960  144.6210 C   0  0  0  0  0  3  0  0  0  0  0  0
  183.7290  179.0390  144.3810 C   0  0  0  0  0  0  0  0  0  0  0  0
  182.4940  178.6780  144.1740 C   0  0  0  0  0  3  0  0  0  0  0  0
  181.7000  179.2830  143.0630 C   0  0  0  0  0  2  0  0  0  0  0  0
  180.3390  178.6150  142.9550 C   0  0  0  0  0  2  0  0  0  0  0  0
  179.6700  178.5280  144.3240 C   0  0  0  0  0  1  0  0  0  0  0  0
  189.1000  178.0100  143.6760 O   0  0  0  0  0  0  0  0  0  0  0  0
  189.3120  177.8920  142.2680 C   0  0  1  0  0  0  0  0  0  0  0  0
  188.9020  176.5230  141.6760 C   0  0  0  0  0  1  0  0  0  0  0  0
  188.4060  178.9620  141.6500 C   0  0  0  0  0  2  0  0  0  0  0  0
  188.0580  178.6760  140.3210 O   0  0  0  0  0  1  0  0  0  0  0  0
  190.7950  178.2140  141.9420 C   0  0  1  0  0  3  0  0  0  0  0  0
  191.5780  178.5810  143.1920 C   0  0  0  0  0  1  0  0  0  0  0  0
  191.5150  177.0590  141.2330 C   0  0  0  0  0  2  0  0  0  0  0  0
  191.8890  177.3670  139.7760 C   0  0  2  0  0  3  0  0  0  0  0  0
  190.8820  176.8080  138.8160 C   0  0  0  0  0  0  0  0  0  0  0  0
  190.7120  175.4330  138.7290 O   0  0  0  0  0  1  0  0  0  0  0  0
  190.2370  177.5640  138.0370 O   0  0  0  0  0  0  0  0  0  0  0  0
  193.3080  176.9300  139.4310 C   0  0  0  0  0  2  0  0  0  0  0  0
  193.9920  175.6060  137.4000 C   0  0  0  0  0  0  0  0  0  0  0  0
  194.1720  174.5650  138.0920 O   0  0  0  0  0  1  0  0  0  0  0  0
  194.3150  175.6030  136.0490 O   0  0  0  0  0  0  0  0  0  0  0  0
  193.4530  176.7850  137.9900 N   0  0  0  0  0  2  0  0  0  0  0  0
  1 10  1  0  0  0  0
  2  7  1  1  0  0  0
  3  1  1  6  0  0  0
  3  2  1  0  0  0  0
  4  1  2  0  0  0  0
  5 13  1  6  0  0  0
  5  6  1  0  0  0  0
  6  3  1  0  0  0  0
  6  2  1  0  0  0  0
  8  4  1  0  0  0  0
  8  5  1  0  0  0  0
 10 12  1  0  0  0  0
 11 10  2  0  0  0  0
 12  9  1  0  0  0  0
 13 14  1  0  0  0  0
 15 14  1  0  0  0  0
 16 15  2  0  0  0  0
 17 16  2  0  0  0  0
 18 17  1  0  0  0  0
 19 18  1  0  0  0  0
 19 20  1  0  0  0  0
 21  8  1  0  0  0  0
 22 21  1  0  0  0  0
 23 22  1  0  0  0  0
 24 22  1  0  0  0  0
 25 24  1  0  0  0  0
 26 22  1  0  0  0  0
 26 27  1  0  0  0  0
 28 26  1  0  0  0  0
 29 28  1  0  0  0  0
 30 29  1  0  0  0  0
 31 30  1  0  0  0  0
 32 30  2  0  0  0  0
 33 29  1  0  0  0  0
 34 37  1  0  0  0  0
 34 35  1  0  0  0  0
 36 34  2  0  0  0  0
 37 33  1  0  0  0  0
M  END
>  <MODEL>
3

>  <REMARK>
 VINA RESULT:      -7.0      3.099      7.676
  Name = 
  15 active torsions:
  status: ('A' for Active; 'I' for Inactive)
    1  A    between atoms: C_1  and  C_10
    2  A    between atoms: C_3  and  C_16
    3  A    between atoms: C_6  and  C_8
    4  A    between atoms: C_8  and  C_20
    5  A    between atoms: C_8  and  O_34
    6  A    between atoms: C_13  and  C_23
    7  A    between atoms: C_13  and  C_24
    8  A    between atoms: C_13  and  C_37
    9  A    between atoms: C_15  and  C_26
   10  A    between atoms: C_16  and  C_26
   11  A    between atoms: C_19  and  C_29
   12  A    between atoms: C_20  and  C_23
   13  A    between atoms: C_25  and  O_34
   14  A    between atoms: N_27  and  C_37
   15  A    between atoms: C_29  and  C_30
                            x       y       z     vdW  Elec       q    Type
                         _______ _______ _______ _____ _____    ______ ____

>  <TORSDO>
F 15

$$$$
=
 OpenBabel11042412143D

 37 38  0  0  1  0  0  0  0  0999 V2000
  188.7670  177.2200  146.1160 C   0  0  0  0  0  0  0  0  0  0  0  0
  186.3820  177.9210  146.0650 C   0  0  2  0  0  3  0  0  0  0  0  0
  187.8230  178.3970  145.9930 C   0  0  2  0  0  3  0  0  0  0  0  0
  189.1410  176.5060  145.0420 C   0  0  0  0  0  3  0  0  0  0  0  0
  187.1350  177.1800  143.8190 C   0  0  2  0  0  3  0  0  0  0  0  0
  186.9320  178.3940  144.7360 C   0  0  1  0  0  3  0  0  0  0  0  0
  185.3750  179.2060  146.7680 Cl  0  0  0  0  0  0  0  0  0  0  0  0
  188.6200  176.8280  143.6760 C   0  0  1  0  0  3  0  0  0  0  0  0
  191.6440  177.1150  146.7290 O   0  0  0  0  0  1  0  0  0  0  0  0
  189.3130  176.8800  147.4410 C   0  0  0  0  0  0  0  0  0  0  0  0
  188.5190  176.5360  148.3630 O   0  0  0  0  0  0  0  0  0  0  0  0
  190.7190  176.9090  147.7100 N   0  0  0  0  0  2  0  0  0  0  0  0
  186.4670  177.4120  142.4690 C   0  0  0  0  0  2  0  0  0  0  0  0
  185.9630  178.8440  142.3490 C   0  0  0  0  0  2  0  0  0  0  0  0
  184.4830  178.8790  142.1330 C   0  0  0  0  0  3  0  0  0  0  0  0
  183.6540  178.8550  143.1440 C   0  0  0  0  0  0  0  0  0  0  0  0
  182.8470  178.8540  144.1670 C   0  0  0  0  0  3  0  0  0  0  0  0
  181.3880  178.5900  143.9840 C   0  0  0  0  0  2  0  0  0  0  0  0
  180.8310  179.4340  142.8500 C   0  0  0  0  0  2  0  0  0  0  0  0
  180.1890  178.5500  141.7850 C   0  0  0  0  0  1  0  0  0  0  0  0
  189.3380  177.9200  143.1320 O   0  0  0  0  0  0  0  0  0  0  0  0
  190.6270  177.5630  142.6290 C   0  0  1  0  0  0  0  0  0  0  0  0
  191.8060  178.2440  143.3630 C   0  0  0  0  0  1  0  0  0  0  0  0
  190.7320  176.0530  142.8710 C   0  0  0  0  0  2  0  0  0  0  0  0
  191.9030  175.6930  143.5540 O   0  0  0  0  0  1  0  0  0  0  0  0
  190.6840  177.8510  141.1050 C   0  0  1  0  0  3  0  0  0  0  0  0
  192.0280  177.4610  140.5100 C   0  0  0  0  0  1  0  0  0  0  0  0
  189.5750  177.1370  140.3210 C   0  0  0  0  0  2  0  0  0  0  0  0
  189.5970  177.4330  138.8140 C   0  0  2  0  0  3  0  0  0  0  0  0
  188.6590  178.5470  138.4550 C   0  0  0  0  0  0  0  0  0  0  0  0
  187.3970  178.5880  139.0290 O   0  0  0  0  0  1  0  0  0  0  0  0
  188.9750  179.4070  137.5860 O   0  0  0  0  0  0  0  0  0  0  0  0
  189.3520  176.1880  137.9700 C   0  0  0  0  0  2  0  0  0  0  0  0
  190.9290  174.5540  136.8810 C   0  0  0  0  0  0  0  0  0  0  0  0
  190.4240  174.7650  135.7430 O   0  0  0  0  0  0  0  0  0  0  0  0
  191.9030  173.5760  137.0350 O   0  0  0  0  0  1  0  0  0  0  0  0
  190.5160  175.3160  138.0110 N   0  0  0  0  0  2  0  0  0  0  0  0
  1 10  1  0  0  0  0
  2  7  1  1  0  0  0
  3  2  1  0  0  0  0
  3  1  1  6  0  0  0
  4  1  2  0  0  0  0
  5 13  1  6  0  0  0
  5  6  1  0  0  0  0
  6  3  1  0  0  0  0
  6  2  1  0  0  0  0
  8  5  1  0  0  0  0
  8  4  1  0  0  0  0
  9 12  1  0  0  0  0
 10 12  1  0  0  0  0
 10 11  2  0  0  0  0
 14 13  1  0  0  0  0
 15 14  1  0  0  0  0
 15 16  2  0  0  0  0
 16 17  2  0  0  0  0
 18 17  1  0  0  0  0
 19 18  1  0  0  0  0
 20 19  1  0  0  0  0
 21  8  1  0  0  0  0
 22 24  1  0  0  0  0
 22 21  1  0  0  0  0
 22 23  1  0  0  0  0
 24 25  1  0  0  0  0
 26 22  1  0  0  0  0
 27 26  1  0  0  0  0
 28 26  1  0  0  0  0
 29 28  1  0  0  0  0
 30 29  1  0  0  0  0
 30 31  1  0  0  0  0
 32 30  2  0  0  0  0
 33 37  1  0  0  0  0
 33 29  1  0  0  0  0
 34 36  1  0  0  0  0
 34 37  1  0  0  0  0
 35 34  2  0  0  0  0
M  END
>  <MODEL>
4

>  <REMARK>
 VINA RESULT:      -7.0      2.670      7.261
  Name = 
  15 active torsions:
  status: ('A' for Active; 'I' for Inactive)
    1  A    between atoms: C_1  and  C_10
    2  A    between atoms: C_3  and  C_16
    3  A    between atoms: C_6  and  C_8
    4  A    between atoms: C_8  and  C_20
    5  A    between atoms: C_8  and  O_34
    6  A    between atoms: C_13  and  C_23
    7  A    between atoms: C_13  and  C_24
    8  A    between atoms: C_13  and  C_37
    9  A    between atoms: C_15  and  C_26
   10  A    between atoms: C_16  and  C_26
   11  A    between atoms: C_19  and  C_29
   12  A    between atoms: C_20  and  C_23
   13  A    between atoms: C_25  and  O_34
   14  A    between atoms: N_27  and  C_37
   15  A    between atoms: C_29  and  C_30
                            x       y       z     vdW  Elec       q    Type
                         _______ _______ _______ _____ _____    ______ ____

>  <TORSDO>
F 15

$$$$
=
 OpenBabel11042412143D

 37 38  0  0  1  0  0  0  0  0999 V2000
  184.3910  178.6110  143.4790 C   0  0  0  0  0  0  0  0  0  0  0  0
  186.7230  178.2130  144.2440 C   0  0  2  0  0  3  0  0  0  0  0  0
  185.4610  177.5630  143.7030 C   0  0  2  0  0  3  0  0  0  0  0  0
  184.3130  179.2970  142.3280 C   0  0  0  0  0  3  0  0  0  0  0  0
  186.6790  178.9040  141.8610 C   0  0  2  0  0  3  0  0  0  0  0  0
  186.7140  177.7050  142.8180 C   0  0  1  0  0  3  0  0  0  0  0  0
  187.5880  177.0470  145.2700 Cl  0  0  0  0  0  0  0  0  0  0  0  0
  185.2970  179.0730  141.2220 C   0  0  1  0  0  3  0  0  0  0  0  0
  181.4850  178.6730  143.0170 O   0  0  0  0  0  1  0  0  0  0  0  0
  183.3960  178.8510  144.5370 C   0  0  0  0  0  0  0  0  0  0  0  0
  183.7950  179.1250  145.7060 O   0  0  0  0  0  0  0  0  0  0  0  0
  181.9890  178.8040  144.2780 N   0  0  0  0  0  2  0  0  0  0  0  0
  187.7840  178.7870  140.8180 C   0  0  0  0  0  2  0  0  0  0  0  0
  188.5100  177.4530  140.9390 C   0  0  0  0  0  2  0  0  0  0  0  0
  189.8120  177.6100  141.6580 C   0  0  0  0  0  3  0  0  0  0  0  0
  190.2050  176.7290  142.5400 C   0  0  0  0  0  0  0  0  0  0  0  0
  190.5880  175.8260  143.3980 C   0  0  0  0  0  3  0  0  0  0  0  0
  191.7180  176.0980  144.3360 C   0  0  0  0  0  2  0  0  0  0  0  0
  191.2700  177.0220  145.4570 C   0  0  0  0  0  2  0  0  0  0  0  0
  191.5950  176.4140  146.8180 C   0  0  0  0  0  1  0  0  0  0  0  0
  184.9440  177.9130  140.4910 O   0  0  0  0  0  0  0  0  0  0  0  0
  184.0980  178.1780  139.3710 C   0  0  1  0  0  0  0  0  0  0  0  0
  182.6130  177.8110  139.5940 C   0  0  0  0  0  1  0  0  0  0  0  0
  184.1840  179.6950  139.1720 C   0  0  0  0  0  2  0  0  0  0  0  0
  182.9550  180.2650  138.8070 O   0  0  0  0  0  1  0  0  0  0  0  0
  184.6630  177.4570  138.1170 C   0  0  1  0  0  3  0  0  0  0  0  0
  183.6100  177.3170  137.0290 C   0  0  0  0  0  1  0  0  0  0  0  0
  185.8900  178.1620  137.5250 C   0  0  0  0  0  2  0  0  0  0  0  0
  187.1500  177.2850  137.4930 C   0  0  2  0  0  3  0  0  0  0  0  0
  188.3900  178.1030  137.2970 C   0  0  0  0  0  0  0  0  0  0  0  0
  188.2790  179.4650  137.0570 O   0  0  0  0  0  0  0  0  0  0  0  0
  189.5300  177.5600  137.2790 O   0  0  0  0  0  1  0  0  0  0  0  0
  187.0480  176.1530  136.4760 C   0  0  0  0  0  2  0  0  0  0  0  0
  185.9380  173.9980  137.1600 C   0  0  0  0  0  0  0  0  0  0  0  0
  184.9510  174.2220  136.4040 O   0  0  0  0  0  0  0  0  0  0  0  0
  185.9290  172.8920  138.0000 O   0  0  0  0  0  1  0  0  0  0  0  0
  187.0670  174.8650  137.1550 N   0  0  0  0  0  2  0  0  0  0  0  0
  1 10  1  0  0  0  0
  2  7  1  1  0  0  0
  3  1  1  6  0  0  0
  3  2  1  0  0  0  0
  4  1  2  0  0  0  0
  5 13  1  6  0  0  0
  5  6  1  0  0  0  0
  6  3  1  0  0  0  0
  6  2  1  0  0  0  0
  8  5  1  0  0  0  0
  8  4  1  0  0  0  0
  9 12  1  0  0  0  0
 10 11  2  0  0  0  0
 12 10  1  0  0  0  0
 13 14  1  0  0  0  0
 14 15  1  0  0  0  0
 15 16  2  0  0  0  0
 16 17  2  0  0  0  0
 17 18  1  0  0  0  0
 18 19  1  0  0  0  0
 19 20  1  0  0  0  0
 21  8  1  0  0  0  0
 22 23  1  0  0  0  0
 22 21  1  0  0  0  0
 24 22  1  0  0  0  0
 25 24  1  0  0  0  0
 26 22  1  0  0  0  0
 27 26  1  0  0  0  0
 28 26  1  0  0  0  0
 29 28  1  0  0  0  0
 30 29  1  0  0  0  0
 31 30  2  0  0  0  0
 32 30  1  0  0  0  0
 33 37  1  0  0  0  0
 33 29  1  0  0  0  0
 34 36  1  0  0  0  0
 35 34  2  0  0  0  0
 37 34  1  0  0  0  0
M  END
>  <MODEL>
5

>  <REMARK>
 VINA RESULT:      -6.9      3.544      8.994
  Name = 
  15 active torsions:
  status: ('A' for Active; 'I' for Inactive)
    1  A    between atoms: C_1  and  C_10
    2  A    between atoms: C_3  and  C_16
    3  A    between atoms: C_6  and  C_8
    4  A    between atoms: C_8  and  C_20
    5  A    between atoms: C_8  and  O_34
    6  A    between atoms: C_13  and  C_23
    7  A    between atoms: C_13  and  C_24
    8  A    between atoms: C_13  and  C_37
    9  A    between atoms: C_15  and  C_26
   10  A    between atoms: C_16  and  C_26
   11  A    between atoms: C_19  and  C_29
   12  A    between atoms: C_20  and  C_23
   13  A    between atoms: C_25  and  O_34
   14  A    between atoms: N_27  and  C_37
   15  A    between atoms: C_29  and  C_30
                            x       y       z     vdW  Elec       q    Type
                         _______ _______ _______ _____ _____    ______ ____

>  <TORSDO>
F 15

$$$$
=
 OpenBabel11042412143D

 37 38  0  0  1  0  0  0  0  0999 V2000
  186.7120  178.5460  141.7340 C   0  0  0  0  0  0  0  0  0  0  0  0
  187.5100  177.8090  143.9710 C   0  0  2  0  0  3  0  0  0  0  0  0
  186.8530  177.3670  142.6740 C   0  0  2  0  0  3  0  0  0  0  0  0
  187.7020  178.8980  140.8990 C   0  0  0  0  0  3  0  0  0  0  0  0
  189.3720  177.8320  142.3300 C   0  0  2  0  0  3  0  0  0  0  0  0
  188.3030  176.9590  143.0010 C   0  0  1  0  0  3  0  0  0  0  0  0
  186.9280  176.7840  145.3010 Cl  0  0  0  0  0  0  0  0  0  0  0  0
  189.0020  178.1560  140.8780 C   0  0  1  0  0  3  0  0  0  0  0  0
  185.0620  178.9160  139.3250 O   0  0  0  0  0  1  0  0  0  0  0  0
  185.4430  179.2930  141.7150 C   0  0  0  0  0  0  0  0  0  0  0  0
  185.0600  179.8820  142.7660 O   0  0  0  0  0  0  0  0  0  0  0  0
  184.6400  179.3880  140.5330 N   0  0  0  0  0  2  0  0  0  0  0  0
  190.7430  177.1770  142.4410 C   0  0  0  0  0  2  0  0  0  0  0  0
  190.8790  176.4150  143.7540 C   0  0  0  0  0  2  0  0  0  0  0  0
  191.0240  177.3550  144.9100 C   0  0  0  0  0  3  0  0  0  0  0  0
  190.4150  177.1260  146.0430 C   0  0  0  0  0  0  0  0  0  0  0  0
  189.8180  176.8660  147.1720 C   0  0  0  0  0  3  0  0  0  0  0  0
  189.6990  177.9150  148.2290 C   0  0  0  0  0  2  0  0  0  0  0  0
  188.3100  177.8960  148.8460 C   0  0  0  0  0  2  0  0  0  0  0  0
  187.3540  178.7750  148.0460 C   0  0  0  0  0  1  0  0  0  0  0  0
  188.8640  176.9660  140.1250 O   0  0  0  0  0  0  0  0  0  0  0  0
  188.9650  177.1670  138.7140 C   0  0  1  0  0  0  0  0  0  0  0  0
  187.6050  177.2290  137.9820 C   0  0  0  0  0  1  0  0  0  0  0  0
  189.6420  178.5350  138.5660 C   0  0  0  0  0  2  0  0  0  0  0  0
  189.0170  179.3490  137.6100 O   0  0  0  0  0  1  0  0  0  0  0  0
  189.8740  176.0690  138.1000 C   0  0  1  0  0  3  0  0  0  0  0  0
  189.1690  175.3170  136.9820 C   0  0  0  0  0  1  0  0  0  0  0  0
  191.1990  176.6230  137.5590 C   0  0  0  0  0  2  0  0  0  0  0  0
  192.3570  175.6170  137.6140 C   0  0  2  0  0  3  0  0  0  0  0  0
  193.5090  176.1430  138.4160 C   0  0  0  0  0  0  0  0  0  0  0  0
  194.7440  175.5160  138.3290 O   0  0  0  0  0  0  0  0  0  0  0  0
  193.3560  177.1050  139.2200 O   0  0  0  0  0  1  0  0  0  0  0  0
  192.7930  175.1490  136.2300 C   0  0  0  0  0  2  0  0  0  0  0  0
  193.0970  172.6550  136.0640 C   0  0  0  0  0  0  0  0  0  0  0  0
  194.2460  172.7220  136.5840 O   0  0  0  0  0  1  0  0  0  0  0  0
  192.6230  171.4390  135.5890 O   0  0  0  0  0  0  0  0  0  0  0  0
  192.2770  173.8140  135.9650 N   0  0  0  0  0  2  0  0  0  0  0  0
  2  7  1  1  0  0  0
  3  1  1  6  0  0  0
  3  6  1  0  0  0  0
  3  2  1  0  0  0  0
  4  1  2  0  0  0  0
  5 13  1  6  0  0  0
  5  6  1  0  0  0  0
  6  2  1  0  0  0  0
  8  4  1  0  0  0  0
  8  5  1  0  0  0  0
  9 12  1  0  0  0  0
 10  1  1  0  0  0  0
 10 11  2  0  0  0  0
 12 10  1  0  0  0  0
 13 14  1  0  0  0  0
 14 15  1  0  0  0  0
 15 16  2  0  0  0  0
 16 17  2  0  0  0  0
 17 18  1  0  0  0  0
 18 19  1  0  0  0  0
 20 19  1  0  0  0  0
 21  8  1  0  0  0  0
 22 21  1  0  0  0  0
 23 22  1  0  0  0  0
 24 22  1  0  0  0  0
 25 24  1  0  0  0  0
 26 22  1  0  0  0  0
 27 26  1  0  0  0  0
 28 29  1  0  0  0  0
 28 26  1  0  0  0  0
 29 30  1  0  0  0  0
 30 32  1  0  0  0  0
 31 30  2  0  0  0  0
 33 29  1  0  0  0  0
 34 35  1  0  0  0  0
 36 34  2  0  0  0  0
 37 34  1  0  0  0  0
 37 33  1  0  0  0  0
M  END
>  <MODEL>
6

>  <REMARK>
 VINA RESULT:      -6.8      3.329      8.597
  Name = 
  15 active torsions:
  status: ('A' for Active; 'I' for Inactive)
    1  A    between atoms: C_1  and  C_10
    2  A    between atoms: C_3  and  C_16
    3  A    between atoms: C_6  and  C_8
    4  A    between atoms: C_8  and  C_20
    5  A    between atoms: C_8  and  O_34
    6  A    between atoms: C_13  and  C_23
    7  A    between atoms: C_13  and  C_24
    8  A    between atoms: C_13  and  C_37
    9  A    between atoms: C_15  and  C_26
   10  A    between atoms: C_16  and  C_26
   11  A    between atoms: C_19  and  C_29
   12  A    between atoms: C_20  and  C_23
   13  A    between atoms: C_25  and  O_34
   14  A    between atoms: N_27  and  C_37
   15  A    between atoms: C_29  and  C_30
                            x       y       z     vdW  Elec       q    Type
                         _______ _______ _______ _____ _____    ______ ____

>  <TORSDO>
F 15

$$$$
=
 OpenBabel11042412143D

 37 38  0  0  1  0  0  0  0  0999 V2000
  190.7130  176.3000  138.7250 C   0  0  0  0  0  0  0  0  0  0  0  0
  188.7280  177.3950  137.7040 C   0  0  2  0  0  3  0  0  0  0  0  0
  189.2180  176.2010  138.5050 C   0  0  2  0  0  3  0  0  0  0  0  0
  191.2240  176.9760  139.7670 C   0  0  0  0  0  3  0  0  0  0  0  0
  189.2080  178.3450  139.9460 C   0  0  2  0  0  3  0  0  0  0  0  0
  188.3810  177.3080  139.1760 C   0  0  1  0  0  3  0  0  0  0  0  0
  187.3110  176.9160  136.7440 Cl  0  0  0  0  0  0  0  0  0  0  0  0
  190.3370  177.6840  140.7430 C   0  0  1  0  0  3  0  0  0  0  0  0
  193.5530  176.9870  138.3770 O   0  0  0  0  0  1  0  0  0  0  0  0
  191.6170  175.6050  137.7950 C   0  0  0  0  0  0  0  0  0  0  0  0
  191.1490  174.7090  137.0360 O   0  0  0  0  0  0  0  0  0  0  0  0
  193.0100  175.9290  137.7090 N   0  0  0  0  0  2  0  0  0  0  0  0
  188.3050  179.1990  140.8290 C   0  0  0  0  0  2  0  0  0  0  0  0
  186.9120  178.5900  140.9340 C   0  0  0  0  0  2  0  0  0  0  0  0
  186.0440  179.3840  141.8600 C   0  0  0  0  0  3  0  0  0  0  0  0
  185.0540  178.8220  142.5010 C   0  0  0  0  0  0  0  0  0  0  0  0
  184.0870  178.2360  143.1500 C   0  0  0  0  0  3  0  0  0  0  0  0
  183.0340  179.0430  143.8370 C   0  0  0  0  0  2  0  0  0  0  0  0
  181.6780  178.8100  143.1920 C   0  0  0  0  0  2  0  0  0  0  0  0
  181.8190  178.6480  141.6820 C   0  0  0  0  0  1  0  0  0  0  0  0
  189.8100  176.7570  141.6740 O   0  0  0  0  0  0  0  0  0  0  0  0
  190.1330  177.0640  143.0320 C   0  0  1  0  0  0  0  0  0  0  0  0
  190.8560  175.9240  143.7870 C   0  0  0  0  0  1  0  0  0  0  0  0
  191.0960  178.2530  142.9410 C   0  0  0  0  0  2  0  0  0  0  0  0
  191.9780  178.3210  144.0300 O   0  0  0  0  0  1  0  0  0  0  0  0
  188.8450  177.4950  143.7830 C   0  0  1  0  0  3  0  0  0  0  0  0
  187.7830  176.4080  143.7460 C   0  0  0  0  0  1  0  0  0  0  0  0
  189.1060  177.8760  145.2470 C   0  0  0  0  0  2  0  0  0  0  0  0
  188.1190  177.2390  146.2350 C   0  0  2  0  0  3  0  0  0  0  0  0
  187.1130  178.2340  146.7310 C   0  0  0  0  0  0  0  0  0  0  0  0
  186.2060  178.7900  145.8410 O   0  0  0  0  0  0  0  0  0  0  0  0
  187.1230  178.6240  147.9330 O   0  0  0  0  0  1  0  0  0  0  0  0
  188.8200  176.5190  147.3820 C   0  0  0  0  0  2  0  0  0  0  0  0
  191.3130  176.4970  147.7410 C   0  0  0  0  0  0  0  0  0  0  0  0
  191.4060  175.3210  147.2900 O   0  0  0  0  0  0  0  0  0  0  0  0
  192.4330  177.1260  148.2690 O   0  0  0  0  0  1  0  0  0  0  0  0
  190.0710  177.1910  147.7060 N   0  0  0  0  0  2  0  0  0  0  0  0
  1  4  2  0  0  0  0
  2  7  1  6  0  0  0
  2  3  1  0  0  0  0
  2  6  1  0  0  0  0
  3  1  1  1  0  0  0
  3  6  1  0  0  0  0
  4  8  1  0  0  0  0
  5  8  1  0  0  0  0
  5 13  1  1  0  0  0
  6  5  1  0  0  0  0
  8 21  1  0  0  0  0
 10  1  1  0  0  0  0
 11 10  2  0  0  0  0
 12 10  1  0  0  0  0
 12  9  1  0  0  0  0
 13 14  1  0  0  0  0
 14 15  1  0  0  0  0
 15 16  2  0  0  0  0
 16 17  2  0  0  0  0
 17 18  1  0  0  0  0
 19 18  1  0  0  0  0
 20 19  1  0  0  0  0
 21 22  1  0  0  0  0
 22 26  1  0  0  0  0
 22 23  1  0  0  0  0
 24 22  1  0  0  0  0
 24 25  1  0  0  0  0
 26 28  1  0  0  0  0
 27 26  1  0  0  0  0
 28 29  1  0  0  0  0
 29 30  1  0  0  0  0
 29 33  1  0  0  0  0
 30 32  1  0  0  0  0
 31 30  2  0  0  0  0
 33 37  1  0  0  0  0
 34 36  1  0  0  0  0
 35 34  2  0  0  0  0
 37 34  1  0  0  0  0
M  END
>  <MODEL>
7

>  <REMARK>
 VINA RESULT:      -6.8      1.322      2.856
  Name = 
  15 active torsions:
  status: ('A' for Active; 'I' for Inactive)
    1  A    between atoms: C_1  and  C_10
    2  A    between atoms: C_3  and  C_16
    3  A    between atoms: C_6  and  C_8
    4  A    between atoms: C_8  and  C_20
    5  A    between atoms: C_8  and  O_34
    6  A    between atoms: C_13  and  C_23
    7  A    between atoms: C_13  and  C_24
    8  A    between atoms: C_13  and  C_37
    9  A    between atoms: C_15  and  C_26
   10  A    between atoms: C_16  and  C_26
   11  A    between atoms: C_19  and  C_29
   12  A    between atoms: C_20  and  C_23
   13  A    between atoms: C_25  and  O_34
   14  A    between atoms: N_27  and  C_37
   15  A    between atoms: C_29  and  C_30
                            x       y       z     vdW  Elec       q    Type
                         _______ _______ _______ _____ _____    ______ ____

>  <TORSDO>
F 15

$$$$
=
 OpenBabel11042412143D

 37 38  0  0  1  0  0  0  0  0999 V2000
  185.3680  178.6650  143.9020 C   0  0  0  0  0  0  0  0  0  0  0  0
  187.7650  178.0030  143.9050 C   0  0  2  0  0  3  0  0  0  0  0  0
  186.3340  177.5010  143.8210 C   0  0  2  0  0  3  0  0  0  0  0  0
  185.0000  179.3470  142.8060 C   0  0  0  0  0  3  0  0  0  0  0  0
  187.0360  178.6790  141.6300 C   0  0  2  0  0  3  0  0  0  0  0  0
  187.2450  177.4910  142.5780 C   0  0  1  0  0  3  0  0  0  0  0  0
  188.7820  176.7530  144.6530 Cl  0  0  0  0  0  0  0  0  0  0  0  0
  185.5480  179.0030  141.4560 C   0  0  1  0  0  3  0  0  0  0  0  0
  182.4800  178.7770  144.4560 O   0  0  0  0  0  1  0  0  0  0  0  0
  184.7960  179.0260  145.2090 C   0  0  0  0  0  0  0  0  0  0  0  0
  185.5710  179.3860  146.1410 O   0  0  0  0  0  0  0  0  0  0  0  0
  183.3850  179.0000  145.4510 N   0  0  0  0  0  2  0  0  0  0  0  0
  187.7290  178.4280  140.2970 C   0  0  0  0  0  2  0  0  0  0  0  0
  189.1790  178.0070  140.5070 C   0  0  0  0  0  2  0  0  0  0  0  0
  189.5380  176.8520  139.6260 C   0  0  0  0  0  3  0  0  0  0  0  0
  190.7480  176.7210  139.1480 C   0  0  0  0  0  0  0  0  0  0  0  0
  191.9660  176.5970  138.7020 C   0  0  0  0  0  3  0  0  0  0  0  0
  192.2780  175.6400  137.5990 C   0  0  0  0  0  2  0  0  0  0  0  0
  191.1790  174.5990  137.4690 C   0  0  0  0  0  2  0  0  0  0  0  0
  190.6300  174.5700  136.0450 C   0  0  0  0  0  1  0  0  0  0  0  0
  184.8570  177.8860  140.9260 O   0  0  0  0  0  0  0  0  0  0  0  0
  183.9360  178.2240  139.8880 C   0  0  1  0  0  0  0  0  0  0  0  0
  182.4510  178.1780  140.3150 C   0  0  0  0  0  1  0  0  0  0  0  0
  184.2770  179.6740  139.5250 C   0  0  0  0  0  2  0  0  0  0  0  0
  183.1580  180.4030  139.0950 O   0  0  0  0  0  1  0  0  0  0  0  0
  184.1860  177.3090  138.6590 C   0  0  1  0  0  3  0  0  0  0  0  0
  183.0080  177.3250  137.6980 C   0  0  0  0  0  1  0  0  0  0  0  0
  185.4570  177.6830  137.8840 C   0  0  0  0  0  2  0  0  0  0  0  0
  185.6520  176.8750  136.5930 C   0  0  2  0  0  3  0  0  0  0  0  0
  186.1510  175.4900  136.8770 C   0  0  0  0  0  0  0  0  0  0  0  0
  185.2870  174.4130  136.7430 O   0  0  0  0  0  0  0  0  0  0  0  0
  187.3240  175.2970  137.3020 O   0  0  0  0  0  1  0  0  0  0  0  0
  186.5290  177.5990  135.5770 C   0  0  0  0  0  2  0  0  0  0  0  0
  188.5480  178.7310  136.5680 C   0  0  0  0  0  0  0  0  0  0  0  0
  189.3080  177.7970  136.1840 O   0  0  0  0  0  0  0  0  0  0  0  0
  189.0570  179.7580  137.3520 O   0  0  0  0  0  1  0  0  0  0  0  0
  187.1740  178.7470  136.1980 N   0  0  0  0  0  2  0  0  0  0  0  0
  1 10  1  0  0  0  0
  2  7  1  1  0  0  0
  3  1  1  6  0  0  0
  3  2  1  0  0  0  0
  4  1  2  0  0  0  0
  5 13  1  6  0  0  0
  5  6  1  0  0  0  0
  6  3  1  0  0  0  0
  6  2  1  0  0  0  0
  8  5  1  0  0  0  0
  8  4  1  0  0  0  0
  9 12  1  0  0  0  0
 10 12  1  0  0  0  0
 10 11  2  0  0  0  0
 13 14  1  0  0  0  0
 15 14  1  0  0  0  0
 16 15  2  0  0  0  0
 17 16  2  0  0  0  0
 18 17  1  0  0  0  0
 19 18  1  0  0  0  0
 20 19  1  0  0  0  0
 21  8  1  0  0  0  0
 22 23  1  0  0  0  0
 22 21  1  0  0  0  0
 24 22  1  0  0  0  0
 25 24  1  0  0  0  0
 26 22  1  0  0  0  0
 27 26  1  0  0  0  0
 28 26  1  0  0  0  0
 29 30  1  0  0  0  0
 29 28  1  0  0  0  0
 30 32  1  0  0  0  0
 31 30  2  0  0  0  0
 33 37  1  0  0  0  0
 33 29  1  0  0  0  0
 34 36  1  0  0  0  0
 35 34  2  0  0  0  0
 37 34  1  0  0  0  0
M  END
>  <MODEL>
8

>  <REMARK>
 VINA RESULT:      -6.6      3.319      9.105
  Name = 
  15 active torsions:
  status: ('A' for Active; 'I' for Inactive)
    1  A    between atoms: C_1  and  C_10
    2  A    between atoms: C_3  and  C_16
    3  A    between atoms: C_6  and  C_8
    4  A    between atoms: C_8  and  C_20
    5  A    between atoms: C_8  and  O_34
    6  A    between atoms: C_13  and  C_23
    7  A    between atoms: C_13  and  C_24
    8  A    between atoms: C_13  and  C_37
    9  A    between atoms: C_15  and  C_26
   10  A    between atoms: C_16  and  C_26
   11  A    between atoms: C_19  and  C_29
   12  A    between atoms: C_20  and  C_23
   13  A    between atoms: C_25  and  O_34
   14  A    between atoms: N_27  and  C_37
   15  A    between atoms: C_29  and  C_30
                            x       y       z     vdW  Elec       q    Type
                         _______ _______ _______ _____ _____    ______ ____

>  <TORSDO>
F 15

$$$$
=
 OpenBabel11042412143D

 37 38  0  0  1  0  0  0  0  0999 V2000
  185.4420  178.6710  143.9560 C   0  0  0  0  0  0  0  0  0  0  0  0
  187.8370  178.0060  144.0170 C   0  0  2  0  0  3  0  0  0  0  0  0
  186.4080  177.5060  143.8960 C   0  0  2  0  0  3  0  0  0  0  0  0
  185.1020  179.3570  142.8540 C   0  0  0  0  0  3  0  0  0  0  0  0
  187.1650  178.6890  141.7270 C   0  0  2  0  0  3  0  0  0  0  0  0
  187.3500  177.4980  142.6760 C   0  0  1  0  0  3  0  0  0  0  0  0
  188.8340  176.7520  144.7860 Cl  0  0  0  0  0  0  0  0  0  0  0  0
  185.6830  179.0150  141.5170 C   0  0  1  0  0  3  0  0  0  0  0  0
  182.5410  178.7550  144.4470 O   0  0  0  0  0  1  0  0  0  0  0  0
  184.8390  179.0290  145.2510 C   0  0  0  0  0  0  0  0  0  0  0  0
  185.5890  179.3990  146.1980 O   0  0  0  0  0  0  0  0  0  0  0  0
  183.4220  178.9890  145.4620 N   0  0  0  0  0  2  0  0  0  0  0  0
  187.8910  178.4410  140.4100 C   0  0  0  0  0  2  0  0  0  0  0  0
  189.0200  177.4330  140.5920 C   0  0  0  0  0  2  0  0  0  0  0  0
  190.1270  177.6820  139.6170 C   0  0  0  0  0  3  0  0  0  0  0  0
  190.6330  176.7050  138.9100 C   0  0  0  0  0  0  0  0  0  0  0  0
  191.1070  175.7220  138.1980 C   0  0  0  0  0  3  0  0  0  0  0  0
  192.3900  175.8740  137.4490 C   0  0  0  0  0  2  0  0  0  0  0  0
  192.2400  175.3640  136.0250 C   0  0  0  0  0  2  0  0  0  0  0  0
  191.1110  174.3410  135.9350 C   0  0  0  0  0  1  0  0  0  0  0  0
  185.0030  177.9010  140.9670 O   0  0  0  0  0  0  0  0  0  0  0  0
  184.0940  178.2450  139.9200 C   0  0  1  0  0  0  0  0  0  0  0  0
  182.6100  178.2810  140.3530 C   0  0  0  0  0  1  0  0  0  0  0  0
  184.4990  179.6650  139.5080 C   0  0  0  0  0  2  0  0  0  0  0  0
  183.4070  180.4410  139.0910 O   0  0  0  0  0  1  0  0  0  0  0  0
  184.2980  177.2800  138.7220 C   0  0  1  0  0  3  0  0  0  0  0  0
  182.9710  176.8080  138.1500 C   0  0  0  0  0  1  0  0  0  0  0  0
  185.1290  177.8980  137.5900 C   0  0  0  0  0  2  0  0  0  0  0  0
  186.3960  177.1010  137.2490 C   0  0  2  0  0  3  0  0  0  0  0  0
  187.5100  177.9970  136.7990 C   0  0  0  0  0  0  0  0  0  0  0  0
  188.6100  177.4490  136.1560 O   0  0  0  0  0  0  0  0  0  0  0  0
  187.4930  179.2340  137.0570 O   0  0  0  0  0  1  0  0  0  0  0  0
  186.1300  175.9790  136.2510 C   0  0  0  0  0  2  0  0  0  0  0  0
  185.6470  173.7220  137.2580 C   0  0  0  0  0  0  0  0  0  0  0  0
  184.4120  173.8360  137.0170 O   0  0  0  0  0  0  0  0  0  0  0  0
  186.1140  172.6260  137.9720 O   0  0  0  0  0  1  0  0  0  0  0  0
  186.5690  174.7040  136.7990 N   0  0  0  0  0  2  0  0  0  0  0  0
  1 10  1  0  0  0  0
  2  7  1  1  0  0  0
  3  1  1  6  0  0  0
  3  2  1  0  0  0  0
  4  1  2  0  0  0  0
  5 13  1  6  0  0  0
  5  6  1  0  0  0  0
  6  3  1  0  0  0  0
  6  2  1  0  0  0  0
  8  5  1  0  0  0  0
  8  4  1  0  0  0  0
  9 12  1  0  0  0  0
 10 12  1  0  0  0  0
 10 11  2  0  0  0  0
 13 14  1  0  0  0  0
 15 14  1  0  0  0  0
 16 15  2  0  0  0  0
 17 16  2  0  0  0  0
 18 17  1  0  0  0  0
 19 18  1  0  0  0  0
 20 19  1  0  0  0  0
 21  8  1  0  0  0  0
 22 23  1  0  0  0  0
 22 21  1  0  0  0  0
 24 22  1  0  0  0  0
 25 24  1  0  0  0  0
 26 22  1  0  0  0  0
 27 26  1  0  0  0  0
 28 26  1  0  0  0  0
 29 28  1  0  0  0  0
 30 32  1  0  0  0  0
 30 29  1  0  0  0  0
 31 30  2  0  0  0  0
 33 37  1  0  0  0  0
 33 29  1  0  0  0  0
 34 36  1  0  0  0  0
 35 34  2  0  0  0  0
 37 34  1  0  0  0  0
M  END
>  <MODEL>
9

>  <REMARK>
 VINA RESULT:      -6.5      3.417      9.073
  Name = 
  15 active torsions:
  status: ('A' for Active; 'I' for Inactive)
    1  A    between atoms: C_1  and  C_10
    2  A    between atoms: C_3  and  C_16
    3  A    between atoms: C_6  and  C_8
    4  A    between atoms: C_8  and  C_20
    5  A    between atoms: C_8  and  O_34
    6  A    between atoms: C_13  and  C_23
    7  A    between atoms: C_13  and  C_24
    8  A    between atoms: C_13  and  C_37
    9  A    between atoms: C_15  and  C_26
   10  A    between atoms: C_16  and  C_26
   11  A    between atoms: C_19  and  C_29
   12  A    between atoms: C_20  and  C_23
   13  A    between atoms: C_25  and  O_34
   14  A    between atoms: N_27  and  C_37
   15  A    between atoms: C_29  and  C_30
                            x       y       z     vdW  Elec       q    Type
                         _______ _______ _______ _____ _____    ______ ____

>  <TORSDO>
F 15

$$$$
