=
 OpenBabel11042411103D

 33 36  0  0  1  0  0  0  0  0999 V2000
  190.6590  177.1210  139.7670 C   0  0  0  0  0  1  0  0  0  0  0  0
  189.3910  177.6780  140.3220 C   0  0  0  0  0  0  0  0  0  0  0  0
  189.4030  177.9240  137.0320 S   0  0  0  0  0  0  0  0  0  0  0  0
  188.1710  177.6840  138.0880 C   0  0  0  0  0  0  0  0  0  0  0  0
  186.9810  178.2950  139.9970 C   0  0  0  0  0  0  0  0  0  0  0  0
  186.0980  178.3250  138.9410 C   0  0  0  0  0  0  0  0  0  0  0  0
  185.3150  179.0310  141.4950 C   0  0  0  0  0  0  0  0  0  0  0  0
  184.8950  179.3890  142.8750 C   0  0  0  0  0  1  0  0  0  0  0  0
  188.3030  177.8800  139.5500 C   0  0  0  0  0  0  0  0  0  0  0  0
  186.5980  178.6360  141.2560 N   0  0  0  0  0  0  0  0  0  0  0  0
  184.7820  178.7460  139.1440 C   0  0  0  0  0  3  0  0  0  0  0  0
  186.7360  177.8950  137.6520 C   0  0  2  0  0  3  0  0  0  0  0  0
  184.3860  179.1010  140.4420 C   0  0  0  0  0  3  0  0  0  0  0  0
  187.0710  175.4390  137.2610 C   0  0  0  0  0  3  0  0  0  0  0  0
  186.7280  174.1830  136.9820 C   0  0  0  0  0  3  0  0  0  0  0  0
  186.1150  176.5820  137.1360 C   0  0  2  0  0  3  0  0  0  0  0  0
  185.6870  176.7190  135.7090 C   0  0  0  0  0  3  0  0  0  0  0  0
  184.9450  172.3990  136.7720 C   0  0  0  0  0  1  0  0  0  0  0  0
  184.7000  174.4830  135.5660 C   0  0  0  0  0  3  0  0  0  0  0  0
  185.4190  173.7690  136.4440 C   0  0  0  0  0  0  0  0  0  0  0  0
  185.0430  175.7890  135.0710 N   0  0  0  0  0  0  0  0  0  0  0  0
  189.3710  177.9850  141.7830 C   0  0  0  0  0  2  0  0  0  0  0  0
  189.2510  176.6970  142.5780 C   0  0  0  0  0  2  0  0  0  0  0  0
  189.7310  177.1000  145.1240 C   0  0  0  0  0  0  0  0  0  0  0  0
  188.9330  177.4410  146.3320 C   0  0  0  0  0  2  0  0  0  0  0  0
  187.5850  177.5100  145.7780 N   0  0  0  0  0  0  0  0  0  0  0  0
  191.0100  176.9050  145.0890 N   0  0  0  0  0  0  0  0  0  0  0  0
  187.6040  177.2380  144.3780 C   0  0  0  0  0  3  0  0  0  0  0  0
  188.8410  176.9920  143.9800 C   0  0  0  0  0  0  0  0  0  0  0  0
  192.1530  175.8580  146.9440 C   0  0  0  0  0  1  0  0  0  0  0  0
  191.7780  177.0190  146.2250 O   0  0  0  0  0  0  0  0  0  0  0  0
  186.3700  177.8210  146.5190 C   0  0  0  0  0  2  0  0  0  0  0  0
  185.9410  179.1190  146.2360 O   0  0  0  0  0  1  0  0  0  0  0  0
  1  2  1  0  0  0  0
  2 22  1  0  0  0  0
  3  4  2  0  0  0  0
  4  9  1  0  0  0  0
  5 10  1  0  0  0  0
  6 11  1  0  0  0  0
  6  5  2  0  0  0  0
  7  8  1  0  0  0  0
  9  5  1  0  0  0  0
  9  2  2  0  0  0  0
 10  7  2  0  0  0  0
 11 13  2  0  0  0  0
 12  4  1  1  0  0  0
 12  6  1  0  0  0  0
 13  7  1  0  0  0  0
 15 14  2  0  0  0  0
 16 17  1  6  0  0  0
 16 14  1  0  0  0  0
 16 12  1  0  0  0  0
 19 20  2  0  0  0  0
 20 18  1  0  0  0  0
 20 15  1  0  0  0  0
 21 19  1  0  0  0  0
 21 17  2  0  0  0  0
 22 23  1  0  0  0  0
 23 29  1  0  0  0  0
 24 25  1  0  0  0  0
 26 25  1  0  0  0  0
 26 32  1  0  0  0  0
 27 24  2  0  0  0  0
 27 31  1  0  0  0  0
 28 26  1  0  0  0  0
 29 28  2  0  0  0  0
 29 24  1  0  0  0  0
 31 30  1  0  0  0  0
 33 32  1  0  0  0  0
M  END
>  <MODEL>
1

>  <REMARK>
 VINA RESULT:      -8.5      0.000      0.000
  Name = 
  6 active torsions:
  status: ('A' for Active; 'I' for Inactive)
    1  A    between atoms: C_2  and  C_22
    2  A    between atoms: C_10  and  N_18
    3  A    between atoms: C_11  and  C_32
    4  A    between atoms: N_19  and  O_25
    5  A    between atoms: C_22  and  C_28
    6  A    between atoms: C_28  and  C_30
                            x       y       z     vdW  Elec       q    Type
                         _______ _______ _______ _____ _____    ______ ____

>  <TORSDO>
F 6

$$$$
=
 OpenBabel11042411103D

 33 36  0  0  1  0  0  0  0  0999 V2000
  190.2770  177.5000  139.9330 C   0  0  0  0  0  1  0  0  0  0  0  0
  188.9520  177.9230  140.4730 C   0  0  0  0  0  0  0  0  0  0  0  0
  189.0730  178.4410  137.2180 S   0  0  0  0  0  0  0  0  0  0  0  0
  187.8220  178.0320  138.1960 C   0  0  0  0  0  0  0  0  0  0  0  0
  186.5180  178.4010  140.0930 C   0  0  0  0  0  0  0  0  0  0  0  0
  185.6770  178.4590  139.0050 C   0  0  0  0  0  0  0  0  0  0  0  0
  184.7480  178.8960  141.5710 C   0  0  0  0  0  0  0  0  0  0  0  0
  184.2510  179.1090  142.9550 C   0  0  0  0  0  1  0  0  0  0  0  0
  187.8830  178.1140  139.6730 C   0  0  0  0  0  0  0  0  0  0  0  0
  186.0640  178.6100  141.3570 N   0  0  0  0  0  0  0  0  0  0  0  0
  184.3280  178.7720  139.1830 C   0  0  0  0  0  3  0  0  0  0  0  0
  186.3930  178.1810  137.7150 C   0  0  2  0  0  3  0  0  0  0  0  0
  183.8580  178.9900  140.4860 C   0  0  0  0  0  3  0  0  0  0  0  0
  186.8770  175.7670  137.2280 C   0  0  0  0  0  3  0  0  0  0  0  0
  186.6210  174.5170  136.8490 C   0  0  0  0  0  3  0  0  0  0  0  0
  185.8870  176.8770  137.0690 C   0  0  2  0  0  3  0  0  0  0  0  0
  185.5970  177.0800  135.6150 C   0  0  0  0  0  3  0  0  0  0  0  0
  184.9510  172.6780  136.3630 C   0  0  0  0  0  1  0  0  0  0  0  0
  184.7320  174.8180  135.2530 C   0  0  0  0  0  3  0  0  0  0  0  0
  185.3920  174.0830  136.1590 C   0  0  0  0  0  0  0  0  0  0  0  0
  185.0620  176.1630  134.8660 N   0  0  0  0  0  0  0  0  0  0  0  0
  188.8540  178.1060  141.9530 C   0  0  0  0  0  2  0  0  0  0  0  0
  188.8130  176.7500  142.6370 C   0  0  0  0  0  2  0  0  0  0  0  0
  188.2070  177.1690  145.1530 C   0  0  0  0  0  0  0  0  0  0  0  0
  188.9360  177.1950  146.4490 C   0  0  0  0  0  2  0  0  0  0  0  0
  190.3020  176.9200  146.0180 N   0  0  0  0  0  0  0  0  0  0  0  0
  186.9400  177.3800  144.9900 N   0  0  0  0  0  0  0  0  0  0  0  0
  190.3550  176.7450  144.6030 C   0  0  0  0  0  3  0  0  0  0  0  0
  189.1490  176.8920  144.0820 C   0  0  0  0  0  0  0  0  0  0  0  0
  185.7220  178.9780  146.3350 C   0  0  0  0  0  1  0  0  0  0  0  0
  186.1200  177.6470  146.0630 O   0  0  0  0  0  0  0  0  0  0  0  0
  191.4690  176.8180  146.8830 C   0  0  0  0  0  2  0  0  0  0  0  0
  192.1810  175.6470  146.6140 O   0  0  0  0  0  1  0  0  0  0  0  0
  1  2  1  0  0  0  0
  2 22  1  0  0  0  0
  3  4  2  0  0  0  0
  4  9  1  0  0  0  0
  5 10  1  0  0  0  0
  6 11  1  0  0  0  0
  6  5  2  0  0  0  0
  7  8  1  0  0  0  0
  9  5  1  0  0  0  0
  9  2  2  0  0  0  0
 10  7  2  0  0  0  0
 11 13  2  0  0  0  0
 12  4  1  1  0  0  0
 12  6  1  0  0  0  0
 13  7  1  0  0  0  0
 15 14  2  0  0  0  0
 16 17  1  6  0  0  0
 16 14  1  0  0  0  0
 16 12  1  0  0  0  0
 19 20  2  0  0  0  0
 20 18  1  0  0  0  0
 20 15  1  0  0  0  0
 21 19  1  0  0  0  0
 21 17  2  0  0  0  0
 22 23  1  0  0  0  0
 23 29  1  0  0  0  0
 24 25  1  0  0  0  0
 26 25  1  0  0  0  0
 26 32  1  0  0  0  0
 27 24  2  0  0  0  0
 27 31  1  0  0  0  0
 28 26  1  0  0  0  0
 29 28  2  0  0  0  0
 29 24  1  0  0  0  0
 31 30  1  0  0  0  0
 33 32  1  0  0  0  0
M  END
>  <MODEL>
2

>  <REMARK>
 VINA RESULT:      -8.3      0.732      2.479
  Name = 
  6 active torsions:
  status: ('A' for Active; 'I' for Inactive)
    1  A    between atoms: C_2  and  C_22
    2  A    between atoms: C_10  and  N_18
    3  A    between atoms: C_11  and  C_32
    4  A    between atoms: N_19  and  O_25
    5  A    between atoms: C_22  and  C_28
    6  A    between atoms: C_28  and  C_30
                            x       y       z     vdW  Elec       q    Type
                         _______ _______ _______ _____ _____    ______ ____

>  <TORSDO>
F 6

$$$$
=
 OpenBabel11042411103D

 33 36  0  0  1  0  0  0  0  0999 V2000
  190.7820  176.7580  142.4630 C   0  0  0  0  0  1  0  0  0  0  0  0
  189.6750  177.2160  141.5750 C   0  0  0  0  0  0  0  0  0  0  0  0
  192.5690  177.4700  140.0130 S   0  0  0  0  0  0  0  0  0  0  0  0
  191.0670  177.1350  139.4460 C   0  0  0  0  0  0  0  0  0  0  0  0
  188.8010  177.6500  139.2640 C   0  0  0  0  0  0  0  0  0  0  0  0
  189.3130  177.6150  137.9870 C   0  0  0  0  0  0  0  0  0  0  0  0
  186.6670  178.2540  138.4610 C   0  0  0  0  0  0  0  0  0  0  0  0
  185.2410  178.5770  138.7220 C   0  0  0  0  0  1  0  0  0  0  0  0
  189.8340  177.3370  140.2410 C   0  0  0  0  0  0  0  0  0  0  0  0
  187.4980  177.9580  139.5010 N   0  0  0  0  0  0  0  0  0  0  0  0
  188.4980  177.9360  136.8990 C   0  0  0  0  0  3  0  0  0  0  0  0
  190.7660  177.2380  137.9650 C   0  0  2  0  0  3  0  0  0  0  0  0
  187.1550  178.2560  137.1420 C   0  0  0  0  0  3  0  0  0  0  0  0
  189.8250  174.9590  137.4970 C   0  0  0  0  0  3  0  0  0  0  0  0
  189.7250  173.7710  136.9040 C   0  0  0  0  0  3  0  0  0  0  0  0
  190.9770  175.8830  137.2620 C   0  0  2  0  0  3  0  0  0  0  0  0
  192.2400  175.2310  137.7290 C   0  0  0  0  0  3  0  0  0  0  0  0
  190.2940  172.2360  134.9730 C   0  0  0  0  0  1  0  0  0  0  0  0
  192.0740  173.3240  136.2020 C   0  0  0  0  0  3  0  0  0  0  0  0
  190.7530  173.1810  136.0250 C   0  0  0  0  0  0  0  0  0  0  0  0
  192.7000  174.1290  137.2150 N   0  0  0  0  0  0  0  0  0  0  0  0
  188.3660  177.5180  142.2290 C   0  0  0  0  0  2  0  0  0  0  0  0
  188.0310  176.4290  143.2340 C   0  0  0  0  0  2  0  0  0  0  0  0
  188.5530  177.2450  145.6700 C   0  0  0  0  0  0  0  0  0  0  0  0
  187.8020  177.9050  146.7720 C   0  0  0  0  0  2  0  0  0  0  0  0
  186.4750  178.0330  146.1800 N   0  0  0  0  0  0  0  0  0  0  0  0
  189.7970  176.8910  145.7050 N   0  0  0  0  0  0  0  0  0  0  0  0
  186.4620  177.5000  144.8570 C   0  0  0  0  0  3  0  0  0  0  0  0
  187.6590  177.0330  144.5450 C   0  0  0  0  0  0  0  0  0  0  0  0
  191.5970  176.2110  147.1690 C   0  0  0  0  0  1  0  0  0  0  0  0
  190.5710  177.1220  146.8190 O   0  0  0  0  0  0  0  0  0  0  0  0
  185.3070  178.6260  146.8170 C   0  0  0  0  0  2  0  0  0  0  0  0
  184.2940  178.8460  145.8820 O   0  0  0  0  0  1  0  0  0  0  0  0
  2 22  1  0  0  0  0
  2  1  1  0  0  0  0
  4  3  2  0  0  0  0
  4  9  1  0  0  0  0
  5 10  1  0  0  0  0
  5  9  1  0  0  0  0
  6  5  2  0  0  0  0
  7  8  1  0  0  0  0
  7 10  2  0  0  0  0
  9  2  2  0  0  0  0
 11 13  2  0  0  0  0
 11  6  1  0  0  0  0
 12  6  1  1  0  0  0
 12  4  1  0  0  0  0
 13  7  1  0  0  0  0
 15 14  2  0  0  0  0
 16 14  1  1  0  0  0
 16 17  1  0  0  0  0
 16 12  1  0  0  0  0
 18 20  1  0  0  0  0
 19 21  1  0  0  0  0
 20 19  2  0  0  0  0
 20 15  1  0  0  0  0
 21 17  2  0  0  0  0
 22 23  1  0  0  0  0
 23 29  1  0  0  0  0
 24 27  2  0  0  0  0
 24 25  1  0  0  0  0
 26 25  1  0  0  0  0
 26 32  1  0  0  0  0
 27 31  1  0  0  0  0
 28 26  1  0  0  0  0
 29 28  2  0  0  0  0
 29 24  1  0  0  0  0
 31 30  1  0  0  0  0
 33 32  1  0  0  0  0
M  END
>  <MODEL>
3

>  <REMARK>
 VINA RESULT:      -8.1      2.592      3.659
  Name = 
  6 active torsions:
  status: ('A' for Active; 'I' for Inactive)
    1  A    between atoms: C_2  and  C_22
    2  A    between atoms: C_10  and  N_18
    3  A    between atoms: C_11  and  C_32
    4  A    between atoms: N_19  and  O_25
    5  A    between atoms: C_22  and  C_28
    6  A    between atoms: C_28  and  C_30
                            x       y       z     vdW  Elec       q    Type
                         _______ _______ _______ _____ _____    ______ ____

>  <TORSDO>
F 6

$$$$
=
 OpenBabel11042411103D

 33 36  0  0  1  0  0  0  0  0999 V2000
  182.7430  179.2630  143.5670 C   0  0  0  0  0  1  0  0  0  0  0  0
  183.8930  179.0090  142.6500 C   0  0  0  0  0  0  0  0  0  0  0  0
  181.0940  177.8920  141.3070 S   0  0  0  0  0  0  0  0  0  0  0  0
  182.4380  178.5320  140.6180 C   0  0  0  0  0  0  0  0  0  0  0  0
  184.7510  178.5790  140.3320 C   0  0  0  0  0  0  0  0  0  0  0  0
  184.1930  178.3590  139.0930 C   0  0  0  0  0  0  0  0  0  0  0  0
  186.9330  178.4460  139.4460 C   0  0  0  0  0  0  0  0  0  0  0  0
  188.4040  178.5140  139.6400 C   0  0  0  0  0  1  0  0  0  0  0  0
  183.7130  178.7210  141.3440 C   0  0  0  0  0  0  0  0  0  0  0  0
  186.0980  178.6280  140.5090 N   0  0  0  0  0  0  0  0  0  0  0  0
  185.0170  178.1450  137.9860 C   0  0  0  0  0  3  0  0  0  0  0  0
  182.6920  178.3610  139.1340 C   0  0  2  0  0  3  0  0  0  0  0  0
  186.4060  178.1930  138.1670 C   0  0  0  0  0  3  0  0  0  0  0  0
  181.3440  180.4760  139.2130 C   0  0  0  0  0  3  0  0  0  0  0  0
  180.8420  181.6280  138.7730 C   0  0  0  0  0  3  0  0  0  0  0  0
  182.1160  179.5450  138.3340 C   0  0  2  0  0  3  0  0  0  0  0  0
  181.2350  179.0610  137.2260 C   0  0  0  0  0  3  0  0  0  0  0  0
  180.9080  183.5590  137.1380 C   0  0  0  0  0  1  0  0  0  0  0  0
  180.8060  181.2890  136.3050 C   0  0  0  0  0  3  0  0  0  0  0  0
  180.9030  182.0920  137.3750 C   0  0  0  0  0  0  0  0  0  0  0  0
  180.7080  179.8550  136.3420 N   0  0  0  0  0  0  0  0  0  0  0  0
  185.2610  179.1060  143.2410 C   0  0  0  0  0  2  0  0  0  0  0  0
  185.4500  178.0180  144.2840 C   0  0  0  0  0  2  0  0  0  0  0  0
  187.6460  177.3280  145.5390 C   0  0  0  0  0  0  0  0  0  0  0  0
  189.0170  176.8960  145.1580 C   0  0  0  0  0  2  0  0  0  0  0  0
  188.9410  176.9460  143.7020 N   0  0  0  0  0  0  0  0  0  0  0  0
  187.2030  177.4680  146.7470 N   0  0  0  0  0  0  0  0  0  0  0  0
  187.6430  177.3630  143.2820 C   0  0  0  0  0  3  0  0  0  0  0  0
  186.8780  177.5940  144.3350 C   0  0  0  0  0  0  0  0  0  0  0  0
  188.7080  178.2540  148.4680 C   0  0  0  0  0  1  0  0  0  0  0  0
  188.0040  177.2020  147.8340 O   0  0  0  0  0  0  0  0  0  0  0  0
  190.0140  176.6120  142.7760 C   0  0  0  0  0  2  0  0  0  0  0  0
  190.3160  175.2500  142.8430 O   0  0  0  0  0  1  0  0  0  0  0  0
  2 22  1  0  0  0  0
  2  1  1  0  0  0  0
  4  3  2  0  0  0  0
  4  9  1  0  0  0  0
  5 10  1  0  0  0  0
  5  9  1  0  0  0  0
  6  5  2  0  0  0  0
  7  8  1  0  0  0  0
  7 10  2  0  0  0  0
  9  2  2  0  0  0  0
 11 13  2  0  0  0  0
 11  6  1  0  0  0  0
 12  6  1  1  0  0  0
 12  4  1  0  0  0  0
 13  7  1  0  0  0  0
 15 14  2  0  0  0  0
 16 17  1  6  0  0  0
 16 12  1  0  0  0  0
 16 14  1  0  0  0  0
 18 20  1  0  0  0  0
 19 21  1  0  0  0  0
 19 20  2  0  0  0  0
 20 15  1  0  0  0  0
 21 17  2  0  0  0  0
 22 23  1  0  0  0  0
 23 29  1  0  0  0  0
 24 27  2  0  0  0  0
 25 24  1  0  0  0  0
 26 25  1  0  0  0  0
 27 31  1  0  0  0  0
 28 26  1  0  0  0  0
 28 29  2  0  0  0  0
 29 24  1  0  0  0  0
 31 30  1  0  0  0  0
 32 33  1  0  0  0  0
 32 26  1  0  0  0  0
M  END
>  <MODEL>
4

>  <REMARK>
 VINA RESULT:      -8.1      3.280      5.690
  Name = 
  6 active torsions:
  status: ('A' for Active; 'I' for Inactive)
    1  A    between atoms: C_2  and  C_22
    2  A    between atoms: C_10  and  N_18
    3  A    between atoms: C_11  and  C_32
    4  A    between atoms: N_19  and  O_25
    5  A    between atoms: C_22  and  C_28
    6  A    between atoms: C_28  and  C_30
                            x       y       z     vdW  Elec       q    Type
                         _______ _______ _______ _____ _____    ______ ____

>  <TORSDO>
F 6

$$$$
=
 OpenBabel11042411103D

 33 36  0  0  1  0  0  0  0  0999 V2000
  190.6990  176.6400  142.4180 C   0  0  0  0  0  1  0  0  0  0  0  0
  189.6210  177.1280  141.5100 C   0  0  0  0  0  0  0  0  0  0  0  0
  192.5520  177.3260  140.0090 S   0  0  0  0  0  0  0  0  0  0  0  0
  191.0550  177.0280  139.4100 C   0  0  0  0  0  0  0  0  0  0  0  0
  188.8050  177.5960  139.1840 C   0  0  0  0  0  0  0  0  0  0  0  0
  189.3430  177.5570  137.9170 C   0  0  0  0  0  0  0  0  0  0  0  0
  186.7020  178.2530  138.3410 C   0  0  0  0  0  0  0  0  0  0  0  0
  185.2790  178.6060  138.5740 C   0  0  0  0  0  1  0  0  0  0  0  0
  189.8100  177.2530  140.1800 C   0  0  0  0  0  0  0  0  0  0  0  0
  187.5050  177.9320  139.3960 N   0  0  0  0  0  0  0  0  0  0  0  0
  188.5580  177.9020  136.8150 C   0  0  0  0  0  3  0  0  0  0  0  0
  190.7870  177.1470  137.9230 C   0  0  2  0  0  3  0  0  0  0  0  0
  187.2180  178.2520  137.0330 C   0  0  0  0  0  3  0  0  0  0  0  0
  189.8220  174.8790  137.4530 C   0  0  0  0  0  3  0  0  0  0  0  0
  189.7080  173.6930  136.8570 C   0  0  0  0  0  3  0  0  0  0  0  0
  190.9820  175.7920  137.2160 C   0  0  2  0  0  3  0  0  0  0  0  0
  192.2410  175.1270  137.6760 C   0  0  0  0  0  3  0  0  0  0  0  0
  190.2550  172.1580  134.9210 C   0  0  0  0  0  1  0  0  0  0  0  0
  192.0500  173.2260  136.1450 C   0  0  0  0  0  3  0  0  0  0  0  0
  190.7260  173.0960  135.9730 C   0  0  0  0  0  0  0  0  0  0  0  0
  192.6870  174.0210  137.1580 N   0  0  0  0  0  0  0  0  0  0  0  0
  188.3060  177.4560  142.1390 C   0  0  0  0  0  2  0  0  0  0  0  0
  187.9710  176.4200  143.1980 C   0  0  0  0  0  2  0  0  0  0  0  0
  186.6330  177.7650  145.0080 C   0  0  0  0  0  0  0  0  0  0  0  0
  186.8750  178.2430  146.3960 C   0  0  0  0  0  2  0  0  0  0  0  0
  188.2370  177.7750  146.6290 N   0  0  0  0  0  0  0  0  0  0  0  0
  185.5530  177.9480  144.3200 N   0  0  0  0  0  0  0  0  0  0  0  0
  188.7330  177.0870  145.4830 C   0  0  0  0  0  3  0  0  0  0  0  0
  187.8190  177.0750  144.5290 C   0  0  0  0  0  0  0  0  0  0  0  0
  183.7530  179.5400  144.0490 C   0  0  0  0  0  1  0  0  0  0  0  0
  184.4780  178.6240  144.8500 O   0  0  0  0  0  0  0  0  0  0  0  0
  189.0070  177.9570  147.8520 C   0  0  0  0  0  2  0  0  0  0  0  0
  188.1640  177.9890  148.9650 O   0  0  0  0  0  1  0  0  0  0  0  0
  2 22  1  0  0  0  0
  2  1  1  0  0  0  0
  4  3  2  0  0  0  0
  4  9  1  0  0  0  0
  5 10  1  0  0  0  0
  5  9  1  0  0  0  0
  6  5  2  0  0  0  0
  7  8  1  0  0  0  0
  7 10  2  0  0  0  0
  9  2  2  0  0  0  0
 11 13  2  0  0  0  0
 11  6  1  0  0  0  0
 12  6  1  1  0  0  0
 12  4  1  0  0  0  0
 13  7  1  0  0  0  0
 15 14  2  0  0  0  0
 16 14  1  1  0  0  0
 16 17  1  0  0  0  0
 16 12  1  0  0  0  0
 18 20  1  0  0  0  0
 19 21  1  0  0  0  0
 20 19  2  0  0  0  0
 20 15  1  0  0  0  0
 21 17  2  0  0  0  0
 22 23  1  0  0  0  0
 23 29  1  0  0  0  0
 24 25  1  0  0  0  0
 25 26  1  0  0  0  0
 26 32  1  0  0  0  0
 27 31  1  0  0  0  0
 27 24  2  0  0  0  0
 28 26  1  0  0  0  0
 29 24  1  0  0  0  0
 29 28  2  0  0  0  0
 30 31  1  0  0  0  0
 32 33  1  0  0  0  0
M  END
>  <MODEL>
5

>  <REMARK>
 VINA RESULT:      -7.9      2.725      4.450
  Name = 
  6 active torsions:
  status: ('A' for Active; 'I' for Inactive)
    1  A    between atoms: C_2  and  C_22
    2  A    between atoms: C_10  and  N_18
    3  A    between atoms: C_11  and  C_32
    4  A    between atoms: N_19  and  O_25
    5  A    between atoms: C_22  and  C_28
    6  A    between atoms: C_28  and  C_30
                            x       y       z     vdW  Elec       q    Type
                         _______ _______ _______ _____ _____    ______ ____

>  <TORSDO>
F 6

$$$$
=
 OpenBabel11042411103D

 33 36  0  0  1  0  0  0  0  0999 V2000
  183.4460  179.0870  143.2570 C   0  0  0  0  0  1  0  0  0  0  0  0
  184.4830  178.8220  142.2170 C   0  0  0  0  0  0  0  0  0  0  0  0
  181.5230  177.8200  141.1590 S   0  0  0  0  0  0  0  0  0  0  0  0
  182.8050  178.4380  140.3430 C   0  0  0  0  0  0  0  0  0  0  0  0
  185.0750  178.4250  139.8120 C   0  0  0  0  0  0  0  0  0  0  0  0
  184.3820  178.2530  138.6350 C   0  0  0  0  0  0  0  0  0  0  0  0
  187.1450  178.2520  138.6940 C   0  0  0  0  0  0  0  0  0  0  0  0
  188.6290  178.2740  138.7300 C   0  0  0  0  0  1  0  0  0  0  0  0
  184.1560  178.5720  140.9320 C   0  0  0  0  0  0  0  0  0  0  0  0
  186.4340  178.4320  139.8440 N   0  0  0  0  0  0  0  0  0  0  0  0
  185.0760  178.0430  137.4410 C   0  0  0  0  0  3  0  0  0  0  0  0
  182.8950  178.2970  138.8370 C   0  0  2  0  0  3  0  0  0  0  0  0
  186.4770  178.0470  137.4730 C   0  0  0  0  0  3  0  0  0  0  0  0
  181.6370  180.4520  139.1070 C   0  0  0  0  0  3  0  0  0  0  0  0
  181.1290  181.6290  138.7480 C   0  0  0  0  0  3  0  0  0  0  0  0
  182.2740  179.5160  138.1290 C   0  0  2  0  0  3  0  0  0  0  0  0
  181.2580  179.0860  137.1190 C   0  0  0  0  0  3  0  0  0  0  0  0
  181.0780  183.5930  137.1530 C   0  0  0  0  0  1  0  0  0  0  0  0
  180.8060  181.3460  136.2940 C   0  0  0  0  0  3  0  0  0  0  0  0
  181.0490  182.1210  137.3600 C   0  0  0  0  0  0  0  0  0  0  0  0
  180.6630  179.9160  136.3150 N   0  0  0  0  0  0  0  0  0  0  0  0
  185.9090  178.8660  142.6600 C   0  0  0  0  0  2  0  0  0  0  0  0
  186.3320  177.4980  143.1660 C   0  0  0  0  0  2  0  0  0  0  0  0
  188.6640  177.8420  144.3140 C   0  0  0  0  0  0  0  0  0  0  0  0
  189.1740  177.9710  145.7050 C   0  0  0  0  0  2  0  0  0  0  0  0
  187.9450  177.8290  146.4780 N   0  0  0  0  0  0  0  0  0  0  0  0
  189.3800  177.8800  143.2360 N   0  0  0  0  0  0  0  0  0  0  0  0
  186.8270  177.6410  145.6110 C   0  0  0  0  0  3  0  0  0  0  0  0
  187.2260  177.6400  144.3510 C   0  0  0  0  0  0  0  0  0  0  0  0
  191.6160  176.9980  142.9800 C   0  0  0  0  0  1  0  0  0  0  0  0
  190.7430  178.0660  143.2940 O   0  0  0  0  0  0  0  0  0  0  0  0
  187.8350  177.8800  147.9290 C   0  0  0  0  0  2  0  0  0  0  0  0
  189.0580  178.2320  148.5030 O   0  0  0  0  0  1  0  0  0  0  0  0
  2 22  1  0  0  0  0
  2  1  1  0  0  0  0
  4  9  1  0  0  0  0
  4  3  2  0  0  0  0
  5 10  1  0  0  0  0
  5  9  1  0  0  0  0
  6  5  2  0  0  0  0
  7  8  1  0  0  0  0
  7 10  2  0  0  0  0
  9  2  2  0  0  0  0
 11 13  2  0  0  0  0
 11  6  1  0  0  0  0
 12  6  1  1  0  0  0
 12  4  1  0  0  0  0
 13  7  1  0  0  0  0
 15 14  2  0  0  0  0
 16 17  1  6  0  0  0
 16 12  1  0  0  0  0
 16 14  1  0  0  0  0
 18 20  1  0  0  0  0
 19 21  1  0  0  0  0
 19 20  2  0  0  0  0
 20 15  1  0  0  0  0
 21 17  2  0  0  0  0
 22 23  1  0  0  0  0
 23 29  1  0  0  0  0
 24 29  1  0  0  0  0
 24 25  1  0  0  0  0
 25 26  1  0  0  0  0
 26 32  1  0  0  0  0
 27 31  1  0  0  0  0
 27 24  2  0  0  0  0
 28 26  1  0  0  0  0
 29 28  2  0  0  0  0
 30 31  1  0  0  0  0
 32 33  1  0  0  0  0
M  END
>  <MODEL>
6

>  <REMARK>
 VINA RESULT:      -7.6      3.218      5.322
  Name = 
  6 active torsions:
  status: ('A' for Active; 'I' for Inactive)
    1  A    between atoms: C_2  and  C_22
    2  A    between atoms: C_10  and  N_18
    3  A    between atoms: C_11  and  C_32
    4  A    between atoms: N_19  and  O_25
    5  A    between atoms: C_22  and  C_28
    6  A    between atoms: C_28  and  C_30
                            x       y       z     vdW  Elec       q    Type
                         _______ _______ _______ _____ _____    ______ ____

>  <TORSDO>
F 6

$$$$
=
 OpenBabel11042411103D

 33 36  0  0  1  0  0  0  0  0999 V2000
  186.3530  178.5320  139.1420 C   0  0  0  0  0  1  0  0  0  0  0  0
  186.1150  178.6350  140.6110 C   0  0  0  0  0  0  0  0  0  0  0  0
  183.5070  179.7840  138.9510 S   0  0  0  0  0  0  0  0  0  0  0  0
  183.6080  179.0080  140.3920 C   0  0  0  0  0  0  0  0  0  0  0  0
  184.5100  178.8020  142.5320 C   0  0  0  0  0  0  0  0  0  0  0  0
  183.1480  178.9390  142.6770 C   0  0  0  0  0  0  0  0  0  0  0  0
  184.8170  178.7270  144.8690 C   0  0  0  0  0  0  0  0  0  0  0  0
  185.7180  178.5910  146.0420 C   0  0  0  0  0  1  0  0  0  0  0  0
  184.8800  178.8120  141.1230 C   0  0  0  0  0  0  0  0  0  0  0  0
  185.3340  178.6910  143.6070 N   0  0  0  0  0  0  0  0  0  0  0  0
  182.5860  179.0030  143.9540 C   0  0  0  0  0  3  0  0  0  0  0  0
  182.4390  179.0280  141.3560 C   0  0  2  0  0  3  0  0  0  0  0  0
  183.4340  178.8920  145.0640 C   0  0  0  0  0  3  0  0  0  0  0  0
  181.7760  177.1630  139.8130 C   0  0  0  0  0  3  0  0  0  0  0  0
  181.1820  176.0310  139.4420 C   0  0  0  0  0  3  0  0  0  0  0  0
  181.5200  177.8120  141.1370 C   0  0  2  0  0  3  0  0  0  0  0  0
  180.0800  178.2090  141.2250 C   0  0  0  0  0  3  0  0  0  0  0  0
  180.0500  173.8520  140.0560 C   0  0  0  0  0  1  0  0  0  0  0  0
  179.2140  175.9340  140.9660 C   0  0  0  0  0  3  0  0  0  0  0  0
  180.1520  175.3250  140.2270 C   0  0  0  0  0  0  0  0  0  0  0  0
  179.1050  177.3510  141.1780 N   0  0  0  0  0  0  0  0  0  0  0  0
  187.3110  178.5120  141.4980 C   0  0  0  0  0  2  0  0  0  0  0  0
  188.2850  177.5060  140.9100 C   0  0  0  0  0  2  0  0  0  0  0  0
  190.8270  177.2960  141.5200 C   0  0  0  0  0  0  0  0  0  0  0  0
  191.6250  177.0460  142.7500 C   0  0  0  0  0  2  0  0  0  0  0  0
  190.5740  176.8840  143.7480 N   0  0  0  0  0  0  0  0  0  0  0  0
  191.3030  177.4880  140.3310 N   0  0  0  0  0  0  0  0  0  0  0  0
  189.2870  177.0330  143.1500 C   0  0  0  0  0  3  0  0  0  0  0  0
  189.4130  177.2680  141.8550 C   0  0  0  0  0  0  0  0  0  0  0  0
  193.1970  176.7200  139.0400 C   0  0  0  0  0  1  0  0  0  0  0  0
  192.6600  177.4890  140.1010 O   0  0  0  0  0  0  0  0  0  0  0  0
  190.7740  176.6200  145.1660 C   0  0  0  0  0  2  0  0  0  0  0  0
  191.6820  177.5290  145.7130 O   0  0  0  0  0  1  0  0  0  0  0  0
  1  2  1  0  0  0  0
  2  9  2  0  0  0  0
  2 22  1  0  0  0  0
  3  4  2  0  0  0  0
  4  9  1  0  0  0  0
  5  6  2  0  0  0  0
  5 10  1  0  0  0  0
  6 11  1  0  0  0  0
  7 13  1  0  0  0  0
  7  8  1  0  0  0  0
  9  5  1  0  0  0  0
 10  7  2  0  0  0  0
 11 13  2  0  0  0  0
 12  4  1  6  0  0  0
 12  6  1  0  0  0  0
 15 14  2  0  0  0  0
 15 20  1  0  0  0  0
 16 14  1  6  0  0  0
 16 17  1  0  0  0  0
 16 12  1  0  0  0  0
 18 20  1  0  0  0  0
 19 21  1  0  0  0  0
 20 19  2  0  0  0  0
 21 17  2  0  0  0  0
 23 22  1  0  0  0  0
 23 29  1  0  0  0  0
 24 29  1  0  0  0  0
 24 25  1  0  0  0  0
 25 26  1  0  0  0  0
 26 32  1  0  0  0  0
 27 24  2  0  0  0  0
 28 26  1  0  0  0  0
 29 28  2  0  0  0  0
 30 31  1  0  0  0  0
 31 27  1  0  0  0  0
 32 33  1  0  0  0  0
M  END
>  <MODEL>
7

>  <REMARK>
 VINA RESULT:      -7.6      3.442      5.268
  Name = 
  6 active torsions:
  status: ('A' for Active; 'I' for Inactive)
    1  A    between atoms: C_2  and  C_22
    2  A    between atoms: C_10  and  N_18
    3  A    between atoms: C_11  and  C_32
    4  A    between atoms: N_19  and  O_25
    5  A    between atoms: C_22  and  C_28
    6  A    between atoms: C_28  and  C_30
                            x       y       z     vdW  Elec       q    Type
                         _______ _______ _______ _____ _____    ______ ____

>  <TORSDO>
F 6

$$$$
=
 OpenBabel11042411103D

 33 36  0  0  1  0  0  0  0  0999 V2000
  190.7180  176.7650  141.5200 C   0  0  0  0  0  1  0  0  0  0  0  0
  189.4050  177.3350  141.1000 C   0  0  0  0  0  0  0  0  0  0  0  0
  191.4050  177.0360  138.4940 S   0  0  0  0  0  0  0  0  0  0  0  0
  189.7750  176.9060  138.6190 C   0  0  0  0  0  0  0  0  0  0  0  0
  187.7130  177.7570  139.2960 C   0  0  0  0  0  0  0  0  0  0  0  0
  187.6450  177.5640  137.9350 C   0  0  0  0  0  0  0  0  0  0  0  0
  185.5260  178.6370  139.3460 C   0  0  0  0  0  0  0  0  0  0  0  0
  184.3820  179.1940  140.1140 C   0  0  0  0  0  1  0  0  0  0  0  0
  189.0130  177.3460  139.8090 C   0  0  0  0  0  0  0  0  0  0  0  0
  186.6700  178.2790  139.9950 N   0  0  0  0  0  0  0  0  0  0  0  0
  186.4980  177.9400  137.2340 C   0  0  0  0  0  3  0  0  0  0  0  0
  188.9040  176.9630  137.3810 C   0  0  2  0  0  3  0  0  0  0  0  0
  185.4220  178.4810  137.9530 C   0  0  0  0  0  3  0  0  0  0  0  0
  187.3320  175.0090  137.2880 C   0  0  0  0  0  3  0  0  0  0  0  0
  186.8380  173.8520  136.8520 C   0  0  0  0  0  3  0  0  0  0  0  0
  188.6460  175.5510  136.8200 C   0  0  2  0  0  3  0  0  0  0  0  0
  189.7410  174.6120  137.2160 C   0  0  0  0  0  3  0  0  0  0  0  0
  186.7020  172.0690  135.0610 C   0  0  0  0  0  1  0  0  0  0  0  0
  188.8600  172.7110  135.9480 C   0  0  0  0  0  3  0  0  0  0  0  0
  187.5370  172.9300  135.9380 C   0  0  0  0  0  0  0  0  0  0  0  0
  189.8130  173.3870  136.7860 N   0  0  0  0  0  0  0  0  0  0  0  0
  188.5290  177.8780  142.1810 C   0  0  0  0  0  2  0  0  0  0  0  0
  188.0420  176.7430  143.0660 C   0  0  0  0  0  2  0  0  0  0  0  0
  188.8030  177.3640  145.4980 C   0  0  0  0  0  0  0  0  0  0  0  0
  188.1660  177.9280  146.7180 C   0  0  0  0  0  2  0  0  0  0  0  0
  186.7870  178.0940  146.2720 N   0  0  0  0  0  0  0  0  0  0  0  0
  190.0450  177.0170  145.3810 N   0  0  0  0  0  0  0  0  0  0  0  0
  186.6430  177.6690  144.9180 C   0  0  0  0  0  3  0  0  0  0  0  0
  187.8020  177.2370  144.4520 C   0  0  0  0  0  0  0  0  0  0  0  0
  191.6420  176.0410  146.9110 C   0  0  0  0  0  1  0  0  0  0  0  0
  190.9250  177.1630  146.4290 O   0  0  0  0  0  0  0  0  0  0  0  0
  185.6890  178.6260  147.0670 C   0  0  0  0  0  2  0  0  0  0  0  0
  184.5450  178.7860  146.2820 O   0  0  0  0  0  1  0  0  0  0  0  0
  2  1  1  0  0  0  0
  2 22  1  0  0  0  0
  3  4  2  0  0  0  0
  4  9  1  0  0  0  0
  5  9  1  0  0  0  0
  5 10  1  0  0  0  0
  6  5  2  0  0  0  0
  7 10  2  0  0  0  0
  7  8  1  0  0  0  0
  9  2  2  0  0  0  0
 11  6  1  0  0  0  0
 11 13  2  0  0  0  0
 12  6  1  1  0  0  0
 12  4  1  0  0  0  0
 13  7  1  0  0  0  0
 15 14  2  0  0  0  0
 16 17  1  1  0  0  0
 16 14  1  0  0  0  0
 16 12  1  0  0  0  0
 18 20  1  0  0  0  0
 19 21  1  0  0  0  0
 20 19  2  0  0  0  0
 20 15  1  0  0  0  0
 21 17  2  0  0  0  0
 22 23  1  0  0  0  0
 23 29  1  0  0  0  0
 24 25  1  0  0  0  0
 26 25  1  0  0  0  0
 26 32  1  0  0  0  0
 27 24  2  0  0  0  0
 27 31  1  0  0  0  0
 28 26  1  0  0  0  0
 29 28  2  0  0  0  0
 29 24  1  0  0  0  0
 31 30  1  0  0  0  0
 33 32  1  0  0  0  0
M  END
>  <MODEL>
8

>  <REMARK>
 VINA RESULT:      -7.5      1.669      2.232
  Name = 
  6 active torsions:
  status: ('A' for Active; 'I' for Inactive)
    1  A    between atoms: C_2  and  C_22
    2  A    between atoms: C_10  and  N_18
    3  A    between atoms: C_11  and  C_32
    4  A    between atoms: N_19  and  O_25
    5  A    between atoms: C_22  and  C_28
    6  A    between atoms: C_28  and  C_30
                            x       y       z     vdW  Elec       q    Type
                         _______ _______ _______ _____ _____    ______ ____

>  <TORSDO>
F 6

$$$$
=
 OpenBabel11042411103D

 33 36  0  0  1  0  0  0  0  0999 V2000
  186.5020  178.5620  139.3180 C   0  0  0  0  0  1  0  0  0  0  0  0
  186.1740  178.6670  140.7700 C   0  0  0  0  0  0  0  0  0  0  0  0
  183.6710  179.8110  138.9500 S   0  0  0  0  0  0  0  0  0  0  0  0
  183.6840  179.0360  140.3960 C   0  0  0  0  0  0  0  0  0  0  0  0
  184.4520  178.8330  142.5870 C   0  0  0  0  0  0  0  0  0  0  0  0
  183.0840  178.9690  142.6480 C   0  0  0  0  0  0  0  0  0  0  0  0
  184.6150  178.7600  144.9390 C   0  0  0  0  0  0  0  0  0  0  0  0
  185.4420  178.6270  146.1660 C   0  0  0  0  0  1  0  0  0  0  0  0
  184.9090  178.8420  141.2040 C   0  0  0  0  0  0  0  0  0  0  0  0
  185.2090  178.7240  143.7120 N   0  0  0  0  0  0  0  0  0  0  0  0
  182.4440  179.0330  143.8880 C   0  0  0  0  0  3  0  0  0  0  0  0
  182.4580  179.0550  141.2860 C   0  0  2  0  0  3  0  0  0  0  0  0
  183.2230  178.9240  145.0480 C   0  0  0  0  0  3  0  0  0  0  0  0
  182.1100  176.9800  139.9180 C   0  0  0  0  0  3  0  0  0  0  0  0
  181.5660  175.8150  139.5740 C   0  0  0  0  0  3  0  0  0  0  0  0
  181.5560  177.8370  141.0110 C   0  0  2  0  0  3  0  0  0  0  0  0
  180.1710  178.2710  140.6490 C   0  0  0  0  0  3  0  0  0  0  0  0
  180.1810  173.7840  140.1790 C   0  0  0  0  0  1  0  0  0  0  0  0
  179.2650  176.0000  140.5100 C   0  0  0  0  0  3  0  0  0  0  0  0
  180.3250  175.2640  140.1490 C   0  0  0  0  0  0  0  0  0  0  0  0
  179.1910  177.4360  140.4700 N   0  0  0  0  0  0  0  0  0  0  0  0
  187.3130  178.5470  141.7290 C   0  0  0  0  0  2  0  0  0  0  0  0
  187.9230  177.1590  141.6300 C   0  0  0  0  0  2  0  0  0  0  0  0
  190.3890  177.4730  142.4640 C   0  0  0  0  0  0  0  0  0  0  0  0
  191.7450  177.4720  141.8510 C   0  0  0  0  0  2  0  0  0  0  0  0
  191.4260  177.2460  140.4460 N   0  0  0  0  0  0  0  0  0  0  0  0
  190.1230  177.6580  143.7170 N   0  0  0  0  0  0  0  0  0  0  0  0
  190.0160  177.1230  140.2650 C   0  0  0  0  0  3  0  0  0  0  0  0
  189.3970  177.2580  141.4250 C   0  0  0  0  0  0  0  0  0  0  0  0
  191.4970  176.8290  145.5250 C   0  0  0  0  0  1  0  0  0  0  0  0
  191.1270  177.8660  144.6350 O   0  0  0  0  0  0  0  0  0  0  0  0
  192.3860  177.1430  139.3560 C   0  0  0  0  0  2  0  0  0  0  0  0
  193.6890  177.3180  139.8290 O   0  0  0  0  0  1  0  0  0  0  0  0
  1  2  1  0  0  0  0
  2  9  2  0  0  0  0
  2 22  1  0  0  0  0
  3  4  2  0  0  0  0
  4  9  1  0  0  0  0
  5  6  2  0  0  0  0
  5 10  1  0  0  0  0
  6 11  1  0  0  0  0
  7 13  1  0  0  0  0
  7  8  1  0  0  0  0
  9  5  1  0  0  0  0
 10  7  2  0  0  0  0
 11 13  2  0  0  0  0
 12  4  1  6  0  0  0
 12  6  1  0  0  0  0
 15 14  2  0  0  0  0
 15 20  1  0  0  0  0
 16 14  1  6  0  0  0
 16 12  1  0  0  0  0
 17 16  1  0  0  0  0
 20 18  1  0  0  0  0
 20 19  2  0  0  0  0
 21 19  1  0  0  0  0
 21 17  2  0  0  0  0
 23 22  1  0  0  0  0
 24 27  2  0  0  0  0
 25 24  1  0  0  0  0
 26 25  1  0  0  0  0
 27 31  1  0  0  0  0
 28 26  1  0  0  0  0
 28 29  2  0  0  0  0
 29 23  1  0  0  0  0
 29 24  1  0  0  0  0
 31 30  1  0  0  0  0
 32 33  1  0  0  0  0
 32 26  1  0  0  0  0
M  END
>  <MODEL>
9

>  <REMARK>
 VINA RESULT:      -7.5      3.450      5.364
  Name = 
  6 active torsions:
  status: ('A' for Active; 'I' for Inactive)
    1  A    between atoms: C_2  and  C_22
    2  A    between atoms: C_10  and  N_18
    3  A    between atoms: C_11  and  C_32
    4  A    between atoms: N_19  and  O_25
    5  A    between atoms: C_22  and  C_28
    6  A    between atoms: C_28  and  C_30
                            x       y       z     vdW  Elec       q    Type
                         _______ _______ _______ _____ _____    ______ ____

>  <TORSDO>
F 6

$$$$
