=
 OpenBabel11042410183D

 48 54  0  0  1  0  0  0  0  0999 V2000
  187.7630  178.0880  136.4840 C   0  0  0  0  0  0  0  0  0  0  0  0
  188.1740  178.2520  135.3070 O   0  0  0  0  0  0  0  0  0  0  0  0
  185.8730  177.9790  138.1060 C   0  0  0  0  0  0  0  0  0  0  0  0
  186.3880  177.5410  136.7470 C   0  0  2  0  0  3  0  0  0  0  0  0
  188.1470  178.4120  138.8250 N   0  0  0  0  0  0  0  0  0  0  0  0
  185.2300  173.9690  136.0650 C   0  0  0  0  0  3  0  0  0  0  0  0
  183.4560  177.9860  137.3050 C   0  0  0  0  0  2  0  0  0  0  0  0
  182.9040  175.9700  135.9130 C   0  0  0  0  0  2  0  0  0  0  0  0
  186.7400  178.2680  139.0980 C   0  0  1  0  0  3  0  0  0  0  0  0
  188.6420  178.3620  137.6240 C   0  0  0  0  0  3  0  0  0  0  0  0
  184.4630  178.0380  138.3600 N   0  0  0  0  0  0  0  0  0  0  0  0
  181.1590  177.0370  137.4340 C   0  0  2  0  0  3  0  0  0  0  0  0
  180.8980  176.0870  139.5840 C   0  0  0  0  0  2  0  0  0  0  0  0
  187.3390  173.8700  137.2390 C   0  0  0  0  0  3  0  0  0  0  0  0
  182.6600  176.6620  137.2630 C   0  0  2  0  0  0  0  0  0  0  0  0
  186.2570  173.2210  136.6480 C   0  0  0  0  0  3  0  0  0  0  0  0
  180.4320  176.0320  138.2020 N   0  0  0  0  0  2  0  0  0  0  0  0
  186.3770  176.0310  136.6520 C   0  0  0  0  0  0  0  0  0  0  0  0
  183.0880  175.6650  138.3700 C   0  0  0  0  0  2  0  0  0  0  0  0
  184.2560  176.1140  135.4870 O   0  0  0  0  0  0  0  0  0  0  0  0
  185.2880  175.3690  136.0610 C   0  0  0  0  0  0  0  0  0  0  0  0
  182.4140  175.9620  139.7090 C   0  0  0  0  0  2  0  0  0  0  0  0
  187.3930  175.2650  137.2500 C   0  0  0  0  0  3  0  0  0  0  0  0
  180.4090  177.3660  136.1440 C   0  0  1  0  0  3  0  0  0  0  0  0
  179.0970  177.7830  136.4600 O   0  0  0  0  0  0  0  0  0  0  0  0
  179.9690  178.7890  135.9980 C   0  0  1  0  0  3  0  0  0  0  0  0
  180.3670  179.6360  137.1120 N   0  0  0  0  0  2  0  0  0  0  0  0
  181.6360  182.0740  138.3650 C   0  0  0  0  0  1  0  0  0  0  0  0
  179.4760  184.0770  137.9350 C   0  0  0  0  0  1  0  0  0  0  0  0
  179.5930  183.9430  134.7390 C   0  0  0  0  0  1  0  0  0  0  0  0
  179.2520  182.9900  135.8740 C   0  0  2  0  0  3  0  0  0  0  0  0
  180.1720  183.2080  136.9910 N   0  0  0  0  0  0  0  0  0  0  0  0
  179.3790  181.2900  135.2790 S   0  0  0  0  0  0  0  0  0  0  0  0
  180.3740  181.9720  137.6330 N   0  0  0  0  0  0  0  0  0  0  0  0
  180.5790  180.9790  136.5840 C   0  0  1  0  0  3  0  0  0  0  0  0
  186.2530  178.5210  140.4870 C   0  0  0  0  0  2  0  0  0  0  0  0
  187.3940  178.5050  141.4670 C   0  0  0  0  0  2  0  0  0  0  0  0
  187.1850  177.5020  142.4180 O   0  0  0  0  0  0  0  0  0  0  0  0
  187.7200  178.0100  143.6070 C   0  0  1  0  0  3  0  0  0  0  0  0
  186.7090  177.9290  144.6670 C   0  0  0  0  0  0  0  0  0  0  0  0
  185.8800  177.8610  145.5370 C   0  0  0  0  0  3  0  0  0  0  0  0
  188.9790  177.2830  144.0280 C   0  0  0  0  0  0  0  0  0  0  0  0
  189.2150  176.1920  143.5290 O   0  0  0  0  0  0  0  0  0  0  0  0
  189.6410  177.3600  146.4360 C   0  0  0  0  0  2  0  0  0  0  0  0
  191.3330  177.2790  144.8390 C   0  0  0  0  0  2  0  0  0  0  0  0
  189.9530  177.8110  145.0470 C   0  0  1  0  0  3  0  0  0  0  0  0
  191.8710  177.0240  146.1080 O   0  0  0  0  0  0  0  0  0  0  0  0
  190.8250  176.6500  146.8950 N   0  0  0  0  0  2  0  0  0  0  0  0
  1 10  1  0  0  0  0
  2  1  2  0  0  0  0
  3 11  2  0  0  0  0
  3  9  1  0  0  0  0
  4  1  1  1  0  0  0
  4  3  1  0  0  0  0
  5  9  1  0  0  0  0
  6 16  1  0  0  0  0
  7 11  1  0  0  0  0
  9 36  1  6  0  0  0
 10  5  2  0  0  0  0
 12 17  1  6  0  0  0
 13 22  1  0  0  0  0
 14 23  1  0  0  0  0
 15  8  1  6  0  0  0
 15  7  1  0  0  0  0
 15 12  1  0  0  0  0
 15 19  1  0  0  0  0
 16 14  2  0  0  0  0
 17 13  1  0  0  0  0
 18  4  1  0  0  0  0
 18 23  2  0  0  0  0
 19 22  1  0  0  0  0
 20  8  1  0  0  0  0
 20 21  1  0  0  0  0
 21  6  2  0  0  0  0
 21 18  1  0  0  0  0
 24 25  1  1  0  0  0
 24 12  1  0  0  0  0
 26 24  1  0  0  0  0
 26 25  1  0  0  0  0
 26 27  1  1  0  0  0
 31 30  1  6  0  0  0
 31 32  1  0  0  0  0
 32 34  1  0  0  0  0
 32 29  1  0  0  0  0
 33 31  1  0  0  0  0
 33 35  1  0  0  0  0
 34 28  1  0  0  0  0
 35 27  1  1  0  0  0
 35 34  1  0  0  0  0
 36 37  1  0  0  0  0
 37 38  1  0  0  0  0
 38 39  1  0  0  0  0
 39 42  1  0  0  0  0
 39 40  1  1  0  0  0
 40 41  3  0  0  0  0
 43 42  2  0  0  0  0
 44 48  1  0  0  0  0
 45 46  1  0  0  0  0
 45 47  1  0  0  0  0
 46 42  1  6  0  0  0
 46 44  1  0  0  0  0
 47 48  1  0  0  0  0
M  END
>  <MODEL>
1

>  <REMARK>
 VINA RESULT:      -7.5      0.000      0.000
  Name = 
  10 active torsions:
  status: ('A' for Active; 'I' for Inactive)
    1  A    between atoms: C_3  and  C_42
    2  A    between atoms: C_5  and  C_9
    3  A    between atoms: C_5  and  C_42
    4  A    between atoms: N_6  and  C_44
    5  A    between atoms: N_6  and  C_45
    6  A    between atoms: C_21  and  C_48
    7  A    between atoms: C_22  and  C_25
    8  A    between atoms: C_31  and  O_38
    9  A    between atoms: C_31  and  C_48
   10  A    between atoms: O_38  and  C_42
                            x       y       z     vdW  Elec       q    Type
                         _______ _______ _______ _____ _____    ______ ____

>  <TORSDO>
F 10

$$$$
=
 OpenBabel11042410183D

 48 54  0  0  1  0  0  0  0  0999 V2000
  188.1410  177.4380  135.8880 C   0  0  0  0  0  0  0  0  0  0  0  0
  188.4940  177.4880  134.6830 O   0  0  0  0  0  0  0  0  0  0  0  0
  186.3480  177.6050  137.6140 C   0  0  0  0  0  0  0  0  0  0  0  0
  186.7420  177.0350  136.2630 C   0  0  2  0  0  3  0  0  0  0  0  0
  188.6910  177.8760  138.1780 N   0  0  0  0  0  0  0  0  0  0  0  0
  185.2410  173.5470  135.8940 C   0  0  0  0  0  3  0  0  0  0  0  0
  183.8980  177.7780  136.9460 C   0  0  0  0  0  2  0  0  0  0  0  0
  183.0910  175.7350  135.7300 C   0  0  0  0  0  2  0  0  0  0  0  0
  187.2950  177.8780  138.5350 C   0  0  1  0  0  3  0  0  0  0  0  0
  189.1070  177.7050  136.9580 C   0  0  0  0  0  3  0  0  0  0  0  0
  184.9670  177.8070  137.9380 N   0  0  0  0  0  0  0  0  0  0  0  0
  181.5400  177.0510  137.2640 C   0  0  2  0  0  3  0  0  0  0  0  0
  181.3260  176.2700  139.4850 C   0  0  0  0  0  2  0  0  0  0  0  0
  187.4000  173.3330  136.9570 C   0  0  0  0  0  3  0  0  0  0  0  0
  182.9890  176.5320  137.0390 C   0  0  2  0  0  0  0  0  0  0  0  0
  186.2320  172.7480  136.4720 C   0  0  0  0  0  3  0  0  0  0  0  0
  180.7750  176.1670  138.1370 N   0  0  0  0  0  2  0  0  0  0  0  0
  186.5950  175.5300  136.2740 C   0  0  0  0  0  0  0  0  0  0  0  0
  183.3950  175.5740  138.1880 C   0  0  0  0  0  2  0  0  0  0  0  0
  184.4230  175.7280  135.2220 O   0  0  0  0  0  0  0  0  0  0  0  0
  185.4190  174.9330  135.7900 C   0  0  0  0  0  0  0  0  0  0  0  0
  182.8310  176.0160  139.5380 C   0  0  0  0  0  2  0  0  0  0  0  0
  187.5750  174.7160  136.8680 C   0  0  0  0  0  3  0  0  0  0  0  0
  180.7450  177.3630  135.9970 C   0  0  1  0  0  3  0  0  0  0  0  0
  179.4090  177.6630  136.3440 O   0  0  0  0  0  0  0  0  0  0  0  0
  180.1920  178.7500  135.9060 C   0  0  1  0  0  3  0  0  0  0  0  0
  180.5390  179.5880  137.0430 N   0  0  0  0  0  2  0  0  0  0  0  0
  181.6920  182.0500  138.3600 C   0  0  0  0  0  1  0  0  0  0  0  0
  179.4440  183.9620  137.9720 C   0  0  0  0  0  1  0  0  0  0  0  0
  179.5750  183.9120  134.7740 C   0  0  0  0  0  1  0  0  0  0  0  0
  179.2750  182.9170  135.8840 C   0  0  2  0  0  3  0  0  0  0  0  0
  180.1820  183.1500  137.0100 N   0  0  0  0  0  0  0  0  0  0  0  0
  179.4820  181.2400  135.2480 S   0  0  0  0  0  0  0  0  0  0  0  0
  180.4390  181.9080  137.6220 N   0  0  0  0  0  0  0  0  0  0  0  0
  180.6900  180.9520  136.5490 C   0  0  1  0  0  3  0  0  0  0  0  0
  186.9160  178.2630  139.9280 C   0  0  0  0  0  2  0  0  0  0  0  0
  188.0100  177.9130  140.8980 C   0  0  0  0  0  2  0  0  0  0  0  0
  187.7050  178.4290  142.1600 O   0  0  0  0  0  0  0  0  0  0  0  0
  187.6820  177.3210  143.0130 C   0  0  1  0  0  3  0  0  0  0  0  0
  188.9290  176.5630  142.8570 C   0  0  0  0  0  0  0  0  0  0  0  0
  189.9520  175.9420  142.7290 C   0  0  0  0  0  3  0  0  0  0  0  0
  187.4870  177.7140  144.4620 C   0  0  0  0  0  0  0  0  0  0  0  0
  188.4570  178.1040  145.0940 O   0  0  0  0  0  0  0  0  0  0  0  0
  186.2800  177.9630  146.6360 C   0  0  0  0  0  2  0  0  0  0  0  0
  185.1900  178.6450  144.6950 C   0  0  0  0  0  2  0  0  0  0  0  0
  186.1690  177.6290  145.1840 C   0  0  1  0  0  3  0  0  0  0  0  0
  184.4970  179.1220  145.8170 O   0  0  0  0  0  0  0  0  0  0  0  0
  185.3800  179.0860  146.8520 N   0  0  0  0  0  2  0  0  0  0  0  0
  1 10  1  0  0  0  0
  2  1  2  0  0  0  0
  3 11  2  0  0  0  0
  3  9  1  0  0  0  0
  4  1  1  1  0  0  0
  4 18  1  0  0  0  0
  4  3  1  0  0  0  0
  5  9  1  0  0  0  0
  6 16  1  0  0  0  0
  7 15  1  0  0  0  0
  7 11  1  0  0  0  0
  9 36  1  6  0  0  0
 10  5  2  0  0  0  0
 12 17  1  6  0  0  0
 13 22  1  0  0  0  0
 15  8  1  6  0  0  0
 15 12  1  0  0  0  0
 15 19  1  0  0  0  0
 16 14  2  0  0  0  0
 17 13  1  0  0  0  0
 18 23  2  0  0  0  0
 19 22  1  0  0  0  0
 20  8  1  0  0  0  0
 20 21  1  0  0  0  0
 21  6  2  0  0  0  0
 21 18  1  0  0  0  0
 23 14  1  0  0  0  0
 24 25  1  1  0  0  0
 24 12  1  0  0  0  0
 26 24  1  0  0  0  0
 26 25  1  0  0  0  0
 26 27  1  1  0  0  0
 31 30  1  6  0  0  0
 31 32  1  0  0  0  0
 32 34  1  0  0  0  0
 32 29  1  0  0  0  0
 33 31  1  0  0  0  0
 33 35  1  0  0  0  0
 34 28  1  0  0  0  0
 35 27  1  1  0  0  0
 35 34  1  0  0  0  0
 36 37  1  0  0  0  0
 37 38  1  0  0  0  0
 38 39  1  0  0  0  0
 39 40  1  1  0  0  0
 39 42  1  0  0  0  0
 41 40  3  0  0  0  0
 42 43  2  0  0  0  0
 44 48  1  0  0  0  0
 45 46  1  0  0  0  0
 45 47  1  0  0  0  0
 46 42  1  6  0  0  0
 46 44  1  0  0  0  0
 47 48  1  0  0  0  0
M  END
>  <MODEL>
2

>  <REMARK>
 VINA RESULT:      -7.4      1.420      2.152
  Name = 
  10 active torsions:
  status: ('A' for Active; 'I' for Inactive)
    1  A    between atoms: C_3  and  C_42
    2  A    between atoms: C_5  and  C_9
    3  A    between atoms: C_5  and  C_42
    4  A    between atoms: N_6  and  C_44
    5  A    between atoms: N_6  and  C_45
    6  A    between atoms: C_21  and  C_48
    7  A    between atoms: C_22  and  C_25
    8  A    between atoms: C_31  and  O_38
    9  A    between atoms: C_31  and  C_48
   10  A    between atoms: O_38  and  C_42
                            x       y       z     vdW  Elec       q    Type
                         _______ _______ _______ _____ _____    ______ ____

>  <TORSDO>
F 10

$$$$
=
 OpenBabel11042410183D

 48 54  0  0  1  0  0  0  0  0999 V2000
  180.4150  178.2310  142.5330 C   0  0  0  0  0  0  0  0  0  0  0  0
  179.2550  177.8380  142.8180 O   0  0  0  0  0  0  0  0  0  0  0  0
  182.5230  177.9500  141.2310 C   0  0  0  0  0  0  0  0  0  0  0  0
  181.0060  177.9630  141.1780 C   0  0  2  0  0  3  0  0  0  0  0  0
  182.4570  179.2270  143.2910 N   0  0  0  0  0  0  0  0  0  0  0  0
  179.8860  179.5470  137.8910 C   0  0  0  0  0  3  0  0  0  0  0  0
  182.6820  176.2470  139.3460 C   0  0  0  0  0  2  0  0  0  0  0  0
  181.1120  176.7640  137.4550 C   0  0  0  0  0  2  0  0  0  0  0  0
  183.1720  178.6590  142.1770 C   0  0  1  0  0  3  0  0  0  0  0  0
  181.1890  179.0210  143.4940 C   0  0  0  0  0  3  0  0  0  0  0  0
  183.2750  177.2290  140.2470 N   0  0  0  0  0  0  0  0  0  0  0  0
  183.3810  175.6880  137.0240 C   0  0  2  0  0  3  0  0  0  0  0  0
  185.1540  177.1420  136.4420 C   0  0  0  0  0  2  0  0  0  0  0  0
  180.1480  181.3040  139.5290 C   0  0  0  0  0  3  0  0  0  0  0  0
  182.5880  176.7200  137.8770 C   0  0  2  0  0  0  0  0  0  0  0  0
  179.8420  180.9020  138.2300 C   0  0  0  0  0  3  0  0  0  0  0  0
  184.0710  176.3240  135.9060 N   0  0  0  0  0  2  0  0  0  0  0  0
  180.5330  178.9830  140.1660 C   0  0  0  0  0  0  0  0  0  0  0  0
  183.1660  178.1420  137.6640 C   0  0  0  0  0  2  0  0  0  0  0  0
  180.2780  177.2350  138.5110 O   0  0  0  0  0  0  0  0  0  0  0  0
  180.2250  178.5860  138.8540 C   0  0  0  0  0  0  0  0  0  0  0  0
  184.6850  178.1330  137.5050 C   0  0  0  0  0  2  0  0  0  0  0  0
  180.5010  180.3520  140.4870 C   0  0  0  0  0  3  0  0  0  0  0  0
  182.5840  174.4790  136.5380 C   0  0  1  0  0  3  0  0  0  0  0  0
  183.2390  173.9010  135.4280 O   0  0  0  0  0  0  0  0  0  0  0  0
  183.2890  173.1620  136.6270 C   0  0  1  0  0  3  0  0  0  0  0  0
  184.6220  173.2560  137.2000 N   0  0  0  0  0  2  0  0  0  0  0  0
  185.0170  170.9670  135.2700 C   0  0  0  0  0  1  0  0  0  0  0  0
  187.9240  170.4490  135.6460 C   0  0  0  0  0  1  0  0  0  0  0  0
  188.8640  173.3240  134.5970 C   0  0  0  0  0  1  0  0  0  0  0  0
  188.0460  172.7850  135.7600 C   0  0  2  0  0  3  0  0  0  0  0  0
  187.2100  171.6750  135.3000 N   0  0  0  0  0  0  0  0  0  0  0  0
  187.0180  174.1100  136.4270 S   0  0  0  0  0  0  0  0  0  0  0  0
  186.0190  171.6910  136.0490 N   0  0  0  0  0  0  0  0  0  0  0  0
  185.5770  173.0800  136.1130 C   0  0  1  0  0  3  0  0  0  0  0  0
  184.6580  178.8070  142.1340 C   0  0  0  0  0  2  0  0  0  0  0  0
  185.2370  178.8260  143.5220 C   0  0  0  0  0  2  0  0  0  0  0  0
  185.8610  177.6050  143.7900 O   0  0  0  0  0  0  0  0  0  0  0  0
  187.1940  177.9290  144.0640 C   0  0  1  0  0  3  0  0  0  0  0  0
  187.4940  177.6090  145.4640 C   0  0  0  0  0  0  0  0  0  0  0  0
  187.7390  177.3460  146.6120 C   0  0  0  0  0  3  0  0  0  0  0  0
  188.1610  177.2130  143.1440 C   0  0  0  0  0  0  0  0  0  0  0  0
  188.2600  175.9990  143.2370 O   0  0  0  0  0  0  0  0  0  0  0  0
  189.9940  176.9880  141.4610 C   0  0  0  0  0  2  0  0  0  0  0  0
  188.2450  178.4480  140.9840 C   0  0  0  0  0  2  0  0  0  0  0  0
  189.0320  177.9110  142.1340 C   0  0  1  0  0  3  0  0  0  0  0  0
  189.0080  178.2330  139.8270 O   0  0  0  0  0  0  0  0  0  0  0  0
  189.7010  177.0810  140.0390 N   0  0  0  0  0  2  0  0  0  0  0  0
  1  2  2  0  0  0  0
  1 10  1  0  0  0  0
  3  9  1  0  0  0  0
  4 18  1  6  0  0  0
  4  3  1  0  0  0  0
  4  1  1  0  0  0  0
  5 10  2  0  0  0  0
  6 16  2  0  0  0  0
  6 21  1  0  0  0  0
  7 11  1  0  0  0  0
  8 20  1  0  0  0  0
  9 36  1  1  0  0  0
  9  5  1  0  0  0  0
 11  3  2  0  0  0  0
 12 17  1  6  0  0  0
 12 15  1  0  0  0  0
 13 22  1  0  0  0  0
 14 23  2  0  0  0  0
 15  8  1  6  0  0  0
 15  7  1  0  0  0  0
 16 14  1  0  0  0  0
 17 13  1  0  0  0  0
 18 23  1  0  0  0  0
 19 15  1  0  0  0  0
 20 21  1  0  0  0  0
 21 18  2  0  0  0  0
 22 19  1  0  0  0  0
 24 25  1  6  0  0  0
 24 26  1  0  0  0  0
 24 12  1  0  0  0  0
 25 26  1  0  0  0  0
 26 27  1  1  0  0  0
 28 34  1  0  0  0  0
 31 30  1  6  0  0  0
 31 33  1  0  0  0  0
 32 29  1  0  0  0  0
 32 31  1  0  0  0  0
 32 34  1  0  0  0  0
 34 35  1  0  0  0  0
 35 33  1  0  0  0  0
 35 27  1  1  0  0  0
 36 37  1  0  0  0  0
 37 38  1  0  0  0  0
 38 39  1  0  0  0  0
 39 40  1  1  0  0  0
 40 41  3  0  0  0  0
 42 43  2  0  0  0  0
 42 39  1  0  0  0  0
 44 46  1  0  0  0  0
 45 46  1  0  0  0  0
 46 42  1  1  0  0  0
 47 48  1  0  0  0  0
 47 45  1  0  0  0  0
 48 44  1  0  0  0  0
M  END
>  <MODEL>
3

>  <REMARK>
 VINA RESULT:      -6.9      3.326      7.486
  Name = 
  10 active torsions:
  status: ('A' for Active; 'I' for Inactive)
    1  A    between atoms: C_3  and  C_42
    2  A    between atoms: C_5  and  C_9
    3  A    between atoms: C_5  and  C_42
    4  A    between atoms: N_6  and  C_44
    5  A    between atoms: N_6  and  C_45
    6  A    between atoms: C_21  and  C_48
    7  A    between atoms: C_22  and  C_25
    8  A    between atoms: C_31  and  O_38
    9  A    between atoms: C_31  and  C_48
   10  A    between atoms: O_38  and  C_42
                            x       y       z     vdW  Elec       q    Type
                         _______ _______ _______ _____ _____    ______ ____

>  <TORSDO>
F 10

$$$$
=
 OpenBabel11042410183D

 48 54  0  0  1  0  0  0  0  0999 V2000
  180.1630  178.3360  142.3470 C   0  0  0  0  0  0  0  0  0  0  0  0
  178.9770  177.9430  142.4890 O   0  0  0  0  0  0  0  0  0  0  0  0
  182.4110  178.0550  141.3050 C   0  0  0  0  0  0  0  0  0  0  0  0
  180.9120  178.0690  141.0710 C   0  0  2  0  0  3  0  0  0  0  0  0
  182.1000  179.3290  143.3440 N   0  0  0  0  0  0  0  0  0  0  0  0
  180.1930  179.6590  137.6770 C   0  0  0  0  0  3  0  0  0  0  0  0
  182.7930  176.3550  139.4490 C   0  0  0  0  0  2  0  0  0  0  0  0
  181.4610  176.8770  137.3850 C   0  0  0  0  0  2  0  0  0  0  0  0
  182.9430  178.7620  142.3230 C   0  0  1  0  0  3  0  0  0  0  0  0
  180.8170  179.1240  143.3950 C   0  0  0  0  0  3  0  0  0  0  0  0
  183.2750  177.3350  140.4170 N   0  0  0  0  0  0  0  0  0  0  0  0
  183.7650  175.8000  137.2270 C   0  0  2  0  0  3  0  0  0  0  0  0
  185.5950  177.2520  136.8640 C   0  0  0  0  0  2  0  0  0  0  0  0
  180.2590  181.4140  139.3370 C   0  0  0  0  0  3  0  0  0  0  0  0
  182.8760  176.8310  137.9810 C   0  0  2  0  0  0  0  0  0  0  0  0
  180.1100  181.0140  138.0100 C   0  0  0  0  0  3  0  0  0  0  0  0
  184.5830  176.4360  136.2000 N   0  0  0  0  0  2  0  0  0  0  0  0
  180.5630  179.0920  140.0120 C   0  0  0  0  0  0  0  0  0  0  0  0
  183.4760  178.2530  137.8410 C   0  0  0  0  0  2  0  0  0  0  0  0
  180.5070  177.3460  138.3350 O   0  0  0  0  0  0  0  0  0  0  0  0
  180.4140  178.6970  138.6720 C   0  0  0  0  0  0  0  0  0  0  0  0
  185.0040  178.2430  137.8640 C   0  0  0  0  0  2  0  0  0  0  0  0
  180.4940  180.4600  140.3290 C   0  0  0  0  0  3  0  0  0  0  0  0
  183.0300  174.5920  136.6480 C   0  0  1  0  0  3  0  0  0  0  0  0
  183.6950  174.1560  135.4800 O   0  0  0  0  0  0  0  0  0  0  0  0
  183.8140  173.3180  136.6070 C   0  0  1  0  0  3  0  0  0  0  0  0
  185.1510  173.4420  137.1650 N   0  0  0  0  0  2  0  0  0  0  0  0
  185.3940  171.1160  135.2530 C   0  0  0  0  0  1  0  0  0  0  0  0
  188.2540  170.3940  135.6550 C   0  0  0  0  0  1  0  0  0  0  0  0
  189.4050  173.1860  134.5940 C   0  0  0  0  0  1  0  0  0  0  0  0
  188.5430  172.7150  135.7540 C   0  0  2  0  0  3  0  0  0  0  0  0
  187.6320  171.6650  135.2940 N   0  0  0  0  0  0  0  0  0  0  0  0
  187.6080  174.1160  136.4040 S   0  0  0  0  0  0  0  0  0  0  0  0
  186.4400  171.7710  136.0350 N   0  0  0  0  0  0  0  0  0  0  0  0
  186.0990  173.1890  136.0860 C   0  0  1  0  0  3  0  0  0  0  0  0
  184.4240  178.9090  142.4580 C   0  0  0  0  0  2  0  0  0  0  0  0
  184.9750  177.9100  143.4380 C   0  0  0  0  0  2  0  0  0  0  0  0
  186.0460  178.4760  144.1360 O   0  0  0  0  0  0  0  0  0  0  0  0
  187.0680  177.5240  144.0700 C   0  0  1  0  0  3  0  0  0  0  0  0
  187.6890  177.5690  142.7420 C   0  0  0  0  0  0  0  0  0  0  0  0
  188.2000  177.6050  141.6530 C   0  0  0  0  0  3  0  0  0  0  0  0
  188.1150  177.7290  145.1450 C   0  0  0  0  0  0  0  0  0  0  0  0
  189.1590  178.2870  144.8400 O   0  0  0  0  0  0  0  0  0  0  0  0
  189.2690  177.0650  147.2600 C   0  0  0  0  0  2  0  0  0  0  0  0
  187.2950  178.2880  147.4280 C   0  0  0  0  0  2  0  0  0  0  0  0
  187.9600  177.2640  146.5680 C   0  0  1  0  0  3  0  0  0  0  0  0
  187.9410  178.2620  148.6730 O   0  0  0  0  0  0  0  0  0  0  0  0
  189.2400  177.9430  148.4190 N   0  0  0  0  0  2  0  0  0  0  0  0
  1  2  2  0  0  0  0
  1 10  1  0  0  0  0
  3  9  1  0  0  0  0
  4 18  1  6  0  0  0
  4  3  1  0  0  0  0
  4  1  1  0  0  0  0
  5 10  2  0  0  0  0
  6 16  2  0  0  0  0
  6 21  1  0  0  0  0
  7 11  1  0  0  0  0
  8 20  1  0  0  0  0
  9 36  1  1  0  0  0
  9  5  1  0  0  0  0
 11  3  2  0  0  0  0
 12 17  1  6  0  0  0
 12 15  1  0  0  0  0
 13 22  1  0  0  0  0
 14 23  2  0  0  0  0
 15  8  1  6  0  0  0
 15  7  1  0  0  0  0
 16 14  1  0  0  0  0
 17 13  1  0  0  0  0
 18 23  1  0  0  0  0
 19 22  1  0  0  0  0
 19 15  1  0  0  0  0
 20 21  1  0  0  0  0
 21 18  2  0  0  0  0
 24 25  1  6  0  0  0
 24 12  1  0  0  0  0
 25 26  1  0  0  0  0
 26 24  1  0  0  0  0
 26 27  1  1  0  0  0
 28 34  1  0  0  0  0
 31 30  1  6  0  0  0
 31 33  1  0  0  0  0
 32 29  1  0  0  0  0
 32 31  1  0  0  0  0
 32 34  1  0  0  0  0
 34 35  1  0  0  0  0
 35 33  1  0  0  0  0
 35 27  1  1  0  0  0
 36 37  1  0  0  0  0
 37 38  1  0  0  0  0
 39 40  1  6  0  0  0
 39 38  1  0  0  0  0
 39 42  1  0  0  0  0
 41 40  3  0  0  0  0
 43 42  2  0  0  0  0
 44 48  1  0  0  0  0
 45 47  1  0  0  0  0
 46 42  1  6  0  0  0
 46 44  1  0  0  0  0
 46 45  1  0  0  0  0
 48 47  1  0  0  0  0
M  END
>  <MODEL>
4

>  <REMARK>
 VINA RESULT:      -6.7      3.392      7.494
  Name = 
  10 active torsions:
  status: ('A' for Active; 'I' for Inactive)
    1  A    between atoms: C_3  and  C_42
    2  A    between atoms: C_5  and  C_9
    3  A    between atoms: C_5  and  C_42
    4  A    between atoms: N_6  and  C_44
    5  A    between atoms: N_6  and  C_45
    6  A    between atoms: C_21  and  C_48
    7  A    between atoms: C_22  and  C_25
    8  A    between atoms: C_31  and  O_38
    9  A    between atoms: C_31  and  C_48
   10  A    between atoms: O_38  and  C_42
                            x       y       z     vdW  Elec       q    Type
                         _______ _______ _______ _____ _____    ______ ____

>  <TORSDO>
F 10

$$$$
=
 OpenBabel11042410183D

 48 54  0  0  1  0  0  0  0  0999 V2000
  184.0010  178.2270  141.6220 C   0  0  0  0  0  0  0  0  0  0  0  0
  183.7640  177.8790  142.8060 O   0  0  0  0  0  0  0  0  0  0  0  0
  184.1350  177.6570  139.1980 C   0  0  0  0  0  0  0  0  0  0  0  0
  183.3140  177.5480  140.4700 C   0  0  2  0  0  3  0  0  0  0  0  0
  185.3170  179.5580  140.1280 N   0  0  0  0  0  0  0  0  0  0  0  0
  179.6100  177.8230  139.5930 C   0  0  0  0  0  3  0  0  0  0  0  0
  183.2780  175.4240  138.3270 C   0  0  0  0  0  2  0  0  0  0  0  0
  180.8050  175.1500  138.6640 C   0  0  0  0  0  2  0  0  0  0  0  0
  184.9840  178.6910  139.0280 C   0  0  1  0  0  3  0  0  0  0  0  0
  184.9000  179.3500  141.3420 C   0  0  0  0  0  3  0  0  0  0  0  0
  183.9750  176.6940  138.1490 N   0  0  0  0  0  0  0  0  0  0  0  0
  181.9750  174.1470  136.6350 C   0  0  2  0  0  3  0  0  0  0  0  0
  181.9390  175.4270  134.6460 C   0  0  0  0  0  2  0  0  0  0  0  0
  180.4660  180.0510  139.9720 C   0  0  0  0  0  3  0  0  0  0  0  0
  181.9090  175.3540  137.6150 C   0  0  2  0  0  0  0  0  0  0  0  0
  179.4100  179.2060  139.6340 C   0  0  0  0  0  3  0  0  0  0  0  0
  181.2290  174.4030  135.4070 N   0  0  0  0  0  2  0  0  0  0  0  0
  181.9330  178.1240  140.2450 C   0  0  0  0  0  0  0  0  0  0  0  0
  181.5650  176.6510  136.8390 C   0  0  0  0  0  2  0  0  0  0  0  0
  181.0630  175.8990  139.8490 O   0  0  0  0  0  0  0  0  0  0  0  0
  180.8640  177.2790  139.9010 C   0  0  0  0  0  0  0  0  0  0  0  0
  182.2170  176.6900  135.4580 C   0  0  0  0  0  2  0  0  0  0  0  0
  181.7210  179.5130  140.2650 C   0  0  0  0  0  3  0  0  0  0  0  0
  181.5800  172.7940  137.2240 C   0  0  1  0  0  3  0  0  0  0  0  0
  180.9770  172.0050  136.2200 O   0  0  0  0  0  0  0  0  0  0  0  0
  182.2650  171.6050  136.6270 C   0  0  1  0  0  3  0  0  0  0  0  0
  183.2300  171.9500  135.5940 N   0  0  0  0  0  2  0  0  0  0  0  0
  185.3560  172.9190  137.5080 C   0  0  0  0  0  1  0  0  0  0  0  0
  187.7530  172.7970  135.7470 C   0  0  0  0  0  1  0  0  0  0  0  0
  187.6240  169.6290  135.3080 C   0  0  0  0  0  1  0  0  0  0  0  0
  186.7480  170.8270  134.9770 C   0  0  2  0  0  3  0  0  0  0  0  0
  186.7700  171.7740  136.0930 N   0  0  0  0  0  0  0  0  0  0  0  0
  185.0620  170.2620  134.6660 S   0  0  0  0  0  0  0  0  0  0  0  0
  185.5130  172.4050  136.1490 N   0  0  0  0  0  0  0  0  0  0  0  0
  184.5080  171.3620  135.9780 C   0  0  1  0  0  3  0  0  0  0  0  0
  185.6590  178.9150  137.7130 C   0  0  0  0  0  2  0  0  0  0  0  0
  187.0020  178.2370  137.6780 C   0  0  0  0  0  2  0  0  0  0  0  0
  187.7610  178.6370  138.7800 O   0  0  0  0  0  0  0  0  0  0  0  0
  188.4490  177.4890  139.1850 C   0  0  1  0  0  3  0  0  0  0  0  0
  189.5330  177.2120  138.2360 C   0  0  0  0  0  0  0  0  0  0  0  0
  190.4230  176.9850  137.4590 C   0  0  0  0  0  3  0  0  0  0  0  0
  189.0020  177.6150  140.5890 C   0  0  0  0  0  0  0  0  0  0  0  0
  188.5320  178.4710  141.3240 O   0  0  0  0  0  0  0  0  0  0  0  0
  191.3540  177.5500  141.4300 C   0  0  0  0  0  2  0  0  0  0  0  0
  189.7860  176.1740  142.4620 C   0  0  0  0  0  2  0  0  0  0  0  0
  190.1190  176.7650  141.1310 C   0  0  1  0  0  3  0  0  0  0  0  0
  190.9520  176.2220  143.2380 O   0  0  0  0  0  0  0  0  0  0  0  0
  191.6240  177.3390  142.8440 N   0  0  0  0  0  2  0  0  0  0  0  0
  1  2  2  0  0  0  0
  4  3  1  6  0  0  0
  4  1  1  0  0  0  0
  5 10  2  0  0  0  0
  6 16  2  0  0  0  0
  6 21  1  0  0  0  0
  8 20  1  0  0  0  0
  9 36  1  1  0  0  0
  9  3  1  0  0  0  0
  9  5  1  0  0  0  0
 10  1  1  0  0  0  0
 11  7  1  0  0  0  0
 11  3  2  0  0  0  0
 12 17  1  6  0  0  0
 12 24  1  0  0  0  0
 12 15  1  0  0  0  0
 13 17  1  0  0  0  0
 13 22  1  0  0  0  0
 14 23  2  0  0  0  0
 15 19  1  6  0  0  0
 15  7  1  0  0  0  0
 15  8  1  0  0  0  0
 16 14  1  0  0  0  0
 18 23  1  0  0  0  0
 18  4  1  0  0  0  0
 20 21  1  0  0  0  0
 21 18  2  0  0  0  0
 22 19  1  0  0  0  0
 24 25  1  6  0  0  0
 25 26  1  0  0  0  0
 26 27  1  6  0  0  0
 26 24  1  0  0  0  0
 29 32  1  0  0  0  0
 31 30  1  1  0  0  0
 31 32  1  0  0  0  0
 32 34  1  0  0  0  0
 33 31  1  0  0  0  0
 33 35  1  0  0  0  0
 34 28  1  0  0  0  0
 35 27  1  6  0  0  0
 35 34  1  0  0  0  0
 37 36  1  0  0  0  0
 37 38  1  0  0  0  0
 38 39  1  0  0  0  0
 39 40  1  6  0  0  0
 39 42  1  0  0  0  0
 41 40  3  0  0  0  0
 42 43  2  0  0  0  0
 44 48  1  0  0  0  0
 45 47  1  0  0  0  0
 46 42  1  1  0  0  0
 46 44  1  0  0  0  0
 46 45  1  0  0  0  0
 48 47  1  0  0  0  0
M  END
>  <MODEL>
5

>  <REMARK>
 VINA RESULT:      -6.3      3.674      7.226
  Name = 
  10 active torsions:
  status: ('A' for Active; 'I' for Inactive)
    1  A    between atoms: C_3  and  C_42
    2  A    between atoms: C_5  and  C_9
    3  A    between atoms: C_5  and  C_42
    4  A    between atoms: N_6  and  C_44
    5  A    between atoms: N_6  and  C_45
    6  A    between atoms: C_21  and  C_48
    7  A    between atoms: C_22  and  C_25
    8  A    between atoms: C_31  and  O_38
    9  A    between atoms: C_31  and  C_48
   10  A    between atoms: O_38  and  C_42
                            x       y       z     vdW  Elec       q    Type
                         _______ _______ _______ _____ _____    ______ ____

>  <TORSDO>
F 10

$$$$
=
 OpenBabel11042410183D

 48 54  0  0  1  0  0  0  0  0999 V2000
  193.5960  172.4370  136.7240 C   0  0  0  0  0  0  0  0  0  0  0  0
  194.6350  172.0100  137.2870 O   0  0  0  0  0  0  0  0  0  0  0  0
  191.4760  173.7460  136.8300 C   0  0  0  0  0  0  0  0  0  0  0  0
  192.9550  173.7220  137.1690 C   0  0  2  0  0  3  0  0  0  0  0  0
  191.8380  172.0390  135.1470 N   0  0  0  0  0  0  0  0  0  0  0  0
  194.3990  177.2240  136.7030 C   0  0  0  0  0  3  0  0  0  0  0  0
  190.9260  175.1900  138.8530 C   0  0  0  0  0  2  0  0  0  0  0  0
  192.5680  177.0650  139.1640 C   0  0  0  0  0  2  0  0  0  0  0  0
  191.0080  173.0250  135.7900 C   0  0  0  0  0  0  0  0  0  0  0  0
  193.0250  171.7270  135.5760 C   0  0  0  0  0  3  0  0  0  0  0  0
  190.5750  174.5730  137.5780 N   0  0  0  0  0  2  0  0  0  0  0  0
  190.1110  177.3520  139.7770 C   0  0  2  0  0  3  0  0  0  0  0  0
  188.7160  178.3460  138.1470 C   0  0  0  0  0  2  0  0  0  0  0  0
  194.5500  176.0550  134.5940 C   0  0  0  0  0  3  0  0  0  0  0  0
  191.1210  176.7210  138.7760 C   0  0  2  0  0  0  0  0  0  0  0  0
  194.7530  177.2080  135.3510 C   0  0  0  0  0  3  0  0  0  0  0  0
  189.5820  178.6210  139.2890 N   0  0  0  0  0  2  0  0  0  0  0  0
  193.6460  174.9170  136.5500 C   0  0  0  0  0  0  0  0  0  0  0  0
  190.8840  177.2890  137.3530 C   0  0  0  0  0  2  0  0  0  0  0  0
  193.4890  176.1060  138.6530 O   0  0  0  0  0  0  0  0  0  0  0  0
  193.8510  176.0840  137.3060 C   0  0  0  0  0  0  0  0  0  0  0  0
  189.4020  177.5210  137.0610 C   0  0  0  0  0  2  0  0  0  0  0  0
  193.9910  174.9220  135.1870 C   0  0  0  0  0  3  0  0  0  0  0  0
  190.6090  177.5010  141.2140 C   0  0  1  0  0  3  0  0  0  0  0  0
  190.0470  178.6640  141.7860 O   0  0  0  0  0  0  0  0  0  0  0  0
  189.5550  177.4370  142.2730 C   0  0  1  0  0  3  0  0  0  0  0  0
  188.2180  177.2070  141.7480 N   0  0  0  0  0  2  0  0  0  0  0  0
  185.2780  177.8580  141.9800 C   0  0  0  0  0  1  0  0  0  0  0  0
  185.3260  179.7100  144.3100 C   0  0  0  0  0  1  0  0  0  0  0  0
  186.4310  177.5340  146.3820 C   0  0  0  0  0  1  0  0  0  0  0  0
  186.9350  178.2140  145.1190 C   0  0  2  0  0  3  0  0  0  0  0  0
  185.8350  178.3500  144.1620 N   0  0  0  0  0  0  0  0  0  0  0  0
  188.2680  177.2260  144.4060 S   0  0  0  0  0  0  0  0  0  0  0  0
  186.3740  178.2450  142.8660 N   0  0  0  0  0  0  0  0  0  0  0  0
  187.3100  177.1260  142.8860 C   0  0  1  0  0  3  0  0  0  0  0  0
  189.5950  173.1800  135.3280 C   0  0  0  0  0  2  0  0  0  0  0  0
  188.7600  172.0040  135.7580 C   0  0  0  0  0  2  0  0  0  0  0  0
  187.7540  172.4340  136.6270 O   0  0  0  0  0  0  0  0  0  0  0  0
  186.6790  172.7770  135.8000 C   0  0  1  0  0  3  0  0  0  0  0  0
  186.1030  171.5580  135.2220 C   0  0  0  0  0  0  0  0  0  0  0  0
  185.6300  170.5580  134.7480 C   0  0  0  0  0  3  0  0  0  0  0  0
  185.6140  173.5610  136.5380 C   0  0  0  0  0  0  0  0  0  0  0  0
  185.1370  173.0790  137.5540 O   0  0  0  0  0  0  0  0  0  0  0  0
  184.8190  175.8320  137.2120 C   0  0  0  0  0  2  0  0  0  0  0  0
  186.0850  175.6500  135.2670 C   0  0  0  0  0  2  0  0  0  0  0  0
  185.0850  174.8940  136.0810 C   0  0  1  0  0  3  0  0  0  0  0  0
  185.9820  176.9980  135.6370 O   0  0  0  0  0  0  0  0  0  0  0  0
  185.6410  177.0050  136.9550 N   0  0  0  0  0  2  0  0  0  0  0  0
  1  4  1  0  0  0  0
  1  2  2  0  0  0  0
  3  4  1  0  0  0  0
  3 11  1  0  0  0  0
  4 18  1  6  0  0  0
  5 10  2  0  0  0  0
  5  9  1  0  0  0  0
  6 21  1  0  0  0  0
  9  3  2  0  0  0  0
 10  1  1  0  0  0  0
 11  7  1  0  0  0  0
 12 17  1  6  0  0  0
 12 24  1  0  0  0  0
 13 17  1  0  0  0  0
 14 23  2  0  0  0  0
 14 16  1  0  0  0  0
 15 19  1  6  0  0  0
 15  7  1  0  0  0  0
 15  8  1  0  0  0  0
 15 12  1  0  0  0  0
 16  6  2  0  0  0  0
 18 21  2  0  0  0  0
 20  8  1  0  0  0  0
 21 20  1  0  0  0  0
 22 19  1  0  0  0  0
 22 13  1  0  0  0  0
 23 18  1  0  0  0  0
 24 25  1  6  0  0  0
 24 26  1  0  0  0  0
 25 26  1  0  0  0  0
 26 27  1  6  0  0  0
 28 34  1  0  0  0  0
 31 30  1  1  0  0  0
 32 29  1  0  0  0  0
 32 31  1  0  0  0  0
 33 31  1  0  0  0  0
 34 35  1  0  0  0  0
 34 32  1  0  0  0  0
 35 27  1  6  0  0  0
 35 33  1  0  0  0  0
 36 37  1  0  0  0  0
 36  9  1  0  0  0  0
 37 38  1  0  0  0  0
 39 40  1  1  0  0  0
 39 42  1  0  0  0  0
 39 38  1  0  0  0  0
 41 40  3  0  0  0  0
 42 43  2  0  0  0  0
 45 47  1  0  0  0  0
 45 46  1  0  0  0  0
 46 42  1  1  0  0  0
 46 44  1  0  0  0  0
 47 48  1  0  0  0  0
 48 44  1  0  0  0  0
M  END
>  <MODEL>
6

>  <REMARK>
 VINA RESULT:      -4.7      4.722      9.660
  Name = 
  10 active torsions:
  status: ('A' for Active; 'I' for Inactive)
    1  A    between atoms: C_3  and  C_42
    2  A    between atoms: C_5  and  C_9
    3  A    between atoms: C_5  and  C_42
    4  A    between atoms: N_6  and  C_44
    5  A    between atoms: N_6  and  C_45
    6  A    between atoms: C_21  and  C_48
    7  A    between atoms: C_22  and  C_25
    8  A    between atoms: C_31  and  O_38
    9  A    between atoms: C_31  and  C_48
   10  A    between atoms: O_38  and  C_42
                            x       y       z     vdW  Elec       q    Type
                         _______ _______ _______ _____ _____    ______ ____

>  <TORSDO>
F 10

$$$$
=
 OpenBabel11042410183D

 48 54  0  0  1  0  0  0  0  0999 V2000
  192.9210  172.3750  136.2480 C   0  0  0  0  0  0  0  0  0  0  0  0
  193.8810  171.7430  136.7550 O   0  0  0  0  0  0  0  0  0  0  0  0
  190.9860  173.9250  136.5130 C   0  0  0  0  0  0  0  0  0  0  0  0
  192.4400  173.6610  136.8590 C   0  0  2  0  0  3  0  0  0  0  0  0
  191.1710  172.4290  134.6150 N   0  0  0  0  0  0  0  0  0  0  0  0
  194.3350  176.9730  136.8950 C   0  0  0  0  0  3  0  0  0  0  0  0
  190.5720  175.1410  138.7110 C   0  0  0  0  0  2  0  0  0  0  0  0
  192.4320  176.7240  139.2930 C   0  0  0  0  0  2  0  0  0  0  0  0
  190.4580  173.4200  135.3800 C   0  0  0  0  0  0  0  0  0  0  0  0
  192.2960  171.9090  135.0080 C   0  0  0  0  0  3  0  0  0  0  0  0
  190.1790  174.7540  137.3600 N   0  0  0  0  0  2  0  0  0  0  0  0
  190.0170  177.2450  139.9180 C   0  0  2  0  0  3  0  0  0  0  0  0
  188.8070  178.6260  138.4270 C   0  0  0  0  0  2  0  0  0  0  0  0
  194.3920  176.0920  134.6460 C   0  0  0  0  0  3  0  0  0  0  0  0
  190.9650  176.6290  138.8480 C   0  0  2  0  0  0  0  0  0  0  0  0
  194.7200  177.0940  135.5570 C   0  0  0  0  0  3  0  0  0  0  0  0
  189.6700  178.6270  139.6050 N   0  0  0  0  0  2  0  0  0  0  0  0
  193.2960  174.8280  136.4180 C   0  0  0  0  0  0  0  0  0  0  0  0
  190.8410  177.4110  137.5160 C   0  0  0  0  0  2  0  0  0  0  0  0
  193.2360  175.7300  138.6640 O   0  0  0  0  0  0  0  0  0  0  0  0
  193.6290  175.8430  137.3300 C   0  0  0  0  0  0  0  0  0  0  0  0
  189.4100  177.8720  137.2440 C   0  0  0  0  0  2  0  0  0  0  0  0
  193.6750  174.9720  135.0720 C   0  0  0  0  0  3  0  0  0  0  0  0
  190.4910  177.1310  141.3660 C   0  0  1  0  0  3  0  0  0  0  0  0
  190.2810  178.3630  142.0250 O   0  0  0  0  0  0  0  0  0  0  0  0
  189.4320  177.3060  142.4080 C   0  0  1  0  0  3  0  0  0  0  0  0
  188.1050  177.5240  141.8540 N   0  0  0  0  0  2  0  0  0  0  0  0
  185.1400  178.0880  141.9810 C   0  0  0  0  0  1  0  0  0  0  0  0
  185.0270  179.7910  144.4210 C   0  0  0  0  0  1  0  0  0  0  0  0
  186.0900  177.5160  146.4060 C   0  0  0  0  0  1  0  0  0  0  0  0
  186.6360  178.2860  145.2140 C   0  0  2  0  0  3  0  0  0  0  0  0
  185.5800  178.4550  144.2140 N   0  0  0  0  0  0  0  0  0  0  0  0
  188.0270  177.3770  144.5080 S   0  0  0  0  0  0  0  0  0  0  0  0
  186.1820  178.4450  142.9430 N   0  0  0  0  0  0  0  0  0  0  0  0
  187.1460  177.3500  142.9400 C   0  0  1  0  0  3  0  0  0  0  0  0
  189.0900  173.8190  134.9310 C   0  0  0  0  0  2  0  0  0  0  0  0
  188.0380  172.9850  135.6100 C   0  0  0  0  0  2  0  0  0  0  0  0
  186.7690  173.4830  135.3020 O   0  0  0  0  0  0  0  0  0  0  0  0
  186.2970  174.0400  136.4950 C   0  0  1  0  0  3  0  0  0  0  0  0
  186.2900  175.5030  136.3800 C   0  0  0  0  0  0  0  0  0  0  0  0
  186.2840  176.7020  136.2850 C   0  0  0  0  0  3  0  0  0  0  0  0
  184.9150  173.5370  136.8570 C   0  0  0  0  0  0  0  0  0  0  0  0
  184.4750  173.7960  137.9670 O   0  0  0  0  0  0  0  0  0  0  0  0
  183.4730  171.5110  136.6100 C   0  0  0  0  0  2  0  0  0  0  0  0
  182.8370  173.4500  135.4890 C   0  0  0  0  0  2  0  0  0  0  0  0
  184.0550  172.7110  135.9380 C   0  0  1  0  0  3  0  0  0  0  0  0
  181.7790  172.5290  135.4740 O   0  0  0  0  0  0  0  0  0  0  0  0
  182.0300  171.6480  136.4810 N   0  0  0  0  0  2  0  0  0  0  0  0
  1  2  2  0  0  0  0
  3  4  1  0  0  0  0
  3 11  1  0  0  0  0
  4  1  1  6  0  0  0
  5 10  2  0  0  0  0
  5  9  1  0  0  0  0
  6 21  1  0  0  0  0
  7 15  1  0  0  0  0
  9  3  2  0  0  0  0
 10  1  1  0  0  0  0
 11  7  1  0  0  0  0
 12 17  1  6  0  0  0
 12 24  1  0  0  0  0
 13 17  1  0  0  0  0
 14 23  2  0  0  0  0
 14 16  1  0  0  0  0
 15 19  1  6  0  0  0
 15  8  1  0  0  0  0
 15 12  1  0  0  0  0
 16  6  2  0  0  0  0
 18  4  1  0  0  0  0
 18 21  2  0  0  0  0
 20  8  1  0  0  0  0
 21 20  1  0  0  0  0
 22 19  1  0  0  0  0
 22 13  1  0  0  0  0
 23 18  1  0  0  0  0
 24 25  1  1  0  0  0
 24 26  1  0  0  0  0
 25 26  1  0  0  0  0
 26 27  1  6  0  0  0
 28 34  1  0  0  0  0
 31 30  1  1  0  0  0
 32 29  1  0  0  0  0
 32 31  1  0  0  0  0
 33 31  1  0  0  0  0
 34 32  1  0  0  0  0
 35 27  1  6  0  0  0
 35 34  1  0  0  0  0
 35 33  1  0  0  0  0
 36  9  1  0  0  0  0
 36 37  1  0  0  0  0
 38 37  1  0  0  0  0
 38 39  1  0  0  0  0
 39 40  1  6  0  0  0
 39 42  1  0  0  0  0
 41 40  3  0  0  0  0
 42 43  2  0  0  0  0
 45 46  1  0  0  0  0
 46 44  1  0  0  0  0
 46 42  1  1  0  0  0
 47 45  1  0  0  0  0
 47 48  1  0  0  0  0
 48 44  1  0  0  0  0
M  END
>  <MODEL>
7

>  <REMARK>
 VINA RESULT:      -4.6      4.999      9.711
  Name = 
  10 active torsions:
  status: ('A' for Active; 'I' for Inactive)
    1  A    between atoms: C_3  and  C_42
    2  A    between atoms: C_5  and  C_9
    3  A    between atoms: C_5  and  C_42
    4  A    between atoms: N_6  and  C_44
    5  A    between atoms: N_6  and  C_45
    6  A    between atoms: C_21  and  C_48
    7  A    between atoms: C_22  and  C_25
    8  A    between atoms: C_31  and  O_38
    9  A    between atoms: C_31  and  C_48
   10  A    between atoms: O_38  and  C_42
                            x       y       z     vdW  Elec       q    Type
                         _______ _______ _______ _____ _____    ______ ____

>  <TORSDO>
F 10

$$$$
