=
 OpenBabel11042411203D

 25 27  0  0  1  0  0  0  0  0999 V2000
  186.4650  178.1460  143.3130 C   0  0  0  0  0  3  0  0  0  0  0  0
  184.0760  178.8820  143.7740 C   0  0  0  0  0  1  0  0  0  0  0  0
  187.2740  178.0320  145.3300 C   0  0  0  0  0  0  0  0  0  0  0  0
  188.4270  177.1810  140.9870 C   0  0  0  0  0  2  0  0  0  0  0  0
  190.2670  177.3330  147.2890 O   0  0  0  0  0  0  0  0  0  0  0  0
  188.6570  176.5630  142.2490 O   0  0  0  0  0  0  0  0  0  0  0  0
  190.2290  178.3550  145.1430 C   0  0  0  0  0  2  0  0  0  0  0  0
  190.8120  176.7830  140.3960 C   0  0  1  0  0  3  0  0  0  0  0  0
  185.4580  178.5110  144.1840 C   0  0  0  0  0  0  0  0  0  0  0  0
  191.1480  176.9520  143.2860 N   0  0  0  0  0  0  0  0  0  0  0  0
  187.5830  177.8670  144.0180 N   0  0  0  0  0  0  0  0  0  0  0  0
  189.7050  177.8250  140.4680 C   0  0  0  0  0  2  0  0  0  0  0  0
  185.9560  178.4270  145.4720 C   0  0  0  0  0  0  0  0  0  0  0  0
  188.1460  177.7310  146.4260 N   0  0  0  0  0  2  0  0  0  0  0  0
  191.9410  177.8360  142.4390 C   0  0  0  0  0  2  0  0  0  0  0  0
  191.0560  176.3850  138.9550 C   0  0  0  0  0  1  0  0  0  0  0  0
  188.7750  177.3100  143.4240 C   0  0  0  0  0  0  0  0  0  0  0  0
  190.0010  177.4840  143.9550 C   0  0  0  0  0  0  0  0  0  0  0  0
  192.1140  177.2780  141.0230 C   0  0  0  0  0  2  0  0  0  0  0  0
  189.5680  177.7710  146.3390 C   0  0  0  0  0  0  0  0  0  0  0  0
  185.7140  179.6510  147.6630 N   0  0  0  0  0  1  0  0  0  0  0  0
  184.1680  178.0640  146.9960 O   0  0  0  0  0  0  0  0  0  0  0  0
  185.2290  178.6890  146.7320 C   0  0  0  0  0  0  0  0  0  0  0  0
  191.6450  175.6920  143.6550 C   0  0  0  0  0  0  0  0  0  0  0  0
  192.0550  174.6540  143.9590 N   0  0  0  0  0  0  0  0  0  0  0  0
  1 11  1  0  0  0  0
  1  9  2  0  0  0  0
  2  9  1  0  0  0  0
  3 13  2  0  0  0  0
  3 14  1  0  0  0  0
  4  6  1  0  0  0  0
  6 17  1  0  0  0  0
  7 20  1  0  0  0  0
  8 16  1  6  0  0  0
  8 12  1  0  0  0  0
  8 19  1  0  0  0  0
  9 13  1  0  0  0  0
 10 24  1  0  0  0  0
 10 18  1  0  0  0  0
 11  3  1  0  0  0  0
 12  4  1  0  0  0  0
 13 23  1  0  0  0  0
 15 10  1  0  0  0  0
 17 18  2  0  0  0  0
 17 11  1  0  0  0  0
 18  7  1  0  0  0  0
 19 15  1  0  0  0  0
 20 14  1  0  0  0  0
 20  5  2  0  0  0  0
 23 22  2  0  0  0  0
 23 21  1  0  0  0  0
 24 25  3  0  0  0  0
M  END
>  <MODEL>
1

>  <REMARK>
 VINA RESULT:      -8.2      0.000      0.000
  Name = 
  2 active torsions:
  status: ('A' for Active; 'I' for Inactive)
    1  A    between atoms: N_12  and  C_18
    2  A    between atoms: C_15  and  C_21
                            x       y       z     vdW  Elec       q    Type
                         _______ _______ _______ _____ _____    ______ ____

>  <TORSDO>
F 2

$$$$
=
 OpenBabel11042411203D

 25 27  0  0  1  0  0  0  0  0999 V2000
  184.6820  178.4530  143.2330 C   0  0  0  0  0  3  0  0  0  0  0  0
  182.3380  178.7210  142.2850 C   0  0  0  0  0  1  0  0  0  0  0  0
  185.8870  178.5210  141.4220 C   0  0  0  0  0  0  0  0  0  0  0  0
  186.3190  178.3100  145.9690 C   0  0  0  0  0  2  0  0  0  0  0  0
  189.2790  178.3110  140.1080 O   0  0  0  0  0  0  0  0  0  0  0  0
  187.0060  178.9580  144.9030 O   0  0  0  0  0  0  0  0  0  0  0  0
  188.4460  177.1050  141.9790 C   0  0  0  0  0  2  0  0  0  0  0  0
  188.5170  177.7150  146.9760 C   0  0  1  0  0  3  0  0  0  0  0  0
  183.8180  178.6050  142.1670 C   0  0  0  0  0  0  0  0  0  0  0  0
  189.3750  177.8130  144.1930 N   0  0  0  0  0  0  0  0  0  0  0  0
  185.9500  178.3870  142.7710 N   0  0  0  0  0  0  0  0  0  0  0  0
  187.1640  177.1770  146.5360 C   0  0  0  0  0  2  0  0  0  0  0  0
  184.5740  178.6650  141.0100 C   0  0  0  0  0  0  0  0  0  0  0  0
  187.0190  178.6180  140.5490 N   0  0  0  0  0  2  0  0  0  0  0  0
  189.6240  176.5950  144.9570 C   0  0  0  0  0  2  0  0  0  0  0  0
  188.5730  177.8030  148.4870 C   0  0  0  0  0  1  0  0  0  0  0  0
  187.1070  178.3800  143.6350 C   0  0  0  0  0  0  0  0  0  0  0  0
  188.2840  177.8350  143.2690 C   0  0  0  0  0  0  0  0  0  0  0  0
  189.6750  176.8590  146.4650 C   0  0  0  0  0  2  0  0  0  0  0  0
  188.2900  178.0440  140.8380 C   0  0  0  0  0  0  0  0  0  0  0  0
  184.1320  180.1420  139.0140 N   0  0  0  0  0  1  0  0  0  0  0  0
  183.6170  177.8860  138.9780 O   0  0  0  0  0  0  0  0  0  0  0  0
  184.0830  178.8580  139.6290 C   0  0  0  0  0  0  0  0  0  0  0  0
  190.3370  178.8350  144.1580 C   0  0  0  0  0  0  0  0  0  0  0  0
  191.1290  179.6770  144.1290 N   0  0  0  0  0  0  0  0  0  0  0  0
  3 11  1  0  0  0  0
  4 12  1  0  0  0  0
  5 20  2  0  0  0  0
  6  4  1  0  0  0  0
  7 18  1  0  0  0  0
  8 16  1  1  0  0  0
  9  2  1  0  0  0  0
  9  1  2  0  0  0  0
 10 15  1  0  0  0  0
 11  1  1  0  0  0  0
 11 17  1  0  0  0  0
 12  8  1  0  0  0  0
 13  3  2  0  0  0  0
 13  9  1  0  0  0  0
 14 20  1  0  0  0  0
 14  3  1  0  0  0  0
 15 19  1  0  0  0  0
 17  6  1  0  0  0  0
 18 17  2  0  0  0  0
 18 10  1  0  0  0  0
 19  8  1  0  0  0  0
 20  7  1  0  0  0  0
 21 23  1  0  0  0  0
 22 23  2  0  0  0  0
 23 13  1  0  0  0  0
 24 10  1  0  0  0  0
 25 24  3  0  0  0  0
M  END
>  <MODEL>
2

>  <REMARK>
 VINA RESULT:      -8.1      2.718      5.394
  Name = 
  2 active torsions:
  status: ('A' for Active; 'I' for Inactive)
    1  A    between atoms: N_12  and  C_18
    2  A    between atoms: C_15  and  C_21
                            x       y       z     vdW  Elec       q    Type
                         _______ _______ _______ _____ _____    ______ ____

>  <TORSDO>
F 2

$$$$
=
 OpenBabel11042411203D

 25 27  0  0  1  0  0  0  0  0999 V2000
  187.0150  177.8510  139.3100 C   0  0  0  0  0  3  0  0  0  0  0  0
  186.0160  177.7370  136.9740 C   0  0  0  0  0  1  0  0  0  0  0  0
  189.1370  177.6330  138.8790 C   0  0  0  0  0  0  0  0  0  0  0  0
  186.2810  178.4060  142.3660 C   0  0  0  0  0  2  0  0  0  0  0  0
  192.4560  177.4150  140.3660 O   0  0  0  0  0  0  0  0  0  0  0  0
  187.5690  178.8680  141.9740 O   0  0  0  0  0  0  0  0  0  0  0  0
  190.4550  176.5640  141.3250 C   0  0  0  0  0  2  0  0  0  0  0  0
  187.1040  178.2030  144.7070 C   0  0  1  0  0  3  0  0  0  0  0  0
  187.1470  177.7120  137.9420 C   0  0  0  0  0  0  0  0  0  0  0  0
  189.6530  177.7860  143.3580 N   0  0  0  0  0  0  0  0  0  0  0  0
  188.2370  177.7880  139.8830 N   0  0  0  0  0  0  0  0  0  0  0  0
  186.3900  177.4830  143.5720 C   0  0  0  0  0  2  0  0  0  0  0  0
  188.4950  177.5880  137.6540 C   0  0  0  0  0  0  0  0  0  0  0  0
  190.5600  177.6330  139.0410 N   0  0  0  0  0  2  0  0  0  0  0  0
  189.1920  176.7760  144.3040 C   0  0  0  0  0  2  0  0  0  0  0  0
  186.1070  178.6080  145.7720 C   0  0  0  0  0  1  0  0  0  0  0  0
  188.4670  178.0490  141.2840 C   0  0  0  0  0  0  0  0  0  0  0  0
  189.5130  177.5320  141.9570 C   0  0  0  0  0  0  0  0  0  0  0  0
  188.2090  177.3510  145.3280 C   0  0  0  0  0  2  0  0  0  0  0  0
  191.2190  177.2300  140.2390 C   0  0  0  0  0  0  0  0  0  0  0  0
  189.6950  176.2160  135.9120 N   0  0  0  0  0  1  0  0  0  0  0  0
  189.1390  178.4280  135.5260 O   0  0  0  0  0  0  0  0  0  0  0  0
  189.1160  177.4510  136.3200 C   0  0  0  0  0  0  0  0  0  0  0  0
  190.4590  178.8480  143.7940 C   0  0  0  0  0  0  0  0  0  0  0  0
  191.1240  179.7250  144.1530 N   0  0  0  0  0  0  0  0  0  0  0  0
  1 11  1  0  0  0  0
  2  9  1  0  0  0  0
  3 14  1  0  0  0  0
  3 11  1  0  0  0  0
  4 12  1  0  0  0  0
  6  4  1  0  0  0  0
  7 18  1  0  0  0  0
  8 19  1  0  0  0  0
  8 16  1  1  0  0  0
  9  1  2  0  0  0  0
 10 24  1  0  0  0  0
 10 15  1  0  0  0  0
 11 17  1  0  0  0  0
 12  8  1  0  0  0  0
 13  9  1  0  0  0  0
 13  3  2  0  0  0  0
 14 20  1  0  0  0  0
 15 19  1  0  0  0  0
 17 18  2  0  0  0  0
 17  6  1  0  0  0  0
 18 10  1  0  0  0  0
 20  5  2  0  0  0  0
 20  7  1  0  0  0  0
 21 23  1  0  0  0  0
 22 23  2  0  0  0  0
 23 13  1  0  0  0  0
 24 25  3  0  0  0  0
M  END
>  <MODEL>
3

>  <REMARK>
 VINA RESULT:      -7.5      3.182      6.638
  Name = 
  2 active torsions:
  status: ('A' for Active; 'I' for Inactive)
    1  A    between atoms: N_12  and  C_18
    2  A    between atoms: C_15  and  C_21
                            x       y       z     vdW  Elec       q    Type
                         _______ _______ _______ _____ _____    ______ ____

>  <TORSDO>
F 2

$$$$
=
 OpenBabel11042411203D

 25 27  0  0  1  0  0  0  0  0999 V2000
  187.6370  177.8640  142.8540 C   0  0  0  0  0  3  0  0  0  0  0  0
  188.9680  177.4320  144.9770 C   0  0  0  0  0  1  0  0  0  0  0  0
  185.6750  178.3380  143.6690 C   0  0  0  0  0  0  0  0  0  0  0  0
  187.9200  178.1580  139.6890 C   0  0  0  0  0  2  0  0  0  0  0  0
  182.2390  179.1980  142.8130 O   0  0  0  0  0  0  0  0  0  0  0  0
  186.9410  179.0080  140.2760 O   0  0  0  0  0  0  0  0  0  0  0  0
  183.6520  177.7510  141.5650 C   0  0  0  0  0  2  0  0  0  0  0  0
  186.6500  178.2320  137.5490 C   0  0  1  0  0  3  0  0  0  0  0  0
  187.7270  177.7720  144.2290 C   0  0  0  0  0  0  0  0  0  0  0  0
  184.4010  178.6530  139.3530 N   0  0  0  0  0  0  0  0  0  0  0  0
  186.3730  178.1970  142.5130 N   0  0  0  0  0  0  0  0  0  0  0  0
  187.3010  177.3200  138.5780 C   0  0  0  0  0  2  0  0  0  0  0  0
  186.4880  178.0880  144.7600 C   0  0  0  0  0  0  0  0  0  0  0  0
  184.3210  178.7950  143.7640 N   0  0  0  0  0  2  0  0  0  0  0  0
  184.3340  177.5500  138.4010 C   0  0  0  0  0  2  0  0  0  0  0  0
  187.5050  178.2960  136.3000 C   0  0  0  0  0  1  0  0  0  0  0  0
  185.9770  178.5200  141.1630 C   0  0  0  0  0  0  0  0  0  0  0  0
  184.7150  178.3660  140.7190 C   0  0  0  0  0  0  0  0  0  0  0  0
  185.2370  177.7800  137.1860 C   0  0  0  0  0  2  0  0  0  0  0  0
  183.3560  178.6260  142.7290 C   0  0  0  0  0  0  0  0  0  0  0  0
  185.6810  179.3820  146.7680 N   0  0  0  0  0  1  0  0  0  0  0  0
  186.1830  177.1280  146.9130 O   0  0  0  0  0  0  0  0  0  0  0  0
  186.1180  178.1560  146.1890 C   0  0  0  0  0  0  0  0  0  0  0  0
  183.9040  179.9190  139.0050 C   0  0  0  0  0  0  0  0  0  0  0  0
  183.4950  180.9620  138.7190 N   0  0  0  0  0  0  0  0  0  0  0  0
  1  9  2  0  0  0  0
  3 14  1  0  0  0  0
  3 13  2  0  0  0  0
  4  6  1  0  0  0  0
  6 17  1  0  0  0  0
  7 20  1  0  0  0  0
  8 16  1  6  0  0  0
  8 12  1  0  0  0  0
  9 13  1  0  0  0  0
  9  2  1  0  0  0  0
 10 18  1  0  0  0  0
 11  1  1  0  0  0  0
 11  3  1  0  0  0  0
 12  4  1  0  0  0  0
 13 23  1  0  0  0  0
 15 10  1  0  0  0  0
 17 11  1  0  0  0  0
 18 17  2  0  0  0  0
 18  7  1  0  0  0  0
 19  8  1  0  0  0  0
 19 15  1  0  0  0  0
 20  5  2  0  0  0  0
 20 14  1  0  0  0  0
 23 21  1  0  0  0  0
 23 22  2  0  0  0  0
 24 10  1  0  0  0  0
 25 24  3  0  0  0  0
M  END
>  <MODEL>
4

>  <REMARK>
 VINA RESULT:      -7.0      3.431      5.803
  Name = 
  2 active torsions:
  status: ('A' for Active; 'I' for Inactive)
    1  A    between atoms: N_12  and  C_18
    2  A    between atoms: C_15  and  C_21
                            x       y       z     vdW  Elec       q    Type
                         _______ _______ _______ _____ _____    ______ ____

>  <TORSDO>
F 2

$$$$
=
 OpenBabel11042411203D

 25 27  0  0  1  0  0  0  0  0999 V2000
  188.3930  177.8760  139.6790 C   0  0  0  0  0  3  0  0  0  0  0  0
  189.0470  177.8350  137.2230 C   0  0  0  0  0  1  0  0  0  0  0  0
  190.0380  176.7710  140.5780 C   0  0  0  0  0  0  0  0  0  0  0  0
  186.2820  179.1100  141.7300 C   0  0  0  0  0  2  0  0  0  0  0  0
  191.3710  175.4620  143.7070 O   0  0  0  0  0  0  0  0  0  0  0  0
  187.5960  178.9590  142.2550 O   0  0  0  0  0  0  0  0  0  0  0  0
  189.0660  175.6280  143.1510 C   0  0  0  0  0  2  0  0  0  0  0  0
  185.3760  178.9350  144.0430 C   0  0  1  0  0  3  0  0  0  0  0  0
  189.2450  177.5010  138.6590 C   0  0  0  0  0  0  0  0  0  0  0  0
  187.7850  177.3460  144.4440 N   0  0  0  0  0  0  0  0  0  0  0  0
  188.8750  177.4140  140.8540 N   0  0  0  0  0  0  0  0  0  0  0  0
  185.2680  178.4040  142.6200 C   0  0  0  0  0  2  0  0  0  0  0  0
  190.3040  176.8090  139.2210 C   0  0  0  0  0  0  0  0  0  0  0  0
  190.9310  176.2260  141.5570 N   0  0  0  0  0  2  0  0  0  0  0  0
  186.4950  176.7520  144.7760 C   0  0  0  0  0  2  0  0  0  0  0  0
  184.2090  179.8520  144.3430 C   0  0  0  0  0  1  0  0  0  0  0  0
  188.3040  177.7600  142.1340 C   0  0  0  0  0  0  0  0  0  0  0  0
  188.4220  176.9710  143.2200 C   0  0  0  0  0  0  0  0  0  0  0  0
  185.4310  177.8110  145.0760 C   0  0  0  0  0  2  0  0  0  0  0  0
  190.5120  175.7700  142.8410 C   0  0  0  0  0  0  0  0  0  0  0  0
  191.4320  174.9350  137.9680 N   0  0  0  0  0  1  0  0  0  0  0  0
  192.5330  176.9230  138.4020 O   0  0  0  0  0  0  0  0  0  0  0  0
  191.4780  176.2460  138.5210 C   0  0  0  0  0  0  0  0  0  0  0  0
  188.5110  178.0490  145.4180 C   0  0  0  0  0  0  0  0  0  0  0  0
  189.1100  178.6290  146.2200 N   0  0  0  0  0  0  0  0  0  0  0  0
  1 11  1  0  0  0  0
  2  9  1  0  0  0  0
  3 11  1  0  0  0  0
  3 14  1  0  0  0  0
  4  6  1  0  0  0  0
  4 12  1  0  0  0  0
  7 18  1  0  0  0  0
  8 16  1  1  0  0  0
  8 19  1  0  0  0  0
  9 13  1  0  0  0  0
  9  1  2  0  0  0  0
 10 15  1  0  0  0  0
 10 24  1  0  0  0  0
 11 17  1  0  0  0  0
 12  8  1  0  0  0  0
 13  3  2  0  0  0  0
 14 20  1  0  0  0  0
 15 19  1  0  0  0  0
 17  6  1  0  0  0  0
 17 18  2  0  0  0  0
 18 10  1  0  0  0  0
 20  7  1  0  0  0  0
 20  5  2  0  0  0  0
 21 23  1  0  0  0  0
 22 23  2  0  0  0  0
 23 13  1  0  0  0  0
 24 25  3  0  0  0  0
M  END
>  <MODEL>
5

>  <REMARK>
 VINA RESULT:      -7.0      2.303      6.522
  Name = 
  2 active torsions:
  status: ('A' for Active; 'I' for Inactive)
    1  A    between atoms: N_12  and  C_18
    2  A    between atoms: C_15  and  C_21
                            x       y       z     vdW  Elec       q    Type
                         _______ _______ _______ _____ _____    ______ ____

>  <TORSDO>
F 2

$$$$
=
 OpenBabel11042411203D

 25 27  0  0  1  0  0  0  0  0999 V2000
  186.2810  178.0240  145.7300 C   0  0  0  0  0  3  0  0  0  0  0  0
  183.8220  178.5530  146.1040 C   0  0  0  0  0  1  0  0  0  0  0  0
  186.4070  178.0920  143.5590 C   0  0  0  0  0  0  0  0  0  0  0  0
  189.0470  177.5770  147.2570 C   0  0  0  0  0  2  0  0  0  0  0  0
  188.6320  177.6620  140.7050 O   0  0  0  0  0  0  0  0  0  0  0  0
  189.1670  178.2230  145.9940 O   0  0  0  0  0  0  0  0  0  0  0  0
  188.7330  176.4260  142.7320 C   0  0  0  0  0  2  0  0  0  0  0  0
  191.3760  176.7330  147.0060 C   0  0  1  0  0  3  0  0  0  0  0  0
  185.0180  178.3140  145.2510 C   0  0  0  0  0  0  0  0  0  0  0  0
  190.7200  176.9180  144.1730 N   0  0  0  0  0  0  0  0  0  0  0  0
  187.1280  177.8740  144.6890 N   0  0  0  0  0  0  0  0  0  0  0  0
  189.9370  176.3420  147.3100 C   0  0  0  0  0  2  0  0  0  0  0  0
  185.0900  178.3750  143.8700 C   0  0  0  0  0  0  0  0  0  0  0  0
  186.9480  178.1400  142.2330 N   0  0  0  0  0  2  0  0  0  0  0  0
  191.1890  175.6410  144.6980 C   0  0  0  0  0  2  0  0  0  0  0  0
  192.1940  176.7270  148.2810 C   0  0  0  0  0  1  0  0  0  0  0  0
  188.5540  177.7140  144.8460 C   0  0  0  0  0  0  0  0  0  0  0  0
  189.3210  177.0910  143.9310 C   0  0  0  0  0  0  0  0  0  0  0  0
  192.0200  175.8100  145.9730 C   0  0  0  0  0  2  0  0  0  0  0  0
  188.1240  177.4400  141.8330 C   0  0  0  0  0  0  0  0  0  0  0  0
  183.8910  178.0150  141.6820 N   0  0  0  0  0  1  0  0  0  0  0  0
  183.1340  179.5630  143.2260 O   0  0  0  0  0  0  0  0  0  0  0  0
  183.9940  178.6920  142.9300 C   0  0  0  0  0  0  0  0  0  0  0  0
  191.6340  177.8520  143.6620 C   0  0  0  0  0  0  0  0  0  0  0  0
  192.3880  178.6210  143.2400 N   0  0  0  0  0  0  0  0  0  0  0  0
  3 13  2  0  0  0  0
  3 11  1  0  0  0  0
  4 12  1  0  0  0  0
  5 20  2  0  0  0  0
  6  4  1  0  0  0  0
  7 18  1  0  0  0  0
  8 12  1  0  0  0  0
  8 16  1  1  0  0  0
  9  1  2  0  0  0  0
  9  2  1  0  0  0  0
 10 15  1  0  0  0  0
 11 17  1  0  0  0  0
 11  1  1  0  0  0  0
 13  9  1  0  0  0  0
 14  3  1  0  0  0  0
 15 19  1  0  0  0  0
 17  6  1  0  0  0  0
 18 10  1  0  0  0  0
 18 17  2  0  0  0  0
 19  8  1  0  0  0  0
 20 14  1  0  0  0  0
 20  7  1  0  0  0  0
 21 23  1  0  0  0  0
 23 22  2  0  0  0  0
 23 13  1  0  0  0  0
 24 10  1  0  0  0  0
 25 24  3  0  0  0  0
M  END
>  <MODEL>
6

>  <REMARK>
 VINA RESULT:      -7.0      2.055      4.454
  Name = 
  2 active torsions:
  status: ('A' for Active; 'I' for Inactive)
    1  A    between atoms: N_12  and  C_18
    2  A    between atoms: C_15  and  C_21
                            x       y       z     vdW  Elec       q    Type
                         _______ _______ _______ _____ _____    ______ ____

>  <TORSDO>
F 2

$$$$
=
 OpenBabel11042411203D

 25 27  0  0  1  0  0  0  0  0999 V2000
  190.9330  176.3780  140.2690 C   0  0  0  0  0  3  0  0  0  0  0  0
  191.8790  175.8980  137.9580 C   0  0  0  0  0  1  0  0  0  0  0  0
  189.0730  177.3890  139.7680 C   0  0  0  0  0  0  0  0  0  0  0  0
  191.4040  175.8230  143.3770 C   0  0  0  0  0  2  0  0  0  0  0  0
  186.1260  179.0310  141.1480 O   0  0  0  0  0  0  0  0  0  0  0  0
  190.0360  175.8830  142.9880 O   0  0  0  0  0  0  0  0  0  0  0  0
  188.3070  179.0870  142.0910 C   0  0  0  0  0  2  0  0  0  0  0  0
  190.7460  176.5240  145.6740 C   0  0  1  0  0  3  0  0  0  0  0  0
  190.8590  176.4490  138.8920 C   0  0  0  0  0  0  0  0  0  0  0  0
  188.5670  177.8140  144.2310 N   0  0  0  0  0  0  0  0  0  0  0  0
  189.8420  176.9690  140.8040 N   0  0  0  0  0  0  0  0  0  0  0  0
  191.6810  176.8060  144.5070 C   0  0  0  0  0  2  0  0  0  0  0  0
  189.6710  177.0770  138.5610 C   0  0  0  0  0  0  0  0  0  0  0  0
  187.7690  177.9700  139.8930 N   0  0  0  0  0  2  0  0  0  0  0  0
  189.4000  178.6280  145.1090 C   0  0  0  0  0  2  0  0  0  0  0  0
  191.5050  175.8420  146.7920 C   0  0  0  0  0  1  0  0  0  0  0  0
  189.5360  176.9340  142.2150 C   0  0  0  0  0  0  0  0  0  0  0  0
  188.7880  177.8780  142.8190 C   0  0  0  0  0  0  0  0  0  0  0  0
  190.0780  177.7930  146.2000 C   0  0  0  0  0  2  0  0  0  0  0  0
  187.3340  178.6960  141.0390 C   0  0  0  0  0  0  0  0  0  0  0  0
  188.5530  176.2990  136.4390 N   0  0  0  0  0  1  0  0  0  0  0  0
  189.2180  178.4980  136.7100 O   0  0  0  0  0  0  0  0  0  0  0  0
  189.1470  177.3420  137.2040 C   0  0  0  0  0  0  0  0  0  0  0  0
  187.4060  177.2000  144.7250 C   0  0  0  0  0  0  0  0  0  0  0  0
  186.4500  176.6930  145.1330 N   0  0  0  0  0  0  0  0  0  0  0  0
  1 11  1  0  0  0  0
  2  9  1  0  0  0  0
  3 14  1  0  0  0  0
  3 11  1  0  0  0  0
  4 12  1  0  0  0  0
  6  4  1  0  0  0  0
  7 18  1  0  0  0  0
  8 19  1  0  0  0  0
  8 16  1  1  0  0  0
  9  1  2  0  0  0  0
 10 24  1  0  0  0  0
 10 15  1  0  0  0  0
 11 17  1  0  0  0  0
 12  8  1  0  0  0  0
 13  9  1  0  0  0  0
 13  3  2  0  0  0  0
 14 20  1  0  0  0  0
 15 19  1  0  0  0  0
 17 18  2  0  0  0  0
 17  6  1  0  0  0  0
 18 10  1  0  0  0  0
 20  5  2  0  0  0  0
 20  7  1  0  0  0  0
 21 23  1  0  0  0  0
 22 23  2  0  0  0  0
 23 13  1  0  0  0  0
 24 25  3  0  0  0  0
M  END
>  <MODEL>
7

>  <REMARK>
 VINA RESULT:      -6.4      2.647      6.609
  Name = 
  2 active torsions:
  status: ('A' for Active; 'I' for Inactive)
    1  A    between atoms: N_12  and  C_18
    2  A    between atoms: C_15  and  C_21
                            x       y       z     vdW  Elec       q    Type
                         _______ _______ _______ _____ _____    ______ ____

>  <TORSDO>
F 2

$$$$
=
 OpenBabel11042411203D

 25 27  0  0  1  0  0  0  0  0999 V2000
  188.0740  177.3710  143.0640 C   0  0  0  0  0  3  0  0  0  0  0  0
  187.4010  177.1280  145.5050 C   0  0  0  0  0  1  0  0  0  0  0  0
  186.3540  178.4260  142.2500 C   0  0  0  0  0  0  0  0  0  0  0  0
  190.4910  176.9050  141.0330 C   0  0  0  0  0  2  0  0  0  0  0  0
  184.8900  179.8090  139.2130 O   0  0  0  0  0  0  0  0  0  0  0  0
  189.6990  178.0550  140.7550 O   0  0  0  0  0  0  0  0  0  0  0  0
  186.2360  177.8540  139.3300 C   0  0  0  0  0  2  0  0  0  0  0  0
  191.1070  176.7910  138.6230 C   0  0  1  0  0  3  0  0  0  0  0  0
  187.1780  177.5610  144.0980 C   0  0  0  0  0  0  0  0  0  0  0  0
  188.5090  178.0720  138.3030 N   0  0  0  0  0  0  0  0  0  0  0  0
  187.5590  177.8900  141.9280 N   0  0  0  0  0  0  0  0  0  0  0  0
  190.5680  176.0030  139.8080 C   0  0  0  0  0  2  0  0  0  0  0  0
  186.0850  178.2460  143.5950 C   0  0  0  0  0  0  0  0  0  0  0  0
  185.5210  179.1760  141.3580 N   0  0  0  0  0  2  0  0  0  0  0  0
  188.7680  176.8310  137.5810 C   0  0  0  0  0  2  0  0  0  0  0  0
  192.5430  176.3960  138.3490 C   0  0  0  0  0  1  0  0  0  0  0  0
  188.3040  177.9910  140.6960 C   0  0  0  0  0  0  0  0  0  0  0  0
  187.7100  178.0250  139.4880 C   0  0  0  0  0  0  0  0  0  0  0  0
  190.2650  176.5910  137.3640 C   0  0  0  0  0  2  0  0  0  0  0  0
  185.5210  179.0030  139.9430 C   0  0  0  0  0  0  0  0  0  0  0  0
  185.0320  179.4190  145.5630 N   0  0  0  0  0  1  0  0  0  0  0  0
  183.7380  178.4590  143.9020 O   0  0  0  0  0  0  0  0  0  0  0  0
  184.8930  178.7000  144.3410 C   0  0  0  0  0  0  0  0  0  0  0  0
  188.7990  179.3100  137.7080 C   0  0  0  0  0  0  0  0  0  0  0  0
  189.0390  180.3300  137.2190 N   0  0  0  0  0  0  0  0  0  0  0  0
  1  9  2  0  0  0  0
  3 13  2  0  0  0  0
  5 20  2  0  0  0  0
  6  4  1  0  0  0  0
  7 18  1  0  0  0  0
  7 20  1  0  0  0  0
  8 16  1  6  0  0  0
  8 12  1  0  0  0  0
  9  2  1  0  0  0  0
 10 18  1  0  0  0  0
 11  3  1  0  0  0  0
 11  1  1  0  0  0  0
 12  4  1  0  0  0  0
 13  9  1  0  0  0  0
 13 23  1  0  0  0  0
 14  3  1  0  0  0  0
 15 10  1  0  0  0  0
 17  6  1  0  0  0  0
 17 11  1  0  0  0  0
 18 17  2  0  0  0  0
 19 15  1  0  0  0  0
 19  8  1  0  0  0  0
 20 14  1  0  0  0  0
 22 23  2  0  0  0  0
 23 21  1  0  0  0  0
 24 10  1  0  0  0  0
 25 24  3  0  0  0  0
M  END
>  <MODEL>
8

>  <REMARK>
 VINA RESULT:      -6.2      2.918      4.855
  Name = 
  2 active torsions:
  status: ('A' for Active; 'I' for Inactive)
    1  A    between atoms: N_12  and  C_18
    2  A    between atoms: C_15  and  C_21
                            x       y       z     vdW  Elec       q    Type
                         _______ _______ _______ _____ _____    ______ ____

>  <TORSDO>
F 2

$$$$
=
 OpenBabel11042411203D

 25 27  0  0  1  0  0  0  0  0999 V2000
  185.2380  178.0500  142.0880 C   0  0  0  0  0  3  0  0  0  0  0  0
  187.1430  177.7240  143.7410 C   0  0  0  0  0  1  0  0  0  0  0  0
  183.6990  178.8970  143.3720 C   0  0  0  0  0  0  0  0  0  0  0  0
  184.5020  177.8760  138.9880 C   0  0  0  0  0  2  0  0  0  0  0  0
  180.2630  180.1060  143.4790 O   0  0  0  0  0  0  0  0  0  0  0  0
  183.8480  178.9260  139.6920 O   0  0  0  0  0  0  0  0  0  0  0  0
  181.0570  178.3230  142.1230 C   0  0  0  0  0  2  0  0  0  0  0  0
  182.6170  177.8410  137.3610 C   0  0  1  0  0  3  0  0  0  0  0  0
  185.7620  178.1310  143.3630 C   0  0  0  0  0  0  0  0  0  0  0  0
  181.1240  178.8080  139.6690 N   0  0  0  0  0  0  0  0  0  0  0  0
  183.9670  178.5080  142.1000 N   0  0  0  0  0  0  0  0  0  0  0  0
  183.4830  176.9920  138.2810 C   0  0  0  0  0  2  0  0  0  0  0  0
  184.7960  178.6840  144.1870 C   0  0  0  0  0  0  0  0  0  0  0  0
  182.4950  179.5470  143.7980 N   0  0  0  0  0  2  0  0  0  0  0  0
  180.6530  177.6080  138.9860 C   0  0  0  0  0  2  0  0  0  0  0  0
  183.0220  177.6180  135.9190 C   0  0  0  0  0  1  0  0  0  0  0  0
  183.1850  178.6990  140.9020 C   0  0  0  0  0  0  0  0  0  0  0  0
  181.8380  178.6650  140.9000 C   0  0  0  0  0  0  0  0  0  0  0  0
  181.1290  177.5460  137.5320 C   0  0  0  0  0  2  0  0  0  0  0  0
  181.2350  179.3780  143.1540 C   0  0  0  0  0  0  0  0  0  0  0  0
  184.1810  178.2530  146.5940 N   0  0  0  0  0  1  0  0  0  0  0  0
  185.6810  179.9170  146.0160 O   0  0  0  0  0  0  0  0  0  0  0  0
  184.9180  178.9940  145.6270 C   0  0  0  0  0  0  0  0  0  0  0  0
  180.6570  180.0730  139.2790 C   0  0  0  0  0  0  0  0  0  0  0  0
  180.2720  181.1150  138.9580 N   0  0  0  0  0  0  0  0  0  0  0  0
  1 11  1  0  0  0  0
  1  9  2  0  0  0  0
  3 14  1  0  0  0  0
  3 13  2  0  0  0  0
  4  6  1  0  0  0  0
  6 17  1  0  0  0  0
  7 20  1  0  0  0  0
  8 16  1  6  0  0  0
  8 19  1  0  0  0  0
  8 12  1  0  0  0  0
  9  2  1  0  0  0  0
  9 13  1  0  0  0  0
 10 18  1  0  0  0  0
 11  3  1  0  0  0  0
 12  4  1  0  0  0  0
 13 23  1  0  0  0  0
 15 10  1  0  0  0  0
 17 11  1  0  0  0  0
 18 17  2  0  0  0  0
 18  7  1  0  0  0  0
 19 15  1  0  0  0  0
 20  5  2  0  0  0  0
 20 14  1  0  0  0  0
 23 22  2  0  0  0  0
 23 21  1  0  0  0  0
 24 10  1  0  0  0  0
 25 24  3  0  0  0  0
M  END
>  <MODEL>
9

>  <REMARK>
 VINA RESULT:      -5.9      4.869      7.820
  Name = 
  2 active torsions:
  status: ('A' for Active; 'I' for Inactive)
    1  A    between atoms: N_12  and  C_18
    2  A    between atoms: C_15  and  C_21
                            x       y       z     vdW  Elec       q    Type
                         _______ _______ _______ _____ _____    ______ ____

>  <TORSDO>
F 2

$$$$
