=
 OpenBabel11032421093D

 50 54  0  0  1  0  0  0  0  0999 V2000
  188.0430  177.1030  146.2550 C   0  0  0  0  0  0  0  0  0  0  0  0
  189.4300  177.2670  144.3620 C   0  0  2  0  0  3  0  0  0  0  0  0
  185.9790  177.8910  144.8090 C   0  0  0  0  0  0  0  0  0  0  0  0
  187.5920  176.9970  147.5660 O   0  0  0  0  0  1  0  0  0  0  0  0
  187.2490  177.3920  145.0830 C   0  0  0  0  0  0  0  0  0  0  0  0
  189.3210  177.0050  145.8570 C   0  0  0  0  0  0  0  0  0  0  0  0
  187.8640  178.5160  141.7150 C   0  0  0  0  0  2  0  0  0  0  0  0
  186.0440  178.2770  143.4700 C   0  0  0  0  0  0  0  0  0  0  0  0
  188.0280  177.4540  144.0150 N   0  0  0  0  0  0  0  0  0  0  0  0
  187.3260  178.0070  143.0130 C   0  0  0  0  0  0  0  0  0  0  0  0
  184.9890  178.9390  142.6350 C   0  0  1  0  0  3  0  0  0  0  0  0
  186.7030  178.7500  140.7420 C   0  0  0  0  0  2  0  0  0  0  0  0
  185.6050  179.6120  141.3900 C   0  0  0  0  0  2  0  0  0  0  0  0
  191.7720  177.3760  148.7260 C   0  0  0  0  0  3  0  0  0  0  0  0
  191.3790  175.7690  146.4660 C   0  0  0  0  0  3  0  0  0  0  0  0
  192.6860  176.3650  148.4160 C   0  0  0  0  0  3  0  0  0  0  0  0
  190.4670  176.7930  146.7580 C   0  0  0  0  0  0  0  0  0  0  0  0
  192.4870  175.5590  147.2870 C   0  0  0  0  0  3  0  0  0  0  0  0
  189.7490  178.5820  148.2550 O   0  0  0  0  0  1  0  0  0  0  0  0
  190.6610  177.5910  147.9060 C   0  0  0  0  0  0  0  0  0  0  0  0
  190.0310  176.0540  143.6420 C   0  0  1  0  0  3  0  0  0  0  0  0
  189.0940  175.4490  142.8010 O   0  0  0  0  0  1  0  0  0  0  0  0
  191.2590  176.4610  142.8440 C   0  0  0  0  0  2  0  0  0  0  0  0
  190.9240  177.5150  141.8990 N   0  0  0  0  0  2  0  0  0  0  0  0
  191.6750  177.2590  140.6790 C   0  0  0  0  0  2  0  0  0  0  0  0
  190.6830  175.7910  139.0900 O   0  0  0  0  0  0  0  0  0  0  0  0
  189.9420  178.0060  139.0100 N   0  0  0  0  0  2  0  0  0  0  0  0
  190.7470  176.9610  139.5550 C   0  0  0  0  0  0  0  0  0  0  0  0
  189.7340  177.1940  136.2650 C   0  0  0  0  0  1  0  0  0  0  0  0
  188.1070  179.0100  137.3950 O   0  0  0  0  0  0  0  0  0  0  0  0
  188.8430  177.7390  137.7010 S   0  0  0  0  0  0  0  0  0  0  0  0
  187.8550  176.6800  138.0960 O   0  0  0  0  0  0  0  0  0  0  0  0
  184.8360  178.1080  145.7100 C   0  0  0  0  0  3  0  0  0  0  0  0
  184.9110  178.8510  146.8040 C   0  0  0  0  0  2  0  0  0  0  0  0
  183.9180  177.9210  142.2570 C   0  0  0  0  0  2  0  0  0  0  0  0
  182.5930  178.5980  141.9270 C   0  0  0  0  0  2  0  0  0  0  0  0
  180.3950  179.6790  140.1550 O   0  0  0  0  0  0  0  0  0  0  0  0
  180.6670  178.3460  140.4950 C   0  0  1  0  0  3  0  0  0  0  0  0
  182.1130  178.1500  140.6200 N   0  0  0  0  0  0  0  0  0  0  0  0
  182.6280  179.1030  139.6620 C   0  0  0  0  0  2  0  0  0  0  0  0
  181.5020  180.0860  139.3970 C   0  0  1  0  0  3  0  0  0  0  0  0
  179.8620  177.9020  141.7110 C   0  0  0  0  0  1  0  0  0  0  0  0
  180.7400  179.1100  137.3660 O   0  0  0  0  0  0  0  0  0  0  0  0
  181.1300  180.1590  137.9470 C   0  0  0  0  0  0  0  0  0  0  0  0
  181.2880  181.3510  137.2320 O   0  0  0  0  0  0  0  0  0  0  0  0
  180.2400  181.9010  136.4420 C   0  0  0  0  0  2  0  0  0  0  0  0
  180.3940  184.3610  136.9830 C   0  0  0  0  0  0  0  0  0  0  0  0
  181.5010  184.4570  136.3890 O   0  0  0  0  0  0  0  0  0  0  0  0
  179.7630  185.5750  137.5550 C   0  0  0  0  0  1  0  0  0  0  0  0
  179.7210  183.1050  137.0780 N   0  0  0  0  0  2  0  0  0  0  0  0
  1  4  1  0  0  0  0
  2 21  1  6  0  0  0
  2  6  1  0  0  0  0
  3  5  2  0  0  0  0
  3 33  1  0  0  0  0
  5  1  1  0  0  0  0
  6  1  2  0  0  0  0
  6 17  1  0  0  0  0
  7 10  1  0  0  0  0
  8  3  1  0  0  0  0
  9  2  1  0  0  0  0
  9  5  1  0  0  0  0
 10  8  2  0  0  0  0
 10  9  1  0  0  0  0
 11 35  1  6  0  0  0
 11  8  1  0  0  0  0
 12 13  1  0  0  0  0
 12  7  1  0  0  0  0
 13 11  1  0  0  0  0
 15 17  2  0  0  0  0
 15 18  1  0  0  0  0
 16 14  1  0  0  0  0
 17 20  1  0  0  0  0
 18 16  2  0  0  0  0
 20 19  1  0  0  0  0
 20 14  2  0  0  0  0
 21 22  1  6  0  0  0
 23 21  1  0  0  0  0
 24 23  1  0  0  0  0
 25 24  1  0  0  0  0
 26 28  2  0  0  0  0
 27 28  1  0  0  0  0
 28 25  1  0  0  0  0
 29 31  1  0  0  0  0
 30 31  2  0  0  0  0
 31 32  2  0  0  0  0
 31 27  1  0  0  0  0
 33 34  2  0  0  0  0
 36 35  1  0  0  0  0
 37 38  1  0  0  0  0
 38 39  1  0  0  0  0
 38 42  1  1  0  0  0
 39 36  1  0  0  0  0
 40 39  1  0  0  0  0
 41 44  1  6  0  0  0
 41 40  1  0  0  0  0
 41 37  1  0  0  0  0
 43 44  2  0  0  0  0
 45 44  1  0  0  0  0
 46 50  1  0  0  0  0
 46 45  1  0  0  0  0
 47 50  1  0  0  0  0
 47 49  1  0  0  0  0
 48 47  2  0  0  0  0
M  END
>  <MODEL>
1

>  <REMARK>
 VINA RESULT:      -7.8      0.000      0.000
  Name = 
  15 active torsions:
  status: ('A' for Active; 'I' for Inactive)
    1  A    between atoms: C_2  and  C_5
    2  A    between atoms: C_2  and  C_27
    3  A    between atoms: C_9  and  C_11
    4  A    between atoms: C_12  and  C_31
    5  A    between atoms: C_12  and  C_46
    6  A    between atoms: C_18  and  C_25
    7  A    between atoms: N_24  and  S_30
    8  A    between atoms: C_26  and  N_41
    9  A    between atoms: C_26  and  C_43
   10  A    between atoms: C_27  and  N_41
   11  A    between atoms: N_29  and  C_31
   12  A    between atoms: C_32  and  N_38
   13  A    between atoms: C_32  and  O_39
   14  A    between atoms: C_35  and  C_37
   15  A    between atoms: C_35  and  O_39
                            x       y       z     vdW  Elec       q    Type
                         _______ _______ _______ _____ _____    ______ ____

>  <TORSDO>
F 15

$$$$
=
 OpenBabel11032421093D

 50 54  0  0  1  0  0  0  0  0999 V2000
  185.6090  178.2680  145.3140 C   0  0  0  0  0  0  0  0  0  0  0  0
  187.3800  177.9340  143.8020 C   0  0  2  0  0  3  0  0  0  0  0  0
  183.9670  178.6980  143.2920 C   0  0  0  0  0  0  0  0  0  0  0  0
  184.8790  178.4990  146.4740 O   0  0  0  0  0  1  0  0  0  0  0  0
  185.1090  178.2650  143.9580 C   0  0  0  0  0  0  0  0  0  0  0  0
  186.9330  178.0560  145.2520 C   0  0  0  0  0  0  0  0  0  0  0  0
  186.5150  178.5030  140.6480 C   0  0  0  0  0  2  0  0  0  0  0  0
  184.3460  178.7360  141.9490 C   0  0  0  0  0  0  0  0  0  0  0  0
  186.1030  178.0480  143.1120 N   0  0  0  0  0  0  0  0  0  0  0  0
  185.6740  178.3420  141.8740 C   0  0  0  0  0  0  0  0  0  0  0  0
  183.5450  179.1830  140.7630 C   0  0  1  0  0  3  0  0  0  0  0  0
  185.6100  178.5030  139.4110 C   0  0  0  0  0  2  0  0  0  0  0  0
  184.4610  179.5150  139.5670 C   0  0  0  0  0  2  0  0  0  0  0  0
  190.0680  178.1870  147.3810 C   0  0  0  0  0  3  0  0  0  0  0  0
  187.2970  177.9180  147.6980 C   0  0  0  0  0  3  0  0  0  0  0  0
  189.5190  178.0250  148.6560 C   0  0  0  0  0  3  0  0  0  0  0  0
  187.8390  178.0600  146.4120 C   0  0  0  0  0  0  0  0  0  0  0  0
  188.1330  177.8950  148.8150 C   0  0  0  0  0  3  0  0  0  0  0  0
  189.8020  178.4050  145.0040 O   0  0  0  0  0  1  0  0  0  0  0  0
  189.2350  178.2110  146.2590 C   0  0  0  0  0  0  0  0  0  0  0  0
  188.0370  176.5720  143.5500 C   0  0  1  0  0  3  0  0  0  0  0  0
  187.0940  175.5430  143.5780 O   0  0  0  0  0  1  0  0  0  0  0  0
  188.7690  176.5700  142.2190 C   0  0  0  0  0  2  0  0  0  0  0  0
  190.1920  176.3430  142.4220 N   0  0  0  0  0  2  0  0  0  0  0  0
  190.9070  177.2010  141.4890 C   0  0  0  0  0  2  0  0  0  0  0  0
  190.7930  175.7710  139.5900 O   0  0  0  0  0  0  0  0  0  0  0  0
  189.7970  177.8690  139.3280 N   0  0  0  0  0  2  0  0  0  0  0  0
  190.5030  176.8910  140.0910 C   0  0  0  0  0  0  0  0  0  0  0  0
  188.7250  179.0990  136.9660 C   0  0  0  0  0  1  0  0  0  0  0  0
  188.2010  176.5600  137.6780 O   0  0  0  0  0  0  0  0  0  0  0  0
  189.2970  177.5840  137.6970 S   0  0  0  0  0  0  0  0  0  0  0  0
  190.4660  177.0700  136.9070 O   0  0  0  0  0  0  0  0  0  0  0  0
  182.6730  179.1490  143.8310 C   0  0  0  0  0  3  0  0  0  0  0  0
  181.6290  178.3460  143.9640 C   0  0  0  0  0  2  0  0  0  0  0  0
  182.5140  178.1170  140.4080 C   0  0  0  0  0  2  0  0  0  0  0  0
  182.0010  178.2870  138.9830 C   0  0  0  0  0  2  0  0  0  0  0  0
  183.4020  176.8150  136.7440 O   0  0  0  0  0  0  0  0  0  0  0  0
  182.0260  176.9830  136.9520 C   0  0  1  0  0  3  0  0  0  0  0  0
  181.7350  176.9770  138.3870 N   0  0  0  0  0  0  0  0  0  0  0  0
  182.7620  176.0950  138.8970 C   0  0  0  0  0  2  0  0  0  0  0  0
  183.8300  176.0270  137.8220 C   0  0  1  0  0  3  0  0  0  0  0  0
  181.4910  178.1990  136.2040 C   0  0  0  0  0  1  0  0  0  0  0  0
  183.1100  173.8610  137.1510 O   0  0  0  0  0  0  0  0  0  0  0  0
  184.0920  174.6250  137.3570 C   0  0  0  0  0  0  0  0  0  0  0  0
  185.4020  174.1510  137.2330 O   0  0  0  0  0  0  0  0  0  0  0  0
  185.8540  173.4860  136.0590 C   0  0  0  0  0  2  0  0  0  0  0  0
  188.2950  173.0740  136.5520 C   0  0  0  0  0  0  0  0  0  0  0  0
  188.0080  172.2240  137.4370 O   0  0  0  0  0  0  0  0  0  0  0  0
  189.7170  173.3250  136.2130 C   0  0  0  0  0  1  0  0  0  0  0  0
  187.2680  173.7700  135.8440 N   0  0  0  0  0  2  0  0  0  0  0  0
  1  4  1  0  0  0  0
  2 21  1  1  0  0  0
  2  6  1  0  0  0  0
  3 33  1  0  0  0  0
  3  5  2  0  0  0  0
  5  1  1  0  0  0  0
  6  1  2  0  0  0  0
  6 17  1  0  0  0  0
  7 10  1  0  0  0  0
  8  3  1  0  0  0  0
  9  2  1  0  0  0  0
  9  5  1  0  0  0  0
 10  8  2  0  0  0  0
 10  9  1  0  0  0  0
 11 35  1  6  0  0  0
 11  8  1  0  0  0  0
 12 13  1  0  0  0  0
 12  7  1  0  0  0  0
 13 11  1  0  0  0  0
 14 16  1  0  0  0  0
 15 18  1  0  0  0  0
 16 18  2  0  0  0  0
 17 15  2  0  0  0  0
 19 20  1  0  0  0  0
 20 17  1  0  0  0  0
 20 14  2  0  0  0  0
 21 22  1  6  0  0  0
 23 24  1  0  0  0  0
 23 21  1  0  0  0  0
 25 24  1  0  0  0  0
 26 28  2  0  0  0  0
 27 28  1  0  0  0  0
 28 25  1  0  0  0  0
 29 31  1  0  0  0  0
 30 31  2  0  0  0  0
 31 27  1  0  0  0  0
 32 31  2  0  0  0  0
 33 34  2  0  0  0  0
 36 35  1  0  0  0  0
 37 38  1  0  0  0  0
 37 41  1  0  0  0  0
 38 42  1  1  0  0  0
 38 39  1  0  0  0  0
 39 40  1  0  0  0  0
 39 36  1  0  0  0  0
 41 44  1  6  0  0  0
 41 40  1  0  0  0  0
 43 44  2  0  0  0  0
 45 44  1  0  0  0  0
 46 45  1  0  0  0  0
 47 48  2  0  0  0  0
 49 47  1  0  0  0  0
 50 46  1  0  0  0  0
 50 47  1  0  0  0  0
M  END
>  <MODEL>
2

>  <REMARK>
 VINA RESULT:      -7.7      2.939      5.277
  Name = 
  15 active torsions:
  status: ('A' for Active; 'I' for Inactive)
    1  A    between atoms: C_2  and  C_5
    2  A    between atoms: C_2  and  C_27
    3  A    between atoms: C_9  and  C_11
    4  A    between atoms: C_12  and  C_31
    5  A    between atoms: C_12  and  C_46
    6  A    between atoms: C_18  and  C_25
    7  A    between atoms: N_24  and  S_30
    8  A    between atoms: C_26  and  N_41
    9  A    between atoms: C_26  and  C_43
   10  A    between atoms: C_27  and  N_41
   11  A    between atoms: N_29  and  C_31
   12  A    between atoms: C_32  and  N_38
   13  A    between atoms: C_32  and  O_39
   14  A    between atoms: C_35  and  C_37
   15  A    between atoms: C_35  and  O_39
                            x       y       z     vdW  Elec       q    Type
                         _______ _______ _______ _____ _____    ______ ____

>  <TORSDO>
F 15

$$$$
=
 OpenBabel11032421093D

 50 54  0  0  1  0  0  0  0  0999 V2000
  187.9220  177.1220  146.2110 C   0  0  0  0  0  0  0  0  0  0  0  0
  189.2870  177.3030  144.3030 C   0  0  2  0  0  3  0  0  0  0  0  0
  185.8370  177.9020  144.7910 C   0  0  0  0  0  0  0  0  0  0  0  0
  187.4860  177.0070  147.5260 O   0  0  0  0  0  1  0  0  0  0  0  0
  187.1130  177.4100  145.0480 C   0  0  0  0  0  0  0  0  0  0  0  0
  189.1960  177.0350  145.7980 C   0  0  0  0  0  0  0  0  0  0  0  0
  187.6840  178.5520  141.6780 C   0  0  0  0  0  2  0  0  0  0  0  0
  185.8850  178.2940  143.4520 C   0  0  0  0  0  0  0  0  0  0  0  0
  187.8800  177.4820  143.9720 N   0  0  0  0  0  0  0  0  0  0  0  0
  187.1630  178.0340  142.9810 C   0  0  0  0  0  0  0  0  0  0  0  0
  184.8160  178.9530  142.6320 C   0  0  1  0  0  3  0  0  0  0  0  0
  186.5100  178.7830  140.7190 C   0  0  0  0  0  2  0  0  0  0  0  0
  185.4140  179.6350  141.3830 C   0  0  0  0  0  2  0  0  0  0  0  0
  191.6700  177.4030  148.6480 C   0  0  0  0  0  3  0  0  0  0  0  0
  191.2750  175.8170  146.3730 C   0  0  0  0  0  3  0  0  0  0  0  0
  192.5930  176.4070  148.3170 C   0  0  0  0  0  3  0  0  0  0  0  0
  190.3540  176.8260  146.6850 C   0  0  0  0  0  0  0  0  0  0  0  0
  192.3930  175.6110  147.1810 C   0  0  0  0  0  3  0  0  0  0  0  0
  189.6290  178.5890  148.2100 O   0  0  0  0  0  1  0  0  0  0  0  0
  190.5490  177.6130  147.8410 C   0  0  0  0  0  0  0  0  0  0  0  0
  189.8880  176.0980  143.5710 C   0  0  1  0  0  3  0  0  0  0  0  0
  188.8960  175.3350  142.9510 O   0  0  0  0  0  1  0  0  0  0  0  0
  190.9120  176.5520  142.5440 C   0  0  0  0  0  2  0  0  0  0  0  0
  190.4880  176.1750  141.2040 N   0  0  0  0  0  2  0  0  0  0  0  0
  190.8420  177.2690  140.3130 C   0  0  0  0  0  2  0  0  0  0  0  0
  189.9260  176.1150  138.4430 O   0  0  0  0  0  0  0  0  0  0  0  0
  189.3720  178.3810  138.5940 N   0  0  0  0  0  2  0  0  0  0  0  0
  190.0270  177.2050  139.0690 C   0  0  0  0  0  0  0  0  0  0  0  0
  187.0230  177.2940  137.3510 C   0  0  0  0  0  1  0  0  0  0  0  0
  189.2480  177.9470  135.9900 O   0  0  0  0  0  0  0  0  0  0  0  0
  188.4110  178.3860  137.1560 S   0  0  0  0  0  0  0  0  0  0  0  0
  187.9080  179.7780  136.9050 O   0  0  0  0  0  0  0  0  0  0  0  0
  184.7020  178.1080  145.7050 C   0  0  0  0  0  3  0  0  0  0  0  0
  184.8450  178.5680  146.9390 C   0  0  0  0  0  2  0  0  0  0  0  0
  183.7490  177.9290  142.2610 C   0  0  0  0  0  2  0  0  0  0  0  0
  182.9030  178.4020  141.0840 C   0  0  0  0  0  2  0  0  0  0  0  0
  181.2630  178.2620  138.5480 O   0  0  0  0  0  0  0  0  0  0  0  0
  181.3260  177.3380  139.6010 C   0  0  1  0  0  3  0  0  0  0  0  0
  182.6820  177.2980  140.1490 N   0  0  0  0  0  0  0  0  0  0  0  0
  183.4850  177.6010  138.9840 C   0  0  0  0  0  2  0  0  0  0  0  0
  182.5440  178.2380  137.9780 C   0  0  1  0  0  3  0  0  0  0  0  0
  180.2340  177.5900  140.6340 C   0  0  0  0  0  1  0  0  0  0  0  0
  181.4280  177.4620  136.0260 O   0  0  0  0  0  0  0  0  0  0  0  0
  182.5090  177.4990  136.6740 C   0  0  0  0  0  0  0  0  0  0  0  0
  183.6330  176.7990  136.2240 O   0  0  0  0  0  0  0  0  0  0  0  0
  183.5220  175.5650  135.5240 C   0  0  0  0  0  2  0  0  0  0  0  0
  184.9930  173.8940  136.7130 C   0  0  0  0  0  0  0  0  0  0  0  0
  186.0150  174.3090  136.1030 O   0  0  0  0  0  0  0  0  0  0  0  0
  185.1350  172.8380  137.7450 C   0  0  0  0  0  1  0  0  0  0  0  0
  183.7050  174.4540  136.4490 N   0  0  0  0  0  2  0  0  0  0  0  0
  1  4  1  0  0  0  0
  2 21  1  6  0  0  0
  2  6  1  0  0  0  0
  3  5  2  0  0  0  0
  3 33  1  0  0  0  0
  5  1  1  0  0  0  0
  6  1  2  0  0  0  0
  6 17  1  0  0  0  0
  7 10  1  0  0  0  0
  8  3  1  0  0  0  0
  9  2  1  0  0  0  0
  9  5  1  0  0  0  0
 10  8  2  0  0  0  0
 10  9  1  0  0  0  0
 11 35  1  6  0  0  0
 11  8  1  0  0  0  0
 12 13  1  0  0  0  0
 12  7  1  0  0  0  0
 13 11  1  0  0  0  0
 15 17  2  0  0  0  0
 15 18  1  0  0  0  0
 16 14  1  0  0  0  0
 17 20  1  0  0  0  0
 18 16  2  0  0  0  0
 20 19  1  0  0  0  0
 20 14  2  0  0  0  0
 21 22  1  6  0  0  0
 23 21  1  0  0  0  0
 24 23  1  0  0  0  0
 25 24  1  0  0  0  0
 26 28  2  0  0  0  0
 27 28  1  0  0  0  0
 28 25  1  0  0  0  0
 30 31  2  0  0  0  0
 31 29  1  0  0  0  0
 31 27  1  0  0  0  0
 32 31  2  0  0  0  0
 33 34  2  0  0  0  0
 36 35  1  0  0  0  0
 37 38  1  0  0  0  0
 38 39  1  0  0  0  0
 38 42  1  1  0  0  0
 39 36  1  0  0  0  0
 40 39  1  0  0  0  0
 41 44  1  6  0  0  0
 41 37  1  0  0  0  0
 41 40  1  0  0  0  0
 43 44  2  0  0  0  0
 45 44  1  0  0  0  0
 46 45  1  0  0  0  0
 46 50  1  0  0  0  0
 47 49  1  0  0  0  0
 48 47  2  0  0  0  0
 50 47  1  0  0  0  0
M  END
>  <MODEL>
3

>  <REMARK>
 VINA RESULT:      -7.7      2.367      3.698
  Name = 
  15 active torsions:
  status: ('A' for Active; 'I' for Inactive)
    1  A    between atoms: C_2  and  C_5
    2  A    between atoms: C_2  and  C_27
    3  A    between atoms: C_9  and  C_11
    4  A    between atoms: C_12  and  C_31
    5  A    between atoms: C_12  and  C_46
    6  A    between atoms: C_18  and  C_25
    7  A    between atoms: N_24  and  S_30
    8  A    between atoms: C_26  and  N_41
    9  A    between atoms: C_26  and  C_43
   10  A    between atoms: C_27  and  N_41
   11  A    between atoms: N_29  and  C_31
   12  A    between atoms: C_32  and  N_38
   13  A    between atoms: C_32  and  O_39
   14  A    between atoms: C_35  and  C_37
   15  A    between atoms: C_35  and  O_39
                            x       y       z     vdW  Elec       q    Type
                         _______ _______ _______ _____ _____    ______ ____

>  <TORSDO>
F 15

$$$$
=
 OpenBabel11032421093D

 50 54  0  0  1  0  0  0  0  0999 V2000
  186.8180  177.5710  145.5640 C   0  0  0  0  0  0  0  0  0  0  0  0
  188.4870  177.6850  143.9100 C   0  0  2  0  0  3  0  0  0  0  0  0
  184.9740  178.0370  143.7330 C   0  0  0  0  0  0  0  0  0  0  0  0
  186.1630  177.5440  146.7890 O   0  0  0  0  0  1  0  0  0  0  0  0
  186.2130  177.6800  144.2560 C   0  0  0  0  0  0  0  0  0  0  0  0
  188.1480  177.5520  145.3870 C   0  0  0  0  0  0  0  0  0  0  0  0
  187.3000  178.5440  140.9310 C   0  0  0  0  0  2  0  0  0  0  0  0
  185.2340  178.3040  142.3880 C   0  0  0  0  0  0  0  0  0  0  0  0
  187.1530  177.7140  143.3260 N   0  0  0  0  0  0  0  0  0  0  0  0
  186.5910  178.1090  142.1730 C   0  0  0  0  0  0  0  0  0  0  0  0
  184.2880  178.7910  141.3310 C   0  0  1  0  0  3  0  0  0  0  0  0
  186.3050  178.5850  139.7660 C   0  0  0  0  0  2  0  0  0  0  0  0
  185.0540  179.4010  140.1380 C   0  0  0  0  0  2  0  0  0  0  0  0
  189.9110  178.2140  148.6780 C   0  0  0  0  0  3  0  0  0  0  0  0
  190.3040  176.7610  146.3160 C   0  0  0  0  0  3  0  0  0  0  0  0
  191.0780  177.4650  148.5000 C   0  0  0  0  0  3  0  0  0  0  0  0
  189.1400  177.5250  146.4770 C   0  0  0  0  0  0  0  0  0  0  0  0
  191.2720  176.7350  147.3200 C   0  0  0  0  0  3  0  0  0  0  0  0
  187.7730  178.9710  147.8900 O   0  0  0  0  0  1  0  0  0  0  0  0
  188.9390  178.2440  147.6750 C   0  0  0  0  0  0  0  0  0  0  0  0
  189.2880  176.4710  143.4250 C   0  0  1  0  0  3  0  0  0  0  0  0
  188.4610  175.5400  142.7920 O   0  0  0  0  0  1  0  0  0  0  0  0
  190.3990  176.9050  142.4830 C   0  0  0  0  0  2  0  0  0  0  0  0
  190.1840  176.3500  141.1550 N   0  0  0  0  0  2  0  0  0  0  0  0
  190.8520  177.2260  140.2050 C   0  0  0  0  0  2  0  0  0  0  0  0
  190.6160  175.4960  138.5880 O   0  0  0  0  0  0  0  0  0  0  0  0
  192.5580  176.7820  138.4040 N   0  0  0  0  0  2  0  0  0  0  0  0
  191.3170  176.4470  139.0250 C   0  0  0  0  0  0  0  0  0  0  0  0
  193.5310  174.2430  137.4840 C   0  0  0  0  0  1  0  0  0  0  0  0
  194.4070  176.5970  136.5260 O   0  0  0  0  0  0  0  0  0  0  0  0
  193.1670  175.9220  137.0330 S   0  0  0  0  0  0  0  0  0  0  0  0
  192.1270  175.9230  135.9500 O   0  0  0  0  0  0  0  0  0  0  0  0
  183.6830  178.2320  144.4120 C   0  0  0  0  0  3  0  0  0  0  0  0
  183.3380  179.3710  144.9920 C   0  0  0  0  0  2  0  0  0  0  0  0
  183.3740  177.6510  140.8950 C   0  0  0  0  0  2  0  0  0  0  0  0
  182.2810  178.1400  139.9510 C   0  0  0  0  0  2  0  0  0  0  0  0
  183.4880  177.5280  137.2490 O   0  0  0  0  0  0  0  0  0  0  0  0
  182.1340  177.5890  137.6070 C   0  0  1  0  0  3  0  0  0  0  0  0
  181.9590  177.0990  138.9750 N   0  0  0  0  0  0  0  0  0  0  0  0
  183.0170  176.1180  139.0800 C   0  0  0  0  0  2  0  0  0  0  0  0
  183.9960  176.4340  137.9640 C   0  0  1  0  0  3  0  0  0  0  0  0
  181.5490  178.9730  137.3510 C   0  0  0  0  0  1  0  0  0  0  0  0
  183.3550  175.0470  136.1410 O   0  0  0  0  0  0  0  0  0  0  0  0
  184.2100  175.2730  137.0400 C   0  0  0  0  0  0  0  0  0  0  0  0
  185.2960  174.4110  137.2220 O   0  0  0  0  0  0  0  0  0  0  0  0
  186.4530  174.4710  136.3950 C   0  0  0  0  0  2  0  0  0  0  0  0
  187.5330  176.7490  136.2850 C   0  0  0  0  0  0  0  0  0  0  0  0
  186.9140  177.0280  135.2230 O   0  0  0  0  0  0  0  0  0  0  0  0
  188.4030  177.7720  136.9140 C   0  0  0  0  0  1  0  0  0  0  0  0
  187.3760  175.4740  136.9100 N   0  0  0  0  0  2  0  0  0  0  0  0
  1  4  1  0  0  0  0
  2 21  1  6  0  0  0
  2  6  1  0  0  0  0
  3  5  2  0  0  0  0
  3 33  1  0  0  0  0
  5  1  1  0  0  0  0
  6  1  2  0  0  0  0
  6 17  1  0  0  0  0
  7 10  1  0  0  0  0
  8  3  1  0  0  0  0
  9  2  1  0  0  0  0
  9  5  1  0  0  0  0
 10  8  2  0  0  0  0
 10  9  1  0  0  0  0
 11 35  1  6  0  0  0
 11  8  1  0  0  0  0
 12 13  1  0  0  0  0
 12  7  1  0  0  0  0
 13 11  1  0  0  0  0
 15 17  2  0  0  0  0
 15 18  1  0  0  0  0
 16 14  1  0  0  0  0
 17 20  1  0  0  0  0
 18 16  2  0  0  0  0
 20 19  1  0  0  0  0
 20 14  2  0  0  0  0
 21 22  1  6  0  0  0
 23 21  1  0  0  0  0
 24 23  1  0  0  0  0
 25 24  1  0  0  0  0
 26 28  2  0  0  0  0
 27 28  1  0  0  0  0
 28 25  1  0  0  0  0
 30 31  2  0  0  0  0
 31 29  1  0  0  0  0
 31 27  1  0  0  0  0
 32 31  2  0  0  0  0
 33 34  2  0  0  0  0
 36 35  1  0  0  0  0
 37 38  1  0  0  0  0
 37 41  1  0  0  0  0
 38 42  1  1  0  0  0
 38 39  1  0  0  0  0
 39 40  1  0  0  0  0
 39 36  1  0  0  0  0
 41 44  1  6  0  0  0
 41 40  1  0  0  0  0
 43 44  2  0  0  0  0
 44 45  1  0  0  0  0
 46 50  1  0  0  0  0
 46 45  1  0  0  0  0
 47 50  1  0  0  0  0
 47 49  1  0  0  0  0
 48 47  2  0  0  0  0
M  END
>  <MODEL>
4

>  <REMARK>
 VINA RESULT:      -7.6      2.685      4.360
  Name = 
  15 active torsions:
  status: ('A' for Active; 'I' for Inactive)
    1  A    between atoms: C_2  and  C_5
    2  A    between atoms: C_2  and  C_27
    3  A    between atoms: C_9  and  C_11
    4  A    between atoms: C_12  and  C_31
    5  A    between atoms: C_12  and  C_46
    6  A    between atoms: C_18  and  C_25
    7  A    between atoms: N_24  and  S_30
    8  A    between atoms: C_26  and  N_41
    9  A    between atoms: C_26  and  C_43
   10  A    between atoms: C_27  and  N_41
   11  A    between atoms: N_29  and  C_31
   12  A    between atoms: C_32  and  N_38
   13  A    between atoms: C_32  and  O_39
   14  A    between atoms: C_35  and  C_37
   15  A    between atoms: C_35  and  O_39
                            x       y       z     vdW  Elec       q    Type
                         _______ _______ _______ _____ _____    ______ ____

>  <TORSDO>
F 15

$$$$
=
 OpenBabel11032421093D

 50 54  0  0  1  0  0  0  0  0999 V2000
  192.0590  176.5300  137.8750 C   0  0  0  0  0  0  0  0  0  0  0  0
  191.4710  176.0010  135.6600 C   0  0  2  0  0  3  0  0  0  0  0  0
  189.6680  177.5830  138.2560 C   0  0  0  0  0  0  0  0  0  0  0  0
  192.7870  176.7690  139.0350 O   0  0  0  0  0  1  0  0  0  0  0  0
  190.6610  176.8180  137.6510 C   0  0  0  0  0  0  0  0  0  0  0  0
  192.5520  176.0320  136.7310 C   0  0  0  0  0  0  0  0  0  0  0  0
  188.4800  177.1580  134.8030 C   0  0  0  0  0  2  0  0  0  0  0  0
  188.6840  177.7080  137.2740 C   0  0  0  0  0  0  0  0  0  0  0  0
  190.3260  176.4920  136.4130 N   0  0  0  0  0  0  0  0  0  0  0  0
  189.1280  177.0350  136.1440 C   0  0  0  0  0  0  0  0  0  0  0  0
  187.3980  178.4770  137.3300 C   0  0  1  0  0  3  0  0  0  0  0  0
  187.0030  177.5250  134.9850 C   0  0  0  0  0  2  0  0  0  0  0  0
  186.8480  178.7440  135.9130 C   0  0  0  0  0  2  0  0  0  0  0  0
  195.9030  174.2700  136.9270 C   0  0  0  0  0  3  0  0  0  0  0  0
  194.7320  176.4650  135.6390 C   0  0  0  0  0  3  0  0  0  0  0  0
  196.6660  175.0730  136.0730 C   0  0  0  0  0  3  0  0  0  0  0  0
  193.9640  175.6780  136.5080 C   0  0  0  0  0  0  0  0  0  0  0  0
  196.0790  176.1680  135.4260 C   0  0  0  0  0  3  0  0  0  0  0  0
  193.8100  173.7310  137.9720 O   0  0  0  0  0  1  0  0  0  0  0  0
  194.5550  174.5640  137.1440 C   0  0  0  0  0  0  0  0  0  0  0  0
  191.2440  174.5700  135.1600 C   0  0  1  0  0  3  0  0  0  0  0  0
  192.4070  174.0400  134.5960 O   0  0  0  0  0  1  0  0  0  0  0  0
  190.7630  173.6780  136.2920 C   0  0  0  0  0  2  0  0  0  0  0  0
  189.8290  172.6810  135.7910 N   0  0  0  0  0  2  0  0  0  0  0  0
  188.9020  173.3620  134.9000 C   0  0  0  0  0  2  0  0  0  0  0  0
  187.0100  171.9400  135.1450 O   0  0  0  0  0  0  0  0  0  0  0  0
  186.7150  174.1380  135.8810 N   0  0  0  0  0  2  0  0  0  0  0  0
  187.4980  173.0900  135.3100 C   0  0  0  0  0  0  0  0  0  0  0  0
  185.0320  172.9870  137.9010 C   0  0  0  0  0  1  0  0  0  0  0  0
  184.3290  173.1540  135.3120 O   0  0  0  0  0  0  0  0  0  0  0  0
  185.0760  173.9000  136.3780 S   0  0  0  0  0  0  0  0  0  0  0  0
  184.4270  175.2370  136.5910 O   0  0  0  0  0  0  0  0  0  0  0  0
  189.6540  178.2430  139.5720 C   0  0  0  0  0  3  0  0  0  0  0  0
  189.3360  177.6120  140.6920 C   0  0  0  0  0  2  0  0  0  0  0  0
  186.3910  177.7300  138.1980 C   0  0  0  0  0  2  0  0  0  0  0  0
  185.0070  178.3650  138.1230 C   0  0  0  0  0  2  0  0  0  0  0  0
  183.0340  178.4820  140.4100 O   0  0  0  0  0  0  0  0  0  0  0  0
  183.4360  179.5140  139.5500 C   0  0  1  0  0  3  0  0  0  0  0  0
  184.8470  179.3460  139.1970 N   0  0  0  0  0  0  0  0  0  0  0  0
  185.3800  178.7180  140.3860 C   0  0  0  0  0  2  0  0  0  0  0  0
  184.1880  178.1560  141.1370 C   0  0  1  0  0  3  0  0  0  0  0  0
  182.4980  179.6450  138.3560 C   0  0  0  0  0  1  0  0  0  0  0  0
  182.9350  178.9220  143.0090 O   0  0  0  0  0  0  0  0  0  0  0  0
  184.0800  178.6920  142.5330 C   0  0  0  0  0  0  0  0  0  0  0  0
  185.2310  179.0050  143.2640 O   0  0  0  0  0  0  0  0  0  0  0  0
  186.1200  178.0010  143.7370 C   0  0  0  0  0  2  0  0  0  0  0  0
  187.4560  177.6020  145.8420 C   0  0  0  0  0  0  0  0  0  0  0  0
  188.3000  176.9080  145.2150 O   0  0  0  0  0  0  0  0  0  0  0  0
  187.6650  177.8840  147.2830 C   0  0  0  0  0  1  0  0  0  0  0  0
  186.3200  178.1540  145.1730 N   0  0  0  0  0  2  0  0  0  0  0  0
  1  4  1  0  0  0  0
  2 21  1  1  0  0  0
  2  9  1  0  0  0  0
  2  6  1  0  0  0  0
  3 33  1  0  0  0  0
  5  1  1  0  0  0  0
  5  3  2  0  0  0  0
  6  1  2  0  0  0  0
  7 12  1  0  0  0  0
  7 10  1  0  0  0  0
  8 11  1  0  0  0  0
  8  3  1  0  0  0  0
  9  5  1  0  0  0  0
 10  9  1  0  0  0  0
 10  8  2  0  0  0  0
 11 35  1  1  0  0  0
 12 13  1  0  0  0  0
 13 11  1  0  0  0  0
 14 20  1  0  0  0  0
 15 17  1  0  0  0  0
 16 14  2  0  0  0  0
 17  6  1  0  0  0  0
 17 20  2  0  0  0  0
 18 15  2  0  0  0  0
 18 16  1  0  0  0  0
 20 19  1  0  0  0  0
 21 22  1  1  0  0  0
 21 23  1  0  0  0  0
 24 23  1  0  0  0  0
 25 28  1  0  0  0  0
 25 24  1  0  0  0  0
 26 28  2  0  0  0  0
 27 31  1  0  0  0  0
 28 27  1  0  0  0  0
 30 31  2  0  0  0  0
 31 32  2  0  0  0  0
 31 29  1  0  0  0  0
 33 34  2  0  0  0  0
 36 35  1  0  0  0  0
 36 39  1  0  0  0  0
 37 41  1  0  0  0  0
 38 42  1  6  0  0  0
 38 37  1  0  0  0  0
 39 38  1  0  0  0  0
 39 40  1  0  0  0  0
 40 41  1  0  0  0  0
 41 44  1  1  0  0  0
 44 43  2  0  0  0  0
 44 45  1  0  0  0  0
 45 46  1  0  0  0  0
 46 50  1  0  0  0  0
 47 49  1  0  0  0  0
 48 47  2  0  0  0  0
 50 47  1  0  0  0  0
M  END
>  <MODEL>
5

>  <REMARK>
 VINA RESULT:      -7.5      3.791      8.463
  Name = 
  15 active torsions:
  status: ('A' for Active; 'I' for Inactive)
    1  A    between atoms: C_2  and  C_5
    2  A    between atoms: C_2  and  C_27
    3  A    between atoms: C_9  and  C_11
    4  A    between atoms: C_12  and  C_31
    5  A    between atoms: C_12  and  C_46
    6  A    between atoms: C_18  and  C_25
    7  A    between atoms: N_24  and  S_30
    8  A    between atoms: C_26  and  N_41
    9  A    between atoms: C_26  and  C_43
   10  A    between atoms: C_27  and  N_41
   11  A    between atoms: N_29  and  C_31
   12  A    between atoms: C_32  and  N_38
   13  A    between atoms: C_32  and  O_39
   14  A    between atoms: C_35  and  C_37
   15  A    between atoms: C_35  and  O_39
                            x       y       z     vdW  Elec       q    Type
                         _______ _______ _______ _____ _____    ______ ____

>  <TORSDO>
F 15

$$$$
=
 OpenBabel11032421093D

 50 54  0  0  1  0  0  0  0  0999 V2000
  192.9610  176.3450  138.8360 C   0  0  0  0  0  0  0  0  0  0  0  0
  191.3360  176.2410  137.1380 C   0  0  2  0  0  3  0  0  0  0  0  0
  191.1190  177.1490  140.5480 C   0  0  0  0  0  0  0  0  0  0  0  0
  194.1750  176.3880  139.5110 O   0  0  0  0  0  1  0  0  0  0  0  0
  191.6490  176.5860  139.3910 C   0  0  0  0  0  0  0  0  0  0  0  0
  192.8040  176.1210  137.5220 C   0  0  0  0  0  0  0  0  0  0  0  0
  188.3680  177.3610  138.1170 C   0  0  0  0  0  2  0  0  0  0  0  0
  189.7870  177.4100  140.2230 C   0  0  0  0  0  0  0  0  0  0  0  0
  190.7340  176.4970  138.4390 N   0  0  0  0  0  0  0  0  0  0  0  0
  189.5850  177.0080  138.9110 C   0  0  0  0  0  0  0  0  0  0  0  0
  188.7320  178.0700  141.0600 C   0  0  1  0  0  3  0  0  0  0  0  0
  187.1910  177.5910  139.0710 C   0  0  0  0  0  2  0  0  0  0  0  0
  187.5690  178.5840  140.1850 C   0  0  0  0  0  2  0  0  0  0  0  0
  195.5270  174.4650  135.4680 C   0  0  0  0  0  3  0  0  0  0  0  0
  194.3990  177.0010  135.8450 C   0  0  0  0  0  3  0  0  0  0  0  0
  196.0240  175.5660  134.7660 C   0  0  0  0  0  3  0  0  0  0  0  0
  193.9060  175.9070  136.5690 C   0  0  0  0  0  0  0  0  0  0  0  0
  195.4570  176.8350  134.9520 C   0  0  0  0  0  3  0  0  0  0  0  0
  193.9690  173.5100  137.0270 O   0  0  0  0  0  1  0  0  0  0  0  0
  194.4670  174.6280  136.3650 C   0  0  0  0  0  0  0  0  0  0  0  0
  190.8250  174.9290  136.5300 C   0  0  1  0  0  3  0  0  0  0  0  0
  190.1460  174.1620  137.4790 O   0  0  0  0  0  1  0  0  0  0  0  0
  189.9190  175.2080  135.3430 C   0  0  0  0  0  2  0  0  0  0  0  0
  188.9600  174.1270  135.1710 N   0  0  0  0  0  2  0  0  0  0  0  0
  187.6690  174.7340  134.8860 C   0  0  0  0  0  2  0  0  0  0  0  0
  186.8700  174.1730  137.0570 O   0  0  0  0  0  0  0  0  0  0  0  0
  185.3910  173.7390  135.3000 N   0  0  0  0  0  2  0  0  0  0  0  0
  186.6360  174.2070  135.8180 C   0  0  0  0  0  0  0  0  0  0  0  0
  184.0870  171.3400  136.1840 C   0  0  0  0  0  1  0  0  0  0  0  0
  182.8220  173.6960  135.9170 O   0  0  0  0  0  0  0  0  0  0  0  0
  184.1430  173.1100  136.3190 S   0  0  0  0  0  0  0  0  0  0  0  0
  184.4360  173.4830  137.7440 O   0  0  0  0  0  0  0  0  0  0  0  0
  191.7850  177.5260  141.8050 C   0  0  0  0  0  3  0  0  0  0  0  0
  191.7650  176.7650  142.8880 C   0  0  0  0  0  2  0  0  0  0  0  0
  188.2470  177.1020  142.1340 C   0  0  0  0  0  2  0  0  0  0  0  0
  186.8620  177.4810  142.6460 C   0  0  0  0  0  2  0  0  0  0  0  0
  185.3260  177.8670  145.2200 O   0  0  0  0  0  0  0  0  0  0  0  0
  185.6650  178.8240  144.2540 C   0  0  1  0  0  3  0  0  0  0  0  0
  186.9740  178.5100  143.6800 N   0  0  0  0  0  0  0  0  0  0  0  0
  187.6450  177.8780  144.7950 C   0  0  0  0  0  2  0  0  0  0  0  0
  186.5530  177.4590  145.7610 C   0  0  1  0  0  3  0  0  0  0  0  0
  184.5520  179.0020  143.2270 C   0  0  0  0  0  1  0  0  0  0  0  0
  185.9830  179.0020  147.4790 O   0  0  0  0  0  0  0  0  0  0  0  0
  186.7330  178.0520  147.1260 C   0  0  0  0  0  0  0  0  0  0  0  0
  187.7650  177.6110  147.9620 O   0  0  0  0  0  0  0  0  0  0  0  0
  188.9910  178.3230  148.0850 C   0  0  0  0  0  2  0  0  0  0  0  0
  190.8320  176.9740  147.0070 C   0  0  0  0  0  0  0  0  0  0  0  0
  190.4970  177.3720  145.8590 O   0  0  0  0  0  0  0  0  0  0  0  0
  192.0210  176.1020  147.1610 C   0  0  0  0  0  1  0  0  0  0  0  0
  190.1020  177.3820  148.1650 N   0  0  0  0  0  2  0  0  0  0  0  0
  1  5  1  0  0  0  0
  1  4  1  0  0  0  0
  2 21  1  1  0  0  0
  2  6  1  0  0  0  0
  2  9  1  0  0  0  0
  3 33  1  0  0  0  0
  5  3  2  0  0  0  0
  6  1  2  0  0  0  0
  7 10  1  0  0  0  0
  7 12  1  0  0  0  0
  8  3  1  0  0  0  0
  8 11  1  0  0  0  0
  9 10  1  0  0  0  0
  9  5  1  0  0  0  0
 10  8  2  0  0  0  0
 11 35  1  1  0  0  0
 12 13  1  0  0  0  0
 13 11  1  0  0  0  0
 14 20  1  0  0  0  0
 15 17  1  0  0  0  0
 16 18  1  0  0  0  0
 16 14  2  0  0  0  0
 17  6  1  0  0  0  0
 18 15  2  0  0  0  0
 20 17  2  0  0  0  0
 20 19  1  0  0  0  0
 21 22  1  1  0  0  0
 23 21  1  0  0  0  0
 24 23  1  0  0  0  0
 25 24  1  0  0  0  0
 25 28  1  0  0  0  0
 27 28  1  0  0  0  0
 27 31  1  0  0  0  0
 28 26  2  0  0  0  0
 29 31  1  0  0  0  0
 30 31  2  0  0  0  0
 31 32  2  0  0  0  0
 33 34  2  0  0  0  0
 35 36  1  0  0  0  0
 36 39  1  0  0  0  0
 37 41  1  0  0  0  0
 38 42  1  6  0  0  0
 38 37  1  0  0  0  0
 39 38  1  0  0  0  0
 39 40  1  0  0  0  0
 40 41  1  0  0  0  0
 41 44  1  1  0  0  0
 44 43  2  0  0  0  0
 44 45  1  0  0  0  0
 45 46  1  0  0  0  0
 46 50  1  0  0  0  0
 47 49  1  0  0  0  0
 47 50  1  0  0  0  0
 48 47  2  0  0  0  0
M  END
>  <MODEL>
6

>  <REMARK>
 VINA RESULT:      -7.4      4.442      9.400
  Name = 
  15 active torsions:
  status: ('A' for Active; 'I' for Inactive)
    1  A    between atoms: C_2  and  C_5
    2  A    between atoms: C_2  and  C_27
    3  A    between atoms: C_9  and  C_11
    4  A    between atoms: C_12  and  C_31
    5  A    between atoms: C_12  and  C_46
    6  A    between atoms: C_18  and  C_25
    7  A    between atoms: N_24  and  S_30
    8  A    between atoms: C_26  and  N_41
    9  A    between atoms: C_26  and  C_43
   10  A    between atoms: C_27  and  N_41
   11  A    between atoms: N_29  and  C_31
   12  A    between atoms: C_32  and  N_38
   13  A    between atoms: C_32  and  O_39
   14  A    between atoms: C_35  and  C_37
   15  A    between atoms: C_35  and  O_39
                            x       y       z     vdW  Elec       q    Type
                         _______ _______ _______ _____ _____    ______ ____

>  <TORSDO>
F 15

$$$$
=
 OpenBabel11032421093D

 50 54  0  0  1  0  0  0  0  0999 V2000
  186.2450  177.8100  145.4020 C   0  0  0  0  0  0  0  0  0  0  0  0
  188.0710  177.8960  143.9220 C   0  0  2  0  0  3  0  0  0  0  0  0
  184.5890  178.1750  143.3780 C   0  0  0  0  0  0  0  0  0  0  0  0
  185.4680  177.8160  146.5550 O   0  0  0  0  0  1  0  0  0  0  0  0
  185.7740  177.8600  144.0370 C   0  0  0  0  0  0  0  0  0  0  0  0
  187.5860  177.8100  145.3620 C   0  0  0  0  0  0  0  0  0  0  0  0
  187.1810  178.6240  140.8080 C   0  0  0  0  0  2  0  0  0  0  0  0
  184.9810  178.3980  142.0570 C   0  0  0  0  0  0  0  0  0  0  0  0
  186.8040  177.8790  143.2060 N   0  0  0  0  0  0  0  0  0  0  0  0
  186.3550  178.2210  141.9870 C   0  0  0  0  0  0  0  0  0  0  0  0
  184.1400  178.8280  140.8920 C   0  0  1  0  0  3  0  0  0  0  0  0
  186.3080  178.6030  139.5480 C   0  0  0  0  0  2  0  0  0  0  0  0
  185.0140  179.4080  139.7600 C   0  0  0  0  0  2  0  0  0  0  0  0
  188.9960  178.6270  148.7860 C   0  0  0  0  0  3  0  0  0  0  0  0
  189.6460  177.0920  146.5350 C   0  0  0  0  0  3  0  0  0  0  0  0
  190.1840  177.8920  148.7570 C   0  0  0  0  0  3  0  0  0  0  0  0
  188.4620  177.8420  146.5460 C   0  0  0  0  0  0  0  0  0  0  0  0
  190.5070  177.1210  147.6320 C   0  0  0  0  0  3  0  0  0  0  0  0
  186.9390  179.3170  147.7560 O   0  0  0  0  0  1  0  0  0  0  0  0
  188.1310  178.6020  147.6890 C   0  0  0  0  0  0  0  0  0  0  0  0
  188.9350  176.6810  143.5670 C   0  0  1  0  0  3  0  0  0  0  0  0
  188.1940  175.7160  142.8810 O   0  0  0  0  0  1  0  0  0  0  0  0
  190.1350  177.1020  142.7360 C   0  0  0  0  0  2  0  0  0  0  0  0
  190.1890  176.3390  141.4990 N   0  0  0  0  0  2  0  0  0  0  0  0
  190.6980  177.2250  140.4630 C   0  0  0  0  0  2  0  0  0  0  0  0
  190.6180  175.6020  138.7230 O   0  0  0  0  0  0  0  0  0  0  0  0
  189.4740  177.5940  138.2910 N   0  0  0  0  0  2  0  0  0  0  0  0
  190.2700  176.7470  139.1200 C   0  0  0  0  0  0  0  0  0  0  0  0
  187.8550  175.7120  136.8510 C   0  0  0  0  0  1  0  0  0  0  0  0
  190.1280  176.7600  135.8710 O   0  0  0  0  0  0  0  0  0  0  0  0
  188.9410  177.1110  136.7180 S   0  0  0  0  0  0  0  0  0  0  0  0
  188.1980  178.2490  136.0800 O   0  0  0  0  0  0  0  0  0  0  0  0
  183.2330  178.3690  143.9150 C   0  0  0  0  0  3  0  0  0  0  0  0
  182.9100  179.3780  144.7100 C   0  0  0  0  0  2  0  0  0  0  0  0
  183.2930  177.6560  140.4090 C   0  0  0  0  0  2  0  0  0  0  0  0
  181.8540  178.0800  140.1360 C   0  0  0  0  0  2  0  0  0  0  0  0
  180.1260  176.7570  138.0390 O   0  0  0  0  0  0  0  0  0  0  0  0
  179.7950  177.0900  139.3590 C   0  0  1  0  0  3  0  0  0  0  0  0
  180.9640  176.9210  140.2230 N   0  0  0  0  0  0  0  0  0  0  0  0
  181.6640  175.8370  139.5710 C   0  0  0  0  0  2  0  0  0  0  0  0
  181.1130  175.7690  138.1590 C   0  0  1  0  0  3  0  0  0  0  0  0
  179.1410  178.4650  139.4430 C   0  0  0  0  0  1  0  0  0  0  0  0
  179.9750  173.7640  138.7460 O   0  0  0  0  0  0  0  0  0  0  0  0
  180.5350  174.4250  137.8300 C   0  0  0  0  0  0  0  0  0  0  0  0
  180.6830  173.8820  136.5490 O   0  0  0  0  0  0  0  0  0  0  0  0
  181.9410  173.8520  135.8850 C   0  0  0  0  0  2  0  0  0  0  0  0
  184.3380  173.5390  136.6110 C   0  0  0  0  0  0  0  0  0  0  0  0
  184.7520  174.2790  135.6800 O   0  0  0  0  0  0  0  0  0  0  0  0
  185.3030  172.9890  137.5930 C   0  0  0  0  0  1  0  0  0  0  0  0
  182.9450  173.2530  136.7550 N   0  0  0  0  0  2  0  0  0  0  0  0
  1  4  1  0  0  0  0
  2 21  1  6  0  0  0
  2  6  1  0  0  0  0
  3 33  1  0  0  0  0
  3  5  2  0  0  0  0
  5  1  1  0  0  0  0
  6  1  2  0  0  0  0
  6 17  1  0  0  0  0
  7 10  1  0  0  0  0
  8  3  1  0  0  0  0
  9  2  1  0  0  0  0
  9  5  1  0  0  0  0
 10  8  2  0  0  0  0
 10  9  1  0  0  0  0
 11 35  1  6  0  0  0
 11  8  1  0  0  0  0
 12 13  1  0  0  0  0
 12  7  1  0  0  0  0
 13 11  1  0  0  0  0
 15 17  2  0  0  0  0
 15 18  1  0  0  0  0
 16 14  1  0  0  0  0
 17 20  1  0  0  0  0
 18 16  2  0  0  0  0
 20 19  1  0  0  0  0
 20 14  2  0  0  0  0
 21 22  1  6  0  0  0
 23 21  1  0  0  0  0
 24 23  1  0  0  0  0
 25 24  1  0  0  0  0
 26 28  2  0  0  0  0
 27 28  1  0  0  0  0
 28 25  1  0  0  0  0
 30 31  2  0  0  0  0
 31 29  1  0  0  0  0
 31 27  1  0  0  0  0
 32 31  2  0  0  0  0
 33 34  2  0  0  0  0
 36 39  1  0  0  0  0
 36 35  1  0  0  0  0
 37 41  1  0  0  0  0
 37 38  1  0  0  0  0
 38 42  1  6  0  0  0
 38 39  1  0  0  0  0
 40 39  1  0  0  0  0
 41 44  1  1  0  0  0
 41 40  1  0  0  0  0
 44 43  2  0  0  0  0
 45 44  1  0  0  0  0
 46 45  1  0  0  0  0
 46 50  1  0  0  0  0
 47 50  1  0  0  0  0
 47 49  1  0  0  0  0
 48 47  2  0  0  0  0
M  END
>  <MODEL>
7

>  <REMARK>
 VINA RESULT:      -7.3      2.779      4.335
  Name = 
  15 active torsions:
  status: ('A' for Active; 'I' for Inactive)
    1  A    between atoms: C_2  and  C_5
    2  A    between atoms: C_2  and  C_27
    3  A    between atoms: C_9  and  C_11
    4  A    between atoms: C_12  and  C_31
    5  A    between atoms: C_12  and  C_46
    6  A    between atoms: C_18  and  C_25
    7  A    between atoms: N_24  and  S_30
    8  A    between atoms: C_26  and  N_41
    9  A    between atoms: C_26  and  C_43
   10  A    between atoms: C_27  and  N_41
   11  A    between atoms: N_29  and  C_31
   12  A    between atoms: C_32  and  N_38
   13  A    between atoms: C_32  and  O_39
   14  A    between atoms: C_35  and  C_37
   15  A    between atoms: C_35  and  O_39
                            x       y       z     vdW  Elec       q    Type
                         _______ _______ _______ _____ _____    ______ ____

>  <TORSDO>
F 15

$$$$
=
 OpenBabel11032421093D

 50 54  0  0  1  0  0  0  0  0999 V2000
  193.1310  176.3970  138.7290 C   0  0  0  0  0  0  0  0  0  0  0  0
  191.5790  176.4030  136.9610 C   0  0  2  0  0  3  0  0  0  0  0  0
  191.2320  177.1680  140.3950 C   0  0  0  0  0  0  0  0  0  0  0  0
  194.3150  176.3830  139.4570 O   0  0  0  0  0  1  0  0  0  0  0  0
  191.8000  176.6430  139.2380 C   0  0  0  0  0  0  0  0  0  0  0  0
  193.0260  176.2340  137.4020 C   0  0  0  0  0  0  0  0  0  0  0  0
  188.5950  177.5460  137.8610 C   0  0  0  0  0  2  0  0  0  0  0  0
  189.9210  177.4720  140.0260 C   0  0  0  0  0  0  0  0  0  0  0  0
  190.9260  176.6160  138.2450 N   0  0  0  0  0  0  0  0  0  0  0  0
  189.7690  177.1320  138.6890 C   0  0  0  0  0  0  0  0  0  0  0  0
  188.8450  178.1190  140.8450 C   0  0  1  0  0  3  0  0  0  0  0  0
  187.3820  177.7610  138.7740 C   0  0  0  0  0  2  0  0  0  0  0  0
  187.7320  178.6960  139.9450 C   0  0  0  0  0  2  0  0  0  0  0  0
  196.0170  174.7080  135.6420 C   0  0  0  0  0  3  0  0  0  0  0  0
  194.4830  177.0500  135.5720 C   0  0  0  0  0  3  0  0  0  0  0  0
  196.3390  175.7320  134.7470 C   0  0  0  0  0  3  0  0  0  0  0  0
  194.1640  176.0360  136.4870 C   0  0  0  0  0  0  0  0  0  0  0  0
  195.5690  176.9020  134.7100 C   0  0  0  0  0  3  0  0  0  0  0  0
  194.6120  173.8050  137.3670 O   0  0  0  0  0  1  0  0  0  0  0  0
  194.9310  174.8510  136.5090 C   0  0  0  0  0  0  0  0  0  0  0  0
  191.0680  175.1310  136.2750 C   0  0  1  0  0  3  0  0  0  0  0  0
  192.0470  174.5730  135.4490 O   0  0  0  0  0  1  0  0  0  0  0  0
  190.6170  174.1110  137.3060 C   0  0  0  0  0  2  0  0  0  0  0  0
  189.4090  173.4350  136.8570 N   0  0  0  0  0  2  0  0  0  0  0  0
  188.6950  174.3540  135.9850 C   0  0  0  0  0  2  0  0  0  0  0  0
  186.8530  173.2170  134.9950 O   0  0  0  0  0  0  0  0  0  0  0  0
  186.3440  174.5020  136.8790 N   0  0  0  0  0  2  0  0  0  0  0  0
  187.2560  173.9820  135.9120 C   0  0  0  0  0  0  0  0  0  0  0  0
  184.4310  172.3730  137.0950 C   0  0  0  0  0  1  0  0  0  0  0  0
  184.0620  174.5390  135.5470 O   0  0  0  0  0  0  0  0  0  0  0  0
  184.6570  174.1190  136.8590 S   0  0  0  0  0  0  0  0  0  0  0  0
  183.9710  174.8570  137.9710 O   0  0  0  0  0  0  0  0  0  0  0  0
  191.8510  177.4750  141.6950 C   0  0  0  0  0  3  0  0  0  0  0  0
  191.6740  176.7260  142.7720 C   0  0  0  0  0  2  0  0  0  0  0  0
  188.2940  177.1160  141.8540 C   0  0  0  0  0  2  0  0  0  0  0  0
  187.9860  177.7790  143.1910 C   0  0  0  0  0  2  0  0  0  0  0  0
  186.1010  178.8340  145.3060 O   0  0  0  0  0  0  0  0  0  0  0  0
  186.6550  177.5510  145.1910 C   0  0  1  0  0  3  0  0  0  0  0  0
  186.7830  177.1890  143.7790 N   0  0  0  0  0  0  0  0  0  0  0  0
  185.6680  177.8940  143.1870 C   0  0  0  0  0  2  0  0  0  0  0  0
  185.2630  178.9600  144.1890 C   0  0  1  0  0  3  0  0  0  0  0  0
  187.9440  177.4240  145.9950 C   0  0  0  0  0  1  0  0  0  0  0  0
  183.5370  179.0040  145.8250 O   0  0  0  0  0  0  0  0  0  0  0  0
  183.8290  178.8410  144.6090 C   0  0  0  0  0  0  0  0  0  0  0  0
  182.8450  178.4790  143.6830 O   0  0  0  0  0  0  0  0  0  0  0  0
  181.7180  179.3050  143.4190 C   0  0  0  0  0  2  0  0  0  0  0  0
  181.5800  178.4850  141.0360 C   0  0  0  0  0  0  0  0  0  0  0  0
  182.7960  178.7500  140.8390 O   0  0  0  0  0  0  0  0  0  0  0  0
  180.7890  177.8360  139.9620 C   0  0  0  0  0  1  0  0  0  0  0  0
  180.9630  178.7680  142.2930 N   0  0  0  0  0  2  0  0  0  0  0  0
  1  5  1  0  0  0  0
  1  4  1  0  0  0  0
  2 21  1  1  0  0  0
  2  6  1  0  0  0  0
  2  9  1  0  0  0  0
  3 33  1  0  0  0  0
  5  3  2  0  0  0  0
  6  1  2  0  0  0  0
  7 10  1  0  0  0  0
  7 12  1  0  0  0  0
  8  3  1  0  0  0  0
  8 11  1  0  0  0  0
  9 10  1  0  0  0  0
  9  5  1  0  0  0  0
 10  8  2  0  0  0  0
 11 35  1  1  0  0  0
 12 13  1  0  0  0  0
 13 11  1  0  0  0  0
 14 20  1  0  0  0  0
 15 17  1  0  0  0  0
 16 14  2  0  0  0  0
 17 20  2  0  0  0  0
 17  6  1  0  0  0  0
 18 16  1  0  0  0  0
 18 15  2  0  0  0  0
 20 19  1  0  0  0  0
 21 22  1  1  0  0  0
 21 23  1  0  0  0  0
 24 23  1  0  0  0  0
 25 24  1  0  0  0  0
 26 28  2  0  0  0  0
 28 25  1  0  0  0  0
 28 27  1  0  0  0  0
 30 31  2  0  0  0  0
 31 27  1  0  0  0  0
 31 29  1  0  0  0  0
 31 32  2  0  0  0  0
 33 34  2  0  0  0  0
 35 36  1  0  0  0  0
 36 39  1  0  0  0  0
 38 37  1  0  0  0  0
 38 42  1  6  0  0  0
 39 38  1  0  0  0  0
 40 39  1  0  0  0  0
 40 41  1  0  0  0  0
 41 44  1  1  0  0  0
 41 37  1  0  0  0  0
 44 43  2  0  0  0  0
 45 44  1  0  0  0  0
 46 45  1  0  0  0  0
 47 50  1  0  0  0  0
 48 47  2  0  0  0  0
 49 47  1  0  0  0  0
 50 46  1  0  0  0  0
M  END
>  <MODEL>
8

>  <REMARK>
 VINA RESULT:      -7.3      3.600      7.938
  Name = 
  15 active torsions:
  status: ('A' for Active; 'I' for Inactive)
    1  A    between atoms: C_2  and  C_5
    2  A    between atoms: C_2  and  C_27
    3  A    between atoms: C_9  and  C_11
    4  A    between atoms: C_12  and  C_31
    5  A    between atoms: C_12  and  C_46
    6  A    between atoms: C_18  and  C_25
    7  A    between atoms: N_24  and  S_30
    8  A    between atoms: C_26  and  N_41
    9  A    between atoms: C_26  and  C_43
   10  A    between atoms: C_27  and  N_41
   11  A    between atoms: N_29  and  C_31
   12  A    between atoms: C_32  and  N_38
   13  A    between atoms: C_32  and  O_39
   14  A    between atoms: C_35  and  C_37
   15  A    between atoms: C_35  and  O_39
                            x       y       z     vdW  Elec       q    Type
                         _______ _______ _______ _____ _____    ______ ____

>  <TORSDO>
F 15

$$$$
=
 OpenBabel11032421093D

 50 54  0  0  1  0  0  0  0  0999 V2000
  183.4460  178.1180  137.8820 C   0  0  0  0  0  0  0  0  0  0  0  0
  184.6280  179.2190  139.5930 C   0  0  2  0  0  3  0  0  0  0  0  0
  185.6930  177.0130  137.0430 C   0  0  0  0  0  0  0  0  0  0  0  0
  182.4600  177.7480  136.9750 O   0  0  0  0  0  1  0  0  0  0  0  0
  184.8180  177.6640  137.9080 C   0  0  0  0  0  0  0  0  0  0  0  0
  183.3040  179.0140  138.8700 C   0  0  0  0  0  0  0  0  0  0  0  0
  187.9090  178.7530  139.4050 C   0  0  0  0  0  2  0  0  0  0  0  0
  186.9570  177.2700  137.5770 C   0  0  0  0  0  0  0  0  0  0  0  0
  185.4720  178.2630  138.8890 N   0  0  0  0  0  0  0  0  0  0  0  0
  186.7860  178.0550  138.7080 C   0  0  0  0  0  0  0  0  0  0  0  0
  188.2980  176.8700  137.0390 C   0  0  1  0  0  3  0  0  0  0  0  0
  189.2150  177.9900  139.1510 C   0  0  0  0  0  2  0  0  0  0  0  0
  189.4220  177.7350  137.6480 C   0  0  0  0  0  2  0  0  0  0  0  0
  179.8810  179.9970  140.1730 C   0  0  0  0  0  3  0  0  0  0  0  0
  181.9300  181.0550  138.5830 C   0  0  0  0  0  3  0  0  0  0  0  0
  179.7400  181.2610  139.5950 C   0  0  0  0  0  3  0  0  0  0  0  0
  182.0740  179.7770  139.1420 C   0  0  0  0  0  0  0  0  0  0  0  0
  180.7670  181.7920  138.8030 C   0  0  0  0  0  3  0  0  0  0  0  0
  181.1750  178.0120  140.5680 O   0  0  0  0  0  1  0  0  0  0  0  0
  181.0450  179.2540  139.9550 C   0  0  0  0  0  0  0  0  0  0  0  0
  184.4960  178.8670  141.0790 C   0  0  1  0  0  3  0  0  0  0  0  0
  184.1830  177.5170  141.2530 O   0  0  0  0  0  1  0  0  0  0  0  0
  185.7760  179.2050  141.8240 C   0  0  0  0  0  2  0  0  0  0  0  0
  185.9620  178.3000  142.9480 N   0  0  0  0  0  2  0  0  0  0  0  0
  187.0400  177.3880  142.5990 C   0  0  0  0  0  2  0  0  0  0  0  0
  187.9790  178.1550  144.6470 O   0  0  0  0  0  0  0  0  0  0  0  0
  189.4010  176.8680  143.3120 N   0  0  0  0  0  2  0  0  0  0  0  0
  188.1500  177.4990  143.5840 C   0  0  0  0  0  0  0  0  0  0  0  0
  191.4920  178.5600  144.3110 C   0  0  0  0  0  1  0  0  0  0  0  0
  191.7420  175.8960  144.0580 O   0  0  0  0  0  0  0  0  0  0  0  0
  190.7370  176.9550  144.4060 S   0  0  0  0  0  0  0  0  0  0  0  0
  190.2440  176.7280  145.8050 O   0  0  0  0  0  0  0  0  0  0  0  0
  185.4220  176.3130  135.7770 C   0  0  0  0  0  3  0  0  0  0  0  0
  185.2170  176.9460  134.6320 C   0  0  0  0  0  2  0  0  0  0  0  0
  188.5290  175.3830  137.2890 C   0  0  0  0  0  2  0  0  0  0  0  0
  189.6820  174.8470  136.4480 C   0  0  0  0  0  2  0  0  0  0  0  0
  192.6420  174.3550  136.0770 O   0  0  0  0  0  0  0  0  0  0  0  0
  191.6540  173.4560  136.5050 C   0  0  1  0  0  3  0  0  0  0  0  0
  190.6520  174.1630  137.3050 N   0  0  0  0  0  0  0  0  0  0  0  0
  191.4410  175.2070  137.9190 C   0  0  0  0  0  2  0  0  0  0  0  0
  192.7090  175.3180  137.0930 C   0  0  1  0  0  3  0  0  0  0  0  0
  191.0830  172.6560  135.3400 C   0  0  0  0  0  1  0  0  0  0  0  0
  194.2770  175.9970  138.7480 O   0  0  0  0  0  0  0  0  0  0  0  0
  193.9500  175.1130  137.9100 C   0  0  0  0  0  0  0  0  0  0  0  0
  194.7700  174.0020  137.6900 O   0  0  0  0  0  0  0  0  0  0  0  0
  195.9100  173.7350  138.4980 C   0  0  0  0  0  2  0  0  0  0  0  0
  197.7260  174.4200  136.8840 C   0  0  0  0  0  0  0  0  0  0  0  0
  197.3120  175.6100  136.8720 O   0  0  0  0  0  0  0  0  0  0  0  0
  198.9500  174.0620  136.1270 C   0  0  0  0  0  1  0  0  0  0  0  0
  197.0530  173.4190  137.6500 N   0  0  0  0  0  2  0  0  0  0  0  0
  1  5  1  0  0  0  0
  1  6  2  0  0  0  0
  2 21  1  1  0  0  0
  3  8  1  0  0  0  0
  3  5  2  0  0  0  0
  4  1  1  0  0  0  0
  5  9  1  0  0  0  0
  6 17  1  0  0  0  0
  6  2  1  0  0  0  0
  8 10  2  0  0  0  0
  9  2  1  0  0  0  0
 10  9  1  0  0  0  0
 10  7  1  0  0  0  0
 11 35  1  1  0  0  0
 11  8  1  0  0  0  0
 11 13  1  0  0  0  0
 12  7  1  0  0  0  0
 13 12  1  0  0  0  0
 15 18  2  0  0  0  0
 15 17  1  0  0  0  0
 16 14  2  0  0  0  0
 17 20  2  0  0  0  0
 18 16  1  0  0  0  0
 20 14  1  0  0  0  0
 20 19  1  0  0  0  0
 21 22  1  6  0  0  0
 21 23  1  0  0  0  0
 23 24  1  0  0  0  0
 25 24  1  0  0  0  0
 25 28  1  0  0  0  0
 27 28  1  0  0  0  0
 27 31  1  0  0  0  0
 28 26  2  0  0  0  0
 29 31  1  0  0  0  0
 30 31  2  0  0  0  0
 31 32  2  0  0  0  0
 33  3  1  0  0  0  0
 34 33  2  0  0  0  0
 36 35  1  0  0  0  0
 36 39  1  0  0  0  0
 37 38  1  0  0  0  0
 37 41  1  0  0  0  0
 38 42  1  6  0  0  0
 38 39  1  0  0  0  0
 39 40  1  0  0  0  0
 41 44  1  1  0  0  0
 41 40  1  0  0  0  0
 44 43  2  0  0  0  0
 45 44  1  0  0  0  0
 45 46  1  0  0  0  0
 47 50  1  0  0  0  0
 48 47  2  0  0  0  0
 49 47  1  0  0  0  0
 50 46  1  0  0  0  0
M  END
>  <MODEL>
9

>  <REMARK>
 VINA RESULT:      -7.3      3.781     11.300
  Name = 
  15 active torsions:
  status: ('A' for Active; 'I' for Inactive)
    1  A    between atoms: C_2  and  C_5
    2  A    between atoms: C_2  and  C_27
    3  A    between atoms: C_9  and  C_11
    4  A    between atoms: C_12  and  C_31
    5  A    between atoms: C_12  and  C_46
    6  A    between atoms: C_18  and  C_25
    7  A    between atoms: N_24  and  S_30
    8  A    between atoms: C_26  and  N_41
    9  A    between atoms: C_26  and  C_43
   10  A    between atoms: C_27  and  N_41
   11  A    between atoms: N_29  and  C_31
   12  A    between atoms: C_32  and  N_38
   13  A    between atoms: C_32  and  O_39
   14  A    between atoms: C_35  and  C_37
   15  A    between atoms: C_35  and  O_39
                            x       y       z     vdW  Elec       q    Type
                         _______ _______ _______ _____ _____    ______ ____

>  <TORSDO>
F 15

$$$$
