=
 OpenBabel11042412543D

 43 49  0  0  1  0  0  0  0  0999 V2000
  189.5050  174.2330  136.9710 C   0  0  0  0  0  0  0  0  0  0  0  0
  183.4250  175.2670  137.4800 C   0  0  0  0  0  0  0  0  0  0  0  0
  182.0650  174.9850  138.0210 C   0  0  0  0  0  1  0  0  0  0  0  0
  186.2420  173.3390  134.9360 C   0  0  0  0  0  0  0  0  0  0  0  0
  189.3600  173.0370  136.0470 C   0  0  1  0  0  3  0  0  0  0  0  0
  188.6320  175.1900  137.1700 C   0  0  0  0  0  0  0  0  0  0  0  0
  185.0040  172.6670  134.9910 O   0  0  0  0  0  0  0  0  0  0  0  0
  185.5270  177.4920  136.2070 F   0  0  0  0  0  0  0  0  0  0  0  0
  187.3580  172.7040  134.5940 C   0  0  0  0  0  3  0  0  0  0  0  0
  184.1360  176.3690  137.7710 C   0  0  0  0  0  3  0  0  0  0  0  0
  191.3010  175.9080  137.1110 N   0  0  0  0  0  2  0  0  0  0  0  0
  188.6330  173.3270  134.8130 N   0  0  0  0  0  2  0  0  0  0  0  0
  185.4720  176.3970  137.0500 C   0  0  2  0  0  0  0  0  0  0  0  0
  186.6560  176.3830  138.0410 C   0  0  0  0  0  2  0  0  0  0  0  0
  191.6840  173.6470  136.3970 N   0  0  0  0  0  0  0  0  0  0  0  0
  186.3480  174.6950  135.4500 C   0  0  0  0  0  3  0  0  0  0  0  0
  185.4170  175.1350  136.2670 C   0  0  0  0  0  0  0  0  0  0  0  0
  193.1240  173.4530  136.4570 C   0  0  0  0  0  1  0  0  0  0  0  0
  191.1720  171.8400  134.9750 O   0  0  0  0  0  0  0  0  0  0  0  0
  190.9500  174.4990  137.3110 C   0  0  2  0  0  3  0  0  0  0  0  0
  184.4770  173.0720  137.3100 C   0  0  0  0  0  2  0  0  0  0  0  0
  190.9670  176.5930  138.3600 C   0  0  0  0  0  2  0  0  0  0  0  0
  188.0110  176.3260  137.3660 C   0  0  0  0  0  0  0  0  0  0  0  0
  188.8580  177.5560  137.1440 C   0  0  2  0  0  3  0  0  0  0  0  0
  184.2040  174.3830  136.5860 C   0  0  1  0  0  0  0  0  0  0  0  0
  190.7860  172.7690  135.7320 C   0  0  0  0  0  0  0  0  0  0  0  0
  183.9330  173.0450  135.8890 C   0  0  1  0  0  3  0  0  0  0  0  0
  190.0000  177.7820  138.1660 C   0  0  1  0  0  3  0  0  0  0  0  0
  188.0490  178.8220  136.8990 C   0  0  0  0  0  1  0  0  0  0  0  0
  189.4120  177.3960  140.5110 C   0  0  0  0  0  0  0  0  0  0  0  0
  189.4540  178.2120  139.4930 C   0  0  0  0  0  3  0  0  0  0  0  0
  189.3650  176.5770  141.5260 C   0  0  0  0  0  3  0  0  0  0  0  0
  189.5630  177.6710  146.3320 C   0  0  0  0  0  2  0  0  0  0  0  0
  191.1250  176.9530  144.0260 C   0  0  0  0  0  2  0  0  0  0  0  0
  187.6350  176.8850  143.0740 O   0  0  0  0  0  0  0  0  0  0  0  0
  191.7920  177.5620  145.1810 N   0  0  0  0  0  2  0  0  0  0  0  0
  189.1980  178.2650  144.9750 C   0  0  0  0  0  2  0  0  0  0  0  0
  191.0500  177.2790  146.4170 C   0  0  2  0  0  3  0  0  0  0  0  0
  189.7430  177.4260  143.9130 N   0  0  0  0  0  0  0  0  0  0  0  0
  188.8740  176.9630  142.8610 C   0  0  0  0  0  0  0  0  0  0  0  0
  191.1820  175.8750  146.7760 N   0  0  0  0  0  2  0  0  0  0  0  0
  192.7760  175.6550  148.1460 O   0  0  0  0  0  1  0  0  0  0  0  0
  192.5080  175.6080  146.8590 O   0  0  0  0  0  0  0  0  0  0  0  0
  1  6  2  0  0  0  0
  2 10  2  0  0  0  0
  2  3  1  0  0  0  0
  4  7  1  0  0  0  0
  4 16  1  0  0  0  0
  5 12  1  6  0  0  0
  5  1  1  0  0  0  0
  6 23  2  0  0  0  0
  7 27  1  0  0  0  0
  9 12  1  0  0  0  0
  9  4  2  0  0  0  0
 11 20  1  0  0  0  0
 11 22  1  0  0  0  0
 13  8  1  6  0  0  0
 13 10  1  0  0  0  0
 13 14  1  0  0  0  0
 15 18  1  0  0  0  0
 15 20  1  0  0  0  0
 16 17  2  0  0  0  0
 17 25  1  0  0  0  0
 17 13  1  0  0  0  0
 19 26  2  0  0  0  0
 20  1  1  6  0  0  0
 23 14  1  0  0  0  0
 24 29  1  1  0  0  0
 24 23  1  0  0  0  0
 24 28  1  0  0  0  0
 25 21  1  1  0  0  0
 25  2  1  0  0  0  0
 26  5  1  0  0  0  0
 26 15  1  0  0  0  0
 27 25  1  0  0  0  0
 27 21  1  1  0  0  0
 28 22  1  0  0  0  0
 28 31  1  1  0  0  0
 30 32  2  0  0  0  0
 31 30  2  0  0  0  0
 32 40  1  0  0  0  0
 33 38  1  0  0  0  0
 34 36  1  0  0  0  0
 36 38  1  0  0  0  0
 37 33  1  0  0  0  0
 38 41  1  6  0  0  0
 39 34  1  0  0  0  0
 39 37  1  0  0  0  0
 40 35  2  0  0  0  0
 40 39  1  0  0  0  0
 41 43  1  0  0  0  0
 43 42  1  0  0  0  0
M  END
>  <MODEL>
1

>  <REMARK>
 VINA RESULT:      -8.1      0.000      0.000
  Name = 
  4 active torsions:
  status: ('A' for Active; 'I' for Inactive)
    1  A    between atoms: N_22  and  C_40
    2  A    between atoms: N_22  and  O_41
    3  A    between atoms: C_27  and  C_38
    4  A    between atoms: C_28  and  C_43
                            x       y       z     vdW  Elec       q    Type
                         _______ _______ _______ _____ _____    ______ ____

>  <TORSDO>
F 4

$$$$
=
 OpenBabel11042412543D

 43 49  0  0  1  0  0  0  0  0999 V2000
  191.5630  174.2680  137.2840 C   0  0  0  0  0  0  0  0  0  0  0  0
  185.5090  173.0690  136.8250 C   0  0  0  0  0  0  0  0  0  0  0  0
  184.2740  172.2960  137.1430 C   0  0  0  0  0  1  0  0  0  0  0  0
  189.1700  172.4040  134.7550 C   0  0  0  0  0  0  0  0  0  0  0  0
  191.9900  173.1520  136.3460 C   0  0  1  0  0  3  0  0  0  0  0  0
  190.3870  174.8430  137.3430 C   0  0  0  0  0  0  0  0  0  0  0  0
  188.2580  171.3380  134.6130 O   0  0  0  0  0  0  0  0  0  0  0  0
  186.8440  175.9610  135.9050 F   0  0  0  0  0  0  0  0  0  0  0  0
  190.4770  172.2230  134.5940 C   0  0  0  0  0  3  0  0  0  0  0  0
  185.7300  174.3310  137.2260 C   0  0  0  0  0  3  0  0  0  0  0  0
  192.6030  176.4560  137.7100 N   0  0  0  0  0  2  0  0  0  0  0  0
  191.3980  173.2400  135.0130 N   0  0  0  0  0  2  0  0  0  0  0  0
  187.0580  174.8680  136.7270 C   0  0  2  0  0  0  0  0  0  0  0  0
  188.0100  175.2140  137.8930 C   0  0  0  0  0  2  0  0  0  0  0  0
  193.8670  174.5190  137.0620 N   0  0  0  0  0  0  0  0  0  0  0  0
  188.7090  173.6790  135.2820 C   0  0  0  0  0  3  0  0  0  0  0  0
  187.5730  173.7150  135.9430 C   0  0  0  0  0  0  0  0  0  0  0  0
  195.2550  174.8400  137.3480 C   0  0  0  0  0  1  0  0  0  0  0  0
  194.2470  172.7330  135.5730 O   0  0  0  0  0  0  0  0  0  0  0  0
  192.7500  175.0040  137.8490 C   0  0  2  0  0  3  0  0  0  0  0  0
  187.2860  171.3970  136.8190 C   0  0  0  0  0  2  0  0  0  0  0  0
  191.8660  176.9060  138.8910 C   0  0  0  0  0  2  0  0  0  0  0  0
  189.3800  175.6760  137.4410 C   0  0  0  0  0  0  0  0  0  0  0  0
  189.7560  177.1360  137.3580 C   0  0  2  0  0  3  0  0  0  0  0  0
  186.6740  172.5680  136.0640 C   0  0  1  0  0  0  0  0  0  0  0  0
  193.4490  173.4220  136.2610 C   0  0  0  0  0  0  0  0  0  0  0  0
  187.0030  171.2630  135.3300 C   0  0  1  0  0  3  0  0  0  0  0  0
  190.5790  177.6890  138.5490 C   0  0  1  0  0  3  0  0  0  0  0  0
  188.5950  178.0490  136.9910 C   0  0  0  0  0  1  0  0  0  0  0  0
  189.9120  177.0640  140.8200 C   0  0  0  0  0  0  0  0  0  0  0  0
  189.7270  177.8220  139.7730 C   0  0  0  0  0  3  0  0  0  0  0  0
  190.0950  176.3010  141.8630 C   0  0  0  0  0  3  0  0  0  0  0  0
  189.1840  177.1530  146.6360 C   0  0  0  0  0  2  0  0  0  0  0  0
  191.2170  177.1570  144.6010 C   0  0  0  0  0  2  0  0  0  0  0  0
  188.1650  175.8920  143.1260 O   0  0  0  0  0  0  0  0  0  0  0  0
  191.4440  177.9060  145.8410 N   0  0  0  0  0  2  0  0  0  0  0  0
  188.8300  177.6430  145.2360 C   0  0  0  0  0  2  0  0  0  0  0  0
  190.6830  177.3150  146.9500 C   0  0  2  0  0  3  0  0  0  0  0  0
  189.7890  177.1080  144.2740 N   0  0  0  0  0  0  0  0  0  0  0  0
  189.3090  176.4180  143.1050 C   0  0  0  0  0  0  0  0  0  0  0  0
  191.2600  176.0350  147.3330 N   0  0  0  0  0  2  0  0  0  0  0  0
  192.8270  175.1280  148.4240 O   0  0  0  0  0  1  0  0  0  0  0  0
  192.4160  176.3000  147.9880 O   0  0  0  0  0  0  0  0  0  0  0  0
  1  6  2  0  0  0  0
  2  3  1  0  0  0  0
  2 10  2  0  0  0  0
  4 16  1  0  0  0  0
  5 12  1  6  0  0  0
  5  1  1  0  0  0  0
  6 23  2  0  0  0  0
  7  4  1  0  0  0  0
  7 27  1  0  0  0  0
  9  4  2  0  0  0  0
  9 12  1  0  0  0  0
 11 20  1  0  0  0  0
 11 22  1  0  0  0  0
 13  8  1  6  0  0  0
 13 10  1  0  0  0  0
 13 14  1  0  0  0  0
 15 18  1  0  0  0  0
 15 20  1  0  0  0  0
 16 17  2  0  0  0  0
 17 25  1  0  0  0  0
 17 13  1  0  0  0  0
 19 26  2  0  0  0  0
 20  1  1  6  0  0  0
 23 14  1  0  0  0  0
 24 29  1  1  0  0  0
 24 23  1  0  0  0  0
 24 28  1  0  0  0  0
 25 21  1  1  0  0  0
 25  2  1  0  0  0  0
 26  5  1  0  0  0  0
 26 15  1  0  0  0  0
 27 25  1  0  0  0  0
 27 21  1  1  0  0  0
 28 22  1  0  0  0  0
 28 31  1  1  0  0  0
 30 32  2  0  0  0  0
 31 30  2  0  0  0  0
 32 40  1  0  0  0  0
 33 38  1  0  0  0  0
 34 36  1  0  0  0  0
 36 38  1  0  0  0  0
 37 33  1  0  0  0  0
 38 41  1  6  0  0  0
 39 34  1  0  0  0  0
 39 37  1  0  0  0  0
 40 35  2  0  0  0  0
 40 39  1  0  0  0  0
 41 43  1  0  0  0  0
 43 42  1  0  0  0  0
M  END
>  <MODEL>
2

>  <REMARK>
 VINA RESULT:      -8.1      1.559      2.131
  Name = 
  4 active torsions:
  status: ('A' for Active; 'I' for Inactive)
    1  A    between atoms: N_22  and  C_40
    2  A    between atoms: N_22  and  O_41
    3  A    between atoms: C_27  and  C_38
    4  A    between atoms: C_28  and  C_43
                            x       y       z     vdW  Elec       q    Type
                         _______ _______ _______ _____ _____    ______ ____

>  <TORSDO>
F 4

$$$$
=
 OpenBabel11042412543D

 43 49  0  0  1  0  0  0  0  0999 V2000
  187.2130  174.7720  137.1010 C   0  0  0  0  0  0  0  0  0  0  0  0
  182.9730  178.4010  139.7760 C   0  0  0  0  0  0  0  0  0  0  0  0
  181.9730  178.7280  140.8320 C   0  0  0  0  0  1  0  0  0  0  0  0
  183.3770  175.5750  136.6170 C   0  0  0  0  0  0  0  0  0  0  0  0
  186.2030  173.8310  136.4690 C   0  0  1  0  0  3  0  0  0  0  0  0
  187.0070  176.0060  137.4940 C   0  0  0  0  0  0  0  0  0  0  0  0
  182.1100  175.5310  137.2340 O   0  0  0  0  0  0  0  0  0  0  0  0
  185.1240  179.5160  137.5120 F   0  0  0  0  0  0  0  0  0  0  0  0
  183.8620  174.5280  135.9570 C   0  0  0  0  0  3  0  0  0  0  0  0
  184.1430  179.0430  139.6230 C   0  0  0  0  0  3  0  0  0  0  0  0
  189.4460  175.4470  136.3170 N   0  0  0  0  0  2  0  0  0  0  0  0
  185.2470  174.4950  135.5850 N   0  0  0  0  0  2  0  0  0  0  0  0
  184.9400  178.5120  138.4470 C   0  0  2  0  0  0  0  0  0  0  0  0
  186.2870  177.9040  138.8970 C   0  0  0  0  0  2  0  0  0  0  0  0
  188.4820  173.3050  135.8130 N   0  0  0  0  0  0  0  0  0  0  0  0
  184.2600  176.7020  136.8690 C   0  0  0  0  0  3  0  0  0  0  0  0
  184.0320  177.4620  137.9170 C   0  0  0  0  0  0  0  0  0  0  0  0
  189.5800  172.4800  135.3370 C   0  0  0  0  0  1  0  0  0  0  0  0
  186.7100  172.0160  134.9470 O   0  0  0  0  0  0  0  0  0  0  0  0
  188.6290  174.3380  136.8190 C   0  0  2  0  0  3  0  0  0  0  0  0
  182.7950  175.9830  139.5010 C   0  0  0  0  0  2  0  0  0  0  0  0
  189.9770  176.1280  137.4970 C   0  0  0  0  0  2  0  0  0  0  0  0
  187.0810  177.2850  137.7640 C   0  0  0  0  0  0  0  0  0  0  0  0
  188.2100  178.0130  137.0750 C   0  0  2  0  0  3  0  0  0  0  0  0
  182.8550  177.3190  138.7740 C   0  0  1  0  0  0  0  0  0  0  0  0
  187.1080  172.9700  135.6660 C   0  0  0  0  0  0  0  0  0  0  0  0
  181.7730  176.2940  138.4170 C   0  0  1  0  0  3  0  0  0  0  0  0
  189.6390  177.6350  137.5380 C   0  0  1  0  0  3  0  0  0  0  0  0
  188.0110  179.5200  136.9980 C   0  0  0  0  0  1  0  0  0  0  0  0
  189.6200  177.5090  139.9830 C   0  0  0  0  0  0  0  0  0  0  0  0
  189.9210  178.1810  138.9040 C   0  0  0  0  0  3  0  0  0  0  0  0
  189.3140  176.8390  141.0600 C   0  0  0  0  0  3  0  0  0  0  0  0
  188.4730  177.9620  145.7900 C   0  0  0  0  0  2  0  0  0  0  0  0
  187.3040  176.8820  143.3940 C   0  0  0  0  0  2  0  0  0  0  0  0
  190.6560  177.9880  142.5980 O   0  0  0  0  0  0  0  0  0  0  0  0
  186.6620  176.6160  144.6860 N   0  0  0  0  0  2  0  0  0  0  0  0
  189.3140  177.0540  144.8980 C   0  0  0  0  0  2  0  0  0  0  0  0
  186.9650  177.6880  145.6440 C   0  0  2  0  0  3  0  0  0  0  0  0
  188.7520  177.0360  143.5510 N   0  0  0  0  0  0  0  0  0  0  0  0
  189.6050  177.3150  142.4250 C   0  0  0  0  0  0  0  0  0  0  0  0
  186.2630  178.9080  145.2750 N   0  0  0  0  0  2  0  0  0  0  0  0
  184.4450  178.8160  146.3480 O   0  0  0  0  0  1  0  0  0  0  0  0
  185.6410  179.3620  146.3890 O   0  0  0  0  0  0  0  0  0  0  0  0
  1  6  2  0  0  0  0
  2  3  1  0  0  0  0
  4 16  1  0  0  0  0
  4  7  1  0  0  0  0
  5 12  1  6  0  0  0
  5  1  1  0  0  0  0
  6 23  2  0  0  0  0
  7 27  1  0  0  0  0
  9  4  2  0  0  0  0
 10  2  2  0  0  0  0
 11 22  1  0  0  0  0
 12  9  1  0  0  0  0
 13  8  1  6  0  0  0
 13 14  1  0  0  0  0
 13 10  1  0  0  0  0
 15 20  1  0  0  0  0
 16 17  2  0  0  0  0
 17 13  1  0  0  0  0
 17 25  1  0  0  0  0
 18 15  1  0  0  0  0
 19 26  2  0  0  0  0
 20 11  1  6  0  0  0
 20  1  1  0  0  0  0
 22 28  1  0  0  0  0
 23 14  1  0  0  0  0
 24 29  1  1  0  0  0
 24 28  1  0  0  0  0
 24 23  1  0  0  0  0
 25 21  1  1  0  0  0
 25  2  1  0  0  0  0
 26 15  1  0  0  0  0
 26  5  1  0  0  0  0
 27 25  1  0  0  0  0
 27 21  1  1  0  0  0
 28 31  1  1  0  0  0
 30 32  2  0  0  0  0
 31 30  2  0  0  0  0
 32 40  1  0  0  0  0
 34 39  1  0  0  0  0
 34 36  1  0  0  0  0
 36 38  1  0  0  0  0
 37 33  1  0  0  0  0
 38 41  1  6  0  0  0
 38 33  1  0  0  0  0
 39 37  1  0  0  0  0
 40 35  2  0  0  0  0
 40 39  1  0  0  0  0
 41 43  1  0  0  0  0
 42 43  1  0  0  0  0
M  END
>  <MODEL>
3

>  <REMARK>
 VINA RESULT:      -7.8      2.267      3.597
  Name = 
  4 active torsions:
  status: ('A' for Active; 'I' for Inactive)
    1  A    between atoms: N_22  and  C_40
    2  A    between atoms: N_22  and  O_41
    3  A    between atoms: C_27  and  C_38
    4  A    between atoms: C_28  and  C_43
                            x       y       z     vdW  Elec       q    Type
                         _______ _______ _______ _____ _____    ______ ____

>  <TORSDO>
F 4

$$$$
=
 OpenBabel11042412543D

 43 49  0  0  1  0  0  0  0  0999 V2000
  189.1150  174.1760  136.8450 C   0  0  0  0  0  0  0  0  0  0  0  0
  183.4360  176.4560  137.7660 C   0  0  0  0  0  0  0  0  0  0  0  0
  182.0820  176.4530  138.3910 C   0  0  0  0  0  1  0  0  0  0  0  0
  185.6170  174.0460  135.0160 C   0  0  0  0  0  0  0  0  0  0  0  0
  188.6620  173.0630  135.9170 C   0  0  1  0  0  3  0  0  0  0  0  0
  188.4780  175.2910  137.1130 C   0  0  0  0  0  0  0  0  0  0  0  0
  184.2710  173.6490  135.1440 O   0  0  0  0  0  0  0  0  0  0  0  0
  185.8800  178.2210  136.3870 F   0  0  0  0  0  0  0  0  0  0  0  0
  186.5510  173.1990  134.5940 C   0  0  0  0  0  3  0  0  0  0  0  0
  184.3810  177.3750  138.0230 C   0  0  0  0  0  3  0  0  0  0  0  0
  191.2310  175.4310  136.8890 N   0  0  0  0  0  2  0  0  0  0  0  0
  187.9390  173.5330  134.7370 N   0  0  0  0  0  2  0  0  0  0  0  0
  185.6450  177.1400  137.2170 C   0  0  2  0  0  0  0  0  0  0  0  0
  186.8580  176.8500  138.1280 C   0  0  0  0  0  2  0  0  0  0  0  0
  191.0800  173.1590  136.1220 N   0  0  0  0  0  0  0  0  0  0  0  0
  186.0400  175.3350  135.5410 C   0  0  0  0  0  3  0  0  0  0  0  0
  185.2760  175.9390  136.4230 C   0  0  0  0  0  0  0  0  0  0  0  0
  192.4470  172.6650  136.0840 C   0  0  0  0  0  1  0  0  0  0  0  0
  190.1100  171.5400  134.7130 O   0  0  0  0  0  0  0  0  0  0  0  0
  190.6010  174.1230  137.0930 C   0  0  2  0  0  3  0  0  0  0  0  0
  183.9850  174.0940  137.4970 C   0  0  0  0  0  2  0  0  0  0  0  0
  191.1260  176.1370  138.1660 C   0  0  0  0  0  2  0  0  0  0  0  0
  188.1260  176.5270  137.3650 C   0  0  0  0  0  0  0  0  0  0  0  0
  189.2000  177.5560  137.1040 C   0  0  2  0  0  3  0  0  0  0  0  0
  183.9530  175.4520  136.8110 C   0  0  1  0  0  0  0  0  0  0  0  0
  189.9770  172.5090  135.5060 C   0  0  0  0  0  0  0  0  0  0  0  0
  183.3610  174.2210  136.1150 C   0  0  1  0  0  3  0  0  0  0  0  0
  190.4240  177.5080  138.0520 C   0  0  1  0  0  3  0  0  0  0  0  0
  188.6640  178.9700  136.9300 C   0  0  0  0  0  1  0  0  0  0  0  0
  190.5590  177.4630  140.4960 C   0  0  0  0  0  0  0  0  0  0  0  0
  190.0640  178.0080  139.4170 C   0  0  0  0  0  3  0  0  0  0  0  0
  191.0500  176.9130  141.5730 C   0  0  0  0  0  3  0  0  0  0  0  0
  188.3890  177.8460  145.6210 C   0  0  0  0  0  2  0  0  0  0  0  0
  188.3230  176.6890  142.9890 C   0  0  0  0  0  2  0  0  0  0  0  0
  191.5860  178.1750  143.4720 O   0  0  0  0  0  0  0  0  0  0  0  0
  187.2800  176.3290  143.9550 N   0  0  0  0  0  2  0  0  0  0  0  0
  189.5960  177.0540  145.1290 C   0  0  0  0  0  2  0  0  0  0  0  0
  187.0840  177.4090  144.9310 C   0  0  2  0  0  3  0  0  0  0  0  0
  189.5820  176.9990  143.6700 N   0  0  0  0  0  0  0  0  0  0  0  0
  190.7570  177.3920  142.9360 C   0  0  0  0  0  0  0  0  0  0  0  0
  186.4400  178.5510  144.2980 N   0  0  0  0  0  2  0  0  0  0  0  0
  184.6920  179.1940  143.3010 O   0  0  0  0  0  1  0  0  0  0  0  0
  185.2590  178.1160  143.7990 O   0  0  0  0  0  0  0  0  0  0  0  0
  1  6  2  0  0  0  0
  2 10  2  0  0  0  0
  2  3  1  0  0  0  0
  4  7  1  0  0  0  0
  4 16  1  0  0  0  0
  5 12  1  6  0  0  0
  5  1  1  0  0  0  0
  6 23  2  0  0  0  0
  7 27  1  0  0  0  0
  9 12  1  0  0  0  0
  9  4  2  0  0  0  0
 11 20  1  0  0  0  0
 11 22  1  0  0  0  0
 13  8  1  6  0  0  0
 13 10  1  0  0  0  0
 13 14  1  0  0  0  0
 15 20  1  0  0  0  0
 16 17  2  0  0  0  0
 17 25  1  0  0  0  0
 17 13  1  0  0  0  0
 18 15  1  0  0  0  0
 19 26  2  0  0  0  0
 20  1  1  6  0  0  0
 23 14  1  0  0  0  0
 24 29  1  1  0  0  0
 24 23  1  0  0  0  0
 24 28  1  0  0  0  0
 25 21  1  1  0  0  0
 25  2  1  0  0  0  0
 26  5  1  0  0  0  0
 26 15  1  0  0  0  0
 27 25  1  0  0  0  0
 27 21  1  1  0  0  0
 28 22  1  0  0  0  0
 28 31  1  1  0  0  0
 30 32  2  0  0  0  0
 31 30  2  0  0  0  0
 32 40  1  0  0  0  0
 34 39  1  0  0  0  0
 34 36  1  0  0  0  0
 36 38  1  0  0  0  0
 37 33  1  0  0  0  0
 38 41  1  6  0  0  0
 38 33  1  0  0  0  0
 39 37  1  0  0  0  0
 40 35  2  0  0  0  0
 40 39  1  0  0  0  0
 42 43  1  0  0  0  0
 43 41  1  0  0  0  0
M  END
>  <MODEL>
4

>  <REMARK>
 VINA RESULT:      -7.8      1.606      2.675
  Name = 
  4 active torsions:
  status: ('A' for Active; 'I' for Inactive)
    1  A    between atoms: N_22  and  C_40
    2  A    between atoms: N_22  and  O_41
    3  A    between atoms: C_27  and  C_38
    4  A    between atoms: C_28  and  C_43
                            x       y       z     vdW  Elec       q    Type
                         _______ _______ _______ _____ _____    ______ ____

>  <TORSDO>
F 4

$$$$
=
 OpenBabel11042412543D

 43 49  0  0  1  0  0  0  0  0999 V2000
  185.7980  177.8980  143.7770 C   0  0  0  0  0  0  0  0  0  0  0  0
  190.9400  176.4180  146.8870 C   0  0  0  0  0  0  0  0  0  0  0  0
  191.7810  175.5100  147.7180 C   0  0  0  0  0  1  0  0  0  0  0  0
  187.3290  178.6280  147.3430 C   0  0  0  0  0  0  0  0  0  0  0  0
  184.9890  178.2420  145.0150 C   0  0  1  0  0  3  0  0  0  0  0  0
  187.1040  177.8770  143.6670 C   0  0  0  0  0  0  0  0  0  0  0  0
  187.7660  178.0370  148.5460 O   0  0  0  0  0  0  0  0  0  0  0  0
  190.8230  178.8860  144.6760 F   0  0  0  0  0  0  0  0  0  0  0  0
  186.0550  178.9550  147.1560 C   0  0  0  0  0  3  0  0  0  0  0  0
  191.2130  176.7380  145.6110 C   0  0  0  0  0  3  0  0  0  0  0  0
  185.6680  178.8210  141.5000 N   0  0  0  0  0  2  0  0  0  0  0  0
  185.5860  179.2890  145.8410 N   0  0  0  0  0  2  0  0  0  0  0  0
  190.1970  177.7050  145.0320 C   0  0  2  0  0  0  0  0  0  0  0  0
  189.4350  177.0860  143.8400 C   0  0  0  0  0  2  0  0  0  0  0  0
  183.7680  178.6980  142.9650 N   0  0  0  0  0  0  0  0  0  0  0  0
  188.2350  178.7020  146.2080 C   0  0  0  0  0  3  0  0  0  0  0  0
  189.2900  177.9190  146.1900 C   0  0  0  0  0  0  0  0  0  0  0  0
  182.6040  178.9060  142.1200 C   0  0  0  0  0  1  0  0  0  0  0  0
  182.7530  179.1730  145.0370 O   0  0  0  0  0  0  0  0  0  0  0  0
  184.9750  178.0290  142.5210 C   0  0  2  0  0  3  0  0  0  0  0  0
  188.6590  175.9890  147.6400 C   0  0  0  0  0  2  0  0  0  0  0  0
  186.5050  177.8810  140.7550 C   0  0  0  0  0  2  0  0  0  0  0  0
  188.3510  177.9850  143.2800 C   0  0  0  0  0  0  0  0  0  0  0  0
  188.5620  178.8440  142.0570 C   0  0  2  0  0  3  0  0  0  0  0  0
  189.6810  177.0680  147.3140 C   0  0  1  0  0  0  0  0  0  0  0  0
  183.7450  178.7550  144.3850 C   0  0  0  0  0  0  0  0  0  0  0  0
  188.8880  177.1260  148.6240 C   0  0  1  0  0  3  0  0  0  0  0  0
  187.9980  178.2780  140.7300 C   0  0  1  0  0  3  0  0  0  0  0  0
  189.9890  179.3520  141.9030 C   0  0  0  0  0  1  0  0  0  0  0  0
  189.0700  176.9460  138.9770 C   0  0  0  0  0  0  0  0  0  0  0  0
  188.8210  177.1240  140.2470 C   0  0  0  0  0  3  0  0  0  0  0  0
  189.3120  176.7670  137.7070 C   0  0  0  0  0  3  0  0  0  0  0  0
  193.4250  174.3390  136.4700 C   0  0  0  0  0  2  0  0  0  0  0  0
  192.3920  176.7520  137.6480 C   0  0  0  0  0  2  0  0  0  0  0  0
  189.5850  174.7900  136.4810 O   0  0  0  0  0  0  0  0  0  0  0  0
  193.7890  176.3770  137.8920 N   0  0  0  0  0  2  0  0  0  0  0  0
  192.2040  174.2560  137.3810 C   0  0  0  0  0  2  0  0  0  0  0  0
  194.3070  175.5610  136.7860 C   0  0  2  0  0  3  0  0  0  0  0  0
  191.5580  175.5630  137.4530 N   0  0  0  0  0  0  0  0  0  0  0  0
  190.1470  175.6700  137.1850 C   0  0  0  0  0  0  0  0  0  0  0  0
  194.4830  176.3790  135.5950 N   0  0  0  0  0  2  0  0  0  0  0  0
  195.4300  178.2530  135.3550 O   0  0  0  0  0  1  0  0  0  0  0  0
  195.6750  177.0110  135.7180 O   0  0  0  0  0  0  0  0  0  0  0  0
  2 25  1  0  0  0  0
  2  3  1  0  0  0  0
  4  7  1  0  0  0  0
  5  1  1  6  0  0  0
  5 12  1  0  0  0  0
  6  1  2  0  0  0  0
  7 27  1  0  0  0  0
  9  4  2  0  0  0  0
 10  2  2  0  0  0  0
 12  9  1  0  0  0  0
 13  8  1  6  0  0  0
 13 10  1  0  0  0  0
 13 17  1  0  0  0  0
 14 13  1  0  0  0  0
 15 26  1  0  0  0  0
 16  4  1  0  0  0  0
 17 16  2  0  0  0  0
 17 25  1  0  0  0  0
 18 15  1  0  0  0  0
 20 11  1  6  0  0  0
 20 15  1  0  0  0  0
 20  1  1  0  0  0  0
 22 11  1  0  0  0  0
 23  6  2  0  0  0  0
 23 14  1  0  0  0  0
 24 29  1  6  0  0  0
 24 23  1  0  0  0  0
 25 21  1  6  0  0  0
 25 27  1  0  0  0  0
 26  5  1  0  0  0  0
 26 19  2  0  0  0  0
 27 21  1  6  0  0  0
 28 31  1  1  0  0  0
 28 22  1  0  0  0  0
 28 24  1  0  0  0  0
 30 31  2  0  0  0  0
 32 30  2  0  0  0  0
 33 38  1  0  0  0  0
 33 37  1  0  0  0  0
 34 36  1  0  0  0  0
 35 40  2  0  0  0  0
 37 39  1  0  0  0  0
 38 41  1  6  0  0  0
 38 36  1  0  0  0  0
 39 34  1  0  0  0  0
 40 39  1  0  0  0  0
 40 32  1  0  0  0  0
 41 43  1  0  0  0  0
 42 43  1  0  0  0  0
M  END
>  <MODEL>
5

>  <REMARK>
 VINA RESULT:      -7.8      4.099     10.135
  Name = 
  4 active torsions:
  status: ('A' for Active; 'I' for Inactive)
    1  A    between atoms: N_22  and  C_40
    2  A    between atoms: N_22  and  O_41
    3  A    between atoms: C_27  and  C_38
    4  A    between atoms: C_28  and  C_43
                            x       y       z     vdW  Elec       q    Type
                         _______ _______ _______ _____ _____    ______ ____

>  <TORSDO>
F 4

$$$$
=
 OpenBabel11042412543D

 43 49  0  0  1  0  0  0  0  0999 V2000
  180.7900  180.3970  138.5960 C   0  0  0  0  0  0  0  0  0  0  0  0
  183.8250  175.0930  137.6160 C   0  0  0  0  0  0  0  0  0  0  0  0
  185.0570  174.2810  137.4060 C   0  0  0  0  0  1  0  0  0  0  0  0
  181.6570  178.0920  135.5090 C   0  0  0  0  0  0  0  0  0  0  0  0
  180.8880  180.8740  137.1570 C   0  0  1  0  0  3  0  0  0  0  0  0
  180.8820  179.1630  139.0280 C   0  0  0  0  0  0  0  0  0  0  0  0
  182.7090  177.5400  134.7500 O   0  0  0  0  0  0  0  0  0  0  0  0
  180.6870  175.2000  138.6830 F   0  0  0  0  0  0  0  0  0  0  0  0
  181.1710  179.2990  135.2420 C   0  0  0  0  0  3  0  0  0  0  0  0
  183.0550  175.0230  138.7160 C   0  0  0  0  0  3  0  0  0  0  0  0
  179.0400  180.8040  140.2760 N   0  0  0  0  0  2  0  0  0  0  0  0
  180.3070  179.9490  136.1860 N   0  0  0  0  0  2  0  0  0  0  0  0
  181.8520  175.9440  138.6340 C   0  0  2  0  0  0  0  0  0  0  0  0
  181.8830  177.0230  139.7390 C   0  0  0  0  0  2  0  0  0  0  0  0
  179.5570  182.3710  138.5300 N   0  0  0  0  0  0  0  0  0  0  0  0
  181.2250  177.4270  136.7280 C   0  0  0  0  0  3  0  0  0  0  0  0
  182.0300  176.5530  137.2900 C   0  0  0  0  0  0  0  0  0  0  0  0
  178.9310  183.6220  138.9250 C   0  0  0  0  0  1  0  0  0  0  0  0
  179.8440  182.8590  136.2440 O   0  0  0  0  0  0  0  0  0  0  0  0
  180.1040  181.4140  139.4720 C   0  0  2  0  0  3  0  0  0  0  0  0
  184.3090  177.2220  136.5260 C   0  0  0  0  0  2  0  0  0  0  0  0
  179.6820  180.3110  141.4940 C   0  0  0  0  0  2  0  0  0  0  0  0
  180.7430  178.0170  139.6470 C   0  0  0  0  0  0  0  0  0  0  0  0
  179.4960  177.9000  140.4890 C   0  0  2  0  0  3  0  0  0  0  0  0
  183.2850  176.1080  136.6850 C   0  0  1  0  0  0  0  0  0  0  0  0
  180.0600  182.1050  137.2280 C   0  0  0  0  0  0  0  0  0  0  0  0
  183.6750  176.6050  135.2880 C   0  0  1  0  0  3  0  0  0  0  0  0
  179.4430  178.8050  141.7450 C   0  0  1  0  0  3  0  0  0  0  0  0
  179.0980  176.4640  140.7990 C   0  0  0  0  0  1  0  0  0  0  0  0
  181.5690  178.8360  142.9580 C   0  0  0  0  0  0  0  0  0  0  0  0
  180.3840  178.3120  142.8010 C   0  0  0  0  0  3  0  0  0  0  0  0
  182.7560  179.3580  143.1090 C   0  0  0  0  0  3  0  0  0  0  0  0
  186.9990  177.7850  145.0750 C   0  0  0  0  0  2  0  0  0  0  0  0
  185.6890  178.5460  142.6300 C   0  0  0  0  0  2  0  0  0  0  0  0
  183.2320  178.6310  145.2850 O   0  0  0  0  0  0  0  0  0  0  0  0
  187.1540  178.5240  142.6800 N   0  0  0  0  0  2  0  0  0  0  0  0
  186.0270  178.9610  145.0900 C   0  0  0  0  0  2  0  0  0  0  0  0
  187.6240  177.5620  143.6860 C   0  0  2  0  0  3  0  0  0  0  0  0
  185.1260  178.8640  143.9450 N   0  0  0  0  0  0  0  0  0  0  0  0
  183.7030  178.9340  144.1570 C   0  0  0  0  0  0  0  0  0  0  0  0
  187.3780  176.2000  143.2350 N   0  0  0  0  0  2  0  0  0  0  0  0
  189.4570  176.2930  143.6060 O   0  0  0  0  0  1  0  0  0  0  0  0
  188.5700  175.6890  142.8430 O   0  0  0  0  0  0  0  0  0  0  0  0
  1  6  2  0  0  0  0
  2 10  2  0  0  0  0
  3  2  1  0  0  0  0
  4 16  1  0  0  0  0
  5 12  1  6  0  0  0
  5 26  1  0  0  0  0
  5  1  1  0  0  0  0
  6 23  2  0  0  0  0
  7 27  1  0  0  0  0
  7  4  1  0  0  0  0
  9  4  2  0  0  0  0
  9 12  1  0  0  0  0
 11 22  1  0  0  0  0
 13  8  1  1  0  0  0
 13 10  1  0  0  0  0
 13 14  1  0  0  0  0
 15 18  1  0  0  0  0
 15 20  1  0  0  0  0
 16 17  2  0  0  0  0
 17 13  1  0  0  0  0
 19 26  2  0  0  0  0
 20  1  1  6  0  0  0
 20 11  1  0  0  0  0
 22 28  1  0  0  0  0
 23 14  1  0  0  0  0
 23 24  1  0  0  0  0
 24 29  1  1  0  0  0
 24 28  1  0  0  0  0
 25 21  1  1  0  0  0
 25 17  1  0  0  0  0
 25  2  1  0  0  0  0
 26 15  1  0  0  0  0
 27 21  1  1  0  0  0
 27 25  1  0  0  0  0
 28 31  1  1  0  0  0
 30 32  2  0  0  0  0
 31 30  2  0  0  0  0
 32 40  1  0  0  0  0
 33 37  1  0  0  0  0
 34 36  1  0  0  0  0
 34 39  1  0  0  0  0
 36 38  1  0  0  0  0
 38 41  1  6  0  0  0
 38 33  1  0  0  0  0
 39 40  1  0  0  0  0
 39 37  1  0  0  0  0
 40 35  2  0  0  0  0
 43 41  1  0  0  0  0
 43 42  1  0  0  0  0
M  END
>  <MODEL>
6

>  <REMARK>
 VINA RESULT:      -7.5      5.539      8.563
  Name = 
  4 active torsions:
  status: ('A' for Active; 'I' for Inactive)
    1  A    between atoms: N_22  and  C_40
    2  A    between atoms: N_22  and  O_41
    3  A    between atoms: C_27  and  C_38
    4  A    between atoms: C_28  and  C_43
                            x       y       z     vdW  Elec       q    Type
                         _______ _______ _______ _____ _____    ______ ____

>  <TORSDO>
F 4

$$$$
=
 OpenBabel11042412543D

 43 49  0  0  1  0  0  0  0  0999 V2000
  187.9500  177.4870  145.7940 C   0  0  0  0  0  0  0  0  0  0  0  0
  188.6250  177.3800  139.6430 C   0  0  0  0  0  0  0  0  0  0  0  0
  188.8590  176.6970  138.3380 C   0  0  0  0  0  1  0  0  0  0  0  0
  190.8360  178.1900  143.1900 C   0  0  0  0  0  0  0  0  0  0  0  0
  189.4350  177.3730  146.0920 C   0  0  1  0  0  3  0  0  0  0  0  0
  187.3970  177.9150  144.6850 C   0  0  0  0  0  0  0  0  0  0  0  0
  191.6250  177.6180  142.1720 O   0  0  0  0  0  0  0  0  0  0  0  0
  187.2910  179.9480  141.2610 F   0  0  0  0  0  0  0  0  0  0  0  0
  191.1860  178.1000  144.4700 C   0  0  0  0  0  3  0  0  0  0  0  0
  187.4590  177.9430  139.9990 C   0  0  0  0  0  3  0  0  0  0  0  0
  186.1690  178.6170  147.0600 N   0  0  0  0  0  2  0  0  0  0  0  0
  190.2420  178.4360  145.4970 N   0  0  0  0  0  2  0  0  0  0  0  0
  187.5280  178.5890  141.3700 C   0  0  2  0  0  0  0  0  0  0  0  0
  186.5540  177.9220  142.3660 C   0  0  0  0  0  2  0  0  0  0  0  0
  188.1150  177.6750  148.1090 N   0  0  0  0  0  0  0  0  0  0  0  0
  189.5170  178.7130  142.8710 C   0  0  0  0  0  3  0  0  0  0  0  0
  188.9410  178.3320  141.7530 C   0  0  0  0  0  0  0  0  0  0  0  0
  187.8020  177.6010  149.5260 C   0  0  0  0  0  1  0  0  0  0  0  0
  190.4580  177.5020  148.2840 O   0  0  0  0  0  0  0  0  0  0  0  0
  187.1300  177.5090  147.0580 C   0  0  2  0  0  3  0  0  0  0  0  0
  189.9800  176.1230  141.2370 C   0  0  0  0  0  2  0  0  0  0  0  0
  184.9700  178.1170  146.3890 C   0  0  0  0  0  2  0  0  0  0  0  0
  186.6480  178.4800  143.7710 C   0  0  0  0  0  0  0  0  0  0  0  0
  185.6860  179.5180  144.2960 C   0  0  2  0  0  3  0  0  0  0  0  0
  189.6070  177.5130  140.7410 C   0  0  1  0  0  0  0  0  0  0  0  0
  189.4210  177.5270  147.5700 C   0  0  0  0  0  0  0  0  0  0  0  0
  191.0790  177.1270  140.9240 C   0  0  1  0  0  3  0  0  0  0  0  0
  184.5360  178.9850  145.1860 C   0  0  1  0  0  3  0  0  0  0  0  0
  185.1860  180.4850  143.2320 C   0  0  0  0  0  1  0  0  0  0  0  0
  182.4150  178.8110  143.9750 C   0  0  0  0  0  0  0  0  0  0  0  0
  183.5240  178.2440  144.3660 C   0  0  0  0  0  3  0  0  0  0  0  0
  181.3040  179.3770  143.5890 C   0  0  0  0  0  3  0  0  0  0  0  0
  179.2450  177.5410  139.5000 C   0  0  0  0  0  2  0  0  0  0  0  0
  181.5670  178.8630  140.5630 C   0  0  0  0  0  2  0  0  0  0  0  0
  179.1410  178.5550  143.2290 O   0  0  0  0  0  0  0  0  0  0  0  0
  181.6630  178.1790  139.2690 N   0  0  0  0  0  2  0  0  0  0  0  0
  179.7650  177.1330  140.8740 C   0  0  0  0  0  2  0  0  0  0  0  0
  180.3510  178.1360  138.6090 C   0  0  2  0  0  3  0  0  0  0  0  0
  180.5800  178.2100  141.4270 N   0  0  0  0  0  0  0  0  0  0  0  0
  180.2960  178.7040  142.7500 C   0  0  0  0  0  0  0  0  0  0  0  0
  179.9710  179.4640  138.1510 N   0  0  0  0  0  2  0  0  0  0  0  0
  181.1630  181.0780  137.4860 O   0  0  0  0  0  1  0  0  0  0  0  0
  180.8650  179.8280  137.2010 O   0  0  0  0  0  0  0  0  0  0  0  0
  1  5  1  0  0  0  0
  2 10  2  0  0  0  0
  2 25  1  0  0  0  0
  3  2  1  0  0  0  0
  4  9  2  0  0  0  0
  5 12  1  6  0  0  0
  5 26  1  0  0  0  0
  6  1  2  0  0  0  0
  7  4  1  0  0  0  0
  9 12  1  0  0  0  0
 10 13  1  0  0  0  0
 13  8  1  6  0  0  0
 13 17  1  0  0  0  0
 13 14  1  0  0  0  0
 14 23  1  0  0  0  0
 15 18  1  0  0  0  0
 16  4  1  0  0  0  0
 17 16  2  0  0  0  0
 20  1  1  6  0  0  0
 20 11  1  0  0  0  0
 20 15  1  0  0  0  0
 22 11  1  0  0  0  0
 23 24  1  0  0  0  0
 23  6  2  0  0  0  0
 24 29  1  6  0  0  0
 24 28  1  0  0  0  0
 25 27  1  0  0  0  0
 25 21  1  1  0  0  0
 25 17  1  0  0  0  0
 26 15  1  0  0  0  0
 26 19  2  0  0  0  0
 27 21  1  1  0  0  0
 27  7  1  0  0  0  0
 28 31  1  6  0  0  0
 28 22  1  0  0  0  0
 30 31  2  0  0  0  0
 32 30  2  0  0  0  0
 33 37  1  0  0  0  0
 34 39  1  0  0  0  0
 36 34  1  0  0  0  0
 37 39  1  0  0  0  0
 38 41  1  1  0  0  0
 38 36  1  0  0  0  0
 38 33  1  0  0  0  0
 39 40  1  0  0  0  0
 40 35  2  0  0  0  0
 40 32  1  0  0  0  0
 43 42  1  0  0  0  0
 43 41  1  0  0  0  0
M  END
>  <MODEL>
7

>  <REMARK>
 VINA RESULT:      -7.2      4.897     10.268
  Name = 
  4 active torsions:
  status: ('A' for Active; 'I' for Inactive)
    1  A    between atoms: N_22  and  C_40
    2  A    between atoms: N_22  and  O_41
    3  A    between atoms: C_27  and  C_38
    4  A    between atoms: C_28  and  C_43
                            x       y       z     vdW  Elec       q    Type
                         _______ _______ _______ _____ _____    ______ ____

>  <TORSDO>
F 4

$$$$
=
 OpenBabel11042412543D

 43 49  0  0  1  0  0  0  0  0999 V2000
  185.0360  177.2860  138.3610 C   0  0  0  0  0  0  0  0  0  0  0  0
  189.8010  176.9400  142.2950 C   0  0  0  0  0  0  0  0  0  0  0  0
  190.5570  176.3250  143.4240 C   0  0  0  0  0  1  0  0  0  0  0  0
  186.1150  178.9990  141.7520 C   0  0  0  0  0  0  0  0  0  0  0  0
  184.0780  177.8980  139.3670 C   0  0  1  0  0  3  0  0  0  0  0  0
  186.3460  177.3070  138.4030 C   0  0  0  0  0  0  0  0  0  0  0  0
  186.4170  178.7650  143.1090 O   0  0  0  0  0  0  0  0  0  0  0  0
  189.8950  178.7380  139.5110 F   0  0  0  0  0  0  0  0  0  0  0  0
  184.8640  179.1980  141.3460 C   0  0  0  0  0  3  0  0  0  0  0  0
  190.2170  176.9310  141.0170 C   0  0  0  0  0  3  0  0  0  0  0  0
  185.1590  177.5780  135.9210 N   0  0  0  0  0  2  0  0  0  0  0  0
  184.5490  179.1540  139.9470 N   0  0  0  0  0  2  0  0  0  0  0  0
  189.2570  177.6580  140.0950 C   0  0  2  0  0  0  0  0  0  0  0  0
  188.6570  176.7120  139.0330 C   0  0  0  0  0  2  0  0  0  0  0  0
  183.1010  177.7400  137.1490 N   0  0  0  0  0  0  0  0  0  0  0  0
  187.1480  178.8230  140.7440 C   0  0  0  0  0  3  0  0  0  0  0  0
  188.2140  178.1180  141.0500 C   0  0  0  0  0  0  0  0  0  0  0  0
  182.0420  177.6600  136.1560 C   0  0  0  0  0  1  0  0  0  0  0  0
  181.8350  178.6840  138.8970 O   0  0  0  0  0  0  0  0  0  0  0  0
  184.3670  177.0430  137.0330 C   0  0  2  0  0  3  0  0  0  0  0  0
  187.4570  176.6010  142.8800 C   0  0  0  0  0  2  0  0  0  0  0  0
  186.1000  176.5220  135.5470 C   0  0  0  0  0  2  0  0  0  0  0  0
  187.6280  177.3760  138.1410 C   0  0  0  0  0  0  0  0  0  0  0  0
  187.9650  177.8970  136.7650 C   0  0  2  0  0  3  0  0  0  0  0  0
  188.4870  177.6110  142.3940 C   0  0  1  0  0  0  0  0  0  0  0  0
  182.9070  178.1630  138.4910 C   0  0  0  0  0  0  0  0  0  0  0  0
  187.5420  177.9660  143.5470 C   0  0  1  0  0  3  0  0  0  0  0  0
  187.5760  176.9770  135.5810 C   0  0  1  0  0  3  0  0  0  0  0  0
  189.3880  178.4220  136.6390 C   0  0  0  0  0  1  0  0  0  0  0  0
  189.7760  175.9020  135.5410 C   0  0  0  0  0  0  0  0  0  0  0  0
  188.4760  175.7810  135.5140 C   0  0  0  0  0  3  0  0  0  0  0  0
  191.0750  176.0260  135.5620 C   0  0  0  0  0  3  0  0  0  0  0  0
  195.0480  173.3310  136.6960 C   0  0  0  0  0  2  0  0  0  0  0  0
  193.6590  175.7940  137.2220 C   0  0  0  0  0  2  0  0  0  0  0  0
  191.8840  174.0510  134.5950 O   0  0  0  0  0  0  0  0  0  0  0  0
  194.6610  175.3190  138.1810 N   0  0  0  0  0  2  0  0  0  0  0  0
  193.5250  173.3220  136.7700 C   0  0  0  0  0  2  0  0  0  0  0  0
  195.6660  174.4830  137.5100 C   0  0  2  0  0  3  0  0  0  0  0  0
  193.0160  174.6700  136.5370 N   0  0  0  0  0  0  0  0  0  0  0  0
  192.0020  174.8800  135.5360 C   0  0  0  0  0  0  0  0  0  0  0  0
  196.5180  175.3030  136.6600 N   0  0  0  0  0  2  0  0  0  0  0  0
  198.5650  175.3870  136.1420 O   0  0  0  0  0  1  0  0  0  0  0  0
  197.7670  175.2490  137.1800 O   0  0  0  0  0  0  0  0  0  0  0  0
  1  6  2  0  0  0  0
  2 25  1  0  0  0  0
  2  3  1  0  0  0  0
  4  7  1  0  0  0  0
  5  1  1  6  0  0  0
  5 12  1  0  0  0  0
  7 27  1  0  0  0  0
  9  4  2  0  0  0  0
 10  2  2  0  0  0  0
 12  9  1  0  0  0  0
 13  8  1  6  0  0  0
 13 10  1  0  0  0  0
 13 17  1  0  0  0  0
 14 13  1  0  0  0  0
 15 26  1  0  0  0  0
 16 17  2  0  0  0  0
 16  4  1  0  0  0  0
 17 25  1  0  0  0  0
 18 15  1  0  0  0  0
 20 11  1  6  0  0  0
 20 15  1  0  0  0  0
 20  1  1  0  0  0  0
 22 28  1  0  0  0  0
 22 11  1  0  0  0  0
 23  6  2  0  0  0  0
 23 14  1  0  0  0  0
 24 29  1  1  0  0  0
 24 23  1  0  0  0  0
 25 21  1  6  0  0  0
 25 27  1  0  0  0  0
 26 19  2  0  0  0  0
 26  5  1  0  0  0  0
 27 21  1  6  0  0  0
 28 31  1  1  0  0  0
 28 24  1  0  0  0  0
 30 32  2  0  0  0  0
 31 30  2  0  0  0  0
 33 37  1  0  0  0  0
 33 38  1  0  0  0  0
 34 36  1  0  0  0  0
 35 40  2  0  0  0  0
 38 41  1  6  0  0  0
 38 36  1  0  0  0  0
 39 37  1  0  0  0  0
 39 34  1  0  0  0  0
 40 32  1  0  0  0  0
 40 39  1  0  0  0  0
 41 43  1  0  0  0  0
 42 43  1  0  0  0  0
M  END
>  <MODEL>
8

>  <REMARK>
 VINA RESULT:      -6.7      3.769      8.199
  Name = 
  4 active torsions:
  status: ('A' for Active; 'I' for Inactive)
    1  A    between atoms: N_22  and  C_40
    2  A    between atoms: N_22  and  O_41
    3  A    between atoms: C_27  and  C_38
    4  A    between atoms: C_28  and  C_43
                            x       y       z     vdW  Elec       q    Type
                         _______ _______ _______ _____ _____    ______ ____

>  <TORSDO>
F 4

$$$$
=
 OpenBabel11042412543D

 43 49  0  0  1  0  0  0  0  0999 V2000
  185.7350  177.9090  143.8870 C   0  0  0  0  0  0  0  0  0  0  0  0
  190.9330  176.4260  146.9020 C   0  0  0  0  0  0  0  0  0  0  0  0
  191.7890  175.5180  147.7180 C   0  0  0  0  0  1  0  0  0  0  0  0
  187.3340  178.6410  147.4230 C   0  0  0  0  0  0  0  0  0  0  0  0
  184.9500  178.2560  145.1400 C   0  0  1  0  0  3  0  0  0  0  0  0
  187.0390  177.8870  143.7520 C   0  0  0  0  0  0  0  0  0  0  0  0
  187.7930  178.0510  148.6180 O   0  0  0  0  0  0  0  0  0  0  0  0
  190.7770  178.8920  144.6910 F   0  0  0  0  0  0  0  0  0  0  0  0
  186.0570  178.9700  147.2590 C   0  0  0  0  0  3  0  0  0  0  0  0
  191.1820  176.7450  145.6210 C   0  0  0  0  0  3  0  0  0  0  0  0
  185.5640  178.8300  141.6120 N   0  0  0  0  0  2  0  0  0  0  0  0
  185.5640  179.3030  145.9530 N   0  0  0  0  0  2  0  0  0  0  0  0
  190.1570  177.7120  145.0590 C   0  0  2  0  0  0  0  0  0  0  0  0
  189.3720  177.0930  143.8820 C   0  0  0  0  0  2  0  0  0  0  0  0
  183.6910  178.7110  143.1130 N   0  0  0  0  0  0  0  0  0  0  0  0
  188.2190  178.7130  146.2710 C   0  0  0  0  0  3  0  0  0  0  0  0
  189.2730  177.9280  146.2340 C   0  0  0  0  0  0  0  0  0  0  0  0
  182.5120  178.9200  142.2890 C   0  0  0  0  0  1  0  0  0  0  0  0
  182.7160  179.1900  145.2030 O   0  0  0  0  0  0  0  0  0  0  0  0
  184.8890  178.0400  142.6470 C   0  0  2  0  0  3  0  0  0  0  0  0
  188.6660  176.0010  147.6980 C   0  0  0  0  0  2  0  0  0  0  0  0
  186.3860  177.8890  140.8520 C   0  0  0  0  0  2  0  0  0  0  0  0
  188.2790  177.9930  143.3430 C   0  0  0  0  0  0  0  0  0  0  0  0
  188.4680  178.8500  142.1140 C   0  0  2  0  0  3  0  0  0  0  0  0
  189.6830  177.0780  147.3510 C   0  0  1  0  0  0  0  0  0  0  0  0
  183.6950  178.7700  144.5320 C   0  0  0  0  0  0  0  0  0  0  0  0
  188.9150  177.1390  148.6760 C   0  0  1  0  0  3  0  0  0  0  0  0
  187.8790  178.2840  140.7990 C   0  0  1  0  0  3  0  0  0  0  0  0
  189.8920  179.3570  141.9330 C   0  0  0  0  0  1  0  0  0  0  0  0
  189.4350  177.2250  139.2340 C   0  0  0  0  0  0  0  0  0  0  0  0
  188.6910  177.1280  140.3020 C   0  0  0  0  0  3  0  0  0  0  0  0
  190.1740  177.3230  138.1620 C   0  0  0  0  0  3  0  0  0  0  0  0
  191.4380  173.3990  135.4530 C   0  0  0  0  0  2  0  0  0  0  0  0
  189.3600  175.3200  135.9680 C   0  0  0  0  0  2  0  0  0  0  0  0
  192.0390  175.9150  138.3260 O   0  0  0  0  0  0  0  0  0  0  0  0
  189.3370  174.5600  134.7140 N   0  0  0  0  0  2  0  0  0  0  0  0
  191.8210  174.8510  135.7230 C   0  0  0  0  0  2  0  0  0  0  0  0
  190.0150  173.2680  134.8790 C   0  0  2  0  0  3  0  0  0  0  0  0
  190.7350  175.5180  136.4340 N   0  0  0  0  0  0  0  0  0  0  0  0
  191.0200  176.2280  137.6540 C   0  0  0  0  0  0  0  0  0  0  0  0
  189.2150  172.3810  135.7110 N   0  0  0  0  0  2  0  0  0  0  0  0
  187.1170  172.1330  135.7850 O   0  0  0  0  0  1  0  0  0  0  0  0
  188.1450  172.0000  134.9730 O   0  0  0  0  0  0  0  0  0  0  0  0
  2 25  1  0  0  0  0
  2  3  1  0  0  0  0
  4  7  1  0  0  0  0
  5  1  1  6  0  0  0
  5 12  1  0  0  0  0
  6  1  2  0  0  0  0
  7 27  1  0  0  0  0
  9  4  2  0  0  0  0
 10  2  2  0  0  0  0
 12  9  1  0  0  0  0
 13  8  1  6  0  0  0
 13 10  1  0  0  0  0
 13 17  1  0  0  0  0
 14 13  1  0  0  0  0
 15 26  1  0  0  0  0
 16  4  1  0  0  0  0
 17 16  2  0  0  0  0
 17 25  1  0  0  0  0
 18 15  1  0  0  0  0
 20 11  1  6  0  0  0
 20 15  1  0  0  0  0
 20  1  1  0  0  0  0
 22 11  1  0  0  0  0
 23  6  2  0  0  0  0
 23 14  1  0  0  0  0
 24 29  1  6  0  0  0
 24 23  1  0  0  0  0
 25 21  1  6  0  0  0
 25 27  1  0  0  0  0
 26  5  1  0  0  0  0
 26 19  2  0  0  0  0
 27 21  1  6  0  0  0
 28 31  1  1  0  0  0
 28 22  1  0  0  0  0
 28 24  1  0  0  0  0
 30 31  2  0  0  0  0
 32 30  2  0  0  0  0
 33 37  1  0  0  0  0
 34 39  1  0  0  0  0
 36 38  1  0  0  0  0
 36 34  1  0  0  0  0
 37 39  1  0  0  0  0
 38 33  1  0  0  0  0
 38 41  1  1  0  0  0
 39 40  1  0  0  0  0
 40 32  1  0  0  0  0
 40 35  2  0  0  0  0
 43 41  1  0  0  0  0
 43 42  1  0  0  0  0
M  END
>  <MODEL>
9

>  <REMARK>
 VINA RESULT:      -6.7      3.782     10.450
  Name = 
  4 active torsions:
  status: ('A' for Active; 'I' for Inactive)
    1  A    between atoms: N_22  and  C_40
    2  A    between atoms: N_22  and  O_41
    3  A    between atoms: C_27  and  C_38
    4  A    between atoms: C_28  and  C_43
                            x       y       z     vdW  Elec       q    Type
                         _______ _______ _______ _____ _____    ______ ____

>  <TORSDO>
F 4

$$$$
