=
 OpenBabel11032419303D

 31 34  0  0  1  0  0  0  0  0999 V2000
  185.1080  178.8420  139.8880 C   0  0  0  0  0  2  0  0  0  0  0  0
  185.9960  177.8710  139.1140 C   0  0  2  0  0  3  0  0  0  0  0  0
  185.3470  178.7790  141.3880 C   0  0  0  0  0  2  0  0  0  0  0  0
  187.7440  178.3680  141.5770 N   0  0  0  0  0  0  0  0  0  0  0  0
  186.6980  179.3780  141.7330 C   0  0  0  0  0  2  0  0  0  0  0  0
  187.4350  178.4250  139.0220 C   0  0  1  0  0  3  0  0  0  0  0  0
  189.3880  177.5550  140.1270 O   0  0  0  0  0  0  0  0  0  0  0  0
  188.2410  178.0720  140.2570 C   0  0  0  0  0  0  0  0  0  0  0  0
  189.3390  178.0740  135.8230 C   0  0  0  0  0  3  0  0  0  0  0  0
  188.7830  178.8800  136.8460 C   0  0  0  0  0  3  0  0  0  0  0  0
  189.1410  175.5010  135.7890 C   0  0  0  0  0  0  0  0  0  0  0  0
  188.9950  176.7930  136.2050 C   0  0  0  0  0  0  0  0  0  0  0  0
  188.4860  174.7290  136.7610 C   0  0  0  0  0  3  0  0  0  0  0  0
  187.9760  175.5680  137.7090 N   0  0  0  0  0  2  0  0  0  0  0  0
  188.1480  178.0250  137.7560 C   0  0  0  0  0  0  0  0  0  0  0  0
  189.8230  175.0340  134.6300 N   0  0  0  0  0  1  0  0  0  0  0  0
  188.3180  176.7800  137.3140 N   0  0  0  0  0  0  0  0  0  0  0  0
  189.2250  178.1900  143.4690 C   0  0  0  0  0  3  0  0  0  0  0  0
  187.5530  176.3890  143.1600 C   0  0  0  0  0  1  0  0  0  0  0  0
  188.2240  177.6610  142.7440 C   0  0  0  0  0  0  0  0  0  0  0  0
  189.3290  177.8360  145.9110 N   0  0  0  0  0  0  0  0  0  0  0  0
  189.8670  177.6510  144.6850 C   0  0  0  0  0  0  0  0  0  0  0  0
  191.3220  176.8030  144.7920 S   0  0  0  0  0  0  0  0  0  0  0  0
  190.0790  177.2900  146.9060 C   0  0  0  0  0  3  0  0  0  0  0  0
  191.2380  176.6630  146.4670 C   0  0  0  0  0  0  0  0  0  0  0  0
  192.2300  175.9990  147.3200 C   0  0  0  0  0  0  0  0  0  0  0  0
  192.6060  176.5760  148.5670 N   0  0  0  0  0  1  0  0  0  0  0  0
  192.7560  174.9160  146.9530 O   0  0  0  0  0  0  0  0  0  0  0  0
  185.4160  177.6650  137.7910 N   0  0  0  0  0  2  0  0  0  0  0  0
  183.6770  175.8340  137.3810 N   0  0  0  0  0  0  0  0  0  0  0  0
  184.4650  176.6620  137.5670 C   0  0  0  0  0  0  0  0  0  0  0  0
  1  3  1  0  0  0  0
  2 29  1  6  0  0  0
  2  1  1  0  0  0  0
  3  5  1  0  0  0  0
  4  5  1  0  0  0  0
  4 20  1  0  0  0  0
  6 15  1  6  0  0  0
  6  2  1  0  0  0  0
  6  8  1  0  0  0  0
  7  8  2  0  0  0  0
  8  4  1  0  0  0  0
  9 12  2  0  0  0  0
  9 10  1  0  0  0  0
 10 15  2  0  0  0  0
 11 12  1  0  0  0  0
 11 13  2  0  0  0  0
 12 17  1  0  0  0  0
 13 14  1  0  0  0  0
 16 11  1  0  0  0  0
 17 14  1  0  0  0  0
 17 15  1  0  0  0  0
 18 22  1  0  0  0  0
 20 19  1  0  0  0  0
 20 18  2  0  0  0  0
 21 24  1  0  0  0  0
 22 23  1  0  0  0  0
 22 21  2  0  0  0  0
 23 25  1  0  0  0  0
 25 24  2  0  0  0  0
 25 26  1  0  0  0  0
 26 27  1  0  0  0  0
 28 26  2  0  0  0  0
 30 31  3  0  0  0  0
 31 29  1  0  0  0  0
M  END
>  <MODEL>
1

>  <REMARK>
 VINA RESULT:      -6.3      0.000      0.000
  Name = 
  6 active torsions:
  status: ('A' for Active; 'I' for Inactive)
    1  A    between atoms: C_3  and  C_29
    2  A    between atoms: N_5  and  C_14
    3  A    between atoms: N_5  and  C_19
    4  A    between atoms: C_11  and  C_21
    5  A    between atoms: N_18  and  C_28
    6  A    between atoms: C_20  and  C_23
                            x       y       z     vdW  Elec       q    Type
                         _______ _______ _______ _____ _____    ______ ____

>  <TORSDO>
F 6

$$$$
=
 OpenBabel11032419303D

 31 34  0  0  1  0  0  0  0  0999 V2000
  190.4040  174.7570  135.9070 C   0  0  0  0  0  2  0  0  0  0  0  0
  191.5950  174.3400  136.7680 C   0  0  2  0  0  3  0  0  0  0  0  0
  189.4040  175.6100  136.6710 C   0  0  0  0  0  2  0  0  0  0  0  0
  190.8010  176.9490  138.1580 N   0  0  0  0  0  0  0  0  0  0  0  0
  189.9840  176.9850  136.9460 C   0  0  0  0  0  2  0  0  0  0  0  0
  192.5670  175.5270  136.9400 C   0  0  1  0  0  3  0  0  0  0  0  0
  192.9880  176.7640  138.9610 O   0  0  0  0  0  0  0  0  0  0  0  0
  192.1420  176.4260  138.0850 C   0  0  0  0  0  0  0  0  0  0  0  0
  195.9150  174.0390  137.6950 C   0  0  0  0  0  3  0  0  0  0  0  0
  194.5200  174.1230  137.9280 C   0  0  0  0  0  3  0  0  0  0  0  0
  197.1450  175.4960  135.9560 C   0  0  0  0  0  0  0  0  0  0  0  0
  196.1280  174.9790  136.7070 C   0  0  0  0  0  0  0  0  0  0  0  0
  196.5350  176.4540  135.1290 C   0  0  0  0  0  3  0  0  0  0  0  0
  195.1990  176.4800  135.4090 N   0  0  0  0  0  2  0  0  0  0  0  0
  194.0080  175.1030  137.0690 C   0  0  0  0  0  0  0  0  0  0  0  0
  198.5200  175.1340  135.9890 N   0  0  0  0  0  1  0  0  0  0  0  0
  195.0290  175.5770  136.3560 N   0  0  0  0  0  0  0  0  0  0  0  0
  190.7040  176.9020  140.5650 C   0  0  0  0  0  3  0  0  0  0  0  0
  189.1660  178.4500  139.3950 C   0  0  0  0  0  1  0  0  0  0  0  0
  190.2290  177.3970  139.4090 C   0  0  0  0  0  0  0  0  0  0  0  0
  191.0210  177.9960  142.7550 N   0  0  0  0  0  0  0  0  0  0  0  0
  190.2780  177.2110  141.9450 C   0  0  0  0  0  0  0  0  0  0  0  0
  188.9070  176.6480  142.7500 S   0  0  0  0  0  0  0  0  0  0  0  0
  190.4780  178.1420  143.9940 C   0  0  0  0  0  3  0  0  0  0  0  0
  189.2830  177.4570  144.1760 C   0  0  0  0  0  0  0  0  0  0  0  0
  188.4890  177.4320  145.4090 C   0  0  0  0  0  0  0  0  0  0  0  0
  187.1790  177.9930  145.4310 N   0  0  0  0  0  1  0  0  0  0  0  0
  188.9600  176.9150  146.4550 O   0  0  0  0  0  0  0  0  0  0  0  0
  192.2490  173.1990  136.1350 N   0  0  0  0  0  2  0  0  0  0  0  0
  190.9450  171.6030  134.6180 N   0  0  0  0  0  0  0  0  0  0  0  0
  191.5350  172.3250  135.3060 C   0  0  0  0  0  0  0  0  0  0  0  0
  1  3  1  0  0  0  0
  1  2  1  0  0  0  0
  2 29  1  6  0  0  0
  2  6  1  0  0  0  0
  3  5  1  0  0  0  0
  4 20  1  0  0  0  0
  5  4  1  0  0  0  0
  6 15  1  1  0  0  0
  6  8  1  0  0  0  0
  8  4  1  0  0  0  0
  8  7  2  0  0  0  0
  9 10  1  0  0  0  0
 11 16  1  0  0  0  0
 11 12  1  0  0  0  0
 12  9  2  0  0  0  0
 13 14  1  0  0  0  0
 13 11  2  0  0  0  0
 14 17  1  0  0  0  0
 15 10  2  0  0  0  0
 17 12  1  0  0  0  0
 17 15  1  0  0  0  0
 18 22  1  0  0  0  0
 19 20  1  0  0  0  0
 20 18  2  0  0  0  0
 21 24  1  0  0  0  0
 22 23  1  0  0  0  0
 22 21  2  0  0  0  0
 23 25  1  0  0  0  0
 24 25  2  0  0  0  0
 25 26  1  0  0  0  0
 26 27  1  0  0  0  0
 26 28  2  0  0  0  0
 30 31  3  0  0  0  0
 31 29  1  0  0  0  0
M  END
>  <MODEL>
2

>  <REMARK>
 VINA RESULT:      -6.2      4.369      6.306
  Name = 
  6 active torsions:
  status: ('A' for Active; 'I' for Inactive)
    1  A    between atoms: C_3  and  C_29
    2  A    between atoms: N_5  and  C_14
    3  A    between atoms: N_5  and  C_19
    4  A    between atoms: C_11  and  C_21
    5  A    between atoms: N_18  and  C_28
    6  A    between atoms: C_20  and  C_23
                            x       y       z     vdW  Elec       q    Type
                         _______ _______ _______ _____ _____    ______ ____

>  <TORSDO>
F 6

$$$$
=
 OpenBabel11032419303D

 31 34  0  0  1  0  0  0  0  0999 V2000
  187.8610  178.2710  139.0020 C   0  0  0  0  0  2  0  0  0  0  0  0
  188.4200  178.4530  140.4120 C   0  0  2  0  0  3  0  0  0  0  0  0
  188.9380  177.9050  137.9930 C   0  0  0  0  0  2  0  0  0  0  0  0
  190.4660  176.4880  139.2620 N   0  0  0  0  0  0  0  0  0  0  0  0
  189.4280  176.4880  138.2330 C   0  0  0  0  0  2  0  0  0  0  0  0
  188.7110  177.0780  141.0500 C   0  0  1  0  0  3  0  0  0  0  0  0
  190.8740  176.1430  141.5380 O   0  0  0  0  0  0  0  0  0  0  0  0
  190.0790  176.5620  140.6490 C   0  0  0  0  0  0  0  0  0  0  0  0
  187.7630  176.6220  144.6400 C   0  0  0  0  0  3  0  0  0  0  0  0
  187.5450  176.3690  143.2630 C   0  0  0  0  0  3  0  0  0  0  0  0
  189.6790  178.1150  145.5120 C   0  0  0  0  0  0  0  0  0  0  0  0
  188.8670  177.4510  144.6380 C   0  0  0  0  0  0  0  0  0  0  0  0
  190.6250  178.7670  144.7060 C   0  0  0  0  0  3  0  0  0  0  0  0
  190.3530  178.4800  143.4000 N   0  0  0  0  0  2  0  0  0  0  0  0
  188.5260  177.0640  142.5460 C   0  0  0  0  0  0  0  0  0  0  0  0
  189.5970  178.1300  146.9330 N   0  0  0  0  0  1  0  0  0  0  0  0
  189.2940  177.6920  143.4350 N   0  0  0  0  0  0  0  0  0  0  0  0
  192.2390  175.6320  137.8750 C   0  0  0  0  0  3  0  0  0  0  0  0
  192.8270  177.3940  139.5130 C   0  0  0  0  0  1  0  0  0  0  0  0
  191.8560  176.4580  138.8630 C   0  0  0  0  0  0  0  0  0  0  0  0
  193.9830  176.0730  136.1830 N   0  0  0  0  0  0  0  0  0  0  0  0
  193.5890  175.4360  137.3080 C   0  0  0  0  0  0  0  0  0  0  0  0
  194.8070  174.4160  137.8750 S   0  0  0  0  0  0  0  0  0  0  0  0
  195.2480  175.7440  135.8040 C   0  0  0  0  0  3  0  0  0  0  0  0
  195.8710  174.8250  136.6390 C   0  0  0  0  0  0  0  0  0  0  0  0
  197.2260  174.2900  136.4650 C   0  0  0  0  0  0  0  0  0  0  0  0
  198.3390  175.1740  136.3550 N   0  0  0  0  0  1  0  0  0  0  0  0
  197.4140  173.0470  136.4100 O   0  0  0  0  0  0  0  0  0  0  0  0
  187.4560  179.2160  141.1980 N   0  0  0  0  0  2  0  0  0  0  0  0
  184.9410  178.8050  140.9700 N   0  0  0  0  0  0  0  0  0  0  0  0
  186.0800  178.9900  141.0720 C   0  0  0  0  0  0  0  0  0  0  0  0
  1  2  1  0  0  0  0
  2  6  1  0  0  0  0
  2 29  1  1  0  0  0
  3  5  1  0  0  0  0
  3  1  1  0  0  0  0
  4  8  1  0  0  0  0
  5  4  1  0  0  0  0
  6 15  1  1  0  0  0
  8  6  1  0  0  0  0
  8  7  2  0  0  0  0
 10  9  1  0  0  0  0
 11 16  1  0  0  0  0
 12  9  2  0  0  0  0
 12 11  1  0  0  0  0
 13 11  2  0  0  0  0
 14 17  1  0  0  0  0
 14 13  1  0  0  0  0
 15 10  2  0  0  0  0
 15 17  1  0  0  0  0
 17 12  1  0  0  0  0
 18 20  2  0  0  0  0
 20  4  1  0  0  0  0
 20 19  1  0  0  0  0
 21 22  2  0  0  0  0
 22 18  1  0  0  0  0
 22 23  1  0  0  0  0
 24 21  1  0  0  0  0
 24 25  2  0  0  0  0
 25 23  1  0  0  0  0
 26 25  1  0  0  0  0
 27 26  1  0  0  0  0
 28 26  2  0  0  0  0
 30 31  3  0  0  0  0
 31 29  1  0  0  0  0
M  END
>  <MODEL>
3

>  <REMARK>
 VINA RESULT:      -6.1      4.191      7.918
  Name = 
  6 active torsions:
  status: ('A' for Active; 'I' for Inactive)
    1  A    between atoms: C_3  and  C_29
    2  A    between atoms: N_5  and  C_14
    3  A    between atoms: N_5  and  C_19
    4  A    between atoms: C_11  and  C_21
    5  A    between atoms: N_18  and  C_28
    6  A    between atoms: C_20  and  C_23
                            x       y       z     vdW  Elec       q    Type
                         _______ _______ _______ _____ _____    ______ ____

>  <TORSDO>
F 6

$$$$
=
 OpenBabel11032419303D

 31 34  0  0  1  0  0  0  0  0999 V2000
  181.9130  179.1130  143.7200 C   0  0  0  0  0  2  0  0  0  0  0  0
  182.1770  178.3220  142.4400 C   0  0  2  0  0  3  0  0  0  0  0  0
  183.0530  178.9990  144.7190 C   0  0  0  0  0  2  0  0  0  0  0  0
  185.0490  178.9170  143.3170 N   0  0  0  0  0  0  0  0  0  0  0  0
  184.2690  179.7590  144.2230 C   0  0  0  0  0  2  0  0  0  0  0  0
  183.1860  179.0760  141.5480 C   0  0  1  0  0  3  0  0  0  0  0  0
  185.4530  178.4260  141.0680 O   0  0  0  0  0  0  0  0  0  0  0  0
  184.6150  178.7690  141.9500 C   0  0  0  0  0  0  0  0  0  0  0  0
  182.6410  179.1780  137.8490 C   0  0  0  0  0  3  0  0  0  0  0  0
  182.7980  179.8380  139.0920 C   0  0  0  0  0  3  0  0  0  0  0  0
  182.6820  176.6100  137.6000 C   0  0  0  0  0  0  0  0  0  0  0  0
  182.7280  177.8430  138.1860 C   0  0  0  0  0  0  0  0  0  0  0  0
  182.8620  175.7000  138.6530 C   0  0  0  0  0  3  0  0  0  0  0  0
  183.0040  176.4040  139.8140 N   0  0  0  0  0  2  0  0  0  0  0  0
  182.9610  178.8530  140.0740 C   0  0  0  0  0  0  0  0  0  0  0  0
  182.5080  176.3110  136.2190 N   0  0  0  0  0  1  0  0  0  0  0  0
  182.9140  177.6720  139.4600 N   0  0  0  0  0  0  0  0  0  0  0  0
  186.6350  178.4710  145.0740 C   0  0  0  0  0  3  0  0  0  0  0  0
  186.8720  177.1800  142.9740 C   0  0  0  0  0  1  0  0  0  0  0  0
  186.2080  178.2180  143.8250 C   0  0  0  0  0  0  0  0  0  0  0  0
  187.6380  177.3060  147.0070 N   0  0  0  0  0  0  0  0  0  0  0  0
  187.7830  177.8830  145.7940 C   0  0  0  0  0  0  0  0  0  0  0  0
  189.3990  177.8580  145.3090 S   0  0  0  0  0  0  0  0  0  0  0  0
  188.8120  176.8480  147.5200 C   0  0  0  0  0  3  0  0  0  0  0  0
  189.9130  177.0670  146.7020 C   0  0  0  0  0  0  0  0  0  0  0  0
  191.2960  176.6840  147.0060 C   0  0  0  0  0  0  0  0  0  0  0  0
  192.0160  175.8280  146.1240 N   0  0  0  0  0  1  0  0  0  0  0  0
  191.8550  177.1090  148.0510 O   0  0  0  0  0  0  0  0  0  0  0  0
  180.9060  178.1130  141.7540 N   0  0  0  0  0  2  0  0  0  0  0  0
  178.9930  179.7960  141.9770 N   0  0  0  0  0  0  0  0  0  0  0  0
  179.8580  179.0330  141.8760 C   0  0  0  0  0  0  0  0  0  0  0  0
  1  3  1  0  0  0  0
  2 29  1  6  0  0  0
  2  1  1  0  0  0  0
  4 20  1  0  0  0  0
  4  5  1  0  0  0  0
  5  3  1  0  0  0  0
  6 15  1  6  0  0  0
  6  8  1  0  0  0  0
  6  2  1  0  0  0  0
  7  8  2  0  0  0  0
  8  4  1  0  0  0  0
  9 12  2  0  0  0  0
  9 10  1  0  0  0  0
 10 15  2  0  0  0  0
 11 12  1  0  0  0  0
 11 13  2  0  0  0  0
 12 17  1  0  0  0  0
 13 14  1  0  0  0  0
 16 11  1  0  0  0  0
 17 14  1  0  0  0  0
 17 15  1  0  0  0  0
 18 22  1  0  0  0  0
 19 20  1  0  0  0  0
 20 18  2  0  0  0  0
 21 24  1  0  0  0  0
 22 21  2  0  0  0  0
 23 22  1  0  0  0  0
 23 25  1  0  0  0  0
 25 26  1  0  0  0  0
 25 24  2  0  0  0  0
 26 28  2  0  0  0  0
 27 26  1  0  0  0  0
 29 31  1  0  0  0  0
 31 30  3  0  0  0  0
M  END
>  <MODEL>
4

>  <REMARK>
 VINA RESULT:      -6.1      3.992      4.796
  Name = 
  6 active torsions:
  status: ('A' for Active; 'I' for Inactive)
    1  A    between atoms: C_3  and  C_29
    2  A    between atoms: N_5  and  C_14
    3  A    between atoms: N_5  and  C_19
    4  A    between atoms: C_11  and  C_21
    5  A    between atoms: N_18  and  C_28
    6  A    between atoms: C_20  and  C_23
                            x       y       z     vdW  Elec       q    Type
                         _______ _______ _______ _____ _____    ______ ____

>  <TORSDO>
F 6

$$$$
=
 OpenBabel11032419303D

 31 34  0  0  1  0  0  0  0  0999 V2000
  181.2680  179.0590  143.3790 C   0  0  0  0  0  2  0  0  0  0  0  0
  181.5630  178.2490  142.1190 C   0  0  2  0  0  3  0  0  0  0  0  0
  182.3960  178.9870  144.3950 C   0  0  0  0  0  2  0  0  0  0  0  0
  184.4110  178.9180  143.0210 N   0  0  0  0  0  0  0  0  0  0  0  0
  183.6030  179.7620  143.9000 C   0  0  0  0  0  2  0  0  0  0  0  0
  182.5690  179.0060  141.2250 C   0  0  1  0  0  3  0  0  0  0  0  0
  184.8550  178.3930  140.7870 O   0  0  0  0  0  0  0  0  0  0  0  0
  183.9990  178.7360  141.6520 C   0  0  0  0  0  0  0  0  0  0  0  0
  182.0060  179.0240  137.5270 C   0  0  0  0  0  3  0  0  0  0  0  0
  182.0880  179.7050  138.7670 C   0  0  0  0  0  3  0  0  0  0  0  0
  182.3480  176.4770  137.2910 C   0  0  0  0  0  0  0  0  0  0  0  0
  182.2500  177.7100  137.8700 C   0  0  0  0  0  0  0  0  0  0  0  0
  182.6370  175.6000  138.3480 C   0  0  0  0  0  3  0  0  0  0  0  0
  182.6980  176.3220  139.5050 N   0  0  0  0  0  2  0  0  0  0  0  0
  182.3690  178.7510  139.7530 C   0  0  0  0  0  0  0  0  0  0  0  0
  182.2070  176.1530  135.9130 N   0  0  0  0  0  1  0  0  0  0  0  0
  182.4590  177.5680  139.1450 N   0  0  0  0  0  0  0  0  0  0  0  0
  186.6870  178.1590  142.8020 C   0  0  0  0  0  3  0  0  0  0  0  0
  185.5510  177.7410  144.9630 C   0  0  0  0  0  1  0  0  0  0  0  0
  185.5780  178.2530  143.5570 C   0  0  0  0  0  0  0  0  0  0  0  0
  188.5280  176.5760  142.3570 N   0  0  0  0  0  0  0  0  0  0  0  0
  187.9810  177.5320  143.1390 C   0  0  0  0  0  0  0  0  0  0  0  0
  188.9440  177.8210  144.4940 S   0  0  0  0  0  0  0  0  0  0  0  0
  189.7070  176.1020  142.8460 C   0  0  0  0  0  3  0  0  0  0  0  0
  190.1030  176.6880  144.0420 C   0  0  0  0  0  0  0  0  0  0  0  0
  191.3210  176.3650  144.7930 C   0  0  0  0  0  0  0  0  0  0  0  0
  191.6810  177.1280  145.9410 N   0  0  0  0  0  1  0  0  0  0  0  0
  192.0570  175.4120  144.4260 O   0  0  0  0  0  0  0  0  0  0  0  0
  180.3070  178.0010  141.4200 N   0  0  0  0  0  2  0  0  0  0  0  0
  179.2740  175.6610  141.3440 N   0  0  0  0  0  0  0  0  0  0  0  0
  179.7430  176.7200  141.3790 C   0  0  0  0  0  0  0  0  0  0  0  0
  1  3  1  0  0  0  0
  2 29  1  6  0  0  0
  2  1  1  0  0  0  0
  4 20  1  0  0  0  0
  4  5  1  0  0  0  0
  5  3  1  0  0  0  0
  6 15  1  6  0  0  0
  6  8  1  0  0  0  0
  6  2  1  0  0  0  0
  7  8  2  0  0  0  0
  8  4  1  0  0  0  0
  9 12  2  0  0  0  0
  9 10  1  0  0  0  0
 10 15  2  0  0  0  0
 11 12  1  0  0  0  0
 11 13  2  0  0  0  0
 12 17  1  0  0  0  0
 13 14  1  0  0  0  0
 16 11  1  0  0  0  0
 17 14  1  0  0  0  0
 17 15  1  0  0  0  0
 18 22  1  0  0  0  0
 18 20  2  0  0  0  0
 20 19  1  0  0  0  0
 21 24  1  0  0  0  0
 21 22  2  0  0  0  0
 22 23  1  0  0  0  0
 24 25  2  0  0  0  0
 25 23  1  0  0  0  0
 25 26  1  0  0  0  0
 26 27  1  0  0  0  0
 28 26  2  0  0  0  0
 30 31  3  0  0  0  0
 31 29  1  0  0  0  0
M  END
>  <MODEL>
5

>  <REMARK>
 VINA RESULT:      -5.9      4.023      5.063
  Name = 
  6 active torsions:
  status: ('A' for Active; 'I' for Inactive)
    1  A    between atoms: C_3  and  C_29
    2  A    between atoms: N_5  and  C_14
    3  A    between atoms: N_5  and  C_19
    4  A    between atoms: C_11  and  C_21
    5  A    between atoms: N_18  and  C_28
    6  A    between atoms: C_20  and  C_23
                            x       y       z     vdW  Elec       q    Type
                         _______ _______ _______ _____ _____    ______ ____

>  <TORSDO>
F 6

$$$$
=
 OpenBabel11032419303D

 31 34  0  0  1  0  0  0  0  0999 V2000
  182.4620  178.6950  142.8160 C   0  0  0  0  0  2  0  0  0  0  0  0
  182.5040  178.1430  141.3930 C   0  0  2  0  0  3  0  0  0  0  0  0
  183.8170  178.6400  143.5020 C   0  0  0  0  0  2  0  0  0  0  0  0
  185.3990  179.0920  141.6990 N   0  0  0  0  0  0  0  0  0  0  0  0
  184.7620  179.6570  142.8880 C   0  0  0  0  0  2  0  0  0  0  0  0
  183.1530  179.1730  140.4430 C   0  0  1  0  0  3  0  0  0  0  0  0
  185.2980  178.9910  139.3660 O   0  0  0  0  0  0  0  0  0  0  0  0
  184.6650  179.0620  140.4580 C   0  0  0  0  0  0  0  0  0  0  0  0
  182.0360  178.4310  136.9520 C   0  0  0  0  0  3  0  0  0  0  0  0
  182.7220  178.0590  138.1340 C   0  0  0  0  0  3  0  0  0  0  0  0
  180.8250  180.6940  136.6760 C   0  0  0  0  0  0  0  0  0  0  0  0
  181.5550  179.6910  137.2470 C   0  0  0  0  0  0  0  0  0  0  0  0
  180.7560  181.6960  137.6560 C   0  0  0  0  0  3  0  0  0  0  0  0
  181.4370  181.2710  138.7600 N   0  0  0  0  0  2  0  0  0  0  0  0
  182.6040  179.1200  139.0410 C   0  0  0  0  0  0  0  0  0  0  0  0
  180.2450  180.7130  135.3770 N   0  0  0  0  0  1  0  0  0  0  0  0
  181.8850  180.0700  138.4450 N   0  0  0  0  0  0  0  0  0  0  0  0
  187.0880  177.8990  142.9340 C   0  0  0  0  0  3  0  0  0  0  0  0
  187.6610  178.6280  140.6380 C   0  0  0  0  0  1  0  0  0  0  0  0
  186.7300  178.5380  141.8070 C   0  0  0  0  0  0  0  0  0  0  0  0
  188.9640  176.3760  142.4260 N   0  0  0  0  0  0  0  0  0  0  0  0
  188.3790  177.2610  143.2630 C   0  0  0  0  0  0  0  0  0  0  0  0
  189.2950  177.4520  144.6670 S   0  0  0  0  0  0  0  0  0  0  0  0
  190.1320  175.8780  142.9140 C   0  0  0  0  0  3  0  0  0  0  0  0
  190.4820  176.3710  144.1650 C   0  0  0  0  0  0  0  0  0  0  0  0
  191.6800  176.0030  144.9270 C   0  0  0  0  0  0  0  0  0  0  0  0
  192.0130  176.7000  146.1240 N   0  0  0  0  0  1  0  0  0  0  0  0
  192.4230  175.0690  144.5260 O   0  0  0  0  0  0  0  0  0  0  0  0
  181.1430  177.8170  140.9800 N   0  0  0  0  0  2  0  0  0  0  0  0
  179.1540  178.2530  142.5280 N   0  0  0  0  0  0  0  0  0  0  0  0
  180.0540  178.0540  141.8280 C   0  0  0  0  0  0  0  0  0  0  0  0
  1  3  1  0  0  0  0
  2 29  1  6  0  0  0
  2  1  1  0  0  0  0
  4 20  1  0  0  0  0
  4  5  1  0  0  0  0
  5  3  1  0  0  0  0
  6 15  1  6  0  0  0
  6  8  1  0  0  0  0
  6  2  1  0  0  0  0
  7  8  2  0  0  0  0
  8  4  1  0  0  0  0
  9 12  2  0  0  0  0
  9 10  1  0  0  0  0
 10 15  2  0  0  0  0
 11 12  1  0  0  0  0
 11 13  2  0  0  0  0
 12 17  1  0  0  0  0
 13 14  1  0  0  0  0
 16 11  1  0  0  0  0
 17 14  1  0  0  0  0
 17 15  1  0  0  0  0
 18 22  1  0  0  0  0
 19 20  1  0  0  0  0
 20 18  2  0  0  0  0
 21 24  1  0  0  0  0
 21 22  2  0  0  0  0
 22 23  1  0  0  0  0
 24 25  2  0  0  0  0
 25 23  1  0  0  0  0
 25 26  1  0  0  0  0
 26 27  1  0  0  0  0
 28 26  2  0  0  0  0
 29 31  1  0  0  0  0
 31 30  3  0  0  0  0
M  END
>  <MODEL>
6

>  <REMARK>
 VINA RESULT:      -5.9      3.557      5.578
  Name = 
  6 active torsions:
  status: ('A' for Active; 'I' for Inactive)
    1  A    between atoms: C_3  and  C_29
    2  A    between atoms: N_5  and  C_14
    3  A    between atoms: N_5  and  C_19
    4  A    between atoms: C_11  and  C_21
    5  A    between atoms: N_18  and  C_28
    6  A    between atoms: C_20  and  C_23
                            x       y       z     vdW  Elec       q    Type
                         _______ _______ _______ _____ _____    ______ ____

>  <TORSDO>
F 6

$$$$
=
 OpenBabel11032419303D

 31 34  0  0  1  0  0  0  0  0999 V2000
  182.8310  178.9610  144.2240 C   0  0  0  0  0  2  0  0  0  0  0  0
  184.0540  179.4080  143.4270 C   0  0  2  0  0  3  0  0  0  0  0  0
  181.5430  179.0720  143.4250 C   0  0  0  0  0  2  0  0  0  0  0  0
  182.2180  178.4990  141.1510 N   0  0  0  0  0  0  0  0  0  0  0  0
  181.5050  178.0180  142.3340 C   0  0  0  0  0  2  0  0  0  0  0  0
  184.4550  178.3150  142.4120 C   0  0  1  0  0  3  0  0  0  0  0  0
  184.2600  178.4300  140.0160 O   0  0  0  0  0  0  0  0  0  0  0  0
  183.6580  178.4350  141.1280 C   0  0  0  0  0  0  0  0  0  0  0  0
  188.0070  178.6330  141.2850 C   0  0  0  0  0  3  0  0  0  0  0  0
  186.6360  178.9600  141.1510 C   0  0  0  0  0  3  0  0  0  0  0  0
  188.9050  177.0310  143.0980 C   0  0  0  0  0  0  0  0  0  0  0  0
  188.0230  177.7660  142.3580 C   0  0  0  0  0  0  0  0  0  0  0  0
  188.1190  176.3840  144.0650 C   0  0  0  0  0  3  0  0  0  0  0  0
  186.8160  176.7430  143.8740 N   0  0  0  0  0  2  0  0  0  0  0  0
  185.9380  178.2640  142.1460 C   0  0  0  0  0  0  0  0  0  0  0  0
  190.3170  176.9510  142.9380 N   0  0  0  0  0  1  0  0  0  0  0  0
  186.8340  177.5660  142.8430 N   0  0  0  0  0  0  0  0  0  0  0  0
  182.0420  179.9940  139.2720 C   0  0  0  0  0  3  0  0  0  0  0  0
  180.0850  178.5610  139.7720 C   0  0  0  0  0  1  0  0  0  0  0  0
  181.4660  179.0660  140.0550 C   0  0  0  0  0  0  0  0  0  0  0  0
  181.1850  180.0550  136.9570 N   0  0  0  0  0  0  0  0  0  0  0  0
  181.4710  180.7020  138.1080 C   0  0  0  0  0  0  0  0  0  0  0  0
  181.1340  182.3490  137.9680 S   0  0  0  0  0  0  0  0  0  0  0  0
  180.6930  180.8800  135.9930 C   0  0  0  0  0  3  0  0  0  0  0  0
  180.5900  182.2100  136.3820 C   0  0  0  0  0  0  0  0  0  0  0  0
  180.1010  183.3120  135.5460 C   0  0  0  0  0  0  0  0  0  0  0  0
  180.8090  184.5480  135.4990 N   0  0  0  0  0  1  0  0  0  0  0  0
  179.0510  183.1730  134.8660 O   0  0  0  0  0  0  0  0  0  0  0  0
  185.1380  179.6960  144.3600 N   0  0  0  0  0  2  0  0  0  0  0  0
  185.1290  178.7410  146.7330 N   0  0  0  0  0  0  0  0  0  0  0  0
  185.1310  179.1730  145.6590 C   0  0  0  0  0  0  0  0  0  0  0  0
  2  1  1  0  0  0  0
  2 29  1  1  0  0  0
  3  1  1  0  0  0  0
  4  5  1  0  0  0  0
  5  3  1  0  0  0  0
  6 15  1  6  0  0  0
  6  2  1  0  0  0  0
  7  8  2  0  0  0  0
  8  4  1  0  0  0  0
  8  6  1  0  0  0  0
  9 12  2  0  0  0  0
 10  9  1  0  0  0  0
 10 15  2  0  0  0  0
 11 13  2  0  0  0  0
 12 17  1  0  0  0  0
 12 11  1  0  0  0  0
 14 13  1  0  0  0  0
 15 17  1  0  0  0  0
 16 11  1  0  0  0  0
 17 14  1  0  0  0  0
 18 20  2  0  0  0  0
 19 20  1  0  0  0  0
 20  4  1  0  0  0  0
 21 22  2  0  0  0  0
 22 18  1  0  0  0  0
 23 22  1  0  0  0  0
 24 25  2  0  0  0  0
 24 21  1  0  0  0  0
 25 23  1  0  0  0  0
 26 25  1  0  0  0  0
 27 26  1  0  0  0  0
 28 26  2  0  0  0  0
 29 31  1  0  0  0  0
 31 30  3  0  0  0  0
M  END
>  <MODEL>
7

>  <REMARK>
 VINA RESULT:      -5.8      5.232      9.883
  Name = 
  6 active torsions:
  status: ('A' for Active; 'I' for Inactive)
    1  A    between atoms: C_3  and  C_29
    2  A    between atoms: N_5  and  C_14
    3  A    between atoms: N_5  and  C_19
    4  A    between atoms: C_11  and  C_21
    5  A    between atoms: N_18  and  C_28
    6  A    between atoms: C_20  and  C_23
                            x       y       z     vdW  Elec       q    Type
                         _______ _______ _______ _____ _____    ______ ____

>  <TORSDO>
F 6

$$$$
=
 OpenBabel11032419303D

 31 34  0  0  1  0  0  0  0  0999 V2000
  179.6690  177.9580  142.1370 C   0  0  0  0  0  2  0  0  0  0  0  0
  180.5690  177.3250  141.0780 C   0  0  2  0  0  3  0  0  0  0  0  0
  180.4120  178.2540  143.4300 C   0  0  0  0  0  2  0  0  0  0  0  0
  182.6410  178.9080  142.6810 N   0  0  0  0  0  0  0  0  0  0  0  0
  181.3800  179.4060  143.2310 C   0  0  0  0  0  2  0  0  0  0  0  0
  181.4770  178.4000  140.4420 C   0  0  1  0  0  3  0  0  0  0  0  0
  183.8590  178.6150  140.7090 O   0  0  0  0  0  0  0  0  0  0  0  0
  182.7270  178.6260  141.2700 C   0  0  0  0  0  0  0  0  0  0  0  0
  182.0520  178.3120  136.7470 C   0  0  0  0  0  3  0  0  0  0  0  0
  181.5520  178.9590  137.9040 C   0  0  0  0  0  3  0  0  0  0  0  0
  183.2120  176.0080  136.8100 C   0  0  0  0  0  0  0  0  0  0  0  0
  182.5740  177.1350  137.2430 C   0  0  0  0  0  0  0  0  0  0  0  0
  183.4310  175.2460  137.9680 C   0  0  0  0  0  3  0  0  0  0  0  0
  182.9240  175.9270  139.0370 N   0  0  0  0  0  2  0  0  0  0  0  0
  181.8080  178.1230  138.9980 C   0  0  0  0  0  0  0  0  0  0  0  0
  183.5900  175.6820  135.4770 N   0  0  0  0  0  1  0  0  0  0  0  0
  182.4310  177.0420  138.5310 N   0  0  0  0  0  0  0  0  0  0  0  0
  184.9140  178.2120  143.0690 C   0  0  0  0  0  3  0  0  0  0  0  0
  183.6180  179.0030  145.0250 C   0  0  0  0  0  1  0  0  0  0  0  0
  183.7550  178.6710  143.5720 C   0  0  0  0  0  0  0  0  0  0  0  0
  187.2900  177.5430  143.1170 N   0  0  0  0  0  0  0  0  0  0  0  0
  186.1700  177.9020  143.7810 C   0  0  0  0  0  0  0  0  0  0  0  0
  186.4310  177.8830  145.4480 S   0  0  0  0  0  0  0  0  0  0  0  0
  188.3340  177.2710  143.9460 C   0  0  0  0  0  3  0  0  0  0  0  0
  188.0390  177.4120  145.2970 C   0  0  0  0  0  0  0  0  0  0  0  0
  188.9690  177.1780  146.4060 C   0  0  0  0  0  0  0  0  0  0  0  0
  190.3730  177.1280  146.1690 N   0  0  0  0  0  1  0  0  0  0  0  0
  188.5320  177.0190  147.5760 O   0  0  0  0  0  0  0  0  0  0  0  0
  179.7250  176.6780  140.0780 N   0  0  0  0  0  2  0  0  0  0  0  0
  179.4130  174.1380  140.0570 N   0  0  0  0  0  0  0  0  0  0  0  0
  179.5540  175.2880  140.0680 C   0  0  0  0  0  0  0  0  0  0  0  0
  1  3  1  0  0  0  0
  2 29  1  6  0  0  0
  2  1  1  0  0  0  0
  4  5  1  0  0  0  0
  4 20  1  0  0  0  0
  5  3  1  0  0  0  0
  6 15  1  6  0  0  0
  6  2  1  0  0  0  0
  6  8  1  0  0  0  0
  7  8  2  0  0  0  0
  8  4  1  0  0  0  0
  9 12  2  0  0  0  0
  9 10  1  0  0  0  0
 10 15  2  0  0  0  0
 11 12  1  0  0  0  0
 11 13  2  0  0  0  0
 12 17  1  0  0  0  0
 13 14  1  0  0  0  0
 16 11  1  0  0  0  0
 17 15  1  0  0  0  0
 17 14  1  0  0  0  0
 18 20  2  0  0  0  0
 18 22  1  0  0  0  0
 20 19  1  0  0  0  0
 21 22  2  0  0  0  0
 21 24  1  0  0  0  0
 22 23  1  0  0  0  0
 24 25  2  0  0  0  0
 25 23  1  0  0  0  0
 25 26  1  0  0  0  0
 26 28  2  0  0  0  0
 27 26  1  0  0  0  0
 30 31  3  0  0  0  0
 31 29  1  0  0  0  0
M  END
>  <MODEL>
8

>  <REMARK>
 VINA RESULT:      -5.8      4.056      5.400
  Name = 
  6 active torsions:
  status: ('A' for Active; 'I' for Inactive)
    1  A    between atoms: C_3  and  C_29
    2  A    between atoms: N_5  and  C_14
    3  A    between atoms: N_5  and  C_19
    4  A    between atoms: C_11  and  C_21
    5  A    between atoms: N_18  and  C_28
    6  A    between atoms: C_20  and  C_23
                            x       y       z     vdW  Elec       q    Type
                         _______ _______ _______ _____ _____    ______ ____

>  <TORSDO>
F 6

$$$$
=
 OpenBabel11032419303D

 31 34  0  0  1  0  0  0  0  0999 V2000
  189.7610  176.7930  141.1840 C   0  0  0  0  0  2  0  0  0  0  0  0
  188.6840  176.5170  142.2310 C   0  0  2  0  0  3  0  0  0  0  0  0
  189.1770  177.2290  139.8500 C   0  0  0  0  0  2  0  0  0  0  0  0
  187.2310  178.5620  140.4760 N   0  0  0  0  0  0  0  0  0  0  0  0
  188.5970  178.6280  139.9590 C   0  0  0  0  0  2  0  0  0  0  0  0
  188.1250  177.8470  142.7820 C   0  0  1  0  0  3  0  0  0  0  0  0
  185.9270  178.7530  142.4070 O   0  0  0  0  0  0  0  0  0  0  0  0
  187.0250  178.3930  141.8930 C   0  0  0  0  0  0  0  0  0  0  0  0
  186.4490  177.4860  146.1060 C   0  0  0  0  0  3  0  0  0  0  0  0
  186.3930  177.5030  144.6900 C   0  0  0  0  0  3  0  0  0  0  0  0
  188.6260  177.8670  147.4370 C   0  0  0  0  0  0  0  0  0  0  0  0
  187.7800  177.7300  146.3740 C   0  0  0  0  0  0  0  0  0  0  0  0
  189.8870  178.1100  146.8700 C   0  0  0  0  0  3  0  0  0  0  0  0
  189.7570  178.1140  145.5110 N   0  0  0  0  0  2  0  0  0  0  0  0
  187.6880  177.7590  144.2220 C   0  0  0  0  0  0  0  0  0  0  0  0
  188.3060  177.7670  148.8200 N   0  0  0  0  0  1  0  0  0  0  0  0
  188.4770  177.8820  145.2880 N   0  0  0  0  0  0  0  0  0  0  0  0
  184.9280  179.0670  139.9810 C   0  0  0  0  0  3  0  0  0  0  0  0
  186.3400  178.2530  138.1170 C   0  0  0  0  0  1  0  0  0  0  0  0
  186.1210  178.6230  139.5510 C   0  0  0  0  0  0  0  0  0  0  0  0
  183.1070  180.4250  139.0140 N   0  0  0  0  0  0  0  0  0  0  0  0
  183.6700  179.2140  139.2220 C   0  0  0  0  0  0  0  0  0  0  0  0
  182.7210  177.9900  138.5540 S   0  0  0  0  0  0  0  0  0  0  0  0
  181.9390  180.3530  138.3180 C   0  0  0  0  0  3  0  0  0  0  0  0
  181.5630  179.0620  137.9700 C   0  0  0  0  0  0  0  0  0  0  0  0
  180.3530  178.6920  137.2270 C   0  0  0  0  0  0  0  0  0  0  0  0
  180.0200  179.3630  136.0150 N   0  0  0  0  0  1  0  0  0  0  0  0
  179.6000  177.7800  137.6580 O   0  0  0  0  0  0  0  0  0  0  0  0
  189.2650  175.7000  143.2920 N   0  0  0  0  0  2  0  0  0  0  0  0
  191.7950  175.6280  143.6690 N   0  0  0  0  0  0  0  0  0  0  0  0
  190.6500  175.6600  143.4970 C   0  0  0  0  0  0  0  0  0  0  0  0
  1  2  1  0  0  0  0
  2  6  1  0  0  0  0
  2 29  1  1  0  0  0
  3  5  1  0  0  0  0
  3  1  1  0  0  0  0
  4  8  1  0  0  0  0
  5  4  1  0  0  0  0
  6 15  1  1  0  0  0
  8  7  2  0  0  0  0
  8  6  1  0  0  0  0
  9 12  2  0  0  0  0
 10  9  1  0  0  0  0
 11 16  1  0  0  0  0
 12 11  1  0  0  0  0
 13 11  2  0  0  0  0
 14 13  1  0  0  0  0
 15 10  2  0  0  0  0
 15 17  1  0  0  0  0
 17 14  1  0  0  0  0
 17 12  1  0  0  0  0
 19 20  1  0  0  0  0
 20 18  2  0  0  0  0
 20  4  1  0  0  0  0
 21 22  2  0  0  0  0
 22 18  1  0  0  0  0
 23 22  1  0  0  0  0
 24 21  1  0  0  0  0
 25 24  2  0  0  0  0
 25 23  1  0  0  0  0
 26 28  2  0  0  0  0
 26 25  1  0  0  0  0
 27 26  1  0  0  0  0
 29 31  1  0  0  0  0
 31 30  3  0  0  0  0
M  END
>  <MODEL>
9

>  <REMARK>
 VINA RESULT:      -5.8      3.887      9.494
  Name = 
  6 active torsions:
  status: ('A' for Active; 'I' for Inactive)
    1  A    between atoms: C_3  and  C_29
    2  A    between atoms: N_5  and  C_14
    3  A    between atoms: N_5  and  C_19
    4  A    between atoms: C_11  and  C_21
    5  A    between atoms: N_18  and  C_28
    6  A    between atoms: C_20  and  C_23
                            x       y       z     vdW  Elec       q    Type
                         _______ _______ _______ _____ _____    ______ ____

>  <TORSDO>
F 6

$$$$
