=
 OpenBabel11042412333D

 68 72  0  0  1  0  0  0  0  0999 V2000
  183.1620  177.8440  141.4360 C   0  0  2  0  0  3  0  0  0  0  0  0
  183.9620  177.0980  139.1540 C   0  0  0  0  0  3  0  0  0  0  0  0
  184.5450  177.3730  137.9120 C   0  0  0  0  0  3  0  0  0  0  0  0
  184.1560  179.4340  139.7670 C   0  0  0  0  0  3  0  0  0  0  0  0
  184.7460  179.7060  138.5270 C   0  0  0  0  0  3  0  0  0  0  0  0
  184.9460  178.6760  137.6020 C   0  0  0  0  0  3  0  0  0  0  0  0
  183.7750  178.1280  140.0920 C   0  0  0  0  0  0  0  0  0  0  0  0
  181.9310  178.6150  141.8660 C   0  0  0  0  0  0  0  0  0  0  0  0
  179.8440  180.1250  142.8850 C   0  0  0  0  0  3  0  0  0  0  0  0
  181.9320  179.0850  143.1410 N   0  0  0  0  0  0  0  0  0  0  0  0
  179.7730  179.6830  141.5690 C   0  0  0  0  0  3  0  0  0  0  0  0
  180.8230  178.9380  141.0300 C   0  0  0  0  0  0  0  0  0  0  0  0
  180.9370  179.8200  143.6340 N   0  0  0  0  0  0  0  0  0  0  0  0
  180.7000  178.5050  139.6050 C   0  0  0  0  0  2  0  0  0  0  0  0
  179.3560  177.9860  139.3640 N   0  0  0  0  0  2  0  0  0  0  0  0
  179.1620  177.8930  137.9790 N   0  0  0  0  0  0  0  0  0  0  0  0
  180.2900  178.5980  137.3420 C   0  0  0  0  0  2  0  0  0  0  0  0
  181.2360  177.7080  136.8370 O   0  0  0  0  0  1  0  0  0  0  0  0
  179.1710  176.4590  137.6600 C   0  0  0  0  0  2  0  0  0  0  0  0
  179.9250  175.6120  138.6940 C   0  0  2  0  0  3  0  0  0  0  0  0
  182.1880  174.7840  138.7680 O   0  0  0  0  0  0  0  0  0  0  0  0
  181.0920  174.8350  138.1440 C   0  0  0  0  0  0  0  0  0  0  0  0
  180.9190  174.0920  136.9360 N   0  0  0  0  0  2  0  0  0  0  0  0
  181.8880  173.1260  136.4430 C   0  0  1  0  0  3  0  0  0  0  0  0
  183.6230  174.9410  134.6150 C   0  0  0  0  0  1  0  0  0  0  0  0
  184.2360  174.4480  135.9260 C   0  0  1  0  0  3  0  0  0  0  0  0
  183.3250  173.5790  136.8300 C   0  0  2  0  0  3  0  0  0  0  0  0
  184.4510  172.9370  136.0090 C   0  0  2  0  0  0  0  0  0  0  0  0
  185.6800  172.5540  136.8290 C   0  0  0  0  0  2  0  0  0  0  0  0
  186.7100  173.6640  136.8070 C   0  0  0  0  0  1  0  0  0  0  0  0
  184.1160  172.0830  134.7790 C   0  0  0  0  0  2  0  0  0  0  0  0
  184.5950  170.7840  134.9470 O   0  0  0  0  0  1  0  0  0  0  0  0
  181.5300  171.8460  136.8750 O   0  0  0  0  0  0  0  0  0  0  0  0
  180.5730  171.4140  135.9480 C   0  0  0  0  0  2  0  0  0  0  0  0
  179.3980  170.8090  136.6890 C   0  0  0  0  0  1  0  0  0  0  0  0
  178.9500  174.7450  139.4930 C   0  0  0  0  0  2  0  0  0  0  0  0
  179.1020  174.9400  140.9990 C   0  0  0  0  0  1  0  0  0  0  0  0
  184.1690  177.6310  142.5750 C   0  0  0  0  0  2  0  0  0  0  0  0
  185.5300  178.2650  142.2740 C   0  0  1  0  0  3  0  0  0  0  0  0
  184.7530  180.3330  143.0850 O   0  0  0  0  0  0  0  0  0  0  0  0
  185.7010  179.5650  142.9860 C   0  0  0  0  0  3  0  0  0  0  0  0
  186.6770  177.3220  142.6170 C   0  0  0  0  0  2  0  0  0  0  0  0
  189.7230  177.0160  141.0000 C   0  0  2  0  0  3  0  0  0  0  0  0
  188.2890  177.4380  140.9270 C   0  0  2  0  0  3  0  0  0  0  0  0
  190.0430  176.2490  139.8790 O   0  0  0  0  0  0  0  0  0  0  0  0
  190.2100  177.2290  138.8740 C   0  0  2  0  0  3  0  0  0  0  0  0
  188.2260  178.5110  139.8450 C   0  0  0  0  0  2  0  0  0  0  0  0
  189.8130  176.3540  142.3360 C   0  0  0  0  0  2  0  0  0  0  0  0
  188.9750  177.3310  143.1620 C   0  0  2  0  0  3  0  0  0  0  0  0
  188.8830  177.9900  138.5310 C   0  0  1  0  0  0  0  0  0  0  0  0
  187.9540  177.9220  142.2640 N   0  0  0  0  0  0  0  0  0  0  0  0
  189.2300  179.1940  137.6590 C   0  0  0  0  0  1  0  0  0  0  0  0
  188.7560  176.1960  137.2550 O   0  0  0  0  0  1  0  0  0  0  0  0
  188.0090  177.1150  137.8450 O   0  0  0  0  0  0  0  0  0  0  0  0
  189.9070  178.4200  143.7210 C   0  0  2  0  0  3  0  0  0  0  0  0
  191.3750  178.1280  143.4320 C   0  0  0  0  0  2  0  0  0  0  0  0
  192.3070  179.0260  144.2330 C   0  0  0  0  0  1  0  0  0  0  0  0
  189.0330  177.5110  145.5410 C   0  0  0  0  0  1  0  0  0  0  0  0
  189.7140  178.6430  145.0890 O   0  0  0  0  0  0  0  0  0  0  0  0
  190.9850  176.6830  137.6740 C   0  0  0  0  0  2  0  0  0  0  0  0
  192.0240  175.8170  138.0790 O   0  0  0  0  0  0  0  0  0  0  0  0
  192.7670  175.3620  136.9520 C   0  0  2  0  0  0  0  0  0  0  0  0
  192.8060  173.8370  136.9440 C   0  0  0  0  0  1  0  0  0  0  0  0
  195.0350  175.2990  137.8600 O   0  0  0  0  0  1  0  0  0  0  0  0
  194.7730  175.8060  135.6500 O   0  0  0  0  0  1  0  0  0  0  0  0
  194.2120  175.9250  136.9200 C   0  0  0  0  0  3  0  0  0  0  0  0
  192.0220  175.7750  135.7080 C   0  0  0  0  0  3  0  0  0  0  0  0
  192.0320  175.0450  134.5950 C   0  0  0  0  0  2  0  0  0  0  0  0
  1  8  1  0  0  0  0
  1 38  1  1  0  0  0
  2  7  1  0  0  0  0
  3  2  2  0  0  0  0
  4  7  2  0  0  0  0
  5  4  1  0  0  0  0
  6  3  1  0  0  0  0
  6  5  2  0  0  0  0
  7  1  1  0  0  0  0
  8 10  1  0  0  0  0
  9 13  1  0  0  0  0
 10 13  2  0  0  0  0
 11  9  2  0  0  0  0
 12 11  1  0  0  0  0
 12  8  2  0  0  0  0
 14 12  1  0  0  0  0
 15 14  1  0  0  0  0
 16 15  1  0  0  0  0
 17 16  1  0  0  0  0
 18 17  1  0  0  0  0
 19 16  1  0  0  0  0
 20 19  1  6  0  0  0
 20 36  1  0  0  0  0
 22 20  1  0  0  0  0
 22 21  2  0  0  0  0
 23 22  1  0  0  0  0
 24 33  1  1  0  0  0
 24 23  1  0  0  0  0
 26 25  1  6  0  0  0
 26 28  1  0  0  0  0
 26 27  1  0  0  0  0
 27 24  1  6  0  0  0
 28 31  1  6  0  0  0
 28 29  1  0  0  0  0
 28 27  1  0  0  0  0
 30 29  1  0  0  0  0
 31 32  1  0  0  0  0
 34 35  1  0  0  0  0
 34 33  1  0  0  0  0
 36 37  1  0  0  0  0
 39 38  1  1  0  0  0
 39 42  1  0  0  0  0
 39 41  1  0  0  0  0
 41 40  2  0  0  0  0
 43 48  1  1  0  0  0
 44 47  1  6  0  0  0
 44 43  1  0  0  0  0
 44 51  1  0  0  0  0
 45 43  1  0  0  0  0
 46 60  1  6  0  0  0
 46 45  1  0  0  0  0
 48 49  1  0  0  0  0
 49 55  1  6  0  0  0
 50 52  1  6  0  0  0
 50 46  1  0  0  0  0
 50 47  1  0  0  0  0
 51 42  1  0  0  0  0
 51 49  1  0  0  0  0
 53 54  1  0  0  0  0
 54 50  1  0  0  0  0
 55 56  1  1  0  0  0
 55 59  1  0  0  0  0
 56 57  1  0  0  0  0
 59 58  1  0  0  0  0
 60 61  1  0  0  0  0
 62 63  1  1  0  0  0
 62 61  1  0  0  0  0
 65 66  1  0  0  0  0
 66 62  1  0  0  0  0
 66 64  1  0  0  0  0
 67 62  1  0  0  0  0
 68 67  2  0  0  0  0
M  END
>  <MODEL>
1

>  <REMARK>
 VINA RESULT:      -4.2      0.000      0.000
  Name = 
  30 active torsions:
  status: ('A' for Active; 'I' for Inactive)
    1  A    between atoms: C_2  and  C_21
    2  A    between atoms: C_2  and  O_34
    3  A    between atoms: C_2  and  C_60
    4  A    between atoms: N_4  and  C_56
    5  A    between atoms: N_4  and  N_65
    6  A    between atoms: C_8  and  C_57
    7  A    between atoms: C_10  and  O_34
    8  A    between atoms: C_10  and  C_44
    9  A    between atoms: C_17  and  C_50
   10  A    between atoms: O_19  and  C_61
   11  A    between atoms: C_20  and  C_39
   12  A    between atoms: C_23  and  C_45
   13  A    between atoms: C_23  and  O_54
   14  A    between atoms: C_23  and  N_67
   15  A    between atoms: C_25  and  N_65
   16  A    between atoms: C_26  and  C_33
   17  A    between atoms: C_26  and  C_57
   18  A    between atoms: C_27  and  C_58
   19  A    between atoms: C_30  and  C_50
   20  A    between atoms: C_30  and  N_65
   21  A    between atoms: C_33  and  C_52
   22  A    between atoms: C_33  and  C_55
   23  A    between atoms: C_36  and  C_58
   24  A    between atoms: C_38  and  C_57
   25  A    between atoms: C_39  and  O_53
   26  A    between atoms: C_39  and  C_59
   27  A    between atoms: C_47  and  C_56
   28  A    between atoms: C_50  and  C_64
   29  A    between atoms: C_51  and  O_54
   30  A    between atoms: C_52  and  N_62
                            x       y       z     vdW  Elec       q    Type
                         _______ _______ _______ _____ _____    ______ ____

>  <TORSDO>
F 30

$$$$
=
 OpenBabel11042412333D

 68 72  0  0  1  0  0  0  0  0999 V2000
  183.1980  177.8530  141.5400 C   0  0  2  0  0  3  0  0  0  0  0  0
  184.2240  179.4850  139.9000 C   0  0  0  0  0  3  0  0  0  0  0  0
  184.8210  179.7660  138.6660 C   0  0  0  0  0  3  0  0  0  0  0  0
  184.1040  177.1380  139.3110 C   0  0  0  0  0  3  0  0  0  0  0  0
  184.6940  177.4220  138.0730 C   0  0  0  0  0  3  0  0  0  0  0  0
  185.0470  178.7360  137.7480 C   0  0  0  0  0  3  0  0  0  0  0  0
  183.8530  178.1680  140.2230 C   0  0  0  0  0  0  0  0  0  0  0  0
  181.9740  178.6390  141.9640 C   0  0  0  0  0  0  0  0  0  0  0  0
  179.9140  180.2100  142.9450 C   0  0  0  0  0  3  0  0  0  0  0  0
  182.0520  179.2680  143.1660 N   0  0  0  0  0  0  0  0  0  0  0  0
  179.7620  179.6000  141.7040 C   0  0  0  0  0  3  0  0  0  0  0  0
  180.7960  178.8210  141.1840 C   0  0  0  0  0  0  0  0  0  0  0  0
  181.0700  180.0330  143.6390 N   0  0  0  0  0  0  0  0  0  0  0  0
  180.5840  178.2060  139.8390 C   0  0  0  0  0  2  0  0  0  0  0  0
  179.4000  177.3500  139.8720 N   0  0  0  0  0  2  0  0  0  0  0  0
  178.9340  177.1940  138.5580 N   0  0  0  0  0  0  0  0  0  0  0  0
  179.8810  177.9070  137.6810 C   0  0  0  0  0  2  0  0  0  0  0  0
  179.4220  177.9660  136.3670 O   0  0  0  0  0  1  0  0  0  0  0  0
  178.9340  175.7490  138.2930 C   0  0  0  0  0  2  0  0  0  0  0  0
  180.0880  175.0060  138.9810 C   0  0  2  0  0  3  0  0  0  0  0  0
  180.6150  173.2010  137.4720 O   0  0  0  0  0  0  0  0  0  0  0  0
  181.0010  174.2560  138.0470 C   0  0  0  0  0  0  0  0  0  0  0  0
  182.2930  174.7960  137.7620 N   0  0  0  0  0  2  0  0  0  0  0  0
  183.1580  174.2930  136.7070 C   0  0  1  0  0  3  0  0  0  0  0  0
  186.1820  173.7770  137.1880 C   0  0  0  0  0  1  0  0  0  0  0  0
  185.2230  172.5920  137.3140 C   0  0  1  0  0  3  0  0  0  0  0  0
  183.7180  172.8980  137.1080 C   0  0  2  0  0  3  0  0  0  0  0  0
  184.5270  172.1850  136.0160 C   0  0  2  0  0  0  0  0  0  0  0  0
  184.2650  170.6850  135.9240 C   0  0  0  0  0  2  0  0  0  0  0  0
  182.9830  170.4080  135.1660 C   0  0  0  0  0  1  0  0  0  0  0  0
  184.8990  172.9270  134.7250 C   0  0  0  0  0  2  0  0  0  0  0  0
  186.2850  173.0140  134.6000 O   0  0  0  0  0  1  0  0  0  0  0  0
  182.4760  174.3330  135.4880 O   0  0  0  0  0  0  0  0  0  0  0  0
  182.0770  175.6690  135.3490 C   0  0  0  0  0  2  0  0  0  0  0  0
  183.3050  176.5410  135.1800 C   0  0  0  0  0  1  0  0  0  0  0  0
  179.5640  174.1420  140.1290 C   0  0  0  0  0  2  0  0  0  0  0  0
  180.3610  174.3420  141.4140 C   0  0  0  0  0  1  0  0  0  0  0  0
  184.1680  177.5760  142.6960 C   0  0  0  0  0  2  0  0  0  0  0  0
  185.5600  178.1620  142.4410 C   0  0  1  0  0  3  0  0  0  0  0  0
  184.9640  180.2910  143.2460 O   0  0  0  0  0  0  0  0  0  0  0  0
  185.7950  179.3920  143.2510 C   0  0  0  0  0  3  0  0  0  0  0  0
  186.6570  177.1390  142.7070 C   0  0  0  0  0  2  0  0  0  0  0  0
  189.7450  176.9010  141.1600 C   0  0  2  0  0  3  0  0  0  0  0  0
  188.3320  177.3890  141.0950 C   0  0  2  0  0  3  0  0  0  0  0  0
  190.0770  176.2630  139.9640 O   0  0  0  0  0  0  0  0  0  0  0  0
  190.3160  177.3480  139.0920 C   0  0  2  0  0  3  0  0  0  0  0  0
  188.3480  178.5860  140.1490 C   0  0  0  0  0  2  0  0  0  0  0  0
  189.7620  176.0810  142.4070 C   0  0  0  0  0  2  0  0  0  0  0  0
  188.9330  176.9860  143.3200 C   0  0  2  0  0  3  0  0  0  0  0  0
  189.0320  178.2000  138.8030 C   0  0  1  0  0  0  0  0  0  0  0  0
  187.9680  177.7220  142.4690 N   0  0  0  0  0  0  0  0  0  0  0  0
  189.4550  179.4840  138.0950 C   0  0  0  0  0  1  0  0  0  0  0  0
  187.5920  178.2920  137.1350 O   0  0  0  0  0  1  0  0  0  0  0  0
  188.1510  177.4510  137.9880 O   0  0  0  0  0  0  0  0  0  0  0  0
  189.8840  177.9590  144.0360 C   0  0  2  0  0  3  0  0  0  0  0  0
  189.6020  178.0470  145.5320 C   0  0  0  0  0  2  0  0  0  0  0  0
  188.1910  177.5930  145.8770 C   0  0  0  0  0  1  0  0  0  0  0  0
  190.9180  179.9160  144.1040 C   0  0  0  0  0  1  0  0  0  0  0  0
  189.8800  179.2360  143.4630 O   0  0  0  0  0  0  0  0  0  0  0  0
  191.1120  176.9180  137.8580 C   0  0  0  0  0  2  0  0  0  0  0  0
  190.7770  175.6070  137.4580 O   0  0  0  0  0  0  0  0  0  0  0  0
  191.8390  175.0220  136.7100 C   0  0  2  0  0  0  0  0  0  0  0  0
  193.0660  174.8570  137.6010 C   0  0  0  0  0  1  0  0  0  0  0  0
  193.0560  175.1370  134.5940 O   0  0  0  0  0  1  0  0  0  0  0  0
  191.0710  176.2530  134.7570 O   0  0  0  0  0  1  0  0  0  0  0  0
  192.2100  175.8480  135.4510 C   0  0  0  0  0  3  0  0  0  0  0  0
  191.4130  173.6320  136.3100 C   0  0  0  0  0  3  0  0  0  0  0  0
  192.1560  172.5570  136.5650 C   0  0  0  0  0  2  0  0  0  0  0  0
  1  8  1  0  0  0  0
  1 38  1  1  0  0  0
  2  7  1  0  0  0  0
  3  2  2  0  0  0  0
  4  7  2  0  0  0  0
  5  4  1  0  0  0  0
  6  5  2  0  0  0  0
  6  3  1  0  0  0  0
  7  1  1  0  0  0  0
  8 10  1  0  0  0  0
  9 13  1  0  0  0  0
 10 13  2  0  0  0  0
 11  9  2  0  0  0  0
 12 11  1  0  0  0  0
 12  8  2  0  0  0  0
 14 15  1  0  0  0  0
 14 12  1  0  0  0  0
 16 15  1  0  0  0  0
 17 16  1  0  0  0  0
 18 17  1  0  0  0  0
 19 16  1  0  0  0  0
 20 19  1  6  0  0  0
 20 36  1  0  0  0  0
 21 22  2  0  0  0  0
 22 20  1  0  0  0  0
 23 22  1  0  0  0  0
 24 33  1  6  0  0  0
 24 23  1  0  0  0  0
 26 25  1  6  0  0  0
 27 24  1  6  0  0  0
 27 26  1  0  0  0  0
 28 31  1  6  0  0  0
 28 27  1  0  0  0  0
 28 26  1  0  0  0  0
 29 28  1  0  0  0  0
 30 29  1  0  0  0  0
 32 31  1  0  0  0  0
 34 33  1  0  0  0  0
 35 34  1  0  0  0  0
 36 37  1  0  0  0  0
 39 38  1  1  0  0  0
 39 42  1  0  0  0  0
 39 41  1  0  0  0  0
 40 41  2  0  0  0  0
 43 48  1  1  0  0  0
 44 47  1  6  0  0  0
 44 43  1  0  0  0  0
 44 51  1  0  0  0  0
 45 43  1  0  0  0  0
 46 60  1  6  0  0  0
 46 45  1  0  0  0  0
 48 49  1  0  0  0  0
 49 55  1  6  0  0  0
 50 52  1  6  0  0  0
 50 46  1  0  0  0  0
 50 47  1  0  0  0  0
 51 42  1  0  0  0  0
 51 49  1  0  0  0  0
 53 54  1  0  0  0  0
 54 50  1  0  0  0  0
 55 56  1  1  0  0  0
 56 57  1  0  0  0  0
 59 55  1  0  0  0  0
 59 58  1  0  0  0  0
 61 60  1  0  0  0  0
 62 61  1  0  0  0  0
 62 63  1  1  0  0  0
 64 66  1  0  0  0  0
 65 66  1  0  0  0  0
 66 62  1  0  0  0  0
 67 68  2  0  0  0  0
 67 62  1  0  0  0  0
M  END
>  <MODEL>
2

>  <REMARK>
 VINA RESULT:      -4.0      1.253      2.099
  Name = 
  30 active torsions:
  status: ('A' for Active; 'I' for Inactive)
    1  A    between atoms: C_2  and  C_21
    2  A    between atoms: C_2  and  O_34
    3  A    between atoms: C_2  and  C_60
    4  A    between atoms: N_4  and  C_56
    5  A    between atoms: N_4  and  N_65
    6  A    between atoms: C_8  and  C_57
    7  A    between atoms: C_10  and  O_34
    8  A    between atoms: C_10  and  C_44
    9  A    between atoms: C_17  and  C_50
   10  A    between atoms: O_19  and  C_61
   11  A    between atoms: C_20  and  C_39
   12  A    between atoms: C_23  and  C_45
   13  A    between atoms: C_23  and  O_54
   14  A    between atoms: C_23  and  N_67
   15  A    between atoms: C_25  and  N_65
   16  A    between atoms: C_26  and  C_33
   17  A    between atoms: C_26  and  C_57
   18  A    between atoms: C_27  and  C_58
   19  A    between atoms: C_30  and  C_50
   20  A    between atoms: C_30  and  N_65
   21  A    between atoms: C_33  and  C_52
   22  A    between atoms: C_33  and  C_55
   23  A    between atoms: C_36  and  C_58
   24  A    between atoms: C_38  and  C_57
   25  A    between atoms: C_39  and  O_53
   26  A    between atoms: C_39  and  C_59
   27  A    between atoms: C_47  and  C_56
   28  A    between atoms: C_50  and  C_64
   29  A    between atoms: C_51  and  O_54
   30  A    between atoms: C_52  and  N_62
                            x       y       z     vdW  Elec       q    Type
                         _______ _______ _______ _____ _____    ______ ____

>  <TORSDO>
F 30

$$$$
=
 OpenBabel11042412333D

 68 72  0  0  1  0  0  0  0  0999 V2000
  187.9860  178.0150  141.7780 C   0  0  2  0  0  3  0  0  0  0  0  0
  190.3740  178.3170  142.5580 C   0  0  0  0  0  3  0  0  0  0  0  0
  191.5780  177.7930  143.0440 C   0  0  0  0  0  3  0  0  0  0  0  0
  189.3970  176.1000  142.5810 C   0  0  0  0  0  3  0  0  0  0  0  0
  190.6040  175.5770  143.0590 C   0  0  0  0  0  3  0  0  0  0  0  0
  191.6960  176.4220  143.2850 C   0  0  0  0  0  3  0  0  0  0  0  0
  189.2810  177.4680  142.3140 C   0  0  0  0  0  0  0  0  0  0  0  0
  186.8330  178.2530  142.7320 C   0  0  0  0  0  0  0  0  0  0  0  0
  184.9310  178.7780  144.6770 C   0  0  0  0  0  3  0  0  0  0  0  0
  187.1570  178.3880  144.0440 N   0  0  0  0  0  0  0  0  0  0  0  0
  184.5230  178.6560  143.3530 C   0  0  0  0  0  3  0  0  0  0  0  0
  185.4680  178.4130  142.3560 C   0  0  0  0  0  0  0  0  0  0  0  0
  186.2500  178.6510  144.9830 N   0  0  0  0  0  0  0  0  0  0  0  0
  184.9730  178.3090  140.9490 C   0  0  0  0  0  2  0  0  0  0  0  0
  183.5500  177.9780  140.9520 N   0  0  0  0  0  2  0  0  0  0  0  0
  182.8400  179.0830  140.4630 N   0  0  0  0  0  0  0  0  0  0  0  0
  183.8130  179.9390  139.7580 C   0  0  0  0  0  2  0  0  0  0  0  0
  183.2490  180.5490  138.6400 O   0  0  0  0  0  1  0  0  0  0  0  0
  181.8270  178.5460  139.5450 C   0  0  0  0  0  2  0  0  0  0  0  0
  180.6670  177.8450  140.2660 C   0  0  2  0  0  3  0  0  0  0  0  0
  179.2280  176.9370  138.5580 O   0  0  0  0  0  0  0  0  0  0  0  0
  180.0400  176.7110  139.4980 C   0  0  0  0  0  0  0  0  0  0  0  0
  180.4320  175.3710  139.8000 N   0  0  0  0  0  2  0  0  0  0  0  0
  180.0770  174.2260  138.9760 C   0  0  1  0  0  3  0  0  0  0  0  0
  179.7090  175.5260  136.1800 C   0  0  0  0  0  1  0  0  0  0  0  0
  180.9480  174.6590  136.4110 C   0  0  1  0  0  3  0  0  0  0  0  0
  181.1170  174.0620  137.8310 C   0  0  2  0  0  3  0  0  0  0  0  0
  180.6600  173.1780  136.6620 C   0  0  2  0  0  0  0  0  0  0  0  0
  181.7460  172.2580  136.1130 C   0  0  0  0  0  2  0  0  0  0  0  0
  182.8930  172.1340  137.0950 C   0  0  0  0  0  1  0  0  0  0  0  0
  179.2050  172.6950  136.5850 C   0  0  0  0  0  2  0  0  0  0  0  0
  179.1350  171.4810  135.9020 O   0  0  0  0  0  1  0  0  0  0  0  0
  179.9050  173.1040  139.7900 O   0  0  0  0  0  0  0  0  0  0  0  0
  178.9310  173.4870  140.7210 C   0  0  0  0  0  2  0  0  0  0  0  0
  179.5100  173.3890  142.1180 C   0  0  0  0  0  1  0  0  0  0  0  0
  179.6460  178.8680  140.7640 C   0  0  0  0  0  2  0  0  0  0  0  0
  178.9430  178.4110  142.0390 C   0  0  0  0  0  1  0  0  0  0  0  0
  187.5430  177.4300  140.4300 C   0  0  0  0  0  2  0  0  0  0  0  0
  187.7660  178.4070  139.2720 C   0  0  1  0  0  3  0  0  0  0  0  0
  189.5790  179.5570  138.3100 O   0  0  0  0  0  0  0  0  0  0  0  0
  189.1360  178.9950  139.3040 C   0  0  0  0  0  3  0  0  0  0  0  0
  187.5080  177.7460  137.9230 C   0  0  0  0  0  2  0  0  0  0  0  0
  189.5520  175.3760  136.4440 C   0  0  2  0  0  3  0  0  0  0  0  0
  189.4040  176.4550  137.4710 C   0  0  2  0  0  3  0  0  0  0  0  0
  190.7380  175.5670  135.7320 O   0  0  0  0  0  0  0  0  0  0  0  0
  191.7160  175.0780  136.6280 C   0  0  2  0  0  3  0  0  0  0  0  0
  190.4230  176.1350  138.5600 C   0  0  0  0  0  2  0  0  0  0  0  0
  188.2710  175.4570  135.6810 C   0  0  0  0  0  2  0  0  0  0  0  0
  187.2950  175.6570  136.8420 C   0  0  2  0  0  3  0  0  0  0  0  0
  191.8360  175.9360  137.9350 C   0  0  1  0  0  0  0  0  0  0  0  0
  188.0150  176.3830  137.9160 N   0  0  0  0  0  0  0  0  0  0  0  0
  192.6990  175.1710  138.9350 C   0  0  0  0  0  1  0  0  0  0  0  0
  192.8980  177.6900  138.7460 O   0  0  0  0  0  1  0  0  0  0  0  0
  192.4260  177.1830  137.6200 O   0  0  0  0  0  0  0  0  0  0  0  0
  186.8310  174.2760  137.3330 C   0  0  2  0  0  3  0  0  0  0  0  0
  187.2750  173.1530  136.4020 C   0  0  0  0  0  2  0  0  0  0  0  0
  186.3950  171.9180  136.5330 C   0  0  0  0  0  1  0  0  0  0  0  0
  184.9530  175.3960  136.9880 C   0  0  0  0  0  1  0  0  0  0  0  0
  185.4490  174.2160  137.5450 O   0  0  0  0  0  0  0  0  0  0  0  0
  193.0350  174.7760  135.9150 C   0  0  0  0  0  2  0  0  0  0  0  0
  193.8040  173.8320  136.6290 O   0  0  0  0  0  0  0  0  0  0  0  0
  195.1410  173.7970  136.1390 C   0  0  2  0  0  0  0  0  0  0  0  0
  195.4480  175.0900  135.3900 C   0  0  0  0  0  1  0  0  0  0  0  0
  196.6580  172.6650  134.5940 O   0  0  0  0  0  1  0  0  0  0  0  0
  195.3190  171.3800  135.9230 O   0  0  0  0  0  1  0  0  0  0  0  0
  195.4100  172.5790  135.2170 C   0  0  0  0  0  3  0  0  0  0  0  0
  196.0690  173.7620  137.3270 C   0  0  0  0  0  3  0  0  0  0  0  0
  197.3750  173.9980  137.2190 C   0  0  0  0  0  2  0  0  0  0  0  0
  1 38  1  6  0  0  0
  1  7  1  0  0  0  0
  1  8  1  0  0  0  0
  2  3  1  0  0  0  0
  3  6  2  0  0  0  0
  4  5  2  0  0  0  0
  5  6  1  0  0  0  0
  7  2  2  0  0  0  0
  7  4  1  0  0  0  0
  8 10  1  0  0  0  0
  9 13  1  0  0  0  0
 10 13  2  0  0  0  0
 11  9  2  0  0  0  0
 12  8  2  0  0  0  0
 12 11  1  0  0  0  0
 14 15  1  0  0  0  0
 14 12  1  0  0  0  0
 16 15  1  0  0  0  0
 17 16  1  0  0  0  0
 18 17  1  0  0  0  0
 19 16  1  0  0  0  0
 20 19  1  6  0  0  0
 20 36  1  0  0  0  0
 21 22  2  0  0  0  0
 22 23  1  0  0  0  0
 22 20  1  0  0  0  0
 24 33  1  1  0  0  0
 24 23  1  0  0  0  0
 26 25  1  1  0  0  0
 26 28  1  0  0  0  0
 26 27  1  0  0  0  0
 27 24  1  1  0  0  0
 28 29  1  6  0  0  0
 28 27  1  0  0  0  0
 29 30  1  0  0  0  0
 31 28  1  0  0  0  0
 32 31  1  0  0  0  0
 33 34  1  0  0  0  0
 34 35  1  0  0  0  0
 36 37  1  0  0  0  0
 39 42  1  6  0  0  0
 39 41  1  0  0  0  0
 39 38  1  0  0  0  0
 40 41  2  0  0  0  0
 43 48  1  6  0  0  0
 43 44  1  0  0  0  0
 44 51  1  0  0  0  0
 44 47  1  1  0  0  0
 45 43  1  0  0  0  0
 45 46  1  0  0  0  0
 46 60  1  6  0  0  0
 46 50  1  0  0  0  0
 48 49  1  0  0  0  0
 49 55  1  1  0  0  0
 49 51  1  0  0  0  0
 50 47  1  0  0  0  0
 50 52  1  1  0  0  0
 51 42  1  0  0  0  0
 54 50  1  0  0  0  0
 54 53  1  0  0  0  0
 55 56  1  6  0  0  0
 55 59  1  0  0  0  0
 56 57  1  0  0  0  0
 58 59  1  0  0  0  0
 60 61  1  0  0  0  0
 62 63  1  6  0  0  0
 62 61  1  0  0  0  0
 62 67  1  0  0  0  0
 64 66  1  0  0  0  0
 66 65  1  0  0  0  0
 66 62  1  0  0  0  0
 68 67  2  0  0  0  0
M  END
>  <MODEL>
3

>  <REMARK>
 VINA RESULT:      -3.5      2.235      5.453
  Name = 
  30 active torsions:
  status: ('A' for Active; 'I' for Inactive)
    1  A    between atoms: C_2  and  C_21
    2  A    between atoms: C_2  and  O_34
    3  A    between atoms: C_2  and  C_60
    4  A    between atoms: N_4  and  C_56
    5  A    between atoms: N_4  and  N_65
    6  A    between atoms: C_8  and  C_57
    7  A    between atoms: C_10  and  O_34
    8  A    between atoms: C_10  and  C_44
    9  A    between atoms: C_17  and  C_50
   10  A    between atoms: O_19  and  C_61
   11  A    between atoms: C_20  and  C_39
   12  A    between atoms: C_23  and  C_45
   13  A    between atoms: C_23  and  O_54
   14  A    between atoms: C_23  and  N_67
   15  A    between atoms: C_25  and  N_65
   16  A    between atoms: C_26  and  C_33
   17  A    between atoms: C_26  and  C_57
   18  A    between atoms: C_27  and  C_58
   19  A    between atoms: C_30  and  C_50
   20  A    between atoms: C_30  and  N_65
   21  A    between atoms: C_33  and  C_52
   22  A    between atoms: C_33  and  C_55
   23  A    between atoms: C_36  and  C_58
   24  A    between atoms: C_38  and  C_57
   25  A    between atoms: C_39  and  O_53
   26  A    between atoms: C_39  and  C_59
   27  A    between atoms: C_47  and  C_56
   28  A    between atoms: C_50  and  C_64
   29  A    between atoms: C_51  and  O_54
   30  A    between atoms: C_52  and  N_62
                            x       y       z     vdW  Elec       q    Type
                         _______ _______ _______ _____ _____    ______ ____

>  <TORSDO>
F 30

$$$$
=
 OpenBabel11042412333D

 68 72  0  0  1  0  0  0  0  0999 V2000
  181.3840  175.4020  137.2570 C   0  0  2  0  0  3  0  0  0  0  0  0
  179.9620  177.4480  136.8100 C   0  0  0  0  0  3  0  0  0  0  0  0
  179.6900  178.6130  136.0840 C   0  0  0  0  0  3  0  0  0  0  0  0
  181.9400  177.0680  135.4640 C   0  0  0  0  0  3  0  0  0  0  0  0
  181.6610  178.2290  134.7330 C   0  0  0  0  0  3  0  0  0  0  0  0
  180.5330  178.9980  135.0380 C   0  0  0  0  0  3  0  0  0  0  0  0
  181.0860  176.6640  136.4940 C   0  0  0  0  0  0  0  0  0  0  0  0
  181.5190  174.0960  136.5020 C   0  0  0  0  0  0  0  0  0  0  0  0
  181.5480  171.8090  134.9380 C   0  0  0  0  0  3  0  0  0  0  0  0
  180.5020  173.7830  135.6570 N   0  0  0  0  0  0  0  0  0  0  0  0
  182.6290  172.0650  135.7760 C   0  0  0  0  0  3  0  0  0  0  0  0
  182.6420  173.2210  136.5560 C   0  0  0  0  0  0  0  0  0  0  0  0
  180.5140  172.6910  134.8950 N   0  0  0  0  0  0  0  0  0  0  0  0
  183.8370  173.4520  137.4240 C   0  0  0  0  0  2  0  0  0  0  0  0
  184.2940  174.8310  137.2740 N   0  0  0  0  0  2  0  0  0  0  0  0
  184.8620  174.9700  136.0000 N   0  0  0  0  0  0  0  0  0  0  0  0
  185.4670  176.3140  135.9450 C   0  0  0  0  0  2  0  0  0  0  0  0
  184.7820  177.2210  136.7500 O   0  0  0  0  0  1  0  0  0  0  0  0
  185.8760  173.9140  135.8860 C   0  0  0  0  0  2  0  0  0  0  0  0
  186.8700  173.9000  137.0560 C   0  0  2  0  0  3  0  0  0  0  0  0
  187.5470  175.9880  138.0530 O   0  0  0  0  0  0  0  0  0  0  0  0
  187.7440  175.1220  137.1560 C   0  0  0  0  0  0  0  0  0  0  0  0
  188.8510  175.2550  136.2620 N   0  0  0  0  0  2  0  0  0  0  0  0
  189.8910  176.2600  136.4170 C   0  0  1  0  0  3  0  0  0  0  0  0
  191.2510  173.7010  137.5330 C   0  0  0  0  0  1  0  0  0  0  0  0
  191.9660  174.4660  136.4190 C   0  0  1  0  0  3  0  0  0  0  0  0
  191.2360  175.7140  135.8600 C   0  0  2  0  0  3  0  0  0  0  0  0
  192.4390  175.8690  136.8000 C   0  0  2  0  0  0  0  0  0  0  0  0
  193.7310  176.2740  136.0980 C   0  0  0  0  0  2  0  0  0  0  0  0
  193.4510  176.7590  134.6910 C   0  0  0  0  0  1  0  0  0  0  0  0
  192.2300  176.3410  138.2460 C   0  0  0  0  0  2  0  0  0  0  0  0
  193.4590  176.6070  138.8490 O   0  0  0  0  0  1  0  0  0  0  0  0
  189.4590  177.4660  135.8580 O   0  0  0  0  0  0  0  0  0  0  0  0
  189.5390  178.3920  136.9050 C   0  0  0  0  0  2  0  0  0  0  0  0
  188.1860  179.0450  137.0990 C   0  0  0  0  0  1  0  0  0  0  0  0
  187.6640  172.5930  137.0710 C   0  0  0  0  0  2  0  0  0  0  0  0
  187.8160  171.9910  135.6770 C   0  0  0  0  0  1  0  0  0  0  0  0
  180.6320  175.2550  138.5870 C   0  0  0  0  0  2  0  0  0  0  0  0
  180.9240  176.4100  139.5500 C   0  0  1  0  0  3  0  0  0  0  0  0
  179.8430  175.2750  141.3050 O   0  0  0  0  0  0  0  0  0  0  0  0
  180.0530  176.3510  140.7600 C   0  0  0  0  0  3  0  0  0  0  0  0
  182.3920  176.4410  139.9600 C   0  0  0  0  0  2  0  0  0  0  0  0
  183.1260  178.6660  142.5090 C   0  0  2  0  0  3  0  0  0  0  0  0
  183.6300  177.6490  141.5340 C   0  0  2  0  0  3  0  0  0  0  0  0
  183.6520  178.4020  143.7750 O   0  0  0  0  0  0  0  0  0  0  0  0
  184.9670  178.9070  143.6730 C   0  0  2  0  0  3  0  0  0  0  0  0
  185.0960  177.9950  141.2920 C   0  0  0  0  0  2  0  0  0  0  0  0
  181.6440  178.5840  142.3470 C   0  0  0  0  0  2  0  0  0  0  0  0
  181.5590  178.4750  140.8240 C   0  0  2  0  0  3  0  0  0  0  0  0
  185.8520  178.1170  142.6480 C   0  0  1  0  0  0  0  0  0  0  0  0
  182.7840  177.7860  140.3520 N   0  0  0  0  0  0  0  0  0  0  0  0
  187.1370  178.9070  142.4120 C   0  0  0  0  0  1  0  0  0  0  0  0
  187.3720  176.5260  142.7940 O   0  0  0  0  0  1  0  0  0  0  0  0
  186.1460  176.8380  143.1770 O   0  0  0  0  0  0  0  0  0  0  0  0
  181.4700  179.8940  140.2390 C   0  0  2  0  0  3  0  0  0  0  0  0
  180.1310  180.1560  139.5580 C   0  0  0  0  0  2  0  0  0  0  0  0
  178.9560  179.9140  140.4950 C   0  0  0  0  0  1  0  0  0  0  0  0
  181.9060  180.5720  138.1760 C   0  0  0  0  0  1  0  0  0  0  0  0
  182.5250  180.1840  139.3660 O   0  0  0  0  0  0  0  0  0  0  0  0
  185.5960  179.1310  145.0500 C   0  0  0  0  0  2  0  0  0  0  0  0
  187.0010  179.0040  145.0050 O   0  0  0  0  0  0  0  0  0  0  0  0
  187.4870  178.3650  146.1800 C   0  0  2  0  0  0  0  0  0  0  0  0
  186.8000  177.0140  146.3530 C   0  0  0  0  0  1  0  0  0  0  0  0
  186.1050  179.9680  147.4010 O   0  0  0  0  0  1  0  0  0  0  0  0
  187.2900  178.4330  148.6050 O   0  0  0  0  0  1  0  0  0  0  0  0
  187.2860  179.2230  147.4560 C   0  0  0  0  0  3  0  0  0  0  0  0
  188.9520  178.0740  145.9770 C   0  0  0  0  0  3  0  0  0  0  0  0
  189.4710  176.8620  146.1580 C   0  0  0  0  0  2  0  0  0  0  0  0
  1 38  1  1  0  0  0
  3  2  2  0  0  0  0
  4  7  2  0  0  0  0
  5  6  2  0  0  0  0
  5  4  1  0  0  0  0
  6  3  1  0  0  0  0
  7  2  1  0  0  0  0
  7  1  1  0  0  0  0
  8 12  1  0  0  0  0
  8  1  1  0  0  0  0
  9 11  1  0  0  0  0
 10  8  2  0  0  0  0
 11 12  2  0  0  0  0
 12 14  1  0  0  0  0
 13  9  2  0  0  0  0
 13 10  1  0  0  0  0
 15 14  1  0  0  0  0
 16 15  1  0  0  0  0
 17 16  1  0  0  0  0
 17 18  1  0  0  0  0
 19 16  1  0  0  0  0
 20 19  1  6  0  0  0
 20 36  1  0  0  0  0
 20 22  1  0  0  0  0
 22 21  2  0  0  0  0
 23 24  1  0  0  0  0
 23 22  1  0  0  0  0
 24 33  1  6  0  0  0
 26 28  1  0  0  0  0
 26 25  1  1  0  0  0
 27 24  1  1  0  0  0
 27 26  1  0  0  0  0
 27 28  1  0  0  0  0
 28 29  1  6  0  0  0
 28 31  1  0  0  0  0
 30 29  1  0  0  0  0
 31 32  1  0  0  0  0
 33 34  1  0  0  0  0
 34 35  1  0  0  0  0
 37 36  1  0  0  0  0
 39 38  1  6  0  0  0
 39 42  1  0  0  0  0
 39 41  1  0  0  0  0
 41 40  2  0  0  0  0
 42 51  1  0  0  0  0
 43 48  1  1  0  0  0
 43 45  1  0  0  0  0
 44 47  1  6  0  0  0
 44 43  1  0  0  0  0
 46 45  1  0  0  0  0
 46 60  1  1  0  0  0
 47 50  1  0  0  0  0
 49 55  1  6  0  0  0
 49 48  1  0  0  0  0
 50 52  1  6  0  0  0
 50 54  1  0  0  0  0
 50 46  1  0  0  0  0
 51 49  1  0  0  0  0
 51 44  1  0  0  0  0
 53 54  1  0  0  0  0
 55 56  1  6  0  0  0
 56 57  1  0  0  0  0
 58 59  1  0  0  0  0
 59 55  1  0  0  0  0
 61 60  1  0  0  0  0
 61 62  1  0  0  0  0
 62 63  1  1  0  0  0
 62 66  1  0  0  0  0
 64 66  1  0  0  0  0
 66 65  1  0  0  0  0
 67 68  2  0  0  0  0
 67 62  1  0  0  0  0
M  END
>  <MODEL>
4

>  <REMARK>
 VINA RESULT:      -2.9      2.529      8.585
  Name = 
  30 active torsions:
  status: ('A' for Active; 'I' for Inactive)
    1  A    between atoms: C_2  and  C_21
    2  A    between atoms: C_2  and  O_34
    3  A    between atoms: C_2  and  C_60
    4  A    between atoms: N_4  and  C_56
    5  A    between atoms: N_4  and  N_65
    6  A    between atoms: C_8  and  C_57
    7  A    between atoms: C_10  and  O_34
    8  A    between atoms: C_10  and  C_44
    9  A    between atoms: C_17  and  C_50
   10  A    between atoms: O_19  and  C_61
   11  A    between atoms: C_20  and  C_39
   12  A    between atoms: C_23  and  C_45
   13  A    between atoms: C_23  and  O_54
   14  A    between atoms: C_23  and  N_67
   15  A    between atoms: C_25  and  N_65
   16  A    between atoms: C_26  and  C_33
   17  A    between atoms: C_26  and  C_57
   18  A    between atoms: C_27  and  C_58
   19  A    between atoms: C_30  and  C_50
   20  A    between atoms: C_30  and  N_65
   21  A    between atoms: C_33  and  C_52
   22  A    between atoms: C_33  and  C_55
   23  A    between atoms: C_36  and  C_58
   24  A    between atoms: C_38  and  C_57
   25  A    between atoms: C_39  and  O_53
   26  A    between atoms: C_39  and  C_59
   27  A    between atoms: C_47  and  C_56
   28  A    between atoms: C_50  and  C_64
   29  A    between atoms: C_51  and  O_54
   30  A    between atoms: C_52  and  N_62
                            x       y       z     vdW  Elec       q    Type
                         _______ _______ _______ _____ _____    ______ ____

>  <TORSDO>
F 30

$$$$
=
 OpenBabel11042412333D

 68 72  0  0  1  0  0  0  0  0999 V2000
  182.3630  179.1490  140.5460 C   0  0  2  0  0  3  0  0  0  0  0  0
  180.6860  180.8260  139.6630 C   0  0  0  0  0  3  0  0  0  0  0  0
  180.3680  181.9400  138.8780 C   0  0  0  0  0  3  0  0  0  0  0  0
  183.0080  181.0170  139.0000 C   0  0  0  0  0  3  0  0  0  0  0  0
  182.6870  182.1270  138.2080 C   0  0  0  0  0  3  0  0  0  0  0  0
  181.3670  182.5850  138.1420 C   0  0  0  0  0  3  0  0  0  0  0  0
  182.0090  180.3540  139.7180 C   0  0  0  0  0  0  0  0  0  0  0  0
  181.2520  178.3140  141.1500 C   0  0  0  0  0  0  0  0  0  0  0  0
  179.1690  177.0200  142.4390 C   0  0  0  0  0  3  0  0  0  0  0  0
  180.7730  178.7310  142.3510 N   0  0  0  0  0  0  0  0  0  0  0  0
  179.6030  176.5360  141.2100 C   0  0  0  0  0  3  0  0  0  0  0  0
  180.6380  177.1850  140.5350 C   0  0  0  0  0  0  0  0  0  0  0  0
  179.7640  178.1210  142.9710 N   0  0  0  0  0  0  0  0  0  0  0  0
  181.0500  176.6300  139.2100 C   0  0  0  0  0  2  0  0  0  0  0  0
  179.8630  176.2930  138.4280 N   0  0  0  0  0  2  0  0  0  0  0  0
  180.0960  176.6610  137.0950 N   0  0  0  0  0  0  0  0  0  0  0  0
  180.8680  177.9170  137.1270 C   0  0  0  0  0  2  0  0  0  0  0  0
  181.2390  178.3280  135.8480 O   0  0  0  0  0  1  0  0  0  0  0  0
  180.8710  175.5650  136.4970 C   0  0  0  0  0  2  0  0  0  0  0  0
  181.3860  174.5530  137.5300 C   0  0  2  0  0  3  0  0  0  0  0  0
  183.3410  173.2480  138.0640 O   0  0  0  0  0  0  0  0  0  0  0  0
  182.8390  174.1850  137.3840 C   0  0  0  0  0  0  0  0  0  0  0  0
  183.6290  174.8660  136.4080 N   0  0  0  0  0  2  0  0  0  0  0  0
  184.9630  174.4400  136.0160 C   0  0  1  0  0  3  0  0  0  0  0  0
  185.6670  177.4360  136.4280 C   0  0  0  0  0  1  0  0  0  0  0  0
  186.4070  176.4010  137.2760 C   0  0  1  0  0  3  0  0  0  0  0  0
  185.9990  174.9210  137.0710 C   0  0  2  0  0  3  0  0  0  0  0  0
  187.3160  175.4550  136.4910 C   0  0  2  0  0  0  0  0  0  0  0  0
  188.5570  175.0350  137.2710 C   0  0  0  0  0  2  0  0  0  0  0  0
  189.5710  174.3780  136.3580 C   0  0  0  0  0  1  0  0  0  0  0  0
  187.4590  175.6700  134.9780 C   0  0  0  0  0  2  0  0  0  0  0  0
  188.2380  176.7990  134.7220 O   0  0  0  0  0  1  0  0  0  0  0  0
  184.9570  173.0640  135.7690 O   0  0  0  0  0  0  0  0  0  0  0  0
  184.2080  172.9170  134.5950 C   0  0  0  0  0  2  0  0  0  0  0  0
  183.5160  171.5690  134.6090 C   0  0  0  0  0  1  0  0  0  0  0  0
  180.4630  173.3350  137.5960 C   0  0  0  0  0  2  0  0  0  0  0  0
  179.7620  173.2120  138.9460 C   0  0  0  0  0  1  0  0  0  0  0  0
  183.5560  179.3410  141.4920 C   0  0  0  0  0  2  0  0  0  0  0  0
  184.7180  178.4000  141.1590 C   0  0  1  0  0  3  0  0  0  0  0  0
  186.1250  179.3330  139.5200 O   0  0  0  0  0  0  0  0  0  0  0  0
  185.9260  179.1540  140.7150 C   0  0  0  0  0  3  0  0  0  0  0  0
  185.0660  177.4970  142.3370 C   0  0  0  0  0  2  0  0  0  0  0  0
  187.4830  177.3340  144.8090 C   0  0  2  0  0  3  0  0  0  0  0  0
  187.1720  177.4750  143.3520 C   0  0  2  0  0  3  0  0  0  0  0  0
  188.4930  176.3850  144.9830 O   0  0  0  0  0  0  0  0  0  0  0  0
  189.6560  177.1070  144.6340 C   0  0  2  0  0  3  0  0  0  0  0  0
  188.3520  178.2270  142.7460 C   0  0  0  0  0  2  0  0  0  0  0  0
  186.1500  177.0390  145.4130 C   0  0  0  0  0  2  0  0  0  0  0  0
  185.2890  178.0290  144.6270 C   0  0  2  0  0  3  0  0  0  0  0  0
  189.6900  177.5250  143.1230 C   0  0  1  0  0  0  0  0  0  0  0  0
  185.9070  178.2030  143.2900 N   0  0  0  0  0  0  0  0  0  0  0  0
  190.8280  178.5240  142.9250 C   0  0  0  0  0  1  0  0  0  0  0  0
  188.7850  175.6580  142.3760 O   0  0  0  0  0  1  0  0  0  0  0  0
  189.8960  176.3740  142.3270 O   0  0  0  0  0  0  0  0  0  0  0  0
  185.2580  179.3630  145.3920 C   0  0  2  0  0  3  0  0  0  0  0  0
  185.4430  179.1720  146.8930 C   0  0  0  0  0  2  0  0  0  0  0  0
  186.7450  179.7830  147.3930 C   0  0  0  0  0  1  0  0  0  0  0  0
  183.0950  179.1510  144.9690 C   0  0  0  0  0  1  0  0  0  0  0  0
  184.1010  180.1060  145.1330 O   0  0  0  0  0  0  0  0  0  0  0  0
  190.9220  176.4280  145.1580 C   0  0  0  0  0  2  0  0  0  0  0  0
  191.6010  177.2440  146.0890 O   0  0  0  0  0  0  0  0  0  0  0  0
  191.3840  176.7790  147.4170 C   0  0  2  0  0  0  0  0  0  0  0  0
  192.0340  177.7370  148.4100 C   0  0  0  0  0  1  0  0  0  0  0  0
  192.6910  174.8980  146.5650 O   0  0  0  0  0  1  0  0  0  0  0  0
  192.6660  175.2590  148.8190 O   0  0  0  0  0  1  0  0  0  0  0  0
  191.9200  175.3420  147.6440 C   0  0  0  0  0  3  0  0  0  0  0  0
  189.9020  176.8270  147.6880 C   0  0  0  0  0  3  0  0  0  0  0  0
  189.2880  177.9320  148.1040 C   0  0  0  0  0  2  0  0  0  0  0  0
  1  8  1  0  0  0  0
  1 38  1  1  0  0  0
  2  7  1  0  0  0  0
  3  2  2  0  0  0  0
  4  7  2  0  0  0  0
  5  4  1  0  0  0  0
  6  5  2  0  0  0  0
  6  3  1  0  0  0  0
  7  1  1  0  0  0  0
  8 10  1  0  0  0  0
  9 13  1  0  0  0  0
 10 13  2  0  0  0  0
 11  9  2  0  0  0  0
 12  8  2  0  0  0  0
 12 11  1  0  0  0  0
 14 12  1  0  0  0  0
 15 14  1  0  0  0  0
 16 17  1  0  0  0  0
 16 15  1  0  0  0  0
 18 17  1  0  0  0  0
 19 16  1  0  0  0  0
 20 19  1  6  0  0  0
 20 36  1  0  0  0  0
 22 20  1  0  0  0  0
 22 21  2  0  0  0  0
 23 22  1  0  0  0  0
 24 33  1  1  0  0  0
 24 23  1  0  0  0  0
 26 25  1  6  0  0  0
 27 24  1  6  0  0  0
 27 26  1  0  0  0  0
 28 31  1  6  0  0  0
 28 27  1  0  0  0  0
 28 29  1  0  0  0  0
 28 26  1  0  0  0  0
 30 29  1  0  0  0  0
 32 31  1  0  0  0  0
 34 35  1  0  0  0  0
 34 33  1  0  0  0  0
 36 37  1  0  0  0  0
 39 41  1  1  0  0  0
 39 38  1  0  0  0  0
 39 42  1  0  0  0  0
 40 41  2  0  0  0  0
 42 51  1  0  0  0  0
 43 45  1  0  0  0  0
 43 48  1  1  0  0  0
 44 47  1  6  0  0  0
 44 43  1  0  0  0  0
 46 45  1  0  0  0  0
 46 60  1  6  0  0  0
 47 50  1  0  0  0  0
 49 55  1  1  0  0  0
 49 48  1  0  0  0  0
 50 52  1  6  0  0  0
 50 46  1  0  0  0  0
 51 44  1  0  0  0  0
 51 49  1  0  0  0  0
 54 53  1  0  0  0  0
 54 50  1  0  0  0  0
 55 56  1  1  0  0  0
 56 57  1  0  0  0  0
 58 59  1  0  0  0  0
 59 55  1  0  0  0  0
 60 61  1  0  0  0  0
 61 62  1  0  0  0  0
 62 66  1  0  0  0  0
 62 67  1  0  0  0  0
 62 63  1  1  0  0  0
 64 66  1  0  0  0  0
 66 65  1  0  0  0  0
 67 68  2  0  0  0  0
M  END
>  <MODEL>
5

>  <REMARK>
 VINA RESULT:      -2.5      2.501      5.407
  Name = 
  30 active torsions:
  status: ('A' for Active; 'I' for Inactive)
    1  A    between atoms: C_2  and  C_21
    2  A    between atoms: C_2  and  O_34
    3  A    between atoms: C_2  and  C_60
    4  A    between atoms: N_4  and  C_56
    5  A    between atoms: N_4  and  N_65
    6  A    between atoms: C_8  and  C_57
    7  A    between atoms: C_10  and  O_34
    8  A    between atoms: C_10  and  C_44
    9  A    between atoms: C_17  and  C_50
   10  A    between atoms: O_19  and  C_61
   11  A    between atoms: C_20  and  C_39
   12  A    between atoms: C_23  and  C_45
   13  A    between atoms: C_23  and  O_54
   14  A    between atoms: C_23  and  N_67
   15  A    between atoms: C_25  and  N_65
   16  A    between atoms: C_26  and  C_33
   17  A    between atoms: C_26  and  C_57
   18  A    between atoms: C_27  and  C_58
   19  A    between atoms: C_30  and  C_50
   20  A    between atoms: C_30  and  N_65
   21  A    between atoms: C_33  and  C_52
   22  A    between atoms: C_33  and  C_55
   23  A    between atoms: C_36  and  C_58
   24  A    between atoms: C_38  and  C_57
   25  A    between atoms: C_39  and  O_53
   26  A    between atoms: C_39  and  C_59
   27  A    between atoms: C_47  and  C_56
   28  A    between atoms: C_50  and  C_64
   29  A    between atoms: C_51  and  O_54
   30  A    between atoms: C_52  and  N_62
                            x       y       z     vdW  Elec       q    Type
                         _______ _______ _______ _____ _____    ______ ____

>  <TORSDO>
F 30

$$$$
=
 OpenBabel11042412333D

 68 72  0  0  1  0  0  0  0  0999 V2000
  190.2490  176.8040  140.7770 C   0  0  2  0  0  3  0  0  0  0  0  0
  191.6200  175.9420  138.8330 C   0  0  0  0  0  3  0  0  0  0  0  0
  192.8080  175.9100  138.0930 C   0  0  0  0  0  3  0  0  0  0  0  0
  192.5960  177.5740  140.3340 C   0  0  0  0  0  3  0  0  0  0  0  0
  193.7870  177.5340  139.5980 C   0  0  0  0  0  3  0  0  0  0  0  0
  193.8950  176.6980  138.4810 C   0  0  0  0  0  3  0  0  0  0  0  0
  191.5140  176.7690  139.9650 C   0  0  0  0  0  0  0  0  0  0  0  0
  190.3260  176.5970  142.2760 C   0  0  0  0  0  0  0  0  0  0  0  0
  190.6570  175.9910  144.9590 C   0  0  0  0  0  3  0  0  0  0  0  0
  190.8390  175.4100  142.6920 N   0  0  0  0  0  0  0  0  0  0  0  0
  190.1290  177.2290  144.6100 C   0  0  0  0  0  3  0  0  0  0  0  0
  189.9730  177.5620  143.2640 C   0  0  0  0  0  0  0  0  0  0  0  0
  191.0100  175.1160  143.9800 N   0  0  0  0  0  0  0  0  0  0  0  0
  189.4170  178.9130  142.9480 C   0  0  0  0  0  2  0  0  0  0  0  0
  188.1530  179.1010  143.6560 N   0  0  0  0  0  2  0  0  0  0  0  0
  187.2800  178.0710  143.2770 N   0  0  0  0  0  0  0  0  0  0  0  0
  186.5830  177.6300  144.5000 C   0  0  0  0  0  2  0  0  0  0  0  0
  187.4480  177.5600  145.5900 O   0  0  0  0  0  1  0  0  0  0  0  0
  186.3490  178.6590  142.3050 C   0  0  0  0  0  2  0  0  0  0  0  0
  184.9640  177.9960  142.3150 C   0  0  2  0  0  3  0  0  0  0  0  0
  184.4160  179.2940  140.3590 O   0  0  0  0  0  0  0  0  0  0  0  0
  184.0590  178.4080  141.1840 C   0  0  0  0  0  0  0  0  0  0  0  0
  182.8140  177.7290  141.0140 N   0  0  0  0  0  2  0  0  0  0  0  0
  181.9750  177.8740  139.8340 C   0  0  1  0  0  3  0  0  0  0  0  0
  179.7420  179.7520  140.8990 C   0  0  0  0  0  1  0  0  0  0  0  0
  180.7590  180.3320  139.9140 C   0  0  1  0  0  3  0  0  0  0  0  0
  181.8820  179.3760  139.4380 C   0  0  2  0  0  3  0  0  0  0  0  0
  180.7120  179.7300  138.5100 C   0  0  2  0  0  0  0  0  0  0  0  0
  181.0650  180.7350  137.4180 C   0  0  0  0  0  2  0  0  0  0  0  0
  181.3120  182.1080  138.0090 C   0  0  0  0  0  1  0  0  0  0  0  0
  179.6320  178.6850  138.1990 C   0  0  0  0  0  2  0  0  0  0  0  0
  179.4960  178.5250  136.8200 O   0  0  0  0  0  1  0  0  0  0  0  0
  182.4360  177.0200  138.8290 O   0  0  0  0  0  0  0  0  0  0  0  0
  182.2120  175.7310  139.3280 C   0  0  0  0  0  2  0  0  0  0  0  0
  180.7280  175.4270  139.2790 C   0  0  0  0  0  1  0  0  0  0  0  0
  184.3090  178.1410  143.6900 C   0  0  0  0  0  2  0  0  0  0  0  0
  184.1420  179.6010  144.1000 C   0  0  0  0  0  1  0  0  0  0  0  0
  189.0450  176.1040  140.1330 C   0  0  0  0  0  2  0  0  0  0  0  0
  188.6830  176.7050  138.7720 C   0  0  1  0  0  3  0  0  0  0  0  0
  189.2520  178.8770  138.0670 O   0  0  0  0  0  0  0  0  0  0  0  0
  188.5880  178.1930  138.8350 C   0  0  0  0  0  3  0  0  0  0  0  0
  189.6730  176.2870  137.6910 C   0  0  0  0  0  2  0  0  0  0  0  0
  186.9670  174.5590  136.3980 C   0  0  2  0  0  3  0  0  0  0  0  0
  187.5430  175.8740  136.8190 C   0  0  2  0  0  3  0  0  0  0  0  0
  185.6840  174.4180  136.9310 O   0  0  0  0  0  0  0  0  0  0  0  0
  184.9030  175.2240  136.0720 C   0  0  2  0  0  3  0  0  0  0  0  0
  186.8000  176.9320  136.0090 C   0  0  0  0  0  2  0  0  0  0  0  0
  188.0060  173.5790  136.8340 C   0  0  0  0  0  2  0  0  0  0  0  0
  189.2650  174.3410  136.4170 C   0  0  2  0  0  3  0  0  0  0  0  0
  185.2610  176.7470  136.1650 C   0  0  1  0  0  0  0  0  0  0  0  0
  188.9700  175.7900  136.5190 N   0  0  0  0  0  0  0  0  0  0  0  0
  184.5720  177.4740  135.0130 C   0  0  0  0  0  1  0  0  0  0  0  0
  185.2830  178.4860  137.5210 O   0  0  0  0  0  1  0  0  0  0  0  0
  184.8170  177.2540  137.4090 O   0  0  0  0  0  0  0  0  0  0  0  0
  189.6130  173.9540  134.9700 C   0  0  2  0  0  3  0  0  0  0  0  0
  189.4420  172.4600  134.7150 C   0  0  0  0  0  2  0  0  0  0  0  0
  189.1430  171.6910  135.9940 C   0  0  0  0  0  1  0  0  0  0  0  0
  191.7440  173.8100  135.5510 C   0  0  0  0  0  1  0  0  0  0  0  0
  190.8950  174.3700  134.5950 O   0  0  0  0  0  0  0  0  0  0  0  0
  183.4150  174.8890  136.1800 C   0  0  0  0  0  2  0  0  0  0  0  0
  183.1770  173.5140  135.9660 O   0  0  0  0  0  0  0  0  0  0  0  0
  181.8200  173.2900  135.5950 C   0  0  2  0  0  0  0  0  0  0  0  0
  180.9800  173.0350  136.8420 C   0  0  0  0  0  1  0  0  0  0  0  0
  182.5650  171.0800  134.8640 O   0  0  0  0  0  1  0  0  0  0  0  0
  180.3570  171.6080  134.6200 O   0  0  0  0  0  1  0  0  0  0  0  0
  181.6570  172.1110  134.6010 C   0  0  0  0  0  3  0  0  0  0  0  0
  181.2920  174.5610  134.9790 C   0  0  0  0  0  3  0  0  0  0  0  0
  180.2720  175.2370  135.5020 C   0  0  0  0  0  2  0  0  0  0  0  0
  1 38  1  6  0  0  0
  1  8  1  0  0  0  0
  2  7  1  0  0  0  0
  3  6  1  0  0  0  0
  3  2  2  0  0  0  0
  5  4  1  0  0  0  0
  6  5  2  0  0  0  0
  7  4  2  0  0  0  0
  7  1  1  0  0  0  0
  8 10  2  0  0  0  0
  8 12  1  0  0  0  0
 10 13  1  0  0  0  0
 11  9  1  0  0  0  0
 12 11  2  0  0  0  0
 13  9  2  0  0  0  0
 14 12  1  0  0  0  0
 14 15  1  0  0  0  0
 16 15  1  0  0  0  0
 16 17  1  0  0  0  0
 17 18  1  0  0  0  0
 19 16  1  0  0  0  0
 20 19  1  1  0  0  0
 20 36  1  0  0  0  0
 21 22  2  0  0  0  0
 22 20  1  0  0  0  0
 23 22  1  0  0  0  0
 24 33  1  6  0  0  0
 24 23  1  0  0  0  0
 26 25  1  1  0  0  0
 27 24  1  1  0  0  0
 27 26  1  0  0  0  0
 28 29  1  6  0  0  0
 28 27  1  0  0  0  0
 28 26  1  0  0  0  0
 29 30  1  0  0  0  0
 31 28  1  0  0  0  0
 32 31  1  0  0  0  0
 33 34  1  0  0  0  0
 35 34  1  0  0  0  0
 36 37  1  0  0  0  0
 39 42  1  6  0  0  0
 39 41  1  0  0  0  0
 39 38  1  0  0  0  0
 40 41  2  0  0  0  0
 43 44  1  0  0  0  0
 43 48  1  1  0  0  0
 43 45  1  0  0  0  0
 44 47  1  6  0  0  0
 46 50  1  0  0  0  0
 46 60  1  1  0  0  0
 46 45  1  0  0  0  0
 47 50  1  0  0  0  0
 49 55  1  6  0  0  0
 49 51  1  0  0  0  0
 49 48  1  0  0  0  0
 50 52  1  6  0  0  0
 50 54  1  0  0  0  0
 51 44  1  0  0  0  0
 51 42  1  0  0  0  0
 54 53  1  0  0  0  0
 55 56  1  1  0  0  0
 56 57  1  0  0  0  0
 59 55  1  0  0  0  0
 59 58  1  0  0  0  0
 61 60  1  0  0  0  0
 62 61  1  0  0  0  0
 62 63  1  1  0  0  0
 66 65  1  0  0  0  0
 66 64  1  0  0  0  0
 66 62  1  0  0  0  0
 67 68  2  0  0  0  0
 67 62  1  0  0  0  0
M  END
>  <MODEL>
6

>  <REMARK>
 VINA RESULT:      -1.5      2.294      8.623
  Name = 
  30 active torsions:
  status: ('A' for Active; 'I' for Inactive)
    1  A    between atoms: C_2  and  C_21
    2  A    between atoms: C_2  and  O_34
    3  A    between atoms: C_2  and  C_60
    4  A    between atoms: N_4  and  C_56
    5  A    between atoms: N_4  and  N_65
    6  A    between atoms: C_8  and  C_57
    7  A    between atoms: C_10  and  O_34
    8  A    between atoms: C_10  and  C_44
    9  A    between atoms: C_17  and  C_50
   10  A    between atoms: O_19  and  C_61
   11  A    between atoms: C_20  and  C_39
   12  A    between atoms: C_23  and  C_45
   13  A    between atoms: C_23  and  O_54
   14  A    between atoms: C_23  and  N_67
   15  A    between atoms: C_25  and  N_65
   16  A    between atoms: C_26  and  C_33
   17  A    between atoms: C_26  and  C_57
   18  A    between atoms: C_27  and  C_58
   19  A    between atoms: C_30  and  C_50
   20  A    between atoms: C_30  and  N_65
   21  A    between atoms: C_33  and  C_52
   22  A    between atoms: C_33  and  C_55
   23  A    between atoms: C_36  and  C_58
   24  A    between atoms: C_38  and  C_57
   25  A    between atoms: C_39  and  O_53
   26  A    between atoms: C_39  and  C_59
   27  A    between atoms: C_47  and  C_56
   28  A    between atoms: C_50  and  C_64
   29  A    between atoms: C_51  and  O_54
   30  A    between atoms: C_52  and  N_62
                            x       y       z     vdW  Elec       q    Type
                         _______ _______ _______ _____ _____    ______ ____

>  <TORSDO>
F 30

$$$$
