=
 OpenBabel11032421163D

 52 61  0  0  1  0  0  0  0  0999 V2000
  185.6500  178.2430  146.6100 N   0  0  0  0  0  0  0  0  0  0  0  0
  188.7400  177.6570  144.1680 C   0  0  1  0  0  3  0  0  0  0  0  0
  186.9690  177.9330  146.8310 C   0  0  0  0  0  0  0  0  0  0  0  0
  189.8050  177.3290  146.7190 C   0  0  0  0  0  0  0  0  0  0  0  0
  186.0830  178.2600  144.1620 C   0  0  0  0  0  0  0  0  0  0  0  0
  189.0990  177.4350  147.9740 C   0  0  0  0  0  3  0  0  0  0  0  0
  189.0440  177.5350  145.5700 C   0  0  0  0  0  0  0  0  0  0  0  0
  183.8270  178.7050  145.0670 C   0  0  0  0  0  3  0  0  0  0  0  0
  187.7070  177.8110  145.7410 C   0  0  1  0  0  0  0  0  0  0  0  0
  185.1820  178.4050  145.3020 C   0  0  0  0  0  0  0  0  0  0  0  0
  187.3740  177.9540  144.4450 N   0  0  0  0  0  0  0  0  0  0  0  0
  185.4960  178.6280  139.3200 C   0  0  0  0  0  2  0  0  0  0  0  0
  187.6800  177.7370  148.0380 C   0  0  0  0  0  3  0  0  0  0  0  0
  185.5720  178.4330  142.8760 C   0  0  0  0  0  0  0  0  0  0  0  0
  187.8260  178.1540  139.9030 C   0  0  0  0  0  0  0  0  0  0  0  0
  183.9800  178.8340  141.3310 C   0  0  0  0  0  0  0  0  0  0  0  0
  185.1920  178.6170  140.6800 C   0  0  0  0  0  0  0  0  0  0  0  0
  186.8260  178.3910  138.9380 C   0  0  0  0  0  3  0  0  0  0  0  0
  183.3430  178.8630  143.7560 C   0  0  0  0  0  3  0  0  0  0  0  0
  191.2600  177.0330  146.6580 C   0  0  0  0  0  1  0  0  0  0  0  0
  186.1680  178.3740  141.6310 C   0  0  0  0  0  0  0  0  0  0  0  0
  184.2320  178.7230  142.6880 C   0  0  0  0  0  0  0  0  0  0  0  0
  187.4930  178.1400  141.2730 C   0  0  0  0  0  3  0  0  0  0  0  0
  182.7290  179.1110  140.7670 O   0  0  0  0  0  0  0  0  0  0  0  0
  181.3510  180.3020  139.1800 C   0  0  0  0  0  2  0  0  0  0  0  0
  181.4090  178.7430  137.4180 C   0  0  0  0  0  2  0  0  0  0  0  0
  180.7210  179.9370  137.9130 N   0  0  2  0  0  0  0  0  0  0  0  0
  182.5500  179.4080  139.3880 C   0  0  2  0  0  3  0  0  0  0  0  0
  182.2740  178.1840  138.5310 C   0  0  1  0  0  3  0  0  0  0  0  0
  182.4570  176.2980  139.9880 F   0  0  0  0  0  0  0  0  0  0  0  0
  180.5990  177.5440  140.1180 F   0  0  0  0  0  0  0  0  0  0  0  0
  180.9230  176.1930  138.3410 F   0  0  0  0  0  0  0  0  0  0  0  0
  181.5450  177.0330  139.2500 C   0  0  0  0  0  0  0  0  0  0  0  0
  180.5910  182.3410  137.5800 C   0  0  0  0  0  2  0  0  0  0  0  0
  179.6800  181.6790  136.5730 C   0  0  0  0  0  2  0  0  0  0  0  0
  180.9870  181.0130  136.9670 C   0  0  0  0  0  3  0  0  0  0  0  0
  189.1700  177.9300  139.4680 N   0  0  0  0  0  2  0  0  0  0  0  0
  189.7700  176.6110  139.3320 C   0  0  0  0  0  2  0  0  0  0  0  0
  190.1650  176.3640  137.8850 C   0  0  1  0  0  3  0  0  0  0  0  0
  191.6640  176.1450  137.7900 C   0  0  0  0  0  2  0  0  0  0  0  0
  191.9870  175.2140  136.6400 C   0  0  0  0  0  1  0  0  0  0  0  0
  189.4310  175.1400  137.3590 C   0  0  0  0  0  2  0  0  0  0  0  0
  188.2280  175.6110  136.1280 S   0  0  0  0  0  0  0  0  0  0  0  0
  188.2160  177.1080  136.0010 O   0  0  0  0  0  0  0  0  0  0  0  0
  188.5890  174.9980  134.8050 O   0  0  0  0  0  0  0  0  0  0  0  0
  186.5120  173.7070  137.0670 C   0  0  0  0  0  2  0  0  0  0  0  0
  186.6600  175.0580  136.6090 N   0  0  0  0  0  0  0  0  0  0  0  0
  184.2360  174.2340  137.7220 C   0  0  0  0  0  3  0  0  0  0  0  0
  185.1250  175.9780  134.9410 C   0  0  0  0  0  1  0  0  0  0  0  0
  184.3020  175.4630  137.2060 C   0  0  0  0  0  3  0  0  0  0  0  0
  185.3600  173.2970  137.5920 C   0  0  0  0  0  3  0  0  0  0  0  0
  185.4940  175.9300  136.4140 C   0  0  0  0  0  0  0  0  0  0  0  0
  1  3  2  0  0  0  0
  2 11  1  0  0  0  0
  2  7  1  1  0  0  0
  2  9  1  0  0  0  0
  3 13  1  0  0  0  0
  4  6  1  0  0  0  0
  5 11  1  0  0  0  0
  5 10  1  0  0  0  0
  6 13  2  0  0  0  0
  7  4  2  0  0  0  0
  8 10  2  0  0  0  0
  9  7  1  1  0  0  0
  9  3  1  0  0  0  0
 10  1  1  0  0  0  0
 11  9  1  0  0  0  0
 12 17  1  0  0  0  0
 14  5  2  0  0  0  0
 15 23  1  0  0  0  0
 16 22  1  0  0  0  0
 17 16  2  0  0  0  0
 17 21  1  0  0  0  0
 18 12  1  0  0  0  0
 18 15  2  0  0  0  0
 19  8  1  0  0  0  0
 20  4  1  0  0  0  0
 21 14  1  0  0  0  0
 22 14  1  0  0  0  0
 22 19  2  0  0  0  0
 23 21  2  0  0  0  0
 24 16  1  0  0  0  0
 25 28  1  0  0  0  0
 26 27  1  0  0  0  0
 26 29  1  0  0  0  0
 27 36  1  6  0  0  0
 27 25  1  0  0  0  0
 28 24  1  1  0  0  0
 29 33  1  1  0  0  0
 29 28  1  0  0  0  0
 32 33  1  0  0  0  0
 33 30  1  0  0  0  0
 33 31  1  0  0  0  0
 35 36  1  0  0  0  0
 35 34  1  0  0  0  0
 36 34  1  0  0  0  0
 37 15  1  0  0  0  0
 38 37  1  0  0  0  0
 39 42  1  1  0  0  0
 39 38  1  0  0  0  0
 40 39  1  0  0  0  0
 41 40  1  0  0  0  0
 43 47  1  0  0  0  0
 43 42  1  0  0  0  0
 44 43  2  0  0  0  0
 45 43  2  0  0  0  0
 46 51  1  0  0  0  0
 47 46  1  0  0  0  0
 49 52  1  0  0  0  0
 50 48  1  0  0  0  0
 51 48  2  0  0  0  0
 52 47  1  0  0  0  0
 52 50  2  0  0  0  0
M  END
>  <MODEL>
1

>  <REMARK>
 VINA RESULT:      -9.8      0.000      0.000
  Name = 
  11 active torsions:
  status: ('A' for Active; 'I' for Inactive)
    1  A    between atoms: C_2  and  C_49
    2  A    between atoms: N_8  and  S_23
    3  A    between atoms: O_13  and  C_32
    4  A    between atoms: O_13  and  C_37
    5  A    between atoms: C_20  and  C_49
    6  A    between atoms: C_20  and  N_51
    7  A    between atoms: S_23  and  C_50
    8  A    between atoms: N_27  and  C_30
    9  A    between atoms: C_34  and  C_46
   10  A    between atoms: C_36  and  N_51
   11  A    between atoms: C_49  and  C_50
                            x       y       z     vdW  Elec       q    Type
                         _______ _______ _______ _____ _____    ______ ____

>  <TORSDO>
F 11

$$$$
=
 OpenBabel11032421163D

 52 61  0  0  1  0  0  0  0  0999 V2000
  186.1660  178.1120  147.0800 N   0  0  0  0  0  0  0  0  0  0  0  0
  188.8270  177.5560  144.1700 C   0  0  1  0  0  3  0  0  0  0  0  0
  187.4950  177.7680  147.0830 C   0  0  0  0  0  0  0  0  0  0  0  0
  190.2640  177.1120  146.5120 C   0  0  0  0  0  0  0  0  0  0  0  0
  186.2170  178.2130  144.5960 C   0  0  0  0  0  0  0  0  0  0  0  0
  189.7630  177.1840  147.8640 C   0  0  0  0  0  3  0  0  0  0  0  0
  189.3400  177.3770  145.5030 C   0  0  0  0  0  0  0  0  0  0  0  0
  184.1400  178.6680  145.8540 C   0  0  0  0  0  3  0  0  0  0  0  0
  188.0530  177.6730  145.8880 C   0  0  1  0  0  0  0  0  0  0  0  0
  185.5060  178.3320  145.8660 C   0  0  0  0  0  0  0  0  0  0  0  0
  187.5280  177.8700  144.6650 N   0  0  0  0  0  0  0  0  0  0  0  0
  184.9000  178.7740  139.9190 C   0  0  0  0  0  2  0  0  0  0  0  0
  188.3790  177.5130  148.1580 C   0  0  0  0  0  3  0  0  0  0  0  0
  185.5180  178.4440  143.4120 C   0  0  0  0  0  0  0  0  0  0  0  0
  187.2790  178.2320  140.1180 C   0  0  0  0  0  0  0  0  0  0  0  0
  183.7180  178.9340  142.1470 C   0  0  0  0  0  0  0  0  0  0  0  0
  184.8090  178.7180  141.3080 C   0  0  0  0  0  0  0  0  0  0  0  0
  186.1490  178.5250  139.3280 C   0  0  0  0  0  3  0  0  0  0  0  0
  183.4630  178.8850  144.6410 C   0  0  0  0  0  3  0  0  0  0  0  0
  191.6840  176.7890  146.2160 C   0  0  0  0  0  1  0  0  0  0  0  0
  185.9140  178.4200  142.0880 C   0  0  0  0  0  0  0  0  0  0  0  0
  184.1730  178.7670  143.4430 C   0  0  0  0  0  0  0  0  0  0  0  0
  187.1610  178.1730  141.5210 C   0  0  0  0  0  3  0  0  0  0  0  0
  182.4030  179.2570  141.7930 O   0  0  0  0  0  0  0  0  0  0  0  0
  181.1070  178.8170  139.8020 C   0  0  0  0  0  2  0  0  0  0  0  0
  179.2310  177.8160  140.8130 C   0  0  0  0  0  2  0  0  0  0  0  0
  179.7250  178.4030  139.5660 N   0  0  2  0  0  0  0  0  0  0  0  0
  181.5180  178.3330  141.1720 C   0  0  2  0  0  3  0  0  0  0  0  0
  180.2110  178.1400  141.9240 C   0  0  1  0  0  3  0  0  0  0  0  0
  178.9770  180.1870  141.9040 F   0  0  0  0  0  0  0  0  0  0  0  0
  178.9340  178.9590  143.7770 F   0  0  0  0  0  0  0  0  0  0  0  0
  180.8050  180.0890  143.2190 F   0  0  0  0  0  0  0  0  0  0  0  0
  179.7310  179.3660  142.7240 C   0  0  0  0  0  0  0  0  0  0  0  0
  180.4910  177.8180  137.3340 C   0  0  0  0  0  2  0  0  0  0  0  0
  178.9800  177.7790  137.3360 C   0  0  0  0  0  2  0  0  0  0  0  0
  179.7520  177.3410  138.5690 C   0  0  0  0  0  3  0  0  0  0  0  0
  188.5340  177.9980  139.4720 N   0  0  0  0  0  2  0  0  0  0  0  0
  188.8440  178.4340  138.1180 C   0  0  0  0  0  2  0  0  0  0  0  0
  189.3610  177.2620  137.2990 C   0  0  1  0  0  3  0  0  0  0  0  0
  190.8260  177.0180  137.6170 C   0  0  0  0  0  2  0  0  0  0  0  0
  191.0220  175.6100  138.1380 C   0  0  0  0  0  1  0  0  0  0  0  0
  188.5490  176.0170  137.6250 C   0  0  0  0  0  2  0  0  0  0  0  0
  187.5390  175.5460  136.2320 S   0  0  0  0  0  0  0  0  0  0  0  0
  187.5510  176.6540  135.2180 O   0  0  0  0  0  0  0  0  0  0  0  0
  188.0850  174.2920  135.6090 O   0  0  0  0  0  0  0  0  0  0  0  0
  185.4650  173.9120  136.9290 C   0  0  0  0  0  2  0  0  0  0  0  0
  185.9150  175.2640  136.7620 N   0  0  0  0  0  0  0  0  0  0  0  0
  183.4360  174.7690  137.9460 C   0  0  0  0  0  3  0  0  0  0  0  0
  184.5560  176.8800  135.5270 C   0  0  0  0  0  1  0  0  0  0  0  0
  183.7730  176.0380  137.7060 C   0  0  0  0  0  3  0  0  0  0  0  0
  184.2830  173.6610  137.4840 C   0  0  0  0  0  3  0  0  0  0  0  0
  184.9920  176.3980  136.9000 C   0  0  0  0  0  0  0  0  0  0  0  0
  1  3  2  0  0  0  0
  2 11  1  0  0  0  0
  2  7  1  1  0  0  0
  2  9  1  0  0  0  0
  3 13  1  0  0  0  0
  4  6  1  0  0  0  0
  5 11  1  0  0  0  0
  5 10  1  0  0  0  0
  6 13  2  0  0  0  0
  7  4  2  0  0  0  0
  8 10  2  0  0  0  0
  9  7  1  1  0  0  0
  9  3  1  0  0  0  0
 10  1  1  0  0  0  0
 11  9  1  0  0  0  0
 12 17  1  0  0  0  0
 14 22  1  0  0  0  0
 14  5  2  0  0  0  0
 15 23  1  0  0  0  0
 16 22  1  0  0  0  0
 17 21  1  0  0  0  0
 17 16  2  0  0  0  0
 18 12  1  0  0  0  0
 18 15  2  0  0  0  0
 19  8  1  0  0  0  0
 20  4  1  0  0  0  0
 21 14  1  0  0  0  0
 22 19  2  0  0  0  0
 23 21  2  0  0  0  0
 24 16  1  0  0  0  0
 25 28  1  0  0  0  0
 26 29  1  0  0  0  0
 27 36  1  6  0  0  0
 27 25  1  0  0  0  0
 27 26  1  0  0  0  0
 28 24  1  1  0  0  0
 28 29  1  0  0  0  0
 29 33  1  6  0  0  0
 30 33  1  0  0  0  0
 33 32  1  0  0  0  0
 33 31  1  0  0  0  0
 34 35  1  0  0  0  0
 34 36  1  0  0  0  0
 35 36  1  0  0  0  0
 37 15  1  0  0  0  0
 38 37  1  0  0  0  0
 39 40  1  1  0  0  0
 39 42  1  0  0  0  0
 39 38  1  0  0  0  0
 40 41  1  0  0  0  0
 43 47  1  0  0  0  0
 43 42  1  0  0  0  0
 44 43  2  0  0  0  0
 45 43  2  0  0  0  0
 46 51  1  0  0  0  0
 47 52  1  0  0  0  0
 47 46  1  0  0  0  0
 49 52  1  0  0  0  0
 50 48  1  0  0  0  0
 51 48  2  0  0  0  0
 52 50  2  0  0  0  0
M  END
>  <MODEL>
2

>  <REMARK>
 VINA RESULT:      -9.6      1.795      2.173
  Name = 
  11 active torsions:
  status: ('A' for Active; 'I' for Inactive)
    1  A    between atoms: C_2  and  C_49
    2  A    between atoms: N_8  and  S_23
    3  A    between atoms: O_13  and  C_32
    4  A    between atoms: O_13  and  C_37
    5  A    between atoms: C_20  and  C_49
    6  A    between atoms: C_20  and  N_51
    7  A    between atoms: S_23  and  C_50
    8  A    between atoms: N_27  and  C_30
    9  A    between atoms: C_34  and  C_46
   10  A    between atoms: C_36  and  N_51
   11  A    between atoms: C_49  and  C_50
                            x       y       z     vdW  Elec       q    Type
                         _______ _______ _______ _____ _____    ______ ____

>  <TORSDO>
F 11

$$$$
=
 OpenBabel11032421163D

 52 61  0  0  1  0  0  0  0  0999 V2000
  185.9310  178.1630  146.8090 N   0  0  0  0  0  0  0  0  0  0  0  0
  188.7060  177.5790  144.0130 C   0  0  1  0  0  3  0  0  0  0  0  0
  187.2560  177.8070  146.8670 C   0  0  0  0  0  0  0  0  0  0  0  0
  190.0400  177.1270  146.4140 C   0  0  0  0  0  0  0  0  0  0  0  0
  186.0860  178.2580  144.3300 C   0  0  0  0  0  0  0  0  0  0  0  0
  189.4840  177.2060  147.7440 C   0  0  0  0  0  3  0  0  0  0  0  0
  189.1610  177.3970  145.3670 C   0  0  0  0  0  0  0  0  0  0  0  0
  183.9620  178.7330  145.4990 C   0  0  0  0  0  3  0  0  0  0  0  0
  187.8620  177.7050  145.6970 C   0  0  1  0  0  0  0  0  0  0  0  0
  185.3240  178.3860  145.5680 C   0  0  0  0  0  0  0  0  0  0  0  0
  187.3900  177.9050  144.4530 N   0  0  0  0  0  0  0  0  0  0  0  0
  184.9700  178.8220  139.6000 C   0  0  0  0  0  2  0  0  0  0  0  0
  188.0920  177.5470  147.9790 C   0  0  0  0  0  3  0  0  0  0  0  0
  185.4390  178.4940  143.1170 C   0  0  0  0  0  0  0  0  0  0  0  0
  187.3340  178.2600  139.8990 C   0  0  0  0  0  0  0  0  0  0  0  0
  183.6980  178.9960  141.7770 C   0  0  0  0  0  0  0  0  0  0  0  0
  184.8210  178.7690  140.9850 C   0  0  0  0  0  0  0  0  0  0  0  0
  186.2410  178.5610  139.0620 C   0  0  0  0  0  3  0  0  0  0  0  0
  183.3390  178.9540  144.2580 C   0  0  0  0  0  3  0  0  0  0  0  0
  191.4680  176.7920  146.1780 C   0  0  0  0  0  1  0  0  0  0  0  0
  185.8890  178.4630  141.8100 C   0  0  0  0  0  0  0  0  0  0  0  0
  184.0970  178.8280  143.0910 C   0  0  0  0  0  0  0  0  0  0  0  0
  187.1570  178.2050  141.2970 C   0  0  0  0  0  3  0  0  0  0  0  0
  182.4010  179.3300  141.3680 O   0  0  0  0  0  0  0  0  0  0  0  0
  181.4920  177.4980  140.0820 C   0  0  0  0  0  2  0  0  0  0  0  0
  179.2030  177.9680  140.3640 C   0  0  0  0  0  2  0  0  0  0  0  0
  180.1560  177.1780  139.5820 N   0  0  2  0  0  0  0  0  0  0  0  0
  181.3430  178.3820  141.2970 C   0  0  2  0  0  3  0  0  0  0  0  0
  179.9680  179.0130  141.1520 C   0  0  1  0  0  3  0  0  0  0  0  0
  178.9560  180.3470  139.4460 F   0  0  0  0  0  0  0  0  0  0  0  0
  179.6550  181.3820  141.3060 F   0  0  0  0  0  0  0  0  0  0  0  0
  181.1630  180.6240  139.8090 F   0  0  0  0  0  0  0  0  0  0  0  0
  179.9440  180.3660  140.4150 C   0  0  0  0  0  0  0  0  0  0  0  0
  180.8720  174.9040  139.1060 C   0  0  0  0  0  2  0  0  0  0  0  0
  179.4500  175.0590  138.6200 C   0  0  0  0  0  2  0  0  0  0  0  0
  179.9020  175.7750  139.8810 C   0  0  0  0  0  3  0  0  0  0  0  0
  188.6120  178.0140  139.3060 N   0  0  0  0  0  2  0  0  0  0  0  0
  188.9270  178.2890  137.9120 C   0  0  0  0  0  2  0  0  0  0  0  0
  189.4330  177.0260  137.2340 C   0  0  1  0  0  3  0  0  0  0  0  0
  190.9510  177.0120  137.2370 C   0  0  0  0  0  2  0  0  0  0  0  0
  191.4650  176.0910  138.3230 C   0  0  0  0  0  1  0  0  0  0  0  0
  188.9050  175.8060  137.9730 C   0  0  0  0  0  2  0  0  0  0  0  0
  188.3900  174.5470  136.8180 S   0  0  0  0  0  0  0  0  0  0  0  0
  188.6880  175.0120  135.4200 O   0  0  0  0  0  0  0  0  0  0  0  0
  189.1350  173.2710  137.0910 O   0  0  0  0  0  0  0  0  0  0  0  0
  186.1980  172.9230  136.9110 C   0  0  0  0  0  2  0  0  0  0  0  0
  186.6900  174.2690  136.9850 N   0  0  0  0  0  0  0  0  0  0  0  0
  184.0180  173.7390  137.5970 C   0  0  0  0  0  3  0  0  0  0  0  0
  185.6250  176.0510  135.6900 C   0  0  0  0  0  1  0  0  0  0  0  0
  184.4130  175.0130  137.5680 C   0  0  0  0  0  3  0  0  0  0  0  0
  184.9250  172.6560  137.1920 C   0  0  0  0  0  3  0  0  0  0  0  0
  185.7720  175.4130  137.0610 C   0  0  0  0  0  0  0  0  0  0  0  0
  1  3  2  0  0  0  0
  2 11  1  0  0  0  0
  2  7  1  1  0  0  0
  2  9  1  0  0  0  0
  3 13  1  0  0  0  0
  4  6  1  0  0  0  0
  5 11  1  0  0  0  0
  5 10  1  0  0  0  0
  6 13  2  0  0  0  0
  7  4  2  0  0  0  0
  8 10  2  0  0  0  0
  9  7  1  1  0  0  0
  9  3  1  0  0  0  0
 10  1  1  0  0  0  0
 11  9  1  0  0  0  0
 12 17  1  0  0  0  0
 14  5  2  0  0  0  0
 15 23  1  0  0  0  0
 16 22  1  0  0  0  0
 17 16  2  0  0  0  0
 17 21  1  0  0  0  0
 18 12  1  0  0  0  0
 18 15  2  0  0  0  0
 19  8  1  0  0  0  0
 20  4  1  0  0  0  0
 21 14  1  0  0  0  0
 22 14  1  0  0  0  0
 22 19  2  0  0  0  0
 23 21  2  0  0  0  0
 24 16  1  0  0  0  0
 25 28  1  0  0  0  0
 26 29  1  0  0  0  0
 27 36  1  1  0  0  0
 27 25  1  0  0  0  0
 27 26  1  0  0  0  0
 28 24  1  6  0  0  0
 29 33  1  6  0  0  0
 29 28  1  0  0  0  0
 30 33  1  0  0  0  0
 32 33  1  0  0  0  0
 33 31  1  0  0  0  0
 34 36  1  0  0  0  0
 35 34  1  0  0  0  0
 35 36  1  0  0  0  0
 37 15  1  0  0  0  0
 38 37  1  0  0  0  0
 39 40  1  1  0  0  0
 39 38  1  0  0  0  0
 39 42  1  0  0  0  0
 40 41  1  0  0  0  0
 43 47  1  0  0  0  0
 43 45  2  0  0  0  0
 43 42  1  0  0  0  0
 44 43  2  0  0  0  0
 46 47  1  0  0  0  0
 46 51  1  0  0  0  0
 47 52  1  0  0  0  0
 49 52  1  0  0  0  0
 50 48  1  0  0  0  0
 51 48  2  0  0  0  0
 52 50  2  0  0  0  0
M  END
>  <MODEL>
3

>  <REMARK>
 VINA RESULT:      -9.5      1.716      2.466
  Name = 
  11 active torsions:
  status: ('A' for Active; 'I' for Inactive)
    1  A    between atoms: C_2  and  C_49
    2  A    between atoms: N_8  and  S_23
    3  A    between atoms: O_13  and  C_32
    4  A    between atoms: O_13  and  C_37
    5  A    between atoms: C_20  and  C_49
    6  A    between atoms: C_20  and  N_51
    7  A    between atoms: S_23  and  C_50
    8  A    between atoms: N_27  and  C_30
    9  A    between atoms: C_34  and  C_46
   10  A    between atoms: C_36  and  N_51
   11  A    between atoms: C_49  and  C_50
                            x       y       z     vdW  Elec       q    Type
                         _______ _______ _______ _____ _____    ______ ____

>  <TORSDO>
F 11

$$$$
=
 OpenBabel11032421163D

 52 61  0  0  1  0  0  0  0  0999 V2000
  186.0690  178.1100  146.2950 N   0  0  0  0  0  0  0  0  0  0  0  0
  189.2110  177.4070  143.9530 C   0  0  1  0  0  3  0  0  0  0  0  0
  187.3660  177.7450  146.5570 C   0  0  0  0  0  0  0  0  0  0  0  0
  190.1770  177.0260  146.5360 C   0  0  0  0  0  0  0  0  0  0  0  0
  186.5830  178.1190  143.8630 C   0  0  0  0  0  0  0  0  0  0  0  0
  189.4350  177.1560  147.7670 C   0  0  0  0  0  3  0  0  0  0  0  0
  189.4630  177.2680  145.3640 C   0  0  0  0  0  0  0  0  0  0  0  0
  184.3190  178.6520  144.6950 C   0  0  0  0  0  3  0  0  0  0  0  0
  188.1340  177.5980  145.4920 C   0  0  1  0  0  0  0  0  0  0  0  0
  185.6510  178.2960  144.9720 C   0  0  0  0  0  0  0  0  0  0  0  0
  187.8510  177.7590  144.1860 N   0  0  0  0  0  0  0  0  0  0  0  0
  186.1720  178.5300  139.0050 C   0  0  0  0  0  2  0  0  0  0  0  0
  188.0280  177.5160  147.7870 C   0  0  0  0  0  3  0  0  0  0  0  0
  186.1220  178.3190  142.5620 C   0  0  0  0  0  0  0  0  0  0  0  0
  188.4600  177.9590  139.6630 C   0  0  0  0  0  0  0  0  0  0  0  0
  184.6010  178.7900  140.9670 C   0  0  0  0  0  0  0  0  0  0  0  0
  185.8230  178.5260  140.3550 C   0  0  0  0  0  0  0  0  0  0  0  0
  187.5040  178.2410  138.6670 C   0  0  0  0  0  3  0  0  0  0  0  0
  183.8850  178.8360  143.3690 C   0  0  0  0  0  3  0  0  0  0  0  0
  191.6200  176.6710  146.5210 C   0  0  0  0  0  1  0  0  0  0  0  0
  186.7560  178.2390  141.3360 C   0  0  0  0  0  0  0  0  0  0  0  0
  184.8020  178.6630  142.3300 C   0  0  0  0  0  0  0  0  0  0  0  0
  188.0820  177.9530  141.0210 C   0  0  0  0  0  3  0  0  0  0  0  0
  183.3810  179.1210  140.3630 O   0  0  0  0  0  0  0  0  0  0  0  0
  182.4630  178.5930  138.1920 C   0  0  0  0  0  2  0  0  0  0  0  0
  180.3990  177.7000  138.8860 C   0  0  0  0  0  2  0  0  0  0  0  0
  181.1360  178.1990  137.7230 N   0  0  2  0  0  0  0  0  0  0  0  0
  182.5960  178.1820  139.6390 C   0  0  2  0  0  3  0  0  0  0  0  0
  181.1660  178.0660  140.1420 C   0  0  1  0  0  3  0  0  0  0  0  0
  180.9750  180.4450  140.0200 F   0  0  0  0  0  0  0  0  0  0  0  0
  179.2070  179.2920  140.7710 F   0  0  0  0  0  0  0  0  0  0  0  0
  181.0390  179.5120  142.0700 F   0  0  0  0  0  0  0  0  0  0  0  0
  180.5880  179.3480  140.7690 C   0  0  0  0  0  0  0  0  0  0  0  0
  182.1500  177.5130  135.6230 C   0  0  0  0  0  2  0  0  0  0  0  0
  180.6500  177.3980  135.4790 C   0  0  0  0  0  2  0  0  0  0  0  0
  181.3110  177.0780  136.8090 C   0  0  0  0  0  3  0  0  0  0  0  0
  189.8080  177.6820  139.2710 N   0  0  0  0  0  2  0  0  0  0  0  0
  190.2220  177.4520  137.8940 C   0  0  0  0  0  2  0  0  0  0  0  0
  190.7500  176.0340  137.7400 C   0  0  1  0  0  3  0  0  0  0  0  0
  189.6090  175.0950  137.3910 C   0  0  0  0  0  2  0  0  0  0  0  0
  188.8360  175.6270  136.2020 C   0  0  0  0  0  1  0  0  0  0  0  0
  191.8000  176.0000  136.6400 C   0  0  0  0  0  2  0  0  0  0  0  0
  193.4400  176.0890  137.3370 S   0  0  0  0  0  0  0  0  0  0  0  0
  194.2700  177.0390  136.5220 O   0  0  0  0  0  0  0  0  0  0  0  0
  193.3640  176.5810  138.7550 O   0  0  0  0  0  0  0  0  0  0  0  0
  195.2730  174.2520  138.1850 C   0  0  0  0  0  2  0  0  0  0  0  0
  194.1660  174.5170  137.3120 N   0  0  0  0  0  0  0  0  0  0  0  0
  195.1360  171.9110  137.5600 C   0  0  0  0  0  3  0  0  0  0  0  0
  194.2800  173.9100  134.9450 C   0  0  0  0  0  1  0  0  0  0  0  0
  194.1800  172.1400  136.6570 C   0  0  0  0  0  3  0  0  0  0  0  0
  195.7520  173.0160  138.3070 C   0  0  0  0  0  3  0  0  0  0  0  0
  193.7320  173.5350  136.3110 C   0  0  0  0  0  0  0  0  0  0  0  0
  1  3  2  0  0  0  0
  2 11  1  0  0  0  0
  2  7  1  1  0  0  0
  2  9  1  0  0  0  0
  3 13  1  0  0  0  0
  4  6  1  0  0  0  0
  5 11  1  0  0  0  0
  5 10  1  0  0  0  0
  6 13  2  0  0  0  0
  7  4  2  0  0  0  0
  8 10  2  0  0  0  0
  9  7  1  1  0  0  0
  9  3  1  0  0  0  0
 10  1  1  0  0  0  0
 11  9  1  0  0  0  0
 12 17  1  0  0  0  0
 14  5  2  0  0  0  0
 15 23  1  0  0  0  0
 16 22  1  0  0  0  0
 17 16  2  0  0  0  0
 17 21  1  0  0  0  0
 18 12  1  0  0  0  0
 18 15  2  0  0  0  0
 19  8  1  0  0  0  0
 20  4  1  0  0  0  0
 21 14  1  0  0  0  0
 22 14  1  0  0  0  0
 22 19  2  0  0  0  0
 23 21  2  0  0  0  0
 24 16  1  0  0  0  0
 25 28  1  0  0  0  0
 26 29  1  0  0  0  0
 27 36  1  6  0  0  0
 27 25  1  0  0  0  0
 27 26  1  0  0  0  0
 28 29  1  0  0  0  0
 28 24  1  1  0  0  0
 29 33  1  6  0  0  0
 30 33  1  0  0  0  0
 33 31  1  0  0  0  0
 33 32  1  0  0  0  0
 34 36  1  0  0  0  0
 35 34  1  0  0  0  0
 35 36  1  0  0  0  0
 37 15  1  0  0  0  0
 38 37  1  0  0  0  0
 39 42  1  6  0  0  0
 39 38  1  0  0  0  0
 40 39  1  0  0  0  0
 41 40  1  0  0  0  0
 42 43  1  0  0  0  0
 43 45  2  0  0  0  0
 44 43  2  0  0  0  0
 46 51  1  0  0  0  0
 47 43  1  0  0  0  0
 47 46  1  0  0  0  0
 48 51  2  0  0  0  0
 49 52  1  0  0  0  0
 50 48  1  0  0  0  0
 52 50  2  0  0  0  0
 52 47  1  0  0  0  0
M  END
>  <MODEL>
4

>  <REMARK>
 VINA RESULT:      -9.5      2.492      4.214
  Name = 
  11 active torsions:
  status: ('A' for Active; 'I' for Inactive)
    1  A    between atoms: C_2  and  C_49
    2  A    between atoms: N_8  and  S_23
    3  A    between atoms: O_13  and  C_32
    4  A    between atoms: O_13  and  C_37
    5  A    between atoms: C_20  and  C_49
    6  A    between atoms: C_20  and  N_51
    7  A    between atoms: S_23  and  C_50
    8  A    between atoms: N_27  and  C_30
    9  A    between atoms: C_34  and  C_46
   10  A    between atoms: C_36  and  N_51
   11  A    between atoms: C_49  and  C_50
                            x       y       z     vdW  Elec       q    Type
                         _______ _______ _______ _____ _____    ______ ____

>  <TORSDO>
F 11

$$$$
=
 OpenBabel11032421163D

 52 61  0  0  1  0  0  0  0  0999 V2000
  190.0160  177.3110  144.0410 N   0  0  0  0  0  0  0  0  0  0  0  0
  186.3070  178.1940  142.8900 C   0  0  1  0  0  3  0  0  0  0  0  0
  188.8580  177.5640  144.7340 C   0  0  0  0  0  0  0  0  0  0  0  0
  186.1700  178.1320  145.6700 C   0  0  0  0  0  0  0  0  0  0  0  0
  188.7860  177.6400  141.9050 C   0  0  0  0  0  0  0  0  0  0  0  0
  187.2530  177.8580  146.5860 C   0  0  0  0  0  3  0  0  0  0  0  0
  186.4950  178.1060  144.3150 C   0  0  0  0  0  0  0  0  0  0  0  0
  191.1980  177.1060  141.9250 C   0  0  0  0  0  3  0  0  0  0  0  0
  187.8020  177.8300  143.9850 C   0  0  1  0  0  0  0  0  0  0  0  0
  190.0120  177.3470  142.6420 C   0  0  0  0  0  0  0  0  0  0  0  0
  187.6760  177.8820  142.6470 N   0  0  0  0  0  0  0  0  0  0  0  0
  187.7030  177.9850  137.1470 C   0  0  0  0  0  2  0  0  0  0  0  0
  188.6000  177.5720  146.1250 C   0  0  0  0  0  3  0  0  0  0  0  0
  188.8310  177.6630  140.5110 C   0  0  0  0  0  0  0  0  0  0  0  0
  185.7210  178.3320  138.5420 C   0  0  0  0  0  0  0  0  0  0  0  0
  189.7970  177.5160  138.4800 C   0  0  0  0  0  0  0  0  0  0  0  0
  188.4450  177.8050  138.3130 C   0  0  0  0  0  0  0  0  0  0  0  0
  186.3300  178.2530  137.2730 C   0  0  0  0  0  3  0  0  0  0  0  0
  191.2090  177.1470  140.5190 C   0  0  0  0  0  3  0  0  0  0  0  0
  184.7910  178.4110  146.1450 C   0  0  0  0  0  1  0  0  0  0  0  0
  187.8530  177.8920  139.5610 C   0  0  0  0  0  0  0  0  0  0  0  0
  190.0190  177.4250  139.8440 C   0  0  0  0  0  0  0  0  0  0  0  0
  186.4940  178.1540  139.7070 C   0  0  0  0  0  3  0  0  0  0  0  0
  190.7760  177.3430  137.4950 O   0  0  0  0  0  0  0  0  0  0  0  0
  189.9100  175.1470  136.9830 C   0  0  0  0  0  2  0  0  0  0  0  0
  191.7060  174.3490  135.6880 C   0  0  0  0  0  2  0  0  0  0  0  0
  190.4920  173.9410  136.3970 N   0  0  2  0  0  0  0  0  0  0  0  0
  190.6960  176.3390  136.4910 C   0  0  2  0  0  3  0  0  0  0  0  0
  192.0470  175.7720  136.0860 C   0  0  1  0  0  3  0  0  0  0  0  0
  192.5910  175.2250  138.3480 F   0  0  0  0  0  0  0  0  0  0  0  0
  194.2020  175.0160  136.8050 F   0  0  0  0  0  0  0  0  0  0  0  0
  193.5420  177.0690  137.4680 F   0  0  0  0  0  0  0  0  0  0  0  0
  193.1170  175.7780  137.1940 C   0  0  0  0  0  0  0  0  0  0  0  0
  188.1360  173.5870  135.9140 C   0  0  0  0  0  2  0  0  0  0  0  0
  188.8140  172.2380  135.9520 C   0  0  0  0  0  2  0  0  0  0  0  0
  189.5550  173.4430  135.3990 C   0  0  0  0  0  3  0  0  0  0  0  0
  184.3170  178.5950  138.6210 N   0  0  0  0  0  2  0  0  0  0  0  0
  183.3010  177.7830  137.9660 C   0  0  0  0  0  2  0  0  0  0  0  0
  182.1000  178.6430  137.6060 C   0  0  1  0  0  3  0  0  0  0  0  0
  181.6780  178.3640  136.1740 C   0  0  0  0  0  2  0  0  0  0  0  0
  182.6740  177.4410  135.5040 C   0  0  0  0  0  1  0  0  0  0  0  0
  180.9500  178.3330  138.5510 C   0  0  0  0  0  2  0  0  0  0  0  0
  180.7000  179.6780  139.6960 S   0  0  0  0  0  0  0  0  0  0  0  0
  181.6170  180.8110  139.3320 O   0  0  0  0  0  0  0  0  0  0  0  0
  179.2740  180.1470  139.6270 O   0  0  0  0  0  0  0  0  0  0  0  0
  182.4230  179.0000  141.7030 C   0  0  0  0  0  2  0  0  0  0  0  0
  181.0520  179.1440  141.3050 N   0  0  0  0  0  0  0  0  0  0  0  0
  181.6670  178.6280  143.9790 C   0  0  0  0  0  3  0  0  0  0  0  0
  179.4380  177.3580  141.7460 C   0  0  0  0  0  1  0  0  0  0  0  0
  180.3800  178.6450  143.6250 C   0  0  0  0  0  3  0  0  0  0  0  0
  182.7310  178.7460  142.9720 C   0  0  0  0  0  3  0  0  0  0  0  0
  179.9540  178.7190  142.1830 C   0  0  0  0  0  0  0  0  0  0  0  0
  1  3  2  0  0  0  0
  2  9  1  0  0  0  0
  2  7  1  6  0  0  0
  3 13  1  0  0  0  0
  4 20  1  0  0  0  0
  4  6  1  0  0  0  0
  5 10  1  0  0  0  0
  5 11  1  0  0  0  0
  7  4  2  0  0  0  0
  8 10  2  0  0  0  0
  9  7  1  6  0  0  0
  9  3  1  0  0  0  0
 10  1  1  0  0  0  0
 11  2  1  0  0  0  0
 11  9  1  0  0  0  0
 12 18  1  0  0  0  0
 12 17  1  0  0  0  0
 13  6  2  0  0  0  0
 14  5  2  0  0  0  0
 15 37  1  0  0  0  0
 15 23  1  0  0  0  0
 16 22  1  0  0  0  0
 17 16  2  0  0  0  0
 17 21  1  0  0  0  0
 18 15  2  0  0  0  0
 19  8  1  0  0  0  0
 21 23  2  0  0  0  0
 21 14  1  0  0  0  0
 22 14  1  0  0  0  0
 22 19  2  0  0  0  0
 24 16  1  0  0  0  0
 26 29  1  0  0  0  0
 26 27  1  0  0  0  0
 27 36  1  6  0  0  0
 27 25  1  0  0  0  0
 28 25  1  0  0  0  0
 28 24  1  1  0  0  0
 29 28  1  0  0  0  0
 29 33  1  1  0  0  0
 31 33  1  0  0  0  0
 33 32  1  0  0  0  0
 33 30  1  0  0  0  0
 34 35  1  0  0  0  0
 36 34  1  0  0  0  0
 36 35  1  0  0  0  0
 38 37  1  0  0  0  0
 39 40  1  6  0  0  0
 39 38  1  0  0  0  0
 39 42  1  0  0  0  0
 41 40  1  0  0  0  0
 42 43  1  0  0  0  0
 43 47  1  0  0  0  0
 44 43  2  0  0  0  0
 45 43  2  0  0  0  0
 46 51  1  0  0  0  0
 47 46  1  0  0  0  0
 47 52  1  0  0  0  0
 49 52  1  0  0  0  0
 50 48  1  0  0  0  0
 51 48  2  0  0  0  0
 52 50  2  0  0  0  0
M  END
>  <MODEL>
5

>  <REMARK>
 VINA RESULT:      -9.0      3.725      8.030
  Name = 
  11 active torsions:
  status: ('A' for Active; 'I' for Inactive)
    1  A    between atoms: C_2  and  C_49
    2  A    between atoms: N_8  and  S_23
    3  A    between atoms: O_13  and  C_32
    4  A    between atoms: O_13  and  C_37
    5  A    between atoms: C_20  and  C_49
    6  A    between atoms: C_20  and  N_51
    7  A    between atoms: S_23  and  C_50
    8  A    between atoms: N_27  and  C_30
    9  A    between atoms: C_34  and  C_46
   10  A    between atoms: C_36  and  N_51
   11  A    between atoms: C_49  and  C_50
                            x       y       z     vdW  Elec       q    Type
                         _______ _______ _______ _____ _____    ______ ____

>  <TORSDO>
F 11

$$$$
=
 OpenBabel11032421163D

 52 61  0  0  1  0  0  0  0  0999 V2000
  190.1790  177.1950  144.3750 N   0  0  0  0  0  0  0  0  0  0  0  0
  186.4160  178.2070  143.5560 C   0  0  1  0  0  3  0  0  0  0  0  0
  189.0860  177.4460  145.1670 C   0  0  0  0  0  0  0  0  0  0  0  0
  186.4950  178.0360  146.3340 C   0  0  0  0  0  0  0  0  0  0  0  0
  188.7950  177.6370  142.3580 C   0  0  0  0  0  0  0  0  0  0  0  0
  187.6380  177.7010  147.1500 C   0  0  0  0  0  3  0  0  0  0  0  0
  186.7130  178.0580  144.9570 C   0  0  0  0  0  0  0  0  0  0  0  0
  191.1870  177.0480  142.1660 C   0  0  0  0  0  3  0  0  0  0  0  0
  187.9820  177.7660  144.5140 C   0  0  1  0  0  0  0  0  0  0  0  0
  190.0670  177.2870  142.9830 C   0  0  0  0  0  0  0  0  0  0  0  0
  187.7530  177.8740  143.1930 N   0  0  0  0  0  0  0  0  0  0  0  0
  187.3530  178.1980  137.7170 C   0  0  0  0  0  2  0  0  0  0  0  0
  188.9380  177.4040  146.5740 C   0  0  0  0  0  3  0  0  0  0  0  0
  188.7310  177.7150  140.9670 C   0  0  0  0  0  0  0  0  0  0  0  0
  185.4960  178.5330  139.2770 C   0  0  0  0  0  0  0  0  0  0  0  0
  189.5320  177.6280  138.8610 C   0  0  0  0  0  0  0  0  0  0  0  0
  188.1790  177.9540  138.8120 C   0  0  0  0  0  0  0  0  0  0  0  0
  186.0020  178.4920  137.9620 C   0  0  0  0  0  3  0  0  0  0  0  0
  191.0900  177.1450  140.7670 C   0  0  0  0  0  3  0  0  0  0  0  0
  185.1640  178.3270  146.9260 C   0  0  0  0  0  1  0  0  0  0  0  0
  187.6890  178.0050  140.1060 C   0  0  0  0  0  0  0  0  0  0  0  0
  189.8580  177.4780  140.1980 C   0  0  0  0  0  0  0  0  0  0  0  0
  186.3520  178.2910  140.3690 C   0  0  0  0  0  3  0  0  0  0  0  0
  190.4270  177.4730  137.7960 O   0  0  0  0  0  0  0  0  0  0  0  0
  189.4830  175.2990  137.3280 C   0  0  0  0  0  2  0  0  0  0  0  0
  191.2020  174.4520  135.9610 C   0  0  0  0  0  2  0  0  0  0  0  0
  190.0090  174.0770  136.7230 N   0  0  2  0  0  0  0  0  0  0  0  0
  190.2780  176.4690  136.8000 C   0  0  2  0  0  3  0  0  0  0  0  0
  191.5960  175.8670  136.3390 C   0  0  1  0  0  3  0  0  0  0  0  0
  192.2200  175.3160  138.5790 F   0  0  0  0  0  0  0  0  0  0  0  0
  193.7570  175.0530  136.9710 F   0  0  0  0  0  0  0  0  0  0  0  0
  193.1850  177.1270  137.6480 F   0  0  0  0  0  0  0  0  0  0  0  0
  192.7120  175.8480  137.4000 C   0  0  0  0  0  0  0  0  0  0  0  0
  187.6260  173.9340  136.2670 C   0  0  0  0  0  2  0  0  0  0  0  0
  188.1590  172.5280  136.4150 C   0  0  0  0  0  2  0  0  0  0  0  0
  189.0180  173.6010  135.7670 C   0  0  0  0  0  3  0  0  0  0  0  0
  184.1090  178.8250  139.4760 N   0  0  0  0  0  2  0  0  0  0  0  0
  183.4900  178.9690  140.7850 C   0  0  0  0  0  2  0  0  0  0  0  0
  182.1580  178.2370  140.8150 C   0  0  1  0  0  3  0  0  0  0  0  0
  181.2190  178.9140  141.7980 C   0  0  0  0  0  2  0  0  0  0  0  0
  181.8700  179.0130  143.1620 C   0  0  0  0  0  1  0  0  0  0  0  0
  181.5420  178.2450  139.4250 C   0  0  0  0  0  2  0  0  0  0  0  0
  181.2820  176.5780  138.8440 S   0  0  0  0  0  0  0  0  0  0  0  0
  181.5630  175.6180  139.9650 O   0  0  0  0  0  0  0  0  0  0  0  0
  179.8600  176.4140  138.3880 O   0  0  0  0  0  0  0  0  0  0  0  0
  182.6700  177.3130  136.6100 C   0  0  0  0  0  2  0  0  0  0  0  0
  182.3510  176.2520  137.5220 N   0  0  0  0  0  0  0  0  0  0  0  0
  184.3340  175.8680  135.5940 C   0  0  0  0  0  3  0  0  0  0  0  0
  181.6690  174.0570  136.6820 C   0  0  0  0  0  1  0  0  0  0  0  0
  183.9870  174.8250  136.3510 C   0  0  0  0  0  3  0  0  0  0  0  0
  183.6060  177.1420  135.6810 C   0  0  0  0  0  3  0  0  0  0  0  0
  182.8020  174.8750  137.2780 C   0  0  0  0  0  0  0  0  0  0  0  0
  1  3  2  0  0  0  0
  2  9  1  0  0  0  0
  2  7  1  6  0  0  0
  3 13  1  0  0  0  0
  4 20  1  0  0  0  0
  4  6  1  0  0  0  0
  5 10  1  0  0  0  0
  5 11  1  0  0  0  0
  7  4  2  0  0  0  0
  8 10  2  0  0  0  0
  9  7  1  6  0  0  0
  9  3  1  0  0  0  0
 10  1  1  0  0  0  0
 11  2  1  0  0  0  0
 11  9  1  0  0  0  0
 12 18  1  0  0  0  0
 12 17  1  0  0  0  0
 13  6  2  0  0  0  0
 14  5  2  0  0  0  0
 15 37  1  0  0  0  0
 15 23  1  0  0  0  0
 16 22  1  0  0  0  0
 17 16  2  0  0  0  0
 17 21  1  0  0  0  0
 18 15  2  0  0  0  0
 19  8  1  0  0  0  0
 21 23  2  0  0  0  0
 21 14  1  0  0  0  0
 22 19  2  0  0  0  0
 22 14  1  0  0  0  0
 24 16  1  0  0  0  0
 26 29  1  0  0  0  0
 26 27  1  0  0  0  0
 27 36  1  6  0  0  0
 27 25  1  0  0  0  0
 28 25  1  0  0  0  0
 28 24  1  1  0  0  0
 29 28  1  0  0  0  0
 29 33  1  1  0  0  0
 31 33  1  0  0  0  0
 33 32  1  0  0  0  0
 33 30  1  0  0  0  0
 34 35  1  0  0  0  0
 36 34  1  0  0  0  0
 36 35  1  0  0  0  0
 37 38  1  0  0  0  0
 38 39  1  0  0  0  0
 39 42  1  6  0  0  0
 39 40  1  0  0  0  0
 40 41  1  0  0  0  0
 43 42  1  0  0  0  0
 43 44  2  0  0  0  0
 45 43  2  0  0  0  0
 46 47  1  0  0  0  0
 47 43  1  0  0  0  0
 48 51  2  0  0  0  0
 48 50  1  0  0  0  0
 49 52  1  0  0  0  0
 50 52  2  0  0  0  0
 51 46  1  0  0  0  0
 52 47  1  0  0  0  0
M  END
>  <MODEL>
6

>  <REMARK>
 VINA RESULT:      -9.0      3.547      7.323
  Name = 
  11 active torsions:
  status: ('A' for Active; 'I' for Inactive)
    1  A    between atoms: C_2  and  C_49
    2  A    between atoms: N_8  and  S_23
    3  A    between atoms: O_13  and  C_32
    4  A    between atoms: O_13  and  C_37
    5  A    between atoms: C_20  and  C_49
    6  A    between atoms: C_20  and  N_51
    7  A    between atoms: S_23  and  C_50
    8  A    between atoms: N_27  and  C_30
    9  A    between atoms: C_34  and  C_46
   10  A    between atoms: C_36  and  N_51
   11  A    between atoms: C_49  and  C_50
                            x       y       z     vdW  Elec       q    Type
                         _______ _______ _______ _____ _____    ______ ____

>  <TORSDO>
F 11

$$$$
=
 OpenBabel11032421163D

 52 61  0  0  1  0  0  0  0  0999 V2000
  189.7340  177.1290  144.5890 N   0  0  0  0  0  0  0  0  0  0  0  0
  186.4360  178.2180  142.6400 C   0  0  1  0  0  3  0  0  0  0  0  0
  188.4740  177.4780  145.0080 C   0  0  0  0  0  0  0  0  0  0  0  0
  185.6930  178.2480  145.3230 C   0  0  0  0  0  0  0  0  0  0  0  0
  189.0250  177.4750  142.2310 C   0  0  0  0  0  0  0  0  0  0  0  0
  186.5280  177.9300  146.4580 C   0  0  0  0  0  3  0  0  0  0  0  0
  186.3030  178.1610  144.0730 C   0  0  0  0  0  0  0  0  0  0  0  0
  191.3320  176.7850  142.7880 C   0  0  0  0  0  3  0  0  0  0  0  0
  187.6270  177.7900  144.0410 C   0  0  1  0  0  0  0  0  0  0  0  0
  190.0380  177.1240  143.2230 C   0  0  0  0  0  0  0  0  0  0  0  0
  187.8000  177.8100  142.7070 N   0  0  0  0  0  0  0  0  0  0  0  0
  189.0320  177.7490  137.3470 C   0  0  0  0  0  2  0  0  0  0  0  0
  187.9200  177.5440  146.3080 C   0  0  0  0  0  3  0  0  0  0  0  0
  189.3740  177.4530  140.8810 C   0  0  0  0  0  0  0  0  0  0  0  0
  186.8230  178.2660  138.2680 C   0  0  0  0  0  0  0  0  0  0  0  0
  190.7470  177.1830  139.1140 C   0  0  0  0  0  0  0  0  0  0  0  0
  189.4880  177.5550  138.6500 C   0  0  0  0  0  0  0  0  0  0  0  0
  187.6870  178.1100  137.1650 C   0  0  0  0  0  3  0  0  0  0  0  0
  191.6520  176.7830  141.4180 C   0  0  0  0  0  3  0  0  0  0  0  0
  184.2660  178.6300  145.4790 C   0  0  0  0  0  1  0  0  0  0  0  0
  188.6460  177.7180  139.7370 C   0  0  0  0  0  0  0  0  0  0  0  0
  190.6600  177.1190  140.4940 C   0  0  0  0  0  0  0  0  0  0  0  0
  187.3090  178.0720  139.5770 C   0  0  0  0  0  3  0  0  0  0  0  0
  191.9030  176.9180  138.3700 O   0  0  0  0  0  0  0  0  0  0  0  0
  194.0500  175.8190  138.5080 C   0  0  0  0  0  2  0  0  0  0  0  0
  193.6430  174.0540  137.0050 C   0  0  0  0  0  2  0  0  0  0  0  0
  194.6980  174.7630  137.7320 N   0  0  2  0  0  0  0  0  0  0  0  0
  192.5550  175.6540  138.3760 C   0  0  2  0  0  3  0  0  0  0  0  0
  192.3630  174.8630  137.0920 C   0  0  1  0  0  3  0  0  0  0  0  0
  193.1150  176.7320  135.8060 F   0  0  0  0  0  0  0  0  0  0  0  0
  192.3710  174.9320  134.6990 F   0  0  0  0  0  0  0  0  0  0  0  0
  190.9090  176.2700  135.7770 F   0  0  0  0  0  0  0  0  0  0  0  0
  192.1780  175.7140  135.8220 C   0  0  0  0  0  0  0  0  0  0  0  0
  196.3830  174.5020  139.4640 C   0  0  0  0  0  2  0  0  0  0  0  0
  196.7370  173.5780  138.3230 C   0  0  0  0  0  2  0  0  0  0  0  0
  195.2800  173.8210  138.6770 C   0  0  0  0  0  3  0  0  0  0  0  0
  185.4580  178.6230  138.0330 N   0  0  0  0  0  2  0  0  0  0  0  0
  184.4730  178.8060  139.0890 C   0  0  0  0  0  2  0  0  0  0  0  0
  183.1740  178.1090  138.7160 C   0  0  1  0  0  3  0  0  0  0  0  0
  182.0420  179.1210  138.6690 C   0  0  0  0  0  2  0  0  0  0  0  0
  180.7070  178.4200  138.8080 C   0  0  0  0  0  1  0  0  0  0  0  0
  183.3260  177.4430  137.3570 C   0  0  0  0  0  2  0  0  0  0  0  0
  183.0060  175.6920  137.4780 S   0  0  0  0  0  0  0  0  0  0  0  0
  182.5570  175.3700  138.8750 O   0  0  0  0  0  0  0  0  0  0  0  0
  181.9310  175.3030  136.5040 O   0  0  0  0  0  0  0  0  0  0  0  0
  185.3900  175.3700  136.1860 C   0  0  0  0  0  2  0  0  0  0  0  0
  184.4530  174.8120  137.1190 N   0  0  0  0  0  0  0  0  0  0  0  0
  186.9490  173.6080  136.7790 C   0  0  0  0  0  3  0  0  0  0  0  0
  183.7440  172.4790  136.9210 C   0  0  0  0  0  1  0  0  0  0  0  0
  186.0630  173.0000  137.5710 C   0  0  0  0  0  3  0  0  0  0  0  0
  186.5790  174.8020  136.0070 C   0  0  0  0  0  3  0  0  0  0  0  0
  184.6330  173.4610  137.6650 C   0  0  0  0  0  0  0  0  0  0  0  0
  1  3  2  0  0  0  0
  2 11  1  0  0  0  0
  2  9  1  0  0  0  0
  2  7  1  6  0  0  0
  3 13  1  0  0  0  0
  4 20  1  0  0  0  0
  4  6  1  0  0  0  0
  5 11  1  0  0  0  0
  5 10  1  0  0  0  0
  7  4  2  0  0  0  0
  8 10  2  0  0  0  0
  9  7  1  6  0  0  0
  9  3  1  0  0  0  0
 10  1  1  0  0  0  0
 11  9  1  0  0  0  0
 12 17  1  0  0  0  0
 13  6  2  0  0  0  0
 14  5  2  0  0  0  0
 15 23  1  0  0  0  0
 16 22  1  0  0  0  0
 17 16  2  0  0  0  0
 17 21  1  0  0  0  0
 18 12  1  0  0  0  0
 18 15  2  0  0  0  0
 19  8  1  0  0  0  0
 21 14  1  0  0  0  0
 22 14  1  0  0  0  0
 22 19  2  0  0  0  0
 23 21  2  0  0  0  0
 24 16  1  0  0  0  0
 26 29  1  0  0  0  0
 26 27  1  0  0  0  0
 27 25  1  0  0  0  0
 27 36  1  1  0  0  0
 28 24  1  6  0  0  0
 28 25  1  0  0  0  0
 29 33  1  6  0  0  0
 29 28  1  0  0  0  0
 30 33  1  0  0  0  0
 31 33  1  0  0  0  0
 32 33  1  0  0  0  0
 35 36  1  0  0  0  0
 35 34  1  0  0  0  0
 36 34  1  0  0  0  0
 37 15  1  0  0  0  0
 37 38  1  0  0  0  0
 39 42  1  6  0  0  0
 39 38  1  0  0  0  0
 40 39  1  0  0  0  0
 40 41  1  0  0  0  0
 42 43  1  0  0  0  0
 43 44  2  0  0  0  0
 45 43  2  0  0  0  0
 46 47  1  0  0  0  0
 47 43  1  0  0  0  0
 47 52  1  0  0  0  0
 48 50  1  0  0  0  0
 49 52  1  0  0  0  0
 50 52  2  0  0  0  0
 51 46  1  0  0  0  0
 51 48  2  0  0  0  0
M  END
>  <MODEL>
7

>  <REMARK>
 VINA RESULT:      -9.0      3.591      8.143
  Name = 
  11 active torsions:
  status: ('A' for Active; 'I' for Inactive)
    1  A    between atoms: C_2  and  C_49
    2  A    between atoms: N_8  and  S_23
    3  A    between atoms: O_13  and  C_32
    4  A    between atoms: O_13  and  C_37
    5  A    between atoms: C_20  and  C_49
    6  A    between atoms: C_20  and  N_51
    7  A    between atoms: S_23  and  C_50
    8  A    between atoms: N_27  and  C_30
    9  A    between atoms: C_34  and  C_46
   10  A    between atoms: C_36  and  N_51
   11  A    between atoms: C_49  and  C_50
                            x       y       z     vdW  Elec       q    Type
                         _______ _______ _______ _____ _____    ______ ____

>  <TORSDO>
F 11

$$$$
=
 OpenBabel11032421163D

 52 61  0  0  1  0  0  0  0  0999 V2000
  190.9230  176.5860  139.7200 N   0  0  0  0  0  0  0  0  0  0  0  0
  187.3690  177.8780  138.4730 C   0  0  1  0  0  3  0  0  0  0  0  0
  190.3980  176.8160  138.4730 C   0  0  0  0  0  0  0  0  0  0  0  0
  188.8230  177.4900  136.1300 C   0  0  0  0  0  0  0  0  0  0  0  0
  188.7710  177.3030  140.7370 C   0  0  0  0  0  0  0  0  0  0  0  0
  190.1840  177.0220  136.0220 C   0  0  0  0  0  3  0  0  0  0  0  0
  188.3150  177.5990  137.4240 C   0  0  0  0  0  0  0  0  0  0  0  0
  190.6660  176.5610  142.1380 C   0  0  0  0  0  3  0  0  0  0  0  0
  189.1490  177.2480  138.4600 C   0  0  1  0  0  0  0  0  0  0  0  0
  190.1400  176.8120  140.8570 C   0  0  0  0  0  0  0  0  0  0  0  0
  188.3090  177.5110  139.4780 N   0  0  0  0  0  0  0  0  0  0  0  0
  185.2800  178.4130  143.9790 C   0  0  0  0  0  3  0  0  0  0  0  0
  190.9790  176.6830  137.1890 C   0  0  0  0  0  3  0  0  0  0  0  0
  188.0300  177.5160  141.8990 C   0  0  0  0  0  0  0  0  0  0  0  0
  184.5390  178.8430  141.6860 C   0  0  0  0  0  0  0  0  0  0  0  0
  187.6450  177.5340  144.1200 C   0  0  0  0  0  0  0  0  0  0  0  0
  186.5030  177.9870  143.4640 C   0  0  0  0  0  0  0  0  0  0  0  0
  184.2950  178.8410  143.0740 C   0  0  0  0  0  3  0  0  0  0  0  0
  189.8870  176.7780  143.2890 C   0  0  0  0  0  3  0  0  0  0  0  0
  188.0170  177.8490  134.9350 C   0  0  0  0  0  1  0  0  0  0  0  0
  186.7430  177.9770  142.1010 C   0  0  0  0  0  0  0  0  0  0  0  0
  188.5820  177.2520  143.1410 C   0  0  2  0  0  3  0  0  0  0  0  0
  185.7810  178.4000  141.1880 C   0  0  0  0  0  3  0  0  0  0  0  0
  187.8500  177.3770  145.4960 O   0  0  0  0  0  0  0  0  0  0  0  0
  189.8460  176.4150  146.4580 C   0  0  0  0  0  2  0  0  0  0  0  0
  190.1410  177.9210  148.2440 C   0  0  0  0  0  2  0  0  0  0  0  0
  190.5660  176.6240  147.7140 N   0  0  2  0  0  0  0  0  0  0  0  0
  189.0850  177.6780  146.1340 C   0  0  2  0  0  3  0  0  0  0  0  0
  188.9250  178.3880  147.4680 C   0  0  1  0  0  3  0  0  0  0  0  0
  187.8330  178.2640  149.5910 F   0  0  0  0  0  0  0  0  0  0  0  0
  186.6050  178.8700  147.8180 F   0  0  0  0  0  0  0  0  0  0  0  0
  187.2710  176.7260  148.0420 F   0  0  0  0  0  0  0  0  0  0  0  0
  187.6350  178.0490  148.2380 C   0  0  0  0  0  0  0  0  0  0  0  0
  192.4270  175.5000  146.6270 C   0  0  0  0  0  2  0  0  0  0  0  0
  192.7500  175.6250  148.0980 C   0  0  0  0  0  2  0  0  0  0  0  0
  191.9830  176.7310  147.3930 C   0  0  0  0  0  3  0  0  0  0  0  0
  183.5090  179.2990  140.8030 N   0  0  0  0  0  2  0  0  0  0  0  0
  182.2290  178.6260  140.6320 C   0  0  0  0  0  2  0  0  0  0  0  0
  181.9290  178.4470  139.1530 C   0  0  1  0  0  3  0  0  0  0  0  0
  181.8020  179.8040  138.4840 C   0  0  0  0  0  2  0  0  0  0  0  0
  181.2350  179.6500  137.0890 C   0  0  0  0  0  1  0  0  0  0  0  0
  183.0510  177.6540  138.5000 C   0  0  0  0  0  2  0  0  0  0  0  0
  182.5000  176.0050  138.0960 S   0  0  0  0  0  0  0  0  0  0  0  0
  181.9080  175.3710  139.3220 O   0  0  0  0  0  0  0  0  0  0  0  0
  181.4620  176.0680  137.0120 O   0  0  0  0  0  0  0  0  0  0  0  0
  184.8630  175.6980  136.7620 C   0  0  0  0  0  2  0  0  0  0  0  0
  183.8460  175.0630  137.5500 N   0  0  0  0  0  0  0  0  0  0  0  0
  186.1950  173.6780  136.9490 C   0  0  0  0  0  3  0  0  0  0  0  0
  182.8790  172.9290  136.8420 C   0  0  0  0  0  1  0  0  0  0  0  0
  185.2260  173.0190  137.5890 C   0  0  0  0  0  3  0  0  0  0  0  0
  185.9840  175.0480  136.4600 C   0  0  0  0  0  3  0  0  0  0  0  0
  183.8560  173.6120  137.7830 C   0  0  0  0  0  0  0  0  0  0  0  0
  1 10  1  0  0  0  0
  2  7  1  1  0  0  0
  2 11  1  0  0  0  0
  3  1  2  0  0  0  0
  4  7  2  0  0  0  0
  5 10  2  0  0  0  0
  5 14  1  0  0  0  0
  6  4  1  0  0  0  0
  6 13  2  0  0  0  0
  8 19  2  0  0  0  0
  9  7  1  1  0  0  0
  9  2  1  0  0  0  0
  9  3  1  0  0  0  0
  9 11  1  0  0  0  0
 10  8  1  0  0  0  0
 11  5  1  0  0  0  0
 13  3  1  0  0  0  0
 14 21  2  0  0  0  0
 14 22  1  0  0  0  0
 15 18  1  0  0  0  0
 16 24  1  0  0  0  0
 17 12  1  0  0  0  0
 17 16  2  0  0  0  0
 18 12  2  0  0  0  0
 20  4  1  0  0  0  0
 21 17  1  0  0  0  0
 22 19  1  1  0  0  0
 22 16  1  0  0  0  0
 23 15  2  0  0  0  0
 23 21  1  0  0  0  0
 25 27  1  0  0  0  0
 27 36  1  6  0  0  0
 27 26  1  0  0  0  0
 28 24  1  1  0  0  0
 28 25  1  0  0  0  0
 28 29  1  0  0  0  0
 29 33  1  1  0  0  0
 29 26  1  0  0  0  0
 31 33  1  0  0  0  0
 32 33  1  0  0  0  0
 33 30  1  0  0  0  0
 34 36  1  0  0  0  0
 34 35  1  0  0  0  0
 36 35  1  0  0  0  0
 37 15  1  0  0  0  0
 38 37  1  0  0  0  0
 39 40  1  6  0  0  0
 39 38  1  0  0  0  0
 41 40  1  0  0  0  0
 42 39  1  0  0  0  0
 43 42  1  0  0  0  0
 43 44  2  0  0  0  0
 45 43  2  0  0  0  0
 46 47  1  0  0  0  0
 47 52  1  0  0  0  0
 47 43  1  0  0  0  0
 48 50  1  0  0  0  0
 49 52  1  0  0  0  0
 50 52  2  0  0  0  0
 51 46  1  0  0  0  0
 51 48  2  0  0  0  0
M  END
>  <MODEL>
8

>  <REMARK>
 VINA RESULT:      -8.8      3.433      8.761
  Name = 
  11 active torsions:
  status: ('A' for Active; 'I' for Inactive)
    1  A    between atoms: C_2  and  C_49
    2  A    between atoms: N_8  and  S_23
    3  A    between atoms: O_13  and  C_32
    4  A    between atoms: O_13  and  C_37
    5  A    between atoms: C_20  and  C_49
    6  A    between atoms: C_20  and  N_51
    7  A    between atoms: S_23  and  C_50
    8  A    between atoms: N_27  and  C_30
    9  A    between atoms: C_34  and  C_46
   10  A    between atoms: C_36  and  N_51
   11  A    between atoms: C_49  and  C_50
                            x       y       z     vdW  Elec       q    Type
                         _______ _______ _______ _____ _____    ______ ____

>  <TORSDO>
F 11

$$$$
=
 OpenBabel11032421163D

 52 61  0  0  1  0  0  0  0  0999 V2000
  189.9900  177.1330  144.2000 N   0  0  0  0  0  0  0  0  0  0  0  0
  186.2480  178.2390  143.4090 C   0  0  1  0  0  3  0  0  0  0  0  0
  188.9080  177.4050  145.0000 C   0  0  0  0  0  0  0  0  0  0  0  0
  186.3380  178.0490  146.1850 C   0  0  0  0  0  0  0  0  0  0  0  0
  188.6060  177.6210  142.1930 C   0  0  0  0  0  0  0  0  0  0  0  0
  187.4770  177.6810  146.9920 C   0  0  0  0  0  3  0  0  0  0  0  0
  186.5490  178.0740  144.8070 C   0  0  0  0  0  0  0  0  0  0  0  0
  190.9830  176.9770  141.9850 C   0  0  0  0  0  3  0  0  0  0  0  0
  187.8080  177.7550  144.3550 C   0  0  1  0  0  0  0  0  0  0  0  0
  189.8730  177.2370  142.8100 C   0  0  0  0  0  0  0  0  0  0  0  0
  187.5740  177.8770  143.0360 N   0  0  0  0  0  0  0  0  0  0  0  0
  187.1530  178.2450  137.5650 C   0  0  0  0  0  2  0  0  0  0  0  0
  188.7660  177.3570  146.4070 C   0  0  0  0  0  3  0  0  0  0  0  0
  188.5370  177.7090  140.8030 C   0  0  0  0  0  0  0  0  0  0  0  0
  185.3120  178.6140  139.1370 C   0  0  0  0  0  0  0  0  0  0  0  0
  189.3240  177.6170  138.6930 C   0  0  0  0  0  0  0  0  0  0  0  0
  187.9790  177.9750  138.6540 C   0  0  0  0  0  0  0  0  0  0  0  0
  185.8100  178.5690  137.8190 C   0  0  0  0  0  3  0  0  0  0  0  0
  190.8800  177.0850  140.5860 C   0  0  0  0  0  3  0  0  0  0  0  0
  185.0180  178.3670  146.7870 C   0  0  0  0  0  1  0  0  0  0  0  0
  187.4970  178.0290  139.9510 C   0  0  0  0  0  0  0  0  0  0  0  0
  189.6530  177.4500  140.0270 C   0  0  0  0  0  0  0  0  0  0  0  0
  186.1690  178.3450  140.2230 C   0  0  0  0  0  3  0  0  0  0  0  0
  190.2090  177.4470  137.6210 O   0  0  0  0  0  0  0  0  0  0  0  0
  189.2920  175.2470  137.2320 C   0  0  0  0  0  2  0  0  0  0  0  0
  191.0210  174.3730  135.8950 C   0  0  0  0  0  2  0  0  0  0  0  0
  189.8330  174.0100  136.6700 N   0  0  2  0  0  0  0  0  0  0  0  0
  190.0720  176.4070  136.6620 C   0  0  2  0  0  3  0  0  0  0  0  0
  191.3970  175.8050  136.2230 C   0  0  1  0  0  3  0  0  0  0  0  0
  193.7040  175.4210  136.7150 F   0  0  0  0  0  0  0  0  0  0  0  0
  192.6850  177.1270  137.7480 F   0  0  0  0  0  0  0  0  0  0  0  0
  192.2100  175.0060  138.3500 F   0  0  0  0  0  0  0  0  0  0  0  0
  192.5130  175.8370  137.2830 C   0  0  0  0  0  0  0  0  0  0  0  0
  187.4510  173.7460  136.2630 C   0  0  0  0  0  2  0  0  0  0  0  0
  188.0590  172.3690  136.3900 C   0  0  0  0  0  2  0  0  0  0  0  0
  188.8470  173.4890  135.7320 C   0  0  0  0  0  3  0  0  0  0  0  0
  183.9340  178.9370  139.3450 N   0  0  0  0  0  2  0  0  0  0  0  0
  183.2600  180.0650  138.7180 C   0  0  0  0  0  2  0  0  0  0  0  0
  181.8510  180.2030  139.2730 C   0  0  1  0  0  3  0  0  0  0  0  0
  181.2000  181.4570  138.7180 C   0  0  0  0  0  2  0  0  0  0  0  0
  181.0800  181.3630  137.2110 C   0  0  0  0  0  1  0  0  0  0  0  0
  181.0310  178.9820  138.8860 C   0  0  0  0  0  2  0  0  0  0  0  0
  180.3640  178.1890  140.3390 S   0  0  0  0  0  0  0  0  0  0  0  0
  181.3090  178.3950  141.4880 O   0  0  0  0  0  0  0  0  0  0  0  0
  179.0270  178.7860  140.6750 O   0  0  0  0  0  0  0  0  0  0  0  0
  179.3600  175.7190  140.9280 C   0  0  0  0  0  2  0  0  0  0  0  0
  180.1780  176.4940  140.0400 N   0  0  0  0  0  0  0  0  0  0  0  0
  179.5670  173.8460  139.4000 C   0  0  0  0  0  3  0  0  0  0  0  0
  182.4090  175.7130  139.4100 C   0  0  0  0  0  1  0  0  0  0  0  0
  180.4190  174.5000  138.6080 C   0  0  0  0  0  3  0  0  0  0  0  0
  179.0670  174.4540  140.6410 C   0  0  0  0  0  3  0  0  0  0  0  0
  180.9620  175.8560  138.9730 C   0  0  0  0  0  0  0  0  0  0  0  0
  1  3  2  0  0  0  0
  2  9  1  0  0  0  0
  2  7  1  6  0  0  0
  3 13  1  0  0  0  0
  4 20  1  0  0  0  0
  4  6  1  0  0  0  0
  5 10  1  0  0  0  0
  5 11  1  0  0  0  0
  7  4  2  0  0  0  0
  8 10  2  0  0  0  0
  9  7  1  6  0  0  0
  9  3  1  0  0  0  0
 10  1  1  0  0  0  0
 11  2  1  0  0  0  0
 11  9  1  0  0  0  0
 12 18  1  0  0  0  0
 12 17  1  0  0  0  0
 13  6  2  0  0  0  0
 14  5  2  0  0  0  0
 15 37  1  0  0  0  0
 15 23  1  0  0  0  0
 16 22  1  0  0  0  0
 17 16  2  0  0  0  0
 17 21  1  0  0  0  0
 18 15  2  0  0  0  0
 19  8  1  0  0  0  0
 21 23  2  0  0  0  0
 21 14  1  0  0  0  0
 22 19  2  0  0  0  0
 22 14  1  0  0  0  0
 24 16  1  0  0  0  0
 26 29  1  0  0  0  0
 26 27  1  0  0  0  0
 27 36  1  6  0  0  0
 27 25  1  0  0  0  0
 28 25  1  0  0  0  0
 28 24  1  1  0  0  0
 29 28  1  0  0  0  0
 29 33  1  1  0  0  0
 30 33  1  0  0  0  0
 33 31  1  0  0  0  0
 33 32  1  0  0  0  0
 34 35  1  0  0  0  0
 36 34  1  0  0  0  0
 36 35  1  0  0  0  0
 38 37  1  0  0  0  0
 39 38  1  6  0  0  0
 40 39  1  0  0  0  0
 41 40  1  0  0  0  0
 42 39  1  0  0  0  0
 42 43  1  0  0  0  0
 43 45  2  0  0  0  0
 43 44  2  0  0  0  0
 47 43  1  0  0  0  0
 47 46  1  0  0  0  0
 48 51  2  0  0  0  0
 50 52  2  0  0  0  0
 50 48  1  0  0  0  0
 51 46  1  0  0  0  0
 52 49  1  0  0  0  0
 52 47  1  0  0  0  0
M  END
>  <MODEL>
9

>  <REMARK>
 VINA RESULT:      -8.8      3.548      7.656
  Name = 
  11 active torsions:
  status: ('A' for Active; 'I' for Inactive)
    1  A    between atoms: C_2  and  C_49
    2  A    between atoms: N_8  and  S_23
    3  A    between atoms: O_13  and  C_32
    4  A    between atoms: O_13  and  C_37
    5  A    between atoms: C_20  and  C_49
    6  A    between atoms: C_20  and  N_51
    7  A    between atoms: S_23  and  C_50
    8  A    between atoms: N_27  and  C_30
    9  A    between atoms: C_34  and  C_46
   10  A    between atoms: C_36  and  N_51
   11  A    between atoms: C_49  and  C_50
                            x       y       z     vdW  Elec       q    Type
                         _______ _______ _______ _____ _____    ______ ____

>  <TORSDO>
F 11

$$$$
