=
 OpenBabel11032419543D

 41 44  0  0  1  0  0  0  0  0999 V2000
  187.5220  177.3520  142.9510 C   0  0  1  0  0  3  0  0  0  0  0  0
  186.3340  177.9900  143.6180 C   0  0  0  0  0  0  0  0  0  0  0  0
  184.2540  179.5780  144.6870 C   0  0  0  0  0  2  0  0  0  0  0  0
  185.3530  179.0290  145.5860 C   0  0  0  0  0  2  0  0  0  0  0  0
  186.4520  178.4690  144.8160 N   0  0  0  0  0  0  0  0  0  0  0  0
  183.8460  178.4720  143.7260 C   0  0  0  0  0  2  0  0  0  0  0  0
  185.0330  178.0760  142.8460 C   0  0  1  0  0  3  0  0  0  0  0  0
  185.1790  179.0660  141.7010 C   0  0  0  0  0  2  0  0  0  0  0  0
  184.3670  180.2110  139.2600 O   0  0  0  0  0  0  0  0  0  0  0  0
  185.1740  178.3620  140.4280 N   0  0  0  0  0  2  0  0  0  0  0  0
  184.8070  179.0310  139.2210 C   0  0  0  0  0  0  0  0  0  0  0  0
  183.9840  177.1360  137.8590 C   0  0  0  0  0  2  0  0  0  0  0  0
  184.4470  176.2450  136.7250 C   0  0  1  0  0  3  0  0  0  0  0  0
  184.9280  178.3170  137.9170 C   0  0  2  0  0  3  0  0  0  0  0  0
  186.2630  176.3580  136.6010 S   0  0  0  0  0  0  0  0  0  0  0  0
  186.3360  177.7860  137.7290 C   0  0  0  0  0  2  0  0  0  0  0  0
  184.0250  174.8090  136.9910 C   0  0  0  0  0  2  0  0  0  0  0  0
  185.1270  172.9170  137.7890 C   0  0  0  0  0  1  0  0  0  0  0  0
  185.1300  173.8980  136.7220 N   0  0  0  0  0  2  0  0  0  0  0  0
  188.4810  178.3890  142.3710 C   0  0  0  0  0  2  0  0  0  0  0  0
  188.4540  178.3930  140.8480 C   0  0  0  0  0  2  0  0  0  0  0  0
  188.8530  177.1240  140.3450 O   0  0  0  0  0  0  0  0  0  0  0  0
  193.9000  176.2220  137.9690 N   0  0  0  0  0  2  0  0  0  0  0  0
  194.2720  175.3840  136.8270 C   0  0  2  0  0  3  0  0  0  0  0  0
  193.6160  174.0390  136.9190 C   0  0  0  0  0  3  0  0  0  0  0  0
  192.3100  173.9100  136.6840 C   0  0  0  0  0  3  0  0  0  0  0  0
  195.7120  175.2070  136.8100 N   0  0  0  0  0  1  0  0  0  0  0  0
  191.2450  177.3900  140.2980 C   0  0  0  0  0  3  0  0  0  0  0  0
  192.5790  176.5040  138.4650 C   0  0  0  0  0  0  0  0  0  0  0  0
  190.1520  176.2600  138.4600 C   0  0  0  0  0  3  0  0  0  0  0  0
  192.4830  177.1740  139.6910 C   0  0  0  0  0  3  0  0  0  0  0  0
  190.0750  176.9200  139.6960 C   0  0  0  0  0  0  0  0  0  0  0  0
  191.3860  176.0590  137.8290 C   0  0  0  0  0  0  0  0  0  0  0  0
  191.3540  175.3420  136.1820 S   0  0  0  0  0  0  0  0  0  0  0  0
  188.1990  176.5470  143.8770 O   0  0  0  0  0  0  0  0  0  0  0  0
  189.5640  176.7420  143.6220 C   0  0  0  0  0  2  0  0  0  0  0  0
  190.2900  177.1850  144.8850 C   0  0  0  0  0  2  0  0  0  0  0  0
  189.3850  177.0530  146.1040 C   0  0  0  0  0  2  0  0  0  0  0  0
  190.2030  176.7760  147.3580 C   0  0  0  0  0  2  0  0  0  0  0  0
  191.5950  176.3540  147.0170 C   0  0  0  0  0  3  0  0  0  0  0  0
  192.4510  176.1550  147.9470 N   0  0  0  0  0  2  0  0  0  0  0  0
  1 20  1  1  0  0  0
  1  2  1  0  0  0  0
  1 35  1  0  0  0  0
  2  5  2  0  0  0  0
  3  4  1  0  0  0  0
  5  4  1  0  0  0  0
  6  3  1  0  0  0  0
  7  8  1  6  0  0  0
  7  2  1  0  0  0  0
  7  6  1  0  0  0  0
 10  8  1  0  0  0  0
 11  9  2  0  0  0  0
 11 10  1  0  0  0  0
 12 14  1  0  0  0  0
 13 17  1  1  0  0  0
 13 12  1  0  0  0  0
 14 11  1  1  0  0  0
 15 13  1  0  0  0  0
 15 16  1  0  0  0  0
 16 14  1  0  0  0  0
 19 17  1  0  0  0  0
 19 18  1  0  0  0  0
 21 20  1  0  0  0  0
 22 21  1  0  0  0  0
 23 29  1  0  0  0  0
 24 27  1  1  0  0  0
 24 25  1  0  0  0  0
 24 23  1  0  0  0  0
 26 25  2  0  0  0  0
 29 31  1  0  0  0  0
 30 32  2  0  0  0  0
 31 28  2  0  0  0  0
 32 28  1  0  0  0  0
 32 22  1  0  0  0  0
 33 30  1  0  0  0  0
 33 29  2  0  0  0  0
 34 26  1  0  0  0  0
 34 33  1  0  0  0  0
 36 35  1  0  0  0  0
 36 37  1  0  0  0  0
 37 38  1  0  0  0  0
 38 39  1  0  0  0  0
 40 39  1  0  0  0  0
 40 41  2  0  0  0  0
M  END
>  <MODEL>
1

>  <REMARK>
 VINA RESULT:      -7.6      0.000      0.000
  Name = 
  16 active torsions:
  status: ('A' for Active; 'I' for Inactive)
    1  A    between atoms: O_2  and  C_32
    2  A    between atoms: O_2  and  C_39
    3  A    between atoms: C_7  and  C_9
    4  A    between atoms: C_8  and  C_12
    5  A    between atoms: C_8  and  C_39
    6  A    between atoms: C_9  and  N_14
    7  A    between atoms: C_10  and  C_39
    8  A    between atoms: C_12  and  O_40
    9  A    between atoms: C_13  and  C_17
   10  A    between atoms: C_16  and  C_38
   11  A    between atoms: C_17  and  C_33
   12  A    between atoms: C_24  and  C_32
   13  A    between atoms: C_24  and  C_33
   14  A    between atoms: N_27  and  C_34
   15  A    between atoms: C_29  and  O_40
   16  A    between atoms: C_34  and  C_37
                            x       y       z     vdW  Elec       q    Type
                         _______ _______ _______ _____ _____    ______ ____

>  <TORSDO>
F 16

$$$$
=
 OpenBabel11032419543D

 41 44  0  0  1  0  0  0  0  0999 V2000
  186.6700  177.9820  143.8250 C   0  0  1  0  0  3  0  0  0  0  0  0
  187.9820  177.4660  143.2990 C   0  0  0  0  0  0  0  0  0  0  0  0
  190.2180  176.4190  141.9240 C   0  0  0  0  0  2  0  0  0  0  0  0
  189.5400  175.6190  143.0270 C   0  0  0  0  0  2  0  0  0  0  0  0
  188.2710  176.2090  143.4210 N   0  0  0  0  0  0  0  0  0  0  0  0
  190.3170  177.8630  142.3930 C   0  0  0  0  0  2  0  0  0  0  0  0
  188.9170  178.4410  142.6140 C   0  0  1  0  0  3  0  0  0  0  0  0
  188.3230  178.8750  141.2830 C   0  0  0  0  0  2  0  0  0  0  0  0
  188.7500  179.0960  138.5080 O   0  0  0  0  0  0  0  0  0  0  0  0
  188.2950  177.7520  140.3590 N   0  0  0  0  0  2  0  0  0  0  0  0
  188.5830  177.9360  138.9720 C   0  0  0  0  0  0  0  0  0  0  0  0
  190.0020  176.0550  138.2160 C   0  0  0  0  0  2  0  0  0  0  0  0
  190.1690  175.1480  137.0140 C   0  0  1  0  0  3  0  0  0  0  0  0
  188.6650  176.7490  138.0730 C   0  0  2  0  0  3  0  0  0  0  0  0
  189.3480  175.9230  135.5820 S   0  0  0  0  0  0  0  0  0  0  0  0
  188.5210  177.1680  136.6220 C   0  0  0  0  0  2  0  0  0  0  0  0
  191.6470  174.9400  136.7250 C   0  0  0  0  0  2  0  0  0  0  0  0
  193.7630  175.9040  136.5790 C   0  0  0  0  0  1  0  0  0  0  0  0
  192.3820  176.1820  136.9220 N   0  0  0  0  0  2  0  0  0  0  0  0
  185.5310  177.7780  142.8270 C   0  0  0  0  0  2  0  0  0  0  0  0
  184.4850  178.8790  142.9320 C   0  0  0  0  0  2  0  0  0  0  0  0
  183.4700  178.6900  141.9540 O   0  0  0  0  0  0  0  0  0  0  0  0
  184.8830  177.1960  136.6910 N   0  0  0  0  0  2  0  0  0  0  0  0
  184.5860  175.9720  135.9430 C   0  0  2  0  0  3  0  0  0  0  0  0
  184.8230  174.7590  136.7920 C   0  0  0  0  0  3  0  0  0  0  0  0
  183.9790  174.4510  137.7770 C   0  0  0  0  0  3  0  0  0  0  0  0
  185.4400  175.9050  134.7730 N   0  0  0  0  0  1  0  0  0  0  0  0
  184.6550  179.0740  139.8930 C   0  0  0  0  0  3  0  0  0  0  0  0
  184.4020  177.5730  137.9940 C   0  0  0  0  0  0  0  0  0  0  0  0
  183.1520  177.1850  140.0520 C   0  0  0  0  0  3  0  0  0  0  0  0
  184.9810  178.7020  138.5890 C   0  0  0  0  0  3  0  0  0  0  0  0
  183.7520  178.3100  140.6380 C   0  0  0  0  0  0  0  0  0  0  0  0
  183.4530  176.8150  138.7350 C   0  0  0  0  0  0  0  0  0  0  0  0
  182.5140  175.4520  138.0350 S   0  0  0  0  0  0  0  0  0  0  0  0
  186.3650  177.3360  145.0300 O   0  0  0  0  0  0  0  0  0  0  0  0
  186.7720  178.2150  146.0440 C   0  0  0  0  0  2  0  0  0  0  0  0
  187.6870  177.5090  147.0350 C   0  0  0  0  0  2  0  0  0  0  0  0
  189.1480  177.6820  146.6380 C   0  0  0  0  0  2  0  0  0  0  0  0
  190.0190  176.6270  147.3070 C   0  0  0  0  0  2  0  0  0  0  0  0
  191.4240  176.6830  146.8030 C   0  0  0  0  0  3  0  0  0  0  0  0
  191.6860  177.2630  145.6920 N   0  0  0  0  0  2  0  0  0  0  0  0
  1 20  1  6  0  0  0
  1 35  1  0  0  0  0
  2  5  2  0  0  0  0
  2  1  1  0  0  0  0
  3  6  1  0  0  0  0
  3  4  1  0  0  0  0
  4  5  1  0  0  0  0
  6  7  1  0  0  0  0
  7  8  1  6  0  0  0
  7  2  1  0  0  0  0
  9 11  2  0  0  0  0
 10  8  1  0  0  0  0
 11 10  1  0  0  0  0
 13 17  1  6  0  0  0
 13 12  1  0  0  0  0
 14 12  1  0  0  0  0
 14 11  1  1  0  0  0
 15 16  1  0  0  0  0
 15 13  1  0  0  0  0
 16 14  1  0  0  0  0
 17 19  1  0  0  0  0
 18 19  1  0  0  0  0
 20 21  1  0  0  0  0
 22 21  1  0  0  0  0
 23 29  1  0  0  0  0
 24 27  1  6  0  0  0
 24 23  1  0  0  0  0
 24 25  1  0  0  0  0
 25 26  2  0  0  0  0
 26 34  1  0  0  0  0
 28 32  1  0  0  0  0
 29 31  1  0  0  0  0
 29 33  2  0  0  0  0
 30 32  2  0  0  0  0
 31 28  2  0  0  0  0
 32 22  1  0  0  0  0
 33 30  1  0  0  0  0
 34 33  1  0  0  0  0
 35 36  1  0  0  0  0
 36 37  1  0  0  0  0
 38 37  1  0  0  0  0
 38 39  1  0  0  0  0
 40 39  1  0  0  0  0
 41 40  2  0  0  0  0
M  END
>  <MODEL>
2

>  <REMARK>
 VINA RESULT:      -7.2      1.900      6.016
  Name = 
  16 active torsions:
  status: ('A' for Active; 'I' for Inactive)
    1  A    between atoms: O_2  and  C_32
    2  A    between atoms: O_2  and  C_39
    3  A    between atoms: C_7  and  C_9
    4  A    between atoms: C_8  and  C_12
    5  A    between atoms: C_8  and  C_39
    6  A    between atoms: C_9  and  N_14
    7  A    between atoms: C_10  and  C_39
    8  A    between atoms: C_12  and  O_40
    9  A    between atoms: C_13  and  C_17
   10  A    between atoms: C_16  and  C_38
   11  A    between atoms: C_17  and  C_33
   12  A    between atoms: C_24  and  C_32
   13  A    between atoms: C_24  and  C_33
   14  A    between atoms: N_27  and  C_34
   15  A    between atoms: C_29  and  O_40
   16  A    between atoms: C_34  and  C_37
                            x       y       z     vdW  Elec       q    Type
                         _______ _______ _______ _____ _____    ______ ____

>  <TORSDO>
F 16

$$$$
=
 OpenBabel11032419543D

 41 44  0  0  1  0  0  0  0  0999 V2000
  189.0940  177.8740  141.3250 C   0  0  1  0  0  3  0  0  0  0  0  0
  188.5910  177.6850  139.9190 C   0  0  0  0  0  0  0  0  0  0  0  0
  187.9180  177.6810  137.1750 C   0  0  0  0  0  2  0  0  0  0  0  0
  186.9190  178.1590  138.2190 C   0  0  0  0  0  2  0  0  0  0  0  0
  187.5400  178.3290  139.5220 N   0  0  0  0  0  0  0  0  0  0  0  0
  188.5900  176.4290  137.7160 C   0  0  0  0  0  2  0  0  0  0  0  0
  189.3580  176.7570  138.9990 C   0  0  1  0  0  3  0  0  0  0  0  0
  190.7030  177.3740  138.6510 C   0  0  0  0  0  2  0  0  0  0  0  0
  193.5060  177.1060  138.7060 O   0  0  0  0  0  0  0  0  0  0  0  0
  191.4560  176.4750  137.7910 N   0  0  0  0  0  2  0  0  0  0  0  0
  192.8730  176.3490  137.9220 C   0  0  0  0  0  0  0  0  0  0  0  0
  194.4850  174.4730  137.9860 C   0  0  0  0  0  2  0  0  0  0  0  0
  195.4750  173.7720  137.0790 C   0  0  1  0  0  3  0  0  0  0  0  0
  193.6010  175.3320  137.1090 C   0  0  2  0  0  3  0  0  0  0  0  0
  195.8550  174.8710  135.6740 S   0  0  0  0  0  0  0  0  0  0  0  0
  194.4920  176.0080  136.0840 C   0  0  0  0  0  2  0  0  0  0  0  0
  196.7430  173.4450  137.8500 C   0  0  0  0  0  2  0  0  0  0  0  0
  198.7740  174.5280  138.2180 C   0  0  0  0  0  1  0  0  0  0  0  0
  197.3400  174.6620  138.3840 N   0  0  0  0  0  2  0  0  0  0  0  0
  188.0580  178.5530  142.2190 C   0  0  0  0  0  2  0  0  0  0  0  0
  187.1860  177.5370  142.9430 C   0  0  0  0  0  2  0  0  0  0  0  0
  186.1730  178.2000  143.6900 O   0  0  0  0  0  0  0  0  0  0  0  0
  180.9120  179.1650  141.8670 N   0  0  0  0  0  2  0  0  0  0  0  0
  180.3720  179.1860  140.5050 C   0  0  2  0  0  3  0  0  0  0  0  0
  181.2720  179.9560  139.5880 C   0  0  0  0  0  3  0  0  0  0  0  0
  182.4370  179.4400  139.1970 C   0  0  0  0  0  3  0  0  0  0  0  0
  179.0630  179.8090  140.5180 N   0  0  0  0  0  1  0  0  0  0  0  0
  183.8820  178.8320  144.0810 C   0  0  0  0  0  3  0  0  0  0  0  0
  182.2410  178.8020  142.2840 C   0  0  0  0  0  0  0  0  0  0  0  0
  184.5430  178.1110  141.8690 C   0  0  0  0  0  3  0  0  0  0  0  0
  182.5840  179.0500  143.6190 C   0  0  0  0  0  3  0  0  0  0  0  0
  184.8730  178.3780  143.2060 C   0  0  0  0  0  0  0  0  0  0  0  0
  183.2370  178.3020  141.3990 C   0  0  0  0  0  0  0  0  0  0  0  0
  182.8910  177.7840  139.7140 S   0  0  0  0  0  0  0  0  0  0  0  0
  189.4430  176.6300  141.8660 O   0  0  0  0  0  0  0  0  0  0  0  0
  190.7960  176.7350  142.2180 C   0  0  0  0  0  2  0  0  0  0  0  0
  191.0750  175.9960  143.5190 C   0  0  0  0  0  2  0  0  0  0  0  0
  190.3940  176.6920  144.6920 C   0  0  0  0  0  2  0  0  0  0  0  0
  191.4250  177.2390  145.6690 C   0  0  0  0  0  2  0  0  0  0  0  0
  191.7390  176.2470  146.7410 C   0  0  0  0  0  3  0  0  0  0  0  0
  192.1980  176.6430  147.8680 N   0  0  0  0  0  2  0  0  0  0  0  0
  1 35  1  0  0  0  0
  1 20  1  1  0  0  0
  2  1  1  0  0  0  0
  3  6  1  0  0  0  0
  3  4  1  0  0  0  0
  4  5  1  0  0  0  0
  5  2  2  0  0  0  0
  6  7  1  0  0  0  0
  7  8  1  6  0  0  0
  7  2  1  0  0  0  0
 10 11  1  0  0  0  0
 10  8  1  0  0  0  0
 11  9  2  0  0  0  0
 13 17  1  1  0  0  0
 13 12  1  0  0  0  0
 14 11  1  1  0  0  0
 14 12  1  0  0  0  0
 15 16  1  0  0  0  0
 15 13  1  0  0  0  0
 16 14  1  0  0  0  0
 17 19  1  0  0  0  0
 18 19  1  0  0  0  0
 20 21  1  0  0  0  0
 21 22  1  0  0  0  0
 23 29  1  0  0  0  0
 24 27  1  1  0  0  0
 24 23  1  0  0  0  0
 25 24  1  0  0  0  0
 26 25  2  0  0  0  0
 26 34  1  0  0  0  0
 29 31  2  0  0  0  0
 30 32  1  0  0  0  0
 31 28  1  0  0  0  0
 32 22  1  0  0  0  0
 32 28  2  0  0  0  0
 33 30  2  0  0  0  0
 33 29  1  0  0  0  0
 34 33  1  0  0  0  0
 35 36  1  0  0  0  0
 36 37  1  0  0  0  0
 37 38  1  0  0  0  0
 38 39  1  0  0  0  0
 39 40  1  0  0  0  0
 40 41  2  0  0  0  0
M  END
>  <MODEL>
3

>  <REMARK>
 VINA RESULT:      -7.1      2.585      8.868
  Name = 
  16 active torsions:
  status: ('A' for Active; 'I' for Inactive)
    1  A    between atoms: O_2  and  C_32
    2  A    between atoms: O_2  and  C_39
    3  A    between atoms: C_7  and  C_9
    4  A    between atoms: C_8  and  C_12
    5  A    between atoms: C_8  and  C_39
    6  A    between atoms: C_9  and  N_14
    7  A    between atoms: C_10  and  C_39
    8  A    between atoms: C_12  and  O_40
    9  A    between atoms: C_13  and  C_17
   10  A    between atoms: C_16  and  C_38
   11  A    between atoms: C_17  and  C_33
   12  A    between atoms: C_24  and  C_32
   13  A    between atoms: C_24  and  C_33
   14  A    between atoms: N_27  and  C_34
   15  A    between atoms: C_29  and  O_40
   16  A    between atoms: C_34  and  C_37
                            x       y       z     vdW  Elec       q    Type
                         _______ _______ _______ _____ _____    ______ ____

>  <TORSDO>
F 16

$$$$
=
 OpenBabel11032419543D

 41 44  0  0  1  0  0  0  0  0999 V2000
  187.0120  177.9240  143.8630 C   0  0  1  0  0  3  0  0  0  0  0  0
  188.2940  177.4010  143.2750 C   0  0  0  0  0  0  0  0  0  0  0  0
  190.4520  176.3190  141.8050 C   0  0  0  0  0  2  0  0  0  0  0  0
  189.8610  175.5640  142.9880 C   0  0  0  0  0  2  0  0  0  0  0  0
  188.6120  176.1550  143.4370 N   0  0  0  0  0  0  0  0  0  0  0  0
  190.5570  177.7840  142.1960 C   0  0  0  0  0  2  0  0  0  0  0  0
  189.1660  178.3530  142.4830 C   0  0  1  0  0  3  0  0  0  0  0  0
  188.4770  178.7150  141.1760 C   0  0  0  0  0  2  0  0  0  0  0  0
  188.9040  179.3890  138.4760 O   0  0  0  0  0  0  0  0  0  0  0  0
  188.8390  177.7580  140.1420 N   0  0  0  0  0  2  0  0  0  0  0  0
  189.1000  178.1890  138.8050 C   0  0  0  0  0  0  0  0  0  0  0  0
  188.4680  176.2800  137.3620 C   0  0  0  0  0  2  0  0  0  0  0  0
  189.1080  175.0850  136.6840 C   0  0  1  0  0  3  0  0  0  0  0  0
  189.5850  177.2030  137.7950 C   0  0  2  0  0  3  0  0  0  0  0  0
  190.7160  174.7590  137.4800 S   0  0  0  0  0  0  0  0  0  0  0  0
  190.6890  176.3410  138.3800 C   0  0  0  0  0  2  0  0  0  0  0  0
  188.2010  173.8730  136.8100 C   0  0  0  0  0  2  0  0  0  0  0  0
  186.0820  173.1480  137.4560 C   0  0  0  0  0  1  0  0  0  0  0  0
  186.8110  174.2890  136.9400 N   0  0  0  0  0  2  0  0  0  0  0  0
  185.8430  177.8050  142.8870 C   0  0  0  0  0  2  0  0  0  0  0  0
  185.1380  179.1400  142.6860 C   0  0  0  0  0  2  0  0  0  0  0  0
  185.2320  179.5470  141.3260 O   0  0  0  0  0  0  0  0  0  0  0  0
  182.8970  176.6040  137.1040 N   0  0  0  0  0  2  0  0  0  0  0  0
  181.6290  175.8740  137.0490 C   0  0  2  0  0  3  0  0  0  0  0  0
  181.4390  175.0430  138.2820 C   0  0  0  0  0  3  0  0  0  0  0  0
  181.1400  175.6230  139.4450 C   0  0  0  0  0  3  0  0  0  0  0  0
  181.6260  175.0040  135.8880 N   0  0  0  0  0  1  0  0  0  0  0  0
  185.3180  178.5820  139.1210 C   0  0  0  0  0  3  0  0  0  0  0  0
  183.3940  177.4320  138.1720 C   0  0  0  0  0  0  0  0  0  0  0  0
  183.2620  178.4420  140.3880 C   0  0  0  0  0  3  0  0  0  0  0  0
  184.7220  177.8680  138.0810 C   0  0  0  0  0  3  0  0  0  0  0  0
  184.5980  178.8580  140.2870 C   0  0  0  0  0  0  0  0  0  0  0  0
  182.6450  177.7460  139.3410 C   0  0  0  0  0  0  0  0  0  0  0  0
  180.8910  177.3970  139.5130 S   0  0  0  0  0  0  0  0  0  0  0  0
  186.7190  177.2240  145.0410 O   0  0  0  0  0  0  0  0  0  0  0  0
  186.7110  178.1850  146.0610 C   0  0  0  0  0  2  0  0  0  0  0  0
  187.6700  177.7960  147.1770 C   0  0  0  0  0  2  0  0  0  0  0  0
  189.1120  177.8310  146.6870 C   0  0  0  0  0  2  0  0  0  0  0  0
  189.8870  176.6240  147.1990 C   0  0  0  0  0  2  0  0  0  0  0  0
  191.3160  176.6720  146.7670 C   0  0  0  0  0  3  0  0  0  0  0  0
  191.6450  177.3000  145.7000 N   0  0  0  0  0  2  0  0  0  0  0  0
  1 20  1  6  0  0  0
  1 35  1  0  0  0  0
  2  5  2  0  0  0  0
  2  1  1  0  0  0  0
  3  6  1  0  0  0  0
  3  4  1  0  0  0  0
  4  5  1  0  0  0  0
  6  7  1  0  0  0  0
  7  8  1  6  0  0  0
  7  2  1  0  0  0  0
  9 11  2  0  0  0  0
 10  8  1  0  0  0  0
 11 10  1  0  0  0  0
 12 14  1  0  0  0  0
 13 17  1  1  0  0  0
 13 12  1  0  0  0  0
 13 15  1  0  0  0  0
 14 16  1  0  0  0  0
 14 11  1  1  0  0  0
 15 16  1  0  0  0  0
 17 19  1  0  0  0  0
 19 18  1  0  0  0  0
 21 20  1  0  0  0  0
 22 21  1  0  0  0  0
 23 29  1  0  0  0  0
 24 27  1  6  0  0  0
 24 23  1  0  0  0  0
 24 25  1  0  0  0  0
 25 26  2  0  0  0  0
 26 34  1  0  0  0  0
 28 32  1  0  0  0  0
 29 33  2  0  0  0  0
 31 29  1  0  0  0  0
 31 28  2  0  0  0  0
 32 30  2  0  0  0  0
 32 22  1  0  0  0  0
 33 34  1  0  0  0  0
 33 30  1  0  0  0  0
 35 36  1  0  0  0  0
 36 37  1  0  0  0  0
 38 37  1  0  0  0  0
 38 39  1  0  0  0  0
 40 39  1  0  0  0  0
 41 40  2  0  0  0  0
M  END
>  <MODEL>
4

>  <REMARK>
 VINA RESULT:      -7.1      2.598      6.466
  Name = 
  16 active torsions:
  status: ('A' for Active; 'I' for Inactive)
    1  A    between atoms: O_2  and  C_32
    2  A    between atoms: O_2  and  C_39
    3  A    between atoms: C_7  and  C_9
    4  A    between atoms: C_8  and  C_12
    5  A    between atoms: C_8  and  C_39
    6  A    between atoms: C_9  and  N_14
    7  A    between atoms: C_10  and  C_39
    8  A    between atoms: C_12  and  O_40
    9  A    between atoms: C_13  and  C_17
   10  A    between atoms: C_16  and  C_38
   11  A    between atoms: C_17  and  C_33
   12  A    between atoms: C_24  and  C_32
   13  A    between atoms: C_24  and  C_33
   14  A    between atoms: N_27  and  C_34
   15  A    between atoms: C_29  and  O_40
   16  A    between atoms: C_34  and  C_37
                            x       y       z     vdW  Elec       q    Type
                         _______ _______ _______ _____ _____    ______ ____

>  <TORSDO>
F 16

$$$$
=
 OpenBabel11032419543D

 41 44  0  0  1  0  0  0  0  0999 V2000
  188.4310  177.1470  143.9650 C   0  0  1  0  0  3  0  0  0  0  0  0
  187.5610  177.5820  145.1140 C   0  0  0  0  0  0  0  0  0  0  0  0
  185.9880  178.8220  147.1070 C   0  0  0  0  0  2  0  0  0  0  0  0
  187.3590  178.2530  147.4420 C   0  0  0  0  0  2  0  0  0  0  0  0
  188.1050  177.9010  146.2450 N   0  0  0  0  0  0  0  0  0  0  0  0
  185.2830  177.8270  146.1990 C   0  0  0  0  0  2  0  0  0  0  0  0
  186.0640  177.6600  144.8950 C   0  0  1  0  0  3  0  0  0  0  0  0
  185.7410  178.8060  143.9490 C   0  0  0  0  0  2  0  0  0  0  0  0
  182.9990  179.3320  144.3200 O   0  0  0  0  0  0  0  0  0  0  0  0
  184.6980  178.4050  143.0180 N   0  0  0  0  0  2  0  0  0  0  0  0
  183.3340  178.7640  143.2460 C   0  0  0  0  0  0  0  0  0  0  0  0
  182.8790  178.5790  140.8210 C   0  0  0  0  0  2  0  0  0  0  0  0
  181.7110  178.6510  139.8580 C   0  0  1  0  0  3  0  0  0  0  0  0
  182.3060  178.4440  142.2140 C   0  0  2  0  0  3  0  0  0  0  0  0
  180.3230  179.4920  140.6890 S   0  0  0  0  0  0  0  0  0  0  0  0
  181.1300  179.3980  142.3190 C   0  0  0  0  0  2  0  0  0  0  0  0
  182.1180  179.4130  138.6080 C   0  0  0  0  0  2  0  0  0  0  0  0
  181.3460  177.3960  137.7300 C   0  0  0  0  0  1  0  0  0  0  0  0
  182.2490  178.5020  137.4780 N   0  0  0  0  0  2  0  0  0  0  0  0
  188.9710  178.3340  143.1720 C   0  0  0  0  0  2  0  0  0  0  0  0
  188.4790  178.3200  141.7310 C   0  0  0  0  0  2  0  0  0  0  0  0
  188.8460  177.1010  141.0960 O   0  0  0  0  0  0  0  0  0  0  0  0
  193.5720  176.5510  138.0460 N   0  0  0  0  0  2  0  0  0  0  0  0
  193.8280  175.7770  136.8290 C   0  0  2  0  0  3  0  0  0  0  0  0
  193.2510  174.3990  136.9440 C   0  0  0  0  0  3  0  0  0  0  0  0
  191.9320  174.2130  136.8740 C   0  0  0  0  0  3  0  0  0  0  0  0
  195.2590  175.6750  136.6170 N   0  0  0  0  0  1  0  0  0  0  0  0
  191.1980  177.4900  140.7510 C   0  0  0  0  0  3  0  0  0  0  0  0
  192.3160  176.7450  138.7220 C   0  0  0  0  0  0  0  0  0  0  0  0
  189.9230  176.3790  139.0210 C   0  0  0  0  0  3  0  0  0  0  0  0
  192.3530  177.3610  139.9790 C   0  0  0  0  0  3  0  0  0  0  0  0
  189.9800  176.9860  140.2850 C   0  0  0  0  0  0  0  0  0  0  0  0
  191.0710  176.2660  138.2270 C   0  0  0  0  0  0  0  0  0  0  0  0
  190.8540  175.6130  136.5670 S   0  0  0  0  0  0  0  0  0  0  0  0
  189.4970  176.3790  144.4540 O   0  0  0  0  0  0  0  0  0  0  0  0
  190.6610  177.0440  144.0450 C   0  0  0  0  0  2  0  0  0  0  0  0
  191.6770  177.1000  145.1770 C   0  0  0  0  0  2  0  0  0  0  0  0
  191.1390  176.4030  146.4210 C   0  0  0  0  0  2  0  0  0  0  0  0
  192.1720  175.4400  146.9900 C   0  0  0  0  0  2  0  0  0  0  0  0
  192.7210  175.9360  148.2880 C   0  0  0  0  0  3  0  0  0  0  0  0
  192.4370  177.1160  148.6960 N   0  0  0  0  0  2  0  0  0  0  0  0
  1 20  1  1  0  0  0
  1 35  1  0  0  0  0
  1  2  1  0  0  0  0
  2  5  2  0  0  0  0
  3  4  1  0  0  0  0
  5  4  1  0  0  0  0
  6  3  1  0  0  0  0
  7  8  1  6  0  0  0
  7  2  1  0  0  0  0
  7  6  1  0  0  0  0
 10 11  1  0  0  0  0
 10  8  1  0  0  0  0
 11  9  2  0  0  0  0
 12 14  1  0  0  0  0
 13 17  1  6  0  0  0
 13 15  1  0  0  0  0
 13 12  1  0  0  0  0
 14 16  1  0  0  0  0
 14 11  1  1  0  0  0
 15 16  1  0  0  0  0
 19 18  1  0  0  0  0
 19 17  1  0  0  0  0
 21 20  1  0  0  0  0
 22 21  1  0  0  0  0
 23 29  1  0  0  0  0
 24 27  1  1  0  0  0
 24 25  1  0  0  0  0
 24 23  1  0  0  0  0
 26 25  2  0  0  0  0
 29 31  1  0  0  0  0
 30 32  2  0  0  0  0
 31 28  2  0  0  0  0
 32 28  1  0  0  0  0
 32 22  1  0  0  0  0
 33 29  2  0  0  0  0
 33 30  1  0  0  0  0
 34 26  1  0  0  0  0
 34 33  1  0  0  0  0
 36 35  1  0  0  0  0
 36 37  1  0  0  0  0
 37 38  1  0  0  0  0
 38 39  1  0  0  0  0
 39 40  1  0  0  0  0
 40 41  2  0  0  0  0
M  END
>  <MODEL>
5

>  <REMARK>
 VINA RESULT:      -6.9      2.348      3.091
  Name = 
  16 active torsions:
  status: ('A' for Active; 'I' for Inactive)
    1  A    between atoms: O_2  and  C_32
    2  A    between atoms: O_2  and  C_39
    3  A    between atoms: C_7  and  C_9
    4  A    between atoms: C_8  and  C_12
    5  A    between atoms: C_8  and  C_39
    6  A    between atoms: C_9  and  N_14
    7  A    between atoms: C_10  and  C_39
    8  A    between atoms: C_12  and  O_40
    9  A    between atoms: C_13  and  C_17
   10  A    between atoms: C_16  and  C_38
   11  A    between atoms: C_17  and  C_33
   12  A    between atoms: C_24  and  C_32
   13  A    between atoms: C_24  and  C_33
   14  A    between atoms: N_27  and  C_34
   15  A    between atoms: C_29  and  O_40
   16  A    between atoms: C_34  and  C_37
                            x       y       z     vdW  Elec       q    Type
                         _______ _______ _______ _____ _____    ______ ____

>  <TORSDO>
F 16

$$$$
=
 OpenBabel11032419543D

 41 44  0  0  1  0  0  0  0  0999 V2000
  187.7610  176.4740  137.6420 C   0  0  1  0  0  3  0  0  0  0  0  0
  189.1930  176.2030  137.2650 C   0  0  0  0  0  0  0  0  0  0  0  0
  191.9430  176.1410  136.6160 C   0  0  0  0  0  2  0  0  0  0  0  0
  190.8850  175.9530  135.5380 C   0  0  0  0  0  2  0  0  0  0  0  0
  189.5540  176.2770  136.0240 N   0  0  0  0  0  0  0  0  0  0  0  0
  191.5090  175.3410  137.8340 C   0  0  0  0  0  2  0  0  0  0  0  0
  190.1790  175.8760  138.3680 C   0  0  1  0  0  3  0  0  0  0  0  0
  190.4240  177.1100  139.2220 C   0  0  0  0  0  2  0  0  0  0  0  0
  188.5000  177.9300  141.1070 O   0  0  0  0  0  0  0  0  0  0  0  0
  190.4510  176.7450  140.6300 N   0  0  0  0  0  2  0  0  0  0  0  0
  189.4030  177.1500  141.5120 C   0  0  0  0  0  0  0  0  0  0  0  0
  188.1480  177.1160  143.6450 C   0  0  0  0  0  2  0  0  0  0  0  0
  188.4020  176.9490  145.1290 C   0  0  1  0  0  3  0  0  0  0  0  0
  189.3960  176.6600  142.9210 C   0  0  2  0  0  3  0  0  0  0  0  0
  190.1730  177.2430  145.4530 S   0  0  0  0  0  0  0  0  0  0  0  0
  190.5910  177.2060  143.6800 C   0  0  0  0  0  2  0  0  0  0  0  0
  187.5520  177.9340  145.9130 C   0  0  0  0  0  2  0  0  0  0  0  0
  185.4830  178.9980  146.0530 C   0  0  0  0  0  1  0  0  0  0  0  0
  186.1560  177.8370  145.5050 N   0  0  0  0  0  2  0  0  0  0  0  0
  187.4460  177.9680  137.6600 C   0  0  0  0  0  2  0  0  0  0  0  0
  186.0180  178.2380  138.1140 C   0  0  0  0  0  2  0  0  0  0  0  0
  186.0160  178.8930  139.3770 O   0  0  0  0  0  0  0  0  0  0  0  0
  181.7810  178.7730  143.1170 N   0  0  0  0  0  2  0  0  0  0  0  0
  180.3330  178.8310  142.9070 C   0  0  2  0  0  3  0  0  0  0  0  0
  179.9800  179.9050  141.9230 C   0  0  0  0  0  3  0  0  0  0  0  0
  180.2360  179.7390  140.6250 C   0  0  0  0  0  3  0  0  0  0  0  0
  179.6770  179.1120  144.1700 N   0  0  0  0  0  1  0  0  0  0  0  0
  185.1930  178.8980  141.6400 C   0  0  0  0  0  3  0  0  0  0  0  0
  182.8150  178.6940  142.1180 C   0  0  0  0  0  0  0  0  0  0  0  0
  183.6230  178.6380  139.8170 C   0  0  0  0  0  3  0  0  0  0  0  0
  184.1380  178.8500  142.5510 C   0  0  0  0  0  3  0  0  0  0  0  0
  184.9410  178.8090  140.2680 C   0  0  0  0  0  0  0  0  0  0  0  0
  182.5590  178.5640  140.7250 C   0  0  0  0  0  0  0  0  0  0  0  0
  180.9350  178.1900  140.0500 S   0  0  0  0  0  0  0  0  0  0  0  0
  186.9110  175.8210  136.7400 O   0  0  0  0  0  0  0  0  0  0  0  0
  186.6280  174.5760  137.3190 C   0  0  0  0  0  2  0  0  0  0  0  0
  185.3290  174.0070  136.7670 C   0  0  0  0  0  2  0  0  0  0  0  0
  184.8990  172.7760  137.5570 C   0  0  0  0  0  2  0  0  0  0  0  0
  183.7800  172.0360  136.8390 C   0  0  0  0  0  2  0  0  0  0  0  0
  182.4590  172.6950  137.0640 C   0  0  0  0  0  3  0  0  0  0  0  0
  181.8230  173.2130  136.0800 N   0  0  0  0  0  2  0  0  0  0  0  0
  1 20  1  6  0  0  0
  2  1  1  0  0  0  0
  2  7  1  0  0  0  0
  3  6  1  0  0  0  0
  4  5  1  0  0  0  0
  4  3  1  0  0  0  0
  5  2  2  0  0  0  0
  6  7  1  0  0  0  0
  7  8  1  6  0  0  0
  8 10  1  0  0  0  0
  9 11  2  0  0  0  0
 10 11  1  0  0  0  0
 12 13  1  0  0  0  0
 13 15  1  0  0  0  0
 13 17  1  1  0  0  0
 14 11  1  6  0  0  0
 14 12  1  0  0  0  0
 14 16  1  0  0  0  0
 16 15  1  0  0  0  0
 19 17  1  0  0  0  0
 19 18  1  0  0  0  0
 20 21  1  0  0  0  0
 21 22  1  0  0  0  0
 22 32  1  0  0  0  0
 24 23  1  0  0  0  0
 24 27  1  1  0  0  0
 25 24  1  0  0  0  0
 26 25  2  0  0  0  0
 28 31  1  0  0  0  0
 29 31  2  0  0  0  0
 29 23  1  0  0  0  0
 30 32  1  0  0  0  0
 30 33  2  0  0  0  0
 32 28  2  0  0  0  0
 33 29  1  0  0  0  0
 34 26  1  0  0  0  0
 34 33  1  0  0  0  0
 35 36  1  0  0  0  0
 35  1  1  0  0  0  0
 37 36  1  0  0  0  0
 37 38  1  0  0  0  0
 39 40  1  0  0  0  0
 39 38  1  0  0  0  0
 41 40  2  0  0  0  0
M  END
>  <MODEL>
6

>  <REMARK>
 VINA RESULT:      -6.9      3.108      9.990
  Name = 
  16 active torsions:
  status: ('A' for Active; 'I' for Inactive)
    1  A    between atoms: O_2  and  C_32
    2  A    between atoms: O_2  and  C_39
    3  A    between atoms: C_7  and  C_9
    4  A    between atoms: C_8  and  C_12
    5  A    between atoms: C_8  and  C_39
    6  A    between atoms: C_9  and  N_14
    7  A    between atoms: C_10  and  C_39
    8  A    between atoms: C_12  and  O_40
    9  A    between atoms: C_13  and  C_17
   10  A    between atoms: C_16  and  C_38
   11  A    between atoms: C_17  and  C_33
   12  A    between atoms: C_24  and  C_32
   13  A    between atoms: C_24  and  C_33
   14  A    between atoms: N_27  and  C_34
   15  A    between atoms: C_29  and  O_40
   16  A    between atoms: C_34  and  C_37
                            x       y       z     vdW  Elec       q    Type
                         _______ _______ _______ _____ _____    ______ ____

>  <TORSDO>
F 16

$$$$
=
 OpenBabel11032419543D

 41 44  0  0  1  0  0  0  0  0999 V2000
  182.3720  178.0260  140.6750 C   0  0  1  0  0  3  0  0  0  0  0  0
  182.0260  176.8690  139.7780 C   0  0  0  0  0  0  0  0  0  0  0  0
  181.2540  175.0130  137.7910 C   0  0  0  0  0  2  0  0  0  0  0  0
  180.4050  175.2140  139.0380 C   0  0  0  0  0  2  0  0  0  0  0  0
  180.8260  176.3810  139.7970 N   0  0  0  0  0  0  0  0  0  0  0  0
  182.7120  174.9870  138.2230 C   0  0  0  0  0  2  0  0  0  0  0  0
  183.0970  176.3260  138.8550 C   0  0  1  0  0  3  0  0  0  0  0  0
  183.4010  177.3430  137.7660 C   0  0  0  0  0  2  0  0  0  0  0  0
  185.3070  179.2240  138.6360 O   0  0  0  0  0  0  0  0  0  0  0  0
  184.8130  177.2960  137.4190 N   0  0  0  0  0  2  0  0  0  0  0  0
  185.7300  178.2530  137.9520 C   0  0  0  0  0  0  0  0  0  0  0  0
  187.4640  176.8540  136.8760 C   0  0  0  0  0  2  0  0  0  0  0  0
  188.9460  176.5610  136.9940 C   0  0  1  0  0  3  0  0  0  0  0  0
  187.1890  178.1080  137.6760 C   0  0  2  0  0  3  0  0  0  0  0  0
  189.5160  177.1040  138.6390 S   0  0  0  0  0  0  0  0  0  0  0  0
  187.9680  178.0020  138.9740 C   0  0  0  0  0  2  0  0  0  0  0  0
  189.1940  175.0730  136.8140 C   0  0  0  0  0  2  0  0  0  0  0  0
  190.8880  173.4830  137.0030 C   0  0  0  0  0  1  0  0  0  0  0  0
  190.3020  174.6380  137.6540 N   0  0  0  0  0  2  0  0  0  0  0  0
  183.7820  177.9050  141.2500 C   0  0  0  0  0  2  0  0  0  0  0  0
  184.0210  178.9060  142.3720 C   0  0  0  0  0  2  0  0  0  0  0  0
  184.3290  178.2240  143.5830 O   0  0  0  0  0  0  0  0  0  0  0  0
  189.5080  177.5810  145.7510 N   0  0  0  0  0  2  0  0  0  0  0  0
  190.7680  177.2180  145.0990 C   0  0  2  0  0  3  0  0  0  0  0  0
  190.5690  176.0640  144.1630 C   0  0  0  0  0  3  0  0  0  0  0  0
  189.9330  176.2390  143.0030 C   0  0  0  0  0  3  0  0  0  0  0  0
  191.7410  176.8450  146.1080 N   0  0  0  0  0  1  0  0  0  0  0  0
  185.8390  178.1190  145.4560 C   0  0  0  0  0  3  0  0  0  0  0  0
  188.2350  177.8410  145.1310 C   0  0  0  0  0  0  0  0  0  0  0  0
  186.7360  177.9920  143.2130 C   0  0  0  0  0  3  0  0  0  0  0  0
  187.1260  177.9760  145.9750 C   0  0  0  0  0  3  0  0  0  0  0  0
  185.6340  178.1110  144.0730 C   0  0  0  0  0  0  0  0  0  0  0  0
  188.0350  177.8720  143.7220 C   0  0  0  0  0  0  0  0  0  0  0  0
  189.3830  177.8800  142.5330 S   0  0  0  0  0  0  0  0  0  0  0  0
  182.2550  179.2230  139.9560 O   0  0  0  0  0  0  0  0  0  0  0  0
  181.0090  179.7590  140.3110 C   0  0  0  0  0  2  0  0  0  0  0  0
  180.3370  180.4070  139.1090 C   0  0  0  0  0  2  0  0  0  0  0  0
  181.3530  180.6860  138.0070 C   0  0  0  0  0  2  0  0  0  0  0  0
  180.8030  181.6950  137.0080 C   0  0  0  0  0  2  0  0  0  0  0  0
  180.7500  183.0680  137.5950 C   0  0  0  0  0  3  0  0  0  0  0  0
  181.3630  184.0350  137.0220 N   0  0  0  0  0  2  0  0  0  0  0  0
  1 20  1  6  0  0  0
  2  5  2  0  0  0  0
  2  1  1  0  0  0  0
  3  6  1  0  0  0  0
  3  4  1  0  0  0  0
  4  5  1  0  0  0  0
  6  7  1  0  0  0  0
  7  8  1  6  0  0  0
  7  2  1  0  0  0  0
 10  8  1  0  0  0  0
 10 11  1  0  0  0  0
 11  9  2  0  0  0  0
 12 13  1  0  0  0  0
 12 14  1  0  0  0  0
 13 17  1  1  0  0  0
 13 15  1  0  0  0  0
 14 11  1  1  0  0  0
 14 16  1  0  0  0  0
 15 16  1  0  0  0  0
 17 19  1  0  0  0  0
 18 19  1  0  0  0  0
 20 21  1  0  0  0  0
 21 22  1  0  0  0  0
 22 32  1  0  0  0  0
 24 23  1  0  0  0  0
 24 27  1  1  0  0  0
 25 24  1  0  0  0  0
 26 25  2  0  0  0  0
 28 31  1  0  0  0  0
 29 23  1  0  0  0  0
 29 31  2  0  0  0  0
 30 33  2  0  0  0  0
 30 32  1  0  0  0  0
 32 28  2  0  0  0  0
 33 29  1  0  0  0  0
 34 26  1  0  0  0  0
 34 33  1  0  0  0  0
 35 36  1  0  0  0  0
 35  1  1  0  0  0  0
 37 36  1  0  0  0  0
 38 37  1  0  0  0  0
 39 40  1  0  0  0  0
 39 38  1  0  0  0  0
 41 40  2  0  0  0  0
M  END
>  <MODEL>
7

>  <REMARK>
 VINA RESULT:      -6.8      3.173      7.939
  Name = 
  16 active torsions:
  status: ('A' for Active; 'I' for Inactive)
    1  A    between atoms: O_2  and  C_32
    2  A    between atoms: O_2  and  C_39
    3  A    between atoms: C_7  and  C_9
    4  A    between atoms: C_8  and  C_12
    5  A    between atoms: C_8  and  C_39
    6  A    between atoms: C_9  and  N_14
    7  A    between atoms: C_10  and  C_39
    8  A    between atoms: C_12  and  O_40
    9  A    between atoms: C_13  and  C_17
   10  A    between atoms: C_16  and  C_38
   11  A    between atoms: C_17  and  C_33
   12  A    between atoms: C_24  and  C_32
   13  A    between atoms: C_24  and  C_33
   14  A    between atoms: N_27  and  C_34
   15  A    between atoms: C_29  and  O_40
   16  A    between atoms: C_34  and  C_37
                            x       y       z     vdW  Elec       q    Type
                         _______ _______ _______ _____ _____    ______ ____

>  <TORSDO>
F 16

$$$$
=
 OpenBabel11032419543D

 41 44  0  0  1  0  0  0  0  0999 V2000
  188.4850  177.5680  139.0070 C   0  0  1  0  0  3  0  0  0  0  0  0
  188.4580  177.5030  137.5040 C   0  0  0  0  0  0  0  0  0  0  0  0
  188.1830  176.9870  134.7390 C   0  0  0  0  0  2  0  0  0  0  0  0
  189.5380  176.8600  135.4230 C   0  0  0  0  0  2  0  0  0  0  0  0
  189.4190  176.9090  136.8710 N   0  0  0  0  0  0  0  0  0  0  0  0
  187.5120  178.2430  135.2710 C   0  0  0  0  0  2  0  0  0  0  0  0
  187.2790  178.1180  136.7780 C   0  0  1  0  0  3  0  0  0  0  0  0
  186.0280  177.2940  137.0390 C   0  0  0  0  0  2  0  0  0  0  0  0
  183.9250  176.1490  138.5220 O   0  0  0  0  0  0  0  0  0  0  0  0
  185.0930  178.0540  137.8550 N   0  0  0  0  0  2  0  0  0  0  0  0
  184.0900  177.3930  138.6280 C   0  0  0  0  0  0  0  0  0  0  0  0
  182.2070  177.3040  140.2310 C   0  0  0  0  0  2  0  0  0  0  0  0
  181.1330  178.2100  140.8000 C   0  0  1  0  0  3  0  0  0  0  0  0
  183.2250  178.1890  139.5470 C   0  0  2  0  0  3  0  0  0  0  0  0
  180.9470  179.6530  139.7010 S   0  0  0  0  0  0  0  0  0  0  0  0
  182.4630  179.2500  138.7750 C   0  0  0  0  0  2  0  0  0  0  0  0
  179.8200  177.4530  140.9030 C   0  0  0  0  0  2  0  0  0  0  0  0
  180.0470  178.2900  143.0670 C   0  0  0  0  0  1  0  0  0  0  0  0
  179.0700  177.8940  142.0720 N   0  0  0  0  0  2  0  0  0  0  0  0
  189.9010  177.7560  139.5480 C   0  0  0  0  0  2  0  0  0  0  0  0
  190.1870  176.8220  140.7160 C   0  0  0  0  0  2  0  0  0  0  0  0
  190.8530  177.5240  141.7590 O   0  0  0  0  0  0  0  0  0  0  0  0
  189.4000  177.4300  147.2190 N   0  0  0  0  0  2  0  0  0  0  0  0
  188.0860  177.5720  147.8500 C   0  0  2  0  0  3  0  0  0  0  0  0
  187.3230  178.7090  147.2420 C   0  0  0  0  0  3  0  0  0  0  0  0
  186.8050  178.5960  146.0190 C   0  0  0  0  0  3  0  0  0  0  0  0
  188.2600  177.8220  149.2680 N   0  0  0  0  0  1  0  0  0  0  0  0
  191.4230  177.4570  144.0970 C   0  0  0  0  0  3  0  0  0  0  0  0
  189.7000  177.3500  145.8130 C   0  0  0  0  0  0  0  0  0  0  0  0
  189.0940  177.3680  143.4510 C   0  0  0  0  0  3  0  0  0  0  0  0
  191.0490  177.4170  145.4410 C   0  0  0  0  0  3  0  0  0  0  0  0
  190.4490  177.4500  143.0950 C   0  0  0  0  0  0  0  0  0  0  0  0
  188.7070  177.3020  144.7950 C   0  0  0  0  0  0  0  0  0  0  0  0
  186.9600  177.0450  145.1310 S   0  0  0  0  0  0  0  0  0  0  0  0
  187.6690  178.6200  139.4430 O   0  0  0  0  0  0  0  0  0  0  0  0
  187.2400  178.2600  140.7280 C   0  0  0  0  0  2  0  0  0  0  0  0
  186.1610  179.2130  141.2240 C   0  0  0  0  0  2  0  0  0  0  0  0
  185.3510  178.5750  142.3460 C   0  0  0  0  0  2  0  0  0  0  0  0
  184.7510  179.6410  143.2530 C   0  0  0  0  0  2  0  0  0  0  0  0
  183.5050  179.1510  143.9160 C   0  0  0  0  0  3  0  0  0  0  0  0
  183.4720  178.9980  145.1870 N   0  0  0  0  0  2  0  0  0  0  0  0
  1 35  1  0  0  0  0
  1 20  1  6  0  0  0
  2  1  1  0  0  0  0
  3  6  1  0  0  0  0
  3  4  1  0  0  0  0
  4  5  1  0  0  0  0
  5  2  2  0  0  0  0
  6  7  1  0  0  0  0
  7  8  1  6  0  0  0
  7  2  1  0  0  0  0
  8 10  1  0  0  0  0
  9 11  2  0  0  0  0
 10 11  1  0  0  0  0
 12 13  1  0  0  0  0
 13 17  1  6  0  0  0
 14 11  1  6  0  0  0
 14 12  1  0  0  0  0
 15 13  1  0  0  0  0
 16 14  1  0  0  0  0
 16 15  1  0  0  0  0
 17 19  1  0  0  0  0
 19 18  1  0  0  0  0
 20 21  1  0  0  0  0
 21 22  1  0  0  0  0
 22 32  1  0  0  0  0
 23 24  1  0  0  0  0
 24 27  1  1  0  0  0
 25 24  1  0  0  0  0
 26 25  2  0  0  0  0
 28 31  1  0  0  0  0
 29 23  1  0  0  0  0
 30 33  2  0  0  0  0
 31 29  2  0  0  0  0
 32 30  1  0  0  0  0
 32 28  2  0  0  0  0
 33 34  1  0  0  0  0
 33 29  1  0  0  0  0
 34 26  1  0  0  0  0
 35 36  1  0  0  0  0
 36 37  1  0  0  0  0
 37 38  1  0  0  0  0
 38 39  1  0  0  0  0
 39 40  1  0  0  0  0
 40 41  2  0  0  0  0
M  END
>  <MODEL>
8

>  <REMARK>
 VINA RESULT:      -6.8      3.342      7.568
  Name = 
  16 active torsions:
  status: ('A' for Active; 'I' for Inactive)
    1  A    between atoms: O_2  and  C_32
    2  A    between atoms: O_2  and  C_39
    3  A    between atoms: C_7  and  C_9
    4  A    between atoms: C_8  and  C_12
    5  A    between atoms: C_8  and  C_39
    6  A    between atoms: C_9  and  N_14
    7  A    between atoms: C_10  and  C_39
    8  A    between atoms: C_12  and  O_40
    9  A    between atoms: C_13  and  C_17
   10  A    between atoms: C_16  and  C_38
   11  A    between atoms: C_17  and  C_33
   12  A    between atoms: C_24  and  C_32
   13  A    between atoms: C_24  and  C_33
   14  A    between atoms: N_27  and  C_34
   15  A    between atoms: C_29  and  O_40
   16  A    between atoms: C_34  and  C_37
                            x       y       z     vdW  Elec       q    Type
                         _______ _______ _______ _____ _____    ______ ____

>  <TORSDO>
F 16

$$$$
=
 OpenBabel11032419543D

 41 44  0  0  1  0  0  0  0  0999 V2000
  183.3860  178.3690  140.3130 C   0  0  1  0  0  3  0  0  0  0  0  0
  183.1670  178.6700  141.7720 C   0  0  0  0  0  0  0  0  0  0  0  0
  182.8660  178.7970  144.5790 C   0  0  0  0  0  2  0  0  0  0  0  0
  181.6500  178.8360  143.6640 C   0  0  0  0  0  2  0  0  0  0  0  0
  181.9940  178.4980  142.2930 N   0  0  0  0  0  0  0  0  0  0  0  0
  183.9360  179.6860  143.9640 C   0  0  0  0  0  2  0  0  0  0  0  0
  184.3480  179.1430  142.5940 C   0  0  1  0  0  3  0  0  0  0  0  0
  185.3420  178.0050  142.7690 C   0  0  0  0  0  2  0  0  0  0  0  0
  187.5780  176.4280  143.4350 O   0  0  0  0  0  0  0  0  0  0  0  0
  186.2720  178.3160  143.8440 N   0  0  0  0  0  2  0  0  0  0  0  0
  187.4190  177.4990  144.0800 C   0  0  0  0  0  0  0  0  0  0  0  0
  189.7730  177.3040  144.8200 C   0  0  0  0  0  2  0  0  0  0  0  0
  190.5950  177.4140  146.0870 C   0  0  1  0  0  3  0  0  0  0  0  0
  188.4170  177.9100  145.1100 C   0  0  2  0  0  3  0  0  0  0  0  0
  189.4780  177.2660  147.5210 S   0  0  0  0  0  0  0  0  0  0  0  0
  187.9890  177.4350  146.4860 C   0  0  0  0  0  2  0  0  0  0  0  0
  191.6440  176.3150  146.1200 C   0  0  0  0  0  2  0  0  0  0  0  0
  192.8050  175.6300  148.0220 C   0  0  0  0  0  1  0  0  0  0  0  0
  191.5260  175.5370  147.3460 N   0  0  0  0  0  2  0  0  0  0  0  0
  184.6880  178.9730  139.7910 C   0  0  0  0  0  2  0  0  0  0  0  0
  184.9600  178.5670  138.3490 C   0  0  0  0  0  2  0  0  0  0  0  0
  186.3370  178.7410  138.0390 O   0  0  0  0  0  0  0  0  0  0  0  0
  189.7800  174.3870  136.9760 N   0  0  0  0  0  2  0  0  0  0  0  0
  191.2160  174.2350  137.2220 C   0  0  2  0  0  3  0  0  0  0  0  0
  191.9620  175.4620  136.7930 C   0  0  0  0  0  3  0  0  0  0  0  0
  191.8820  176.5840  137.5100 C   0  0  0  0  0  3  0  0  0  0  0  0
  191.7120  173.0950  136.4760 N   0  0  0  0  0  1  0  0  0  0  0  0
  186.7700  176.5710  137.0890 C   0  0  0  0  0  3  0  0  0  0  0  0
  188.9270  175.4780  137.3700 C   0  0  0  0  0  0  0  0  0  0  0  0
  188.5020  177.6560  138.3830 C   0  0  0  0  0  3  0  0  0  0  0  0
  187.6270  175.4960  136.8500 C   0  0  0  0  0  3  0  0  0  0  0  0
  187.2070  177.6640  137.8430 C   0  0  0  0  0  0  0  0  0  0  0  0
  189.3630  176.5710  138.1700 C   0  0  0  0  0  0  0  0  0  0  0  0
  190.9380  176.5960  139.0340 S   0  0  0  0  0  0  0  0  0  0  0  0
  183.3970  176.9810  140.1210 O   0  0  0  0  0  0  0  0  0  0  0  0
  182.1070  176.6480  139.6860 C   0  0  0  0  0  2  0  0  0  0  0  0
  182.1640  175.8120  138.4160 C   0  0  0  0  0  2  0  0  0  0  0  0
  183.4660  175.0240  138.3460 C   0  0  0  0  0  2  0  0  0  0  0  0
  183.7560  174.5830  136.9180 C   0  0  0  0  0  2  0  0  0  0  0  0
  184.4080  173.2390  136.8850 C   0  0  0  0  0  3  0  0  0  0  0  0
  184.3060  172.5010  135.8440 N   0  0  0  0  0  2  0  0  0  0  0  0
  1 20  1  1  0  0  0
  1  2  1  0  0  0  0
  2  5  2  0  0  0  0
  2  7  1  0  0  0  0
  4  3  1  0  0  0  0
  5  4  1  0  0  0  0
  6  3  1  0  0  0  0
  7  8  1  1  0  0  0
  7  6  1  0  0  0  0
  8 10  1  0  0  0  0
  9 11  2  0  0  0  0
 10 11  1  0  0  0  0
 12 14  1  0  0  0  0
 12 13  1  0  0  0  0
 13 17  1  1  0  0  0
 13 15  1  0  0  0  0
 14 11  1  6  0  0  0
 14 16  1  0  0  0  0
 16 15  1  0  0  0  0
 17 19  1  0  0  0  0
 19 18  1  0  0  0  0
 21 20  1  0  0  0  0
 22 21  1  0  0  0  0
 23 24  1  0  0  0  0
 23 29  1  0  0  0  0
 24 27  1  6  0  0  0
 25 24  1  0  0  0  0
 25 26  2  0  0  0  0
 26 34  1  0  0  0  0
 28 32  1  0  0  0  0
 29 33  2  0  0  0  0
 31 28  2  0  0  0  0
 31 29  1  0  0  0  0
 32 22  1  0  0  0  0
 32 30  2  0  0  0  0
 33 30  1  0  0  0  0
 33 34  1  0  0  0  0
 35  1  1  0  0  0  0
 36 35  1  0  0  0  0
 37 36  1  0  0  0  0
 38 37  1  0  0  0  0
 39 38  1  0  0  0  0
 40 39  1  0  0  0  0
 41 40  2  0  0  0  0
M  END
>  <MODEL>
9

>  <REMARK>
 VINA RESULT:      -6.7      2.646      7.371
  Name = 
  16 active torsions:
  status: ('A' for Active; 'I' for Inactive)
    1  A    between atoms: O_2  and  C_32
    2  A    between atoms: O_2  and  C_39
    3  A    between atoms: C_7  and  C_9
    4  A    between atoms: C_8  and  C_12
    5  A    between atoms: C_8  and  C_39
    6  A    between atoms: C_9  and  N_14
    7  A    between atoms: C_10  and  C_39
    8  A    between atoms: C_12  and  O_40
    9  A    between atoms: C_13  and  C_17
   10  A    between atoms: C_16  and  C_38
   11  A    between atoms: C_17  and  C_33
   12  A    between atoms: C_24  and  C_32
   13  A    between atoms: C_24  and  C_33
   14  A    between atoms: N_27  and  C_34
   15  A    between atoms: C_29  and  O_40
   16  A    between atoms: C_34  and  C_37
                            x       y       z     vdW  Elec       q    Type
                         _______ _______ _______ _____ _____    ______ ____

>  <TORSDO>
F 16

$$$$
