=
 OpenBabel11032420083D

 28 33  0  0  1  0  0  0  0  0999 V2000
  190.7370  177.3950  140.8140 C   0  0  0  0  0  0  0  0  0  0  0  0
  189.9590  177.4170  144.3050 C   0  0  0  0  0  0  0  0  0  0  0  0
  191.4050  177.0620  144.4290 C   0  0  2  0  0  0  0  0  0  0  0  0
  191.9590  177.1630  143.0660 C   0  0  1  0  0  3  0  0  0  0  0  0
  189.3660  177.3310  140.1810 C   0  0  1  0  0  3  0  0  0  0  0  0
  188.9300  177.3380  145.2400 C   0  0  0  0  0  3  0  0  0  0  0  0
  184.2270  178.9550  144.4190 C   0  0  0  0  0  0  0  0  0  0  0  0
  186.2760  179.0160  146.2750 N   0  0  0  0  0  2  0  0  0  0  0  0
  187.6160  177.6370  144.8290 C   0  0  0  0  0  0  0  0  0  0  0  0
  191.6370  175.8250  143.6000 N   0  0  1  0  0  0  0  0  0  0  0  0
  187.3530  178.0080  143.4650 C   0  0  0  0  0  0  0  0  0  0  0  0
  188.4420  178.1090  142.5710 C   0  0  0  0  0  0  0  0  0  0  0  0
  190.8550  177.6410  142.2210 N   0  0  0  0  0  0  0  0  0  0  0  0
  188.2610  178.6300  140.8570 S   0  0  0  0  0  0  0  0  0  0  0  0
  184.7500  177.9080  143.4970 C   0  0  0  0  0  2  0  0  0  0  0  0
  186.5750  177.6370  145.8970 C   0  0  0  0  0  2  0  0  0  0  0  0
  191.6910  175.7930  145.0680 C   0  0  0  0  0  2  0  0  0  0  0  0
  186.0400  178.3010  142.9470 N   0  0  0  0  0  2  0  0  0  0  0  0
  184.0620  178.6300  145.7970 N   0  0  0  0  0  2  0  0  0  0  0  0
  183.9910  180.1210  144.0050 O   0  0  0  0  0  0  0  0  0  0  0  0
  191.7660  177.1410  140.1330 O   0  0  0  0  0  0  0  0  0  0  0  0
  184.9600  179.0860  146.7830 N   0  0  0  0  0  2  0  0  0  0  0  0
  189.7150  177.8160  143.0330 C   0  0  0  0  0  0  0  0  0  0  0  0
  189.4570  177.4810  138.7360 N   0  0  0  0  0  2  0  0  0  0  0  0
  188.9710  176.2470  138.1380 C   0  0  1  0  0  3  0  0  0  0  0  0
  187.6970  176.5160  137.3590 C   0  0  0  0  0  1  0  0  0  0  0  0
  190.0370  175.6240  137.2400 C   0  0  0  0  0  2  0  0  0  0  0  0
  190.8070  174.6210  137.9610 N   0  0  0  0  0  1  0  0  0  0  0  0
  1 13  1  0  0  0  0
  2  3  1  0  0  0  0
  2  6  1  0  0  0  0
  3 17  1  1  0  0  0
  4 13  1  6  0  0  0
  4 10  1  0  0  0  0
  4  3  1  0  0  0  0
  5 24  1  6  0  0  0
  5  1  1  0  0  0  0
  5 14  1  0  0  0  0
  7 19  1  0  0  0  0
  8 22  1  0  0  0  0
  9  6  2  0  0  0  0
  9 16  1  0  0  0  0
 10  3  1  0  0  0  0
 10 17  1  1  0  0  0
 11  9  1  0  0  0  0
 12 23  1  0  0  0  0
 12 11  2  0  0  0  0
 13 23  1  0  0  0  0
 14 12  1  0  0  0  0
 15  7  1  0  0  0  0
 16  8  1  0  0  0  0
 18 11  1  0  0  0  0
 18 15  1  0  0  0  0
 19 22  1  0  0  0  0
 20  7  2  0  0  0  0
 21  1  2  0  0  0  0
 23  2  2  0  0  0  0
 25 26  1  6  0  0  0
 25 24  1  0  0  0  0
 27 28  1  0  0  0  0
 27 25  1  0  0  0  0
M  END
>  <MODEL>
1

>  <REMARK>
 VINA RESULT:      -9.0      0.000      0.000
  Name = 
  3 active torsions:
  status: ('A' for Active; 'I' for Inactive)
    1  A    between atoms: C_1  and  C_7
    2  A    between atoms: N_6  and  C_7
    3  A    between atoms: N_6  and  C_8
                            x       y       z     vdW  Elec       q    Type
                         _______ _______ _______ _____ _____    ______ ____

>  <TORSDO>
F 3

$$$$
=
 OpenBabel11032420083D

 28 33  0  0  1  0  0  0  0  0999 V2000
  186.4720  178.4650  140.7070 C   0  0  0  0  0  0  0  0  0  0  0  0
  186.2430  178.1030  144.2570 C   0  0  0  0  0  0  0  0  0  0  0  0
  184.8060  178.4220  144.0010 C   0  0  2  0  0  0  0  0  0  0  0  0
  184.6600  178.4510  142.5340 C   0  0  1  0  0  3  0  0  0  0  0  0
  187.9610  178.6130  140.4950 C   0  0  1  0  0  3  0  0  0  0  0  0
  186.9660  178.1030  145.4480 C   0  0  0  0  0  3  0  0  0  0  0  0
  191.7760  176.6480  145.8420 C   0  0  0  0  0  0  0  0  0  0  0  0
  189.2940  176.3700  147.0310 N   0  0  0  0  0  2  0  0  0  0  0  0
  188.3540  177.8670  145.3990 C   0  0  0  0  0  0  0  0  0  0  0  0
  184.7630  179.7320  143.2580 N   0  0  1  0  0  0  0  0  0  0  0  0
  189.0030  177.6390  144.1360 C   0  0  0  0  0  0  0  0  0  0  0  0
  188.2120  177.6120  142.9660 C   0  0  0  0  0  0  0  0  0  0  0  0
  185.9750  178.0770  141.9940 N   0  0  0  0  0  0  0  0  0  0  0  0
  188.8880  177.2690  141.3330 S   0  0  0  0  0  0  0  0  0  0  0  0
  191.4870  177.7740  144.9110 C   0  0  0  0  0  2  0  0  0  0  0  0
  189.0530  177.7750  146.7130 C   0  0  0  0  0  2  0  0  0  0  0  0
  184.3000  179.6150  144.6470 C   0  0  0  0  0  2  0  0  0  0  0  0
  190.4190  177.4190  143.9860 N   0  0  0  0  0  2  0  0  0  0  0  0
  191.5350  176.8340  147.2350 N   0  0  0  0  0  2  0  0  0  0  0  0
  192.1670  175.5330  145.4060 O   0  0  0  0  0  0  0  0  0  0  0  0
  185.6640  178.7700  139.7890 O   0  0  0  0  0  0  0  0  0  0  0  0
  190.4170  176.2680  147.8800 N   0  0  0  0  0  2  0  0  0  0  0  0
  186.8490  177.8380  143.0750 C   0  0  0  0  0  0  0  0  0  0  0  0
  188.2830  178.6080  139.0750 N   0  0  0  0  0  2  0  0  0  0  0  0
  188.6040  177.2370  138.7060 C   0  0  1  0  0  3  0  0  0  0  0  0
  187.6290  176.7440  137.6530 C   0  0  0  0  0  1  0  0  0  0  0  0
  190.0430  177.1340  138.2070 C   0  0  0  0  0  2  0  0  0  0  0  0
  190.5530  175.7800  138.3590 N   0  0  0  0  0  1  0  0  0  0  0  0
  1 13  1  0  0  0  0
  2  6  1  0  0  0  0
  3  2  1  0  0  0  0
  3 17  1  1  0  0  0
  4 13  1  6  0  0  0
  4 10  1  0  0  0  0
  4  3  1  0  0  0  0
  5 24  1  6  0  0  0
  5  1  1  0  0  0  0
  5 14  1  0  0  0  0
  7 19  1  0  0  0  0
  8 22  1  0  0  0  0
  9  6  2  0  0  0  0
  9 16  1  0  0  0  0
 10  3  1  0  0  0  0
 10 17  1  1  0  0  0
 11  9  1  0  0  0  0
 12 23  1  0  0  0  0
 12 11  2  0  0  0  0
 13 23  1  0  0  0  0
 14 12  1  0  0  0  0
 15  7  1  0  0  0  0
 16  8  1  0  0  0  0
 18 11  1  0  0  0  0
 18 15  1  0  0  0  0
 19 22  1  0  0  0  0
 20  7  2  0  0  0  0
 21  1  2  0  0  0  0
 23  2  2  0  0  0  0
 25 26  1  6  0  0  0
 25 24  1  0  0  0  0
 27 28  1  0  0  0  0
 27 25  1  0  0  0  0
M  END
>  <MODEL>
2

>  <REMARK>
 VINA RESULT:      -8.7      2.277      5.034
  Name = 
  3 active torsions:
  status: ('A' for Active; 'I' for Inactive)
    1  A    between atoms: C_1  and  C_7
    2  A    between atoms: N_6  and  C_7
    3  A    between atoms: N_6  and  C_8
                            x       y       z     vdW  Elec       q    Type
                         _______ _______ _______ _____ _____    ______ ____

>  <TORSDO>
F 3

$$$$
=
 OpenBabel11032420083D

 28 33  0  0  1  0  0  0  0  0999 V2000
  184.9290  178.6660  145.2530 C   0  0  0  0  0  0  0  0  0  0  0  0
  188.2230  177.3390  144.8320 C   0  0  0  0  0  0  0  0  0  0  0  0
  188.1380  177.1850  146.3170 C   0  0  2  0  0  0  0  0  0  0  0  0
  186.7530  177.5390  146.6750 C   0  0  1  0  0  3  0  0  0  0  0  0
  184.7010  179.3800  143.9400 C   0  0  1  0  0  3  0  0  0  0  0  0
  189.3260  177.2850  143.9840 C   0  0  0  0  0  3  0  0  0  0  0  0
  189.0530  177.5740  138.9590 C   0  0  0  0  0  0  0  0  0  0  0  0
  190.2210  176.1390  141.0150 N   0  0  0  0  0  2  0  0  0  0  0  0
  189.1460  177.5760  142.6180 C   0  0  0  0  0  0  0  0  0  0  0  0
  187.8160  178.5400  146.8910 N   0  0  1  0  0  0  0  0  0  0  0  0
  187.8440  177.9280  142.1210 C   0  0  0  0  0  0  0  0  0  0  0  0
  186.7550  177.9280  143.0210 C   0  0  0  0  0  0  0  0  0  0  0  0
  186.0670  177.8080  145.4030 N   0  0  0  0  0  0  0  0  0  0  0  0
  185.0630  178.2820  142.5160 S   0  0  0  0  0  0  0  0  0  0  0  0
  188.5080  178.7260  139.7310 C   0  0  0  0  0  2  0  0  0  0  0  0
  190.3410  177.4000  141.7430 C   0  0  0  0  0  2  0  0  0  0  0  0
  189.1290  177.9110  147.0840 C   0  0  0  0  0  2  0  0  0  0  0  0
  187.5690  178.2700  140.7470 N   0  0  0  0  0  2  0  0  0  0  0  0
  190.4480  177.2960  139.0430 N   0  0  0  0  0  2  0  0  0  0  0  0
  188.2900  176.8240  138.2950 O   0  0  0  0  0  0  0  0  0  0  0  0
  184.1800  178.8930  146.2410 O   0  0  0  0  0  0  0  0  0  0  0  0
  190.9500  176.2240  139.8090 N   0  0  0  0  0  2  0  0  0  0  0  0
  186.9880  177.6220  144.3520 C   0  0  0  0  0  0  0  0  0  0  0  0
  183.3290  179.8570  143.8440 N   0  0  0  0  0  2  0  0  0  0  0  0
  182.5290  178.7760  143.2900 C   0  0  1  0  0  3  0  0  0  0  0  0
  181.3230  178.5180  144.1740 C   0  0  0  0  0  1  0  0  0  0  0  0
  182.0980  179.0990  141.8620 C   0  0  0  0  0  2  0  0  0  0  0  0
  180.6860  179.4460  141.8080 N   0  0  0  0  0  1  0  0  0  0  0  0
  1 13  1  0  0  0  0
  1 21  2  0  0  0  0
  2  3  1  0  0  0  0
  3  4  1  0  0  0  0
  3 10  1  0  0  0  0
  3 17  1  1  0  0  0
  4 13  1  6  0  0  0
  4 10  1  0  0  0  0
  5 24  1  6  0  0  0
  5  1  1  0  0  0  0
  6  2  2  0  0  0  0
  7 19  1  0  0  0  0
  7 15  1  0  0  0  0
  8 16  1  0  0  0  0
  9  6  1  0  0  0  0
 10 17  1  1  0  0  0
 11  9  2  0  0  0  0
 11 12  1  0  0  0  0
 12 23  2  0  0  0  0
 14 12  1  0  0  0  0
 14  5  1  0  0  0  0
 15 18  1  0  0  0  0
 16  9  1  0  0  0  0
 18 11  1  0  0  0  0
 19 22  1  0  0  0  0
 20  7  2  0  0  0  0
 22  8  1  0  0  0  0
 23  2  1  0  0  0  0
 23 13  1  0  0  0  0
 25 24  1  0  0  0  0
 25 26  1  1  0  0  0
 27 25  1  0  0  0  0
 28 27  1  0  0  0  0
M  END
>  <MODEL>
3

>  <REMARK>
 VINA RESULT:      -8.1      2.176      6.700
  Name = 
  3 active torsions:
  status: ('A' for Active; 'I' for Inactive)
    1  A    between atoms: C_1  and  C_7
    2  A    between atoms: N_6  and  C_7
    3  A    between atoms: N_6  and  C_8
                            x       y       z     vdW  Elec       q    Type
                         _______ _______ _______ _____ _____    ______ ____

>  <TORSDO>
F 3

$$$$
=
 OpenBabel11032420083D

 28 33  0  0  1  0  0  0  0  0999 V2000
  183.9340  178.7470  144.1890 C   0  0  0  0  0  0  0  0  0  0  0  0
  187.0880  177.9130  145.6540 C   0  0  0  0  0  0  0  0  0  0  0  0
  186.3090  178.0330  146.9230 C   0  0  2  0  0  0  0  0  0  0  0  0
  184.9050  178.2210  146.5120 C   0  0  1  0  0  3  0  0  0  0  0  0
  184.3280  179.1520  142.7870 C   0  0  1  0  0  3  0  0  0  0  0  0
  188.4650  177.8780  145.4430 C   0  0  0  0  0  3  0  0  0  0  0  0
  190.6240  177.1570  140.9460 C   0  0  0  0  0  0  0  0  0  0  0  0
  190.7330  176.3470  143.5880 N   0  0  0  0  0  2  0  0  0  0  0  0
  188.9480  177.8700  144.1200 C   0  0  0  0  0  0  0  0  0  0  0  0
  185.6810  179.4020  146.9370 N   0  0  1  0  0  0  0  0  0  0  0  0
  188.0280  177.9070  143.0150 C   0  0  0  0  0  0  0  0  0  0  0  0
  186.6430  177.9020  143.2900 C   0  0  0  0  0  0  0  0  0  0  0  0
  184.9020  178.1280  145.0460 N   0  0  0  0  0  0  0  0  0  0  0  0
  185.3860  177.8760  142.0010 S   0  0  0  0  0  0  0  0  0  0  0  0
  189.7170  178.3310  141.0780 C   0  0  0  0  0  2  0  0  0  0  0  0
  190.4230  177.7250  143.9590 C   0  0  0  0  0  2  0  0  0  0  0  0
  186.7710  179.0420  147.8540 C   0  0  0  0  0  2  0  0  0  0  0  0
  188.4310  177.9320  141.6310 N   0  0  0  0  0  2  0  0  0  0  0  0
  191.8210  177.1280  141.7210 N   0  0  0  0  0  2  0  0  0  0  0  0
  190.3150  176.1810  140.2130 O   0  0  0  0  0  0  0  0  0  0  0  0
  182.7920  179.0340  144.6380 O   0  0  0  0  0  0  0  0  0  0  0  0
  191.9460  176.3170  142.8670 N   0  0  0  0  0  2  0  0  0  0  0  0
  186.2230  177.8960  144.6110 C   0  0  0  0  0  0  0  0  0  0  0  0
  183.1490  179.3750  141.9630 N   0  0  0  0  0  2  0  0  0  0  0  0
  183.3390  178.6390  140.7230 C   0  0  1  0  0  3  0  0  0  0  0  0
  182.3210  177.5180  140.6240 C   0  0  0  0  0  1  0  0  0  0  0  0
  183.2390  179.5730  139.5190 C   0  0  0  0  0  2  0  0  0  0  0  0
  184.5550  180.0340  139.1050 N   0  0  0  0  0  1  0  0  0  0  0  0
  1 21  2  0  0  0  0
  1 13  1  0  0  0  0
  2  3  1  0  0  0  0
  3 10  1  0  0  0  0
  3 17  1  1  0  0  0
  4 13  1  6  0  0  0
  4  3  1  0  0  0  0
  4 10  1  0  0  0  0
  5 24  1  6  0  0  0
  5  1  1  0  0  0  0
  6  2  1  0  0  0  0
  7 15  1  0  0  0  0
  7 19  1  0  0  0  0
  8 16  1  0  0  0  0
  9  6  2  0  0  0  0
 10 17  1  1  0  0  0
 11 12  2  0  0  0  0
 11  9  1  0  0  0  0
 12 23  1  0  0  0  0
 14  5  1  0  0  0  0
 14 12  1  0  0  0  0
 15 18  1  0  0  0  0
 16  9  1  0  0  0  0
 18 11  1  0  0  0  0
 19 22  1  0  0  0  0
 20  7  2  0  0  0  0
 22  8  1  0  0  0  0
 23 13  1  0  0  0  0
 23  2  2  0  0  0  0
 25 26  1  6  0  0  0
 25 24  1  0  0  0  0
 27 25  1  0  0  0  0
 28 27  1  0  0  0  0
M  END
>  <MODEL>
4

>  <REMARK>
 VINA RESULT:      -7.4      2.138      6.343
  Name = 
  3 active torsions:
  status: ('A' for Active; 'I' for Inactive)
    1  A    between atoms: C_1  and  C_7
    2  A    between atoms: N_6  and  C_7
    3  A    between atoms: N_6  and  C_8
                            x       y       z     vdW  Elec       q    Type
                         _______ _______ _______ _____ _____    ______ ____

>  <TORSDO>
F 3

$$$$
=
 OpenBabel11032420083D

 28 33  0  0  1  0  0  0  0  0999 V2000
  186.2670  178.6280  139.3670 C   0  0  0  0  0  0  0  0  0  0  0  0
  189.1560  177.7270  141.2730 C   0  0  0  0  0  0  0  0  0  0  0  0
  189.8000  177.7150  139.9240 C   0  0  2  0  0  0  0  0  0  0  0  0
  188.7810  178.2320  138.9920 C   0  0  1  0  0  3  0  0  0  0  0  0
  185.1440  178.3670  140.3450 C   0  0  1  0  0  3  0  0  0  0  0  0
  189.5990  177.2050  142.4860 C   0  0  0  0  0  3  0  0  0  0  0  0
  187.1710  177.7660  146.8670 C   0  0  0  0  0  0  0  0  0  0  0  0
  189.6770  177.9310  145.7100 N   0  0  0  0  0  2  0  0  0  0  0  0
  188.7390  177.2550  143.6000 C   0  0  0  0  0  0  0  0  0  0  0  0
  189.0060  176.7750  139.0550 N   0  0  1  0  0  0  0  0  0  0  0  0
  187.4270  177.8290  143.4740 C   0  0  0  0  0  0  0  0  0  0  0  0
  187.0470  178.3780  142.2290 C   0  0  0  0  0  0  0  0  0  0  0  0
  187.6250  178.5940  139.8240 N   0  0  0  0  0  0  0  0  0  0  0  0
  185.4620  179.1870  141.9560 S   0  0  0  0  0  0  0  0  0  0  0  0
  186.4260  177.0950  145.7650 C   0  0  0  0  0  2  0  0  0  0  0  0
  189.3080  176.7780  144.8930 C   0  0  0  0  0  2  0  0  0  0  0  0
  190.3660  176.4490  139.5060 C   0  0  0  0  0  2  0  0  0  0  0  0
  186.4690  177.8960  144.5490 N   0  0  0  0  0  2  0  0  0  0  0  0
  188.3330  177.1290  147.3920 N   0  0  0  0  0  2  0  0  0  0  0  0
  186.8190  178.9000  147.2880 O   0  0  0  0  0  0  0  0  0  0  0  0
  186.0210  178.7810  138.1410 O   0  0  0  0  0  0  0  0  0  0  0  0
  189.6330  177.5720  147.0750 N   0  0  0  0  0  2  0  0  0  0  0  0
  187.9380  178.3120  141.1700 C   0  0  0  0  0  0  0  0  0  0  0  0
  183.8740  178.8350  139.8090 N   0  0  0  0  0  2  0  0  0  0  0  0
  182.9030  177.7680  139.9960 C   0  0  1  0  0  3  0  0  0  0  0  0
  181.6270  178.3280  140.5980 C   0  0  0  0  0  1  0  0  0  0  0  0
  182.6160  177.0600  138.6740 C   0  0  0  0  0  2  0  0  0  0  0  0
  183.0510  175.6730  138.7190 N   0  0  0  0  0  1  0  0  0  0  0  0
  1 13  1  0  0  0  0
  1  5  1  0  0  0  0
  2  6  1  0  0  0  0
  3 17  1  6  0  0  0
  3  2  1  0  0  0  0
  4 10  1  0  0  0  0
  4 13  1  1  0  0  0
  4  3  1  0  0  0  0
  5 24  1  6  0  0  0
  5 14  1  0  0  0  0
  6  9  2  0  0  0  0
  7 20  2  0  0  0  0
  7 19  1  0  0  0  0
  8 22  1  0  0  0  0
  9 16  1  0  0  0  0
 10 17  1  6  0  0  0
 10  3  1  0  0  0  0
 11  9  1  0  0  0  0
 11 18  1  0  0  0  0
 12 11  2  0  0  0  0
 13 23  1  0  0  0  0
 14 12  1  0  0  0  0
 15  7  1  0  0  0  0
 16  8  1  0  0  0  0
 18 15  1  0  0  0  0
 21  1  2  0  0  0  0
 22 19  1  0  0  0  0
 23  2  2  0  0  0  0
 23 12  1  0  0  0  0
 24 25  1  0  0  0  0
 25 26  1  6  0  0  0
 27 28  1  0  0  0  0
 27 25  1  0  0  0  0
M  END
>  <MODEL>
5

>  <REMARK>
 VINA RESULT:      -7.4      3.053      4.695
  Name = 
  3 active torsions:
  status: ('A' for Active; 'I' for Inactive)
    1  A    between atoms: C_1  and  C_7
    2  A    between atoms: N_6  and  C_7
    3  A    between atoms: N_6  and  C_8
                            x       y       z     vdW  Elec       q    Type
                         _______ _______ _______ _____ _____    ______ ____

>  <TORSDO>
F 3

$$$$
=
 OpenBabel11032420083D

 28 33  0  0  1  0  0  0  0  0999 V2000
  186.3140  178.1140  145.8040 C   0  0  0  0  0  0  0  0  0  0  0  0
  185.8140  178.8920  142.3490 C   0  0  0  0  0  0  0  0  0  0  0  0
  184.5030  179.4000  142.8560 C   0  0  2  0  0  0  0  0  0  0  0  0
  184.5830  179.3120  144.3260 C   0  0  1  0  0  3  0  0  0  0  0  0
  187.4730  177.1450  145.7490 C   0  0  1  0  0  3  0  0  0  0  0  0
  186.2270  178.6090  141.0500 C   0  0  0  0  0  3  0  0  0  0  0  0
  190.9000  177.1820  139.8110 C   0  0  0  0  0  0  0  0  0  0  0  0
  188.8660  178.9070  139.0800 N   0  0  0  0  0  2  0  0  0  0  0  0
  187.4960  178.0300  140.8530 C   0  0  0  0  0  0  0  0  0  0  0  0
  183.8380  178.2690  143.5960 N   0  0  1  0  0  0  0  0  0  0  0  0
  188.3360  177.7320  141.9810 C   0  0  0  0  0  0  0  0  0  0  0  0
  187.8800  178.0780  143.2720 C   0  0  0  0  0  0  0  0  0  0  0  0
  185.9410  178.8380  144.6240 N   0  0  0  0  0  0  0  0  0  0  0  0
  188.8610  177.8240  144.7610 S   0  0  0  0  0  0  0  0  0  0  0  0
  190.1670  176.3200  140.7790 C   0  0  0  0  0  2  0  0  0  0  0  0
  187.9250  177.8480  139.4360 C   0  0  0  0  0  2  0  0  0  0  0  0
  183.3240  178.7600  142.3100 C   0  0  0  0  0  2  0  0  0  0  0  0
  189.6340  177.1130  141.8790 N   0  0  0  0  0  2  0  0  0  0  0  0
  190.3960  177.3000  138.4830 N   0  0  0  0  0  2  0  0  0  0  0  0
  191.9100  177.8420  140.1720 O   0  0  0  0  0  0  0  0  0  0  0  0
  185.6190  178.2190  146.8500 O   0  0  0  0  0  0  0  0  0  0  0  0
  189.7120  178.4520  138.0450 N   0  0  0  0  0  2  0  0  0  0  0  0
  186.6290  178.6570  143.4060 C   0  0  0  0  0  0  0  0  0  0  0  0
  187.9450  176.8290  147.0900 N   0  0  0  0  0  2  0  0  0  0  0  0
  189.2470  177.4590  147.2520 C   0  0  1  0  0  3  0  0  0  0  0  0
  189.2270  178.3860  148.4540 C   0  0  0  0  0  1  0  0  0  0  0  0
  190.3430  176.4060  147.3950 C   0  0  0  0  0  2  0  0  0  0  0  0
  191.6600  176.9960  147.2140 N   0  0  0  0  0  1  0  0  0  0  0  0
  1 21  2  0  0  0  0
  2  3  1  0  0  0  0
  2 23  1  0  0  0  0
  3 17  1  6  0  0  0
  3 10  1  0  0  0  0
  3  4  1  0  0  0  0
  4 13  1  6  0  0  0
  5  1  1  0  0  0  0
  5 24  1  1  0  0  0
  6  2  2  0  0  0  0
  7 20  2  0  0  0  0
  7 15  1  0  0  0  0
  8 16  1  0  0  0  0
  9  6  1  0  0  0  0
  9 11  2  0  0  0  0
 10 17  1  1  0  0  0
 10  4  1  0  0  0  0
 11 12  1  0  0  0  0
 12 23  2  0  0  0  0
 12 14  1  0  0  0  0
 13  1  1  0  0  0  0
 14  5  1  0  0  0  0
 15 18  1  0  0  0  0
 16  9  1  0  0  0  0
 18 11  1  0  0  0  0
 19  7  1  0  0  0  0
 22 19  1  0  0  0  0
 22  8  1  0  0  0  0
 23 13  1  0  0  0  0
 24 25  1  0  0  0  0
 25 27  1  0  0  0  0
 25 26  1  1  0  0  0
 28 27  1  0  0  0  0
M  END
>  <MODEL>
6

>  <REMARK>
 VINA RESULT:      -7.3      2.194      7.430
  Name = 
  3 active torsions:
  status: ('A' for Active; 'I' for Inactive)
    1  A    between atoms: C_1  and  C_7
    2  A    between atoms: N_6  and  C_7
    3  A    between atoms: N_6  and  C_8
                            x       y       z     vdW  Elec       q    Type
                         _______ _______ _______ _____ _____    ______ ____

>  <TORSDO>
F 3

$$$$
=
 OpenBabel11032420083D

 28 33  0  0  1  0  0  0  0  0999 V2000
  186.5150  178.4190  144.9200 C   0  0  0  0  0  0  0  0  0  0  0  0
  189.5590  177.0010  143.6910 C   0  0  0  0  0  0  0  0  0  0  0  0
  189.7980  176.7450  145.1440 C   0  0  2  0  0  0  0  0  0  0  0  0
  188.5470  177.1260  145.8250 C   0  0  1  0  0  3  0  0  0  0  0  0
  186.0410  179.2330  143.7380 C   0  0  1  0  0  3  0  0  0  0  0  0
  190.4430  176.9650  142.6140 C   0  0  0  0  0  3  0  0  0  0  0  0
  189.0780  177.6200  137.8070 C   0  0  0  0  0  0  0  0  0  0  0  0
  190.5950  175.9990  139.4560 N   0  0  0  0  0  2  0  0  0  0  0  0
  189.9800  177.3590  141.3440 C   0  0  0  0  0  0  0  0  0  0  0  0
  189.6830  178.0680  145.8570 N   0  0  1  0  0  0  0  0  0  0  0  0
  188.6200  177.7950  141.1740 C   0  0  0  0  0  0  0  0  0  0  0  0
  187.7600  177.7720  142.2940 C   0  0  0  0  0  0  0  0  0  0  0  0
  187.6120  177.5100  144.7590 N   0  0  0  0  0  0  0  0  0  0  0  0
  186.0190  178.2260  142.2040 S   0  0  0  0  0  0  0  0  0  0  0  0
  188.7800  178.7340  138.7490 C   0  0  0  0  0  2  0  0  0  0  0  0
  190.9400  177.2000  140.2140 C   0  0  0  0  0  2  0  0  0  0  0  0
  190.9720  177.3770  145.7110 C   0  0  0  0  0  2  0  0  0  0  0  0
  188.0670  178.2440  139.9210 N   0  0  0  0  0  2  0  0  0  0  0  0
  190.4410  177.2830  137.5570 N   0  0  0  0  0  2  0  0  0  0  0  0
  188.1490  176.9480  137.2860 O   0  0  0  0  0  0  0  0  0  0  0  0
  186.0170  178.6040  146.0630 O   0  0  0  0  0  0  0  0  0  0  0  0
  191.0420  176.1410  138.1250 N   0  0  0  0  0  2  0  0  0  0  0  0
  188.2660  177.3640  143.5180 C   0  0  0  0  0  0  0  0  0  0  0  0
  184.7090  179.7680  143.9810 N   0  0  0  0  0  2  0  0  0  0  0  0
  183.7520  178.7260  143.6420 C   0  0  1  0  0  3  0  0  0  0  0  0
  182.6870  178.6310  144.7180 C   0  0  0  0  0  1  0  0  0  0  0  0
  183.1230  178.9930  142.2760 C   0  0  0  0  0  2  0  0  0  0  0  0
  181.6710  179.0030  142.3630 N   0  0  0  0  0  1  0  0  0  0  0  0
  1 21  2  0  0  0  0
  2  3  1  0  0  0  0
  3 17  1  1  0  0  0
  3  4  1  0  0  0  0
  3 10  1  0  0  0  0
  4 13  1  6  0  0  0
  4 10  1  0  0  0  0
  5 24  1  1  0  0  0
  5  1  1  0  0  0  0
  6  2  2  0  0  0  0
  7 15  1  0  0  0  0
  8 16  1  0  0  0  0
  9  6  1  0  0  0  0
 10 17  1  1  0  0  0
 11  9  2  0  0  0  0
 11 12  1  0  0  0  0
 12 23  2  0  0  0  0
 13  1  1  0  0  0  0
 14 12  1  0  0  0  0
 14  5  1  0  0  0  0
 15 18  1  0  0  0  0
 16  9  1  0  0  0  0
 18 11  1  0  0  0  0
 19  7  1  0  0  0  0
 19 22  1  0  0  0  0
 20  7  2  0  0  0  0
 22  8  1  0  0  0  0
 23  2  1  0  0  0  0
 23 13  1  0  0  0  0
 25 24  1  0  0  0  0
 25 26  1  1  0  0  0
 27 28  1  0  0  0  0
 27 25  1  0  0  0  0
M  END
>  <MODEL>
7

>  <REMARK>
 VINA RESULT:      -7.0      2.104      6.534
  Name = 
  3 active torsions:
  status: ('A' for Active; 'I' for Inactive)
    1  A    between atoms: C_1  and  C_7
    2  A    between atoms: N_6  and  C_7
    3  A    between atoms: N_6  and  C_8
                            x       y       z     vdW  Elec       q    Type
                         _______ _______ _______ _____ _____    ______ ____

>  <TORSDO>
F 3

$$$$
=
 OpenBabel11032420083D

 28 33  0  0  1  0  0  0  0  0999 V2000
  190.7710  177.3820  142.4000 C   0  0  0  0  0  0  0  0  0  0  0  0
  187.9570  177.6960  140.2140 C   0  0  0  0  0  0  0  0  0  0  0  0
  188.9640  177.3050  139.1810 C   0  0  2  0  0  0  0  0  0  0  0  0
  190.1890  176.9650  139.9280 C   0  0  1  0  0  3  0  0  0  0  0  0
  190.2980  178.1100  143.6370 C   0  0  1  0  0  3  0  0  0  0  0  0
  186.6890  178.2530  140.0680 C   0  0  0  0  0  3  0  0  0  0  0  0
  183.5230  179.1280  143.8920 C   0  0  0  0  0  0  0  0  0  0  0  0
  183.6450  178.0590  141.3440 N   0  0  0  0  0  2  0  0  0  0  0  0
  185.9780  178.6330  141.2240 C   0  0  0  0  0  0  0  0  0  0  0  0
  190.1060  178.2840  139.2730 N   0  0  1  0  0  0  0  0  0  0  0  0
  186.5650  178.4530  142.5240 C   0  0  0  0  0  0  0  0  0  0  0  0
  187.8380  177.8480  142.6120 C   0  0  0  0  0  0  0  0  0  0  0  0
  189.8390  177.0920  141.3500 N   0  0  0  0  0  0  0  0  0  0  0  0
  188.6550  177.5010  144.1790 S   0  0  0  0  0  0  0  0  0  0  0  0
  184.8500  179.8010  143.9480 C   0  0  0  0  0  2  0  0  0  0  0  0
  184.5870  179.1240  141.0090 C   0  0  0  0  0  2  0  0  0  0  0  0
  189.1900  178.2680  138.1230 C   0  0  0  0  0  2  0  0  0  0  0  0
  185.9270  178.8400  143.7570 N   0  0  0  0  0  2  0  0  0  0  0  0
  182.6260  179.4750  142.8390 N   0  0  0  0  0  2  0  0  0  0  0  0
  183.2200  178.2270  144.7180 O   0  0  0  0  0  0  0  0  0  0  0  0
  191.9930  177.1130  142.2450 O   0  0  0  0  0  0  0  0  0  0  0  0
  182.4130  178.6280  141.7330 N   0  0  0  0  0  2  0  0  0  0  0  0
  188.4870  177.4810  141.4430 C   0  0  0  0  0  0  0  0  0  0  0  0
  191.2530  177.9530  144.7250 N   0  0  0  0  0  2  0  0  0  0  0  0
  190.8490  176.7850  145.4930 C   0  0  1  0  0  3  0  0  0  0  0  0
  191.8400  175.6560  145.2770 C   0  0  0  0  0  1  0  0  0  0  0  0
  190.7300  177.1280  146.9750 C   0  0  0  0  0  2  0  0  0  0  0  0
  191.9320  176.7450  147.6990 N   0  0  0  0  0  1  0  0  0  0  0  0
  1  5  1  0  0  0  0
  2 23  1  0  0  0  0
  3 17  1  6  0  0  0
  3 10  1  0  0  0  0
  3  4  1  0  0  0  0
  3  2  1  0  0  0  0
  4 13  1  1  0  0  0
  5 14  1  0  0  0  0
  5 24  1  1  0  0  0
  6  2  2  0  0  0  0
  6  9  1  0  0  0  0
  7 15  1  0  0  0  0
  7 20  2  0  0  0  0
  8 22  1  0  0  0  0
  9 11  2  0  0  0  0
 10 17  1  6  0  0  0
 10  4  1  0  0  0  0
 11 12  1  0  0  0  0
 11 18  1  0  0  0  0
 12 14  1  0  0  0  0
 13 23  1  0  0  0  0
 13  1  1  0  0  0  0
 16  9  1  0  0  0  0
 16  8  1  0  0  0  0
 18 15  1  0  0  0  0
 19  7  1  0  0  0  0
 21  1  2  0  0  0  0
 22 19  1  0  0  0  0
 23 12  2  0  0  0  0
 24 25  1  0  0  0  0
 25 26  1  1  0  0  0
 25 27  1  0  0  0  0
 27 28  1  0  0  0  0
M  END
>  <MODEL>
8

>  <REMARK>
 VINA RESULT:      -6.9      2.171      5.133
  Name = 
  3 active torsions:
  status: ('A' for Active; 'I' for Inactive)
    1  A    between atoms: C_1  and  C_7
    2  A    between atoms: N_6  and  C_7
    3  A    between atoms: N_6  and  C_8
                            x       y       z     vdW  Elec       q    Type
                         _______ _______ _______ _____ _____    ______ ____

>  <TORSDO>
F 3

$$$$
=
 OpenBabel11032420083D

 28 33  0  0  1  0  0  0  0  0999 V2000
  190.2650  177.5100  139.5260 C   0  0  0  0  0  0  0  0  0  0  0  0
  191.3670  175.8720  136.5430 C   0  0  0  0  0  0  0  0  0  0  0  0
  189.9890  176.2180  136.0790 C   0  0  2  0  0  0  0  0  0  0  0  0
  189.4110  177.0620  137.1400 C   0  0  1  0  0  3  0  0  0  0  0  0
  191.2880  177.0510  140.5400 C   0  0  1  0  0  3  0  0  0  0  0  0
  192.2970  174.9810  136.0140 C   0  0  0  0  0  3  0  0  0  0  0  0
  196.9750  174.3800  137.7950 C   0  0  0  0  0  0  0  0  0  0  0  0
  195.5430  174.7010  135.4510 N   0  0  0  0  0  2  0  0  0  0  0  0
  193.4980  174.7570  136.7170 C   0  0  0  0  0  0  0  0  0  0  0  0
  189.0200  175.6410  137.0780 N   0  0  1  0  0  0  0  0  0  0  0  0
  193.7430  175.4360  137.9600 C   0  0  0  0  0  0  0  0  0  0  0  0
  192.7810  176.3580  138.4270 C   0  0  0  0  0  0  0  0  0  0  0  0
  190.4790  177.2410  138.1340 N   0  0  0  0  0  0  0  0  0  0  0  0
  192.9960  177.3250  139.9310 S   0  0  0  0  0  0  0  0  0  0  0  0
  195.8550  174.1260  138.7440 C   0  0  0  0  0  2  0  0  0  0  0  0
  194.4980  173.8750  136.0490 C   0  0  0  0  0  2  0  0  0  0  0  0
  189.1450  175.0970  135.7180 C   0  0  0  0  0  2  0  0  0  0  0  0
  194.9270  175.2480  138.7620 N   0  0  0  0  0  2  0  0  0  0  0  0
  197.1110  173.5320  136.6570 N   0  0  0  0  0  2  0  0  0  0  0  0
  197.7500  175.3580  137.9590 O   0  0  0  0  0  0  0  0  0  0  0  0
  189.1860  178.0400  139.9030 O   0  0  0  0  0  0  0  0  0  0  0  0
  196.7380  173.9540  135.3650 N   0  0  0  0  0  2  0  0  0  0  0  0
  191.6240  176.5480  137.6890 C   0  0  0  0  0  0  0  0  0  0  0  0
  191.1090  177.7480  141.8050 N   0  0  0  0  0  2  0  0  0  0  0  0
  191.2950  176.7740  142.8690 C   0  0  1  0  0  3  0  0  0  0  0  0
  191.3490  177.4780  144.2120 C   0  0  0  0  0  1  0  0  0  0  0  0
  190.1810  175.7300  142.8480 C   0  0  0  0  0  2  0  0  0  0  0  0
  188.8990  176.3270  143.1890 N   0  0  0  0  0  1  0  0  0  0  0  0
  1 21  2  0  0  0  0
  1  5  1  0  0  0  0
  2 23  1  0  0  0  0
  3 17  1  6  0  0  0
  3  2  1  0  0  0  0
  3 10  1  0  0  0  0
  3  4  1  0  0  0  0
  4 13  1  1  0  0  0
  5 24  1  1  0  0  0
  6  2  2  0  0  0  0
  6  9  1  0  0  0  0
  7 20  2  0  0  0  0
  7 15  1  0  0  0  0
  8 16  1  0  0  0  0
  9 11  2  0  0  0  0
 10 17  1  6  0  0  0
 10  4  1  0  0  0  0
 11 12  1  0  0  0  0
 11 18  1  0  0  0  0
 12 14  1  0  0  0  0
 13  1  1  0  0  0  0
 14  5  1  0  0  0  0
 15 18  1  0  0  0  0
 16  9  1  0  0  0  0
 19  7  1  0  0  0  0
 22  8  1  0  0  0  0
 22 19  1  0  0  0  0
 23 13  1  0  0  0  0
 23 12  2  0  0  0  0
 24 25  1  0  0  0  0
 25 26  1  1  0  0  0
 27 25  1  0  0  0  0
 27 28  1  0  0  0  0
M  END
>  <MODEL>
9

>  <REMARK>
 VINA RESULT:      -6.8      3.769      9.671
  Name = 
  3 active torsions:
  status: ('A' for Active; 'I' for Inactive)
    1  A    between atoms: C_1  and  C_7
    2  A    between atoms: N_6  and  C_7
    3  A    between atoms: N_6  and  C_8
                            x       y       z     vdW  Elec       q    Type
                         _______ _______ _______ _____ _____    ______ ____

>  <TORSDO>
F 3

$$$$
