=
 OpenBabel11032420533D

 42 47  0  0  1  0  0  0  0  0999 V2000
  190.9550  176.2540  138.3940 C   0  0  2  0  0  3  0  0  0  0  0  0
  192.1230  177.4830  140.1550 N   0  0  0  0  0  2  0  0  0  0  0  0
  189.6940  177.1450  140.2600 N   0  0  0  0  0  2  0  0  0  0  0  0
  190.9990  176.8550  140.8450 C   0  0  2  0  0  0  0  0  0  0  0  0
  190.8640  177.3820  139.4380 C   0  0  1  0  0  0  0  0  0  0  0  0
  190.9310  177.6790  142.1170 C   0  0  0  0  0  2  0  0  0  0  0  0
  191.2220  176.8010  143.3200 C   0  0  0  0  0  2  0  0  0  0  0  0
  189.9240  176.4650  144.0240 C   0  0  0  0  0  2  0  0  0  0  0  0
  189.0000  177.5820  143.8990 N   0  0  0  0  0  2  0  0  0  0  0  0
  187.6530  177.0330  143.9030 C   0  0  0  0  0  2  0  0  0  0  0  0
  183.6880  179.1970  145.4930 O   0  0  0  0  0  0  0  0  0  0  0  0
  184.8460  178.7660  145.7320 C   0  0  0  0  0  0  0  0  0  0  0  0
  187.4220  177.8480  146.1650 N   0  0  0  0  0  0  0  0  0  0  0  0
  186.8580  177.6410  145.0100 C   0  0  0  0  0  0  0  0  0  0  0  0
  186.6970  178.3430  147.3410 C   0  0  0  0  0  2  0  0  0  0  0  0
  185.5250  177.9980  144.7870 O   0  0  0  0  0  0  0  0  0  0  0  0
  185.4970  179.0800  146.9600 N   0  0  0  0  0  2  0  0  0  0  0  0
  192.3620  175.6740  138.2960 C   0  0  0  0  0  2  0  0  0  0  0  0
  192.7630  175.5920  136.9030 N   0  0  0  0  0  2  0  0  0  0  0  0
  195.9500  174.9120  137.7760 N   0  0  0  0  0  2  0  0  0  0  0  0
  193.7900  174.5700  136.8090 C   0  0  0  0  0  3  0  0  0  0  0  0
  195.9260  175.5530  136.5240 N   0  0  0  0  0  2  0  0  0  0  0  0
  194.5760  174.5390  138.0930 C   0  0  0  0  0  2  0  0  0  0  0  0
  194.8120  174.9810  135.7890 C   0  0  0  0  0  2  0  0  0  0  0  0
  190.5700  176.7670  137.0050 C   0  0  0  0  0  2  0  0  0  0  0  0
  186.3830  178.0200  137.0850 C   0  0  1  0  0  3  0  0  0  0  0  0
  187.5120  178.9730  136.8020 C   0  0  0  0  0  3  0  0  0  0  0  0
  188.7790  178.5560  136.7600 C   0  0  0  0  0  3  0  0  0  0  0  0
  185.7040  175.6580  136.5850 C   0  0  0  0  0  1  0  0  0  0  0  0
  188.1400  176.2050  136.9100 C   0  0  0  0  0  0  0  0  0  0  0  0
  186.7640  176.6280  136.8130 N   0  0  0  0  0  0  0  0  0  0  0  0
  189.1190  177.1330  136.9180 C   0  0  0  0  0  0  0  0  0  0  0  0
  188.4690  174.7420  136.9640 C   0  0  0  0  0  1  0  0  0  0  0  0
  184.0360  178.7770  139.9910 C   0  0  0  0  0  0  0  0  0  0  0  0
  186.3430  178.6340  140.8240 C   0  0  0  0  0  2  0  0  0  0  0  0
  184.9270  179.1280  140.9280 C   0  0  0  0  0  3  0  0  0  0  0  0
  184.4670  177.9260  138.8290 C   0  0  0  0  0  2  0  0  0  0  0  0
  186.7500  178.5170  139.4350 N   0  0  0  0  0  0  0  0  0  0  0  0
  185.9190  178.1710  138.5040 C   0  0  0  0  0  0  0  0  0  0  0  0
  182.7040  179.1840  140.0740 O   0  0  0  0  0  0  0  0  0  0  0  0
  181.8200  178.5330  140.8440 O   0  0  0  0  0  0  0  0  0  0  0  0
  181.0140  177.8380  139.9410 C   0  0  0  0  0  1  0  0  0  0  0  0
  1 25  1  6  0  0  0
  2  4  1  0  0  0  0
  3  4  1  0  0  0  0
  4  6  1  1  0  0  0
  5  1  1  6  0  0  0
  5  2  1  0  0  0  0
  5  3  1  0  0  0  0
  5  4  1  0  0  0  0
  6  7  1  0  0  0  0
  7  8  1  0  0  0  0
  9 10  1  0  0  0  0
  9  8  1  0  0  0  0
 10 14  1  0  0  0  0
 11 12  2  0  0  0  0
 12 17  1  0  0  0  0
 13 15  1  0  0  0  0
 14 13  2  0  0  0  0
 16 14  1  0  0  0  0
 16 12  1  0  0  0  0
 17 15  1  0  0  0  0
 18  1  1  0  0  0  0
 19 18  1  0  0  0  0
 20 23  1  0  0  0  0
 21 19  1  0  0  0  0
 21 23  1  0  0  0  0
 22 20  1  0  0  0  0
 24 22  1  0  0  0  0
 24 21  1  0  0  0  0
 26 39  1  1  0  0  0
 27 26  1  0  0  0  0
 28 27  2  0  0  0  0
 28 32  1  0  0  0  0
 29 31  1  0  0  0  0
 30 32  2  0  0  0  0
 30 33  1  0  0  0  0
 31 30  1  0  0  0  0
 31 26  1  0  0  0  0
 32 25  1  0  0  0  0
 34 40  1  0  0  0  0
 34 36  2  0  0  0  0
 35 36  1  0  0  0  0
 37 34  1  0  0  0  0
 38 35  1  0  0  0  0
 39 37  1  0  0  0  0
 39 38  2  0  0  0  0
 40 41  1  0  0  0  0
 42 41  1  0  0  0  0
M  END
>  <MODEL>
1

>  <REMARK>
 VINA RESULT:      -7.3      0.000      0.000
  Name = 
  15 active torsions:
  status: ('A' for Active; 'I' for Inactive)
    1  A    between atoms: C_2  and  C_39
    2  A    between atoms: N_3  and  C_8
    3  A    between atoms: N_3  and  C_16
    4  A    between atoms: C_5  and  O_32
    5  A    between atoms: N_6  and  C_15
    6  A    between atoms: N_6  and  C_17
    7  A    between atoms: C_8  and  C_21
    8  A    between atoms: C_10  and  C_13
    9  A    between atoms: C_10  and  C_34
   10  A    between atoms: C_13  and  C_16
   11  A    between atoms: C_17  and  C_26
   12  A    between atoms: C_26  and  C_30
   13  A    between atoms: C_26  and  C_37
   14  A    between atoms: C_27  and  C_30
   15  A    between atoms: O_31  and  O_32
                            x       y       z     vdW  Elec       q    Type
                         _______ _______ _______ _____ _____    ______ ____

>  <TORSDO>
F 15

$$$$
=
 OpenBabel11032420533D

 42 47  0  0  1  0  0  0  0  0999 V2000
  188.7250  177.8180  140.0250 C   0  0  2  0  0  3  0  0  0  0  0  0
  189.8470  177.5760  137.8680 N   0  0  0  0  0  2  0  0  0  0  0  0
  191.0180  177.0410  139.9570 N   0  0  0  0  0  2  0  0  0  0  0  0
  190.4590  176.5460  138.7040 C   0  0  2  0  0  0  0  0  0  0  0  0
  190.0640  177.8880  139.2680 C   0  0  1  0  0  0  0  0  0  0  0  0
  191.7260  176.2430  137.9270 C   0  0  0  0  0  2  0  0  0  0  0  0
  191.4760  175.1100  136.9490 C   0  0  0  0  0  2  0  0  0  0  0  0
  192.4990  174.0150  137.1750 C   0  0  0  0  0  2  0  0  0  0  0  0
  193.6940  174.5840  137.7780 N   0  0  0  0  0  2  0  0  0  0  0  0
  194.6470  173.4990  137.9560 C   0  0  0  0  0  2  0  0  0  0  0  0
  197.4610  175.4990  141.2750 O   0  0  0  0  0  0  0  0  0  0  0  0
  197.3160  175.0910  140.0940 C   0  0  0  0  0  0  0  0  0  0  0  0
  196.9040  174.2280  137.4960 N   0  0  0  0  0  0  0  0  0  0  0  0
  195.9680  174.0470  138.3830 C   0  0  0  0  0  0  0  0  0  0  0  0
  198.2640  174.6610  137.8340 C   0  0  0  0  0  2  0  0  0  0  0  0
  196.1780  174.3760  139.7260 O   0  0  0  0  0  0  0  0  0  0  0  0
  198.2990  175.3790  139.1030 N   0  0  0  0  0  2  0  0  0  0  0  0
  187.5520  178.2590  139.1570 C   0  0  0  0  0  2  0  0  0  0  0  0
  186.4300  178.6290  140.0010 N   0  0  0  0  0  2  0  0  0  0  0  0
  183.2490  177.8590  139.1830 N   0  0  0  0  0  2  0  0  0  0  0  0
  185.3400  179.0170  139.1230 C   0  0  0  0  0  3  0  0  0  0  0  0
  184.1380  177.1120  138.3890 N   0  0  0  0  0  2  0  0  0  0  0  0
  184.0360  178.8810  139.8630 C   0  0  0  0  0  2  0  0  0  0  0  0
  185.2120  178.0140  138.0120 C   0  0  0  0  0  2  0  0  0  0  0  0
  188.7510  178.7200  141.2600 C   0  0  0  0  0  2  0  0  0  0  0  0
  188.7100  176.5700  145.0650 C   0  0  1  0  0  3  0  0  0  0  0  0
  187.8630  176.1620  143.8920 C   0  0  0  0  0  3  0  0  0  0  0  0
  187.9150  176.8240  142.7340 C   0  0  0  0  0  3  0  0  0  0  0  0
  191.0050  177.4580  145.5500 C   0  0  0  0  0  1  0  0  0  0  0  0
  189.8170  178.1760  143.4490 C   0  0  0  0  0  0  0  0  0  0  0  0
  189.8660  177.3750  144.6490 N   0  0  0  0  0  0  0  0  0  0  0  0
  188.8570  177.9370  142.5330 C   0  0  0  0  0  0  0  0  0  0  0  0
  190.8520  179.2370  143.2180 C   0  0  0  0  0  1  0  0  0  0  0  0
  185.8500  178.6810  146.4390 C   0  0  0  0  0  0  0  0  0  0  0  0
  187.6630  178.5920  148.0940 C   0  0  0  0  0  2  0  0  0  0  0  0
  186.4620  179.2570  147.4820 C   0  0  0  0  0  3  0  0  0  0  0  0
  186.3890  177.3980  145.8690 C   0  0  0  0  0  2  0  0  0  0  0  0
  188.4400  177.8950  147.0850 N   0  0  0  0  0  0  0  0  0  0  0  0
  187.8820  177.3180  146.0690 C   0  0  0  0  0  0  0  0  0  0  0  0
  184.7100  179.2480  145.8690 O   0  0  0  0  0  0  0  0  0  0  0  0
  184.1370  178.7210  144.7760 O   0  0  0  0  0  0  0  0  0  0  0  0
  184.3590  179.6660  143.7740 C   0  0  0  0  0  1  0  0  0  0  0  0
  1 18  1  6  0  0  0
  1 25  1  0  0  0  0
  2  4  1  0  0  0  0
  2  5  1  0  0  0  0
  4  6  1  6  0  0  0
  4  5  1  0  0  0  0
  4  3  1  0  0  0  0
  5  3  1  0  0  0  0
  5  1  1  1  0  0  0
  7  8  1  0  0  0  0
  7  6  1  0  0  0  0
  8  9  1  0  0  0  0
  9 10  1  0  0  0  0
 10 14  1  0  0  0  0
 12 11  2  0  0  0  0
 13 15  1  0  0  0  0
 13 14  2  0  0  0  0
 14 16  1  0  0  0  0
 15 17  1  0  0  0  0
 16 12  1  0  0  0  0
 17 12  1  0  0  0  0
 18 19  1  0  0  0  0
 20 23  1  0  0  0  0
 21 23  1  0  0  0  0
 21 19  1  0  0  0  0
 22 20  1  0  0  0  0
 24 22  1  0  0  0  0
 24 21  1  0  0  0  0
 25 32  1  0  0  0  0
 26 39  1  1  0  0  0
 27 26  1  0  0  0  0
 28 27  2  0  0  0  0
 30 31  1  0  0  0  0
 31 26  1  0  0  0  0
 31 29  1  0  0  0  0
 32 28  1  0  0  0  0
 32 30  2  0  0  0  0
 33 30  1  0  0  0  0
 34 36  2  0  0  0  0
 36 35  1  0  0  0  0
 37 39  1  0  0  0  0
 37 34  1  0  0  0  0
 38 35  1  0  0  0  0
 39 38  2  0  0  0  0
 40 34  1  0  0  0  0
 41 40  1  0  0  0  0
 42 41  1  0  0  0  0
M  END
>  <MODEL>
2

>  <REMARK>
 VINA RESULT:      -7.2      3.257      8.947
  Name = 
  15 active torsions:
  status: ('A' for Active; 'I' for Inactive)
    1  A    between atoms: C_2  and  C_39
    2  A    between atoms: N_3  and  C_8
    3  A    between atoms: N_3  and  C_16
    4  A    between atoms: C_5  and  O_32
    5  A    between atoms: N_6  and  C_15
    6  A    between atoms: N_6  and  C_17
    7  A    between atoms: C_8  and  C_21
    8  A    between atoms: C_10  and  C_13
    9  A    between atoms: C_10  and  C_34
   10  A    between atoms: C_13  and  C_16
   11  A    between atoms: C_17  and  C_26
   12  A    between atoms: C_26  and  C_30
   13  A    between atoms: C_26  and  C_37
   14  A    between atoms: C_27  and  C_30
   15  A    between atoms: O_31  and  O_32
                            x       y       z     vdW  Elec       q    Type
                         _______ _______ _______ _____ _____    ______ ____

>  <TORSDO>
F 15

$$$$
=
 OpenBabel11032420533D

 42 47  0  0  1  0  0  0  0  0999 V2000
  187.5680  177.8160  140.6330 C   0  0  2  0  0  3  0  0  0  0  0  0
  186.6600  178.4630  142.8080 N   0  0  0  0  0  2  0  0  0  0  0  0
  185.6580  179.3030  140.7320 N   0  0  0  0  0  2  0  0  0  0  0  0
  185.4990  178.4740  141.9220 C   0  0  2  0  0  0  0  0  0  0  0  0
  186.8600  178.9170  141.4450 C   0  0  1  0  0  0  0  0  0  0  0  0
  184.5190  179.3100  142.7230 C   0  0  0  0  0  2  0  0  0  0  0  0
  183.6110  178.4060  143.5360 C   0  0  0  0  0  2  0  0  0  0  0  0
  183.4760  178.9580  144.9400 C   0  0  0  0  0  2  0  0  0  0  0  0
  184.7960  179.2640  145.4700 N   0  0  0  0  0  2  0  0  0  0  0  0
  185.0270  178.3750  146.5980 C   0  0  0  0  0  2  0  0  0  0  0  0
  189.1510  178.3740  149.0320 O   0  0  0  0  0  0  0  0  0  0  0  0
  188.5320  178.1150  147.9680 C   0  0  0  0  0  0  0  0  0  0  0  0
  187.1150  177.6280  145.6390 N   0  0  0  0  0  0  0  0  0  0  0  0
  186.4790  178.0440  146.6970 C   0  0  0  0  0  0  0  0  0  0  0  0
  188.5120  177.1800  145.6610 C   0  0  0  0  0  2  0  0  0  0  0  0
  187.1420  178.2030  147.9180 O   0  0  0  0  0  0  0  0  0  0  0  0
  189.2420  177.7550  146.7860 N   0  0  0  0  0  2  0  0  0  0  0  0
  188.6120  177.0750  141.4610 C   0  0  0  0  0  2  0  0  0  0  0  0
  189.7340  177.9550  141.7350 N   0  0  0  0  0  2  0  0  0  0  0  0
  191.3070  176.0020  143.9910 N   0  0  0  0  0  2  0  0  0  0  0  0
  190.9060  177.1160  141.9150 C   0  0  0  0  0  3  0  0  0  0  0  0
  191.7580  177.3280  144.1140 N   0  0  0  0  0  2  0  0  0  0  0  0
  190.5370  175.9230  142.7560 C   0  0  0  0  0  2  0  0  0  0  0  0
  191.9120  177.8380  142.7640 C   0  0  0  0  0  2  0  0  0  0  0  0
  188.2790  178.4100  139.4160 C   0  0  0  0  0  2  0  0  0  0  0  0
  186.7950  176.3060  135.8840 C   0  0  1  0  0  3  0  0  0  0  0  0
  186.1050  177.5110  136.4620 C   0  0  0  0  0  3  0  0  0  0  0  0
  186.5960  178.1470  137.5280 C   0  0  0  0  0  3  0  0  0  0  0  0
  189.1140  175.4480  135.4650 C   0  0  0  0  0  1  0  0  0  0  0  0
  188.6600  176.8450  137.5100 C   0  0  0  0  0  0  0  0  0  0  0  0
  188.2090  176.2470  136.2770 N   0  0  0  0  0  0  0  0  0  0  0  0
  187.8720  177.7410  138.1390 C   0  0  0  0  0  0  0  0  0  0  0  0
  190.0110  176.4930  138.0600 C   0  0  0  0  0  1  0  0  0  0  0  0
  183.8880  173.9370  136.5640 C   0  0  0  0  0  0  0  0  0  0  0  0
  185.9240  173.0510  137.6170 C   0  0  0  0  0  2  0  0  0  0  0  0
  184.4280  173.1700  137.5210 C   0  0  0  0  0  3  0  0  0  0  0  0
  184.7800  174.6970  135.6220 C   0  0  0  0  0  2  0  0  0  0  0  0
  186.5690  174.2910  137.2230 N   0  0  0  0  0  0  0  0  0  0  0  0
  186.0810  175.0520  136.2960 C   0  0  0  0  0  0  0  0  0  0  0  0
  182.5050  174.0420  136.4200 O   0  0  0  0  0  0  0  0  0  0  0  0
  181.6680  173.6730  137.4020 O   0  0  0  0  0  0  0  0  0  0  0  0
  180.9130  172.6380  136.8490 C   0  0  0  0  0  1  0  0  0  0  0  0
  1 25  1  6  0  0  0
  1 18  1  0  0  0  0
  3  5  1  0  0  0  0
  3  4  1  0  0  0  0
  4  6  1  1  0  0  0
  4  2  1  0  0  0  0
  5  1  1  6  0  0  0
  5  4  1  0  0  0  0
  5  2  1  0  0  0  0
  6  7  1  0  0  0  0
  7  8  1  0  0  0  0
  8  9  1  0  0  0  0
  9 10  1  0  0  0  0
 10 14  1  0  0  0  0
 12 11  2  0  0  0  0
 13 15  1  0  0  0  0
 13 14  2  0  0  0  0
 14 16  1  0  0  0  0
 15 17  1  0  0  0  0
 16 12  1  0  0  0  0
 17 12  1  0  0  0  0
 18 19  1  0  0  0  0
 19 21  1  0  0  0  0
 20 22  1  0  0  0  0
 21 23  1  0  0  0  0
 21 24  1  0  0  0  0
 23 20  1  0  0  0  0
 24 22  1  0  0  0  0
 26 31  1  0  0  0  0
 26 39  1  1  0  0  0
 26 27  1  0  0  0  0
 27 28  2  0  0  0  0
 28 32  1  0  0  0  0
 29 31  1  0  0  0  0
 30 33  1  0  0  0  0
 30 32  2  0  0  0  0
 31 30  1  0  0  0  0
 32 25  1  0  0  0  0
 34 36  2  0  0  0  0
 36 35  1  0  0  0  0
 37 39  1  0  0  0  0
 37 34  1  0  0  0  0
 38 35  1  0  0  0  0
 39 38  2  0  0  0  0
 40 34  1  0  0  0  0
 40 41  1  0  0  0  0
 42 41  1  0  0  0  0
M  END
>  <MODEL>
3

>  <REMARK>
 VINA RESULT:      -7.2      3.171      5.179
  Name = 
  15 active torsions:
  status: ('A' for Active; 'I' for Inactive)
    1  A    between atoms: C_2  and  C_39
    2  A    between atoms: N_3  and  C_8
    3  A    between atoms: N_3  and  C_16
    4  A    between atoms: C_5  and  O_32
    5  A    between atoms: N_6  and  C_15
    6  A    between atoms: N_6  and  C_17
    7  A    between atoms: C_8  and  C_21
    8  A    between atoms: C_10  and  C_13
    9  A    between atoms: C_10  and  C_34
   10  A    between atoms: C_13  and  C_16
   11  A    between atoms: C_17  and  C_26
   12  A    between atoms: C_26  and  C_30
   13  A    between atoms: C_26  and  C_37
   14  A    between atoms: C_27  and  C_30
   15  A    between atoms: O_31  and  O_32
                            x       y       z     vdW  Elec       q    Type
                         _______ _______ _______ _____ _____    ______ ____

>  <TORSDO>
F 15

$$$$
=
 OpenBabel11032420533D

 42 47  0  0  1  0  0  0  0  0999 V2000
  184.9100  178.6530  141.4050 C   0  0  2  0  0  3  0  0  0  0  0  0
  185.2620  179.8270  143.5190 N   0  0  0  0  0  2  0  0  0  0  0  0
  183.2760  178.4260  143.1790 N   0  0  0  0  0  2  0  0  0  0  0  0
  184.5290  178.6220  143.9000 C   0  0  2  0  0  0  0  0  0  0  0  0
  184.2410  179.3440  142.6080 C   0  0  1  0  0  0  0  0  0  0  0  0
  184.0110  179.0080  145.2720 C   0  0  0  0  0  2  0  0  0  0  0  0
  184.7230  178.2000  146.3410 C   0  0  0  0  0  2  0  0  0  0  0  0
  185.8390  179.0300  146.9410 C   0  0  0  0  0  2  0  0  0  0  0  0
  186.9710  178.1700  147.2510 N   0  0  0  0  0  2  0  0  0  0  0  0
  187.4950  177.6700  145.9900 C   0  0  0  0  0  2  0  0  0  0  0  0
  191.8470  178.1020  144.0390 O   0  0  0  0  0  0  0  0  0  0  0  0
  191.1370  177.7360  145.0110 C   0  0  0  0  0  0  0  0  0  0  0  0
  189.5050  176.9000  147.0860 N   0  0  0  0  0  0  0  0  0  0  0  0
  188.9780  177.5290  146.0740 C   0  0  0  0  0  0  0  0  0  0  0  0
  190.9520  176.8000  147.3100 C   0  0  0  0  0  2  0  0  0  0  0  0
  189.7810  178.0550  145.0580 O   0  0  0  0  0  0  0  0  0  0  0  0
  191.7000  176.9620  146.0680 N   0  0  0  0  0  2  0  0  0  0  0  0
  186.4200  178.8650  141.3880 C   0  0  0  0  0  2  0  0  0  0  0  0
  186.9580  178.4510  140.1040 N   0  0  0  0  0  2  0  0  0  0  0  0
  189.8300  177.5500  138.5820 N   0  0  0  0  0  2  0  0  0  0  0  0
  188.3980  178.6290  140.1630 C   0  0  0  0  0  3  0  0  0  0  0  0
  189.5140  176.6210  139.5900 N   0  0  0  0  0  2  0  0  0  0  0  0
  188.9460  178.6960  138.7620 C   0  0  0  0  0  2  0  0  0  0  0  0
  189.0320  177.3890  140.7230 C   0  0  0  0  0  2  0  0  0  0  0  0
  184.3520  179.1950  140.0880 C   0  0  0  0  0  2  0  0  0  0  0  0
  181.3520  176.5200  138.3720 C   0  0  1  0  0  3  0  0  0  0  0  0
  182.2350  176.1200  139.5210 C   0  0  0  0  0  3  0  0  0  0  0  0
  183.1260  176.9680  140.0400 C   0  0  0  0  0  3  0  0  0  0  0  0
  180.0990  178.5230  137.5300 C   0  0  0  0  0  1  0  0  0  0  0  0
  182.2950  178.8450  138.7190 C   0  0  0  0  0  0  0  0  0  0  0  0
  181.2380  177.9800  138.2540 N   0  0  0  0  0  0  0  0  0  0  0  0
  183.2320  178.3540  139.5570 C   0  0  0  0  0  0  0  0  0  0  0  0
  182.3230  180.2830  138.2950 C   0  0  0  0  0  1  0  0  0  0  0  0
  183.2690  174.1660  136.0680 C   0  0  0  0  0  0  0  0  0  0  0  0
  182.5240  176.1280  134.7900 C   0  0  0  0  0  2  0  0  0  0  0  0
  183.4570  174.9700  135.0130 C   0  0  0  0  0  3  0  0  0  0  0  0
  182.1530  174.4480  137.0350 C   0  0  0  0  0  2  0  0  0  0  0  0
  182.0660  176.6750  136.0540 N   0  0  0  0  0  0  0  0  0  0  0  0
  181.8640  175.9280  137.0920 C   0  0  0  0  0  0  0  0  0  0  0  0
  184.0900  173.0600  136.2870 O   0  0  0  0  0  0  0  0  0  0  0  0
  184.6070  172.8000  137.4980 O   0  0  0  0  0  0  0  0  0  0  0  0
  185.9120  173.2910  137.4340 C   0  0  0  0  0  1  0  0  0  0  0  0
  1 25  1  6  0  0  0
  2  4  1  0  0  0  0
  3  4  1  0  0  0  0
  4  6  1  1  0  0  0
  5  1  1  6  0  0  0
  5  3  1  0  0  0  0
  5  2  1  0  0  0  0
  5  4  1  0  0  0  0
  6  7  1  0  0  0  0
  7  8  1  0  0  0  0
  8  9  1  0  0  0  0
 10 14  1  0  0  0  0
 10  9  1  0  0  0  0
 11 12  2  0  0  0  0
 12 16  1  0  0  0  0
 12 17  1  0  0  0  0
 13 15  1  0  0  0  0
 14 13  2  0  0  0  0
 16 14  1  0  0  0  0
 17 15  1  0  0  0  0
 18  1  1  0  0  0  0
 19 21  1  0  0  0  0
 19 18  1  0  0  0  0
 20 23  1  0  0  0  0
 20 22  1  0  0  0  0
 21 24  1  0  0  0  0
 22 24  1  0  0  0  0
 23 21  1  0  0  0  0
 26 39  1  6  0  0  0
 26 27  1  0  0  0  0
 27 28  2  0  0  0  0
 29 31  1  0  0  0  0
 30 32  2  0  0  0  0
 31 26  1  0  0  0  0
 31 30  1  0  0  0  0
 32 28  1  0  0  0  0
 32 25  1  0  0  0  0
 33 30  1  0  0  0  0
 34 40  1  0  0  0  0
 34 37  1  0  0  0  0
 35 36  1  0  0  0  0
 35 38  1  0  0  0  0
 36 34  2  0  0  0  0
 37 39  1  0  0  0  0
 38 39  2  0  0  0  0
 40 41  1  0  0  0  0
 42 41  1  0  0  0  0
M  END
>  <MODEL>
4

>  <REMARK>
 VINA RESULT:      -7.0      3.733      6.571
  Name = 
  15 active torsions:
  status: ('A' for Active; 'I' for Inactive)
    1  A    between atoms: C_2  and  C_39
    2  A    between atoms: N_3  and  C_8
    3  A    between atoms: N_3  and  C_16
    4  A    between atoms: C_5  and  O_32
    5  A    between atoms: N_6  and  C_15
    6  A    between atoms: N_6  and  C_17
    7  A    between atoms: C_8  and  C_21
    8  A    between atoms: C_10  and  C_13
    9  A    between atoms: C_10  and  C_34
   10  A    between atoms: C_13  and  C_16
   11  A    between atoms: C_17  and  C_26
   12  A    between atoms: C_26  and  C_30
   13  A    between atoms: C_26  and  C_37
   14  A    between atoms: C_27  and  C_30
   15  A    between atoms: O_31  and  O_32
                            x       y       z     vdW  Elec       q    Type
                         _______ _______ _______ _____ _____    ______ ____

>  <TORSDO>
F 15

$$$$
=
 OpenBabel11032420533D

 42 47  0  0  1  0  0  0  0  0999 V2000
  184.3550  178.4340  140.3970 C   0  0  2  0  0  3  0  0  0  0  0  0
  185.3490  179.5990  142.3020 N   0  0  0  0  0  2  0  0  0  0  0  0
  183.0740  178.6880  142.4370 N   0  0  0  0  0  2  0  0  0  0  0  0
  184.4520  178.6210  142.9130 C   0  0  2  0  0  0  0  0  0  0  0  0
  184.0940  179.3240  141.6270 C   0  0  1  0  0  0  0  0  0  0  0  0
  184.2980  179.1870  144.3110 C   0  0  0  0  0  2  0  0  0  0  0  0
  184.8550  178.2100  145.3300 C   0  0  0  0  0  2  0  0  0  0  0  0
  186.0340  178.8410  146.0410 C   0  0  0  0  0  2  0  0  0  0  0  0
  187.0860  177.8490  146.2120 N   0  0  0  0  0  2  0  0  0  0  0  0
  187.4120  177.3320  144.8930 C   0  0  0  0  0  2  0  0  0  0  0  0
  191.9220  176.9150  146.4470 O   0  0  0  0  0  0  0  0  0  0  0  0
  191.1300  177.2340  145.5230 C   0  0  0  0  0  0  0  0  0  0  0  0
  189.3220  177.9710  143.5590 N   0  0  0  0  0  0  0  0  0  0  0  0
  188.8830  177.4270  144.6580 C   0  0  0  0  0  0  0  0  0  0  0  0
  190.7420  178.0160  143.1920 C   0  0  0  0  0  2  0  0  0  0  0  0
  189.7690  176.9490  145.6280 O   0  0  0  0  0  0  0  0  0  0  0  0
  191.6030  177.9180  144.3660 N   0  0  0  0  0  2  0  0  0  0  0  0
  185.7900  178.5550  139.8960 C   0  0  0  0  0  2  0  0  0  0  0  0
  185.8080  178.5090  138.4450 N   0  0  0  0  0  2  0  0  0  0  0  0
  189.1550  178.9020  138.5820 N   0  0  0  0  0  2  0  0  0  0  0  0
  187.0580  177.8860  138.0490 C   0  0  0  0  0  3  0  0  0  0  0  0
  188.6500  179.5260  137.4260 N   0  0  0  0  0  2  0  0  0  0  0  0
  188.0790  178.0890  139.1360 C   0  0  0  0  0  2  0  0  0  0  0  0
  187.6410  178.6330  136.8840 C   0  0  0  0  0  2  0  0  0  0  0  0
  183.4280  178.8170  139.2430 C   0  0  0  0  0  2  0  0  0  0  0  0
  180.6150  175.5880  138.3690 C   0  0  1  0  0  3  0  0  0  0  0  0
  181.6560  175.4890  139.4500 C   0  0  0  0  0  3  0  0  0  0  0  0
  182.4860  176.5020  139.7090 C   0  0  0  0  0  3  0  0  0  0  0  0
  179.0460  177.2730  137.3740 C   0  0  0  0  0  1  0  0  0  0  0  0
  181.2980  178.0220  138.2140 C   0  0  0  0  0  0  0  0  0  0  0  0
  180.3120  176.9850  138.0310 N   0  0  0  0  0  0  0  0  0  0  0  0
  182.3700  177.7850  138.9980 C   0  0  0  0  0  0  0  0  0  0  0  0
  181.1050  179.3590  137.5620 C   0  0  0  0  0  1  0  0  0  0  0  0
  181.8640  172.6730  136.2560 C   0  0  0  0  0  0  0  0  0  0  0  0
  182.0770  174.7570  134.9740 C   0  0  0  0  0  2  0  0  0  0  0  0
  182.4830  173.3420  135.2740 C   0  0  0  0  0  3  0  0  0  0  0  0
  180.7970  173.3530  137.0690 C   0  0  0  0  0  2  0  0  0  0  0  0
  181.6680  175.4480  136.1840 N   0  0  0  0  0  0  0  0  0  0  0  0
  181.0590  174.8360  137.1490 C   0  0  0  0  0  0  0  0  0  0  0  0
  182.1870  171.3460  136.5400 O   0  0  0  0  0  0  0  0  0  0  0  0
  183.4570  170.9630  136.7470 O   0  0  0  0  0  0  0  0  0  0  0  0
  183.5860  169.7760  136.0250 C   0  0  0  0  0  1  0  0  0  0  0  0
  1 25  1  6  0  0  0
  2  4  1  0  0  0  0
  3  4  1  0  0  0  0
  4  6  1  1  0  0  0
  5  1  1  6  0  0  0
  5  2  1  0  0  0  0
  5  3  1  0  0  0  0
  5  4  1  0  0  0  0
  6  7  1  0  0  0  0
  7  8  1  0  0  0  0
  8  9  1  0  0  0  0
 10  9  1  0  0  0  0
 12 16  1  0  0  0  0
 12 11  2  0  0  0  0
 13 14  2  0  0  0  0
 14 10  1  0  0  0  0
 14 16  1  0  0  0  0
 15 13  1  0  0  0  0
 15 17  1  0  0  0  0
 17 12  1  0  0  0  0
 18  1  1  0  0  0  0
 19 18  1  0  0  0  0
 20 23  1  0  0  0  0
 21 19  1  0  0  0  0
 21 23  1  0  0  0  0
 22 20  1  0  0  0  0
 24 22  1  0  0  0  0
 24 21  1  0  0  0  0
 26 39  1  6  0  0  0
 26 27  1  0  0  0  0
 27 28  2  0  0  0  0
 29 31  1  0  0  0  0
 30 32  2  0  0  0  0
 31 30  1  0  0  0  0
 31 26  1  0  0  0  0
 32 25  1  0  0  0  0
 32 28  1  0  0  0  0
 33 30  1  0  0  0  0
 34 40  1  0  0  0  0
 34 37  1  0  0  0  0
 35 36  1  0  0  0  0
 35 38  1  0  0  0  0
 36 34  2  0  0  0  0
 37 39  1  0  0  0  0
 38 39  2  0  0  0  0
 40 41  1  0  0  0  0
 42 41  1  0  0  0  0
M  END
>  <MODEL>
5

>  <REMARK>
 VINA RESULT:      -6.9      4.017      7.035
  Name = 
  15 active torsions:
  status: ('A' for Active; 'I' for Inactive)
    1  A    between atoms: C_2  and  C_39
    2  A    between atoms: N_3  and  C_8
    3  A    between atoms: N_3  and  C_16
    4  A    between atoms: C_5  and  O_32
    5  A    between atoms: N_6  and  C_15
    6  A    between atoms: N_6  and  C_17
    7  A    between atoms: C_8  and  C_21
    8  A    between atoms: C_10  and  C_13
    9  A    between atoms: C_10  and  C_34
   10  A    between atoms: C_13  and  C_16
   11  A    between atoms: C_17  and  C_26
   12  A    between atoms: C_26  and  C_30
   13  A    between atoms: C_26  and  C_37
   14  A    between atoms: C_27  and  C_30
   15  A    between atoms: O_31  and  O_32
                            x       y       z     vdW  Elec       q    Type
                         _______ _______ _______ _____ _____    ______ ____

>  <TORSDO>
F 15

$$$$
=
 OpenBabel11032420533D

 42 47  0  0  1  0  0  0  0  0999 V2000
  186.7480  177.4490  144.5380 C   0  0  2  0  0  3  0  0  0  0  0  0
  185.3130  179.3800  144.9670 N   0  0  0  0  0  2  0  0  0  0  0  0
  184.8610  177.8760  143.0810 N   0  0  0  0  0  2  0  0  0  0  0  0
  184.4140  178.3960  144.3690 C   0  0  2  0  0  0  0  0  0  0  0  0
  185.8460  178.5320  143.9170 C   0  0  1  0  0  0  0  0  0  0  0  0
  183.2550  179.2730  143.9360 C   0  0  0  0  0  2  0  0  0  0  0  0
  181.9410  178.6330  144.3440 C   0  0  0  0  0  2  0  0  0  0  0  0
  180.8340  179.1350  143.4390 C   0  0  0  0  0  2  0  0  0  0  0  0
  180.4910  178.1020  142.4730 N   0  0  0  0  0  2  0  0  0  0  0  0
  180.5080  178.7190  141.1560 C   0  0  0  0  0  2  0  0  0  0  0  0
  184.9270  179.7530  139.6270 O   0  0  0  0  0  0  0  0  0  0  0  0
  183.9630  178.9440  139.6590 C   0  0  0  0  0  0  0  0  0  0  0  0
  181.7790  177.2440  139.7260 N   0  0  0  0  0  0  0  0  0  0  0  0
  181.7560  178.3380  140.4310 C   0  0  0  0  0  0  0  0  0  0  0  0
  182.9850  176.7340  139.0650 C   0  0  0  0  0  2  0  0  0  0  0  0
  182.8780  179.1700  140.5040 O   0  0  0  0  0  0  0  0  0  0  0  0
  183.9490  177.8000  138.8100 N   0  0  0  0  0  2  0  0  0  0  0  0
  187.9970  178.0420  145.1820 C   0  0  0  0  0  2  0  0  0  0  0  0
  188.5360  177.1080  146.1550 N   0  0  0  0  0  2  0  0  0  0  0  0
  191.9020  176.9050  146.0460 N   0  0  0  0  0  2  0  0  0  0  0  0
  189.7450  177.7030  146.6980 C   0  0  0  0  0  3  0  0  0  0  0  0
  191.4060  176.0510  147.0480 N   0  0  0  0  0  2  0  0  0  0  0  0
  190.7970  177.7570  145.6230 C   0  0  0  0  0  2  0  0  0  0  0  0
  190.3420  176.7770  147.7180 C   0  0  0  0  0  2  0  0  0  0  0  0
  187.2060  176.4480  143.4760 C   0  0  0  0  0  2  0  0  0  0  0  0
  189.6330  178.1350  140.2550 C   0  0  1  0  0  3  0  0  0  0  0  0
  188.2990  178.7050  140.6520 C   0  0  0  0  0  3  0  0  0  0  0  0
  187.5910  178.1820  141.6570 C   0  0  0  0  0  3  0  0  0  0  0  0
  191.6720  177.1270  141.3120 C   0  0  0  0  0  1  0  0  0  0  0  0
  189.4080  176.6980  142.3290 C   0  0  0  0  0  0  0  0  0  0  0  0
  190.2340  177.3500  141.3410 N   0  0  0  0  0  0  0  0  0  0  0  0
  188.1200  177.0730  142.4660 C   0  0  0  0  0  0  0  0  0  0  0  0
  189.9980  175.6400  143.2140 C   0  0  0  0  0  1  0  0  0  0  0  0
  187.9460  176.4500  137.2820 C   0  0  0  0  0  0  0  0  0  0  0  0
  190.1690  175.4620  137.6240 C   0  0  0  0  0  2  0  0  0  0  0  0
  188.7550  175.3950  137.1190 C   0  0  0  0  0  3  0  0  0  0  0  0
  188.4470  177.6750  137.9970 C   0  0  0  0  0  2  0  0  0  0  0  0
  190.2520  176.2680  138.8290 N   0  0  0  0  0  0  0  0  0  0  0  0
  189.4930  177.3000  139.0160 C   0  0  0  0  0  0  0  0  0  0  0  0
  186.6390  176.4400  136.7940 O   0  0  0  0  0  0  0  0  0  0  0  0
  186.1030  177.5190  136.2050 O   0  0  0  0  0  0  0  0  0  0  0  0
  185.9590  177.1520  134.8660 C   0  0  0  0  0  1  0  0  0  0  0  0
  1 25  1  6  0  0  0
  1 18  1  0  0  0  0
  3  5  1  0  0  0  0
  3  4  1  0  0  0  0
  4  6  1  6  0  0  0
  4  2  1  0  0  0  0
  5  4  1  0  0  0  0
  5  1  1  1  0  0  0
  5  2  1  0  0  0  0
  6  7  1  0  0  0  0
  8  7  1  0  0  0  0
  9  8  1  0  0  0  0
 10  9  1  0  0  0  0
 11 12  2  0  0  0  0
 12 16  1  0  0  0  0
 13 14  2  0  0  0  0
 14 16  1  0  0  0  0
 14 10  1  0  0  0  0
 15 13  1  0  0  0  0
 17 15  1  0  0  0  0
 17 12  1  0  0  0  0
 18 19  1  0  0  0  0
 19 21  1  0  0  0  0
 20 22  1  0  0  0  0
 21 24  1  0  0  0  0
 22 24  1  0  0  0  0
 23 20  1  0  0  0  0
 23 21  1  0  0  0  0
 26 39  1  6  0  0  0
 26 27  1  0  0  0  0
 26 31  1  0  0  0  0
 27 28  2  0  0  0  0
 28 32  1  0  0  0  0
 29 31  1  0  0  0  0
 30 32  2  0  0  0  0
 30 33  1  0  0  0  0
 31 30  1  0  0  0  0
 32 25  1  0  0  0  0
 34 37  1  0  0  0  0
 35 38  1  0  0  0  0
 36 34  2  0  0  0  0
 36 35  1  0  0  0  0
 37 39  1  0  0  0  0
 38 39  2  0  0  0  0
 40 34  1  0  0  0  0
 41 40  1  0  0  0  0
 42 41  1  0  0  0  0
M  END
>  <MODEL>
6

>  <REMARK>
 VINA RESULT:      -6.8      2.715      7.539
  Name = 
  15 active torsions:
  status: ('A' for Active; 'I' for Inactive)
    1  A    between atoms: C_2  and  C_39
    2  A    between atoms: N_3  and  C_8
    3  A    between atoms: N_3  and  C_16
    4  A    between atoms: C_5  and  O_32
    5  A    between atoms: N_6  and  C_15
    6  A    between atoms: N_6  and  C_17
    7  A    between atoms: C_8  and  C_21
    8  A    between atoms: C_10  and  C_13
    9  A    between atoms: C_10  and  C_34
   10  A    between atoms: C_13  and  C_16
   11  A    between atoms: C_17  and  C_26
   12  A    between atoms: C_26  and  C_30
   13  A    between atoms: C_26  and  C_37
   14  A    between atoms: C_27  and  C_30
   15  A    between atoms: O_31  and  O_32
                            x       y       z     vdW  Elec       q    Type
                         _______ _______ _______ _____ _____    ______ ____

>  <TORSDO>
F 15

$$$$
=
 OpenBabel11032420533D

 42 47  0  0  1  0  0  0  0  0999 V2000
  188.8000  177.8070  139.8780 C   0  0  2  0  0  3  0  0  0  0  0  0
  189.8930  177.4040  137.7290 N   0  0  0  0  0  2  0  0  0  0  0  0
  190.7540  176.3790  139.7860 N   0  0  0  0  0  2  0  0  0  0  0  0
  190.1290  176.1760  138.4830 C   0  0  2  0  0  0  0  0  0  0  0  0
  190.1310  177.5260  139.1560 C   0  0  1  0  0  0  0  0  0  0  0  0
  191.2800  175.5640  137.7080 C   0  0  0  0  0  2  0  0  0  0  0  0
  190.8960  174.1800  137.2170 C   0  0  0  0  0  2  0  0  0  0  0  0
  190.1310  174.3020  135.9150 C   0  0  0  0  0  2  0  0  0  0  0  0
  188.9430  173.4630  135.9690 N   0  0  0  0  0  2  0  0  0  0  0  0
  187.8600  174.2070  135.3440 C   0  0  0  0  0  2  0  0  0  0  0  0
  183.0920  173.8220  135.1250 O   0  0  0  0  0  0  0  0  0  0  0  0
  184.1500  173.6940  135.7930 C   0  0  0  0  0  0  0  0  0  0  0  0
  186.5150  173.4950  137.2200 N   0  0  0  0  0  0  0  0  0  0  0  0
  186.5560  173.8210  135.9600 C   0  0  0  0  0  0  0  0  0  0  0  0
  185.3040  173.0030  137.8870 C   0  0  0  0  0  2  0  0  0  0  0  0
  185.3950  173.8320  135.1810 O   0  0  0  0  0  0  0  0  0  0  0  0
  184.0950  173.4360  137.1930 N   0  0  0  0  0  2  0  0  0  0  0  0
  187.7910  178.5040  138.9700 C   0  0  0  0  0  2  0  0  0  0  0  0
  186.5160  178.6230  139.6550 N   0  0  0  0  0  2  0  0  0  0  0  0
  184.1380  176.9240  137.9710 N   0  0  0  0  0  2  0  0  0  0  0  0
  185.4930  178.7780  138.6380 C   0  0  0  0  0  3  0  0  0  0  0  0
  185.3600  176.8410  137.2810 N   0  0  0  0  0  2  0  0  0  0  0  0
  184.2970  177.9400  139.0060 C   0  0  0  0  0  2  0  0  0  0  0  0
  185.9660  178.1580  137.3540 C   0  0  0  0  0  2  0  0  0  0  0  0
  189.0220  178.7050  141.0960 C   0  0  0  0  0  2  0  0  0  0  0  0
  188.6650  176.5740  144.8960 C   0  0  1  0  0  3  0  0  0  0  0  0
  187.9360  176.1460  143.6520 C   0  0  0  0  0  3  0  0  0  0  0  0
  188.0840  176.8030  142.4990 C   0  0  0  0  0  3  0  0  0  0  0  0
  190.8910  177.5020  145.5840 C   0  0  0  0  0  1  0  0  0  0  0  0
  189.8900  178.1890  143.3780 C   0  0  0  0  0  0  0  0  0  0  0  0
  189.8410  177.3960  144.5830 N   0  0  0  0  0  0  0  0  0  0  0  0
  189.0220  177.9300  142.3790 C   0  0  0  0  0  0  0  0  0  0  0  0
  190.9250  179.2660  143.2360 C   0  0  0  0  0  1  0  0  0  0  0  0
  185.7490  178.7810  145.9700 C   0  0  0  0  0  0  0  0  0  0  0  0
  187.2810  178.4770  147.8660 C   0  0  0  0  0  2  0  0  0  0  0  0
  186.2250  179.2530  147.1300 C   0  0  0  0  0  3  0  0  0  0  0  0
  186.2970  177.5020  145.4000 C   0  0  0  0  0  2  0  0  0  0  0  0
  188.1620  177.7910  146.9380 N   0  0  0  0  0  0  0  0  0  0  0  0
  187.7350  177.3130  145.8140 C   0  0  0  0  0  0  0  0  0  0  0  0
  184.7430  179.4540  145.2760 O   0  0  0  0  0  0  0  0  0  0  0  0
  183.4460  179.1650  145.4680 O   0  0  0  0  0  0  0  0  0  0  0  0
  182.9390  178.9660  144.1830 C   0  0  0  0  0  1  0  0  0  0  0  0
  1 18  1  6  0  0  0
  1 25  1  0  0  0  0
  2  4  1  0  0  0  0
  2  5  1  0  0  0  0
  4  6  1  6  0  0  0
  4  5  1  0  0  0  0
  4  3  1  0  0  0  0
  5  3  1  0  0  0  0
  5  1  1  1  0  0  0
  7  6  1  0  0  0  0
  8  9  1  0  0  0  0
  8  7  1  0  0  0  0
 10 14  1  0  0  0  0
 10  9  1  0  0  0  0
 11 12  2  0  0  0  0
 12 17  1  0  0  0  0
 13 15  1  0  0  0  0
 14 13  2  0  0  0  0
 16 12  1  0  0  0  0
 16 14  1  0  0  0  0
 17 15  1  0  0  0  0
 18 19  1  0  0  0  0
 20 23  1  0  0  0  0
 21 23  1  0  0  0  0
 21 19  1  0  0  0  0
 22 24  1  0  0  0  0
 22 20  1  0  0  0  0
 24 21  1  0  0  0  0
 25 32  1  0  0  0  0
 26 39  1  1  0  0  0
 27 26  1  0  0  0  0
 28 27  2  0  0  0  0
 30 31  1  0  0  0  0
 31 26  1  0  0  0  0
 31 29  1  0  0  0  0
 32 28  1  0  0  0  0
 32 30  2  0  0  0  0
 33 30  1  0  0  0  0
 34 36  2  0  0  0  0
 36 35  1  0  0  0  0
 37 39  1  0  0  0  0
 37 34  1  0  0  0  0
 38 35  1  0  0  0  0
 39 38  2  0  0  0  0
 40 41  1  0  0  0  0
 40 34  1  0  0  0  0
 42 41  1  0  0  0  0
M  END
>  <MODEL>
7

>  <REMARK>
 VINA RESULT:      -6.7      2.537      7.970
  Name = 
  15 active torsions:
  status: ('A' for Active; 'I' for Inactive)
    1  A    between atoms: C_2  and  C_39
    2  A    between atoms: N_3  and  C_8
    3  A    between atoms: N_3  and  C_16
    4  A    between atoms: C_5  and  O_32
    5  A    between atoms: N_6  and  C_15
    6  A    between atoms: N_6  and  C_17
    7  A    between atoms: C_8  and  C_21
    8  A    between atoms: C_10  and  C_13
    9  A    between atoms: C_10  and  C_34
   10  A    between atoms: C_13  and  C_16
   11  A    between atoms: C_17  and  C_26
   12  A    between atoms: C_26  and  C_30
   13  A    between atoms: C_26  and  C_37
   14  A    between atoms: C_27  and  C_30
   15  A    between atoms: O_31  and  O_32
                            x       y       z     vdW  Elec       q    Type
                         _______ _______ _______ _____ _____    ______ ____

>  <TORSDO>
F 15

$$$$
=
 OpenBabel11032420533D

 42 47  0  0  1  0  0  0  0  0999 V2000
  185.1680  178.6860  140.9730 C   0  0  2  0  0  3  0  0  0  0  0  0
  185.3260  179.9170  143.0780 N   0  0  0  0  0  2  0  0  0  0  0  0
  183.4710  178.3630  142.6710 N   0  0  0  0  0  2  0  0  0  0  0  0
  184.6690  178.6660  143.4480 C   0  0  2  0  0  0  0  0  0  0  0  0
  184.3910  179.3430  142.1290 C   0  0  1  0  0  0  0  0  0  0  0  0
  184.0560  179.0330  144.7850 C   0  0  0  0  0  2  0  0  0  0  0  0
  185.1150  178.9810  145.8720 C   0  0  0  0  0  2  0  0  0  0  0  0
  185.7440  177.6040  145.8970 C   0  0  0  0  0  2  0  0  0  0  0  0
  187.1660  177.7140  145.6080 N   0  0  0  0  0  2  0  0  0  0  0  0
  187.8770  177.5590  146.8680 C   0  0  0  0  0  2  0  0  0  0  0  0
  191.6810  177.9080  143.9810 O   0  0  0  0  0  0  0  0  0  0  0  0
  191.2010  177.5450  145.0860 C   0  0  0  0  0  0  0  0  0  0  0  0
  190.0610  176.7200  147.4700 N   0  0  0  0  0  0  0  0  0  0  0  0
  189.3360  177.3780  146.6110 C   0  0  0  0  0  0  0  0  0  0  0  0
  191.5170  176.5790  147.3570 C   0  0  0  0  0  2  0  0  0  0  0  0
  189.9010  177.8990  145.4430 O   0  0  0  0  0  0  0  0  0  0  0  0
  191.9670  176.7420  145.9790 N   0  0  0  0  0  2  0  0  0  0  0  0
  186.6650  178.6130  141.2570 C   0  0  0  0  0  2  0  0  0  0  0  0
  187.4010  178.6190  140.0050 N   0  0  0  0  0  2  0  0  0  0  0  0
  190.2380  176.8060  140.2100 N   0  0  0  0  0  2  0  0  0  0  0  0
  188.8110  178.7200  140.3360 C   0  0  0  0  0  3  0  0  0  0  0  0
  189.5550  176.7600  141.4390 N   0  0  0  0  0  2  0  0  0  0  0  0
  189.6020  177.8410  139.4040 C   0  0  0  0  0  2  0  0  0  0  0  0
  189.0550  178.1010  141.6820 C   0  0  0  0  0  2  0  0  0  0  0  0
  184.9820  179.4740  139.6760 C   0  0  0  0  0  2  0  0  0  0  0  0
  181.2420  178.1690  137.8270 C   0  0  1  0  0  3  0  0  0  0  0  0
  181.3800  179.4850  138.5420 C   0  0  0  0  0  3  0  0  0  0  0  0
  182.5420  179.8670  139.0750 C   0  0  0  0  0  3  0  0  0  0  0  0
  182.5590  176.6720  136.3050 C   0  0  0  0  0  1  0  0  0  0  0  0
  183.7570  178.0000  138.0780 C   0  0  0  0  0  0  0  0  0  0  0  0
  182.5420  177.6530  137.3800 N   0  0  0  0  0  0  0  0  0  0  0  0
  183.7570  179.0500  138.9250 C   0  0  0  0  0  0  0  0  0  0  0  0
  185.0110  177.2150  137.8290 C   0  0  0  0  0  1  0  0  0  0  0  0
  179.4000  176.7910  140.8660 C   0  0  0  0  0  0  0  0  0  0  0  0
  180.2420  174.9240  139.5090 C   0  0  0  0  0  2  0  0  0  0  0  0
  179.7900  175.5100  140.8180 C   0  0  0  0  0  3  0  0  0  0  0  0
  179.4510  177.6370  139.6240 C   0  0  0  0  0  2  0  0  0  0  0  0
  180.9120  175.9230  138.6970 N   0  0  0  0  0  0  0  0  0  0  0  0
  180.5550  177.1680  138.7100 C   0  0  0  0  0  0  0  0  0  0  0  0
  178.9390  177.3590  142.0540 O   0  0  0  0  0  0  0  0  0  0  0  0
  179.7550  177.5520  143.1010 O   0  0  0  0  0  0  0  0  0  0  0  0
  179.8160  178.9390  143.2460 C   0  0  0  0  0  1  0  0  0  0  0  0
  1 25  1  6  0  0  0
  1 18  1  0  0  0  0
  2  4  1  0  0  0  0
  3  4  1  0  0  0  0
  4  6  1  1  0  0  0
  5  1  1  6  0  0  0
  5  3  1  0  0  0  0
  5  2  1  0  0  0  0
  5  4  1  0  0  0  0
  6  7  1  0  0  0  0
  7  8  1  0  0  0  0
  9  8  1  0  0  0  0
  9 10  1  0  0  0  0
 11 12  2  0  0  0  0
 12 16  1  0  0  0  0
 12 17  1  0  0  0  0
 14 10  1  0  0  0  0
 14 13  2  0  0  0  0
 15 13  1  0  0  0  0
 16 14  1  0  0  0  0
 17 15  1  0  0  0  0
 19 21  1  0  0  0  0
 19 18  1  0  0  0  0
 20 22  1  0  0  0  0
 21 24  1  0  0  0  0
 22 24  1  0  0  0  0
 23 20  1  0  0  0  0
 23 21  1  0  0  0  0
 26 27  1  0  0  0  0
 26 39  1  1  0  0  0
 27 28  2  0  0  0  0
 29 31  1  0  0  0  0
 30 32  2  0  0  0  0
 31 26  1  0  0  0  0
 31 30  1  0  0  0  0
 32 28  1  0  0  0  0
 32 25  1  0  0  0  0
 33 30  1  0  0  0  0
 34 40  1  0  0  0  0
 35 36  1  0  0  0  0
 36 34  2  0  0  0  0
 37 34  1  0  0  0  0
 38 39  2  0  0  0  0
 38 35  1  0  0  0  0
 39 37  1  0  0  0  0
 40 41  1  0  0  0  0
 41 42  1  0  0  0  0
M  END
>  <MODEL>
8

>  <REMARK>
 VINA RESULT:      -6.6      3.316      6.028
  Name = 
  15 active torsions:
  status: ('A' for Active; 'I' for Inactive)
    1  A    between atoms: C_2  and  C_39
    2  A    between atoms: N_3  and  C_8
    3  A    between atoms: N_3  and  C_16
    4  A    between atoms: C_5  and  O_32
    5  A    between atoms: N_6  and  C_15
    6  A    between atoms: N_6  and  C_17
    7  A    between atoms: C_8  and  C_21
    8  A    between atoms: C_10  and  C_13
    9  A    between atoms: C_10  and  C_34
   10  A    between atoms: C_13  and  C_16
   11  A    between atoms: C_17  and  C_26
   12  A    between atoms: C_26  and  C_30
   13  A    between atoms: C_26  and  C_37
   14  A    between atoms: C_27  and  C_30
   15  A    between atoms: O_31  and  O_32
                            x       y       z     vdW  Elec       q    Type
                         _______ _______ _______ _____ _____    ______ ____

>  <TORSDO>
F 15

$$$$
=
 OpenBabel11032420533D

 42 47  0  0  1  0  0  0  0  0999 V2000
  188.0920  177.6010  141.0440 C   0  0  2  0  0  3  0  0  0  0  0  0
  186.7980  177.7870  143.1090 N   0  0  0  0  0  2  0  0  0  0  0  0
  186.5020  179.4110  141.2930 N   0  0  0  0  0  2  0  0  0  0  0  0
  185.9130  178.3370  142.0850 C   0  0  2  0  0  0  0  0  0  0  0  0
  187.4040  178.5560  142.0380 C   0  0  1  0  0  0  0  0  0  0  0  0
  184.9230  179.1150  142.9300 C   0  0  0  0  0  2  0  0  0  0  0  0
  183.5160  178.6040  142.6830 C   0  0  0  0  0  2  0  0  0  0  0  0
  183.1910  178.7150  141.2080 C   0  0  0  0  0  2  0  0  0  0  0  0
  181.8450  178.2170  140.9670 N   0  0  0  0  0  2  0  0  0  0  0  0
  180.9800  179.3730  140.7960 C   0  0  0  0  0  2  0  0  0  0  0  0
  181.1770  182.9390  137.6060 O   0  0  0  0  0  0  0  0  0  0  0  0
  181.1030  181.7040  137.8320 C   0  0  0  0  0  0  0  0  0  0  0  0
  180.8810  179.0050  138.4100 N   0  0  0  0  0  0  0  0  0  0  0  0
  181.0450  179.8540  139.3840 C   0  0  0  0  0  0  0  0  0  0  0  0
  181.0310  179.3610  136.9950 C   0  0  0  0  0  2  0  0  0  0  0  0
  181.2630  181.2110  139.1260 O   0  0  0  0  0  0  0  0  0  0  0  0
  180.8240  180.7890  136.7760 N   0  0  0  0  0  2  0  0  0  0  0  0
  189.1880  176.7740  141.7080 C   0  0  0  0  0  2  0  0  0  0  0  0
  190.4220  177.5380  141.7460 N   0  0  0  0  0  2  0  0  0  0  0  0
  189.8310  177.2930  145.0580 N   0  0  0  0  0  2  0  0  0  0  0  0
  191.0690  177.2500  143.0130 C   0  0  0  0  0  3  0  0  0  0  0  0
  190.1850  178.6160  144.7340 N   0  0  0  0  0  2  0  0  0  0  0  0
  190.1210  176.4730  143.8880 C   0  0  0  0  0  2  0  0  0  0  0  0
  191.2700  178.5290  143.7740 C   0  0  0  0  0  2  0  0  0  0  0  0
  188.7330  178.3810  139.8950 C   0  0  0  0  0  2  0  0  0  0  0  0
  187.3270  176.5930  136.1630 C   0  0  1  0  0  3  0  0  0  0  0  0
  186.5610  177.6630  136.8910 C   0  0  0  0  0  3  0  0  0  0  0  0
  187.0280  178.2080  138.0170 C   0  0  0  0  0  3  0  0  0  0  0  0
  189.6950  175.9780  135.6080 C   0  0  0  0  0  1  0  0  0  0  0  0
  189.1860  177.0850  137.8110 C   0  0  0  0  0  0  0  0  0  0  0  0
  188.7510  176.6010  136.5230 N   0  0  0  0  0  0  0  0  0  0  0  0
  188.3470  177.8360  138.5540 C   0  0  0  0  0  0  0  0  0  0  0  0
  190.5730  176.7800  138.2940 C   0  0  0  0  0  1  0  0  0  0  0  0
  184.7080  174.0170  137.1760 C   0  0  0  0  0  0  0  0  0  0  0  0
  186.9150  172.9410  137.0830 C   0  0  0  0  0  2  0  0  0  0  0  0
  185.5040  173.0240  137.5950 C   0  0  0  0  0  3  0  0  0  0  0  0
  185.2420  175.0550  136.2280 C   0  0  0  0  0  2  0  0  0  0  0  0
  187.4600  174.2660  136.8490 N   0  0  0  0  0  0  0  0  0  0  0  0
  186.7240  175.2460  136.4340 C   0  0  0  0  0  0  0  0  0  0  0  0
  183.3820  174.1050  137.5990 O   0  0  0  0  0  0  0  0  0  0  0  0
  182.9530  175.1330  138.3490 O   0  0  0  0  0  0  0  0  0  0  0  0
  181.8220  175.6040  137.6810 C   0  0  0  0  0  1  0  0  0  0  0  0
  1 25  1  6  0  0  0
  1 18  1  0  0  0  0
  3  5  1  0  0  0  0
  3  4  1  0  0  0  0
  4  6  1  1  0  0  0
  4  2  1  0  0  0  0
  5  1  1  6  0  0  0
  5  4  1  0  0  0  0
  5  2  1  0  0  0  0
  7  6  1  0  0  0  0
  8  7  1  0  0  0  0
  9  8  1  0  0  0  0
 10  9  1  0  0  0  0
 11 12  2  0  0  0  0
 12 16  1  0  0  0  0
 13 14  2  0  0  0  0
 14 10  1  0  0  0  0
 15 13  1  0  0  0  0
 16 14  1  0  0  0  0
 17 15  1  0  0  0  0
 17 12  1  0  0  0  0
 18 19  1  0  0  0  0
 19 21  1  0  0  0  0
 21 24  1  0  0  0  0
 21 23  1  0  0  0  0
 22 20  1  0  0  0  0
 23 20  1  0  0  0  0
 24 22  1  0  0  0  0
 26 39  1  1  0  0  0
 26 31  1  0  0  0  0
 26 27  1  0  0  0  0
 27 28  2  0  0  0  0
 28 32  1  0  0  0  0
 29 31  1  0  0  0  0
 30 33  1  0  0  0  0
 30 32  2  0  0  0  0
 31 30  1  0  0  0  0
 32 25  1  0  0  0  0
 34 36  2  0  0  0  0
 34 40  1  0  0  0  0
 35 36  1  0  0  0  0
 37 39  1  0  0  0  0
 37 34  1  0  0  0  0
 38 35  1  0  0  0  0
 39 38  2  0  0  0  0
 40 41  1  0  0  0  0
 42 41  1  0  0  0  0
M  END
>  <MODEL>
9

>  <REMARK>
 VINA RESULT:      -6.6      3.271      6.616
  Name = 
  15 active torsions:
  status: ('A' for Active; 'I' for Inactive)
    1  A    between atoms: C_2  and  C_39
    2  A    between atoms: N_3  and  C_8
    3  A    between atoms: N_3  and  C_16
    4  A    between atoms: C_5  and  O_32
    5  A    between atoms: N_6  and  C_15
    6  A    between atoms: N_6  and  C_17
    7  A    between atoms: C_8  and  C_21
    8  A    between atoms: C_10  and  C_13
    9  A    between atoms: C_10  and  C_34
   10  A    between atoms: C_13  and  C_16
   11  A    between atoms: C_17  and  C_26
   12  A    between atoms: C_26  and  C_30
   13  A    between atoms: C_26  and  C_37
   14  A    between atoms: C_27  and  C_30
   15  A    between atoms: O_31  and  O_32
                            x       y       z     vdW  Elec       q    Type
                         _______ _______ _______ _____ _____    ______ ____

>  <TORSDO>
F 15

$$$$
