=
 OpenBabel11042410413D

 44 48  0  0  1  0  0  0  0  0999 V2000
  191.0610  177.4200  142.8360 C   0  0  0  0  0  3  0  0  0  0  0  0
  189.3930  177.4120  138.9340 C   0  0  0  0  0  2  0  0  0  0  0  0
  184.5070  179.1970  140.7500 O   0  0  0  0  0  0  0  0  0  0  0  0
  188.7220  177.4430  143.7700 C   0  0  0  0  0  0  0  0  0  0  0  0
  184.5510  178.5190  143.0110 C   0  0  0  0  0  3  0  0  0  0  0  0
  189.1660  175.9810  138.4780 C   0  0  0  0  0  2  0  0  0  0  0  0
  186.7720  177.5470  145.8430 C   0  0  0  0  0  3  0  0  0  0  0  0
  191.8930  177.4220  141.7640 N   0  0  0  0  0  0  0  0  0  0  0  0
  189.6780  177.4200  142.6410 C   0  0  0  0  0  0  0  0  0  0  0  0
  189.2020  177.4270  141.3670 N   0  0  0  0  0  0  0  0  0  0  0  0
  190.0230  177.4240  140.2850 C   0  0  0  0  0  0  0  0  0  0  0  0
  185.3650  178.8880  141.8080 C   0  0  2  0  0  3  0  0  0  0  0  0
  190.0680  176.9280  147.0790 C   0  0  0  0  0  3  0  0  0  0  0  0
  186.2130  180.1130  142.1050 C   0  0  0  0  0  1  0  0  0  0  0  0
  185.0290  178.0350  144.1660 C   0  0  0  0  0  3  0  0  0  0  0  0
  186.6700  176.6500  135.7530 C   0  0  0  0  0  3  0  0  0  0  0  0
  189.0950  177.2600  145.1090 C   0  0  0  0  0  0  0  0  0  0  0  0
  184.8470  176.4330  137.4110 N   0  0  0  0  0  2  0  0  0  0  0  0
  187.3990  177.6730  143.5150 N   0  0  0  0  0  0  0  0  0  0  0  0
  184.5430  177.8640  137.3860 C   0  0  0  0  0  2  0  0  0  0  0  0
  184.5830  178.1140  139.8690 C   0  0  0  0  0  2  0  0  0  0  0  0
  191.4240  177.4180  140.4880 C   0  0  0  0  0  0  0  0  0  0  0  0
  188.1020  177.3050  146.1360 C   0  0  0  0  0  0  0  0  0  0  0  0
  185.2070  178.5670  138.5610 C   0  0  0  0  0  2  0  0  0  0  0  0
  187.8140  175.8400  137.8030 C   0  0  0  0  0  2  0  0  0  0  0  0
  185.3720  175.9790  136.1180 C   0  0  1  0  0  3  0  0  0  0  0  0
  187.7720  176.5820  136.5040 C   0  0  0  0  0  3  0  0  0  0  0  0
  188.7100  177.1020  147.3530 C   0  0  0  0  0  2  0  0  0  0  0  0
  190.3130  177.0230  145.7070 C   0  0  0  0  0  3  0  0  0  0  0  0
  186.4350  177.7430  144.4920 C   0  0  0  0  0  0  0  0  0  0  0  0
  193.6520  177.0560  139.5690 N   0  0  0  0  0  2  0  0  0  0  0  0
  192.4230  177.4180  139.4010 C   0  0  0  0  0  3  0  0  0  0  0  0
  184.3490  176.1460  135.0030 C   0  0  0  0  0  2  0  0  0  0  0  0
  181.9970  175.8580  135.2400 O   0  0  0  0  0  0  0  0  0  0  0  0
  183.1390  175.3280  135.2820 C   0  0  0  0  0  0  0  0  0  0  0  0
  183.2920  173.9490  135.6160 N   0  0  0  0  0  2  0  0  0  0  0  0
  181.0030  172.8800  134.8750 O   0  0  0  0  0  0  0  0  0  0  0  0
  181.9560  172.9310  136.0370 S   0  0  0  0  0  0  0  0  0  0  0  0
  181.2450  173.5000  137.2340 O   0  0  0  0  0  0  0  0  0  0  0  0
  181.9280  170.2950  135.4440 C   0  0  0  0  0  2  0  0  0  0  0  0
  184.1240  170.0110  135.5280 C   0  0  0  0  0  2  0  0  0  0  0  0
  182.9780  169.6290  134.8160 O   0  0  0  0  0  0  0  0  0  0  0  0
  182.5440  171.2840  136.3910 C   0  0  1  0  0  3  0  0  0  0  0  0
  183.9200  171.2280  136.1900 O   0  0  0  0  0  0  0  0  0  0  0  0
  2 11  1  0  0  0  0
  3 12  1  0  0  0  0
  4 17  1  0  0  0  0
  5 15  2  0  0  0  0
  6  2  1  0  0  0  0
  7 23  1  0  0  0  0
  8  1  2  0  0  0  0
  9  1  1  0  0  0  0
  9  4  1  0  0  0  0
 10  9  2  0  0  0  0
 11 22  2  0  0  0  0
 11 10  1  0  0  0  0
 12 14  1  1  0  0  0
 12  5  1  0  0  0  0
 13 28  1  0  0  0  0
 15 30  1  0  0  0  0
 16 26  1  0  0  0  0
 16 27  2  0  0  0  0
 17 29  1  0  0  0  0
 17 23  2  0  0  0  0
 19  4  2  0  0  0  0
 19 30  1  0  0  0  0
 20 18  1  0  0  0  0
 20 24  1  0  0  0  0
 21  3  1  0  0  0  0
 22  8  1  0  0  0  0
 23 28  1  0  0  0  0
 24 21  1  0  0  0  0
 25  6  1  0  0  0  0
 26 33  1  6  0  0  0
 26 18  1  0  0  0  0
 27 25  1  0  0  0  0
 29 13  2  0  0  0  0
 30  7  2  0  0  0  0
 32 31  2  0  0  0  0
 32 22  1  0  0  0  0
 33 35  1  0  0  0  0
 34 35  2  0  0  0  0
 35 36  1  0  0  0  0
 36 38  1  0  0  0  0
 37 38  2  0  0  0  0
 38 39  2  0  0  0  0
 40 43  1  0  0  0  0
 41 44  1  0  0  0  0
 42 40  1  0  0  0  0
 42 41  1  0  0  0  0
 43 38  1  6  0  0  0
 44 43  1  0  0  0  0
M  END
>  <MODEL>
1

>  <REMARK>
 VINA RESULT:      -8.6      0.000      0.000
  Name = 
  5 active torsions:
  status: ('A' for Active; 'I' for Inactive)
    1  A    between atoms: S_11  and  N_26
    2  A    between atoms: S_11  and  C_38
    3  A    between atoms: C_25  and  C_40
    4  A    between atoms: C_32  and  C_41
    5  A    between atoms: C_36  and  C_40
                            x       y       z     vdW  Elec       q    Type
                         _______ _______ _______ _____ _____    ______ ____

>  <TORSDO>
F 5

$$$$
=
 OpenBabel11042410413D

 44 48  0  0  1  0  0  0  0  0999 V2000
  189.1810  172.7480  135.7350 C   0  0  0  0  0  3  0  0  0  0  0  0
  185.0990  173.8190  136.1770 C   0  0  0  0  0  2  0  0  0  0  0  0
  186.3510  179.0090  137.5410 O   0  0  0  0  0  0  0  0  0  0  0  0
  189.7990  174.7810  137.0880 C   0  0  0  0  0  0  0  0  0  0  0  0
  188.5570  178.7810  138.3500 C   0  0  0  0  0  3  0  0  0  0  0  0
  184.5380  173.1850  137.4380 C   0  0  0  0  0  2  0  0  0  0  0  0
  191.5990  176.6260  138.2990 C   0  0  0  0  0  3  0  0  0  0  0  0
  188.2310  171.9710  135.1580 N   0  0  0  0  0  0  0  0  0  0  0  0
  188.8060  173.8830  136.4580 C   0  0  0  0  0  0  0  0  0  0  0  0
  187.4830  174.1810  136.5570 N   0  0  0  0  0  0  0  0  0  0  0  0
  186.5210  173.4090  135.9880 C   0  0  0  0  0  0  0  0  0  0  0  0
  187.4940  178.2100  137.4600 C   0  0  2  0  0  3  0  0  0  0  0  0
  193.2220  173.6440  137.1850 C   0  0  0  0  0  3  0  0  0  0  0  0
  187.9690  178.2010  136.0180 C   0  0  0  0  0  1  0  0  0  0  0  0
  189.7360  178.2100  138.6340 C   0  0  0  0  0  3  0  0  0  0  0  0
  181.5490  175.4110  137.9030 C   0  0  0  0  0  3  0  0  0  0  0  0
  191.1630  174.4770  137.1990 C   0  0  0  0  0  0  0  0  0  0  0  0
  182.9370  176.9400  139.2640 N   0  0  0  0  0  2  0  0  0  0  0  0
  189.3850  175.9880  137.5800 N   0  0  0  0  0  2  0  0  0  0  0  0
  182.9530  177.9780  138.2320 C   0  0  0  0  0  2  0  0  0  0  0  0
  185.4290  178.2800  138.2980 C   0  0  0  0  0  2  0  0  0  0  0  0
  186.9060  172.2570  135.2620 C   0  0  0  0  0  0  0  0  0  0  0  0
  192.0510  175.4100  137.8190 C   0  0  0  0  0  0  0  0  0  0  0  0
  184.2420  177.9050  137.4270 C   0  0  0  0  0  2  0  0  0  0  0  0
  183.6840  174.1780  138.2050 C   0  0  0  0  0  2  0  0  0  0  0  0
  181.7010  176.1510  139.2060 C   0  0  1  0  0  3  0  0  0  0  0  0
  182.4350  174.5170  137.4540 C   0  0  0  0  0  3  0  0  0  0  0  0
  193.3240  174.8900  137.8060 C   0  0  0  0  0  3  0  0  0  0  0  0
  191.9030  173.3820  136.8110 C   0  0  0  0  0  3  0  0  0  0  0  0
  190.2280  176.9060  138.1570 C   0  0  0  0  0  0  0  0  0  0  0  0
  185.2780  170.4440  135.2260 N   0  0  0  0  0  2  0  0  0  0  0  0
  185.9620  171.3390  134.5940 C   0  0  0  0  0  3  0  0  0  0  0  0
  180.4730  177.0040  139.4860 C   0  0  0  0  0  2  0  0  0  0  0  0
  179.6120  176.9530  141.7060 O   0  0  0  0  0  0  0  0  0  0  0  0
  180.4560  177.4400  140.9070 C   0  0  0  0  0  0  0  0  0  0  0  0
  181.3890  178.4270  141.3440 N   0  0  0  0  0  2  0  0  0  0  0  0
  180.9020  178.0010  143.8960 O   0  0  0  0  0  0  0  0  0  0  0  0
  181.4000  179.0620  142.9540 S   0  0  0  0  0  0  0  0  0  0  0  0
  180.4900  180.2570  143.0320 O   0  0  0  0  0  0  0  0  0  0  0  0
  183.3690  179.0610  144.8060 C   0  0  0  0  0  2  0  0  0  0  0  0
  184.9900  178.4480  143.4250 C   0  0  0  0  0  2  0  0  0  0  0  0
  184.5070  178.2610  144.7280 O   0  0  0  0  0  0  0  0  0  0  0  0
  183.0630  179.5210  143.4090 C   0  0  1  0  0  3  0  0  0  0  0  0
  183.9680  178.8790  142.5690 O   0  0  0  0  0  0  0  0  0  0  0  0
  1  9  1  0  0  0  0
  2  6  1  0  0  0  0
  3 21  1  0  0  0  0
  4 17  2  0  0  0  0
  4 19  1  0  0  0  0
  5 15  2  0  0  0  0
  6 25  1  0  0  0  0
  8 22  1  0  0  0  0
  8  1  2  0  0  0  0
  9 10  2  0  0  0  0
  9  4  1  0  0  0  0
 11  2  1  0  0  0  0
 11 10  1  0  0  0  0
 12 14  1  6  0  0  0
 12  3  1  0  0  0  0
 12  5  1  0  0  0  0
 13 28  1  0  0  0  0
 16 26  1  0  0  0  0
 17 23  1  0  0  0  0
 19 30  1  0  0  0  0
 20 18  1  0  0  0  0
 22 11  2  0  0  0  0
 23  7  1  0  0  0  0
 24 20  1  0  0  0  0
 24 21  1  0  0  0  0
 26 18  1  0  0  0  0
 26 33  1  6  0  0  0
 27 16  2  0  0  0  0
 27 25  1  0  0  0  0
 28 23  2  0  0  0  0
 29 13  2  0  0  0  0
 29 17  1  0  0  0  0
 30  7  2  0  0  0  0
 30 15  1  0  0  0  0
 32 31  2  0  0  0  0
 32 22  1  0  0  0  0
 33 35  1  0  0  0  0
 35 36  1  0  0  0  0
 35 34  2  0  0  0  0
 36 38  1  0  0  0  0
 38 39  2  0  0  0  0
 38 37  2  0  0  0  0
 41 42  1  0  0  0  0
 42 40  1  0  0  0  0
 43 38  1  6  0  0  0
 43 40  1  0  0  0  0
 44 43  1  0  0  0  0
 44 41  1  0  0  0  0
M  END
>  <MODEL>
2

>  <REMARK>
 VINA RESULT:      -7.1      4.345      8.046
  Name = 
  5 active torsions:
  status: ('A' for Active; 'I' for Inactive)
    1  A    between atoms: S_11  and  N_26
    2  A    between atoms: S_11  and  C_38
    3  A    between atoms: C_25  and  C_40
    4  A    between atoms: C_32  and  C_41
    5  A    between atoms: C_36  and  C_40
                            x       y       z     vdW  Elec       q    Type
                         _______ _______ _______ _____ _____    ______ ____

>  <TORSDO>
F 5

$$$$
=
 OpenBabel11042410413D

 44 48  0  0  1  0  0  0  0  0999 V2000
  183.7130  172.7860  135.5030 C   0  0  0  0  0  3  0  0  0  0  0  0
  182.4760  175.9810  138.0060 C   0  0  0  0  0  2  0  0  0  0  0  0
  187.5950  177.9780  138.4080 O   0  0  0  0  0  0  0  0  0  0  0  0
  186.0760  173.1640  136.2900 C   0  0  0  0  0  0  0  0  0  0  0  0
  188.9010  176.0680  137.9410 C   0  0  0  0  0  3  0  0  0  0  0  0
  182.1320  175.4460  139.3860 C   0  0  0  0  0  2  0  0  0  0  0  0
  188.8860  172.7020  136.3380 C   0  0  0  0  0  3  0  0  0  0  0  0
  182.4020  173.1340  135.5270 N   0  0  0  0  0  0  0  0  0  0  0  0
  184.6310  173.4820  136.2940 C   0  0  0  0  0  0  0  0  0  0  0  0
  184.1770  174.5030  137.0680 N   0  0  0  0  0  0  0  0  0  0  0  0
  182.8660  174.8580  137.1060 C   0  0  0  0  0  0  0  0  0  0  0  0
  187.5760  176.7440  137.7540 C   0  0  2  0  0  3  0  0  0  0  0  0
  187.0960  170.1470  134.5940 C   0  0  0  0  0  3  0  0  0  0  0  0
  187.3190  176.9920  136.2780 C   0  0  0  0  0  1  0  0  0  0  0  0
  189.2030  174.8160  137.5720 C   0  0  0  0  0  3  0  0  0  0  0  0
  182.3750  178.6620  141.3110 C   0  0  0  0  0  3  0  0  0  0  0  0
  186.6220  172.0310  135.6730 C   0  0  0  0  0  0  0  0  0  0  0  0
  184.7740  178.2070  141.7090 N   0  0  0  0  0  2  0  0  0  0  0  0
  186.9460  174.0230  136.9040 N   0  0  0  0  0  2  0  0  0  0  0  0
  185.2100  179.2700  140.8030 C   0  0  0  0  0  2  0  0  0  0  0  0
  186.8060  177.8160  139.5510 C   0  0  0  0  0  2  0  0  0  0  0  0
  181.9400  174.1460  136.3070 C   0  0  0  0  0  0  0  0  0  0  0  0
  188.0330  171.8080  135.7150 C   0  0  0  0  0  0  0  0  0  0  0  0
  185.5700  178.6930  139.4430 C   0  0  0  0  0  2  0  0  0  0  0  0
  182.6970  176.3480  140.4680 C   0  0  0  0  0  2  0  0  0  0  0  0
  183.4820  178.5300  142.3250 C   0  0  1  0  0  3  0  0  0  0  0  0
  182.0150  177.6790  140.4810 C   0  0  0  0  0  3  0  0  0  0  0  0
  188.3220  170.6430  135.0440 C   0  0  0  0  0  3  0  0  0  0  0  0
  186.0500  170.9900  134.9750 C   0  0  0  0  0  3  0  0  0  0  0  0
  188.3070  173.8370  136.9330 C   0  0  0  0  0  0  0  0  0  0  0  0
  179.6030  173.7010  136.8370 N   0  0  0  0  0  2  0  0  0  0  0  0
  180.4920  174.4330  136.2530 C   0  0  0  0  0  3  0  0  0  0  0  0
  183.5660  179.7770  143.1930 C   0  0  0  0  0  2  0  0  0  0  0  0
  182.9240  179.3130  145.4390 O   0  0  0  0  0  0  0  0  0  0  0  0
  183.8610  179.4090  144.6020 C   0  0  0  0  0  0  0  0  0  0  0  0
  185.2150  179.1900  144.9960 N   0  0  0  0  0  2  0  0  0  0  0  0
  184.4940  178.2430  147.3440 O   0  0  0  0  0  0  0  0  0  0  0  0
  185.6740  178.8390  146.6290 S   0  0  0  0  0  0  0  0  0  0  0  0
  186.0820  180.1090  147.3230 O   0  0  0  0  0  0  0  0  0  0  0  0
  187.5360  177.4550  145.2420 C   0  0  0  0  0  2  0  0  0  0  0  0
  189.2170  177.8710  146.6250 C   0  0  0  0  0  2  0  0  0  0  0  0
  188.8980  177.7480  145.2650 O   0  0  0  0  0  0  0  0  0  0  0  0
  187.0200  177.6690  146.6360 C   0  0  1  0  0  3  0  0  0  0  0  0
  188.0790  178.1820  147.3800 O   0  0  0  0  0  0  0  0  0  0  0  0
  1  8  2  0  0  0  0
  1  9  1  0  0  0  0
  2  6  1  0  0  0  0
  3 21  1  0  0  0  0
  4  9  1  0  0  0  0
  4 19  1  0  0  0  0
  6 25  1  0  0  0  0
  7 30  2  0  0  0  0
  8 22  1  0  0  0  0
  9 10  2  0  0  0  0
 10 11  1  0  0  0  0
 11  2  1  0  0  0  0
 12 14  1  6  0  0  0
 12  5  1  0  0  0  0
 12  3  1  0  0  0  0
 13 29  2  0  0  0  0
 13 28  1  0  0  0  0
 15  5  2  0  0  0  0
 16 26  1  0  0  0  0
 17 23  1  0  0  0  0
 17  4  2  0  0  0  0
 18 26  1  0  0  0  0
 19 30  1  0  0  0  0
 20 18  1  0  0  0  0
 22 11  2  0  0  0  0
 23  7  1  0  0  0  0
 24 21  1  0  0  0  0
 24 20  1  0  0  0  0
 25 27  1  0  0  0  0
 26 33  1  6  0  0  0
 27 16  2  0  0  0  0
 28 23  2  0  0  0  0
 29 17  1  0  0  0  0
 30 15  1  0  0  0  0
 32 22  1  0  0  0  0
 32 31  2  0  0  0  0
 33 35  1  0  0  0  0
 35 36  1  0  0  0  0
 35 34  2  0  0  0  0
 36 38  1  0  0  0  0
 38 39  2  0  0  0  0
 38 37  2  0  0  0  0
 40 42  1  0  0  0  0
 40 43  1  0  0  0  0
 41 44  1  0  0  0  0
 42 41  1  0  0  0  0
 43 38  1  6  0  0  0
 43 44  1  0  0  0  0
M  END
>  <MODEL>
3

>  <REMARK>
 VINA RESULT:      -6.7      4.334     10.206
  Name = 
  5 active torsions:
  status: ('A' for Active; 'I' for Inactive)
    1  A    between atoms: S_11  and  N_26
    2  A    between atoms: S_11  and  C_38
    3  A    between atoms: C_25  and  C_40
    4  A    between atoms: C_32  and  C_41
    5  A    between atoms: C_36  and  C_40
                            x       y       z     vdW  Elec       q    Type
                         _______ _______ _______ _____ _____    ______ ____

>  <TORSDO>
F 5

$$$$
=
 OpenBabel11042410413D

 44 48  0  0  1  0  0  0  0  0999 V2000
  190.9420  176.8210  140.3990 C   0  0  0  0  0  3  0  0  0  0  0  0
  186.9020  177.5890  141.4480 C   0  0  0  0  0  2  0  0  0  0  0  0
  184.9970  175.1860  136.8710 O   0  0  0  0  0  0  0  0  0  0  0  0
  190.1930  176.4670  138.0200 C   0  0  0  0  0  0  0  0  0  0  0  0
  186.8540  175.3550  135.4230 C   0  0  0  0  0  3  0  0  0  0  0  0
  186.6060  179.0710  141.2910 C   0  0  0  0  0  2  0  0  0  0  0  0
  190.5510  175.8060  135.2730 C   0  0  0  0  0  3  0  0  0  0  0  0
  190.6390  177.0990  141.6920 N   0  0  0  0  0  0  0  0  0  0  0  0
  189.9270  176.7890  139.4400 C   0  0  0  0  0  0  0  0  0  0  0  0
  188.6500  177.0330  139.8380 N   0  0  0  0  0  0  0  0  0  0  0  0
  188.3330  177.3180  141.1270 C   0  0  0  0  0  0  0  0  0  0  0  0
  186.3890  175.3030  136.8470 C   0  0  2  0  0  3  0  0  0  0  0  0
  193.6470  176.3200  136.9830 C   0  0  0  0  0  3  0  0  0  0  0  0
  186.9800  174.0910  137.5460 C   0  0  0  0  0  1  0  0  0  0  0  0
  188.1060  175.6010  135.0130 C   0  0  0  0  0  3  0  0  0  0  0  0
  182.8600  178.8760  141.1080 C   0  0  0  0  0  3  0  0  0  0  0  0
  191.4800  176.3730  137.4720 C   0  0  0  0  0  0  0  0  0  0  0  0
  183.0230  178.6260  138.6520 N   0  0  0  0  0  2  0  0  0  0  0  0
  189.1380  176.2260  137.1850 N   0  0  0  0  0  0  0  0  0  0  0  0
  182.6180  177.2200  138.6870 C   0  0  0  0  0  2  0  0  0  0  0  0
  184.5160  176.4380  137.2670 C   0  0  0  0  0  2  0  0  0  0  0  0
  189.3660  177.3560  142.0940 C   0  0  0  0  0  0  0  0  0  0  0  0
  191.6420  176.0510  136.0880 C   0  0  0  0  0  0  0  0  0  0  0  0
  183.8400  176.3160  138.6220 C   0  0  0  0  0  2  0  0  0  0  0  0
  185.2610  179.2810  140.6200 C   0  0  0  0  0  2  0  0  0  0  0  0
  182.4200  179.3790  139.7580 C   0  0  1  0  0  3  0  0  0  0  0  0
  184.1360  178.8390  141.5010 C   0  0  0  0  0  3  0  0  0  0  0  0
  192.9840  176.0170  135.7930 C   0  0  0  0  0  3  0  0  0  0  0  0
  192.7340  176.5410  138.0170 C   0  0  0  0  0  2  0  0  0  0  0  0
  189.2760  175.8920  135.8600 C   0  0  0  0  0  0  0  0  0  0  0  0
  189.0090  176.7280  144.4220 N   0  0  0  0  0  2  0  0  0  0  0  0
  189.1560  177.6470  143.5270 C   0  0  0  0  0  3  0  0  0  0  0  0
  180.9010  179.4040  139.6630 C   0  0  0  0  0  2  0  0  0  0  0  0
  179.6210  181.3950  139.3980 O   0  0  0  0  0  0  0  0  0  0  0  0
  180.4480  180.5900  138.8910 C   0  0  0  0  0  0  0  0  0  0  0  0
  180.9440  180.7920  137.5680 N   0  0  0  0  0  2  0  0  0  0  0  0
  178.9310  181.9920  136.3700 O   0  0  0  0  0  0  0  0  0  0  0  0
  180.4190  182.0940  136.5560 S   0  0  0  0  0  0  0  0  0  0  0  0
  181.0920  181.9940  135.2140 O   0  0  0  0  0  0  0  0  0  0  0  0
  181.1640  184.6790  136.2920 C   0  0  0  0  0  2  0  0  0  0  0  0
  179.6640  185.5010  137.7010 C   0  0  0  0  0  2  0  0  0  0  0  0
  180.3030  185.7580  136.4790 O   0  0  0  0  0  0  0  0  0  0  0  0
  180.8100  183.6530  137.3300 C   0  0  1  0  0  3  0  0  0  0  0  0
  179.6890  184.1340  138.0010 O   0  0  0  0  0  0  0  0  0  0  0  0
  1  8  1  0  0  0  0
  3 21  1  0  0  0  0
  4  9  1  0  0  0  0
  5 12  1  0  0  0  0
  6  2  1  0  0  0  0
  7 30  2  0  0  0  0
  7 23  1  0  0  0  0
  8 22  2  0  0  0  0
  9 10  1  0  0  0  0
  9  1  2  0  0  0  0
 10 11  2  0  0  0  0
 11  2  1  0  0  0  0
 11 22  1  0  0  0  0
 12  3  1  0  0  0  0
 12 14  1  6  0  0  0
 13 29  1  0  0  0  0
 15  5  2  0  0  0  0
 15 30  1  0  0  0  0
 16 27  2  0  0  0  0
 17 29  1  0  0  0  0
 17  4  1  0  0  0  0
 18 20  1  0  0  0  0
 18 26  1  0  0  0  0
 19  4  2  0  0  0  0
 21 24  1  0  0  0  0
 22 32  1  0  0  0  0
 23 17  2  0  0  0  0
 24 20  1  0  0  0  0
 25  6  1  0  0  0  0
 25 27  1  0  0  0  0
 26 33  1  1  0  0  0
 26 16  1  0  0  0  0
 28 23  1  0  0  0  0
 28 13  2  0  0  0  0
 30 19  1  0  0  0  0
 32 31  2  0  0  0  0
 35 34  2  0  0  0  0
 35 33  1  0  0  0  0
 36 35  1  0  0  0  0
 37 38  2  0  0  0  0
 38 36  1  0  0  0  0
 39 38  2  0  0  0  0
 40 42  1  0  0  0  0
 40 43  1  0  0  0  0
 41 44  1  0  0  0  0
 42 41  1  0  0  0  0
 43 38  1  6  0  0  0
 43 44  1  0  0  0  0
M  END
>  <MODEL>
4

>  <REMARK>
 VINA RESULT:      -6.6      4.140      8.224
  Name = 
  5 active torsions:
  status: ('A' for Active; 'I' for Inactive)
    1  A    between atoms: S_11  and  N_26
    2  A    between atoms: S_11  and  C_38
    3  A    between atoms: C_25  and  C_40
    4  A    between atoms: C_32  and  C_41
    5  A    between atoms: C_36  and  C_40
                            x       y       z     vdW  Elec       q    Type
                         _______ _______ _______ _____ _____    ______ ____

>  <TORSDO>
F 5

$$$$
=
 OpenBabel11042410413D

 44 48  0  0  1  0  0  0  0  0999 V2000
  186.4690  174.4380  134.9550 C   0  0  0  0  0  3  0  0  0  0  0  0
  184.0290  176.8150  137.4840 C   0  0  0  0  0  2  0  0  0  0  0  0
  188.3880  179.0040  140.0480 O   0  0  0  0  0  0  0  0  0  0  0  0
  188.3700  174.7730  136.5740 C   0  0  0  0  0  0  0  0  0  0  0  0
  190.0460  177.3660  139.6720 C   0  0  0  0  0  3  0  0  0  0  0  0
  183.3450  175.9310  138.5130 C   0  0  0  0  0  2  0  0  0  0  0  0
  191.0510  174.5110  137.4960 C   0  0  0  0  0  3  0  0  0  0  0  0
  185.1830  174.6750  134.5950 N   0  0  0  0  0  0  0  0  0  0  0  0
  186.9690  174.9780  136.1420 C   0  0  0  0  0  0  0  0  0  0  0  0
  186.1430  175.7390  136.9060 N   0  0  0  0  0  0  0  0  0  0  0  0
  184.8520  175.9820  136.5600 C   0  0  0  0  0  0  0  0  0  0  0  0
  188.7650  177.9730  139.1840 C   0  0  2  0  0  3  0  0  0  0  0  0
  190.3210  172.3510  134.7440 C   0  0  0  0  0  3  0  0  0  0  0  0
  188.9600  178.5610  137.7980 C   0  0  0  0  0  1  0  0  0  0  0  0
  190.6350  176.2690  139.1780 C   0  0  0  0  0  3  0  0  0  0  0  0
  182.4720  178.5770  141.0320 C   0  0  0  0  0  3  0  0  0  0  0  0
  189.2490  173.8700  135.9610 C   0  0  0  0  0  0  0  0  0  0  0  0
  184.6570  178.2060  142.1330 N   0  0  0  0  0  2  0  0  0  0  0  0
  188.8580  175.5110  137.6170 N   0  0  0  0  0  2  0  0  0  0  0  0
  185.1950  179.4890  141.6800 C   0  0  0  0  0  2  0  0  0  0  0  0
  187.3070  178.5070  140.7840 C   0  0  0  0  0  2  0  0  0  0  0  0
  184.3480  175.4270  135.3590 C   0  0  0  0  0  0  0  0  0  0  0  0
  190.5880  173.7430  136.4430 C   0  0  0  0  0  0  0  0  0  0  0  0
  186.0550  179.2950  140.4400 C   0  0  0  0  0  2  0  0  0  0  0  0
  183.3920  176.5730  139.8870 C   0  0  0  0  0  2  0  0  0  0  0  0
  183.2020  178.2750  142.3150 C   0  0  1  0  0  3  0  0  0  0  0  0
  182.5490  177.8090  139.9420 C   0  0  0  0  0  3  0  0  0  0  0  0
  191.2480  172.8040  135.6850 C   0  0  0  0  0  3  0  0  0  0  0  0
  189.0940  172.9970  134.9060 C   0  0  0  0  0  3  0  0  0  0  0  0
  190.1480  175.4190  138.0770 C   0  0  0  0  0  0  0  0  0  0  0  0
  182.0450  174.7220  134.9890 N   0  0  0  0  0  2  0  0  0  0  0  0
  182.9690  175.6170  134.8680 C   0  0  0  0  0  3  0  0  0  0  0  0
  182.8150  179.2700  143.4000 C   0  0  0  0  0  2  0  0  0  0  0  0
  182.6510  178.3970  145.6090 O   0  0  0  0  0  0  0  0  0  0  0  0
  183.3950  178.8650  144.7070 C   0  0  0  0  0  0  0  0  0  0  0  0
  184.7940  179.0340  144.9300 N   0  0  0  0  0  2  0  0  0  0  0  0
  184.5460  178.0220  147.3470 O   0  0  0  0  0  0  0  0  0  0  0  0
  185.5550  178.6710  146.4420 S   0  0  0  0  0  0  0  0  0  0  0  0
  186.0430  179.9430  147.0800 O   0  0  0  0  0  0  0  0  0  0  0  0
  187.3220  177.5510  144.7310 C   0  0  0  0  0  2  0  0  0  0  0  0
  189.1010  177.8120  146.0250 C   0  0  0  0  0  2  0  0  0  0  0  0
  188.6760  177.8750  144.6910 O   0  0  0  0  0  0  0  0  0  0  0  0
  186.9160  177.5490  146.1770 C   0  0  1  0  0  3  0  0  0  0  0  0
  188.0230  177.9810  146.9030 O   0  0  0  0  0  0  0  0  0  0  0  0
  1  9  1  0  0  0  0
  2  6  1  0  0  0  0
  3 21  1  0  0  0  0
  4 19  1  0  0  0  0
  6 25  1  0  0  0  0
  7 30  2  0  0  0  0
  8  1  2  0  0  0  0
  8 22  1  0  0  0  0
  9  4  1  0  0  0  0
  9 10  2  0  0  0  0
 11 10  1  0  0  0  0
 11  2  1  0  0  0  0
 12 14  1  6  0  0  0
 12  5  1  0  0  0  0
 12  3  1  0  0  0  0
 13 29  2  0  0  0  0
 13 28  1  0  0  0  0
 15  5  2  0  0  0  0
 16 26  1  0  0  0  0
 17 23  1  0  0  0  0
 17  4  2  0  0  0  0
 18 26  1  0  0  0  0
 19 30  1  0  0  0  0
 20 18  1  0  0  0  0
 22 11  2  0  0  0  0
 23  7  1  0  0  0  0
 24 21  1  0  0  0  0
 24 20  1  0  0  0  0
 25 27  1  0  0  0  0
 26 33  1  1  0  0  0
 27 16  2  0  0  0  0
 28 23  2  0  0  0  0
 29 17  1  0  0  0  0
 30 15  1  0  0  0  0
 32 31  2  0  0  0  0
 32 22  1  0  0  0  0
 33 35  1  0  0  0  0
 35 36  1  0  0  0  0
 35 34  2  0  0  0  0
 36 38  1  0  0  0  0
 38 39  2  0  0  0  0
 38 37  2  0  0  0  0
 40 43  1  0  0  0  0
 41 44  1  0  0  0  0
 42 40  1  0  0  0  0
 42 41  1  0  0  0  0
 43 38  1  6  0  0  0
 43 44  1  0  0  0  0
M  END
>  <MODEL>
5

>  <REMARK>
 VINA RESULT:      -6.5      4.602      9.398
  Name = 
  5 active torsions:
  status: ('A' for Active; 'I' for Inactive)
    1  A    between atoms: S_11  and  N_26
    2  A    between atoms: S_11  and  C_38
    3  A    between atoms: C_25  and  C_40
    4  A    between atoms: C_32  and  C_41
    5  A    between atoms: C_36  and  C_40
                            x       y       z     vdW  Elec       q    Type
                         _______ _______ _______ _____ _____    ______ ____

>  <TORSDO>
F 5

$$$$
=
 OpenBabel11042410413D

 44 48  0  0  1  0  0  0  0  0999 V2000
  180.0710  176.2630  139.0890 C   0  0  0  0  0  3  0  0  0  0  0  0
  183.4040  178.5200  140.4330 C   0  0  0  0  0  2  0  0  0  0  0  0
  186.7340  176.3360  136.6250 O   0  0  0  0  0  0  0  0  0  0  0  0
  181.6720  174.7060  137.9240 C   0  0  0  0  0  0  0  0  0  0  0  0
  185.6420  174.3020  136.1330 C   0  0  0  0  0  3  0  0  0  0  0  0
  183.8870  177.9730  141.7660 C   0  0  0  0  0  2  0  0  0  0  0  0
  182.3830  172.4980  136.2720 C   0  0  0  0  0  3  0  0  0  0  0  0
  179.8560  177.3690  139.8440 N   0  0  0  0  0  0  0  0  0  0  0  0
  181.3770  175.8880  138.7650 C   0  0  0  0  0  0  0  0  0  0  0  0
  182.4040  176.6550  139.2160 N   0  0  0  0  0  0  0  0  0  0  0  0
  182.2030  177.7630  139.9770 C   0  0  0  0  0  0  0  0  0  0  0  0
  185.4880  175.7040  136.6400 C   0  0  2  0  0  3  0  0  0  0  0  0
  178.9310  172.4750  137.1950 C   0  0  0  0  0  3  0  0  0  0  0  0
  184.5470  176.4850  135.7410 C   0  0  0  0  0  1  0  0  0  0  0  0
  184.6920  173.3570  136.1330 C   0  0  0  0  0  3  0  0  0  0  0  0
  187.3500  179.4270  141.7450 C   0  0  0  0  0  3  0  0  0  0  0  0
  180.7120  173.7530  137.5570 C   0  0  0  0  0  0  0  0  0  0  0  0
  188.1630  177.3940  140.5930 N   0  0  0  0  0  2  0  0  0  0  0  0
  182.9440  174.5260  137.4550 N   0  0  0  0  0  0  0  0  0  0  0  0
  188.3750  178.0960  139.3270 C   0  0  0  0  0  2  0  0  0  0  0  0
  187.1390  176.4130  137.9610 C   0  0  0  0  0  2  0  0  0  0  0  0
  180.8780  178.1350  140.3080 C   0  0  0  0  0  0  0  0  0  0  0  0
  181.0880  172.6450  136.7360 C   0  0  0  0  0  0  0  0  0  0  0  0
  187.1980  177.8690  138.3910 C   0  0  0  0  0  2  0  0  0  0  0  0
  185.4020  177.8870  141.7930 C   0  0  0  0  0  2  0  0  0  0  0  0
  188.3440  178.2940  141.7370 C   0  0  1  0  0  3  0  0  0  0  0  0
  186.0270  179.2460  141.7780 C   0  0  0  0  0  3  0  0  0  0  0  0
  179.9820  171.8590  136.5130 C   0  0  0  0  0  3  0  0  0  0  0  0
  179.3690  173.6350  137.8380 C   0  0  0  0  0  2  0  0  0  0  0  0
  183.3170  173.4800  136.6460 C   0  0  0  0  0  0  0  0  0  0  0  0
  180.4200  179.2820  142.4090 N   0  0  0  0  0  2  0  0  0  0  0  0
  180.5240  179.3150  141.1220 C   0  0  0  0  0  3  0  0  0  0  0  0
  189.7670  178.8280  141.8170 C   0  0  0  0  0  2  0  0  0  0  0  0
  191.7180  177.8350  142.7550 O   0  0  0  0  0  0  0  0  0  0  0  0
  190.5110  178.1610  142.9170 C   0  0  0  0  0  0  0  0  0  0  0  0
  189.8380  177.8790  144.1430 N   0  0  0  0  0  2  0  0  0  0  0  0
  191.7140  177.8740  145.9890 O   0  0  0  0  0  0  0  0  0  0  0  0
  190.5880  177.0340  145.4540 S   0  0  0  0  0  0  0  0  0  0  0  0
  191.1410  175.7240  144.9610 O   0  0  0  0  0  0  0  0  0  0  0  0
  189.7700  177.5260  147.9830 C   0  0  0  0  0  2  0  0  0  0  0  0
  187.6410  177.8760  147.4770 C   0  0  0  0  0  2  0  0  0  0  0  0
  188.6790  178.3300  148.3030 O   0  0  0  0  0  0  0  0  0  0  0  0
  189.3950  176.7530  146.7500 C   0  0  1  0  0  3  0  0  0  0  0  0
  188.1500  177.2250  146.3460 O   0  0  0  0  0  0  0  0  0  0  0  0
  1  8  1  0  0  0  0
  2  6  1  0  0  0  0
  3 12  1  0  0  0  0
  3 21  1  0  0  0  0
  4  9  1  0  0  0  0
  5 15  2  0  0  0  0
  5 12  1  0  0  0  0
  6 25  1  0  0  0  0
  7 30  2  0  0  0  0
  7 23  1  0  0  0  0
  8 22  2  0  0  0  0
  9  1  2  0  0  0  0
  9 10  1  0  0  0  0
 10 11  2  0  0  0  0
 11 22  1  0  0  0  0
 11  2  1  0  0  0  0
 12 14  1  6  0  0  0
 13 29  1  0  0  0  0
 15 30  1  0  0  0  0
 16 27  2  0  0  0  0
 17 29  1  0  0  0  0
 17  4  1  0  0  0  0
 18 26  1  0  0  0  0
 19  4  2  0  0  0  0
 20 18  1  0  0  0  0
 21 24  1  0  0  0  0
 22 32  1  0  0  0  0
 23 17  2  0  0  0  0
 24 20  1  0  0  0  0
 26 16  1  0  0  0  0
 26 33  1  6  0  0  0
 27 25  1  0  0  0  0
 28 23  1  0  0  0  0
 28 13  2  0  0  0  0
 30 19  1  0  0  0  0
 32 31  2  0  0  0  0
 33 35  1  0  0  0  0
 34 35  2  0  0  0  0
 35 36  1  0  0  0  0
 36 38  1  0  0  0  0
 38 37  2  0  0  0  0
 39 38  2  0  0  0  0
 40 42  1  0  0  0  0
 41 42  1  0  0  0  0
 43 38  1  6  0  0  0
 43 40  1  0  0  0  0
 44 43  1  0  0  0  0
 44 41  1  0  0  0  0
M  END
>  <MODEL>
6

>  <REMARK>
 VINA RESULT:      -6.5      4.350     10.719
  Name = 
  5 active torsions:
  status: ('A' for Active; 'I' for Inactive)
    1  A    between atoms: S_11  and  N_26
    2  A    between atoms: S_11  and  C_38
    3  A    between atoms: C_25  and  C_40
    4  A    between atoms: C_32  and  C_41
    5  A    between atoms: C_36  and  C_40
                            x       y       z     vdW  Elec       q    Type
                         _______ _______ _______ _____ _____    ______ ____

>  <TORSDO>
F 5

$$$$
=
 OpenBabel11042410413D

 44 48  0  0  1  0  0  0  0  0999 V2000
  180.2470  176.9470  138.1150 C   0  0  0  0  0  3  0  0  0  0  0  0
  183.5560  178.7940  140.0230 C   0  0  0  0  0  2  0  0  0  0  0  0
  187.1310  176.7250  136.3770 O   0  0  0  0  0  0  0  0  0  0  0  0
  181.8570  175.3850  136.9680 C   0  0  0  0  0  0  0  0  0  0  0  0
  185.9640  174.8400  135.5670 C   0  0  0  0  0  3  0  0  0  0  0  0
  183.8490  178.0870  141.3360 C   0  0  0  0  0  2  0  0  0  0  0  0
  182.5940  173.2950  135.1800 C   0  0  0  0  0  3  0  0  0  0  0  0
  180.0250  177.9900  138.9530 N   0  0  0  0  0  0  0  0  0  0  0  0
  181.5520  176.5020  137.8910 C   0  0  0  0  0  0  0  0  0  0  0  0
  182.5720  177.1390  138.5230 N   0  0  0  0  0  0  0  0  0  0  0  0
  182.3640  178.1820  139.3690 C   0  0  0  0  0  0  0  0  0  0  0  0
  185.8520  176.1950  136.1980 C   0  0  2  0  0  3  0  0  0  0  0  0
  179.0670  173.4590  135.7330 C   0  0  0  0  0  3  0  0  0  0  0  0
  185.0720  177.1300  135.2910 C   0  0  0  0  0  1  0  0  0  0  0  0
  184.9580  173.9770  135.3710 C   0  0  0  0  0  3  0  0  0  0  0  0
  187.3850  179.2560  141.8240 C   0  0  0  0  0  3  0  0  0  0  0  0
  180.8800  174.5510  136.4070 C   0  0  0  0  0  0  0  0  0  0  0  0
  188.1800  177.2840  140.5590 N   0  0  0  0  0  2  0  0  0  0  0  0
  183.1570  175.1510  136.6170 N   0  0  0  0  0  2  0  0  0  0  0  0
  188.5790  178.0840  139.4010 C   0  0  0  0  0  2  0  0  0  0  0  0
  187.3890  176.6420  137.7490 C   0  0  0  0  0  2  0  0  0  0  0  0
  181.0400  178.6250  139.5970 C   0  0  0  0  0  0  0  0  0  0  0  0
  181.2680  173.5000  135.5190 C   0  0  0  0  0  0  0  0  0  0  0  0
  187.5000  178.0410  138.3300 C   0  0  0  0  0  2  0  0  0  0  0  0
  185.3420  177.8780  141.5110 C   0  0  0  0  0  2  0  0  0  0  0  0
  188.2930  178.0540  141.8030 C   0  0  1  0  0  3  0  0  0  0  0  0
  186.0570  179.1790  141.7010 C   0  0  0  0  0  3  0  0  0  0  0  0
  180.1420  172.8290  135.1030 C   0  0  0  0  0  3  0  0  0  0  0  0
  179.5090  174.5140  136.5330 C   0  0  0  0  0  3  0  0  0  0  0  0
  183.5450  174.1600  135.7480 C   0  0  0  0  0  0  0  0  0  0  0  0
  179.5330  180.3410  140.4460 N   0  0  0  0  0  2  0  0  0  0  0  0
  180.6790  179.7470  140.4870 C   0  0  0  0  0  3  0  0  0  0  0  0
  189.7320  178.4630  142.0850 C   0  0  0  0  0  2  0  0  0  0  0  0
  190.8310  179.3030  144.0230 O   0  0  0  0  0  0  0  0  0  0  0  0
  189.9850  178.4980  143.5490 C   0  0  0  0  0  0  0  0  0  0  0  0
  189.2770  177.5980  144.4000 N   0  0  0  0  0  2  0  0  0  0  0  0
  188.6940  176.4100  146.6760 O   0  0  0  0  0  0  0  0  0  0  0  0
  189.5570  177.5020  146.1060 S   0  0  0  0  0  0  0  0  0  0  0  0
  189.1910  178.8090  146.7530 O   0  0  0  0  0  0  0  0  0  0  0  0
  191.4510  176.6050  147.8130 C   0  0  0  0  0  2  0  0  0  0  0  0
  192.4480  175.2520  146.3690 C   0  0  0  0  0  2  0  0  0  0  0  0
  192.0590  175.3560  147.7130 O   0  0  0  0  0  0  0  0  0  0  0  0
  191.2720  177.1180  146.4130 C   0  0  1  0  0  3  0  0  0  0  0  0
  191.6800  176.0970  145.5590 O   0  0  0  0  0  0  0  0  0  0  0  0
  1  8  1  0  0  0  0
  2  6  1  0  0  0  0
  3 21  1  0  0  0  0
  4  9  1  0  0  0  0
  5 12  1  0  0  0  0
  6 25  1  0  0  0  0
  7 23  1  0  0  0  0
  7 30  2  0  0  0  0
  8 22  2  0  0  0  0
  9  1  2  0  0  0  0
  9 10  1  0  0  0  0
 10 11  2  0  0  0  0
 11 22  1  0  0  0  0
 11  2  1  0  0  0  0
 12 14  1  6  0  0  0
 12  3  1  0  0  0  0
 13 29  2  0  0  0  0
 15  5  2  0  0  0  0
 15 30  1  0  0  0  0
 17 29  1  0  0  0  0
 17  4  2  0  0  0  0
 18 26  1  0  0  0  0
 19  4  1  0  0  0  0
 20 18  1  0  0  0  0
 21 24  1  0  0  0  0
 22 32  1  0  0  0  0
 23 17  1  0  0  0  0
 24 20  1  0  0  0  0
 25 27  1  0  0  0  0
 26 16  1  0  0  0  0
 26 33  1  6  0  0  0
 27 16  2  0  0  0  0
 28 23  2  0  0  0  0
 28 13  1  0  0  0  0
 30 19  1  0  0  0  0
 31 32  2  0  0  0  0
 33 35  1  0  0  0  0
 35 34  2  0  0  0  0
 35 36  1  0  0  0  0
 36 38  1  0  0  0  0
 38 37  2  0  0  0  0
 38 39  2  0  0  0  0
 41 42  1  0  0  0  0
 42 40  1  0  0  0  0
 43 38  1  6  0  0  0
 43 40  1  0  0  0  0
 44 41  1  0  0  0  0
 44 43  1  0  0  0  0
M  END
>  <MODEL>
7

>  <REMARK>
 VINA RESULT:      -6.1      4.403     10.900
  Name = 
  5 active torsions:
  status: ('A' for Active; 'I' for Inactive)
    1  A    between atoms: S_11  and  N_26
    2  A    between atoms: S_11  and  C_38
    3  A    between atoms: C_25  and  C_40
    4  A    between atoms: C_32  and  C_41
    5  A    between atoms: C_36  and  C_40
                            x       y       z     vdW  Elec       q    Type
                         _______ _______ _______ _____ _____    ______ ____

>  <TORSDO>
F 5

$$$$
=
 OpenBabel11042410413D

 44 48  0  0  1  0  0  0  0  0999 V2000
  183.5210  171.4690  135.0320 C   0  0  0  0  0  3  0  0  0  0  0  0
  181.3440  174.5550  136.9670 C   0  0  0  0  0  2  0  0  0  0  0  0
  185.7380  177.8740  137.1600 O   0  0  0  0  0  0  0  0  0  0  0  0
  185.6510  172.5710  135.8020 C   0  0  0  0  0  0  0  0  0  0  0  0
  187.5190  176.3300  137.0310 C   0  0  0  0  0  3  0  0  0  0  0  0
  181.0630  174.1570  138.4060 C   0  0  0  0  0  2  0  0  0  0  0  0
  188.4760  172.8820  135.9850 C   0  0  0  0  0  3  0  0  0  0  0  0
  182.1650  171.4560  134.9720 N   0  0  0  0  0  0  0  0  0  0  0  0
  184.1750  172.4920  135.7230 C   0  0  0  0  0  0  0  0  0  0  0  0
  183.4250  173.4580  136.3140 N   0  0  0  0  0  0  0  0  0  0  0  0
  182.0670  173.4550  136.2660 C   0  0  0  0  0  0  0  0  0  0  0  0
  186.0800  176.5960  136.7100 C   0  0  2  0  0  3  0  0  0  0  0  0
  187.5210  169.7160  134.6290 C   0  0  0  0  0  3  0  0  0  0  0  0
  185.8610  176.5460  135.2080 C   0  0  0  0  0  1  0  0  0  0  0  0
  188.1580  175.1620  136.8740 C   0  0  0  0  0  3  0  0  0  0  0  0
  180.3450  177.5700  139.8000 C   0  0  0  0  0  3  0  0  0  0  0  0
  186.5090  171.5450  135.3840 C   0  0  0  0  0  0  0  0  0  0  0  0
  182.7500  177.8310  140.3190 N   0  0  0  0  0  2  0  0  0  0  0  0
  186.2290  173.7110  136.2890 N   0  0  0  0  0  2  0  0  0  0  0  0
  182.9540  178.8260  139.2650 C   0  0  0  0  0  2  0  0  0  0  0  0
  184.9460  177.6780  138.2960 C   0  0  0  0  0  2  0  0  0  0  0  0
  181.4090  172.4130  135.5700 C   0  0  0  0  0  0  0  0  0  0  0  0
  187.9240  171.7120  135.4930 C   0  0  0  0  0  0  0  0  0  0  0  0
  183.5360  178.1700  138.0220 C   0  0  0  0  0  2  0  0  0  0  0  0
  181.3070  175.3260  139.3430 C   0  0  0  0  0  2  0  0  0  0  0  0
  181.3820  177.8870  140.8460 C   0  0  1  0  0  3  0  0  0  0  0  0
  180.3040  176.4160  139.1290 C   0  0  0  0  0  3  0  0  0  0  0  0
  188.5450  170.5800  135.0220 C   0  0  0  0  0  3  0  0  0  0  0  0
  186.2710  170.2980  134.8480 C   0  0  0  0  0  3  0  0  0  0  0  0
  187.5870  173.8980  136.3790 C   0  0  0  0  0  0  0  0  0  0  0  0
  179.2520  171.3750  136.0240 N   0  0  0  0  0  2  0  0  0  0  0  0
  179.9430  172.2960  135.4390 C   0  0  0  0  0  3  0  0  0  0  0  0
  181.0860  179.2260  141.5070 C   0  0  0  0  0  2  0  0  0  0  0  0
  181.3840  179.9590  143.7530 O   0  0  0  0  0  0  0  0  0  0  0  0
  181.8830  179.3780  142.7530 C   0  0  0  0  0  0  0  0  0  0  0  0
  183.2180  178.8780  142.7910 N   0  0  0  0  0  2  0  0  0  0  0  0
  183.4250  179.0020  145.4120 O   0  0  0  0  0  0  0  0  0  0  0  0
  184.2570  179.0760  144.1620 S   0  0  0  0  0  0  0  0  0  0  0  0
  184.9310  180.4190  144.0950 O   0  0  0  0  0  0  0  0  0  0  0  0
  186.3760  177.8750  142.9900 C   0  0  0  0  0  2  0  0  0  0  0  0
  187.5790  177.6640  144.8400 C   0  0  0  0  0  2  0  0  0  0  0  0
  187.6810  177.9590  143.4730 O   0  0  0  0  0  0  0  0  0  0  0  0
  185.4750  177.7720  144.1870 C   0  0  1  0  0  3  0  0  0  0  0  0
  186.2840  177.9140  145.3110 O   0  0  0  0  0  0  0  0  0  0  0  0
  1  9  1  0  0  0  0
  2  6  1  0  0  0  0
  3 21  1  0  0  0  0
  4 19  1  0  0  0  0
  6 25  1  0  0  0  0
  7 30  2  0  0  0  0
  8  1  2  0  0  0  0
  8 22  1  0  0  0  0
  9  4  1  0  0  0  0
  9 10  2  0  0  0  0
 11 10  1  0  0  0  0
 11  2  1  0  0  0  0
 12 14  1  6  0  0  0
 12  5  1  0  0  0  0
 12  3  1  0  0  0  0
 13 29  2  0  0  0  0
 13 28  1  0  0  0  0
 15  5  2  0  0  0  0
 16 26  1  0  0  0  0
 17 23  1  0  0  0  0
 17  4  2  0  0  0  0
 18 26  1  0  0  0  0
 19 30  1  0  0  0  0
 20 18  1  0  0  0  0
 22 11  2  0  0  0  0
 23  7  1  0  0  0  0
 24 21  1  0  0  0  0
 24 20  1  0  0  0  0
 26 33  1  6  0  0  0
 27 25  1  0  0  0  0
 27 16  2  0  0  0  0
 28 23  2  0  0  0  0
 29 17  1  0  0  0  0
 30 15  1  0  0  0  0
 32 22  1  0  0  0  0
 32 31  2  0  0  0  0
 33 35  1  0  0  0  0
 35 36  1  0  0  0  0
 35 34  2  0  0  0  0
 36 38  1  0  0  0  0
 38 37  2  0  0  0  0
 39 38  2  0  0  0  0
 40 42  1  0  0  0  0
 40 43  1  0  0  0  0
 41 44  1  0  0  0  0
 42 41  1  0  0  0  0
 43 38  1  6  0  0  0
 43 44  1  0  0  0  0
M  END
>  <MODEL>
8

>  <REMARK>
 VINA RESULT:      -5.9      4.208     10.026
  Name = 
  5 active torsions:
  status: ('A' for Active; 'I' for Inactive)
    1  A    between atoms: S_11  and  N_26
    2  A    between atoms: S_11  and  C_38
    3  A    between atoms: C_25  and  C_40
    4  A    between atoms: C_32  and  C_41
    5  A    between atoms: C_36  and  C_40
                            x       y       z     vdW  Elec       q    Type
                         _______ _______ _______ _____ _____    ______ ____

>  <TORSDO>
F 5

$$$$
=
 OpenBabel11042410413D

 44 48  0  0  1  0  0  0  0  0999 V2000
  182.8800  176.4440  136.6510 C   0  0  0  0  0  3  0  0  0  0  0  0
  185.5270  178.5290  139.2300 C   0  0  0  0  0  2  0  0  0  0  0  0
  189.8810  175.6160  137.5230 O   0  0  0  0  0  0  0  0  0  0  0  0
  184.6060  174.6200  136.4520 C   0  0  0  0  0  0  0  0  0  0  0  0
  188.8620  173.6460  136.7150 C   0  0  0  0  0  3  0  0  0  0  0  0
  185.2820  178.1020  140.6670 C   0  0  0  0  0  2  0  0  0  0  0  0
  185.6760  172.1770  135.4550 C   0  0  0  0  0  3  0  0  0  0  0  0
  182.5010  177.6470  137.1510 N   0  0  0  0  0  0  0  0  0  0  0  0
  184.1280  175.9150  136.9870 C   0  0  0  0  0  0  0  0  0  0  0  0
  184.9370  176.6330  137.8100 N   0  0  0  0  0  0  0  0  0  0  0  0
  184.5680  177.8360  138.3220 C   0  0  0  0  0  0  0  0  0  0  0  0
  188.6880  175.1060  137.0050 C   0  0  2  0  0  3  0  0  0  0  0  0
  182.2090  172.5800  134.6880 C   0  0  0  0  0  3  0  0  0  0  0  0
  188.3650  175.8590  135.7260 C   0  0  0  0  0  1  0  0  0  0  0  0
  187.8950  172.7980  136.3380 C   0  0  0  0  0  3  0  0  0  0  0  0
  188.5480  179.2190  142.1470 C   0  0  0  0  0  3  0  0  0  0  0  0
  183.7940  173.7230  135.7460 C   0  0  0  0  0  0  0  0  0  0  0  0
  189.5080  176.9980  141.6290 N   0  0  0  0  0  2  0  0  0  0  0  0
  185.9160  174.2700  136.6320 N   0  0  0  0  0  2  0  0  0  0  0  0
  190.3580  177.5240  140.5600 C   0  0  0  0  0  2  0  0  0  0  0  0
  189.6500  175.8120  138.8880 C   0  0  0  0  0  2  0  0  0  0  0  0
  183.3000  178.3650  137.9830 C   0  0  0  0  0  0  0  0  0  0  0  0
  184.3440  172.4950  135.2610 C   0  0  0  0  0  0  0  0  0  0  0  0
  189.7070  177.2960  139.2050 C   0  0  0  0  0  2  0  0  0  0  0  0
  186.5970  177.8800  141.3930 C   0  0  0  0  0  2  0  0  0  0  0  0
  189.2760  178.0070  142.6690 C   0  0  1  0  0  3  0  0  0  0  0  0
  187.3400  179.1650  141.5810 C   0  0  0  0  0  3  0  0  0  0  0  0
  183.3600  171.7940  134.6060 C   0  0  0  0  0  3  0  0  0  0  0  0
  182.4650  173.7620  135.3860 C   0  0  0  0  0  3  0  0  0  0  0  0
  186.4670  173.1070  136.1530 C   0  0  0  0  0  0  0  0  0  0  0  0
  181.5510  179.8440  138.8160 N   0  0  0  0  0  2  0  0  0  0  0  0
  182.7810  179.6600  138.4670 C   0  0  0  0  0  3  0  0  0  0  0  0
  190.5700  178.4140  143.3590 C   0  0  0  0  0  2  0  0  0  0  0  0
  191.5730  177.7950  145.4290 O   0  0  0  0  0  0  0  0  0  0  0  0
  190.5150  178.0790  144.8060 C   0  0  0  0  0  0  0  0  0  0  0  0
  189.2520  178.0610  145.4700 N   0  0  0  0  0  2  0  0  0  0  0  0
  189.7770  178.6140  147.9890 O   0  0  0  0  0  0  0  0  0  0  0  0
  189.0680  177.6050  147.1300 S   0  0  0  0  0  0  0  0  0  0  0  0
  189.6820  176.2490  147.3510 O   0  0  0  0  0  0  0  0  0  0  0  0
  186.9160  178.9060  148.1200 C   0  0  0  0  0  2  0  0  0  0  0  0
  185.5030  178.2600  146.5400 C   0  0  0  0  0  2  0  0  0  0  0  0
  185.8550  179.3580  147.3390 O   0  0  0  0  0  0  0  0  0  0  0  0
  187.3370  177.5780  147.5580 C   0  0  1  0  0  3  0  0  0  0  0  0
  186.5770  177.3700  146.4110 O   0  0  0  0  0  0  0  0  0  0  0  0
  1  9  2  0  0  0  0
  1  8  1  0  0  0  0
  2  6  1  0  0  0  0
  3 21  1  0  0  0  0
  4 19  1  0  0  0  0
  4  9  1  0  0  0  0
  5 12  1  0  0  0  0
  6 25  1  0  0  0  0
  7 30  2  0  0  0  0
  8 22  2  0  0  0  0
  9 10  1  0  0  0  0
 10 11  2  0  0  0  0
 11  2  1  0  0  0  0
 12 14  1  6  0  0  0
 12  3  1  0  0  0  0
 13 29  2  0  0  0  0
 15  5  2  0  0  0  0
 16 26  1  0  0  0  0
 17  4  2  0  0  0  0
 18 26  1  0  0  0  0
 20 18  1  0  0  0  0
 21 24  1  0  0  0  0
 22 11  1  0  0  0  0
 22 32  1  0  0  0  0
 23  7  1  0  0  0  0
 23 17  1  0  0  0  0
 24 20  1  0  0  0  0
 25 27  1  0  0  0  0
 26 33  1  6  0  0  0
 27 16  2  0  0  0  0
 28 13  1  0  0  0  0
 28 23  2  0  0  0  0
 29 17  1  0  0  0  0
 30 15  1  0  0  0  0
 30 19  1  0  0  0  0
 32 31  2  0  0  0  0
 33 35  1  0  0  0  0
 35 34  2  0  0  0  0
 35 36  1  0  0  0  0
 36 38  1  0  0  0  0
 38 39  2  0  0  0  0
 38 37  2  0  0  0  0
 41 42  1  0  0  0  0
 42 40  1  0  0  0  0
 43 38  1  6  0  0  0
 43 40  1  0  0  0  0
 44 41  1  0  0  0  0
 44 43  1  0  0  0  0
M  END
>  <MODEL>
9

>  <REMARK>
 VINA RESULT:      -5.8      4.129     10.622
  Name = 
  5 active torsions:
  status: ('A' for Active; 'I' for Inactive)
    1  A    between atoms: S_11  and  N_26
    2  A    between atoms: S_11  and  C_38
    3  A    between atoms: C_25  and  C_40
    4  A    between atoms: C_32  and  C_41
    5  A    between atoms: C_36  and  C_40
                            x       y       z     vdW  Elec       q    Type
                         _______ _______ _______ _____ _____    ______ ____

>  <TORSDO>
F 5

$$$$
