=
 OpenBabel11042413353D

 41 45  0  0  1  0  0  0  0  0999 V2000
  185.1380  178.2650  138.9050 C   0  0  2  0  0  3  0  0  0  0  0  0
  186.0620  176.1430  134.5940 Cl  0  0  0  0  0  0  0  0  0  0  0  0
  186.1810  175.9710  136.3230 N   0  0  0  0  0  0  0  0  0  0  0  0
  188.4480  178.0130  137.4500 C   0  0  0  0  0  2  0  0  0  0  0  0
  187.1290  177.4910  138.0020 C   0  0  2  0  0  3  0  0  0  0  0  0
  183.7860  176.6980  137.5940 N   0  0  0  0  0  2  0  0  0  0  0  0
  186.1160  177.3310  136.8910 C   0  0  2  0  0  3  0  0  0  0  0  0
  184.4340  175.5060  137.9450 N   0  0  0  0  0  2  0  0  0  0  0  0
  186.5830  178.4640  138.9430 N   0  0  2  0  0  0  0  0  0  0  0  0
  188.5130  178.5020  140.4550 C   0  0  0  0  0  2  0  0  0  0  0  0
  189.6610  177.6530  138.3190 C   0  0  0  0  0  2  0  0  0  0  0  0
  187.0450  178.1260  140.2840 C   0  0  0  0  0  2  0  0  0  0  0  0
  185.1110  175.0520  136.7370 C   0  0  2  0  0  3  0  0  0  0  0  0
  189.3900  177.4310  139.8170 C   0  0  1  0  0  3  0  0  0  0  0  0
  184.7830  177.7660  137.5140 C   0  0  2  0  0  3  0  0  0  0  0  0
  184.4980  171.9190  136.5020 N   0  0  0  0  0  0  0  0  0  0  0  0
  184.7220  172.7690  137.5520 O   0  0  0  0  0  0  0  0  0  0  0  0
  185.2980  172.7420  135.6210 C   0  0  0  0  0  2  0  0  0  0  0  0
  185.6000  173.5880  136.8160 C   0  0  1  0  0  3  0  0  0  0  0  0
  181.9350  171.8250  137.2610 O   0  0  0  0  0  1  0  0  0  0  0  0
  182.4640  170.8190  134.9130 O   0  0  0  0  0  0  0  0  0  0  0  0
  182.8020  172.0320  136.0420 P   0  0  0  0  0  0  0  0  0  0  0  0
  182.4470  173.5350  135.3500 O   0  0  0  0  0  1  0  0  0  0  0  0
  190.6920  177.2390  140.5920 C   0  0  0  0  0  2  0  0  0  0  0  0
  190.4090  175.4760  142.8520 O   0  0  0  0  0  0  0  0  0  0  0  0
  190.5520  177.6450  141.9860 N   0  0  0  0  0  2  0  0  0  0  0  0
  190.3430  176.7190  143.0550 C   0  0  0  0  0  0  0  0  0  0  0  0
  189.9840  177.3160  144.6630 S   0  0  0  0  0  0  0  0  0  0  0  0
  190.8930  176.6480  145.6590 O   0  0  0  0  0  0  0  0  0  0  0  0
  190.2110  178.8040  144.7010 O   0  0  0  0  0  0  0  0  0  0  0  0
  188.3300  176.9720  145.0390 N   0  0  0  0  0  2  0  0  0  0  0  0
  187.5000  177.7350  144.1160 C   0  0  0  0  0  2  0  0  0  0  0  0
  186.0870  178.0620  146.1370 C   0  0  0  0  0  1  0  0  0  0  0  0
  186.0780  177.8150  144.6410 C   0  0  0  0  0  2  0  0  0  0  0  0
  184.4250  179.5800  139.2010 C   0  0  0  0  0  2  0  0  0  0  0  0
  180.9640  179.6490  140.4630 C   0  0  0  0  0  1  0  0  0  0  0  0
  182.1060  178.9180  139.7860 C   0  0  2  0  0  3  0  0  0  0  0  0
  183.4540  178.2880  142.3380 N   0  0  0  0  0  1  0  0  0  0  0  0
  182.3540  177.6550  140.4650 N   0  0  0  0  0  2  0  0  0  0  0  0
  183.5980  178.1080  140.9540 N   0  0  0  0  0  0  0  0  0  0  0  0
  183.4150  179.4080  140.3280 C   0  0  1  0  0  3  0  0  0  0  0  0
  1  9  1  0  0  0  0
  1 35  1  6  0  0  0
  2  3  1  0  0  0  0
  3 13  1  0  0  0  0
  4 11  1  0  0  0  0
  5  4  1  6  0  0  0
  5  9  1  0  0  0  0
  6  8  1  0  0  0  0
  7  3  1  1  0  0  0
  7 15  1  0  0  0  0
  7  5  1  0  0  0  0
  9 12  1  1  0  0  0
 11 14  1  0  0  0  0
 12 10  1  0  0  0  0
 13 19  1  0  0  0  0
 13  8  1  1  0  0  0
 14 10  1  0  0  0  0
 14 24  1  1  0  0  0
 15  6  1  1  0  0  0
 15  1  1  0  0  0  0
 16 17  1  0  0  0  0
 18 16  1  0  0  0  0
 19 18  1  6  0  0  0
 19 17  1  0  0  0  0
 21 22  2  0  0  0  0
 22 16  1  0  0  0  0
 22 20  1  0  0  0  0
 23 22  1  0  0  0  0
 24 26  1  0  0  0  0
 25 27  2  0  0  0  0
 26 27  1  0  0  0  0
 27 28  1  0  0  0  0
 28 30  2  0  0  0  0
 28 31  1  0  0  0  0
 28 29  2  0  0  0  0
 32 34  1  0  0  0  0
 32 31  1  0  0  0  0
 34 33  1  0  0  0  0
 37 41  1  0  0  0  0
 37 36  1  1  0  0  0
 37 39  1  0  0  0  0
 39 40  1  0  0  0  0
 40 38  1  0  0  0  0
 41 35  1  6  0  0  0
 41 40  1  0  0  0  0
M  END
>  <MODEL>
1

>  <REMARK>
 VINA RESULT:      -7.0      0.000      0.000
  Name = 
  10 active torsions:
  status: ('A' for Active; 'I' for Inactive)
    1  A    between atoms: C_1  and  C_30
    2  A    between atoms: S_7  and  N_21
    3  A    between atoms: S_7  and  C_41
    4  A    between atoms: N_10  and  P_29
    5  A    between atoms: N_16  and  C_18
    6  A    between atoms: C_18  and  C_37
    7  A    between atoms: N_21  and  C_40
    8  A    between atoms: C_24  and  C_40
    9  A    between atoms: C_30  and  C_34
   10  A    between atoms: C_36  and  C_39
                            x       y       z     vdW  Elec       q    Type
                         _______ _______ _______ _____ _____    ______ ____

>  <TORSDO>
F 10

$$$$
=
 OpenBabel11042413353D

 41 45  0  0  1  0  0  0  0  0999 V2000
  181.7680  177.7870  138.3100 C   0  0  2  0  0  3  0  0  0  0  0  0
  186.0140  177.3360  135.9210 Cl  0  0  0  0  0  0  0  0  0  0  0  0
  185.0660  176.7650  137.2670 N   0  0  0  0  0  0  0  0  0  0  0  0
  184.9200  179.0900  139.5370 C   0  0  0  0  0  2  0  0  0  0  0  0
  183.9510  178.0180  139.0600 C   0  0  2  0  0  3  0  0  0  0  0  0
  182.4120  176.2540  136.5110 N   0  0  0  0  0  2  0  0  0  0  0  0
  184.0760  177.8170  137.5660 C   0  0  2  0  0  3  0  0  0  0  0  0
  183.1200  175.3140  137.2700 N   0  0  0  0  0  2  0  0  0  0  0  0
  182.5830  178.4560  139.3190 N   0  0  2  0  0  0  0  0  0  0  0  0
  182.8430  178.7590  141.7380 C   0  0  0  0  0  2  0  0  0  0  0  0
  185.3010  178.9560  141.0180 C   0  0  0  0  0  2  0  0  0  0  0  0
  182.1740  177.9570  140.6270 C   0  0  0  0  0  2  0  0  0  0  0  0
  184.5160  175.4570  136.8800 C   0  0  2  0  0  3  0  0  0  0  0  0
  184.2730  178.2670  141.9310 C   0  0  1  0  0  3  0  0  0  0  0  0
  182.6400  177.5820  137.0820 C   0  0  2  0  0  3  0  0  0  0  0  0
  185.0500  172.3100  137.1160 N   0  0  0  0  0  0  0  0  0  0  0  0
  184.6810  173.2830  138.0060 O   0  0  0  0  0  0  0  0  0  0  0  0
  185.7510  173.2780  136.2980 C   0  0  0  0  0  2  0  0  0  0  0  0
  185.4130  174.2880  137.3460 C   0  0  1  0  0  3  0  0  0  0  0  0
  182.4460  171.7080  137.2300 O   0  0  0  0  0  1  0  0  0  0  0  0
  183.8970  170.1910  135.6830 O   0  0  0  0  0  1  0  0  0  0  0  0
  183.6100  171.7510  136.2690 P   0  0  0  0  0  0  0  0  0  0  0  0
  183.2260  172.7610  134.9680 O   0  0  0  0  0  0  0  0  0  0  0  0
  184.6970  178.3390  143.3960 C   0  0  0  0  0  2  0  0  0  0  0  0
  186.0110  177.9310  145.9270 O   0  0  0  0  0  0  0  0  0  0  0  0
  186.0490  177.8260  143.5890 N   0  0  0  0  0  2  0  0  0  0  0  0
  186.6690  177.7140  144.8730 C   0  0  0  0  0  0  0  0  0  0  0  0
  188.3620  177.2770  144.9830 S   0  0  0  0  0  0  0  0  0  0  0  0
  188.6760  176.2280  143.9520 O   0  0  0  0  0  0  0  0  0  0  0  0
  189.2060  178.4960  144.7280 O   0  0  0  0  0  0  0  0  0  0  0  0
  188.6870  176.6690  146.5710 N   0  0  0  0  0  2  0  0  0  0  0  0
  189.8470  177.3830  147.0880 C   0  0  0  0  0  2  0  0  0  0  0  0
  188.0530  177.8890  148.7360 C   0  0  0  0  0  1  0  0  0  0  0  0
  189.4330  178.2770  148.2440 C   0  0  0  0  0  2  0  0  0  0  0  0
  180.5550  178.6460  137.9700 C   0  0  0  0  0  2  0  0  0  0  0  0
  180.7400  180.9640  135.1110 C   0  0  0  0  0  1  0  0  0  0  0  0
  180.0010  180.4070  136.3120 C   0  0  2  0  0  3  0  0  0  0  0  0
  181.5490  182.0200  138.2420 N   0  0  0  0  0  1  0  0  0  0  0  0
  179.6110  181.4930  137.1980 N   0  0  0  0  0  2  0  0  0  0  0  0
  180.5190  181.0690  138.1930 N   0  0  0  0  0  0  0  0  0  0  0  0
  180.9830  179.9730  137.3570 C   0  0  1  0  0  3  0  0  0  0  0  0
  1 35  1  6  0  0  0
  1  9  1  0  0  0  0
  2  3  1  0  0  0  0
  4 11  1  0  0  0  0
  5  9  1  0  0  0  0
  5  4  1  6  0  0  0
  6  8  1  0  0  0  0
  7  3  1  1  0  0  0
  7  5  1  0  0  0  0
  9 12  1  1  0  0  0
 10 14  1  0  0  0  0
 11 14  1  0  0  0  0
 12 10  1  0  0  0  0
 13  3  1  0  0  0  0
 13  8  1  1  0  0  0
 13 19  1  0  0  0  0
 14 24  1  1  0  0  0
 15  6  1  1  0  0  0
 15  7  1  0  0  0  0
 15  1  1  0  0  0  0
 16 17  1  0  0  0  0
 18 16  1  0  0  0  0
 19 18  1  6  0  0  0
 19 17  1  0  0  0  0
 21 22  1  0  0  0  0
 22 16  1  0  0  0  0
 22 20  1  0  0  0  0
 23 22  2  0  0  0  0
 24 26  1  0  0  0  0
 26 27  1  0  0  0  0
 27 28  1  0  0  0  0
 27 25  2  0  0  0  0
 28 31  1  0  0  0  0
 29 28  2  0  0  0  0
 30 28  2  0  0  0  0
 31 32  1  0  0  0  0
 32 34  1  0  0  0  0
 34 33  1  0  0  0  0
 37 36  1  6  0  0  0
 37 39  1  0  0  0  0
 37 41  1  0  0  0  0
 39 40  1  0  0  0  0
 40 38  1  0  0  0  0
 41 35  1  1  0  0  0
 41 40  1  0  0  0  0
M  END
>  <MODEL>
2

>  <REMARK>
 VINA RESULT:      -6.7      2.555      3.709
  Name = 
  10 active torsions:
  status: ('A' for Active; 'I' for Inactive)
    1  A    between atoms: C_1  and  C_30
    2  A    between atoms: S_7  and  N_21
    3  A    between atoms: S_7  and  C_41
    4  A    between atoms: N_10  and  P_29
    5  A    between atoms: N_16  and  C_18
    6  A    between atoms: C_18  and  C_37
    7  A    between atoms: N_21  and  C_40
    8  A    between atoms: C_24  and  C_40
    9  A    between atoms: C_30  and  C_34
   10  A    between atoms: C_36  and  C_39
                            x       y       z     vdW  Elec       q    Type
                         _______ _______ _______ _____ _____    ______ ____

>  <TORSDO>
F 10

$$$$
=
 OpenBabel11042413353D

 41 45  0  0  1  0  0  0  0  0999 V2000
  181.6560  177.7050  138.9750 C   0  0  2  0  0  3  0  0  0  0  0  0
  185.5040  177.4690  135.9630 Cl  0  0  0  0  0  0  0  0  0  0  0  0
  184.7940  176.8370  137.4230 N   0  0  0  0  0  0  0  0  0  0  0  0
  184.9050  179.1150  139.7410 C   0  0  0  0  0  2  0  0  0  0  0  0
  183.9160  178.0120  139.3910 C   0  0  2  0  0  3  0  0  0  0  0  0
  182.0780  176.2310  137.0640 N   0  0  0  0  0  2  0  0  0  0  0  0
  183.8210  177.8420  137.8920 C   0  0  2  0  0  3  0  0  0  0  0  0
  182.9270  175.3070  137.6860 N   0  0  0  0  0  2  0  0  0  0  0  0
  182.5880  178.3900  139.8640 N   0  0  2  0  0  0  0  0  0  0  0  0
  183.2000  178.6620  142.2230 C   0  0  0  0  0  2  0  0  0  0  0  0
  185.5110  178.9720  141.1450 C   0  0  0  0  0  2  0  0  0  0  0  0
  182.4010  177.8530  141.2070 C   0  0  0  0  0  2  0  0  0  0  0  0
  184.2420  175.5150  137.0930 C   0  0  2  0  0  3  0  0  0  0  0  0
  184.6600  178.2260  142.1860 C   0  0  1  0  0  3  0  0  0  0  0  0
  182.3380  177.5570  137.6240 C   0  0  2  0  0  3  0  0  0  0  0  0
  184.9950  172.4050  137.0000 N   0  0  0  0  0  0  0  0  0  0  0  0
  184.6240  173.2660  137.9980 O   0  0  0  0  0  0  0  0  0  0  0  0
  185.5750  173.4890  136.2360 C   0  0  0  0  0  2  0  0  0  0  0  0
  185.2430  174.3750  137.3920 C   0  0  1  0  0  3  0  0  0  0  0  0
  182.5070  171.4500  137.2290 O   0  0  0  0  0  1  0  0  0  0  0  0
  183.9360  170.4480  135.2910 O   0  0  0  0  0  1  0  0  0  0  0  0
  183.5410  171.8220  136.1940 P   0  0  0  0  0  0  0  0  0  0  0  0
  182.8990  172.9930  135.1550 O   0  0  0  0  0  0  0  0  0  0  0  0
  185.2990  178.2910  143.5720 C   0  0  0  0  0  2  0  0  0  0  0  0
  186.9050  177.5320  145.8390 O   0  0  0  0  0  0  0  0  0  0  0  0
  186.7010  177.8920  143.5360 N   0  0  0  0  0  2  0  0  0  0  0  0
  187.4620  177.5940  144.7090 C   0  0  0  0  0  0  0  0  0  0  0  0
  189.1880  177.3210  144.5780 S   0  0  0  0  0  0  0  0  0  0  0  0
  189.8790  178.6240  144.2800 O   0  0  0  0  0  0  0  0  0  0  0  0
  189.7020  176.7700  145.8810 O   0  0  0  0  0  0  0  0  0  0  0  0
  189.4860  176.1830  143.3090 N   0  0  0  0  0  2  0  0  0  0  0  0
  190.4960  176.7570  142.4290 C   0  0  0  0  0  2  0  0  0  0  0  0
  189.0510  177.8770  140.7420 C   0  0  0  0  0  1  0  0  0  0  0  0
  190.0090  176.7290  140.9920 C   0  0  0  0  0  2  0  0  0  0  0  0
  180.3730  178.5190  138.8410 C   0  0  0  0  0  2  0  0  0  0  0  0
  181.5510  181.9670  138.2920 C   0  0  0  0  0  1  0  0  0  0  0  0
  180.4710  180.9090  138.1820 C   0  0  2  0  0  3  0  0  0  0  0  0
  179.6350  181.2110  140.9990 N   0  0  0  0  0  1  0  0  0  0  0  0
  179.2380  181.4000  138.7790 N   0  0  0  0  0  2  0  0  0  0  0  0
  179.3310  180.4770  139.8430 N   0  0  0  0  0  0  0  0  0  0  0  0
  180.5830  179.9480  139.3260 C   0  0  1  0  0  3  0  0  0  0  0  0
  1 35  1  6  0  0  0
  1  9  1  0  0  0  0
  2  3  1  0  0  0  0
  4 11  1  0  0  0  0
  5  4  1  6  0  0  0
  5  9  1  0  0  0  0
  6  8  1  0  0  0  0
  7  3  1  1  0  0  0
  7  5  1  0  0  0  0
  9 12  1  1  0  0  0
 11 14  1  0  0  0  0
 12 10  1  0  0  0  0
 13 19  1  0  0  0  0
 13  3  1  0  0  0  0
 13  8  1  1  0  0  0
 14 10  1  0  0  0  0
 14 24  1  1  0  0  0
 15  6  1  1  0  0  0
 15  7  1  0  0  0  0
 15  1  1  0  0  0  0
 16 17  1  0  0  0  0
 18 16  1  0  0  0  0
 19 18  1  6  0  0  0
 19 17  1  0  0  0  0
 21 22  1  0  0  0  0
 22 16  1  0  0  0  0
 22 20  1  0  0  0  0
 23 22  2  0  0  0  0
 26 24  1  0  0  0  0
 26 27  1  0  0  0  0
 27 25  2  0  0  0  0
 28 27  1  0  0  0  0
 28 30  2  0  0  0  0
 29 28  2  0  0  0  0
 31 28  1  0  0  0  0
 32 31  1  0  0  0  0
 33 34  1  0  0  0  0
 34 32  1  0  0  0  0
 37 36  1  1  0  0  0
 37 39  1  0  0  0  0
 37 41  1  0  0  0  0
 39 40  1  0  0  0  0
 40 38  1  0  0  0  0
 41 35  1  6  0  0  0
 41 40  1  0  0  0  0
M  END
>  <MODEL>
3

>  <REMARK>
 VINA RESULT:      -6.6      2.023      3.563
  Name = 
  10 active torsions:
  status: ('A' for Active; 'I' for Inactive)
    1  A    between atoms: C_1  and  C_30
    2  A    between atoms: S_7  and  N_21
    3  A    between atoms: S_7  and  C_41
    4  A    between atoms: N_10  and  P_29
    5  A    between atoms: N_16  and  C_18
    6  A    between atoms: C_18  and  C_37
    7  A    between atoms: N_21  and  C_40
    8  A    between atoms: C_24  and  C_40
    9  A    between atoms: C_30  and  C_34
   10  A    between atoms: C_36  and  C_39
                            x       y       z     vdW  Elec       q    Type
                         _______ _______ _______ _____ _____    ______ ____

>  <TORSDO>
F 10

$$$$
=
 OpenBabel11042413353D

 41 45  0  0  1  0  0  0  0  0999 V2000
  191.2310  175.0280  137.4320 C   0  0  2  0  0  3  0  0  0  0  0  0
  189.0180  179.2380  138.5770 Cl  0  0  0  0  0  0  0  0  0  0  0  0
  189.0810  177.5270  138.8950 N   0  0  0  0  0  0  0  0  0  0  0  0
  187.8950  175.9150  136.3320 C   0  0  0  0  0  2  0  0  0  0  0  0
  188.9920  175.6250  137.3450 C   0  0  2  0  0  3  0  0  0  0  0  0
  191.7240  176.6380  139.2120 N   0  0  0  0  0  2  0  0  0  0  0  0
  189.7160  176.8990  137.7210 C   0  0  2  0  0  3  0  0  0  0  0  0
  190.7390  176.2540  140.1300 N   0  0  0  0  0  2  0  0  0  0  0  0
  189.9790  174.7340  136.7430 N   0  0  2  0  0  0  0  0  0  0  0  0
  188.4220  172.9190  136.2030 C   0  0  0  0  0  2  0  0  0  0  0  0
  186.7640  174.8760  136.3400 C   0  0  0  0  0  2  0  0  0  0  0  0
  189.6130  173.3570  137.0500 C   0  0  0  0  0  2  0  0  0  0  0  0
  189.7860  177.3550  140.1740 C   0  0  2  0  0  3  0  0  0  0  0  0
  187.1350  173.4620  136.8150 C   0  0  1  0  0  3  0  0  0  0  0  0
  191.1870  176.4860  137.8590 C   0  0  2  0  0  3  0  0  0  0  0  0
  189.2950  177.0840  143.3260 N   0  0  0  0  0  0  0  0  0  0  0  0
  189.1320  176.2390  142.2600 O   0  0  0  0  0  0  0  0  0  0  0  0
  189.0810  178.2410  142.4830 C   0  0  0  0  0  2  0  0  0  0  0  0
  188.8100  177.2810  141.3710 C   0  0  1  0  0  3  0  0  0  0  0  0
  191.4880  175.6050  143.7310 O   0  0  0  0  0  1  0  0  0  0  0  0
  191.0800  177.5270  145.4450 O   0  0  0  0  0  1  0  0  0  0  0  0
  190.9810  177.0240  143.8340 P   0  0  0  0  0  0  0  0  0  0  0  0
  191.9500  178.0350  142.8850 O   0  0  0  0  0  0  0  0  0  0  0  0
  185.9720  172.4900  136.6250 C   0  0  0  0  0  2  0  0  0  0  0  0
  183.3590  171.4090  137.1710 O   0  0  0  0  0  0  0  0  0  0  0  0
  184.7030  173.1950  136.4800 N   0  0  0  0  0  2  0  0  0  0  0  0
  183.4330  172.5760  136.7000 C   0  0  0  0  0  0  0  0  0  0  0  0
  181.9640  173.4460  136.3060 S   0  0  0  0  0  0  0  0  0  0  0  0
  182.2890  174.5760  135.3680 O   0  0  0  0  0  0  0  0  0  0  0  0
  180.9960  172.5060  135.6390 O   0  0  0  0  0  0  0  0  0  0  0  0
  181.2630  174.0620  137.7630 N   0  0  0  0  0  2  0  0  0  0  0  0
  181.5650  175.4860  137.8320 C   0  0  0  0  0  2  0  0  0  0  0  0
  183.8330  176.5020  137.9410 C   0  0  0  0  0  1  0  0  0  0  0  0
  182.7860  175.7160  138.7050 C   0  0  0  0  0  2  0  0  0  0  0  0
  192.4100  174.7790  136.4960 C   0  0  0  0  0  2  0  0  0  0  0  0
  195.0450  172.2480  136.9720 C   0  0  0  0  0  1  0  0  0  0  0  0
  194.5460  173.5280  136.3310 C   0  0  2  0  0  3  0  0  0  0  0  0
  195.1200  175.1630  138.7230 N   0  0  0  0  0  1  0  0  0  0  0  0
  195.5010  174.6000  136.5640 N   0  0  0  0  0  2  0  0  0  0  0  0
  194.6050  175.2740  137.4220 N   0  0  0  0  0  0  0  0  0  0  0  0
  193.6060  174.2300  137.2630 C   0  0  1  0  0  3  0  0  0  0  0  0
  1 35  1  6  0  0  0
  1 15  1  0  0  0  0
  2  3  1  0  0  0  0
  3 13  1  0  0  0  0
  4 11  1  0  0  0  0
  5  4  1  6  0  0  0
  5  7  1  0  0  0  0
  6  8  1  0  0  0  0
  7 15  1  0  0  0  0
  7  3  1  1  0  0  0
  9 12  1  1  0  0  0
  9  5  1  0  0  0  0
  9  1  1  0  0  0  0
 10 14  1  0  0  0  0
 10 12  1  0  0  0  0
 11 14  1  0  0  0  0
 13  8  1  6  0  0  0
 13 19  1  0  0  0  0
 14 24  1  6  0  0  0
 15  6  1  1  0  0  0
 16 22  1  0  0  0  0
 17 16  1  0  0  0  0
 18 16  1  0  0  0  0
 19 17  1  0  0  0  0
 19 18  1  1  0  0  0
 20 22  1  0  0  0  0
 22 21  1  0  0  0  0
 23 22  2  0  0  0  0
 26 24  1  0  0  0  0
 26 27  1  0  0  0  0
 27 25  2  0  0  0  0
 28 27  1  0  0  0  0
 28 31  1  0  0  0  0
 29 28  2  0  0  0  0
 30 28  2  0  0  0  0
 31 32  1  0  0  0  0
 32 34  1  0  0  0  0
 33 34  1  0  0  0  0
 37 39  1  0  0  0  0
 37 36  1  1  0  0  0
 37 41  1  0  0  0  0
 39 40  1  0  0  0  0
 40 38  1  0  0  0  0
 41 35  1  6  0  0  0
 41 40  1  0  0  0  0
M  END
>  <MODEL>
4

>  <REMARK>
 VINA RESULT:      -6.4      4.416      9.718
  Name = 
  10 active torsions:
  status: ('A' for Active; 'I' for Inactive)
    1  A    between atoms: C_1  and  C_30
    2  A    between atoms: S_7  and  N_21
    3  A    between atoms: S_7  and  C_41
    4  A    between atoms: N_10  and  P_29
    5  A    between atoms: N_16  and  C_18
    6  A    between atoms: C_18  and  C_37
    7  A    between atoms: N_21  and  C_40
    8  A    between atoms: C_24  and  C_40
    9  A    between atoms: C_30  and  C_34
   10  A    between atoms: C_36  and  C_39
                            x       y       z     vdW  Elec       q    Type
                         _______ _______ _______ _____ _____    ______ ____

>  <TORSDO>
F 10

$$$$
=
 OpenBabel11042413353D

 41 45  0  0  1  0  0  0  0  0999 V2000
  184.5800  176.0690  137.0480 C   0  0  2  0  0  3  0  0  0  0  0  0
  188.3480  179.1780  136.7740 Cl  0  0  0  0  0  0  0  0  0  0  0  0
  187.5220  178.0230  137.7830 N   0  0  0  0  0  0  0  0  0  0  0  0
  184.6750  179.2750  138.7350 C   0  0  0  0  0  2  0  0  0  0  0  0
  185.1490  177.8690  138.3940 C   0  0  2  0  0  3  0  0  0  0  0  0
  186.9020  175.6810  136.3660 N   0  0  0  0  0  2  0  0  0  0  0  0
  186.1480  177.9080  137.2590 C   0  0  2  0  0  3  0  0  0  0  0  0
  187.4900  175.6000  137.6350 N   0  0  0  0  0  2  0  0  0  0  0  0
  184.0130  177.0760  137.9370 N   0  0  2  0  0  0  0  0  0  0  0  0
  182.6490  177.3580  139.9560 C   0  0  0  0  0  2  0  0  0  0  0  0
  184.1680  179.4180  140.1770 C   0  0  0  0  0  2  0  0  0  0  0  0
  183.4360  176.3850  139.0850 C   0  0  0  0  0  2  0  0  0  0  0  0
  188.3220  176.7890  137.7650 C   0  0  2  0  0  3  0  0  0  0  0  0
  183.6120  178.1450  140.8370 C   0  0  1  0  0  3  0  0  0  0  0  0
  185.8250  176.6700  136.4130 C   0  0  2  0  0  3  0  0  0  0  0  0
  191.2890  176.2780  138.8510 N   0  0  0  0  0  0  0  0  0  0  0  0
  190.1190  175.5670  138.9040 O   0  0  0  0  0  0  0  0  0  0  0  0
  190.5640  177.5290  138.7830 C   0  0  0  0  0  2  0  0  0  0  0  0
  189.3170  176.7230  138.9460 C   0  0  1  0  0  3  0  0  0  0  0  0
  191.1640  176.4150  136.1820 O   0  0  0  0  0  0  0  0  0  0  0  0
  192.3260  174.2930  137.1590 O   0  0  0  0  0  1  0  0  0  0  0  0
  192.0670  175.9580  137.3030 P   0  0  0  0  0  0  0  0  0  0  0  0
  193.5560  176.7540  137.1840 O   0  0  0  0  0  1  0  0  0  0  0  0
  182.9970  178.4530  142.2010 C   0  0  0  0  0  2  0  0  0  0  0  0
  182.7100  179.3760  144.9150 O   0  0  0  0  0  0  0  0  0  0  0  0
  183.9620  178.2660  143.2790 N   0  0  0  0  0  2  0  0  0  0  0  0
  183.7900  178.8130  144.5890 C   0  0  0  0  0  0  0  0  0  0  0  0
  185.0960  178.7060  145.7530 S   0  0  0  0  0  0  0  0  0  0  0  0
  185.6120  180.0860  146.0530 O   0  0  0  0  0  0  0  0  0  0  0  0
  184.5800  178.0790  147.0200 O   0  0  0  0  0  0  0  0  0  0  0  0
  186.3610  177.7250  145.0940 N   0  0  0  0  0  2  0  0  0  0  0  0
  187.3390  177.4980  146.1500 C   0  0  0  0  0  2  0  0  0  0  0  0
  188.9610  176.7640  144.4130 C   0  0  0  0  0  1  0  0  0  0  0  0
  188.7440  177.6770  145.6030 C   0  0  0  0  0  2  0  0  0  0  0  0
  183.5630  175.6880  135.9780 C   0  0  0  0  0  2  0  0  0  0  0  0
  184.9450  172.3280  136.5930 C   0  0  0  0  0  1  0  0  0  0  0  0
  184.0190  173.4640  136.9790 C   0  0  2  0  0  3  0  0  0  0  0  0
  181.9620  172.6990  135.0030 N   0  0  0  0  0  1  0  0  0  0  0  0
  182.6630  172.9610  137.1380 N   0  0  0  0  0  2  0  0  0  0  0  0
  182.2200  173.6580  135.9930 N   0  0  0  0  0  0  0  0  0  0  0  0
  183.5550  174.1820  135.7480 C   0  0  1  0  0  3  0  0  0  0  0  0
  1 35  1  6  0  0  0
  1  9  1  0  0  0  0
  2  3  1  0  0  0  0
  4 11  1  0  0  0  0
  5  4  1  6  0  0  0
  6  8  1  0  0  0  0
  7  3  1  1  0  0  0
  7  5  1  0  0  0  0
  9  5  1  0  0  0  0
  9 12  1  1  0  0  0
 10 14  1  0  0  0  0
 11 14  1  0  0  0  0
 12 10  1  0  0  0  0
 13  8  1  1  0  0  0
 13  3  1  0  0  0  0
 13 19  1  0  0  0  0
 14 24  1  1  0  0  0
 15  6  1  1  0  0  0
 15  1  1  0  0  0  0
 15  7  1  0  0  0  0
 16 17  1  0  0  0  0
 17 19  1  0  0  0  0
 18 16  1  0  0  0  0
 19 18  1  6  0  0  0
 20 22  2  0  0  0  0
 21 22  1  0  0  0  0
 22 16  1  0  0  0  0
 23 22  1  0  0  0  0
 24 26  1  0  0  0  0
 26 27  1  0  0  0  0
 27 25  2  0  0  0  0
 27 28  1  0  0  0  0
 28 29  2  0  0  0  0
 28 30  2  0  0  0  0
 31 28  1  0  0  0  0
 31 32  1  0  0  0  0
 33 34  1  0  0  0  0
 34 32  1  0  0  0  0
 37 36  1  6  0  0  0
 37 39  1  0  0  0  0
 38 40  1  0  0  0  0
 40 39  1  0  0  0  0
 41 35  1  1  0  0  0
 41 40  1  0  0  0  0
 41 37  1  0  0  0  0
M  END
>  <MODEL>
5

>  <REMARK>
 VINA RESULT:      -6.3      3.894      6.307
  Name = 
  10 active torsions:
  status: ('A' for Active; 'I' for Inactive)
    1  A    between atoms: C_1  and  C_30
    2  A    between atoms: S_7  and  N_21
    3  A    between atoms: S_7  and  C_41
    4  A    between atoms: N_10  and  P_29
    5  A    between atoms: N_16  and  C_18
    6  A    between atoms: C_18  and  C_37
    7  A    between atoms: N_21  and  C_40
    8  A    between atoms: C_24  and  C_40
    9  A    between atoms: C_30  and  C_34
   10  A    between atoms: C_36  and  C_39
                            x       y       z     vdW  Elec       q    Type
                         _______ _______ _______ _____ _____    ______ ____

>  <TORSDO>
F 10

$$$$
=
 OpenBabel11042413353D

 41 45  0  0  1  0  0  0  0  0999 V2000
  184.9630  178.4250  138.8040 C   0  0  2  0  0  3  0  0  0  0  0  0
  187.1830  176.1500  135.0840 Cl  0  0  0  0  0  0  0  0  0  0  0  0
  186.7610  176.0480  136.7710 N   0  0  0  0  0  0  0  0  0  0  0  0
  188.5610  178.1700  138.4550 C   0  0  0  0  0  2  0  0  0  0  0  0
  187.1380  177.6490  138.5950 C   0  0  2  0  0  3  0  0  0  0  0  0
  184.0880  176.7840  137.2080 N   0  0  0  0  0  2  0  0  0  0  0  0
  186.5190  177.4290  137.2330 C   0  0  2  0  0  3  0  0  0  0  0  0
  184.6000  175.6190  137.7920 N   0  0  0  0  0  2  0  0  0  0  0  0
  186.3240  178.6490  139.2780 N   0  0  2  0  0  0  0  0  0  0  0  0
  187.6920  178.7790  141.3090 C   0  0  0  0  0  2  0  0  0  0  0  0
  189.4470  177.8650  139.6710 C   0  0  0  0  0  2  0  0  0  0  0  0
  186.3500  178.3720  140.7100 C   0  0  0  0  0  2  0  0  0  0  0  0
  185.6190  175.1280  136.8730 C   0  0  2  0  0  3  0  0  0  0  0  0
  188.7270  177.6980  141.0200 C   0  0  1  0  0  3  0  0  0  0  0  0
  185.0570  177.8650  137.3940 C   0  0  2  0  0  3  0  0  0  0  0  0
  185.0020  171.9880  136.8240 N   0  0  0  0  0  0  0  0  0  0  0  0
  185.0660  172.9300  137.8150 O   0  0  0  0  0  0  0  0  0  0  0  0
  185.9470  172.7260  136.0140 C   0  0  0  0  0  2  0  0  0  0  0  0
  186.0650  173.6770  137.1620 C   0  0  1  0  0  3  0  0  0  0  0  0
  182.3480  171.9240  137.1570 O   0  0  0  0  0  1  0  0  0  0  0  0
  183.2510  170.7780  134.9950 O   0  0  0  0  0  0  0  0  0  0  0  0
  183.4040  172.0610  136.0860 P   0  0  0  0  0  0  0  0  0  0  0  0
  183.1730  173.5150  135.2530 O   0  0  0  0  0  1  0  0  0  0  0  0
  189.7260  177.5590  142.1670 C   0  0  0  0  0  2  0  0  0  0  0  0
  190.3820  178.8480  144.6580 O   0  0  0  0  0  0  0  0  0  0  0  0
  189.0510  177.3540  143.4440 N   0  0  0  0  0  2  0  0  0  0  0  0
  189.4730  177.9730  144.6620 C   0  0  0  0  0  0  0  0  0  0  0  0
  188.7240  177.5080  146.1760 S   0  0  0  0  0  0  0  0  0  0  0  0
  188.5730  178.7220  147.0530 O   0  0  0  0  0  0  0  0  0  0  0  0
  187.3670  176.9210  145.8980 O   0  0  0  0  0  0  0  0  0  0  0  0
  189.7180  176.3260  146.9580 N   0  0  0  0  0  2  0  0  0  0  0  0
  190.7230  177.0380  147.7360 C   0  0  0  0  0  2  0  0  0  0  0  0
  192.0790  175.4320  146.4060 C   0  0  0  0  0  1  0  0  0  0  0  0
  192.0620  176.3320  147.6260 C   0  0  0  0  0  2  0  0  0  0  0  0
  184.1880  179.7380  138.8090 C   0  0  0  0  0  2  0  0  0  0  0  0
  180.5990  180.2860  139.4370 C   0  0  0  0  0  1  0  0  0  0  0  0
  181.7270  179.4330  138.8920 C   0  0  2  0  0  3  0  0  0  0  0  0
  182.4440  178.3640  141.5500 N   0  0  0  0  0  1  0  0  0  0  0  0
  181.6440  178.0920  139.4510 N   0  0  0  0  0  2  0  0  0  0  0  0
  182.8240  178.2820  140.2020 N   0  0  0  0  0  0  0  0  0  0  0  0
  182.9640  179.6440  139.7110 C   0  0  1  0  0  3  0  0  0  0  0  0
  1 35  1  6  0  0  0
  1  9  1  0  0  0  0
  2  3  1  0  0  0  0
  3 13  1  0  0  0  0
  4 11  1  0  0  0  0
  5  4  1  6  0  0  0
  5  9  1  0  0  0  0
  6  8  1  0  0  0  0
  7  3  1  1  0  0  0
  7 15  1  0  0  0  0
  7  5  1  0  0  0  0
  9 12  1  1  0  0  0
 11 14  1  0  0  0  0
 12 10  1  0  0  0  0
 13 19  1  0  0  0  0
 13  8  1  1  0  0  0
 14 10  1  0  0  0  0
 14 24  1  1  0  0  0
 15  6  1  1  0  0  0
 15  1  1  0  0  0  0
 16 17  1  0  0  0  0
 18 16  1  0  0  0  0
 19 18  1  6  0  0  0
 19 17  1  0  0  0  0
 21 22  2  0  0  0  0
 22 16  1  0  0  0  0
 22 20  1  0  0  0  0
 23 22  1  0  0  0  0
 24 26  1  0  0  0  0
 25 27  2  0  0  0  0
 26 27  1  0  0  0  0
 27 28  1  0  0  0  0
 28 31  1  0  0  0  0
 28 29  2  0  0  0  0
 30 28  2  0  0  0  0
 31 32  1  0  0  0  0
 33 34  1  0  0  0  0
 34 32  1  0  0  0  0
 37 36  1  1  0  0  0
 37 39  1  0  0  0  0
 37 41  1  0  0  0  0
 39 40  1  0  0  0  0
 40 38  1  0  0  0  0
 41 35  1  6  0  0  0
 41 40  1  0  0  0  0
M  END
>  <MODEL>
6

>  <REMARK>
 VINA RESULT:      -6.2      1.720      2.199
  Name = 
  10 active torsions:
  status: ('A' for Active; 'I' for Inactive)
    1  A    between atoms: C_1  and  C_30
    2  A    between atoms: S_7  and  N_21
    3  A    between atoms: S_7  and  C_41
    4  A    between atoms: N_10  and  P_29
    5  A    between atoms: N_16  and  C_18
    6  A    between atoms: C_18  and  C_37
    7  A    between atoms: N_21  and  C_40
    8  A    between atoms: C_24  and  C_40
    9  A    between atoms: C_30  and  C_34
   10  A    between atoms: C_36  and  C_39
                            x       y       z     vdW  Elec       q    Type
                         _______ _______ _______ _____ _____    ______ ____

>  <TORSDO>
F 10

$$$$
=
 OpenBabel11042413353D

 41 45  0  0  1  0  0  0  0  0999 V2000
  185.0880  178.2590  138.6880 C   0  0  2  0  0  3  0  0  0  0  0  0
  188.2900  176.9430  135.2300 Cl  0  0  0  0  0  0  0  0  0  0  0  0
  187.6130  176.5270  136.7800 N   0  0  0  0  0  0  0  0  0  0  0  0
  188.6780  178.6350  139.0160 C   0  0  0  0  0  2  0  0  0  0  0  0
  187.3730  177.8790  138.8150 C   0  0  2  0  0  3  0  0  0  0  0  0
  184.8150  176.7550  136.7730 N   0  0  0  0  0  2  0  0  0  0  0  0
  187.0460  177.7670  137.3430 C   0  0  2  0  0  3  0  0  0  0  0  0
  185.4260  175.6120  137.3050 N   0  0  0  0  0  2  0  0  0  0  0  0
  186.2840  178.6240  139.4400 N   0  0  2  0  0  0  0  0  0  0  0  0
  187.2380  178.6680  141.6980 C   0  0  0  0  0  2  0  0  0  0  0  0
  189.3850  178.2980  140.3360 C   0  0  0  0  0  2  0  0  0  0  0  0
  186.1160  178.1460  140.8070 C   0  0  0  0  0  2  0  0  0  0  0  0
  186.6590  175.4320  136.5510 C   0  0  2  0  0  3  0  0  0  0  0  0
  188.4880  177.8200  141.4910 C   0  0  1  0  0  3  0  0  0  0  0  0
  185.5230  177.9360  137.2670 C   0  0  2  0  0  3  0  0  0  0  0  0
  186.4330  172.2400  136.4680 N   0  0  0  0  0  0  0  0  0  0  0  0
  186.4820  173.1650  137.4760 O   0  0  0  0  0  0  0  0  0  0  0  0
  187.1920  173.1060  135.5910 C   0  0  0  0  0  2  0  0  0  0  0  0
  187.3080  174.0430  136.7490 C   0  0  1  0  0  3  0  0  0  0  0  0
  184.4840  173.2660  134.9500 O   0  0  0  0  0  0  0  0  0  0  0  0
  183.7300  172.2320  137.2220 O   0  0  0  0  0  1  0  0  0  0  0  0
  184.7720  172.1240  135.8950 P   0  0  0  0  0  0  0  0  0  0  0  0
  184.4930  170.6560  135.1010 O   0  0  0  0  0  1  0  0  0  0  0  0
  189.2850  177.6730  142.7860 C   0  0  0  0  0  2  0  0  0  0  0  0
  190.1820  177.7790  145.5210 O   0  0  0  0  0  0  0  0  0  0  0  0
  188.4410  177.8640  143.9600 N   0  0  0  0  0  2  0  0  0  0  0  0
  188.9420  177.8360  145.2990 C   0  0  0  0  0  0  0  0  0  0  0  0
  187.8210  177.8730  146.6460 S   0  0  0  0  0  0  0  0  0  0  0  0
  187.2190  176.5070  146.8330 O   0  0  0  0  0  0  0  0  0  0  0  0
  188.5620  178.2670  147.8950 O   0  0  0  0  0  0  0  0  0  0  0  0
  186.5800  179.0340  146.3170 N   0  0  0  0  0  2  0  0  0  0  0  0
  185.3080  178.4450  146.7160 C   0  0  0  0  0  2  0  0  0  0  0  0
  184.8360  179.3910  144.4640 C   0  0  0  0  0  1  0  0  0  0  0  0
  184.3450  178.4460  145.5420 C   0  0  0  0  0  2  0  0  0  0  0  0
  184.0960  179.4170  138.6950 C   0  0  0  0  0  2  0  0  0  0  0  0
  181.6630  176.6570  138.8980 C   0  0  0  0  0  1  0  0  0  0  0  0
  182.6660  177.5820  139.5580 C   0  0  2  0  0  3  0  0  0  0  0  0
  180.7510  179.8240  139.7420 N   0  0  0  0  0  1  0  0  0  0  0  0
  182.0520  178.2390  140.7020 N   0  0  0  0  0  2  0  0  0  0  0  0
  182.0790  179.4930  140.0540 N   0  0  0  0  0  0  0  0  0  0  0  0
  182.6700  178.9090  138.8610 C   0  0  1  0  0  3  0  0  0  0  0  0
  1 35  1  6  0  0  0
  1  9  1  0  0  0  0
  2  3  1  0  0  0  0
  4 11  1  0  0  0  0
  5  4  1  6  0  0  0
  5  9  1  0  0  0  0
  6  8  1  0  0  0  0
  7  3  1  1  0  0  0
  7  5  1  0  0  0  0
  9 12  1  1  0  0  0
 11 14  1  0  0  0  0
 12 10  1  0  0  0  0
 13 19  1  0  0  0  0
 13  3  1  0  0  0  0
 13  8  1  1  0  0  0
 14 10  1  0  0  0  0
 14 24  1  1  0  0  0
 15  6  1  1  0  0  0
 15  7  1  0  0  0  0
 15  1  1  0  0  0  0
 16 17  1  0  0  0  0
 18 16  1  0  0  0  0
 19 18  1  6  0  0  0
 19 17  1  0  0  0  0
 20 22  2  0  0  0  0
 22 16  1  0  0  0  0
 22 21  1  0  0  0  0
 23 22  1  0  0  0  0
 24 26  1  0  0  0  0
 26 27  1  0  0  0  0
 27 25  2  0  0  0  0
 27 28  1  0  0  0  0
 28 29  2  0  0  0  0
 28 30  2  0  0  0  0
 31 28  1  0  0  0  0
 31 32  1  0  0  0  0
 33 34  1  0  0  0  0
 34 32  1  0  0  0  0
 37 36  1  6  0  0  0
 37 39  1  0  0  0  0
 38 40  1  0  0  0  0
 40 39  1  0  0  0  0
 41 35  1  1  0  0  0
 41 37  1  0  0  0  0
 41 40  1  0  0  0  0
M  END
>  <MODEL>
7

>  <REMARK>
 VINA RESULT:      -6.1      1.834      2.369
  Name = 
  10 active torsions:
  status: ('A' for Active; 'I' for Inactive)
    1  A    between atoms: C_1  and  C_30
    2  A    between atoms: S_7  and  N_21
    3  A    between atoms: S_7  and  C_41
    4  A    between atoms: N_10  and  P_29
    5  A    between atoms: N_16  and  C_18
    6  A    between atoms: C_18  and  C_37
    7  A    between atoms: N_21  and  C_40
    8  A    between atoms: C_24  and  C_40
    9  A    between atoms: C_30  and  C_34
   10  A    between atoms: C_36  and  C_39
                            x       y       z     vdW  Elec       q    Type
                         _______ _______ _______ _____ _____    ______ ____

>  <TORSDO>
F 10

$$$$
=
 OpenBabel11042413353D

 41 45  0  0  1  0  0  0  0  0999 V2000
  188.5360  174.9210  135.7350 C   0  0  2  0  0  3  0  0  0  0  0  0
  193.1570  176.4140  135.1350 Cl  0  0  0  0  0  0  0  0  0  0  0  0
  191.9970  175.7870  136.2720 N   0  0  0  0  0  0  0  0  0  0  0  0
  189.8040  178.0920  136.9470 C   0  0  0  0  0  2  0  0  0  0  0  0
  189.7390  176.5770  136.8260 C   0  0  2  0  0  3  0  0  0  0  0  0
  190.5520  173.6400  135.1880 N   0  0  0  0  0  2  0  0  0  0  0  0
  190.6600  176.0930  135.7280 C   0  0  2  0  0  3  0  0  0  0  0  0
  191.1010  173.5390  136.4720 N   0  0  0  0  0  2  0  0  0  0  0  0
  188.3840  176.1820  136.4530 N   0  0  2  0  0  0  0  0  0  0  0  0
  187.2560  177.2200  138.3670 C   0  0  0  0  0  2  0  0  0  0  0  0
  189.4140  178.6130  138.3380 C   0  0  0  0  0  2  0  0  0  0  0  0
  187.6250  175.9150  137.6690 C   0  0  0  0  0  2  0  0  0  0  0  0
  192.3040  174.3610  136.4560 C   0  0  2  0  0  3  0  0  0  0  0  0
  188.4560  177.7320  139.1560 C   0  0  1  0  0  3  0  0  0  0  0  0
  189.8980  174.9420  135.0590 C   0  0  2  0  0  3  0  0  0  0  0  0
  195.2600  174.0830  137.6510 N   0  0  0  0  0  0  0  0  0  0  0  0
  194.2570  173.1930  137.3730 O   0  0  0  0  0  0  0  0  0  0  0  0
  194.3010  175.1440  137.8730 C   0  0  0  0  0  2  0  0  0  0  0  0
  193.2360  174.1170  137.6640 C   0  0  1  0  0  3  0  0  0  0  0  0
  197.4680  173.6470  136.2050 O   0  0  0  0  0  1  0  0  0  0  0  0
  196.4720  176.0530  136.0630 O   0  0  0  0  0  1  0  0  0  0  0  0
  196.1570  174.3950  136.1670 P   0  0  0  0  0  0  0  0  0  0  0  0
  195.2790  173.9190  134.8020 O   0  0  0  0  0  0  0  0  0  0  0  0
  188.0220  178.4320  140.4420 C   0  0  0  0  0  2  0  0  0  0  0  0
  188.2980  176.2630  142.3180 O   0  0  0  0  0  0  0  0  0  0  0  0
  189.0380  178.3200  141.4830 N   0  0  0  0  0  2  0  0  0  0  0  0
  189.0760  177.2490  142.4290 C   0  0  0  0  0  0  0  0  0  0  0  0
  190.2120  177.3100  143.7630 S   0  0  0  0  0  0  0  0  0  0  0  0
  191.3640  176.3840  143.4810 O   0  0  0  0  0  0  0  0  0  0  0  0
  190.7270  178.7160  143.9100 O   0  0  0  0  0  0  0  0  0  0  0  0
  189.4030  176.8330  145.2170 N   0  0  0  0  0  2  0  0  0  0  0  0
  188.1160  177.5150  145.2500 C   0  0  0  0  0  2  0  0  0  0  0  0
  188.8680  177.4630  147.6210 C   0  0  0  0  0  1  0  0  0  0  0  0
  187.7380  177.8400  146.6840 C   0  0  0  0  0  2  0  0  0  0  0  0
  187.4260  174.7760  134.7000 C   0  0  0  0  0  2  0  0  0  0  0  0
  187.5440  171.2320  135.7010 C   0  0  0  0  0  1  0  0  0  0  0  0
  187.2310  172.6810  136.0160 C   0  0  2  0  0  3  0  0  0  0  0  0
  184.6370  172.6170  134.6050 N   0  0  0  0  0  1  0  0  0  0  0  0
  185.8630  172.7970  136.4980 N   0  0  0  0  0  2  0  0  0  0  0  0
  185.4620  173.4860  135.3340 N   0  0  0  0  0  0  0  0  0  0  0  0
  186.7980  173.3900  134.7680 C   0  0  1  0  0  3  0  0  0  0  0  0
  1 35  1  6  0  0  0
  1  9  1  0  0  0  0
  2  3  1  0  0  0  0
  3 13  1  0  0  0  0
  4 11  1  0  0  0  0
  5  4  1  6  0  0  0
  6  8  1  0  0  0  0
  7  3  1  1  0  0  0
  7  5  1  0  0  0  0
  9  5  1  0  0  0  0
  9 12  1  1  0  0  0
 10 14  1  0  0  0  0
 11 14  1  0  0  0  0
 12 10  1  0  0  0  0
 13  8  1  1  0  0  0
 13 19  1  0  0  0  0
 14 24  1  1  0  0  0
 15  6  1  1  0  0  0
 15  7  1  0  0  0  0
 15  1  1  0  0  0  0
 16 18  1  0  0  0  0
 17 16  1  0  0  0  0
 17 19  1  0  0  0  0
 19 18  1  6  0  0  0
 21 22  1  0  0  0  0
 22 20  1  0  0  0  0
 22 16  1  0  0  0  0
 23 22  2  0  0  0  0
 24 26  1  0  0  0  0
 25 27  2  0  0  0  0
 26 27  1  0  0  0  0
 27 28  1  0  0  0  0
 28 30  2  0  0  0  0
 28 31  1  0  0  0  0
 29 28  2  0  0  0  0
 31 32  1  0  0  0  0
 32 34  1  0  0  0  0
 34 33  1  0  0  0  0
 37 36  1  6  0  0  0
 37 39  1  0  0  0  0
 38 40  1  0  0  0  0
 40 39  1  0  0  0  0
 41 35  1  1  0  0  0
 41 40  1  0  0  0  0
 41 37  1  0  0  0  0
M  END
>  <MODEL>
8

>  <REMARK>
 VINA RESULT:      -5.8      4.740      7.277
  Name = 
  10 active torsions:
  status: ('A' for Active; 'I' for Inactive)
    1  A    between atoms: C_1  and  C_30
    2  A    between atoms: S_7  and  N_21
    3  A    between atoms: S_7  and  C_41
    4  A    between atoms: N_10  and  P_29
    5  A    between atoms: N_16  and  C_18
    6  A    between atoms: C_18  and  C_37
    7  A    between atoms: N_21  and  C_40
    8  A    between atoms: C_24  and  C_40
    9  A    between atoms: C_30  and  C_34
   10  A    between atoms: C_36  and  C_39
                            x       y       z     vdW  Elec       q    Type
                         _______ _______ _______ _____ _____    ______ ____

>  <TORSDO>
F 10

$$$$
=
 OpenBabel11042413353D

 41 45  0  0  1  0  0  0  0  0999 V2000
  182.5560  178.6520  142.4160 C   0  0  2  0  0  3  0  0  0  0  0  0
  179.0480  179.7180  139.1760 Cl  0  0  0  0  0  0  0  0  0  0  0  0
  180.3100  178.5920  139.5940 N   0  0  0  0  0  0  0  0  0  0  0  0
  183.2030  179.9970  139.1140 C   0  0  0  0  0  2  0  0  0  0  0  0
  182.6730  178.9910  140.1240 C   0  0  2  0  0  3  0  0  0  0  0  0
  180.2210  177.9150  142.3160 N   0  0  0  0  0  2  0  0  0  0  0  0
  181.2400  179.3080  140.4870 C   0  0  2  0  0  3  0  0  0  0  0  0
  180.3510  176.9120  141.3470 N   0  0  0  0  0  2  0  0  0  0  0  0
  183.4560  179.0850  141.3530 N   0  0  2  0  0  0  0  0  0  0  0  0
  185.6360  178.6280  140.3270 C   0  0  0  0  0  2  0  0  0  0  0  0
  184.3590  179.4580  138.2590 C   0  0  0  0  0  2  0  0  0  0  0  0
  184.5550  178.1290  141.2800 C   0  0  0  0  0  2  0  0  0  0  0  0
  179.6540  177.4070  140.1670 C   0  0  2  0  0  3  0  0  0  0  0  0
  185.2170  178.3480  138.8890 C   0  0  1  0  0  3  0  0  0  0  0  0
  181.1410  179.0050  141.9870 C   0  0  2  0  0  3  0  0  0  0  0  0
  180.7680  175.3390  137.9930 N   0  0  0  0  0  0  0  0  0  0  0  0
  180.1140  176.5390  137.9180 O   0  0  0  0  0  0  0  0  0  0  0  0
  180.1580  175.0490  139.2730 C   0  0  0  0  0  2  0  0  0  0  0  0
  179.3880  176.3180  139.1030 C   0  0  1  0  0  3  0  0  0  0  0  0
  183.2750  174.4210  137.8270 O   0  0  0  0  0  1  0  0  0  0  0  0
  182.7730  175.9990  139.8420 O   0  0  0  0  0  1  0  0  0  0  0  0
  182.4880  175.6510  138.2120 P   0  0  0  0  0  0  0  0  0  0  0  0
  183.0030  176.9630  137.2760 O   0  0  0  0  0  0  0  0  0  0  0  0
  186.4200  178.0130  138.0100 C   0  0  0  0  0  2  0  0  0  0  0  0
  189.0350  179.1350  138.4590 O   0  0  0  0  0  0  0  0  0  0  0  0
  187.4960  177.4020  138.7840 N   0  0  0  0  0  2  0  0  0  0  0  0
  188.7980  177.9810  138.9090 C   0  0  0  0  0  0  0  0  0  0  0  0
  190.0790  177.0750  139.6890 S   0  0  0  0  0  0  0  0  0  0  0  0
  190.2690  175.7630  138.9760 O   0  0  0  0  0  0  0  0  0  0  0  0
  191.3560  177.8680  139.6240 O   0  0  0  0  0  0  0  0  0  0  0  0
  189.6500  176.7990  141.3430 N   0  0  0  0  0  2  0  0  0  0  0  0
  190.7200  177.3370  142.1720 C   0  0  0  0  0  2  0  0  0  0  0  0
  191.1430  179.0050  143.9680 C   0  0  0  0  0  1  0  0  0  0  0  0
  190.1360  178.0330  143.3880 C   0  0  0  0  0  2  0  0  0  0  0  0
  182.9140  179.3580  143.7190 C   0  0  0  0  0  2  0  0  0  0  0  0
  186.2720  177.8780  144.0560 C   0  0  0  0  0  1  0  0  0  0  0  0
  185.3270  179.0530  144.2120 C   0  0  2  0  0  3  0  0  0  0  0  0
  184.1780  178.0260  146.7320 N   0  0  0  0  0  1  0  0  0  0  0  0
  185.3840  179.5530  145.5770 N   0  0  0  0  0  2  0  0  0  0  0  0
  184.0720  179.1080  145.8450 N   0  0  0  0  0  0  0  0  0  0  0  0
  183.9430  178.5560  144.5060 C   0  0  1  0  0  3  0  0  0  0  0  0
  1 35  1  1  0  0  0
  2  3  1  0  0  0  0
  3 13  1  0  0  0  0
  5  4  1  6  0  0  0
  5  7  1  0  0  0  0
  5  9  1  0  0  0  0
  7  3  1  6  0  0  0
  7 15  1  0  0  0  0
  8  6  1  0  0  0  0
  9 12  1  6  0  0  0
  9  1  1  0  0  0  0
 10 12  1  0  0  0  0
 11 14  1  0  0  0  0
 11  4  1  0  0  0  0
 13  8  1  1  0  0  0
 14 24  1  6  0  0  0
 14 10  1  0  0  0  0
 15  6  1  6  0  0  0
 15  1  1  0  0  0  0
 16 22  1  0  0  0  0
 16 18  1  0  0  0  0
 17 16  1  0  0  0  0
 17 19  1  0  0  0  0
 19 18  1  1  0  0  0
 19 13  1  0  0  0  0
 20 22  1  0  0  0  0
 22 21  1  0  0  0  0
 23 22  2  0  0  0  0
 24 26  1  0  0  0  0
 25 27  2  0  0  0  0
 26 27  1  0  0  0  0
 27 28  1  0  0  0  0
 28 31  1  0  0  0  0
 29 28  2  0  0  0  0
 30 28  2  0  0  0  0
 31 32  1  0  0  0  0
 32 34  1  0  0  0  0
 34 33  1  0  0  0  0
 37 36  1  1  0  0  0
 37 41  1  0  0  0  0
 37 39  1  0  0  0  0
 39 40  1  0  0  0  0
 40 38  1  0  0  0  0
 41 35  1  6  0  0  0
 41 40  1  0  0  0  0
M  END
>  <MODEL>
9

>  <REMARK>
 VINA RESULT:      -5.6      3.256      5.449
  Name = 
  10 active torsions:
  status: ('A' for Active; 'I' for Inactive)
    1  A    between atoms: C_1  and  C_30
    2  A    between atoms: S_7  and  N_21
    3  A    between atoms: S_7  and  C_41
    4  A    between atoms: N_10  and  P_29
    5  A    between atoms: N_16  and  C_18
    6  A    between atoms: C_18  and  C_37
    7  A    between atoms: N_21  and  C_40
    8  A    between atoms: C_24  and  C_40
    9  A    between atoms: C_30  and  C_34
   10  A    between atoms: C_36  and  C_39
                            x       y       z     vdW  Elec       q    Type
                         _______ _______ _______ _____ _____    ______ ____

>  <TORSDO>
F 10

$$$$
