=
 OpenBabel11032420253D

 39 40  0  0  1  0  0  0  0  0999 V2000
  188.3270  177.7530  138.3310 C   0  0  1  0  0  3  0  0  0  0  0  0
  189.0750  178.8660  137.6160 C   0  0  0  0  0  1  0  0  0  0  0  0
  190.0860  176.1390  137.9340 O   0  0  0  0  0  1  0  0  0  0  0  0
  189.3240  176.7620  138.9300 C   0  0  1  0  0  3  0  0  0  0  0  0
  190.2290  177.4050  139.9740 C   0  0  0  0  0  2  0  0  0  0  0  0
  190.2650  177.3220  142.4930 C   0  0  0  0  0  0  0  0  0  0  0  0
  190.3060  176.5350  143.6880 N   0  0  0  0  0  2  0  0  0  0  0  0
  190.3250  178.5820  142.5520 O   0  0  0  0  0  0  0  0  0  0  0  0
  190.1940  176.6660  141.2270 N   0  0  0  0  0  2  0  0  0  0  0  0
  188.8610  177.3030  145.5400 C   0  0  0  0  0  0  0  0  0  0  0  0
  190.0410  177.0170  145.0130 C   0  0  1  0  0  3  0  0  0  0  0  0
  187.5850  177.2330  144.9740 C   0  0  0  0  0  3  0  0  0  0  0  0
  189.0420  177.6670  146.8520 C   0  0  0  0  0  0  0  0  0  0  0  0
  186.4830  177.5740  145.7770 C   0  0  0  0  0  3  0  0  0  0  0  0
  191.0820  177.1990  146.0810 C   0  0  1  0  0  3  0  0  0  0  0  0
  186.6730  177.9640  147.1180 C   0  0  0  0  0  3  0  0  0  0  0  0
  187.9640  178.0100  147.6690 C   0  0  0  0  0  3  0  0  0  0  0  0
  190.2770  177.6320  147.2260 N   0  0  0  0  0  2  0  0  0  0  0  0
  191.7690  175.9110  146.4080 C   0  0  0  0  0  3  0  0  0  0  0  0
  192.9460  175.5750  148.6390 O   0  0  0  0  0  0  0  0  0  0  0  0
  192.3730  175.7420  147.5530 C   0  0  0  0  0  0  0  0  0  0  0  0
  187.4720  178.3200  139.3690 N   0  0  0  0  0  2  0  0  0  0  0  0
  186.1660  178.5850  138.7790 C   0  0  1  0  0  3  0  0  0  0  0  0
  185.8390  177.5590  137.8900 O   0  0  0  0  0  1  0  0  0  0  0  0
  185.1090  178.6730  139.8770 C   0  0  2  0  0  3  0  0  0  0  0  0
  184.0540  180.6610  138.9620 O   0  0  0  0  0  1  0  0  0  0  0  0
  182.5540  177.5170  139.6940 O   0  0  0  0  0  0  0  0  0  0  0  0
  183.9270  179.3860  139.4010 N   0  0  0  0  0  0  0  0  0  0  0  0
  182.6380  178.7500  139.4430 C   0  0  0  0  0  0  0  0  0  0  0  0
  181.3710  179.5170  139.1990 C   0  0  1  0  0  3  0  0  0  0  0  0
  180.6900  179.0360  138.0780 O   0  0  0  0  0  1  0  0  0  0  0  0
  180.4620  179.5490  140.4260 C   0  0  0  0  0  2  0  0  0  0  0  0
  181.0020  178.8090  141.4810 O   0  0  0  0  0  0  0  0  0  0  0  0
  180.6080  178.6180  143.8160 C   0  0  0  0  0  1  0  0  0  0  0  0
  180.7130  179.5500  142.6280 C   0  0  0  0  0  2  0  0  0  0  0  0
  185.6520  179.3520  141.0480 N   0  0  0  0  0  2  0  0  0  0  0  0
  185.4610  178.4690  142.1890 C   0  0  0  0  0  2  0  0  0  0  0  0
  184.2960  178.9550  143.0320 C   0  0  0  0  0  2  0  0  0  0  0  0
  184.7350  179.9290  143.9310 O   0  0  0  0  0  1  0  0  0  0  0  0
  1  2  1  1  0  0  0
  1  4  1  0  0  0  0
  1 22  1  0  0  0  0
  4  3  1  6  0  0  0
  4  5  1  0  0  0  0
  5  9  1  0  0  0  0
  6  8  2  0  0  0  0
  6  7  1  0  0  0  0
  9  6  1  0  0  0  0
 10 13  1  0  0  0  0
 11  7  1  1  0  0  0
 11 10  1  0  0  0  0
 11 15  1  0  0  0  0
 12 10  2  0  0  0  0
 12 14  1  0  0  0  0
 13 18  1  0  0  0  0
 13 17  2  0  0  0  0
 14 16  2  0  0  0  0
 15 19  1  1  0  0  0
 15 18  1  0  0  0  0
 16 17  1  0  0  0  0
 19 21  2  0  0  0  0
 21 20  2  0  0  0  0
 23 24  1  6  0  0  0
 23 22  1  0  0  0  0
 23 25  1  0  0  0  0
 25 36  1  1  0  0  0
 26 28  1  0  0  0  0
 28 29  1  0  0  0  0
 28 25  1  0  0  0  0
 29 27  2  0  0  0  0
 30 31  1  6  0  0  0
 30 29  1  0  0  0  0
 30 32  1  0  0  0  0
 32 33  1  0  0  0  0
 33 35  1  0  0  0  0
 35 34  1  0  0  0  0
 36 37  1  0  0  0  0
 37 38  1  0  0  0  0
 38 39  1  0  0  0  0
M  END
>  <MODEL>
1

>  <REMARK>
 VINA RESULT:      -7.8      0.000      0.000
  Name = 
  16 active torsions:
  status: ('A' for Active; 'I' for Inactive)
    1  A    between atoms: C_1  and  C_19
    2  A    between atoms: C_1  and  N_35
    3  A    between atoms: C_3  and  C_25
    4  A    between atoms: C_4  and  N_14
    5  A    between atoms: C_11  and  O_32
    6  A    between atoms: N_13  and  C_23
    7  A    between atoms: N_13  and  C_27
    8  A    between atoms: C_15  and  C_19
    9  A    between atoms: C_15  and  N_34
   10  A    between atoms: N_18  and  C_27
   11  A    between atoms: C_22  and  C_27
   12  A    between atoms: C_22  and  N_34
   13  A    between atoms: C_23  and  C_24
   14  A    between atoms: C_26  and  C_28
   15  A    between atoms: C_26  and  C_38
   16  A    between atoms: C_28  and  O_32
                            x       y       z     vdW  Elec       q    Type
                         _______ _______ _______ _____ _____    ______ ____

>  <TORSDO>
F 16

$$$$
=
 OpenBabel11032420253D

 39 40  0  0  1  0  0  0  0  0999 V2000
  188.3090  178.1120  139.1350 C   0  0  1  0  0  3  0  0  0  0  0  0
  189.1150  179.0030  138.2050 C   0  0  0  0  0  1  0  0  0  0  0  0
  189.5900  176.1750  138.4510 O   0  0  0  0  0  1  0  0  0  0  0  0
  189.1530  176.9110  139.5600 C   0  0  1  0  0  3  0  0  0  0  0  0
  190.3340  177.3100  140.4370 C   0  0  0  0  0  2  0  0  0  0  0  0
  190.2570  177.2930  142.9570 C   0  0  0  0  0  0  0  0  0  0  0  0
  190.3130  176.5420  144.1750 N   0  0  0  0  0  2  0  0  0  0  0  0
  190.1970  178.5530  142.9830 O   0  0  0  0  0  0  0  0  0  0  0  0
  190.3070  176.6020  141.7080 N   0  0  0  0  0  2  0  0  0  0  0  0
  188.7320  177.3840  145.8780 C   0  0  0  0  0  0  0  0  0  0  0  0
  189.9410  177.0290  145.4720 C   0  0  1  0  0  3  0  0  0  0  0  0
  187.5200  177.3980  145.1820 C   0  0  0  0  0  3  0  0  0  0  0  0
  188.7970  177.7260  147.2070 C   0  0  0  0  0  0  0  0  0  0  0  0
  186.3630  177.7990  145.8720 C   0  0  0  0  0  3  0  0  0  0  0  0
  190.8740  177.1380  146.6440 C   0  0  1  0  0  3  0  0  0  0  0  0
  186.4370  178.1670  147.2310 C   0  0  0  0  0  3  0  0  0  0  0  0
  187.6630  178.1290  147.9130 C   0  0  0  0  0  3  0  0  0  0  0  0
  189.9830  177.6120  147.7060 N   0  0  0  0  0  2  0  0  0  0  0  0
  191.4440  175.8080  147.0230 C   0  0  0  0  0  3  0  0  0  0  0  0
  193.4620  175.6280  148.5620 O   0  0  0  0  0  0  0  0  0  0  0  0
  192.4800  175.7190  147.8110 C   0  0  0  0  0  0  0  0  0  0  0  0
  187.8730  178.8770  140.2980 N   0  0  0  0  0  2  0  0  0  0  0  0
  186.7330  178.1870  140.8880 C   0  0  1  0  0  3  0  0  0  0  0  0
  187.1170  177.6060  142.0990 O   0  0  0  0  0  1  0  0  0  0  0  0
  185.5950  179.1770  141.1280 C   0  0  2  0  0  3  0  0  0  0  0  0
  183.8980  177.4910  141.5580 O   0  0  0  0  0  1  0  0  0  0  0  0
  184.9900  180.1080  143.7090 O   0  0  0  0  0  0  0  0  0  0  0  0
  184.5700  178.5870  141.9850 N   0  0  0  0  0  0  0  0  0  0  0  0
  184.2520  179.1950  143.2480 C   0  0  0  0  0  0  0  0  0  0  0  0
  183.0510  178.7780  144.0460 C   0  0  1  0  0  3  0  0  0  0  0  0
  183.1900  179.1160  145.3940 O   0  0  0  0  0  1  0  0  0  0  0  0
  181.7470  179.3250  143.4690 C   0  0  0  0  0  2  0  0  0  0  0  0
  180.6890  178.4320  143.6620 O   0  0  0  0  0  0  0  0  0  0  0  0
  180.4840  178.1870  141.3080 C   0  0  0  0  0  1  0  0  0  0  0  0
  179.8270  178.6570  142.5870 C   0  0  0  0  0  2  0  0  0  0  0  0
  185.0000  179.5790  139.8590 N   0  0  0  0  0  2  0  0  0  0  0  0
  184.5740  178.3660  139.1760 C   0  0  0  0  0  2  0  0  0  0  0  0
  183.2820  178.6220  138.4210 C   0  0  0  0  0  2  0  0  0  0  0  0
  182.8370  179.9220  138.6680 O   0  0  0  0  0  1  0  0  0  0  0  0
  1  2  1  6  0  0  0
  1  4  1  0  0  0  0
  1 22  1  0  0  0  0
  4  3  1  6  0  0  0
  4  5  1  0  0  0  0
  5  9  1  0  0  0  0
  6  8  2  0  0  0  0
  6  7  1  0  0  0  0
  9  6  1  0  0  0  0
 10 13  1  0  0  0  0
 11  7  1  1  0  0  0
 11 10  1  0  0  0  0
 11 15  1  0  0  0  0
 12 14  1  0  0  0  0
 12 10  2  0  0  0  0
 13 18  1  0  0  0  0
 13 17  2  0  0  0  0
 14 16  2  0  0  0  0
 15 19  1  1  0  0  0
 15 18  1  0  0  0  0
 16 17  1  0  0  0  0
 19 21  2  0  0  0  0
 21 20  2  0  0  0  0
 22 23  1  0  0  0  0
 23 25  1  0  0  0  0
 23 24  1  1  0  0  0
 25 36  1  6  0  0  0
 25 28  1  0  0  0  0
 26 28  1  0  0  0  0
 28 29  1  0  0  0  0
 29 27  2  0  0  0  0
 29 30  1  0  0  0  0
 30 31  1  1  0  0  0
 32 33  1  0  0  0  0
 32 30  1  0  0  0  0
 34 35  1  0  0  0  0
 35 33  1  0  0  0  0
 37 36  1  0  0  0  0
 38 39  1  0  0  0  0
 38 37  1  0  0  0  0
M  END
>  <MODEL>
2

>  <REMARK>
 VINA RESULT:      -7.4      1.260      2.680
  Name = 
  16 active torsions:
  status: ('A' for Active; 'I' for Inactive)
    1  A    between atoms: C_1  and  C_19
    2  A    between atoms: C_1  and  N_35
    3  A    between atoms: C_3  and  C_25
    4  A    between atoms: C_4  and  N_14
    5  A    between atoms: C_11  and  O_32
    6  A    between atoms: N_13  and  C_23
    7  A    between atoms: N_13  and  C_27
    8  A    between atoms: C_15  and  C_19
    9  A    between atoms: C_15  and  N_34
   10  A    between atoms: N_18  and  C_27
   11  A    between atoms: C_22  and  C_27
   12  A    between atoms: C_22  and  N_34
   13  A    between atoms: C_23  and  C_24
   14  A    between atoms: C_26  and  C_28
   15  A    between atoms: C_26  and  C_38
   16  A    between atoms: C_28  and  O_32
                            x       y       z     vdW  Elec       q    Type
                         _______ _______ _______ _____ _____    ______ ____

>  <TORSDO>
F 16

$$$$
=
 OpenBabel11032420253D

 39 40  0  0  1  0  0  0  0  0999 V2000
  189.4110  177.3750  137.3150 C   0  0  1  0  0  3  0  0  0  0  0  0
  189.2210  178.8590  137.5850 C   0  0  0  0  0  1  0  0  0  0  0  0
  190.5600  175.6830  138.6090 O   0  0  0  0  0  1  0  0  0  0  0  0
  189.5180  176.6190  138.6380 C   0  0  1  0  0  3  0  0  0  0  0  0
  189.6720  177.5540  139.8320 C   0  0  0  0  0  2  0  0  0  0  0  0
  189.9220  177.4490  142.3390 C   0  0  0  0  0  0  0  0  0  0  0  0
  190.1640  176.6620  143.5100 N   0  0  0  0  0  2  0  0  0  0  0  0
  189.8160  178.7050  142.4200 O   0  0  0  0  0  0  0  0  0  0  0  0
  189.8380  176.8040  141.0680 N   0  0  0  0  0  2  0  0  0  0  0  0
  188.7810  177.3230  145.4490 C   0  0  0  0  0  0  0  0  0  0  0  0
  189.9450  177.0900  144.8620 C   0  0  1  0  0  3  0  0  0  0  0  0
  187.4840  177.2370  144.9350 C   0  0  0  0  0  3  0  0  0  0  0  0
  189.0090  177.6460  146.7640 C   0  0  0  0  0  0  0  0  0  0  0  0
  186.4100  177.5180  145.7970 C   0  0  0  0  0  3  0  0  0  0  0  0
  191.0250  177.2640  145.8900 C   0  0  1  0  0  3  0  0  0  0  0  0
  186.6480  177.8660  147.1410 C   0  0  0  0  0  3  0  0  0  0  0  0
  187.9600  177.9300  147.6390 C   0  0  0  0  0  3  0  0  0  0  0  0
  190.2610  177.6340  147.0840 N   0  0  0  0  0  2  0  0  0  0  0  0
  191.7610  175.9850  146.1410 C   0  0  0  0  0  3  0  0  0  0  0  0
  192.8690  175.5200  148.3840 O   0  0  0  0  0  0  0  0  0  0  0  0
  192.3300  175.7500  147.2910 C   0  0  0  0  0  0  0  0  0  0  0  0
  188.2980  176.8720  136.5180 N   0  0  0  0  0  2  0  0  0  0  0  0
  187.2610  177.8960  136.4960 C   0  0  1  0  0  3  0  0  0  0  0  0
  187.0600  178.3270  135.1830 O   0  0  0  0  0  1  0  0  0  0  0  0
  185.9590  177.3290  137.0580 C   0  0  2  0  0  3  0  0  0  0  0  0
  186.4050  178.5370  139.1190 O   0  0  0  0  0  1  0  0  0  0  0  0
  183.2980  178.1530  137.4250 O   0  0  0  0  0  0  0  0  0  0  0  0
  185.5030  178.1170  138.2000 N   0  0  0  0  0  0  0  0  0  0  0  0
  184.1030  178.4020  138.3630 C   0  0  0  0  0  0  0  0  0  0  0  0
  183.5600  178.9890  139.6330 C   0  0  1  0  0  3  0  0  0  0  0  0
  182.4370  179.7830  139.3890 O   0  0  0  0  0  1  0  0  0  0  0  0
  183.2670  177.9260  140.6910 C   0  0  0  0  0  2  0  0  0  0  0  0
  183.1640  178.4900  141.9660 O   0  0  0  0  0  0  0  0  0  0  0  0
  184.7650  179.4930  143.4060 C   0  0  0  0  0  1  0  0  0  0  0  0
  184.4180  178.2950  142.5490 C   0  0  0  0  0  2  0  0  0  0  0  0
  186.1480  175.9410  137.4650 N   0  0  0  0  0  2  0  0  0  0  0  0
  185.5270  175.1040  136.4480 C   0  0  0  0  0  2  0  0  0  0  0  0
  184.0200  175.0920  136.6350 C   0  0  0  0  0  2  0  0  0  0  0  0
  183.7050  174.6470  137.9190 O   0  0  0  0  0  1  0  0  0  0  0  0
  1  2  1  1  0  0  0
  1  4  1  0  0  0  0
  4  3  1  6  0  0  0
  4  5  1  0  0  0  0
  5  9  1  0  0  0  0
  6  8  2  0  0  0  0
  6  7  1  0  0  0  0
  9  6  1  0  0  0  0
 10 13  1  0  0  0  0
 11  7  1  1  0  0  0
 11 10  1  0  0  0  0
 11 15  1  0  0  0  0
 12 10  2  0  0  0  0
 12 14  1  0  0  0  0
 13 18  1  0  0  0  0
 13 17  2  0  0  0  0
 14 16  2  0  0  0  0
 15 19  1  1  0  0  0
 15 18  1  0  0  0  0
 16 17  1  0  0  0  0
 19 21  2  0  0  0  0
 21 20  2  0  0  0  0
 22  1  1  0  0  0  0
 23 24  1  6  0  0  0
 23 22  1  0  0  0  0
 23 25  1  0  0  0  0
 25 36  1  1  0  0  0
 25 28  1  0  0  0  0
 27 29  2  0  0  0  0
 28 29  1  0  0  0  0
 28 26  1  0  0  0  0
 29 30  1  0  0  0  0
 30 31  1  6  0  0  0
 30 32  1  0  0  0  0
 32 33  1  0  0  0  0
 33 35  1  0  0  0  0
 35 34  1  0  0  0  0
 37 38  1  0  0  0  0
 37 36  1  0  0  0  0
 38 39  1  0  0  0  0
M  END
>  <MODEL>
3

>  <REMARK>
 VINA RESULT:      -7.3      1.815      2.853
  Name = 
  16 active torsions:
  status: ('A' for Active; 'I' for Inactive)
    1  A    between atoms: C_1  and  C_19
    2  A    between atoms: C_1  and  N_35
    3  A    between atoms: C_3  and  C_25
    4  A    between atoms: C_4  and  N_14
    5  A    between atoms: C_11  and  O_32
    6  A    between atoms: N_13  and  C_23
    7  A    between atoms: N_13  and  C_27
    8  A    between atoms: C_15  and  C_19
    9  A    between atoms: C_15  and  N_34
   10  A    between atoms: N_18  and  C_27
   11  A    between atoms: C_22  and  C_27
   12  A    between atoms: C_22  and  N_34
   13  A    between atoms: C_23  and  C_24
   14  A    between atoms: C_26  and  C_28
   15  A    between atoms: C_26  and  C_38
   16  A    between atoms: C_28  and  O_32
                            x       y       z     vdW  Elec       q    Type
                         _______ _______ _______ _____ _____    ______ ____

>  <TORSDO>
F 16

$$$$
=
 OpenBabel11032420253D

 39 40  0  0  1  0  0  0  0  0999 V2000
  189.6450  177.4750  138.0730 C   0  0  1  0  0  3  0  0  0  0  0  0
  189.1690  178.6550  138.9030 C   0  0  0  0  0  1  0  0  0  0  0  0
  191.7370  176.2760  138.2840 O   0  0  0  0  0  1  0  0  0  0  0  0
  190.5270  176.5650  138.9270 C   0  0  1  0  0  3  0  0  0  0  0  0
  190.7820  177.1380  140.3160 C   0  0  0  0  0  2  0  0  0  0  0  0
  189.5560  177.0700  142.5180 C   0  0  0  0  0  0  0  0  0  0  0  0
  188.8730  176.2970  143.5110 N   0  0  0  0  0  2  0  0  0  0  0  0
  189.7830  178.2970  142.7030 O   0  0  0  0  0  0  0  0  0  0  0  0
  190.0140  176.4280  141.3270 N   0  0  0  0  0  2  0  0  0  0  0  0
  188.4780  177.1860  145.7830 C   0  0  0  0  0  0  0  0  0  0  0  0
  188.0710  176.8300  144.5750 C   0  0  1  0  0  3  0  0  0  0  0  0
  189.7530  177.1330  146.3520 C   0  0  0  0  0  3  0  0  0  0  0  0
  187.4100  177.7100  146.4700 C   0  0  0  0  0  0  0  0  0  0  0  0
  189.9140  177.6080  147.6650 C   0  0  0  0  0  3  0  0  0  0  0  0
  186.6110  177.1640  144.4600 C   0  0  1  0  0  3  0  0  0  0  0  0
  188.8120  178.1280  148.3740 C   0  0  0  0  0  3  0  0  0  0  0  0
  187.5440  178.1860  147.7750 C   0  0  0  0  0  3  0  0  0  0  0  0
  186.3180  177.7260  145.7810 N   0  0  0  0  0  2  0  0  0  0  0  0
  186.3610  178.1970  143.4070 C   0  0  0  0  0  3  0  0  0  0  0  0
  184.3140  178.0730  141.9000 O   0  0  0  0  0  0  0  0  0  0  0  0
  185.3110  178.1300  142.6350 C   0  0  0  0  0  0  0  0  0  0  0  0
  188.4970  176.7430  137.5500 N   0  0  0  0  0  2  0  0  0  0  0  0
  187.5470  177.7140  137.0230 C   0  0  1  0  0  3  0  0  0  0  0  0
  187.8720  178.0100  135.6970 O   0  0  0  0  0  1  0  0  0  0  0  0
  186.1310  177.1460  137.0930 C   0  0  2  0  0  3  0  0  0  0  0  0
  185.8700  178.6160  139.0100 O   0  0  0  0  0  1  0  0  0  0  0  0
  183.3700  177.5140  136.7290 O   0  0  0  0  0  0  0  0  0  0  0  0
  185.2950  177.9510  137.9790 N   0  0  0  0  0  0  0  0  0  0  0  0
  183.8720  177.9960  137.7800 C   0  0  0  0  0  0  0  0  0  0  0  0
  182.9510  178.6020  138.7990 C   0  0  1  0  0  3  0  0  0  0  0  0
  182.7290  179.9580  138.5440 O   0  0  0  0  0  1  0  0  0  0  0  0
  181.6330  177.8400  138.9220 C   0  0  0  0  0  2  0  0  0  0  0  0
  181.6930  176.8780  139.9340 O   0  0  0  0  0  0  0  0  0  0  0  0
  180.9100  175.0050  138.7020 C   0  0  0  0  0  1  0  0  0  0  0  0
  180.5760  176.0660  139.7280 C   0  0  0  0  0  2  0  0  0  0  0  0
  186.1630  175.7670  137.5680 N   0  0  0  0  0  2  0  0  0  0  0  0
  185.5410  174.9420  136.5430 C   0  0  0  0  0  2  0  0  0  0  0  0
  184.5080  174.0250  137.1710 C   0  0  0  0  0  2  0  0  0  0  0  0
  185.1440  173.0400  137.9280 O   0  0  0  0  0  1  0  0  0  0  0  0
  1  2  1  1  0  0  0
  1  4  1  0  0  0  0
  4  3  1  6  0  0  0
  4  5  1  0  0  0  0
  5  9  1  0  0  0  0
  6  8  2  0  0  0  0
  6  7  1  0  0  0  0
  9  6  1  0  0  0  0
 10 12  2  0  0  0  0
 10 13  1  0  0  0  0
 11  7  1  6  0  0  0
 11 10  1  0  0  0  0
 12 14  1  0  0  0  0
 13 17  2  0  0  0  0
 14 16  2  0  0  0  0
 15 19  1  6  0  0  0
 15 11  1  0  0  0  0
 15 18  1  0  0  0  0
 17 16  1  0  0  0  0
 18 13  1  0  0  0  0
 20 21  2  0  0  0  0
 21 19  2  0  0  0  0
 22  1  1  0  0  0  0
 23 24  1  6  0  0  0
 23 25  1  0  0  0  0
 23 22  1  0  0  0  0
 25 36  1  1  0  0  0
 25 28  1  0  0  0  0
 27 29  2  0  0  0  0
 28 26  1  0  0  0  0
 29 28  1  0  0  0  0
 29 30  1  0  0  0  0
 30 31  1  6  0  0  0
 30 32  1  0  0  0  0
 32 33  1  0  0  0  0
 34 35  1  0  0  0  0
 35 33  1  0  0  0  0
 37 38  1  0  0  0  0
 37 36  1  0  0  0  0
 38 39  1  0  0  0  0
M  END
>  <MODEL>
4

>  <REMARK>
 VINA RESULT:      -7.0      2.367      4.210
  Name = 
  16 active torsions:
  status: ('A' for Active; 'I' for Inactive)
    1  A    between atoms: C_1  and  C_19
    2  A    between atoms: C_1  and  N_35
    3  A    between atoms: C_3  and  C_25
    4  A    between atoms: C_4  and  N_14
    5  A    between atoms: C_11  and  O_32
    6  A    between atoms: N_13  and  C_23
    7  A    between atoms: N_13  and  C_27
    8  A    between atoms: C_15  and  C_19
    9  A    between atoms: C_15  and  N_34
   10  A    between atoms: N_18  and  C_27
   11  A    between atoms: C_22  and  C_27
   12  A    between atoms: C_22  and  N_34
   13  A    between atoms: C_23  and  C_24
   14  A    between atoms: C_26  and  C_28
   15  A    between atoms: C_26  and  C_38
   16  A    between atoms: C_28  and  O_32
                            x       y       z     vdW  Elec       q    Type
                         _______ _______ _______ _____ _____    ______ ____

>  <TORSDO>
F 16

$$$$
=
 OpenBabel11032420253D

 39 40  0  0  1  0  0  0  0  0999 V2000
  186.8130  177.6750  138.2250 C   0  0  1  0  0  3  0  0  0  0  0  0
  186.4580  176.7540  137.0700 C   0  0  0  0  0  1  0  0  0  0  0  0
  188.2180  179.4030  137.2770 O   0  0  0  0  0  1  0  0  0  0  0  0
  188.2260  178.2240  138.0330 C   0  0  1  0  0  3  0  0  0  0  0  0
  188.9520  178.4410  139.3550 C   0  0  0  0  0  2  0  0  0  0  0  0
  188.5540  177.7590  141.7500 C   0  0  0  0  0  0  0  0  0  0  0  0
  188.2020  176.7330  142.6840 N   0  0  0  0  0  2  0  0  0  0  0  0
  188.9140  178.8990  142.1540 O   0  0  0  0  0  0  0  0  0  0  0  0
  188.5300  177.4680  140.3520 N   0  0  0  0  0  2  0  0  0  0  0  0
  188.6790  177.0510  145.0890 C   0  0  0  0  0  0  0  0  0  0  0  0
  187.8520  176.9430  144.0600 C   0  0  1  0  0  3  0  0  0  0  0  0
  190.0740  176.9780  145.1300 C   0  0  0  0  0  3  0  0  0  0  0  0
  187.9430  177.3150  146.2180 C   0  0  0  0  0  0  0  0  0  0  0  0
  190.7110  177.1570  146.3700 C   0  0  0  0  0  3  0  0  0  0  0  0
  186.4550  177.1700  144.5620 C   0  0  1  0  0  3  0  0  0  0  0  0
  189.9520  177.4100  147.5300 C   0  0  0  0  0  3  0  0  0  0  0  0
  188.5520  177.4940  147.4600 C   0  0  0  0  0  3  0  0  0  0  0  0
  186.6730  177.3940  145.9930 N   0  0  0  0  0  2  0  0  0  0  0  0
  185.8390  178.3890  143.9510 C   0  0  0  0  0  3  0  0  0  0  0  0
  183.8040  179.5020  144.9960 O   0  0  0  0  0  0  0  0  0  0  0  0
  184.7940  178.9570  144.4880 C   0  0  0  0  0  0  0  0  0  0  0  0
  185.8420  178.7600  138.3090 N   0  0  0  0  0  2  0  0  0  0  0  0
  185.0170  178.5350  139.4890 C   0  0  1  0  0  3  0  0  0  0  0  0
  185.3570  179.4620  140.4770 O   0  0  0  0  0  1  0  0  0  0  0  0
  183.5410  178.6830  139.1270 C   0  0  2  0  0  3  0  0  0  0  0  0
  183.1870  177.9260  136.8460 O   0  0  0  0  0  1  0  0  0  0  0  0
  182.7630  176.0860  139.8630 O   0  0  0  0  0  0  0  0  0  0  0  0
  183.1370  177.6550  138.1720 N   0  0  0  0  0  0  0  0  0  0  0  0
  182.6500  176.3880  138.6440 C   0  0  0  0  0  0  0  0  0  0  0  0
  181.9980  175.3990  137.7220 C   0  0  1  0  0  3  0  0  0  0  0  0
  180.8610  175.9390  137.1160 O   0  0  0  0  0  1  0  0  0  0  0  0
  182.9680  174.8420  136.6810 C   0  0  0  0  0  2  0  0  0  0  0  0
  183.0500  173.4490  136.7550 O   0  0  0  0  0  0  0  0  0  0  0  0
  185.1310  172.9780  137.7980 C   0  0  0  0  0  1  0  0  0  0  0  0
  184.3880  173.1520  136.4910 C   0  0  0  0  0  2  0  0  0  0  0  0
  183.2910  180.0040  138.5610 N   0  0  0  0  0  2  0  0  0  0  0  0
  181.9400  180.3900  138.9410 C   0  0  0  0  0  2  0  0  0  0  0  0
  181.1530  180.8040  137.7110 C   0  0  0  0  0  2  0  0  0  0  0  0
  180.3770  181.9280  138.0000 O   0  0  0  0  0  1  0  0  0  0  0  0
  1  2  1  6  0  0  0
  1 22  1  0  0  0  0
  4  3  1  1  0  0  0
  4  1  1  0  0  0  0
  4  5  1  0  0  0  0
  5  9  1  0  0  0  0
  6  8  2  0  0  0  0
  6  7  1  0  0  0  0
  9  6  1  0  0  0  0
 10 12  2  0  0  0  0
 10 13  1  0  0  0  0
 11  7  1  6  0  0  0
 11 15  1  0  0  0  0
 11 10  1  0  0  0  0
 12 14  1  0  0  0  0
 13 17  2  0  0  0  0
 14 16  2  0  0  0  0
 15 19  1  6  0  0  0
 15 18  1  0  0  0  0
 17 16  1  0  0  0  0
 18 13  1  0  0  0  0
 19 21  2  0  0  0  0
 21 20  2  0  0  0  0
 22 23  1  0  0  0  0
 23 24  1  1  0  0  0
 25 36  1  6  0  0  0
 25 23  1  0  0  0  0
 26 28  1  0  0  0  0
 28 29  1  0  0  0  0
 28 25  1  0  0  0  0
 29 27  2  0  0  0  0
 30 31  1  6  0  0  0
 30 29  1  0  0  0  0
 32 33  1  0  0  0  0
 32 30  1  0  0  0  0
 35 33  1  0  0  0  0
 35 34  1  0  0  0  0
 36 37  1  0  0  0  0
 38 39  1  0  0  0  0
 38 37  1  0  0  0  0
M  END
>  <MODEL>
5

>  <REMARK>
 VINA RESULT:      -6.9      2.553      4.705
  Name = 
  16 active torsions:
  status: ('A' for Active; 'I' for Inactive)
    1  A    between atoms: C_1  and  C_19
    2  A    between atoms: C_1  and  N_35
    3  A    between atoms: C_3  and  C_25
    4  A    between atoms: C_4  and  N_14
    5  A    between atoms: C_11  and  O_32
    6  A    between atoms: N_13  and  C_23
    7  A    between atoms: N_13  and  C_27
    8  A    between atoms: C_15  and  C_19
    9  A    between atoms: C_15  and  N_34
   10  A    between atoms: N_18  and  C_27
   11  A    between atoms: C_22  and  C_27
   12  A    between atoms: C_22  and  N_34
   13  A    between atoms: C_23  and  C_24
   14  A    between atoms: C_26  and  C_28
   15  A    between atoms: C_26  and  C_38
   16  A    between atoms: C_28  and  O_32
                            x       y       z     vdW  Elec       q    Type
                         _______ _______ _______ _____ _____    ______ ____

>  <TORSDO>
F 16

$$$$
=
 OpenBabel11032420253D

 39 40  0  0  1  0  0  0  0  0999 V2000
  187.8530  178.0900  137.9990 C   0  0  1  0  0  3  0  0  0  0  0  0
  189.0090  178.9620  137.5370 C   0  0  0  0  0  1  0  0  0  0  0  0
  187.8410  176.0930  136.6300 O   0  0  0  0  0  1  0  0  0  0  0  0
  187.2520  177.3530  136.8030 C   0  0  1  0  0  3  0  0  0  0  0  0
  185.7360  177.2270  136.8980 C   0  0  0  0  0  2  0  0  0  0  0  0
  184.0610  177.9600  138.6340 C   0  0  0  0  0  0  0  0  0  0  0  0
  183.5110  179.0140  139.4310 N   0  0  0  0  0  2  0  0  0  0  0  0
  183.5440  176.8080  138.6480 O   0  0  0  0  0  0  0  0  0  0  0  0
  185.1800  178.2320  137.7910 N   0  0  0  0  0  2  0  0  0  0  0  0
  182.9700  178.7970  141.8330 C   0  0  0  0  0  0  0  0  0  0  0  0
  182.6340  178.8400  140.5530 C   0  0  1  0  0  3  0  0  0  0  0  0
  184.2290  178.8920  142.4340 C   0  0  0  0  0  3  0  0  0  0  0  0
  181.8260  178.6860  142.5850 C   0  0  0  0  0  0  0  0  0  0  0  0
  184.2990  178.8430  143.8370 C   0  0  0  0  0  3  0  0  0  0  0  0
  181.1370  178.7620  140.4640 C   0  0  1  0  0  3  0  0  0  0  0  0
  183.1250  178.7110  144.6040 C   0  0  0  0  0  3  0  0  0  0  0  0
  181.8700  178.6340  143.9790 C   0  0  0  0  0  3  0  0  0  0  0  0
  180.7480  178.6590  141.8730 N   0  0  0  0  0  2  0  0  0  0  0  0
  180.5530  180.0060  139.8720 C   0  0  0  0  0  3  0  0  0  0  0  0
  179.0820  181.5580  141.2510 O   0  0  0  0  0  0  0  0  0  0  0  0
  179.7980  180.7990  140.5810 C   0  0  0  0  0  0  0  0  0  0  0  0
  188.3190  177.1460  139.0090 N   0  0  0  0  0  2  0  0  0  0  0  0
  188.7370  177.9100  140.1780 C   0  0  1  0  0  3  0  0  0  0  0  0
  187.6460  178.0890  141.0310 O   0  0  0  0  0  1  0  0  0  0  0  0
  189.8500  177.1670  140.9130 C   0  0  2  0  0  3  0  0  0  0  0  0
  190.3770  178.6810  142.7390 O   0  0  0  0  0  1  0  0  0  0  0  0
  188.6800  175.5560  142.8950 O   0  0  0  0  0  0  0  0  0  0  0  0
  189.8450  177.5030  142.3340 N   0  0  0  0  0  0  0  0  0  0  0  0
  189.3190  176.5680  143.2910 C   0  0  0  0  0  0  0  0  0  0  0  0
  189.5130  176.7570  144.7680 C   0  0  1  0  0  3  0  0  0  0  0  0
  190.8660  176.8570  145.0970 O   0  0  0  0  0  1  0  0  0  0  0  0
  188.7210  177.9440  145.3140 C   0  0  0  0  0  2  0  0  0  0  0  0
  187.3440  177.7420  145.1830 O   0  0  0  0  0  0  0  0  0  0  0  0
  186.1130  178.6980  146.9750 C   0  0  0  0  0  1  0  0  0  0  0  0
  186.8900  177.4980  146.4810 C   0  0  0  0  0  2  0  0  0  0  0  0
  191.1470  177.5020  140.3350 N   0  0  0  0  0  2  0  0  0  0  0  0
  191.3980  176.5570  139.2560 C   0  0  0  0  0  2  0  0  0  0  0  0
  192.8000  176.7530  138.7090 C   0  0  0  0  0  2  0  0  0  0  0  0
  193.6070  177.3530  139.6760 O   0  0  0  0  0  1  0  0  0  0  0  0
  1  2  1  6  0  0  0
  1 22  1  0  0  0  0
  4  3  1  1  0  0  0
  4  5  1  0  0  0  0
  4  1  1  0  0  0  0
  5  9  1  0  0  0  0
  6  8  2  0  0  0  0
  6  7  1  0  0  0  0
  9  6  1  0  0  0  0
 10 12  2  0  0  0  0
 10 13  1  0  0  0  0
 11  7  1  1  0  0  0
 11 10  1  0  0  0  0
 12 14  1  0  0  0  0
 13 17  2  0  0  0  0
 14 16  2  0  0  0  0
 15 19  1  1  0  0  0
 15 11  1  0  0  0  0
 15 18  1  0  0  0  0
 17 16  1  0  0  0  0
 18 13  1  0  0  0  0
 19 21  2  0  0  0  0
 21 20  2  0  0  0  0
 22 23  1  0  0  0  0
 23 25  1  0  0  0  0
 23 24  1  1  0  0  0
 25 36  1  6  0  0  0
 25 28  1  0  0  0  0
 27 29  2  0  0  0  0
 28 26  1  0  0  0  0
 28 29  1  0  0  0  0
 29 30  1  0  0  0  0
 30 31  1  6  0  0  0
 30 32  1  0  0  0  0
 33 32  1  0  0  0  0
 33 35  1  0  0  0  0
 35 34  1  0  0  0  0
 37 36  1  0  0  0  0
 38 37  1  0  0  0  0
 38 39  1  0  0  0  0
M  END
>  <MODEL>
6

>  <REMARK>
 VINA RESULT:      -6.8      2.198      8.151
  Name = 
  16 active torsions:
  status: ('A' for Active; 'I' for Inactive)
    1  A    between atoms: C_1  and  C_19
    2  A    between atoms: C_1  and  N_35
    3  A    between atoms: C_3  and  C_25
    4  A    between atoms: C_4  and  N_14
    5  A    between atoms: C_11  and  O_32
    6  A    between atoms: N_13  and  C_23
    7  A    between atoms: N_13  and  C_27
    8  A    between atoms: C_15  and  C_19
    9  A    between atoms: C_15  and  N_34
   10  A    between atoms: N_18  and  C_27
   11  A    between atoms: C_22  and  C_27
   12  A    between atoms: C_22  and  N_34
   13  A    between atoms: C_23  and  C_24
   14  A    between atoms: C_26  and  C_28
   15  A    between atoms: C_26  and  C_38
   16  A    between atoms: C_28  and  O_32
                            x       y       z     vdW  Elec       q    Type
                         _______ _______ _______ _____ _____    ______ ____

>  <TORSDO>
F 16

$$$$
=
 OpenBabel11032420253D

 39 40  0  0  1  0  0  0  0  0999 V2000
  182.9570  178.2860  139.1740 C   0  0  1  0  0  3  0  0  0  0  0  0
  182.5510  176.8750  139.5660 C   0  0  0  0  0  1  0  0  0  0  0  0
  182.7780  178.6060  141.5670 O   0  0  0  0  0  1  0  0  0  0  0  0
  183.4320  179.0490  140.4090 C   0  0  1  0  0  3  0  0  0  0  0  0
  184.9440  178.9820  140.5900 C   0  0  0  0  0  2  0  0  0  0  0  0
  186.6260  178.2800  142.3320 C   0  0  0  0  0  0  0  0  0  0  0  0
  186.9270  177.5010  143.4950 N   0  0  0  0  0  2  0  0  0  0  0  0
  187.5310  178.9400  141.7500 O   0  0  0  0  0  0  0  0  0  0  0  0
  185.2960  178.2750  141.8120 N   0  0  0  0  0  2  0  0  0  0  0  0
  188.1230  177.7310  145.6450 C   0  0  0  0  0  0  0  0  0  0  0  0
  188.0870  177.6550  144.3240 C   0  0  1  0  0  3  0  0  0  0  0  0
  187.0790  177.6990  146.5740 C   0  0  0  0  0  3  0  0  0  0  0  0
  189.4350  177.8050  146.0460 C   0  0  0  0  0  0  0  0  0  0  0  0
  187.4040  177.7720  147.9400 C   0  0  0  0  0  3  0  0  0  0  0  0
  189.5020  177.6670  143.8200 C   0  0  1  0  0  3  0  0  0  0  0  0
  188.7500  177.8660  148.3470 C   0  0  0  0  0  3  0  0  0  0  0  0
  189.7830  177.8800  147.3950 C   0  0  0  0  0  3  0  0  0  0  0  0
  190.2720  177.7760  145.0620 N   0  0  0  0  0  2  0  0  0  0  0  0
  189.8520  176.3910  143.1220 C   0  0  0  0  0  3  0  0  0  0  0  0
  190.4750  176.3660  140.6560 O   0  0  0  0  0  0  0  0  0  0  0  0
  190.1700  176.3810  141.8570 C   0  0  0  0  0  0  0  0  0  0  0  0
  184.0050  178.2340  138.1610 N   0  0  0  0  0  2  0  0  0  0  0  0
  183.8300  177.0060  137.3960 C   0  0  1  0  0  3  0  0  0  0  0  0
  183.2700  177.3080  136.1530 O   0  0  0  0  0  1  0  0  0  0  0  0
  185.1800  176.3200  137.2000 C   0  0  2  0  0  3  0  0  0  0  0  0
  186.0380  177.6510  135.3570 O   0  0  0  0  0  1  0  0  0  0  0  0
  187.2710  177.4590  138.6910 O   0  0  0  0  0  0  0  0  0  0  0  0
  186.1580  177.2520  136.6460 N   0  0  0  0  0  0  0  0  0  0  0  0
  187.2600  177.7010  137.4540 C   0  0  0  0  0  0  0  0  0  0  0  0
  188.4150  178.4560  136.8630 C   0  0  1  0  0  3  0  0  0  0  0  0
  188.9310  179.3890  137.7660 O   0  0  0  0  0  1  0  0  0  0  0  0
  189.5110  177.5310  136.3370 C   0  0  0  0  0  2  0  0  0  0  0  0
  190.4410  177.2230  137.3340 O   0  0  0  0  0  0  0  0  0  0  0  0
  190.0300  174.8860  137.2210 C   0  0  0  0  0  1  0  0  0  0  0  0
  191.0050  176.0090  136.9380 C   0  0  0  0  0  2  0  0  0  0  0  0
  185.0380  175.1720  136.3110 N   0  0  0  0  0  2  0  0  0  0  0  0
  186.0540  174.2020  136.6910 C   0  0  0  0  0  2  0  0  0  0  0  0
  185.4550  173.1600  137.6180 C   0  0  0  0  0  2  0  0  0  0  0  0
  184.5500  172.3630  136.9160 O   0  0  0  0  0  1  0  0  0  0  0  0
  1  2  1  1  0  0  0
  1  4  1  0  0  0  0
  4  5  1  0  0  0  0
  4  3  1  1  0  0  0
  5  9  1  0  0  0  0
  6  7  1  0  0  0  0
  8  6  2  0  0  0  0
  9  6  1  0  0  0  0
 10 13  2  0  0  0  0
 10 12  1  0  0  0  0
 11  7  1  1  0  0  0
 11 10  1  0  0  0  0
 12 14  2  0  0  0  0
 13 17  1  0  0  0  0
 14 16  1  0  0  0  0
 15 19  1  1  0  0  0
 15 11  1  0  0  0  0
 15 18  1  0  0  0  0
 17 16  2  0  0  0  0
 18 13  1  0  0  0  0
 20 21  2  0  0  0  0
 21 19  2  0  0  0  0
 22  1  1  0  0  0  0
 23 24  1  6  0  0  0
 23 22  1  0  0  0  0
 25 36  1  6  0  0  0
 25 23  1  0  0  0  0
 26 28  1  0  0  0  0
 28 25  1  0  0  0  0
 28 29  1  0  0  0  0
 29 27  2  0  0  0  0
 30 29  1  0  0  0  0
 30 31  1  1  0  0  0
 32 30  1  0  0  0  0
 32 33  1  0  0  0  0
 35 34  1  0  0  0  0
 35 33  1  0  0  0  0
 36 37  1  0  0  0  0
 37 38  1  0  0  0  0
 39 38  1  0  0  0  0
M  END
>  <MODEL>
7

>  <REMARK>
 VINA RESULT:      -6.7      2.636      6.157
  Name = 
  16 active torsions:
  status: ('A' for Active; 'I' for Inactive)
    1  A    between atoms: C_1  and  C_19
    2  A    between atoms: C_1  and  N_35
    3  A    between atoms: C_3  and  C_25
    4  A    between atoms: C_4  and  N_14
    5  A    between atoms: C_11  and  O_32
    6  A    between atoms: N_13  and  C_23
    7  A    between atoms: N_13  and  C_27
    8  A    between atoms: C_15  and  C_19
    9  A    between atoms: C_15  and  N_34
   10  A    between atoms: N_18  and  C_27
   11  A    between atoms: C_22  and  C_27
   12  A    between atoms: C_22  and  N_34
   13  A    between atoms: C_23  and  C_24
   14  A    between atoms: C_26  and  C_28
   15  A    between atoms: C_26  and  C_38
   16  A    between atoms: C_28  and  O_32
                            x       y       z     vdW  Elec       q    Type
                         _______ _______ _______ _____ _____    ______ ____

>  <TORSDO>
F 16

$$$$
=
 OpenBabel11032420253D

 39 40  0  0  1  0  0  0  0  0999 V2000
  187.4160  177.3030  137.0800 C   0  0  1  0  0  3  0  0  0  0  0  0
  187.6390  176.2480  136.0100 C   0  0  0  0  0  1  0  0  0  0  0  0
  188.1290  179.6040  136.8430 O   0  0  0  0  0  1  0  0  0  0  0  0
  188.5770  178.2970  137.0750 C   0  0  1  0  0  3  0  0  0  0  0  0
  189.4040  178.2340  138.3540 C   0  0  0  0  0  2  0  0  0  0  0  0
  188.4010  177.9570  140.6510 C   0  0  0  0  0  0  0  0  0  0  0  0
  187.5900  178.4940  141.7010 N   0  0  0  0  0  2  0  0  0  0  0  0
  188.8600  176.7840  140.7300 O   0  0  0  0  0  0  0  0  0  0  0  0
  188.6550  178.7490  139.4900 N   0  0  0  0  0  2  0  0  0  0  0  0
  188.5130  177.8720  143.9080 C   0  0  0  0  0  0  0  0  0  0  0  0
  187.5190  177.9860  143.0410 C   0  0  1  0  0  3  0  0  0  0  0  0
  189.8670  178.1890  143.7670 C   0  0  0  0  0  3  0  0  0  0  0  0
  188.0080  177.4060  145.0970 C   0  0  0  0  0  0  0  0  0  0  0  0
  190.7130  177.9920  144.8720 C   0  0  0  0  0  3  0  0  0  0  0  0
  186.2530  177.5690  143.7310 C   0  0  1  0  0  3  0  0  0  0  0  0
  190.1950  177.4970  146.0860 C   0  0  0  0  0  3  0  0  0  0  0  0
  188.8280  177.2010  146.2080 C   0  0  0  0  0  3  0  0  0  0  0  0
  186.7320  177.2100  145.0690 N   0  0  0  0  0  2  0  0  0  0  0  0
  185.2800  178.7000  143.8340 C   0  0  0  0  0  3  0  0  0  0  0  0
  183.8190  179.0010  145.8950 O   0  0  0  0  0  0  0  0  0  0  0  0
  184.5310  178.8510  144.8910 C   0  0  0  0  0  0  0  0  0  0  0  0
  186.1480  177.9850  136.8450 N   0  0  0  0  0  2  0  0  0  0  0  0
  185.3130  177.7990  138.0250 C   0  0  1  0  0  3  0  0  0  0  0  0
  185.2010  179.0110  138.7100 O   0  0  0  0  0  1  0  0  0  0  0  0
  183.9270  177.3120  137.6090 C   0  0  2  0  0  3  0  0  0  0  0  0
  183.1290  176.7610  139.8360 O   0  0  0  0  0  1  0  0  0  0  0  0
  181.8050  179.1520  137.5570 O   0  0  0  0  0  0  0  0  0  0  0  0
  182.9710  177.4800  138.7000 N   0  0  0  0  0  0  0  0  0  0  0  0
  181.8510  178.3680  138.5430 C   0  0  0  0  0  0  0  0  0  0  0  0
  180.7180  178.3910  139.5270 C   0  0  1  0  0  3  0  0  0  0  0  0
  180.2730  177.1010  139.8240 O   0  0  0  0  0  1  0  0  0  0  0  0
  181.0640  179.1620  140.8000 C   0  0  0  0  0  2  0  0  0  0  0  0
  179.9810  179.2020  141.6820 O   0  0  0  0  0  0  0  0  0  0  0  0
  180.8940  178.6290  143.7990 C   0  0  0  0  0  1  0  0  0  0  0  0
  180.4950  179.7470  142.8610 C   0  0  0  0  0  2  0  0  0  0  0  0
  183.9820  175.9070  137.2180 N   0  0  0  0  0  2  0  0  0  0  0  0
  183.1810  175.7620  136.0120 C   0  0  0  0  0  2  0  0  0  0  0  0
  183.4770  174.4290  135.3490 C   0  0  0  0  0  2  0  0  0  0  0  0
  184.8400  174.1440  135.4420 O   0  0  0  0  0  1  0  0  0  0  0  0
  1  2  1  6  0  0  0
  4  3  1  1  0  0  0
  4  1  1  0  0  0  0
  4  5  1  0  0  0  0
  5  9  1  0  0  0  0
  6  8  2  0  0  0  0
  6  7  1  0  0  0  0
  9  6  1  0  0  0  0
 10 13  1  0  0  0  0
 11  7  1  1  0  0  0
 11 15  1  0  0  0  0
 11 10  1  0  0  0  0
 12 10  2  0  0  0  0
 12 14  1  0  0  0  0
 13 17  2  0  0  0  0
 14 16  2  0  0  0  0
 15 19  1  1  0  0  0
 15 18  1  0  0  0  0
 16 17  1  0  0  0  0
 18 13  1  0  0  0  0
 19 21  2  0  0  0  0
 21 20  2  0  0  0  0
 22  1  1  0  0  0  0
 22 23  1  0  0  0  0
 23 24  1  6  0  0  0
 25 36  1  1  0  0  0
 25 23  1  0  0  0  0
 25 28  1  0  0  0  0
 27 29  2  0  0  0  0
 28 26  1  0  0  0  0
 29 28  1  0  0  0  0
 29 30  1  0  0  0  0
 30 31  1  1  0  0  0
 30 32  1  0  0  0  0
 32 33  1  0  0  0  0
 33 35  1  0  0  0  0
 35 34  1  0  0  0  0
 37 36  1  0  0  0  0
 38 39  1  0  0  0  0
 38 37  1  0  0  0  0
M  END
>  <MODEL>
8

>  <REMARK>
 VINA RESULT:      -6.7      2.411      4.408
  Name = 
  16 active torsions:
  status: ('A' for Active; 'I' for Inactive)
    1  A    between atoms: C_1  and  C_19
    2  A    between atoms: C_1  and  N_35
    3  A    between atoms: C_3  and  C_25
    4  A    between atoms: C_4  and  N_14
    5  A    between atoms: C_11  and  O_32
    6  A    between atoms: N_13  and  C_23
    7  A    between atoms: N_13  and  C_27
    8  A    between atoms: C_15  and  C_19
    9  A    between atoms: C_15  and  N_34
   10  A    between atoms: N_18  and  C_27
   11  A    between atoms: C_22  and  C_27
   12  A    between atoms: C_22  and  N_34
   13  A    between atoms: C_23  and  C_24
   14  A    between atoms: C_26  and  C_28
   15  A    between atoms: C_26  and  C_38
   16  A    between atoms: C_28  and  O_32
                            x       y       z     vdW  Elec       q    Type
                         _______ _______ _______ _____ _____    ______ ____

>  <TORSDO>
F 16

$$$$
=
 OpenBabel11032420253D

 39 40  0  0  1  0  0  0  0  0999 V2000
  189.6380  177.5750  138.8440 C   0  0  1  0  0  3  0  0  0  0  0  0
  188.9180  178.3860  139.9090 C   0  0  0  0  0  1  0  0  0  0  0  0
  191.8450  176.6240  138.5510 O   0  0  0  0  0  1  0  0  0  0  0  0
  190.8080  176.8200  139.4740 C   0  0  1  0  0  3  0  0  0  0  0  0
  191.3330  177.5030  140.7310 C   0  0  0  0  0  2  0  0  0  0  0  0
  190.6070  177.4550  143.1450 C   0  0  0  0  0  0  0  0  0  0  0  0
  190.2930  176.6850  144.3110 N   0  0  0  0  0  2  0  0  0  0  0  0
  190.6310  178.7160  143.1970 O   0  0  0  0  0  0  0  0  0  0  0  0
  190.9290  176.7810  141.9280 N   0  0  0  0  0  2  0  0  0  0  0  0
  188.3580  177.5100  145.6080 C   0  0  0  0  0  0  0  0  0  0  0  0
  189.6350  177.1810  145.4840 C   0  0  1  0  0  3  0  0  0  0  0  0
  187.3290  177.4830  144.6630 C   0  0  0  0  0  3  0  0  0  0  0  0
  188.1220  177.8720  146.9120 C   0  0  0  0  0  0  0  0  0  0  0  0
  186.0410  177.8650  145.0740 C   0  0  0  0  0  3  0  0  0  0  0  0
  190.2840  177.3290  146.8300 C   0  0  1  0  0  3  0  0  0  0  0  0
  185.8050  178.2530  146.4080 C   0  0  0  0  0  3  0  0  0  0  0  0
  186.8520  178.2560  147.3440 C   0  0  0  0  0  3  0  0  0  0  0  0
  189.1710  177.7950  147.6620 N   0  0  0  0  0  2  0  0  0  0  0  0
  190.7860  176.0200  147.3510 C   0  0  0  0  0  3  0  0  0  0  0  0
  193.2660  175.6270  147.7620 O   0  0  0  0  0  0  0  0  0  0  0  0
  192.0590  175.8210  147.5590 C   0  0  0  0  0  0  0  0  0  0  0  0
  188.7040  176.6500  138.2120 N   0  0  0  0  0  2  0  0  0  0  0  0
  188.0950  177.3320  137.0780 C   0  0  1  0  0  3  0  0  0  0  0  0
  188.9070  177.1770  135.9520 O   0  0  0  0  0  1  0  0  0  0  0  0
  186.7120  176.7460  136.8010 C   0  0  2  0  0  3  0  0  0  0  0  0
  186.0240  178.6660  138.1210 O   0  0  0  0  0  1  0  0  0  0  0  0
  183.9650  176.1880  136.6090 O   0  0  0  0  0  0  0  0  0  0  0  0
  185.6730  177.5500  137.4400 N   0  0  0  0  0  0  0  0  0  0  0  0
  184.3000  177.1290  137.3790 C   0  0  0  0  0  0  0  0  0  0  0  0
  183.2370  177.7780  138.2170 C   0  0  1  0  0  3  0  0  0  0  0  0
  182.2470  178.3620  137.4240 O   0  0  0  0  0  1  0  0  0  0  0  0
  182.6320  176.8180  139.2400 C   0  0  0  0  0  2  0  0  0  0  0  0
  181.2380  176.9120  139.2640 O   0  0  0  0  0  0  0  0  0  0  0  0
  179.2950  175.7270  139.9460 C   0  0  0  0  0  1  0  0  0  0  0  0
  180.8050  175.7180  139.8440 C   0  0  0  0  0  2  0  0  0  0  0  0
  186.6390  175.3730  137.2880 N   0  0  0  0  0  2  0  0  0  0  0  0
  186.7990  174.4960  136.1380 C   0  0  0  0  0  2  0  0  0  0  0  0
  186.7740  173.0460  136.5830 C   0  0  0  0  0  2  0  0  0  0  0  0
  186.0410  172.9240  137.7640 O   0  0  0  0  0  1  0  0  0  0  0  0
  1  4  1  0  0  0  0
  1  2  1  1  0  0  0
  4  3  1  6  0  0  0
  4  5  1  0  0  0  0
  5  9  1  0  0  0  0
  6  8  2  0  0  0  0
  6  7  1  0  0  0  0
  9  6  1  0  0  0  0
 10 13  1  0  0  0  0
 11  7  1  1  0  0  0
 11 10  1  0  0  0  0
 11 15  1  0  0  0  0
 12 14  1  0  0  0  0
 12 10  2  0  0  0  0
 13 17  2  0  0  0  0
 13 18  1  0  0  0  0
 14 16  2  0  0  0  0
 15 19  1  1  0  0  0
 15 18  1  0  0  0  0
 16 17  1  0  0  0  0
 19 21  2  0  0  0  0
 21 20  2  0  0  0  0
 22  1  1  0  0  0  0
 23 24  1  6  0  0  0
 23 22  1  0  0  0  0
 25 23  1  0  0  0  0
 25 36  1  1  0  0  0
 25 28  1  0  0  0  0
 27 29  2  0  0  0  0
 28 26  1  0  0  0  0
 29 28  1  0  0  0  0
 29 30  1  0  0  0  0
 30 31  1  6  0  0  0
 30 32  1  0  0  0  0
 32 33  1  0  0  0  0
 33 35  1  0  0  0  0
 35 34  1  0  0  0  0
 37 38  1  0  0  0  0
 37 36  1  0  0  0  0
 38 39  1  0  0  0  0
M  END
>  <MODEL>
9

>  <REMARK>
 VINA RESULT:      -6.6      2.360      3.399
  Name = 
  16 active torsions:
  status: ('A' for Active; 'I' for Inactive)
    1  A    between atoms: C_1  and  C_19
    2  A    between atoms: C_1  and  N_35
    3  A    between atoms: C_3  and  C_25
    4  A    between atoms: C_4  and  N_14
    5  A    between atoms: C_11  and  O_32
    6  A    between atoms: N_13  and  C_23
    7  A    between atoms: N_13  and  C_27
    8  A    between atoms: C_15  and  C_19
    9  A    between atoms: C_15  and  N_34
   10  A    between atoms: N_18  and  C_27
   11  A    between atoms: C_22  and  C_27
   12  A    between atoms: C_22  and  N_34
   13  A    between atoms: C_23  and  C_24
   14  A    between atoms: C_26  and  C_28
   15  A    between atoms: C_26  and  C_38
   16  A    between atoms: C_28  and  O_32
                            x       y       z     vdW  Elec       q    Type
                         _______ _______ _______ _____ _____    ______ ____

>  <TORSDO>
F 16

$$$$
