=
 OpenBabel11042413333D

 41 43  0  0  1  0  0  0  0  0999 V2000
  186.0270  177.6440  145.6020 N   0  0  0  0  0  0  0  0  0  0  0  0
  191.6620  176.7570  147.4520 C   0  0  0  0  0  1  0  0  0  0  0  0
  190.3410  176.9870  146.8130 C   0  0  0  0  0  0  0  0  0  0  0  0
  190.1830  176.9020  145.5360 C   0  0  0  0  0  0  0  0  0  0  0  0
  189.5980  176.9540  144.3850 C   0  0  0  0  0  0  0  0  0  0  0  0
  187.0150  178.3580  147.6230 N   0  0  0  0  0  0  0  0  0  0  0  0
  189.2230  177.4780  147.5650 N   0  0  0  0  0  2  0  0  0  0  0  0
  188.2120  177.5690  144.4220 C   0  0  2  0  0  3  0  0  0  0  0  0
  185.7880  178.3800  146.8490 C   0  0  0  0  0  3  0  0  0  0  0  0
  187.4020  177.1480  145.6870 C   0  0  1  0  0  3  0  0  0  0  0  0
  187.9160  177.7100  146.9850 C   0  0  0  0  0  0  0  0  0  0  0  0
  190.1400  176.2080  143.2090 C   0  0  0  0  0  2  0  0  0  0  0  0
  191.5190  176.7320  142.8420 C   0  0  0  0  0  2  0  0  0  0  0  0
  191.4880  177.4060  141.4810 C   0  0  0  0  0  2  0  0  0  0  0  0
  190.6930  175.4690  138.4300 N   0  0  0  0  0  1  0  0  0  0  0  0
  190.0230  177.6150  139.5000 C   0  0  2  0  0  3  0  0  0  0  0  0
  191.1570  176.6480  139.1460 C   0  0  1  0  0  3  0  0  0  0  0  0
  190.5620  176.6560  140.5400 C   0  0  1  0  0  3  0  0  0  0  0  0
  188.6340  177.1570  139.0670 C   0  0  0  0  0  2  0  0  0  0  0  0
  187.8850  178.2940  138.3830 C   0  0  1  0  0  3  0  0  0  0  0  0
  188.7620  178.8090  137.2530 C   0  0  0  0  0  1  0  0  0  0  0  0
  186.5200  177.8270  137.8490 C   0  0  1  0  0  3  0  0  0  0  0  0
  184.1710  178.5510  138.5080 C   0  0  0  0  0  0  0  0  0  0  0  0
  183.3590  179.4950  138.6980 O   0  0  0  0  0  0  0  0  0  0  0  0
  185.5060  178.8490  138.0860 N   0  0  0  0  0  2  0  0  0  0  0  0
  183.7390  177.1420  138.7680 C   0  0  0  0  0  2  0  0  0  0  0  0
  182.9840  177.3630  136.4600 N   0  0  0  0  0  1  0  0  0  0  0  0
  182.7540  176.6630  137.7120 C   0  0  1  0  0  3  0  0  0  0  0  0
  182.9380  175.1770  137.4950 C   0  0  0  0  0  1  0  0  0  0  0  0
  186.5830  177.5430  136.3770 C   0  0  0  0  0  3  0  0  0  0  0  0
  186.4070  176.3080  135.9100 C   0  0  0  0  0  2  0  0  0  0  0  0
  187.4720  177.2370  143.2120 N   0  0  0  0  0  2  0  0  0  0  0  0
  187.4950  178.4180  142.3670 C   0  0  0  0  0  2  0  0  0  0  0  0
  185.9120  179.6910  141.1330 O   0  0  0  0  0  0  0  0  0  0  0  0
  186.1060  178.7970  142.0020 C   0  0  0  0  0  0  0  0  0  0  0  0
  185.0330  178.1810  142.6510 O   0  0  0  0  0  0  0  0  0  0  0  0
  183.6800  178.4410  142.2980 C   0  0  0  0  0  2  0  0  0  0  0  0
  183.1790  178.3350  144.6350 F   0  0  0  0  0  0  0  0  0  0  0  0
  182.9290  179.0500  143.4750 C   0  0  2  0  0  3  0  0  0  0  0  0
  181.4360  179.0630  143.1920 C   0  0  0  0  0  2  0  0  0  0  0  0
  180.7290  178.6390  144.3050 F   0  0  0  0  0  0  0  0  0  0  0  0
  1  9  2  0  0  0  0
  3  2  1  0  0  0  0
  3  7  1  0  0  0  0
  4  3  2  0  0  0  0
  5  8  1  0  0  0  0
  5  4  2  0  0  0  0
  8 32  1  6  0  0  0
  8 10  1  0  0  0  0
  9  6  1  0  0  0  0
 10  1  1  6  0  0  0
 10 11  1  0  0  0  0
 11  7  1  0  0  0  0
 11  6  2  0  0  0  0
 12  5  1  0  0  0  0
 13 12  1  0  0  0  0
 14 13  1  0  0  0  0
 16 19  1  6  0  0  0
 16 18  1  0  0  0  0
 17 15  1  6  0  0  0
 17 16  1  0  0  0  0
 17 18  1  0  0  0  0
 18 14  1  1  0  0  0
 20 21  1  6  0  0  0
 20 19  1  0  0  0  0
 22 30  1  6  0  0  0
 22 25  1  0  0  0  0
 22 20  1  0  0  0  0
 23 24  2  0  0  0  0
 23 26  1  0  0  0  0
 25 23  1  0  0  0  0
 27 28  1  0  0  0  0
 28 29  1  6  0  0  0
 28 26  1  0  0  0  0
 31 30  2  0  0  0  0
 33 32  1  0  0  0  0
 34 35  2  0  0  0  0
 35 33  1  0  0  0  0
 35 36  1  0  0  0  0
 37 36  1  0  0  0  0
 37 39  1  0  0  0  0
 39 38  1  1  0  0  0
 40 39  1  0  0  0  0
 40 41  1  0  0  0  0
M  END
>  <MODEL>
1

>  <REMARK>
 VINA RESULT:      -7.3      0.000      0.000
  Name = 
  18 active torsions:
  status: ('A' for Active; 'I' for Inactive)
    1  A    between atoms: C_4  and  C_28
    2  A    between atoms: C_4  and  C_34
    3  A    between atoms: C_5  and  C_7
    4  A    between atoms: C_7  and  N_16
    5  A    between atoms: C_7  and  C_31
    6  A    between atoms: C_8  and  C_18
    7  A    between atoms: C_8  and  C_28
    8  A    between atoms: C_9  and  C_14
    9  A    between atoms: C_10  and  C_25
   10  A    between atoms: C_14  and  C_30
   11  A    between atoms: C_20  and  C_39
   12  A    between atoms: C_22  and  N_32
   13  A    between atoms: C_22  and  C_38
   14  A    between atoms: C_25  and  C_31
   15  A    between atoms: C_26  and  N_32
   16  A    between atoms: O_27  and  C_33
   17  A    between atoms: O_27  and  C_38
   18  A    between atoms: C_33  and  C_39
                            x       y       z     vdW  Elec       q    Type
                         _______ _______ _______ _____ _____    ______ ____

>  <TORSDO>
F 18

$$$$
=
 OpenBabel11042413333D

 41 43  0  0  1  0  0  0  0  0999 V2000
  181.1630  178.3060  138.0270 N   0  0  0  0  0  0  0  0  0  0  0  0
  179.6580  179.8380  143.6250 C   0  0  0  0  0  1  0  0  0  0  0  0
  180.2170  179.4670  142.3000 C   0  0  0  0  0  0  0  0  0  0  0  0
  181.4530  179.1300  142.1570 C   0  0  0  0  0  0  0  0  0  0  0  0
  182.5500  178.7820  141.5700 C   0  0  0  0  0  0  0  0  0  0  0  0
  179.3450  179.6410  138.7220 N   0  0  0  0  0  0  0  0  0  0  0  0
  179.4550  179.6290  141.0960 N   0  0  0  0  0  2  0  0  0  0  0  0
  182.4900  178.8470  140.0550 C   0  0  2  0  0  3  0  0  0  0  0  0
  180.0150  179.0910  137.5580 C   0  0  0  0  0  3  0  0  0  0  0  0
  181.1180  178.3650  139.4890 C   0  0  1  0  0  3  0  0  0  0  0  0
  179.9550  179.2740  139.7840 C   0  0  0  0  0  0  0  0  0  0  0  0
  183.6510  178.1100  142.3250 C   0  0  0  0  0  2  0  0  0  0  0  0
  184.2290  179.0530  143.3670 C   0  0  0  0  0  2  0  0  0  0  0  0
  183.5190  178.8750  144.6980 C   0  0  0  0  0  2  0  0  0  0  0  0
  185.8880  179.4850  147.4730 N   0  0  0  0  0  1  0  0  0  0  0  0
  185.9050  178.4670  145.2010 C   0  0  2  0  0  3  0  0  0  0  0  0
  185.4240  179.6110  146.1000 C   0  0  1  0  0  3  0  0  0  0  0  0
  184.5040  178.4520  145.7730 C   0  0  1  0  0  3  0  0  0  0  0  0
  186.7470  177.4100  145.9070 C   0  0  0  0  0  2  0  0  0  0  0  0
  187.7870  176.8300  144.9560 C   0  0  1  0  0  3  0  0  0  0  0  0
  187.5640  177.4610  143.5910 C   0  0  0  0  0  1  0  0  0  0  0  0
  189.2170  177.0960  145.4560 C   0  0  1  0  0  3  0  0  0  0  0  0
  190.7360  178.7640  144.2780 C   0  0  0  0  0  0  0  0  0  0  0  0
  191.0140  179.9680  144.0360 O   0  0  0  0  0  0  0  0  0  0  0  0
  189.6240  178.4590  145.1250 N   0  0  0  0  0  2  0  0  0  0  0  0
  191.5440  177.6770  143.6400 C   0  0  0  0  0  2  0  0  0  0  0  0
  192.1940  177.4940  141.2970 N   0  0  0  0  0  1  0  0  0  0  0  0
  191.0750  177.4040  142.2190 C   0  0  1  0  0  3  0  0  0  0  0  0
  190.4790  176.0140  142.1480 C   0  0  0  0  0  1  0  0  0  0  0  0
  189.3140  176.9130  146.9420 C   0  0  0  0  0  3  0  0  0  0  0  0
  190.4980  176.8720  147.5500 C   0  0  0  0  0  2  0  0  0  0  0  0
  183.5800  178.0810  139.4660 N   0  0  0  0  0  2  0  0  0  0  0  0
  184.4530  179.0340  138.8030 C   0  0  0  0  0  2  0  0  0  0  0  0
  184.8150  177.4160  137.1000 O   0  0  0  0  0  0  0  0  0  0  0  0
  185.3130  178.3230  137.8220 C   0  0  0  0  0  0  0  0  0  0  0  0
  186.6690  178.6470  137.7370 O   0  0  0  0  0  0  0  0  0  0  0  0
  187.6850  177.8120  138.2800 C   0  0  0  0  0  2  0  0  0  0  0  0
  189.9600  178.1820  138.9220 F   0  0  0  0  0  0  0  0  0  0  0  0
  188.6630  178.6340  139.1080 C   0  0  2  0  0  3  0  0  0  0  0  0
  188.2980  178.5520  140.5820 C   0  0  0  0  0  2  0  0  0  0  0  0
  186.9720  178.8980  140.7720 F   0  0  0  0  0  0  0  0  0  0  0  0
  3  2  1  0  0  0  0
  4  3  2  0  0  0  0
  5  4  2  0  0  0  0
  5 12  1  0  0  0  0
  6 11  2  0  0  0  0
  7  3  1  0  0  0  0
  8 32  1  6  0  0  0
  8  5  1  0  0  0  0
  9  1  2  0  0  0  0
  9  6  1  0  0  0  0
 10  1  1  6  0  0  0
 10 11  1  0  0  0  0
 10  8  1  0  0  0  0
 11  7  1  0  0  0  0
 12 13  1  0  0  0  0
 13 14  1  0  0  0  0
 16 18  1  0  0  0  0
 16 19  1  1  0  0  0
 16 17  1  0  0  0  0
 17 15  1  1  0  0  0
 18 14  1  6  0  0  0
 18 17  1  0  0  0  0
 20 21  1  6  0  0  0
 20 22  1  0  0  0  0
 20 19  1  0  0  0  0
 22 30  1  1  0  0  0
 23 25  1  0  0  0  0
 24 23  2  0  0  0  0
 25 22  1  0  0  0  0
 26 23  1  0  0  0  0
 27 28  1  0  0  0  0
 28 29  1  1  0  0  0
 28 26  1  0  0  0  0
 30 31  2  0  0  0  0
 33 32  1  0  0  0  0
 34 35  2  0  0  0  0
 35 33  1  0  0  0  0
 36 35  1  0  0  0  0
 36 37  1  0  0  0  0
 37 39  1  0  0  0  0
 39 38  1  1  0  0  0
 39 40  1  0  0  0  0
 40 41  1  0  0  0  0
M  END
>  <MODEL>
2

>  <REMARK>
 VINA RESULT:      -7.0      2.909      8.770
  Name = 
  18 active torsions:
  status: ('A' for Active; 'I' for Inactive)
    1  A    between atoms: C_4  and  C_28
    2  A    between atoms: C_4  and  C_34
    3  A    between atoms: C_5  and  C_7
    4  A    between atoms: C_7  and  N_16
    5  A    between atoms: C_7  and  C_31
    6  A    between atoms: C_8  and  C_18
    7  A    between atoms: C_8  and  C_28
    8  A    between atoms: C_9  and  C_14
    9  A    between atoms: C_10  and  C_25
   10  A    between atoms: C_14  and  C_30
   11  A    between atoms: C_20  and  C_39
   12  A    between atoms: C_22  and  N_32
   13  A    between atoms: C_22  and  C_38
   14  A    between atoms: C_25  and  C_31
   15  A    between atoms: C_26  and  N_32
   16  A    between atoms: O_27  and  C_33
   17  A    between atoms: O_27  and  C_38
   18  A    between atoms: C_33  and  C_39
                            x       y       z     vdW  Elec       q    Type
                         _______ _______ _______ _____ _____    ______ ____

>  <TORSDO>
F 18

$$$$
=
 OpenBabel11042413333D

 41 43  0  0  1  0  0  0  0  0999 V2000
  190.7520  176.6570  143.3950 N   0  0  0  0  0  0  0  0  0  0  0  0
  187.8970  178.3180  148.4000 C   0  0  0  0  0  1  0  0  0  0  0  0
  188.4270  177.8700  147.0860 C   0  0  0  0  0  0  0  0  0  0  0  0
  187.6560  177.7130  146.0640 C   0  0  0  0  0  0  0  0  0  0  0  0
  187.2900  177.4100  144.8630 C   0  0  0  0  0  0  0  0  0  0  0  0
  191.4750  176.3980  145.6260 N   0  0  0  0  0  0  0  0  0  0  0  0
  189.7830  177.4310  146.9380 N   0  0  0  0  0  2  0  0  0  0  0  0
  188.3570  176.7000  144.0510 C   0  0  2  0  0  3  0  0  0  0  0  0
  191.8310  176.1380  144.2440 C   0  0  0  0  0  3  0  0  0  0  0  0
  189.7850  177.2720  144.3070 C   0  0  1  0  0  3  0  0  0  0  0  0
  190.3440  176.9930  145.6770 C   0  0  0  0  0  0  0  0  0  0  0  0
  186.0410  177.9760  144.2700 C   0  0  0  0  0  2  0  0  0  0  0  0
  185.3740  178.9260  145.2510 C   0  0  0  0  0  2  0  0  0  0  0  0
  183.8660  178.7450  145.2250 C   0  0  0  0  0  2  0  0  0  0  0  0
  181.0880  179.8360  143.0380 N   0  0  0  0  0  1  0  0  0  0  0  0
  183.0830  178.3510  142.9130 C   0  0  2  0  0  3  0  0  0  0  0  0
  181.8870  178.8410  143.7370 C   0  0  1  0  0  3  0  0  0  0  0  0
  183.2740  179.3980  143.9890 C   0  0  1  0  0  3  0  0  0  0  0  0
  183.2260  179.0050  141.5430 C   0  0  0  0  0  2  0  0  0  0  0  0
  183.4730  177.9520  140.4700 C   0  0  1  0  0  3  0  0  0  0  0  0
  182.2170  177.1030  140.3610 C   0  0  0  0  0  1  0  0  0  0  0  0
  183.8170  178.5990  139.1170 C   0  0  1  0  0  3  0  0  0  0  0  0
  184.1550  177.2290  136.9990 C   0  0  0  0  0  0  0  0  0  0  0  0
  183.6410  176.5220  136.0920 O   0  0  0  0  0  0  0  0  0  0  0  0
  183.3150  177.7760  138.0200 N   0  0  0  0  0  2  0  0  0  0  0  0
  185.6360  177.4450  137.0170 C   0  0  0  0  0  2  0  0  0  0  0  0
  187.2600  177.2900  135.2040 N   0  0  0  0  0  1  0  0  0  0  0  0
  186.3380  176.5270  136.0270 C   0  0  1  0  0  3  0  0  0  0  0  0
  187.1070  175.4680  136.7880 C   0  0  0  0  0  1  0  0  0  0  0  0
  183.2180  179.9700  139.0040 C   0  0  0  0  0  3  0  0  0  0  0  0
  182.0980  180.1720  138.3130 C   0  0  0  0  0  2  0  0  0  0  0  0
  188.0370  176.7490  142.6310 N   0  0  0  0  0  2  0  0  0  0  0  0
  188.5120  178.0310  142.1360 C   0  0  0  0  0  2  0  0  0  0  0  0
  186.7430  179.1320  140.9960 O   0  0  0  0  0  0  0  0  0  0  0  0
  187.7640  178.3990  140.9070 C   0  0  0  0  0  0  0  0  0  0  0  0
  188.1860  177.8990  139.6720 O   0  0  0  0  0  0  0  0  0  0  0  0
  189.0930  178.6060  138.8350 C   0  0  0  0  0  2  0  0  0  0  0  0
  189.7920  177.3670  136.9120 F   0  0  0  0  0  0  0  0  0  0  0  0
  190.1130  177.6520  138.2290 C   0  0  2  0  0  3  0  0  0  0  0  0
  190.1670  176.3630  139.0340 C   0  0  0  0  0  2  0  0  0  0  0  0
  190.8980  176.5470  140.1940 F   0  0  0  0  0  0  0  0  0  0  0  0
  1  9  2  0  0  0  0
  3  2  1  0  0  0  0
  4  3  2  0  0  0  0
  5  4  2  0  0  0  0
  6 11  2  0  0  0  0
  7  3  1  0  0  0  0
  8 32  1  6  0  0  0
  8 10  1  0  0  0  0
  8  5  1  0  0  0  0
  9  6  1  0  0  0  0
 10  1  1  6  0  0  0
 10 11  1  0  0  0  0
 11  7  1  0  0  0  0
 12  5  1  0  0  0  0
 12 13  1  0  0  0  0
 14 13  1  0  0  0  0
 16 19  1  6  0  0  0
 16 17  1  0  0  0  0
 16 18  1  0  0  0  0
 17 15  1  6  0  0  0
 17 18  1  0  0  0  0
 18 14  1  1  0  0  0
 20 21  1  6  0  0  0
 20 19  1  0  0  0  0
 22 30  1  1  0  0  0
 22 20  1  0  0  0  0
 23 26  1  0  0  0  0
 23 25  1  0  0  0  0
 24 23  2  0  0  0  0
 25 22  1  0  0  0  0
 27 28  1  0  0  0  0
 28 29  1  1  0  0  0
 28 26  1  0  0  0  0
 31 30  2  0  0  0  0
 33 32  1  0  0  0  0
 35 34  2  0  0  0  0
 35 33  1  0  0  0  0
 36 35  1  0  0  0  0
 37 36  1  0  0  0  0
 39 38  1  6  0  0  0
 39 37  1  0  0  0  0
 39 40  1  0  0  0  0
 40 41  1  0  0  0  0
M  END
>  <MODEL>
3

>  <REMARK>
 VINA RESULT:      -7.0      2.911      5.911
  Name = 
  18 active torsions:
  status: ('A' for Active; 'I' for Inactive)
    1  A    between atoms: C_4  and  C_28
    2  A    between atoms: C_4  and  C_34
    3  A    between atoms: C_5  and  C_7
    4  A    between atoms: C_7  and  N_16
    5  A    between atoms: C_7  and  C_31
    6  A    between atoms: C_8  and  C_18
    7  A    between atoms: C_8  and  C_28
    8  A    between atoms: C_9  and  C_14
    9  A    between atoms: C_10  and  C_25
   10  A    between atoms: C_14  and  C_30
   11  A    between atoms: C_20  and  C_39
   12  A    between atoms: C_22  and  N_32
   13  A    between atoms: C_22  and  C_38
   14  A    between atoms: C_25  and  C_31
   15  A    between atoms: C_26  and  N_32
   16  A    between atoms: O_27  and  C_33
   17  A    between atoms: O_27  and  C_38
   18  A    between atoms: C_33  and  C_39
                            x       y       z     vdW  Elec       q    Type
                         _______ _______ _______ _____ _____    ______ ____

>  <TORSDO>
F 18

$$$$
=
 OpenBabel11042413333D

 41 43  0  0  1  0  0  0  0  0999 V2000
  187.1120  178.4500  146.1310 N   0  0  0  0  0  0  0  0  0  0  0  0
  181.7200  179.3440  143.6640 C   0  0  0  0  0  1  0  0  0  0  0  0
  183.1060  179.0400  144.1050 C   0  0  0  0  0  0  0  0  0  0  0  0
  184.0170  178.6760  143.2680 C   0  0  0  0  0  0  0  0  0  0  0  0
  185.1660  178.2770  142.8320 C   0  0  0  0  0  0  0  0  0  0  0  0
  185.0080  178.4110  147.2000 N   0  0  0  0  0  0  0  0  0  0  0  0
  183.4500  178.9730  145.4950 N   0  0  0  0  0  2  0  0  0  0  0  0
  186.1350  177.8660  143.9240 C   0  0  2  0  0  3  0  0  0  0  0  0
  186.4330  178.2420  147.4160 C   0  0  0  0  0  3  0  0  0  0  0  0
  186.0600  178.7960  145.1740 C   0  0  1  0  0  3  0  0  0  0  0  0
  184.7880  178.6870  145.9710 C   0  0  0  0  0  0  0  0  0  0  0  0
  185.5670  178.4880  141.4080 C   0  0  0  0  0  2  0  0  0  0  0  0
  184.3930  178.2110  140.4820 C   0  0  0  0  0  2  0  0  0  0  0  0
  184.2010  179.3620  139.5100 C   0  0  0  0  0  2  0  0  0  0  0  0
  184.2910  177.1590  136.5380 N   0  0  0  0  0  1  0  0  0  0  0  0
  185.8760  178.0750  138.2260 C   0  0  2  0  0  3  0  0  0  0  0  0
  184.4990  177.4640  137.9460 C   0  0  1  0  0  3  0  0  0  0  0  0
  184.6550  178.9620  138.1170 C   0  0  1  0  0  3  0  0  0  0  0  0
  186.7510  178.2710  136.9920 C   0  0  0  0  0  2  0  0  0  0  0  0
  188.2240  178.1060  137.3480 C   0  0  1  0  0  3  0  0  0  0  0  0
  188.2990  177.6630  138.7990 C   0  0  0  0  0  1  0  0  0  0  0  0
  188.9130  177.0860  136.4260 C   0  0  1  0  0  3  0  0  0  0  0  0
  190.6110  175.4430  137.3740 C   0  0  0  0  0  0  0  0  0  0  0  0
  190.8270  174.3970  138.0400 O   0  0  0  0  0  0  0  0  0  0  0  0
  189.2640  175.8820  137.1750 N   0  0  0  0  0  2  0  0  0  0  0  0
  191.7680  176.2300  136.8410 C   0  0  0  0  0  2  0  0  0  0  0  0
  194.1990  176.3960  136.9300 N   0  0  0  0  0  1  0  0  0  0  0  0
  193.0170  176.0130  137.6820 C   0  0  1  0  0  3  0  0  0  0  0  0
  192.9270  176.8550  138.9360 C   0  0  0  0  0  1  0  0  0  0  0  0
  188.0220  176.6990  135.2830 C   0  0  0  0  0  3  0  0  0  0  0  0
  187.7770  175.4180  135.0090 C   0  0  0  0  0  2  0  0  0  0  0  0
  187.4970  177.8170  143.4090 N   0  0  0  0  0  2  0  0  0  0  0  0
  187.9240  176.4300  143.4770 C   0  0  0  0  0  2  0  0  0  0  0  0
  190.0190  175.5680  142.7630 O   0  0  0  0  0  0  0  0  0  0  0  0
  189.4070  176.3660  143.5230 C   0  0  0  0  0  0  0  0  0  0  0  0
  190.1010  177.1680  144.4330 O   0  0  0  0  0  0  0  0  0  0  0  0
  191.4510  176.9090  144.7990 C   0  0  0  0  0  2  0  0  0  0  0  0
  191.8290  175.4420  146.6500 F   0  0  0  0  0  0  0  0  0  0  0  0
  191.5750  176.7610  146.3090 C   0  0  2  0  0  3  0  0  0  0  0  0
  190.2980  177.2290  146.9880 C   0  0  0  0  0  2  0  0  0  0  0  0
  189.4550  176.1570  147.2250 F   0  0  0  0  0  0  0  0  0  0  0  0
  1  9  2  0  0  0  0
  2  3  1  0  0  0  0
  3  7  1  0  0  0  0
  4  3  2  0  0  0  0
  5  4  2  0  0  0  0
  5  8  1  0  0  0  0
  6  9  1  0  0  0  0
  7 11  1  0  0  0  0
  8 32  1  6  0  0  0
  8 10  1  0  0  0  0
 10 11  1  1  0  0  0
 10  1  1  0  0  0  0
 11  6  2  0  0  0  0
 12  5  1  0  0  0  0
 13 12  1  0  0  0  0
 14 13  1  0  0  0  0
 16 19  1  6  0  0  0
 17 15  1  6  0  0  0
 17 18  1  0  0  0  0
 17 16  1  0  0  0  0
 18 16  1  0  0  0  0
 18 14  1  1  0  0  0
 19 20  1  0  0  0  0
 20 21  1  1  0  0  0
 22 30  1  6  0  0  0
 22 25  1  0  0  0  0
 22 20  1  0  0  0  0
 23 24  2  0  0  0  0
 25 23  1  0  0  0  0
 26 23  1  0  0  0  0
 26 28  1  0  0  0  0
 27 28  1  0  0  0  0
 28 29  1  1  0  0  0
 31 30  2  0  0  0  0
 32 33  1  0  0  0  0
 33 35  1  0  0  0  0
 34 35  2  0  0  0  0
 35 36  1  0  0  0  0
 36 37  1  0  0  0  0
 37 39  1  0  0  0  0
 39 38  1  6  0  0  0
 39 40  1  0  0  0  0
 40 41  1  0  0  0  0
M  END
>  <MODEL>
4

>  <REMARK>
 VINA RESULT:      -6.8      3.036      6.528
  Name = 
  18 active torsions:
  status: ('A' for Active; 'I' for Inactive)
    1  A    between atoms: C_4  and  C_28
    2  A    between atoms: C_4  and  C_34
    3  A    between atoms: C_5  and  C_7
    4  A    between atoms: C_7  and  N_16
    5  A    between atoms: C_7  and  C_31
    6  A    between atoms: C_8  and  C_18
    7  A    between atoms: C_8  and  C_28
    8  A    between atoms: C_9  and  C_14
    9  A    between atoms: C_10  and  C_25
   10  A    between atoms: C_14  and  C_30
   11  A    between atoms: C_20  and  C_39
   12  A    between atoms: C_22  and  N_32
   13  A    between atoms: C_22  and  C_38
   14  A    between atoms: C_25  and  C_31
   15  A    between atoms: C_26  and  N_32
   16  A    between atoms: O_27  and  C_33
   17  A    between atoms: O_27  and  C_38
   18  A    between atoms: C_33  and  C_39
                            x       y       z     vdW  Elec       q    Type
                         _______ _______ _______ _____ _____    ______ ____

>  <TORSDO>
F 18

$$$$
=
 OpenBabel11042413333D

 41 43  0  0  1  0  0  0  0  0999 V2000
  190.7450  177.7630  144.7020 N   0  0  0  0  0  0  0  0  0  0  0  0
  185.2300  177.9840  147.0450 C   0  0  0  0  0  1  0  0  0  0  0  0
  186.5080  177.9000  146.2920 C   0  0  0  0  0  0  0  0  0  0  0  0
  186.5380  177.9440  145.0040 C   0  0  0  0  0  0  0  0  0  0  0  0
  187.0200  177.9160  143.8060 C   0  0  0  0  0  0  0  0  0  0  0  0
  190.0480  177.0210  146.8310 N   0  0  0  0  0  0  0  0  0  0  0  0
  187.7450  177.5980  146.9520 N   0  0  0  0  0  2  0  0  0  0  0  0
  188.4750  177.4920  143.7330 C   0  0  2  0  0  3  0  0  0  0  0  0
  191.1920  177.1250  145.9460 C   0  0  0  0  0  3  0  0  0  0  0  0
  189.3290  178.0760  144.9000 C   0  0  1  0  0  3  0  0  0  0  0  0
  189.0140  177.5130  146.2600 C   0  0  0  0  0  0  0  0  0  0  0  0
  186.2790  178.5260  142.6600 C   0  0  0  0  0  2  0  0  0  0  0  0
  184.8250  178.7600  143.0370 C   0  0  0  0  0  2  0  0  0  0  0  0
  183.9020  178.1430  142.0010 C   0  0  0  0  0  2  0  0  0  0  0  0
  184.2670  180.1650  138.9240 N   0  0  0  0  0  1  0  0  0  0  0  0
  183.4040  177.9260  139.5880 C   0  0  2  0  0  3  0  0  0  0  0  0
  183.5060  179.4200  139.9150 C   0  0  1  0  0  3  0  0  0  0  0  0
  184.4160  178.4200  140.5990 C   0  0  1  0  0  3  0  0  0  0  0  0
  184.1310  177.4990  138.3170 C   0  0  0  0  0  2  0  0  0  0  0  0
  183.2320  176.6190  137.4570 C   0  0  1  0  0  3  0  0  0  0  0  0
  183.8300  176.5790  136.0600 C   0  0  0  0  0  1  0  0  0  0  0  0
  183.1080  175.2020  138.0420 C   0  0  1  0  0  3  0  0  0  0  0  0
  180.6590  174.6400  138.4500 C   0  0  0  0  0  0  0  0  0  0  0  0
  179.6030  174.1000  138.0260 O   0  0  0  0  0  0  0  0  0  0  0  0
  181.8400  174.5990  137.6420 N   0  0  0  0  0  2  0  0  0  0  0  0
  180.6480  175.3510  139.7670 C   0  0  0  0  0  2  0  0  0  0  0  0
  179.1960  176.6330  141.2490 N   0  0  0  0  0  1  0  0  0  0  0  0
  179.4800  176.3210  139.8590 C   0  0  1  0  0  3  0  0  0  0  0  0
  179.8300  177.5960  139.1230 C   0  0  0  0  0  1  0  0  0  0  0  0
  184.2290  174.3220  137.5730 C   0  0  0  0  0  3  0  0  0  0  0  0
  184.0260  173.0290  137.3280 C   0  0  0  0  0  2  0  0  0  0  0  0
  189.0520  177.8610  142.4470 N   0  0  0  0  0  2  0  0  0  0  0  0
  189.4850  176.6300  141.8100 C   0  0  0  0  0  2  0  0  0  0  0  0
  191.6730  177.1830  141.0690 O   0  0  0  0  0  0  0  0  0  0  0  0
  190.4780  176.9390  140.7500 C   0  0  0  0  0  0  0  0  0  0  0  0
  190.0660  176.9870  139.4160 O   0  0  0  0  0  0  0  0  0  0  0  0
  189.5820  178.1800  138.8120 C   0  0  0  0  0  2  0  0  0  0  0  0
  187.1930  178.1820  138.6920 F   0  0  0  0  0  0  0  0  0  0  0  0
  188.3430  177.8910  137.9760 C   0  0  2  0  0  3  0  0  0  0  0  0
  188.3270  176.4310  137.5520 C   0  0  0  0  0  2  0  0  0  0  0  0
  187.0540  175.9030  137.6800 F   0  0  0  0  0  0  0  0  0  0  0  0
  1  9  2  0  0  0  0
  3  7  1  0  0  0  0
  3  2  1  0  0  0  0
  4  3  2  0  0  0  0
  5  4  2  0  0  0  0
  8 32  1  6  0  0  0
  8  5  1  0  0  0  0
  8 10  1  0  0  0  0
  9  6  1  0  0  0  0
 10  1  1  6  0  0  0
 10 11  1  0  0  0  0
 11  6  2  0  0  0  0
 11  7  1  0  0  0  0
 12 13  1  0  0  0  0
 12  5  1  0  0  0  0
 14 13  1  0  0  0  0
 16 19  1  6  0  0  0
 16 17  1  0  0  0  0
 16 18  1  0  0  0  0
 17 15  1  6  0  0  0
 17 18  1  0  0  0  0
 18 14  1  1  0  0  0
 20 21  1  6  0  0  0
 20 22  1  0  0  0  0
 20 19  1  0  0  0  0
 22 30  1  6  0  0  0
 23 26  1  0  0  0  0
 24 23  2  0  0  0  0
 25 22  1  0  0  0  0
 25 23  1  0  0  0  0
 26 28  1  0  0  0  0
 28 29  1  6  0  0  0
 28 27  1  0  0  0  0
 31 30  2  0  0  0  0
 33 32  1  0  0  0  0
 35 34  2  0  0  0  0
 35 33  1  0  0  0  0
 36 35  1  0  0  0  0
 37 36  1  0  0  0  0
 39 38  1  1  0  0  0
 39 37  1  0  0  0  0
 40 41  1  0  0  0  0
 40 39  1  0  0  0  0
M  END
>  <MODEL>
5

>  <REMARK>
 VINA RESULT:      -6.7      3.068      5.564
  Name = 
  18 active torsions:
  status: ('A' for Active; 'I' for Inactive)
    1  A    between atoms: C_4  and  C_28
    2  A    between atoms: C_4  and  C_34
    3  A    between atoms: C_5  and  C_7
    4  A    between atoms: C_7  and  N_16
    5  A    between atoms: C_7  and  C_31
    6  A    between atoms: C_8  and  C_18
    7  A    between atoms: C_8  and  C_28
    8  A    between atoms: C_9  and  C_14
    9  A    between atoms: C_10  and  C_25
   10  A    between atoms: C_14  and  C_30
   11  A    between atoms: C_20  and  C_39
   12  A    between atoms: C_22  and  N_32
   13  A    between atoms: C_22  and  C_38
   14  A    between atoms: C_25  and  C_31
   15  A    between atoms: C_26  and  N_32
   16  A    between atoms: O_27  and  C_33
   17  A    between atoms: O_27  and  C_38
   18  A    between atoms: C_33  and  C_39
                            x       y       z     vdW  Elec       q    Type
                         _______ _______ _______ _____ _____    ______ ____

>  <TORSDO>
F 18

$$$$
=
 OpenBabel11042413333D

 41 43  0  0  1  0  0  0  0  0999 V2000
  183.7920  175.3880  137.6250 N   0  0  0  0  0  0  0  0  0  0  0  0
  180.3620  178.3930  141.5190 C   0  0  0  0  0  1  0  0  0  0  0  0
  181.3390  177.7960  140.5730 C   0  0  0  0  0  0  0  0  0  0  0  0
  182.5430  178.2480  140.4700 C   0  0  0  0  0  0  0  0  0  0  0  0
  183.7520  178.3730  140.0320 C   0  0  0  0  0  0  0  0  0  0  0  0
  181.4350  175.4920  137.6960 N   0  0  0  0  0  0  0  0  0  0  0  0
  180.9420  176.8070  139.6140 N   0  0  0  0  0  2  0  0  0  0  0  0
  184.0420  177.5750  138.7750 C   0  0  2  0  0  3  0  0  0  0  0  0
  182.5600  174.9390  136.9660 C   0  0  0  0  0  3  0  0  0  0  0  0
  183.3620  176.1720  138.7850 C   0  0  1  0  0  3  0  0  0  0  0  0
  181.8610  176.1930  138.6780 C   0  0  0  0  0  0  0  0  0  0  0  0
  184.8130  179.0150  140.8660 C   0  0  0  0  0  2  0  0  0  0  0  0
  185.0710  178.1900  142.1170 C   0  0  0  0  0  2  0  0  0  0  0  0
  185.0960  179.0830  143.3460 C   0  0  0  0  0  2  0  0  0  0  0  0
  184.5670  178.3560  146.9360 N   0  0  0  0  0  1  0  0  0  0  0  0
  186.4700  178.6750  145.3610 C   0  0  2  0  0  3  0  0  0  0  0  0
  185.0840  179.1380  145.8230 C   0  0  1  0  0  3  0  0  0  0  0  0
  185.2300  178.2470  144.6060 C   0  0  1  0  0  3  0  0  0  0  0  0
  187.0310  177.4800  146.1250 C   0  0  0  0  0  2  0  0  0  0  0  0
  188.2580  177.8890  146.9310 C   0  0  1  0  0  3  0  0  0  0  0  0
  188.1240  177.2770  148.3160 C   0  0  0  0  0  1  0  0  0  0  0  0
  189.5570  177.4240  146.2500 C   0  0  1  0  0  3  0  0  0  0  0  0
  190.6030  178.6070  144.2540 C   0  0  0  0  0  0  0  0  0  0  0  0
  191.1860  179.6290  143.8040 O   0  0  0  0  0  0  0  0  0  0  0  0
  190.2420  178.5590  145.6370 N   0  0  0  0  0  2  0  0  0  0  0  0
  190.2610  177.4840  143.3250 C   0  0  0  0  0  2  0  0  0  0  0  0
  188.7310  177.9640  141.4880 N   0  0  0  0  0  1  0  0  0  0  0  0
  188.8080  177.5590  142.8810 C   0  0  1  0  0  3  0  0  0  0  0  0
  188.1660  176.1980  143.0420 C   0  0  0  0  0  1  0  0  0  0  0  0
  190.4850  176.7770  147.2360 C   0  0  0  0  0  3  0  0  0  0  0  0
  191.5700  176.1230  146.8260 C   0  0  0  0  0  2  0  0  0  0  0  0
  185.4780  177.4430  138.5730 N   0  0  0  0  0  2  0  0  0  0  0  0
  185.8280  178.3000  137.4530 C   0  0  0  0  0  2  0  0  0  0  0  0
  186.5560  177.8150  135.2440 O   0  0  0  0  0  0  0  0  0  0  0  0
  186.6360  177.5330  136.4710 C   0  0  0  0  0  0  0  0  0  0  0  0
  187.4470  176.4870  136.9170 O   0  0  0  0  0  0  0  0  0  0  0  0
  188.8620  176.5090  136.7750 C   0  0  0  0  0  2  0  0  0  0  0  0
  189.6170  178.6390  137.5600 F   0  0  0  0  0  0  0  0  0  0  0  0
  189.4990  177.3040  137.9080 C   0  0  2  0  0  3  0  0  0  0  0  0
  190.8700  176.7360  138.2390 C   0  0  0  0  0  2  0  0  0  0  0  0
  191.1010  176.7930  139.6020 F   0  0  0  0  0  0  0  0  0  0  0  0
  3  2  1  0  0  0  0
  4  3  2  0  0  0  0
  5  4  2  0  0  0  0
  5 12  1  0  0  0  0
  6 11  2  0  0  0  0
  7  3  1  0  0  0  0
  8 32  1  1  0  0  0
  8 10  1  0  0  0  0
  8  5  1  0  0  0  0
  9  1  2  0  0  0  0
  9  6  1  0  0  0  0
 10  1  1  6  0  0  0
 11 10  1  0  0  0  0
 11  7  1  0  0  0  0
 12 13  1  0  0  0  0
 13 14  1  0  0  0  0
 16 17  1  0  0  0  0
 16 19  1  1  0  0  0
 17 15  1  1  0  0  0
 18 14  1  6  0  0  0
 18 16  1  0  0  0  0
 18 17  1  0  0  0  0
 19 20  1  0  0  0  0
 20 21  1  1  0  0  0
 22 20  1  0  0  0  0
 22 30  1  1  0  0  0
 23 25  1  0  0  0  0
 24 23  2  0  0  0  0
 25 22  1  0  0  0  0
 26 23  1  0  0  0  0
 27 28  1  0  0  0  0
 28 29  1  6  0  0  0
 28 26  1  0  0  0  0
 31 30  2  0  0  0  0
 33 32  1  0  0  0  0
 34 35  2  0  0  0  0
 35 36  1  0  0  0  0
 35 33  1  0  0  0  0
 37 36  1  0  0  0  0
 37 39  1  0  0  0  0
 39 38  1  6  0  0  0
 39 40  1  0  0  0  0
 40 41  1  0  0  0  0
M  END
>  <MODEL>
6

>  <REMARK>
 VINA RESULT:      -6.6      3.199      8.961
  Name = 
  18 active torsions:
  status: ('A' for Active; 'I' for Inactive)
    1  A    between atoms: C_4  and  C_28
    2  A    between atoms: C_4  and  C_34
    3  A    between atoms: C_5  and  C_7
    4  A    between atoms: C_7  and  N_16
    5  A    between atoms: C_7  and  C_31
    6  A    between atoms: C_8  and  C_18
    7  A    between atoms: C_8  and  C_28
    8  A    between atoms: C_9  and  C_14
    9  A    between atoms: C_10  and  C_25
   10  A    between atoms: C_14  and  C_30
   11  A    between atoms: C_20  and  C_39
   12  A    between atoms: C_22  and  N_32
   13  A    between atoms: C_22  and  C_38
   14  A    between atoms: C_25  and  C_31
   15  A    between atoms: C_26  and  N_32
   16  A    between atoms: O_27  and  C_33
   17  A    between atoms: O_27  and  C_38
   18  A    between atoms: C_33  and  C_39
                            x       y       z     vdW  Elec       q    Type
                         _______ _______ _______ _____ _____    ______ ____

>  <TORSDO>
F 18

$$$$
=
 OpenBabel11042413333D

 41 43  0  0  1  0  0  0  0  0999 V2000
  191.4800  177.4230  145.3880 N   0  0  0  0  0  0  0  0  0  0  0  0
  185.7110  177.8030  146.9790 C   0  0  0  0  0  1  0  0  0  0  0  0
  187.0750  177.6900  146.4020 C   0  0  0  0  0  0  0  0  0  0  0  0
  187.2810  177.7760  145.1310 C   0  0  0  0  0  0  0  0  0  0  0  0
  187.9190  177.7680  144.0080 C   0  0  0  0  0  0  0  0  0  0  0  0
  190.4730  176.6400  147.3740 N   0  0  0  0  0  0  0  0  0  0  0  0
  188.1990  177.3120  147.2080 N   0  0  0  0  0  2  0  0  0  0  0  0
  189.3540  177.2840  144.1140 C   0  0  2  0  0  3  0  0  0  0  0  0
  191.7300  176.7240  146.6550 C   0  0  0  0  0  3  0  0  0  0  0  0
  190.0640  177.7910  145.4070 C   0  0  1  0  0  3  0  0  0  0  0  0
  189.5460  177.1950  146.6890 C   0  0  0  0  0  0  0  0  0  0  0  0
  187.3640  178.4490  142.7990 C   0  0  0  0  0  2  0  0  0  0  0  0
  185.9670  177.9310  142.4970 C   0  0  0  0  0  2  0  0  0  0  0  0
  185.1300  179.0140  141.8380 C   0  0  0  0  0  2  0  0  0  0  0  0
  183.4550  179.2530  145.1290 N   0  0  0  0  0  1  0  0  0  0  0  0
  182.8890  178.5940  142.7950 C   0  0  2  0  0  3  0  0  0  0  0  0
  183.9060  178.5450  143.9400 C   0  0  1  0  0  3  0  0  0  0  0  0
  184.0780  179.5310  142.8020 C   0  0  1  0  0  3  0  0  0  0  0  0
  181.6220  179.3870  143.0990 C   0  0  0  0  0  2  0  0  0  0  0  0
  180.5260  179.0500  142.0960 C   0  0  1  0  0  3  0  0  0  0  0  0
  179.6540  180.2840  141.9360 C   0  0  0  0  0  1  0  0  0  0  0  0
  181.1160  178.6160  140.7440 C   0  0  1  0  0  3  0  0  0  0  0  0
  181.2390  176.2850  139.7280 C   0  0  0  0  0  0  0  0  0  0  0  0
  180.6290  175.2410  139.3770 O   0  0  0  0  0  0  0  0  0  0  0  0
  180.5000  177.3700  140.2980 N   0  0  0  0  0  2  0  0  0  0  0  0
  182.7270  176.3550  139.5840 C   0  0  0  0  0  2  0  0  0  0  0  0
  184.3350  177.6680  138.3060 N   0  0  0  0  0  1  0  0  0  0  0  0
  183.1240  176.8720  138.2100 C   0  0  1  0  0  3  0  0  0  0  0  0
  183.3690  175.6980  137.2870 C   0  0  0  0  0  1  0  0  0  0  0  0
  180.8960  179.6650  139.6940 C   0  0  0  0  0  3  0  0  0  0  0  0
  181.9250  180.2350  139.0700 C   0  0  0  0  0  2  0  0  0  0  0  0
  190.1130  177.6720  142.9330 N   0  0  0  0  0  2  0  0  0  0  0  0
  190.0820  176.5400  142.0220 C   0  0  0  0  0  2  0  0  0  0  0  0
  191.6050  177.0900  140.2840 O   0  0  0  0  0  0  0  0  0  0  0  0
  190.4000  176.9990  140.6450 C   0  0  0  0  0  0  0  0  0  0  0  0
  189.3610  177.3550  139.7820 O   0  0  0  0  0  0  0  0  0  0  0  0
  189.1790  176.7330  138.5160 C   0  0  0  0  0  2  0  0  0  0  0  0
  187.1410  176.1550  137.4050 F   0  0  0  0  0  0  0  0  0  0  0  0
  187.8940  177.2240  137.8620 C   0  0  2  0  0  3  0  0  0  0  0  0
  188.2190  178.1530  136.7030 C   0  0  0  0  0  2  0  0  0  0  0  0
  188.5770  179.4050  137.1730 F   0  0  0  0  0  0  0  0  0  0  0  0
  1  9  2  0  0  0  0
  3  2  1  0  0  0  0
  3  7  1  0  0  0  0
  4  3  2  0  0  0  0
  5  8  1  0  0  0  0
  5  4  2  0  0  0  0
  8 32  1  6  0  0  0
  8 10  1  0  0  0  0
  9  6  1  0  0  0  0
 10  1  1  6  0  0  0
 10 11  1  0  0  0  0
 11  7  1  0  0  0  0
 11  6  2  0  0  0  0
 12  5  1  0  0  0  0
 13 12  1  0  0  0  0
 14 13  1  0  0  0  0
 16 18  1  0  0  0  0
 16 19  1  1  0  0  0
 16 17  1  0  0  0  0
 17 15  1  1  0  0  0
 18 14  1  6  0  0  0
 18 17  1  0  0  0  0
 20 21  1  6  0  0  0
 20 19  1  0  0  0  0
 22 30  1  6  0  0  0
 22 20  1  0  0  0  0
 23 25  1  0  0  0  0
 24 23  2  0  0  0  0
 25 22  1  0  0  0  0
 26 23  1  0  0  0  0
 28 29  1  6  0  0  0
 28 27  1  0  0  0  0
 28 26  1  0  0  0  0
 31 30  2  0  0  0  0
 33 32  1  0  0  0  0
 34 35  2  0  0  0  0
 35 33  1  0  0  0  0
 36 35  1  0  0  0  0
 37 36  1  0  0  0  0
 39 38  1  6  0  0  0
 39 37  1  0  0  0  0
 40 41  1  0  0  0  0
 40 39  1  0  0  0  0
M  END
>  <MODEL>
7

>  <REMARK>
 VINA RESULT:      -6.5      2.957      6.057
  Name = 
  18 active torsions:
  status: ('A' for Active; 'I' for Inactive)
    1  A    between atoms: C_4  and  C_28
    2  A    between atoms: C_4  and  C_34
    3  A    between atoms: C_5  and  C_7
    4  A    between atoms: C_7  and  N_16
    5  A    between atoms: C_7  and  C_31
    6  A    between atoms: C_8  and  C_18
    7  A    between atoms: C_8  and  C_28
    8  A    between atoms: C_9  and  C_14
    9  A    between atoms: C_10  and  C_25
   10  A    between atoms: C_14  and  C_30
   11  A    between atoms: C_20  and  C_39
   12  A    between atoms: C_22  and  N_32
   13  A    between atoms: C_22  and  C_38
   14  A    between atoms: C_25  and  C_31
   15  A    between atoms: C_26  and  N_32
   16  A    between atoms: O_27  and  C_33
   17  A    between atoms: O_27  and  C_38
   18  A    between atoms: C_33  and  C_39
                            x       y       z     vdW  Elec       q    Type
                         _______ _______ _______ _____ _____    ______ ____

>  <TORSDO>
F 18

$$$$
=
 OpenBabel11042413333D

 41 43  0  0  1  0  0  0  0  0999 V2000
  186.1000  178.9530  145.5030 N   0  0  0  0  0  0  0  0  0  0  0  0
  181.3790  178.8820  141.8070 C   0  0  0  0  0  1  0  0  0  0  0  0
  182.6490  178.8220  142.5740 C   0  0  0  0  0  0  0  0  0  0  0  0
  183.7790  178.5940  141.9940 C   0  0  0  0  0  0  0  0  0  0  0  0
  185.0450  178.3800  141.8610 C   0  0  0  0  0  0  0  0  0  0  0  0
  183.8350  178.5920  146.0570 N   0  0  0  0  0  0  0  0  0  0  0  0
  182.6590  178.8470  144.0070 N   0  0  0  0  0  2  0  0  0  0  0  0
  185.7790  178.1620  143.1710 C   0  0  2  0  0  3  0  0  0  0  0  0
  185.1750  178.6670  146.6060 C   0  0  0  0  0  3  0  0  0  0  0  0
  185.2650  179.0970  144.3090 C   0  0  1  0  0  3  0  0  0  0  0  0
  183.8730  178.7980  144.7950 C   0  0  0  0  0  0  0  0  0  0  0  0
  185.7370  178.6190  140.5580 C   0  0  0  0  0  2  0  0  0  0  0  0
  184.7190  178.7340  139.4340 C   0  0  0  0  0  2  0  0  0  0  0  0
  185.1200  177.8550  138.2620 C   0  0  0  0  0  2  0  0  0  0  0  0
  187.7210  178.4540  135.6990 N   0  0  0  0  0  1  0  0  0  0  0  0
  187.3300  176.9390  137.6350 C   0  0  2  0  0  3  0  0  0  0  0  0
  186.7450  177.6380  136.4040 C   0  0  1  0  0  3  0  0  0  0  0  0
  186.5200  178.2070  137.7900 C   0  0  1  0  0  3  0  0  0  0  0  0
  188.7990  177.2440  137.9050 C   0  0  0  0  0  2  0  0  0  0  0  0
  189.6250  175.9640  137.8830 C   0  0  1  0  0  3  0  0  0  0  0  0
  189.9380  175.6430  136.4310 C   0  0  0  0  0  1  0  0  0  0  0  0
  190.9180  176.1150  138.7020 C   0  0  1  0  0  3  0  0  0  0  0  0
  193.1870  176.1560  137.5500 C   0  0  0  0  0  0  0  0  0  0  0  0
  194.0190  176.7950  136.8530 O   0  0  0  0  0  0  0  0  0  0  0  0
  191.9480  176.7770  137.9060 N   0  0  0  0  0  2  0  0  0  0  0  0
  193.4920  174.7470  137.9550 C   0  0  0  0  0  2  0  0  0  0  0  0
  195.3520  175.2280  139.4570 N   0  0  0  0  0  1  0  0  0  0  0  0
  194.9770  174.5600  138.2230 C   0  0  1  0  0  3  0  0  0  0  0  0
  195.2800  173.0820  138.3430 C   0  0  0  0  0  1  0  0  0  0  0  0
  190.6810  176.9200  139.9460 C   0  0  0  0  0  3  0  0  0  0  0  0
  191.6920  177.5020  140.5880 C   0  0  0  0  0  2  0  0  0  0  0  0
  187.2150  178.3260  142.9880 N   0  0  0  0  0  2  0  0  0  0  0  0
  187.8540  177.1890  143.6280 C   0  0  0  0  0  2  0  0  0  0  0  0
  189.8380  178.4450  143.2670 O   0  0  0  0  0  0  0  0  0  0  0  0
  189.2810  177.5050  143.8960 C   0  0  0  0  0  0  0  0  0  0  0  0
  189.9930  176.7330  144.8170 O   0  0  0  0  0  0  0  0  0  0  0  0
  191.1530  177.2200  145.4800 C   0  0  0  0  0  2  0  0  0  0  0  0
  191.4370  175.4170  147.0260 F   0  0  0  0  0  0  0  0  0  0  0  0
  191.1630  176.7720  146.9350 C   0  0  2  0  0  3  0  0  0  0  0  0
  189.8200  177.0670  147.5830 C   0  0  0  0  0  2  0  0  0  0  0  0
  189.3540  178.3090  147.1850 F   0  0  0  0  0  0  0  0  0  0  0  0
  1  9  2  0  0  0  0
  2  3  1  0  0  0  0
  3  7  1  0  0  0  0
  4  3  2  0  0  0  0
  5  4  2  0  0  0  0
  5  8  1  0  0  0  0
  6  9  1  0  0  0  0
  7 11  1  0  0  0  0
  8 32  1  6  0  0  0
  8 10  1  0  0  0  0
 10 11  1  1  0  0  0
 10  1  1  0  0  0  0
 11  6  2  0  0  0  0
 12  5  1  0  0  0  0
 13 12  1  0  0  0  0
 14 13  1  0  0  0  0
 16 18  1  0  0  0  0
 16 19  1  6  0  0  0
 17 15  1  6  0  0  0
 17 16  1  0  0  0  0
 17 18  1  0  0  0  0
 18 14  1  1  0  0  0
 20 21  1  6  0  0  0
 20 19  1  0  0  0  0
 20 22  1  0  0  0  0
 22 30  1  1  0  0  0
 23 25  1  0  0  0  0
 23 26  1  0  0  0  0
 24 23  2  0  0  0  0
 25 22  1  0  0  0  0
 26 28  1  0  0  0  0
 28 29  1  1  0  0  0
 28 27  1  0  0  0  0
 30 31  2  0  0  0  0
 32 33  1  0  0  0  0
 33 35  1  0  0  0  0
 34 35  2  0  0  0  0
 35 36  1  0  0  0  0
 36 37  1  0  0  0  0
 37 39  1  0  0  0  0
 39 38  1  6  0  0  0
 39 40  1  0  0  0  0
 41 40  1  0  0  0  0
M  END
>  <MODEL>
8

>  <REMARK>
 VINA RESULT:      -6.5      3.292      7.165
  Name = 
  18 active torsions:
  status: ('A' for Active; 'I' for Inactive)
    1  A    between atoms: C_4  and  C_28
    2  A    between atoms: C_4  and  C_34
    3  A    between atoms: C_5  and  C_7
    4  A    between atoms: C_7  and  N_16
    5  A    between atoms: C_7  and  C_31
    6  A    between atoms: C_8  and  C_18
    7  A    between atoms: C_8  and  C_28
    8  A    between atoms: C_9  and  C_14
    9  A    between atoms: C_10  and  C_25
   10  A    between atoms: C_14  and  C_30
   11  A    between atoms: C_20  and  C_39
   12  A    between atoms: C_22  and  N_32
   13  A    between atoms: C_22  and  C_38
   14  A    between atoms: C_25  and  C_31
   15  A    between atoms: C_26  and  N_32
   16  A    between atoms: O_27  and  C_33
   17  A    between atoms: O_27  and  C_38
   18  A    between atoms: C_33  and  C_39
                            x       y       z     vdW  Elec       q    Type
                         _______ _______ _______ _____ _____    ______ ____

>  <TORSDO>
F 18

$$$$
=
 OpenBabel11042413333D

 41 43  0  0  1  0  0  0  0  0999 V2000
  187.0230  178.3810  146.1080 N   0  0  0  0  0  0  0  0  0  0  0  0
  181.9200  179.3310  143.1050 C   0  0  0  0  0  1  0  0  0  0  0  0
  183.2540  179.0210  143.6820 C   0  0  0  0  0  0  0  0  0  0  0  0
  184.2570  178.7060  142.9340 C   0  0  0  0  0  0  0  0  0  0  0  0
  185.4520  178.3390  142.6100 C   0  0  0  0  0  0  0  0  0  0  0  0
  184.8160  178.2710  146.9360 N   0  0  0  0  0  0  0  0  0  0  0  0
  183.4450  178.8940  145.0970 N   0  0  0  0  0  2  0  0  0  0  0  0
  186.3030  177.8890  143.7830 C   0  0  2  0  0  3  0  0  0  0  0  0
  186.2110  178.1070  147.2990 C   0  0  0  0  0  3  0  0  0  0  0  0
  186.0770  178.7600  145.0570 C   0  0  1  0  0  3  0  0  0  0  0  0
  184.7270  178.6010  145.7030 C   0  0  0  0  0  0  0  0  0  0  0  0
  186.0030  178.6200  141.2490 C   0  0  0  0  0  2  0  0  0  0  0  0
  184.8840  179.0060  140.2960 C   0  0  0  0  0  2  0  0  0  0  0  0
  184.5680  177.8570  139.3540 C   0  0  0  0  0  2  0  0  0  0  0  0
  184.7330  177.2890  135.7010 N   0  0  0  0  0  1  0  0  0  0  0  0
  186.3010  177.6180  137.6070 C   0  0  2  0  0  3  0  0  0  0  0  0
  185.0190  176.9590  137.0890 C   0  0  1  0  0  3  0  0  0  0  0  0
  184.9510  178.2180  137.9290 C   0  0  1  0  0  3  0  0  0  0  0  0
  187.0170  178.5060  136.5940 C   0  0  0  0  0  2  0  0  0  0  0  0
  188.5280  178.3420  136.7110 C   0  0  1  0  0  3  0  0  0  0  0  0
  189.0510  179.4890  137.5590 C   0  0  0  0  0  1  0  0  0  0  0  0
  188.8980  176.9850  137.3350 C   0  0  1  0  0  3  0  0  0  0  0  0
  189.1990  175.1780  135.5680 C   0  0  0  0  0  0  0  0  0  0  0  0
  189.9770  174.5630  134.7930 O   0  0  0  0  0  0  0  0  0  0  0  0
  189.7210  176.2100  136.4100 N   0  0  0  0  0  2  0  0  0  0  0  0
  187.7380  174.8490  135.5620 C   0  0  0  0  0  2  0  0  0  0  0  0
  188.6700  173.0240  136.8840 N   0  0  0  0  0  1  0  0  0  0  0  0
  187.4760  173.4960  136.2050 C   0  0  1  0  0  3  0  0  0  0  0  0
  186.3500  173.6290  137.2080 C   0  0  0  0  0  1  0  0  0  0  0  0
  189.6560  177.1670  138.6170 C   0  0  0  0  0  3  0  0  0  0  0  0
  189.0420  177.0650  139.7950 C   0  0  0  0  0  2  0  0  0  0  0  0
  187.7130  177.8780  143.4180 N   0  0  0  0  0  2  0  0  0  0  0  0
  188.1630  176.5000  143.5180 C   0  0  0  0  0  2  0  0  0  0  0  0
  190.1630  175.5340  142.6740 O   0  0  0  0  0  0  0  0  0  0  0  0
  189.6400  176.4460  143.3700 C   0  0  0  0  0  0  0  0  0  0  0  0
  190.4310  177.3880  144.0330 O   0  0  0  0  0  0  0  0  0  0  0  0
  191.3950  177.0170  145.0110 C   0  0  0  0  0  2  0  0  0  0  0  0
  189.9090  177.7230  146.7470 F   0  0  0  0  0  0  0  0  0  0  0  0
  190.7140  176.6760  146.3280 C   0  0  2  0  0  3  0  0  0  0  0  0
  191.7560  176.3740  147.3930 C   0  0  0  0  0  2  0  0  0  0  0  0
  191.7020  175.0390  147.7580 F   0  0  0  0  0  0  0  0  0  0  0  0
  1  9  2  0  0  0  0
  2  3  1  0  0  0  0
  3  7  1  0  0  0  0
  4  3  2  0  0  0  0
  5  4  2  0  0  0  0
  5  8  1  0  0  0  0
  6  9  1  0  0  0  0
  7 11  1  0  0  0  0
  8 32  1  6  0  0  0
  8 10  1  0  0  0  0
 10 11  1  1  0  0  0
 10  1  1  0  0  0  0
 11  6  2  0  0  0  0
 12  5  1  0  0  0  0
 13 12  1  0  0  0  0
 14 13  1  0  0  0  0
 16 19  1  6  0  0  0
 16 18  1  0  0  0  0
 17 15  1  6  0  0  0
 17 16  1  0  0  0  0
 17 18  1  0  0  0  0
 18 14  1  1  0  0  0
 19 20  1  0  0  0  0
 20 22  1  0  0  0  0
 20 21  1  1  0  0  0
 22 30  1  1  0  0  0
 23 25  1  0  0  0  0
 24 23  2  0  0  0  0
 25 22  1  0  0  0  0
 26 23  1  0  0  0  0
 26 28  1  0  0  0  0
 28 27  1  0  0  0  0
 28 29  1  1  0  0  0
 30 31  2  0  0  0  0
 32 33  1  0  0  0  0
 34 35  2  0  0  0  0
 35 33  1  0  0  0  0
 35 36  1  0  0  0  0
 36 37  1  0  0  0  0
 37 39  1  0  0  0  0
 39 38  1  1  0  0  0
 39 40  1  0  0  0  0
 40 41  1  0  0  0  0
M  END
>  <MODEL>
9

>  <REMARK>
 VINA RESULT:      -6.5      3.098      6.080
  Name = 
  18 active torsions:
  status: ('A' for Active; 'I' for Inactive)
    1  A    between atoms: C_4  and  C_28
    2  A    between atoms: C_4  and  C_34
    3  A    between atoms: C_5  and  C_7
    4  A    between atoms: C_7  and  N_16
    5  A    between atoms: C_7  and  C_31
    6  A    between atoms: C_8  and  C_18
    7  A    between atoms: C_8  and  C_28
    8  A    between atoms: C_9  and  C_14
    9  A    between atoms: C_10  and  C_25
   10  A    between atoms: C_14  and  C_30
   11  A    between atoms: C_20  and  C_39
   12  A    between atoms: C_22  and  N_32
   13  A    between atoms: C_22  and  C_38
   14  A    between atoms: C_25  and  C_31
   15  A    between atoms: C_26  and  N_32
   16  A    between atoms: O_27  and  C_33
   17  A    between atoms: O_27  and  C_38
   18  A    between atoms: C_33  and  C_39
                            x       y       z     vdW  Elec       q    Type
                         _______ _______ _______ _____ _____    ______ ____

>  <TORSDO>
F 18

$$$$
