=
 OpenBabel11042412033D

 30 33  0  0  1  0  0  0  0  0999 V2000
  185.4400  178.5930  147.3540 N   0  0  0  0  0  0  0  0  0  0  0  0
  190.2780  177.5990  146.7970 C   0  0  0  0  0  2  0  0  0  0  0  0
  191.5330  176.4170  145.1180 N   0  0  0  0  0  0  0  0  0  0  0  0
  186.3200  178.2170  145.2500 C   0  0  0  0  0  0  0  0  0  0  0  0
  188.7350  177.7020  144.8260 C   0  0  0  0  0  0  0  0  0  0  0  0
  184.5020  178.6940  146.4950 N   0  0  0  0  0  0  0  0  0  0  0  0
  187.3580  177.9300  144.2140 C   0  0  0  0  0  2  0  0  0  0  0  0
  189.7460  177.4320  143.8820 O   0  0  0  0  0  0  0  0  0  0  0  0
  191.0580  176.9380  144.0260 C   0  0  0  0  0  0  0  0  0  0  0  0
  186.6250  178.2930  146.6390 C   0  0  0  0  0  0  0  0  0  0  0  0
  190.8130  176.2560  146.3660 C   0  0  1  0  0  3  0  0  0  0  0  0
  185.0160  178.4670  145.1730 C   0  0  0  0  0  0  0  0  0  0  0  0
  188.9440  177.7950  146.1750 C   0  0  0  0  0  0  0  0  0  0  0  0
  187.8420  178.1030  147.1200 C   0  0  0  0  0  3  0  0  0  0  0  0
  183.9020  178.2670  141.5520 C   0  0  0  0  0  3  0  0  0  0  0  0
  184.7100  178.2120  142.6900 C   0  0  0  0  0  3  0  0  0  0  0  0
  182.0220  178.9370  142.9210 C   0  0  0  0  0  3  0  0  0  0  0  0
  182.8320  178.8820  144.0590 C   0  0  0  0  0  3  0  0  0  0  0  0
  184.1820  178.5180  143.9550 C   0  0  0  0  0  0  0  0  0  0  0  0
  182.5580  178.6300  141.6680 C   0  0  0  0  0  3  0  0  0  0  0  0
  191.7280  175.7000  147.4110 C   0  0  0  0  0  3  0  0  0  0  0  0
  192.4110  176.4360  148.1060 O   0  0  0  0  0  0  0  0  0  0  0  0
  191.9530  177.0090  142.8430 C   0  0  0  0  0  2  0  0  0  0  0  0
  191.3910  177.9200  141.8590 N   0  0  0  0  0  2  0  0  0  0  0  0
  191.5340  177.2870  140.5600 C   0  0  0  0  0  2  0  0  0  0  0  0
  190.1900  176.7540  140.0950 C   0  0  0  0  0  2  0  0  0  0  0  0
  189.0820  177.7370  140.4380 C   0  0  0  0  0  2  0  0  0  0  0  0
  188.3230  178.1640  139.1920 C   0  0  0  0  0  3  0  0  0  0  0  0
  187.0190  178.5140  139.5430 O   0  0  0  0  0  1  0  0  0  0  0  0
  188.9530  179.2610  138.6050 O   0  0  0  0  0  1  0  0  0  0  0  0
  3 11  1  0  0  0  0
  4 10  1  0  0  0  0
  5 13  2  0  0  0  0
  6  1  2  0  0  0  0
  7  5  1  0  0  0  0
  7  4  1  0  0  0  0
  8  9  1  0  0  0  0
  8  5  1  0  0  0  0
  9  3  2  0  0  0  0
 10 14  2  0  0  0  0
 10  1  1  0  0  0  0
 11  2  1  0  0  0  0
 11 21  1  1  0  0  0
 12  4  2  0  0  0  0
 12  6  1  0  0  0  0
 13  2  1  0  0  0  0
 13 14  1  0  0  0  0
 15 20  2  0  0  0  0
 15 16  1  0  0  0  0
 16 19  2  0  0  0  0
 17 18  2  0  0  0  0
 19 18  1  0  0  0  0
 19 12  1  0  0  0  0
 20 17  1  0  0  0  0
 21 22  2  0  0  0  0
 23  9  1  0  0  0  0
 24 23  1  0  0  0  0
 25 24  1  0  0  0  0
 26 27  1  0  0  0  0
 26 25  1  0  0  0  0
 28 29  1  0  0  0  0
 28 27  1  0  0  0  0
 30 28  1  0  0  0  0
M  END
>  <MODEL>
1

>  <REMARK>
 VINA RESULT:      -9.5      0.000      0.000
  Name = 
  8 active torsions:
  status: ('A' for Active; 'I' for Inactive)
    1  A    between atoms: C_6  and  N_15
    2  A    between atoms: C_6  and  C_20
    3  A    between atoms: C_10  and  CA_23
    4  A    between atoms: C_14  and  C_25
    5  A    between atoms: N_15  and  C_19
    6  A    between atoms: C_18  and  C_19
    7  A    between atoms: C_18  and  C_21
    8  A    between atoms: C_21  and  C_24
                            x       y       z     vdW  Elec       q    Type
                         _______ _______ _______ _____ _____    ______ ____

>  <TORSDO>
F 8

$$$$
=
 OpenBabel11042412033D

 30 33  0  0  1  0  0  0  0  0999 V2000
  189.9590  176.6390  144.6040 N   0  0  0  0  0  0  0  0  0  0  0  0
  191.3740  177.1560  139.8670 C   0  0  0  0  0  2  0  0  0  0  0  0
  190.1650  177.2560  137.7900 N   0  0  0  0  0  0  0  0  0  0  0  0
  188.5120  177.5420  143.0450 C   0  0  0  0  0  0  0  0  0  0  0  0
  189.0930  177.8560  140.6280 C   0  0  0  0  0  0  0  0  0  0  0  0
  188.8630  176.9310  145.1870 N   0  0  0  0  0  2  0  0  0  0  0  0
  188.0410  178.0370  141.7160 C   0  0  0  0  0  3  0  0  0  0  0  0
  188.6900  178.3140  139.3570 O   0  0  0  0  0  0  0  0  0  0  0  0
  189.2370  178.1210  138.0730 C   0  0  0  0  0  0  0  0  0  0  0  0
  189.8130  176.9990  143.2430 C   0  0  0  0  0  0  0  0  0  0  0  0
  190.7990  176.3520  138.7290 C   0  0  1  0  0  3  0  0  0  0  0  0
  187.9380  177.4980  144.2440 C   0  0  0  0  0  0  0  0  0  0  0  0
  190.3230  177.3250  140.9020 C   0  0  0  0  0  0  0  0  0  0  0  0
  190.6980  176.8780  142.2670 C   0  0  0  0  0  3  0  0  0  0  0  0
  184.9100  178.5680  146.2640 C   0  0  0  0  0  3  0  0  0  0  0  0
  186.2020  178.1420  145.9450 C   0  0  0  0  0  3  0  0  0  0  0  0
  184.3460  178.6110  143.9100 C   0  0  0  0  0  3  0  0  0  0  0  0
  185.6390  178.1840  143.5930 C   0  0  0  0  0  3  0  0  0  0  0  0
  186.5790  177.9470  144.6060 C   0  0  0  0  0  0  0  0  0  0  0  0
  183.9820  178.8020  145.2460 C   0  0  0  0  0  3  0  0  0  0  0  0
  191.8770  175.5800  138.0380 C   0  0  0  0  0  3  0  0  0  0  0  0
  191.7810  174.3730  137.8740 O   0  0  0  0  0  0  0  0  0  0  0  0
  188.7050  178.9580  136.9670 C   0  0  0  0  0  2  0  0  0  0  0  0
  187.2720  179.1380  137.1360 N   0  0  0  0  0  2  0  0  0  0  0  0
  186.6300  177.9310  136.6450 C   0  0  0  0  0  2  0  0  0  0  0  0
  185.3570  177.6690  137.4320 C   0  0  0  0  0  2  0  0  0  0  0  0
  185.3930  178.4060  138.7610 C   0  0  0  0  0  2  0  0  0  0  0  0
  184.0800  179.1260  139.0250 C   0  0  0  0  0  3  0  0  0  0  0  0
  183.6080  178.7760  140.2890 O   0  0  0  0  0  1  0  0  0  0  0  0
  184.2760  180.5060  138.9700 O   0  0  0  0  0  1  0  0  0  0  0  0
  1  6  1  0  0  0  0
  2 13  1  0  0  0  0
  3  9  2  0  0  0  0
  3 11  1  0  0  0  0
  4 10  1  0  0  0  0
  4 12  2  0  0  0  0
  5 13  1  0  0  0  0
  5  7  2  0  0  0  0
  7  4  1  0  0  0  0
  8  5  1  0  0  0  0
  9  8  1  0  0  0  0
 10  1  2  0  0  0  0
 11 21  1  6  0  0  0
 11  2  1  0  0  0  0
 12 19  1  0  0  0  0
 12  6  1  0  0  0  0
 13 14  2  0  0  0  0
 14 10  1  0  0  0  0
 16 15  1  0  0  0  0
 17 20  1  0  0  0  0
 18 17  2  0  0  0  0
 18 19  1  0  0  0  0
 19 16  2  0  0  0  0
 20 15  2  0  0  0  0
 22 21  2  0  0  0  0
 23 24  1  0  0  0  0
 23  9  1  0  0  0  0
 25 24  1  0  0  0  0
 25 26  1  0  0  0  0
 26 27  1  0  0  0  0
 27 28  1  0  0  0  0
 28 29  1  0  0  0  0
 30 28  1  0  0  0  0
M  END
>  <MODEL>
2

>  <REMARK>
 VINA RESULT:      -8.9      2.994      5.525
  Name = 
  8 active torsions:
  status: ('A' for Active; 'I' for Inactive)
    1  A    between atoms: C_6  and  N_15
    2  A    between atoms: C_6  and  C_20
    3  A    between atoms: C_10  and  CA_23
    4  A    between atoms: C_14  and  C_25
    5  A    between atoms: N_15  and  C_19
    6  A    between atoms: C_18  and  C_19
    7  A    between atoms: C_18  and  C_21
    8  A    between atoms: C_21  and  C_24
                            x       y       z     vdW  Elec       q    Type
                         _______ _______ _______ _____ _____    ______ ____

>  <TORSDO>
F 8

$$$$
=
 OpenBabel11042412033D

 30 33  0  0  1  0  0  0  0  0999 V2000
  183.3740  178.8600  145.4770 N   0  0  0  0  0  0  0  0  0  0  0  0
  183.1280  178.7900  140.5130 C   0  0  0  0  0  2  0  0  0  0  0  0
  184.7420  179.2080  138.7790 N   0  0  0  0  0  0  0  0  0  0  0  0
  185.2720  178.4640  144.2190 C   0  0  0  0  0  0  0  0  0  0  0  0
  185.2910  178.4050  141.7140 C   0  0  0  0  0  0  0  0  0  0  0  0
  184.3590  178.6870  146.2680 N   0  0  0  0  0  2  0  0  0  0  0  0
  186.1040  178.2580  142.9950 C   0  0  0  0  0  3  0  0  0  0  0  0
  186.0390  178.2140  140.5350 O   0  0  0  0  0  0  0  0  0  0  0  0
  185.7480  178.4910  139.1840 C   0  0  0  0  0  0  0  0  0  0  0  0
  183.8750  178.7330  144.1590 C   0  0  0  0  0  0  0  0  0  0  0  0
  183.7520  179.8400  139.6290 C   0  0  1  0  0  3  0  0  0  0  0  0
  185.5580  178.4360  145.5180 C   0  0  0  0  0  0  0  0  0  0  0  0
  183.9480  178.6630  141.7440 C   0  0  0  0  0  0  0  0  0  0  0  0
  183.2100  178.8340  143.0200 C   0  0  0  0  0  3  0  0  0  0  0  0
  189.2190  177.5640  145.9930 C   0  0  0  0  0  3  0  0  0  0  0  0
  187.9850  177.7920  145.3810 C   0  0  0  0  0  3  0  0  0  0  0  0
  188.2550  178.1220  148.1420 C   0  0  0  0  0  3  0  0  0  0  0  0
  187.0200  178.3500  147.5270 C   0  0  0  0  0  3  0  0  0  0  0  0
  186.8730  178.1880  146.1420 C   0  0  0  0  0  0  0  0  0  0  0  0
  189.3540  177.7290  147.3740 C   0  0  0  0  0  3  0  0  0  0  0  0
  182.7080  180.5000  138.7850 C   0  0  0  0  0  3  0  0  0  0  0  0
  181.9850  179.8440  138.0510 O   0  0  0  0  0  0  0  0  0  0  0  0
  186.6620  177.9300  138.1550 C   0  0  0  0  0  2  0  0  0  0  0  0
  188.0240  178.3550  138.4300 N   0  0  0  0  0  2  0  0  0  0  0  0
  188.8000  177.1570  138.6950 C   0  0  0  0  0  2  0  0  0  0  0  0
  189.8990  177.4660  139.6970 C   0  0  0  0  0  2  0  0  0  0  0  0
  189.3200  177.5960  141.0960 C   0  0  0  0  0  2  0  0  0  0  0  0
  190.3280  177.1610  142.1490 C   0  0  0  0  0  3  0  0  0  0  0  0
  190.2770  175.7740  142.2910 O   0  0  0  0  0  1  0  0  0  0  0  0
  191.6130  177.5380  141.7610 O   0  0  0  0  0  1  0  0  0  0  0  0
  1  6  1  0  0  0  0
  2 13  1  0  0  0  0
  3  9  2  0  0  0  0
  3 11  1  0  0  0  0
  4 12  2  0  0  0  0
  5 13  1  0  0  0  0
  5  7  2  0  0  0  0
  7  4  1  0  0  0  0
  8  5  1  0  0  0  0
  9  8  1  0  0  0  0
 10  4  1  0  0  0  0
 10  1  2  0  0  0  0
 11 21  1  6  0  0  0
 11  2  1  0  0  0  0
 12 19  1  0  0  0  0
 12  6  1  0  0  0  0
 13 14  2  0  0  0  0
 14 10  1  0  0  0  0
 15 20  1  0  0  0  0
 16 15  2  0  0  0  0
 16 19  1  0  0  0  0
 18 17  1  0  0  0  0
 19 18  2  0  0  0  0
 20 17  2  0  0  0  0
 22 21  2  0  0  0  0
 23 24  1  0  0  0  0
 23  9  1  0  0  0  0
 24 25  1  0  0  0  0
 25 26  1  0  0  0  0
 26 27  1  0  0  0  0
 27 28  1  0  0  0  0
 28 29  1  0  0  0  0
 30 28  1  0  0  0  0
M  END
>  <MODEL>
3

>  <REMARK>
 VINA RESULT:      -8.8      2.472      6.604
  Name = 
  8 active torsions:
  status: ('A' for Active; 'I' for Inactive)
    1  A    between atoms: C_6  and  N_15
    2  A    between atoms: C_6  and  C_20
    3  A    between atoms: C_10  and  CA_23
    4  A    between atoms: C_14  and  C_25
    5  A    between atoms: N_15  and  C_19
    6  A    between atoms: C_18  and  C_19
    7  A    between atoms: C_18  and  C_21
    8  A    between atoms: C_21  and  C_24
                            x       y       z     vdW  Elec       q    Type
                         _______ _______ _______ _____ _____    ______ ____

>  <TORSDO>
F 8

$$$$
=
 OpenBabel11042412033D

 30 33  0  0  1  0  0  0  0  0999 V2000
  191.6840  177.0670  144.1490 N   0  0  0  0  0  0  0  0  0  0  0  0
  190.9620  177.0610  139.2310 C   0  0  0  0  0  2  0  0  0  0  0  0
  189.0450  176.6100  137.8490 N   0  0  0  0  0  0  0  0  0  0  0  0
  189.5760  177.4360  143.2780 C   0  0  0  0  0  0  0  0  0  0  0  0
  189.0700  177.4560  140.8240 C   0  0  0  0  0  0  0  0  0  0  0  0
  190.8700  177.2490  145.1140 N   0  0  0  0  0  2  0  0  0  0  0  0
  188.5200  177.6200  142.2360 C   0  0  0  0  0  3  0  0  0  0  0  0
  188.1070  177.6260  139.8090 O   0  0  0  0  0  0  0  0  0  0  0  0
  188.1330  177.3300  138.4310 C   0  0  0  0  0  0  0  0  0  0  0  0
  190.9360  177.1720  142.9520 C   0  0  0  0  0  0  0  0  0  0  0  0
  190.1860  175.9960  138.5000 C   0  0  1  0  0  3  0  0  0  0  0  0
  189.5460  177.4830  144.6070 C   0  0  0  0  0  0  0  0  0  0  0  0
  190.3950  177.2040  140.5960 C   0  0  0  0  0  0  0  0  0  0  0  0
  191.3680  177.0550  141.7070 C   0  0  0  0  0  3  0  0  0  0  0  0
  185.9870  178.0800  145.7760 C   0  0  0  0  0  3  0  0  0  0  0  0
  187.0800  177.8420  144.9390 C   0  0  0  0  0  3  0  0  0  0  0  0
  187.4650  178.1110  147.6930 C   0  0  0  0  0  3  0  0  0  0  0  0
  188.5570  177.8730  146.8540 C   0  0  0  0  0  3  0  0  0  0  0  0
  188.3750  177.7350  145.4710 C   0  0  0  0  0  0  0  0  0  0  0  0
  186.1800  178.2150  147.1540 C   0  0  0  0  0  3  0  0  0  0  0  0
  191.0510  175.3270  137.4790 C   0  0  0  0  0  3  0  0  0  0  0  0
  191.4680  174.1920  137.6540 O   0  0  0  0  0  0  0  0  0  0  0  0
  187.0330  177.8700  137.5920 C   0  0  0  0  0  2  0  0  0  0  0  0
  186.2310  178.7960  138.3740 N   0  0  0  0  0  2  0  0  0  0  0  0
  184.8780  178.2700  138.4050 C   0  0  0  0  0  2  0  0  0  0  0  0
  184.0490  179.0380  139.4190 C   0  0  0  0  0  2  0  0  0  0  0  0
  183.7260  178.1590  140.6160 C   0  0  0  0  0  2  0  0  0  0  0  0
  184.7470  178.3500  141.7270 C   0  0  0  0  0  3  0  0  0  0  0  0
  185.3500  179.6000  141.5910 O   0  0  0  0  0  1  0  0  0  0  0  0
  184.1170  178.2740  142.9690 O   0  0  0  0  0  1  0  0  0  0  0  0
  1  6  1  0  0  0  0
  2 13  1  0  0  0  0
  3  9  2  0  0  0  0
  3 11  1  0  0  0  0
  4 12  2  0  0  0  0
  5  7  2  0  0  0  0
  7  4  1  0  0  0  0
  8  5  1  0  0  0  0
  9  8  1  0  0  0  0
 10  4  1  0  0  0  0
 10  1  2  0  0  0  0
 11 21  1  6  0  0  0
 11  2  1  0  0  0  0
 12  6  1  0  0  0  0
 12 19  1  0  0  0  0
 13  5  1  0  0  0  0
 13 14  2  0  0  0  0
 14 10  1  0  0  0  0
 15 20  1  0  0  0  0
 16 19  1  0  0  0  0
 16 15  2  0  0  0  0
 18 17  1  0  0  0  0
 19 18  2  0  0  0  0
 20 17  2  0  0  0  0
 21 22  2  0  0  0  0
 23 24  1  0  0  0  0
 23  9  1  0  0  0  0
 24 25  1  0  0  0  0
 25 26  1  0  0  0  0
 26 27  1  0  0  0  0
 27 28  1  0  0  0  0
 28 30  1  0  0  0  0
 29 28  1  0  0  0  0
M  END
>  <MODEL>
4

>  <REMARK>
 VINA RESULT:      -8.5      2.975      6.309
  Name = 
  8 active torsions:
  status: ('A' for Active; 'I' for Inactive)
    1  A    between atoms: C_6  and  N_15
    2  A    between atoms: C_6  and  C_20
    3  A    between atoms: C_10  and  CA_23
    4  A    between atoms: C_14  and  C_25
    5  A    between atoms: N_15  and  C_19
    6  A    between atoms: C_18  and  C_19
    7  A    between atoms: C_18  and  C_21
    8  A    between atoms: C_21  and  C_24
                            x       y       z     vdW  Elec       q    Type
                         _______ _______ _______ _____ _____    ______ ____

>  <TORSDO>
F 8

$$$$
=
 OpenBabel11042412033D

 30 33  0  0  1  0  0  0  0  0999 V2000
  185.7790  178.4670  146.5720 N   0  0  0  0  0  0  0  0  0  0  0  0
  190.1350  177.5730  144.3510 C   0  0  0  0  0  2  0  0  0  0  0  0
  190.7370  176.5340  142.2660 N   0  0  0  0  0  0  0  0  0  0  0  0
  185.8970  178.2590  144.2730 C   0  0  0  0  0  0  0  0  0  0  0  0
  188.0220  177.8050  143.0260 C   0  0  0  0  0  0  0  0  0  0  0  0
  184.6090  178.6200  146.0880 N   0  0  0  0  0  2  0  0  0  0  0  0
  186.5230  178.0620  142.9310 C   0  0  0  0  0  3  0  0  0  0  0  0
  188.6530  177.6170  141.7800 O   0  0  0  0  0  0  0  0  0  0  0  0
  189.9300  177.1290  141.4390 C   0  0  0  0  0  0  0  0  0  0  0  0
  186.6510  178.2350  145.4810 C   0  0  0  0  0  0  0  0  0  0  0  0
  190.4760  176.2720  143.6680 C   0  0  1  0  0  3  0  0  0  0  0  0
  184.6460  178.4980  144.6570 C   0  0  0  0  0  0  0  0  0  0  0  0
  188.6730  177.8000  144.2290 C   0  0  0  0  0  0  0  0  0  0  0  0
  187.9570  178.0230  145.5100 C   0  0  0  0  0  3  0  0  0  0  0  0
  181.0650  178.9940  143.5060 C   0  0  0  0  0  3  0  0  0  0  0  0
  182.1800  178.8720  144.3400 C   0  0  0  0  0  3  0  0  0  0  0  0
  182.4750  178.6340  141.5720 C   0  0  0  0  0  3  0  0  0  0  0  0
  183.5890  178.5120  142.4070 C   0  0  0  0  0  3  0  0  0  0  0  0
  183.4530  178.6300  143.7970 C   0  0  0  0  0  0  0  0  0  0  0  0
  181.2130  178.8750  142.1220 C   0  0  0  0  0  3  0  0  0  0  0  0
  191.6800  175.6510  144.3000 C   0  0  0  0  0  3  0  0  0  0  0  0
  192.0230  175.9530  145.4330 O   0  0  0  0  0  0  0  0  0  0  0  0
  190.3770  177.2980  140.0320 C   0  0  0  0  0  2  0  0  0  0  0  0
  190.7150  176.0020  139.4670 N   0  0  0  0  0  2  0  0  0  0  0  0
  190.3320  176.0340  138.0660 C   0  0  0  0  0  2  0  0  0  0  0  0
  189.8660  177.4300  137.6910 C   0  0  0  0  0  2  0  0  0  0  0  0
  188.5750  177.3610  136.8910 C   0  0  0  0  0  2  0  0  0  0  0  0
  187.8610  178.7030  136.8880 C   0  0  0  0  0  3  0  0  0  0  0  0
  186.7320  178.6280  137.7030 O   0  0  0  0  0  1  0  0  0  0  0  0
  188.7130  179.6960  137.3700 O   0  0  0  0  0  1  0  0  0  0  0  0
  3 11  1  0  0  0  0
  4 12  2  0  0  0  0
  4 10  1  0  0  0  0
  5 13  1  0  0  0  0
  6  1  1  0  0  0  0
  7  5  2  0  0  0  0
  7  4  1  0  0  0  0
  8  5  1  0  0  0  0
  9  8  1  0  0  0  0
  9  3  2  0  0  0  0
 10 14  1  0  0  0  0
 10  1  2  0  0  0  0
 11 21  1  1  0  0  0
 11  2  1  0  0  0  0
 12  6  1  0  0  0  0
 13  2  1  0  0  0  0
 13 14  2  0  0  0  0
 15 16  1  0  0  0  0
 17 20  1  0  0  0  0
 17 18  2  0  0  0  0
 18 19  1  0  0  0  0
 19 16  2  0  0  0  0
 19 12  1  0  0  0  0
 20 15  2  0  0  0  0
 21 22  2  0  0  0  0
 23  9  1  0  0  0  0
 24 23  1  0  0  0  0
 25 24  1  0  0  0  0
 26 25  1  0  0  0  0
 27 26  1  0  0  0  0
 28 27  1  0  0  0  0
 28 30  1  0  0  0  0
 28 29  1  0  0  0  0
M  END
>  <MODEL>
5

>  <REMARK>
 VINA RESULT:      -8.4      1.612      2.306
  Name = 
  8 active torsions:
  status: ('A' for Active; 'I' for Inactive)
    1  A    between atoms: C_6  and  N_15
    2  A    between atoms: C_6  and  C_20
    3  A    between atoms: C_10  and  CA_23
    4  A    between atoms: C_14  and  C_25
    5  A    between atoms: N_15  and  C_19
    6  A    between atoms: C_18  and  C_19
    7  A    between atoms: C_18  and  C_21
    8  A    between atoms: C_21  and  C_24
                            x       y       z     vdW  Elec       q    Type
                         _______ _______ _______ _____ _____    ______ ____

>  <TORSDO>
F 8

$$$$
=
 OpenBabel11042412033D

 30 33  0  0  1  0  0  0  0  0999 V2000
  191.9660  177.0250  142.6500 N   0  0  0  0  0  0  0  0  0  0  0  0
  189.4220  177.9030  138.4710 C   0  0  0  0  0  2  0  0  0  0  0  0
  187.1020  177.6740  137.8770 N   0  0  0  0  0  0  0  0  0  0  0  0
  189.7070  177.5060  142.7370 C   0  0  0  0  0  0  0  0  0  0  0  0
  188.3050  177.9640  140.7110 C   0  0  0  0  0  0  0  0  0  0  0  0
  191.5930  177.0120  143.8690 N   0  0  0  0  0  2  0  0  0  0  0  0
  188.3450  177.8560  142.2310 C   0  0  0  0  0  3  0  0  0  0  0  0
  187.0370  178.2970  140.1920 O   0  0  0  0  0  0  0  0  0  0  0  0
  186.5200  178.2580  138.8820 C   0  0  0  0  0  0  0  0  0  0  0  0
  190.8240  177.3320  141.8710 C   0  0  0  0  0  0  0  0  0  0  0  0
  188.3700  176.9740  137.9200 C   0  0  1  0  0  3  0  0  0  0  0  0
  190.1900  177.3090  143.9600 C   0  0  0  0  0  0  0  0  0  0  0  0
  189.4270  177.7830  139.9500 C   0  0  0  0  0  0  0  0  0  0  0  0
  190.7410  177.4530  140.5570 C   0  0  0  0  0  3  0  0  0  0  0  0
  189.3720  177.2080  147.6630 C   0  0  0  0  0  3  0  0  0  0  0  0
  190.0900  177.1390  146.4670 C   0  0  0  0  0  3  0  0  0  0  0  0
  187.3660  177.7560  146.4260 C   0  0  0  0  0  3  0  0  0  0  0  0
  188.0850  177.6850  145.2290 C   0  0  0  0  0  3  0  0  0  0  0  0
  189.4530  177.3770  145.2380 C   0  0  0  0  0  0  0  0  0  0  0  0
  188.0100  177.5170  147.6420 C   0  0  0  0  0  3  0  0  0  0  0  0
  188.7440  176.5190  136.5440 C   0  0  0  0  0  3  0  0  0  0  0  0
  188.9640  177.3250  135.6530 O   0  0  0  0  0  0  0  0  0  0  0  0
  185.2130  178.9210  138.6400 C   0  0  0  0  0  2  0  0  0  0  0  0
  184.7520  179.5550  139.8640 N   0  0  0  0  0  2  0  0  0  0  0  0
  183.4640  178.9690  140.1900 C   0  0  0  0  0  2  0  0  0  0  0  0
  183.5510  178.2380  141.5190 C   0  0  0  0  0  2  0  0  0  0  0  0
  184.6110  178.8730  142.4040 C   0  0  0  0  0  2  0  0  0  0  0  0
  184.3190  178.6220  143.8750 C   0  0  0  0  0  3  0  0  0  0  0  0
  184.9480  179.6000  144.6450 O   0  0  0  0  0  1  0  0  0  0  0  0
  182.9430  178.6710  144.1010 O   0  0  0  0  0  1  0  0  0  0  0  0
  1  6  1  0  0  0  0
  2 13  1  0  0  0  0
  3 11  1  0  0  0  0
  3  9  2  0  0  0  0
  4 12  2  0  0  0  0
  5  7  2  0  0  0  0
  6 12  1  0  0  0  0
  7  4  1  0  0  0  0
  8  5  1  0  0  0  0
  9  8  1  0  0  0  0
 10  1  2  0  0  0  0
 10  4  1  0  0  0  0
 11 21  1  6  0  0  0
 11  2  1  0  0  0  0
 12 19  1  0  0  0  0
 13 14  2  0  0  0  0
 13  5  1  0  0  0  0
 14 10  1  0  0  0  0
 16 15  2  0  0  0  0
 17 20  2  0  0  0  0
 18 19  2  0  0  0  0
 18 17  1  0  0  0  0
 19 16  1  0  0  0  0
 20 15  1  0  0  0  0
 22 21  2  0  0  0  0
 23  9  1  0  0  0  0
 23 24  1  0  0  0  0
 24 25  1  0  0  0  0
 25 26  1  0  0  0  0
 26 27  1  0  0  0  0
 27 28  1  0  0  0  0
 28 30  1  0  0  0  0
 28 29  1  0  0  0  0
M  END
>  <MODEL>
6

>  <REMARK>
 VINA RESULT:      -8.4      2.835      7.291
  Name = 
  8 active torsions:
  status: ('A' for Active; 'I' for Inactive)
    1  A    between atoms: C_6  and  N_15
    2  A    between atoms: C_6  and  C_20
    3  A    between atoms: C_10  and  CA_23
    4  A    between atoms: C_14  and  C_25
    5  A    between atoms: N_15  and  C_19
    6  A    between atoms: C_18  and  C_19
    7  A    between atoms: C_18  and  C_21
    8  A    between atoms: C_21  and  C_24
                            x       y       z     vdW  Elec       q    Type
                         _______ _______ _______ _____ _____    ______ ____

>  <TORSDO>
F 8

$$$$
=
 OpenBabel11042412033D

 30 33  0  0  1  0  0  0  0  0999 V2000
  185.1040  178.7410  146.8560 N   0  0  0  0  0  0  0  0  0  0  0  0
  189.9440  177.7750  146.2630 C   0  0  0  0  0  2  0  0  0  0  0  0
  191.1900  176.5750  144.5920 N   0  0  0  0  0  0  0  0  0  0  0  0
  185.9650  178.3360  144.7500 C   0  0  0  0  0  0  0  0  0  0  0  0
  188.3790  177.8330  144.3090 C   0  0  0  0  0  0  0  0  0  0  0  0
  184.1560  178.8190  146.0070 N   0  0  0  0  0  0  0  0  0  0  0  0
  186.9940  178.0390  143.7080 C   0  0  0  0  0  2  0  0  0  0  0  0
  189.3820  177.5550  143.3580 O   0  0  0  0  0  0  0  0  0  0  0  0
  190.6990  177.0730  143.4960 C   0  0  0  0  0  0  0  0  0  0  0  0
  186.2830  178.4380  146.1340 C   0  0  0  0  0  0  0  0  0  0  0  0
  190.4850  176.4300  145.8500 C   0  0  1  0  0  3  0  0  0  0  0  0
  184.6580  178.5730  144.6830 C   0  0  0  0  0  0  0  0  0  0  0  0
  188.6020  177.9510  145.6530 C   0  0  0  0  0  0  0  0  0  0  0  0
  187.5070  178.2660  146.6050 C   0  0  0  0  0  3  0  0  0  0  0  0
  181.6920  179.0410  142.3640 C   0  0  0  0  0  3  0  0  0  0  0  0
  182.4740  179.0270  143.5210 C   0  0  0  0  0  3  0  0  0  0  0  0
  183.5670  178.1960  141.0880 C   0  0  0  0  0  3  0  0  0  0  0  0
  184.3480  178.1820  142.2470 C   0  0  0  0  0  3  0  0  0  0  0  0
  183.8100  178.5970  143.4730 C   0  0  0  0  0  0  0  0  0  0  0  0
  182.2390  178.6260  141.1470 C   0  0  0  0  0  3  0  0  0  0  0  0
  191.4160  175.8990  146.8940 C   0  0  0  0  0  3  0  0  0  0  0  0
  192.1740  176.6420  147.4980 O   0  0  0  0  0  0  0  0  0  0  0  0
  191.5810  177.1320  142.3020 C   0  0  0  0  0  2  0  0  0  0  0  0
  190.8150  177.5780  141.1510 N   0  0  0  0  0  2  0  0  0  0  0  0
  190.5990  176.4170  140.3050 C   0  0  0  0  0  2  0  0  0  0  0  0
  190.9060  176.7680  138.8600 C   0  0  0  0  0  2  0  0  0  0  0  0
  191.8050  175.7120  138.2370 C   0  0  0  0  0  2  0  0  0  0  0  0
  193.1270  176.3150  137.7860 C   0  0  0  0  0  3  0  0  0  0  0  0
  193.6990  177.0190  138.8460 O   0  0  0  0  0  1  0  0  0  0  0  0
  193.9970  175.3020  137.3820 O   0  0  0  0  0  1  0  0  0  0  0  0
  3 11  1  0  0  0  0
  4 10  1  0  0  0  0
  5 13  2  0  0  0  0
  6  1  2  0  0  0  0
  7  5  1  0  0  0  0
  7  4  1  0  0  0  0
  8  9  1  0  0  0  0
  8  5  1  0  0  0  0
  9  3  2  0  0  0  0
 10 14  2  0  0  0  0
 10  1  1  0  0  0  0
 11  2  1  0  0  0  0
 11 21  1  1  0  0  0
 12  4  2  0  0  0  0
 12  6  1  0  0  0  0
 13  2  1  0  0  0  0
 13 14  1  0  0  0  0
 15 16  1  0  0  0  0
 17 20  1  0  0  0  0
 17 18  2  0  0  0  0
 18 19  1  0  0  0  0
 19 16  2  0  0  0  0
 19 12  1  0  0  0  0
 20 15  2  0  0  0  0
 21 22  2  0  0  0  0
 23  9  1  0  0  0  0
 24 23  1  0  0  0  0
 25 24  1  0  0  0  0
 26 25  1  0  0  0  0
 27 26  1  0  0  0  0
 28 27  1  0  0  0  0
 28 29  1  0  0  0  0
 30 28  1  0  0  0  0
M  END
>  <MODEL>
7

>  <REMARK>
 VINA RESULT:      -8.2      1.836      2.395
  Name = 
  8 active torsions:
  status: ('A' for Active; 'I' for Inactive)
    1  A    between atoms: C_6  and  N_15
    2  A    between atoms: C_6  and  C_20
    3  A    between atoms: C_10  and  CA_23
    4  A    between atoms: C_14  and  C_25
    5  A    between atoms: N_15  and  C_19
    6  A    between atoms: C_18  and  C_19
    7  A    between atoms: C_18  and  C_21
    8  A    between atoms: C_21  and  C_24
                            x       y       z     vdW  Elec       q    Type
                         _______ _______ _______ _____ _____    ______ ____

>  <TORSDO>
F 8

$$$$
=
 OpenBabel11042412033D

 30 33  0  0  1  0  0  0  0  0999 V2000
  186.1730  178.7270  138.9960 N   0  0  0  0  0  0  0  0  0  0  0  0
  190.6750  176.9540  140.1330 C   0  0  0  0  0  2  0  0  0  0  0  0
  192.0270  177.0460  142.1210 N   0  0  0  0  0  0  0  0  0  0  0  0
  186.7300  178.2760  141.1930 C   0  0  0  0  0  0  0  0  0  0  0  0
  188.9610  177.3850  141.9060 C   0  0  0  0  0  0  0  0  0  0  0  0
  185.1730  179.0070  139.7360 N   0  0  0  0  0  0  0  0  0  0  0  0
  187.5680  177.8230  142.3450 C   0  0  0  0  0  3  0  0  0  0  0  0
  189.7830  176.9460  142.9630 O   0  0  0  0  0  0  0  0  0  0  0  0
  191.1690  176.6970  143.0330 C   0  0  0  0  0  0  0  0  0  0  0  0
  187.2000  178.2560  139.8490 C   0  0  1  0  0  3  0  0  0  0  0  0
  191.7190  177.7390  140.8860 C   0  0  1  0  0  3  0  0  0  0  0  0
  185.4850  178.7370  141.1120 C   0  0  0  0  0  0  0  0  0  0  0  0
  189.3340  177.3940  140.5900 C   0  0  0  0  0  0  0  0  0  0  0  0
  188.4140  177.8500  139.5180 C   0  0  0  0  0  3  0  0  0  0  0  0
  184.0420  179.6030  144.5120 C   0  0  0  0  0  3  0  0  0  0  0  0
  184.9610  179.4070  143.4780 C   0  0  0  0  0  3  0  0  0  0  0  0
  182.2490  178.8900  143.0510 C   0  0  0  0  0  3  0  0  0  0  0  0
  183.1700  178.6940  142.0170 C   0  0  0  0  0  3  0  0  0  0  0  0
  184.5330  178.9510  142.2210 C   0  0  0  0  0  0  0  0  0  0  0  0
  182.6850  179.3440  144.2980 C   0  0  0  0  0  3  0  0  0  0  0  0
  192.9600  177.8810  140.0620 C   0  0  0  0  0  3  0  0  0  0  0  0
  193.8970  177.1090  140.1980 O   0  0  0  0  0  0  0  0  0  0  0  0
  191.6810  175.9960  144.2390 C   0  0  0  0  0  2  0  0  0  0  0  0
  191.7930  176.9380  145.3400 N   0  0  0  0  0  2  0  0  0  0  0  0
  191.6300  176.1800  146.5680 C   0  0  0  0  0  2  0  0  0  0  0  0
  190.4350  176.7060  147.3440 C   0  0  0  0  0  2  0  0  0  0  0  0
  189.5210  177.5060  146.4310 C   0  0  0  0  0  2  0  0  0  0  0  0
  188.0580  177.2420  146.7520 C   0  0  0  0  0  3  0  0  0  0  0  0
  187.8910  177.1920  148.1360 O   0  0  0  0  0  1  0  0  0  0  0  0
  187.2650  178.2620  146.2280 O   0  0  0  0  0  1  0  0  0  0  0  0
  1  6  2  0  0  0  0
  1 10  1  0  0  0  0
  2 13  1  0  0  0  0
  2 11  1  0  0  0  0
  3  9  2  0  0  0  0
  4  7  1  0  0  0  0
  5  7  2  0  0  0  0
  5  8  1  0  0  0  0
  6 12  1  0  0  0  0
  8  9  1  0  0  0  0
  9 23  1  0  0  0  0
 10 14  1  6  0  0  0
 10  4  1  0  0  0  0
 11 21  1  6  0  0  0
 11  3  1  0  0  0  0
 12  4  2  0  0  0  0
 12 19  1  0  0  0  0
 13  5  1  0  0  0  0
 14 13  2  0  0  0  0
 16 15  2  0  0  0  0
 17 20  2  0  0  0  0
 18 19  2  0  0  0  0
 18 17  1  0  0  0  0
 19 16  1  0  0  0  0
 20 15  1  0  0  0  0
 21 22  2  0  0  0  0
 23 24  1  0  0  0  0
 24 25  1  0  0  0  0
 25 26  1  0  0  0  0
 27 28  1  0  0  0  0
 27 26  1  0  0  0  0
 28 29  1  0  0  0  0
 30 28  1  0  0  0  0
M  END
>  <MODEL>
8

>  <REMARK>
 VINA RESULT:      -8.1      2.540      5.417
  Name = 
  8 active torsions:
  status: ('A' for Active; 'I' for Inactive)
    1  A    between atoms: C_6  and  N_15
    2  A    between atoms: C_6  and  C_20
    3  A    between atoms: C_10  and  CA_23
    4  A    between atoms: C_14  and  C_25
    5  A    between atoms: N_15  and  C_19
    6  A    between atoms: C_18  and  C_19
    7  A    between atoms: C_18  and  C_21
    8  A    between atoms: C_21  and  C_24
                            x       y       z     vdW  Elec       q    Type
                         _______ _______ _______ _____ _____    ______ ____

>  <TORSDO>
F 8

$$$$
=
 OpenBabel11042412033D

 30 33  0  0  1  0  0  0  0  0999 V2000
  183.4760  179.0140  145.7630 N   0  0  0  0  0  0  0  0  0  0  0  0
  181.6900  178.8320  141.1280 C   0  0  0  0  0  2  0  0  0  0  0  0
  182.7210  178.9900  138.9600 N   0  0  0  0  0  0  0  0  0  0  0  0
  184.8300  178.3420  144.0160 C   0  0  0  0  0  0  0  0  0  0  0  0
  184.0630  178.2090  141.6340 C   0  0  0  0  0  0  0  0  0  0  0  0
  184.6320  178.7390  146.2260 N   0  0  0  0  0  2  0  0  0  0  0  0
  185.2120  177.9970  142.6130 C   0  0  0  0  0  3  0  0  0  0  0  0
  184.3800  177.8910  140.2980 O   0  0  0  0  0  0  0  0  0  0  0  0
  183.7150  178.1630  139.0860 C   0  0  0  0  0  0  0  0  0  0  0  0
  183.5240  178.7850  144.3670 C   0  0  0  0  0  0  0  0  0  0  0  0
  182.1220  179.7670  140.0270 C   0  0  1  0  0  3  0  0  0  0  0  0
  185.5010  178.3160  145.1640 C   0  0  0  0  0  0  0  0  0  0  0  0
  182.8330  178.6370  142.0550 C   0  0  0  0  0  0  0  0  0  0  0  0
  182.5530  178.9380  143.4810 C   0  0  0  0  0  3  0  0  0  0  0  0
  188.8060  177.4820  146.8300 C   0  0  0  0  0  3  0  0  0  0  0  0
  187.4720  177.8580  146.6570 C   0  0  0  0  0  3  0  0  0  0  0  0
  189.0410  177.2240  144.4350 C   0  0  0  0  0  3  0  0  0  0  0  0
  187.7060  177.6010  144.2640 C   0  0  0  0  0  3  0  0  0  0  0  0
  186.9100  177.9210  145.3720 C   0  0  0  0  0  0  0  0  0  0  0  0
  189.5910  177.1650  145.7180 C   0  0  0  0  0  3  0  0  0  0  0  0
  180.9480  180.5300  139.5000 C   0  0  0  0  0  3  0  0  0  0  0  0
  180.1710  181.0920  140.2580 O   0  0  0  0  0  0  0  0  0  0  0  0
  184.1950  177.4610  137.8670 C   0  0  0  0  0  2  0  0  0  0  0  0
  185.6160  177.1830  137.9920 N   0  0  0  0  0  2  0  0  0  0  0  0
  186.2980  177.9850  136.9910 C   0  0  0  0  0  2  0  0  0  0  0  0
  187.7720  177.6200  136.9550 C   0  0  0  0  0  2  0  0  0  0  0  0
  188.2320  177.1350  138.3200 C   0  0  0  0  0  2  0  0  0  0  0  0
  188.8700  178.2630  139.1150 C   0  0  0  0  0  3  0  0  0  0  0  0
  189.0500  179.3690  138.2850 O   0  0  0  0  0  1  0  0  0  0  0  0
  188.0460  178.6170  140.1830 O   0  0  0  0  0  1  0  0  0  0  0  0
  1  6  1  0  0  0  0
  2 13  1  0  0  0  0
  3  9  2  0  0  0  0
  3 11  1  0  0  0  0
  4 10  1  0  0  0  0
  4 12  2  0  0  0  0
  5 13  1  0  0  0  0
  5  7  2  0  0  0  0
  7  4  1  0  0  0  0
  8  5  1  0  0  0  0
  9  8  1  0  0  0  0
 10  1  2  0  0  0  0
 11 21  1  6  0  0  0
 11  2  1  0  0  0  0
 12 19  1  0  0  0  0
 12  6  1  0  0  0  0
 13 14  2  0  0  0  0
 14 10  1  0  0  0  0
 16 15  1  0  0  0  0
 17 20  1  0  0  0  0
 18 17  2  0  0  0  0
 18 19  1  0  0  0  0
 19 16  2  0  0  0  0
 20 15  2  0  0  0  0
 21 22  2  0  0  0  0
 23 24  1  0  0  0  0
 23  9  1  0  0  0  0
 25 24  1  0  0  0  0
 26 25  1  0  0  0  0
 26 27  1  0  0  0  0
 27 28  1  0  0  0  0
 28 30  1  0  0  0  0
 29 28  1  0  0  0  0
M  END
>  <MODEL>
9

>  <REMARK>
 VINA RESULT:      -8.0      2.964      7.112
  Name = 
  8 active torsions:
  status: ('A' for Active; 'I' for Inactive)
    1  A    between atoms: C_6  and  N_15
    2  A    between atoms: C_6  and  C_20
    3  A    between atoms: C_10  and  CA_23
    4  A    between atoms: C_14  and  C_25
    5  A    between atoms: N_15  and  C_19
    6  A    between atoms: C_18  and  C_19
    7  A    between atoms: C_18  and  C_21
    8  A    between atoms: C_21  and  C_24
                            x       y       z     vdW  Elec       q    Type
                         _______ _______ _______ _____ _____    ______ ____

>  <TORSDO>
F 8

$$$$
