=
 OpenBabel11042409483D

 33 37  0  0  1  0  0  0  0  0999 V2000
  188.1260  178.1540  139.8930 N   0  0  0  0  0  0  0  0  0  0  0  0
  189.1160  178.5890  141.9620 C   0  0  0  0  0  3  0  0  0  0  0  0
  189.1720  176.9340  145.2490 C   0  0  0  0  0  3  0  0  0  0  0  0
  187.9170  178.3210  141.1640 C   0  0  0  0  0  0  0  0  0  0  0  0
  190.4580  177.2180  145.5820 N   0  0  0  0  0  0  0  0  0  0  0  0
  190.7260  178.5100  143.6030 C   0  0  0  0  0  3  0  0  0  0  0  0
  187.2880  177.2320  143.9530 C   0  0  0  0  0  3  0  0  0  0  0  0
  185.4240  178.8900  141.1160 C   0  0  0  0  0  3  0  0  0  0  0  0
  187.2190  177.8420  138.8220 C   0  0  0  0  0  0  0  0  0  0  0  0
  186.5750  178.2550  141.7590 C   0  0  0  0  0  0  0  0  0  0  0  0
  185.1590  178.9590  139.8110 C   0  0  0  0  0  0  0  0  0  0  0  0
  189.4170  178.2160  143.2070 C   0  0  0  0  0  0  0  0  0  0  0  0
  188.6000  177.4410  144.0750 C   0  0  0  0  0  0  0  0  0  0  0  0
  185.9420  178.2380  138.7950 C   0  0  0  0  0  3  0  0  0  0  0  0
  186.3370  177.7610  142.9670 C   0  0  0  0  0  3  0  0  0  0  0  0
  191.2340  178.0070  144.7990 C   0  0  0  0  0  3  0  0  0  0  0  0
  188.8610  177.7360  136.8950 C   0  0  0  0  0  2  0  0  0  0  0  0
  187.2870  175.9360  137.1680 C   0  0  0  0  0  3  0  0  0  0  0  0
  187.7550  177.1850  137.6600 N   0  0  0  0  0  0  0  0  0  0  0  0
  189.1940  176.5970  135.5040 S   0  0  0  0  0  0  0  0  0  0  0  0
  187.9110  175.5010  136.0940 C   0  0  0  0  0  3  0  0  0  0  0  0
  184.0800  180.8620  138.7930 O   0  0  0  0  0  1  0  0  0  0  0  0
  183.9730  179.6430  139.3800 N   0  0  0  0  0  0  0  0  0  0  0  0
  182.6430  179.1580  139.7270 C   0  0  0  0  0  2  0  0  0  0  0  0
  181.6000  176.8660  140.2030 N   0  0  0  0  0  0  0  0  0  0  0  0
  182.3980  178.2550  136.8570 O   0  0  0  0  0  1  0  0  0  0  0  0
  181.9790  177.5210  137.9600 C   0  0  0  0  0  0  0  0  0  0  0  0
  182.4940  177.6820  139.3380 C   0  0  1  0  0  3  0  0  0  0  0  0
  180.6240  177.7000  140.9200 C   0  0  0  0  0  1  0  0  0  0  0  0
  180.9170  175.9520  139.2530 C   0  0  2  0  0  3  0  0  0  0  0  0
  180.4620  176.1310  136.7530 O   0  0  0  0  0  1  0  0  0  0  0  0
  181.1010  176.5540  137.9120 C   0  0  0  0  0  0  0  0  0  0  0  0
  179.5540  175.7730  139.5350 O   0  0  0  0  0  1  0  0  0  0  0  0
  1  4  1  0  0  0  0
  2 12  1  0  0  0  0
  3  5  1  0  0  0  0
  4 10  1  0  0  0  0
  4  2  2  0  0  0  0
  6 16  1  0  0  0  0
  7 13  1  0  0  0  0
  8 10  2  0  0  0  0
  9  1  2  0  0  0  0
 10 15  1  0  0  0  0
 11  8  1  0  0  0  0
 12  6  2  0  0  0  0
 12 13  1  0  0  0  0
 13  3  2  0  0  0  0
 14  9  1  0  0  0  0
 14 11  2  0  0  0  0
 15  7  2  0  0  0  0
 16  5  2  0  0  0  0
 17 19  1  0  0  0  0
 18 19  1  0  0  0  0
 19  9  1  0  0  0  0
 20 21  1  0  0  0  0
 20 17  1  0  0  0  0
 21 18  2  0  0  0  0
 22 23  1  0  0  0  0
 23 24  1  0  0  0  0
 23 11  1  0  0  0  0
 25 29  1  0  0  0  0
 26 27  1  0  0  0  0
 27 28  1  0  0  0  0
 28 24  1  1  0  0  0
 28 25  1  0  0  0  0
 30 33  1  1  0  0  0
 30 25  1  0  0  0  0
 31 32  1  0  0  0  0
 32 27  2  0  0  0  0
 32 30  1  0  0  0  0
M  END
>  <MODEL>
1

>  <REMARK>
 VINA RESULT:      -8.0      0.000      0.000
  Name = 
  4 active torsions:
  status: ('A' for Active; 'I' for Inactive)
    1  A    between atoms: N_13  and  C_19
    2  A    between atoms: N_14  and  C_23
    3  A    between atoms: N_14  and  C_25
    4  A    between atoms: C_15  and  C_23
                            x       y       z     vdW  Elec       q    Type
                         _______ _______ _______ _____ _____    ______ ____

>  <TORSDO>
F 4

$$$$
=
 OpenBabel11042409483D

 33 37  0  0  1  0  0  0  0  0999 V2000
  189.8080  175.6810  137.4480 N   0  0  0  0  0  0  0  0  0  0  0  0
  187.5310  175.3230  137.0810 C   0  0  0  0  0  3  0  0  0  0  0  0
  184.6750  177.4010  136.0470 C   0  0  0  0  0  3  0  0  0  0  0  0
  188.6040  176.0530  137.7610 C   0  0  0  0  0  0  0  0  0  0  0  0
  184.0270  176.4720  135.2960 N   0  0  0  0  0  0  0  0  0  0  0  0
  185.6260  174.8160  135.8950 C   0  0  0  0  0  3  0  0  0  0  0  0
  186.2670  178.0210  137.5950 C   0  0  0  0  0  3  0  0  0  0  0  0
  189.0790  177.2190  139.9870 C   0  0  0  0  0  3  0  0  0  0  0  0
  191.0870  176.1820  137.8720 C   0  0  0  0  0  0  0  0  0  0  0  0
  188.3340  177.1230  138.7320 C   0  0  0  0  0  0  0  0  0  0  0  0
  190.3740  176.9700  140.1830 C   0  0  0  0  0  0  0  0  0  0  0  0
  186.3410  175.7490  136.6520 C   0  0  0  0  0  0  0  0  0  0  0  0
  185.8290  177.0700  136.7680 C   0  0  0  0  0  0  0  0  0  0  0  0
  191.3140  176.7030  139.0830 C   0  0  0  0  0  3  0  0  0  0  0  0
  187.3180  177.9690  138.6190 C   0  0  0  0  0  3  0  0  0  0  0  0
  184.4650  175.1910  135.2240 C   0  0  0  0  0  3  0  0  0  0  0  0
  193.5590  175.7740  137.4900 C   0  0  0  0  0  2  0  0  0  0  0  0
  192.1090  175.9440  135.5760 C   0  0  0  0  0  3  0  0  0  0  0  0
  192.2090  175.9850  136.9930 N   0  0  0  0  0  0  0  0  0  0  0  0
  194.6590  175.5940  136.0410 S   0  0  0  0  0  0  0  0  0  0  0  0
  193.2510  175.7500  134.9510 C   0  0  0  0  0  3  0  0  0  0  0  0
  192.1000  177.7510  141.6770 O   0  0  0  0  0  1  0  0  0  0  0  0
  190.9150  177.1130  141.5050 N   0  0  0  0  0  0  0  0  0  0  0  0
  190.3280  176.4250  142.6490 C   0  0  0  0  0  2  0  0  0  0  0  0
  188.5800  177.7420  143.9820 N   0  0  0  0  0  0  0  0  0  0  0  0
  191.7710  176.3830  145.3000 O   0  0  0  0  0  1  0  0  0  0  0  0
  190.5260  176.9610  145.0820 C   0  0  0  0  0  0  0  0  0  0  0  0
  190.0180  177.4240  143.7710 C   0  0  1  0  0  3  0  0  0  0  0  0
  187.7040  176.6760  143.4730 C   0  0  0  0  0  1  0  0  0  0  0  0
  188.4530  177.8690  145.4560 C   0  0  2  0  0  3  0  0  0  0  0  0
  189.8490  176.9310  147.3690 O   0  0  0  0  0  1  0  0  0  0  0  0
  189.6540  177.2110  146.0220 C   0  0  0  0  0  0  0  0  0  0  0  0
  187.2810  177.2900  145.9660 O   0  0  0  0  0  1  0  0  0  0  0  0
  1  4  2  0  0  0  0
  1  9  1  0  0  0  0
  2  4  1  0  0  0  0
  3 13  1  0  0  0  0
  4 10  1  0  0  0  0
  5  3  2  0  0  0  0
  6 12  1  0  0  0  0
  7 15  1  0  0  0  0
  8 11  2  0  0  0  0
  9 14  2  0  0  0  0
 10  8  1  0  0  0  0
 11 23  1  0  0  0  0
 12 13  1  0  0  0  0
 12  2  2  0  0  0  0
 13  7  2  0  0  0  0
 14 11  1  0  0  0  0
 15 10  2  0  0  0  0
 16  5  1  0  0  0  0
 16  6  2  0  0  0  0
 18 19  1  0  0  0  0
 19 17  1  0  0  0  0
 19  9  1  0  0  0  0
 20 17  1  0  0  0  0
 21 18  2  0  0  0  0
 21 20  1  0  0  0  0
 23 22  1  0  0  0  0
 23 24  1  0  0  0  0
 25 30  1  0  0  0  0
 27 26  1  0  0  0  0
 27 32  2  0  0  0  0
 28 24  1  6  0  0  0
 28 25  1  0  0  0  0
 28 27  1  0  0  0  0
 29 25  1  0  0  0  0
 30 33  1  1  0  0  0
 30 32  1  0  0  0  0
 32 31  1  0  0  0  0
M  END
>  <MODEL>
2

>  <REMARK>
 VINA RESULT:      -7.9      4.645      8.238
  Name = 
  4 active torsions:
  status: ('A' for Active; 'I' for Inactive)
    1  A    between atoms: N_13  and  C_19
    2  A    between atoms: N_14  and  C_23
    3  A    between atoms: N_14  and  C_25
    4  A    between atoms: C_15  and  C_23
                            x       y       z     vdW  Elec       q    Type
                         _______ _______ _______ _____ _____    ______ ____

>  <TORSDO>
F 4

$$$$
=
 OpenBabel11042409483D

 33 37  0  0  1  0  0  0  0  0999 V2000
  188.6130  178.1760  140.0530 N   0  0  0  0  0  0  0  0  0  0  0  0
  189.5740  178.6600  142.1250 C   0  0  0  0  0  3  0  0  0  0  0  0
  189.8380  176.9390  145.3670 C   0  0  0  0  0  3  0  0  0  0  0  0
  188.4010  178.2890  141.3290 C   0  0  0  0  0  0  0  0  0  0  0  0
  191.0910  177.3470  145.6960 N   0  0  0  0  0  0  0  0  0  0  0  0
  191.2010  178.7100  143.7490 C   0  0  0  0  0  3  0  0  0  0  0  0
  187.9190  177.0700  144.0940 C   0  0  0  0  0  3  0  0  0  0  0  0
  185.8620  178.5940  141.3160 C   0  0  0  0  0  3  0  0  0  0  0  0
  187.7320  177.7970  138.9820 C   0  0  0  0  0  0  0  0  0  0  0  0
  187.0790  178.0670  141.9330 C   0  0  0  0  0  0  0  0  0  0  0  0
  185.5770  178.6680  140.0160 C   0  0  0  0  0  0  0  0  0  0  0  0
  189.9260  178.2900  143.3570 C   0  0  0  0  0  0  0  0  0  0  0  0
  189.2040  177.4130  144.2110 C   0  0  0  0  0  0  0  0  0  0  0  0
  186.4200  178.0580  138.9750 C   0  0  0  0  0  3  0  0  0  0  0  0
  186.9080  177.5210  143.1300 C   0  0  0  0  0  3  0  0  0  0  0  0
  191.7710  178.2330  144.9270 C   0  0  0  0  0  3  0  0  0  0  0  0
  189.2800  177.9540  136.9820 C   0  0  0  0  0  2  0  0  0  0  0  0
  188.0530  175.9130  137.3330 C   0  0  0  0  0  3  0  0  0  0  0  0
  188.3200  177.2290  137.7990 N   0  0  0  0  0  0  0  0  0  0  0  0
  189.7420  176.8730  135.5810 S   0  0  0  0  0  0  0  0  0  0  0  0
  188.6940  175.5800  136.2330 C   0  0  0  0  0  3  0  0  0  0  0  0
  184.2890  180.4900  139.0980 O   0  0  0  0  0  1  0  0  0  0  0  0
  184.3210  179.2350  139.6120 N   0  0  0  0  0  0  0  0  0  0  0  0
  183.0550  178.5790  139.9170 C   0  0  0  0  0  2  0  0  0  0  0  0
  180.7770  179.5650  140.5550 N   0  0  0  0  0  0  0  0  0  0  0  0
  183.4410  178.5050  142.9100 O   0  0  0  0  0  1  0  0  0  0  0  0
  182.2890  178.9420  142.2680 C   0  0  0  0  0  0  0  0  0  0  0  0
  182.2250  179.4420  140.8760 C   0  0  1  0  0  3  0  0  0  0  0  0
  180.3030  178.4440  139.7300 C   0  0  0  0  0  1  0  0  0  0  0  0
  180.1130  179.5590  141.8830 C   0  0  2  0  0  3  0  0  0  0  0  0
  180.8470  178.6510  144.1460 O   0  0  0  0  0  1  0  0  0  0  0  0
  181.1110  179.0100  142.8300 C   0  0  0  0  0  0  0  0  0  0  0  0
  178.9310  178.8040  141.9120 O   0  0  0  0  0  1  0  0  0  0  0  0
  1  4  1  0  0  0  0
  2 12  1  0  0  0  0
  3  5  1  0  0  0  0
  4 10  1  0  0  0  0
  4  2  2  0  0  0  0
  6 16  1  0  0  0  0
  7 13  1  0  0  0  0
  8 10  2  0  0  0  0
  9  1  2  0  0  0  0
 10 15  1  0  0  0  0
 11  8  1  0  0  0  0
 12  6  2  0  0  0  0
 12 13  1  0  0  0  0
 13  3  2  0  0  0  0
 14  9  1  0  0  0  0
 14 11  2  0  0  0  0
 15  7  2  0  0  0  0
 16  5  2  0  0  0  0
 17 19  1  0  0  0  0
 18 19  1  0  0  0  0
 19  9  1  0  0  0  0
 20 21  1  0  0  0  0
 20 17  1  0  0  0  0
 21 18  2  0  0  0  0
 22 23  1  0  0  0  0
 23 24  1  0  0  0  0
 23 11  1  0  0  0  0
 25 28  1  0  0  0  0
 25 30  1  0  0  0  0
 27 32  2  0  0  0  0
 27 26  1  0  0  0  0
 28 24  1  6  0  0  0
 28 27  1  0  0  0  0
 29 25  1  0  0  0  0
 30 33  1  6  0  0  0
 30 32  1  0  0  0  0
 32 31  1  0  0  0  0
M  END
>  <MODEL>
3

>  <REMARK>
 VINA RESULT:      -7.9      1.794      2.523
  Name = 
  4 active torsions:
  status: ('A' for Active; 'I' for Inactive)
    1  A    between atoms: N_13  and  C_19
    2  A    between atoms: N_14  and  C_23
    3  A    between atoms: N_14  and  C_25
    4  A    between atoms: C_15  and  C_23
                            x       y       z     vdW  Elec       q    Type
                         _______ _______ _______ _____ _____    ______ ____

>  <TORSDO>
F 4

$$$$
=
 OpenBabel11042409483D

 33 37  0  0  1  0  0  0  0  0999 V2000
  184.9030  179.3100  140.6370 N   0  0  0  0  0  0  0  0  0  0  0  0
  183.2770  179.9700  139.0970 C   0  0  0  0  0  3  0  0  0  0  0  0
  180.7690  178.2510  137.0230 C   0  0  0  0  0  3  0  0  0  0  0  0
  184.4540  179.1630  139.4280 C   0  0  0  0  0  0  0  0  0  0  0  0
  179.7830  179.1820  137.1090 N   0  0  0  0  0  0  0  0  0  0  0  0
  181.2040  180.6300  138.3510 C   0  0  0  0  0  3  0  0  0  0  0  0
  182.9550  177.5660  137.2910 C   0  0  0  0  0  3  0  0  0  0  0  0
  186.5380  178.1840  138.3140 C   0  0  0  0  0  3  0  0  0  0  0  0
  185.9920  178.6700  141.3220 C   0  0  0  0  0  0  0  0  0  0  0  0
  185.0840  178.2560  138.4570 C   0  0  0  0  0  0  0  0  0  0  0  0
  187.4530  178.2520  139.2820 C   0  0  0  0  0  0  0  0  0  0  0  0
  182.2350  179.6860  138.3140 C   0  0  0  0  0  0  0  0  0  0  0  0
  182.0290  178.4780  137.5930 C   0  0  0  0  0  0  0  0  0  0  0  0
  187.1080  178.2540  140.7120 C   0  0  0  0  0  3  0  0  0  0  0  0
  184.3990  177.5680  137.5520 C   0  0  0  0  0  3  0  0  0  0  0  0
  179.9810  180.3660  137.7390 C   0  0  0  0  0  3  0  0  0  0  0  0
  184.9300  179.3130  143.5310 C   0  0  0  0  0  2  0  0  0  0  0  0
  186.8110  177.8100  143.5500 C   0  0  0  0  0  3  0  0  0  0  0  0
  185.9320  178.5980  142.7570 N   0  0  0  0  0  0  0  0  0  0  0  0
  185.2390  178.9580  145.2980 S   0  0  0  0  0  0  0  0  0  0  0  0
  186.5900  177.8780  144.8450 C   0  0  0  0  0  3  0  0  0  0  0  0
  189.3760  179.1040  138.1000 O   0  0  0  0  0  1  0  0  0  0  0  0
  188.8420  178.1720  138.9290 N   0  0  0  0  0  0  0  0  0  0  0  0
  189.6530  177.0110  139.2780 C   0  0  0  0  0  2  0  0  0  0  0  0
  192.1350  177.3640  138.7500 N   0  0  0  0  0  0  0  0  0  0  0  0
  190.0350  174.5270  137.6040 O   0  0  0  0  0  1  0  0  0  0  0  0
  191.0360  175.4410  137.9120 C   0  0  0  0  0  0  0  0  0  0  0  0
  190.8150  176.8550  138.2890 C   0  0  1  0  0  3  0  0  0  0  0  0
  192.2160  177.4230  140.2170 C   0  0  0  0  0  1  0  0  0  0  0  0
  193.1080  176.3820  138.2070 C   0  0  2  0  0  3  0  0  0  0  0  0
  192.8510  173.9480  137.5020 O   0  0  0  0  0  1  0  0  0  0  0  0
  192.3160  175.1780  137.8630 C   0  0  0  0  0  0  0  0  0  0  0  0
  194.1360  176.0620  139.1060 O   0  0  0  0  0  1  0  0  0  0  0  0
  1  9  1  0  0  0  0
  2  4  1  0  0  0  0
  3  5  2  0  0  0  0
  3 13  1  0  0  0  0
  4  1  2  0  0  0  0
  5 16  1  0  0  0  0
  7 15  1  0  0  0  0
  7 13  2  0  0  0  0
  8 10  1  0  0  0  0
  8 11  2  0  0  0  0
  9 19  1  0  0  0  0
 10  4  1  0  0  0  0
 11 14  1  0  0  0  0
 12  6  1  0  0  0  0
 12  2  2  0  0  0  0
 13 12  1  0  0  0  0
 14  9  2  0  0  0  0
 15 10  2  0  0  0  0
 16  6  2  0  0  0  0
 17 20  1  0  0  0  0
 18 21  2  0  0  0  0
 19 17  1  0  0  0  0
 19 18  1  0  0  0  0
 21 20  1  0  0  0  0
 22 23  1  0  0  0  0
 23 24  1  0  0  0  0
 23 11  1  0  0  0  0
 25 29  1  0  0  0  0
 26 27  1  0  0  0  0
 27 28  1  0  0  0  0
 28 25  1  0  0  0  0
 28 24  1  1  0  0  0
 30 25  1  0  0  0  0
 30 33  1  1  0  0  0
 31 32  1  0  0  0  0
 32 27  2  0  0  0  0
 32 30  1  0  0  0  0
M  END
>  <MODEL>
4

>  <REMARK>
 VINA RESULT:      -7.6      4.431      8.855
  Name = 
  4 active torsions:
  status: ('A' for Active; 'I' for Inactive)
    1  A    between atoms: N_13  and  C_19
    2  A    between atoms: N_14  and  C_23
    3  A    between atoms: N_14  and  C_25
    4  A    between atoms: C_15  and  C_23
                            x       y       z     vdW  Elec       q    Type
                         _______ _______ _______ _____ _____    ______ ____

>  <TORSDO>
F 4

$$$$
=
 OpenBabel11042409483D

 33 37  0  0  1  0  0  0  0  0999 V2000
  188.0300  178.5170  140.1380 N   0  0  0  0  0  0  0  0  0  0  0  0
  189.1790  178.8230  142.1470 C   0  0  0  0  0  3  0  0  0  0  0  0
  189.8740  176.7650  145.1180 C   0  0  0  0  0  3  0  0  0  0  0  0
  187.9500  178.4700  141.4330 C   0  0  0  0  0  0  0  0  0  0  0  0
  191.1320  177.2120  145.3690 N   0  0  0  0  0  0  0  0  0  0  0  0
  190.9650  178.7910  143.5970 C   0  0  0  0  0  3  0  0  0  0  0  0
  187.8270  176.9180  144.0670 C   0  0  0  0  0  3  0  0  0  0  0  0
  185.4110  178.6130  141.7100 C   0  0  0  0  0  3  0  0  0  0  0  0
  187.0610  178.2070  139.1230 C   0  0  0  0  0  0  0  0  0  0  0  0
  186.7120  178.0980  142.1350 C   0  0  0  0  0  0  0  0  0  0  0  0
  184.9860  178.8160  140.4620 C   0  0  0  0  0  0  0  0  0  0  0  0
  189.6790  178.3390  143.2860 C   0  0  0  0  0  0  0  0  0  0  0  0
  189.0970  177.3260  144.0960 C   0  0  0  0  0  0  0  0  0  0  0  0
  185.7440  178.3830  139.2780 C   0  0  0  0  0  3  0  0  0  0  0  0
  186.6970  177.4100  143.2690 C   0  0  0  0  0  3  0  0  0  0  0  0
  191.6810  178.2210  144.6470 C   0  0  0  0  0  3  0  0  0  0  0  0
  188.9670  177.7790  137.5090 C   0  0  0  0  0  2  0  0  0  0  0  0
  186.7120  177.4000  136.7560 C   0  0  0  0  0  3  0  0  0  0  0  0
  187.5500  177.8150  137.8280 N   0  0  0  0  0  0  0  0  0  0  0  0
  189.1290  177.2530  135.7650 S   0  0  0  0  0  0  0  0  0  0  0  0
  187.3530  177.0790  135.6530 C   0  0  0  0  0  3  0  0  0  0  0  0
  182.6970  179.0960  141.1710 O   0  0  0  0  0  1  0  0  0  0  0  0
  183.6670  179.3440  140.2560 N   0  0  0  0  0  0  0  0  0  0  0  0
  183.2860  179.9750  138.9980 C   0  0  0  0  0  2  0  0  0  0  0  0
  180.8740  180.7280  138.5710 N   0  0  0  0  0  0  0  0  0  0  0  0
  182.6340  177.9450  136.8600 O   0  0  0  0  0  1  0  0  0  0  0  0
  181.7650  178.9320  137.3110 C   0  0  0  0  0  0  0  0  0  0  0  0
  181.8450  179.6020  138.6290 C   0  0  1  0  0  3  0  0  0  0  0  0
  181.5450  182.0160  138.3450 C   0  0  0  0  0  1  0  0  0  0  0  0
  179.9930  180.3840  137.4250 C   0  0  2  0  0  3  0  0  0  0  0  0
  180.3600  178.9060  135.3840 O   0  0  0  0  0  1  0  0  0  0  0  0
  180.7310  179.3660  136.6420 C   0  0  0  0  0  0  0  0  0  0  0  0
  179.6640  181.4880  136.6250 O   0  0  0  0  0  1  0  0  0  0  0  0
  1  4  1  0  0  0  0
  2 12  1  0  0  0  0
  3  5  1  0  0  0  0
  4 10  1  0  0  0  0
  4  2  2  0  0  0  0
  6 16  1  0  0  0  0
  7 13  1  0  0  0  0
  8 10  2  0  0  0  0
  9 14  1  0  0  0  0
  9  1  2  0  0  0  0
 10 15  1  0  0  0  0
 11  8  1  0  0  0  0
 12  6  2  0  0  0  0
 12 13  1  0  0  0  0
 13  3  2  0  0  0  0
 14 11  2  0  0  0  0
 15  7  2  0  0  0  0
 16  5  2  0  0  0  0
 17 19  1  0  0  0  0
 18 19  1  0  0  0  0
 19  9  1  0  0  0  0
 20 17  1  0  0  0  0
 21 20  1  0  0  0  0
 21 18  2  0  0  0  0
 23 11  1  0  0  0  0
 23 22  1  0  0  0  0
 24 23  1  0  0  0  0
 25 28  1  0  0  0  0
 26 27  1  0  0  0  0
 27 28  1  0  0  0  0
 28 24  1  6  0  0  0
 29 25  1  0  0  0  0
 30 33  1  6  0  0  0
 30 25  1  0  0  0  0
 31 32  1  0  0  0  0
 32 27  2  0  0  0  0
 32 30  1  0  0  0  0
M  END
>  <MODEL>
5

>  <REMARK>
 VINA RESULT:      -7.6      1.758      2.205
  Name = 
  4 active torsions:
  status: ('A' for Active; 'I' for Inactive)
    1  A    between atoms: N_13  and  C_19
    2  A    between atoms: N_14  and  C_23
    3  A    between atoms: N_14  and  C_25
    4  A    between atoms: C_15  and  C_23
                            x       y       z     vdW  Elec       q    Type
                         _______ _______ _______ _____ _____    ______ ____

>  <TORSDO>
F 4

$$$$
=
 OpenBabel11042409483D

 33 37  0  0  1  0  0  0  0  0999 V2000
  184.0350  179.4050  140.6960 N   0  0  0  0  0  0  0  0  0  0  0  0
  182.9220  179.9530  138.7180 C   0  0  0  0  0  3  0  0  0  0  0  0
  181.1390  178.0800  136.1000 C   0  0  0  0  0  3  0  0  0  0  0  0
  183.9580  179.1900  139.4180 C   0  0  0  0  0  0  0  0  0  0  0  0
  180.1630  178.9910  135.8470 N   0  0  0  0  0  0  0  0  0  0  0  0
  181.1490  180.5290  137.3710 C   0  0  0  0  0  3  0  0  0  0  0  0
  183.1580  177.4590  137.0250 C   0  0  0  0  0  3  0  0  0  0  0  0
  186.2840  178.2070  139.0090 C   0  0  0  0  0  3  0  0  0  0  0  0
  184.8840  178.8230  141.7000 C   0  0  0  0  0  0  0  0  0  0  0  0
  184.8510  178.2530  138.7200 C   0  0  0  0  0  0  0  0  0  0  0  0
  186.8780  178.3430  140.1950 C   0  0  0  0  0  0  0  0  0  0  0  0
  182.1550  179.6080  137.6830 C   0  0  0  0  0  0  0  0  0  0  0  0
  182.1770  178.3630  136.9970 C   0  0  0  0  0  0  0  0  0  0  0  0
  186.1320  178.4040  141.4620 C   0  0  0  0  0  3  0  0  0  0  0  0
  184.4640  177.5060  137.6930 C   0  0  0  0  0  3  0  0  0  0  0  0
  180.1600  180.2080  136.4440 C   0  0  0  0  0  3  0  0  0  0  0  0
  185.3030  178.6550  144.1930 C   0  0  0  0  0  2  0  0  0  0  0  0
  183.0490  179.0030  143.4240 C   0  0  0  0  0  3  0  0  0  0  0  0
  184.4100  178.8180  143.0580 N   0  0  0  0  0  0  0  0  0  0  0  0
  184.2820  178.6870  145.7100 S   0  0  0  0  0  0  0  0  0  0  0  0
  182.8200  178.9690  144.7200 C   0  0  0  0  0  3  0  0  0  0  0  0
  189.0550  178.9290  139.3370 O   0  0  0  0  0  1  0  0  0  0  0  0
  188.3100  178.2780  140.2650 N   0  0  0  0  0  0  0  0  0  0  0  0
  188.9900  177.3750  141.1870 C   0  0  0  0  0  2  0  0  0  0  0  0
  188.5460  177.7740  143.6790 N   0  0  0  0  0  0  0  0  0  0  0  0
  191.8520  177.8890  141.9980 O   0  0  0  0  0  1  0  0  0  0  0  0
  190.7690  177.8780  142.8690 C   0  0  0  0  0  0  0  0  0  0  0  0
  189.3590  178.1120  142.4800 C   0  0  1  0  0  3  0  0  0  0  0  0
  187.9200  176.4490  143.5580 C   0  0  0  0  0  1  0  0  0  0  0  0
  189.5260  177.7940  144.7950 C   0  0  2  0  0  3  0  0  0  0  0  0
  192.0550  177.4980  144.8410 O   0  0  0  0  0  1  0  0  0  0  0  0
  190.8610  177.7030  144.1600 C   0  0  0  0  0  0  0  0  0  0  0  0
  189.3410  176.7530  145.7180 O   0  0  0  0  0  1  0  0  0  0  0  0
  1  9  1  0  0  0  0
  2  4  1  0  0  0  0
  3 13  1  0  0  0  0
  4  1  2  0  0  0  0
  5  3  2  0  0  0  0
  5 16  1  0  0  0  0
  6 12  1  0  0  0  0
  7 15  1  0  0  0  0
  8 11  2  0  0  0  0
  9 19  1  0  0  0  0
 10  8  1  0  0  0  0
 10  4  1  0  0  0  0
 11 23  1  0  0  0  0
 11 14  1  0  0  0  0
 12  2  2  0  0  0  0
 13  7  2  0  0  0  0
 13 12  1  0  0  0  0
 14  9  2  0  0  0  0
 15 10  2  0  0  0  0
 16  6  2  0  0  0  0
 17 20  1  0  0  0  0
 18 21  2  0  0  0  0
 19 18  1  0  0  0  0
 19 17  1  0  0  0  0
 21 20  1  0  0  0  0
 22 23  1  0  0  0  0
 23 24  1  0  0  0  0
 25 30  1  0  0  0  0
 26 27  1  0  0  0  0
 27 32  2  0  0  0  0
 28 24  1  6  0  0  0
 28 27  1  0  0  0  0
 28 25  1  0  0  0  0
 29 25  1  0  0  0  0
 30 33  1  1  0  0  0
 32 30  1  0  0  0  0
 32 31  1  0  0  0  0
M  END
>  <MODEL>
6

>  <REMARK>
 VINA RESULT:      -7.5      4.189      8.854
  Name = 
  4 active torsions:
  status: ('A' for Active; 'I' for Inactive)
    1  A    between atoms: N_13  and  C_19
    2  A    between atoms: N_14  and  C_23
    3  A    between atoms: N_14  and  C_25
    4  A    between atoms: C_15  and  C_23
                            x       y       z     vdW  Elec       q    Type
                         _______ _______ _______ _____ _____    ______ ____

>  <TORSDO>
F 4

$$$$
=
 OpenBabel11042409483D

 33 37  0  0  1  0  0  0  0  0999 V2000
  184.9300  177.6590  140.5690 N   0  0  0  0  0  0  0  0  0  0  0  0
  182.6610  177.1930  140.2740 C   0  0  0  0  0  3  0  0  0  0  0  0
  179.5760  179.1860  140.0410 C   0  0  0  0  0  3  0  0  0  0  0  0
  183.7350  177.8160  141.0520 C   0  0  0  0  0  0  0  0  0  0  0  0
  178.9330  178.4310  139.1130 N   0  0  0  0  0  0  0  0  0  0  0  0
  180.6990  176.8370  139.1280 C   0  0  0  0  0  3  0  0  0  0  0  0
  181.2530  179.5240  141.5880 C   0  0  0  0  0  3  0  0  0  0  0  0
  184.3240  178.3910  143.4730 C   0  0  0  0  0  3  0  0  0  0  0  0
  186.2020  178.1500  141.0240 C   0  0  0  0  0  0  0  0  0  0  0  0
  183.4760  178.5600  142.2930 C   0  0  0  0  0  0  0  0  0  0  0  0
  185.6470  178.2250  143.5050 C   0  0  0  0  0  0  0  0  0  0  0  0
  181.4090  177.6000  140.0600 C   0  0  0  0  0  0  0  0  0  0  0  0
  180.8130  178.7880  140.5650 C   0  0  0  0  0  0  0  0  0  0  0  0
  186.4990  178.3510  142.3130 C   0  0  0  0  0  3  0  0  0  0  0  0
  182.3940  179.3040  142.4850 C   0  0  0  0  0  3  0  0  0  0  0  0
  179.4560  177.2630  138.6650 C   0  0  0  0  0  3  0  0  0  0  0  0
  186.9860  178.3240  138.6210 C   0  0  0  0  0  2  0  0  0  0  0  0
  188.6210  178.4730  140.3810 C   0  0  0  0  0  3  0  0  0  0  0  0
  187.2490  178.3010  140.0500 N   0  0  0  0  0  0  0  0  0  0  0  0
  188.5910  178.5090  137.7650 S   0  0  0  0  0  0  0  0  0  0  0  0
  189.4230  178.5980  139.3450 C   0  0  0  0  0  3  0  0  0  0  0  0
  186.1070  178.9960  145.7450 O   0  0  0  0  0  1  0  0  0  0  0  0
  186.2940  178.0640  144.7770 N   0  0  0  0  0  0  0  0  0  0  0  0
  187.3020  177.0330  144.9950 C   0  0  0  0  0  2  0  0  0  0  0  0
  189.5140  177.8860  145.9670 N   0  0  0  0  0  0  0  0  0  0  0  0
  189.0940  176.0210  142.7870 O   0  0  0  0  0  1  0  0  0  0  0  0
  189.5330  176.6910  143.9220 C   0  0  0  0  0  0  0  0  0  0  0  0
  188.7060  177.5980  144.7510 C   0  0  1  0  0  3  0  0  0  0  0  0
  189.0600  177.0990  147.1230 C   0  0  0  0  0  1  0  0  0  0  0  0
  190.8960  177.5040  145.5790 C   0  0  2  0  0  3  0  0  0  0  0  0
  191.7820  175.9070  143.8040 O   0  0  0  0  0  1  0  0  0  0  0  0
  190.7540  176.6410  144.3830 C   0  0  0  0  0  0  0  0  0  0  0  0
  191.5950  176.8370  146.5950 O   0  0  0  0  0  1  0  0  0  0  0  0
  1  9  2  0  0  0  0
  1  4  1  0  0  0  0
  2  4  2  0  0  0  0
  3 13  1  0  0  0  0
  4 10  1  0  0  0  0
  5  3  2  0  0  0  0
  6 12  1  0  0  0  0
  7 15  2  0  0  0  0
  8 11  1  0  0  0  0
  9 14  1  0  0  0  0
 10 15  1  0  0  0  0
 10  8  2  0  0  0  0
 11 23  1  0  0  0  0
 12  2  1  0  0  0  0
 12 13  2  0  0  0  0
 13  7  1  0  0  0  0
 14 11  2  0  0  0  0
 16  5  1  0  0  0  0
 16  6  2  0  0  0  0
 17 19  1  0  0  0  0
 19 18  1  0  0  0  0
 19  9  1  0  0  0  0
 20 17  1  0  0  0  0
 20 21  1  0  0  0  0
 21 18  2  0  0  0  0
 23 24  1  0  0  0  0
 23 22  1  0  0  0  0
 25 29  1  0  0  0  0
 26 27  1  0  0  0  0
 27 32  2  0  0  0  0
 27 28  1  0  0  0  0
 28 24  1  1  0  0  0
 28 25  1  0  0  0  0
 30 25  1  0  0  0  0
 30 33  1  1  0  0  0
 31 32  1  0  0  0  0
 32 30  1  0  0  0  0
M  END
>  <MODEL>
7

>  <REMARK>
 VINA RESULT:      -7.4      3.764      8.268
  Name = 
  4 active torsions:
  status: ('A' for Active; 'I' for Inactive)
    1  A    between atoms: N_13  and  C_19
    2  A    between atoms: N_14  and  C_23
    3  A    between atoms: N_14  and  C_25
    4  A    between atoms: C_15  and  C_23
                            x       y       z     vdW  Elec       q    Type
                         _______ _______ _______ _____ _____    ______ ____

>  <TORSDO>
F 4

$$$$
=
 OpenBabel11042409483D

 33 37  0  0  1  0  0  0  0  0999 V2000
  187.2470  178.5820  140.6750 N   0  0  0  0  0  0  0  0  0  0  0  0
  188.7480  178.8870  142.4370 C   0  0  0  0  0  3  0  0  0  0  0  0
  190.2510  176.7320  145.0140 C   0  0  0  0  0  3  0  0  0  0  0  0
  187.4410  178.4390  141.9510 C   0  0  0  0  0  0  0  0  0  0  0  0
  191.4810  177.3100  145.0500 N   0  0  0  0  0  0  0  0  0  0  0  0
  190.7880  178.9730  143.4970 C   0  0  0  0  0  3  0  0  0  0  0  0
  188.0270  176.7080  144.4050 C   0  0  0  0  0  3  0  0  0  0  0  0
  185.0130  178.2560  142.7340 C   0  0  0  0  0  3  0  0  0  0  0  0
  186.1280  178.2270  139.8470 C   0  0  0  0  0  0  0  0  0  0  0  0
  186.4210  177.8730  142.8460 C   0  0  0  0  0  0  0  0  0  0  0  0
  184.3220  178.4890  141.6180 C   0  0  0  0  0  0  0  0  0  0  0  0
  189.5190  178.3910  143.4060 C   0  0  0  0  0  0  0  0  0  0  0  0
  189.2260  177.2630  144.2200 C   0  0  0  0  0  0  0  0  0  0  0  0
  184.8590  178.2320  140.2740 C   0  0  0  0  0  3  0  0  0  0  0  0
  186.7120  177.1130  143.8940 C   0  0  0  0  0  3  0  0  0  0  0  0
  191.7600  178.4240  144.3290 C   0  0  0  0  0  3  0  0  0  0  0  0
  185.3370  177.5300  137.5430 C   0  0  0  0  0  2  0  0  0  0  0  0
  187.6330  178.1950  137.8200 C   0  0  0  0  0  3  0  0  0  0  0  0
  186.3760  177.9860  138.4510 N   0  0  0  0  0  0  0  0  0  0  0  0
  186.0930  177.3340  135.8890 S   0  0  0  0  0  0  0  0  0  0  0  0
  187.6540  177.9190  136.5340 C   0  0  0  0  0  3  0  0  0  0  0  0
  182.4660  179.3370  142.9060 O   0  0  0  0  0  1  0  0  0  0  0  0
  182.9410  178.8670  141.7250 N   0  0  0  0  0  0  0  0  0  0  0  0
  181.9860  178.5810  140.6610 C   0  0  0  0  0  2  0  0  0  0  0  0
  182.0040  179.4720  138.2590 N   0  0  0  0  0  0  0  0  0  0  0  0
  179.9660  180.7880  141.0670 O   0  0  0  0  0  1  0  0  0  0  0  0
  180.5790  180.4830  139.8580 C   0  0  0  0  0  0  0  0  0  0  0  0
  181.8720  179.7780  139.7090 C   0  0  1  0  0  3  0  0  0  0  0  0
  181.6830  178.0680  137.9650 C   0  0  0  0  0  1  0  0  0  0  0  0
  181.0270  180.3840  137.6100 C   0  0  2  0  0  3  0  0  0  0  0  0
  178.9310  181.5320  138.4890 O   0  0  0  0  0  1  0  0  0  0  0  0
  180.1090  180.8230  138.6860 C   0  0  0  0  0  0  0  0  0  0  0  0
  180.3140  179.7810  136.5630 O   0  0  0  0  0  1  0  0  0  0  0  0
  1  4  1  0  0  0  0
  2 12  1  0  0  0  0
  3  5  1  0  0  0  0
  4  2  2  0  0  0  0
  4 10  1  0  0  0  0
  6 16  1  0  0  0  0
  8 10  2  0  0  0  0
  9 14  1  0  0  0  0
  9  1  2  0  0  0  0
 10 15  1  0  0  0  0
 11 23  1  0  0  0  0
 11  8  1  0  0  0  0
 12  6  2  0  0  0  0
 12 13  1  0  0  0  0
 13  7  1  0  0  0  0
 13  3  2  0  0  0  0
 14 11  2  0  0  0  0
 15  7  2  0  0  0  0
 16  5  2  0  0  0  0
 17 19  1  0  0  0  0
 18 19  1  0  0  0  0
 19  9  1  0  0  0  0
 20 21  1  0  0  0  0
 20 17  1  0  0  0  0
 21 18  2  0  0  0  0
 23 22  1  0  0  0  0
 24 23  1  0  0  0  0
 25 28  1  0  0  0  0
 27 26  1  0  0  0  0
 28 27  1  0  0  0  0
 28 24  1  1  0  0  0
 29 25  1  0  0  0  0
 30 33  1  6  0  0  0
 30 25  1  0  0  0  0
 30 32  1  0  0  0  0
 31 32  1  0  0  0  0
 32 27  2  0  0  0  0
M  END
>  <MODEL>
8

>  <REMARK>
 VINA RESULT:      -7.3      2.125      2.833
  Name = 
  4 active torsions:
  status: ('A' for Active; 'I' for Inactive)
    1  A    between atoms: N_13  and  C_19
    2  A    between atoms: N_14  and  C_23
    3  A    between atoms: N_14  and  C_25
    4  A    between atoms: C_15  and  C_23
                            x       y       z     vdW  Elec       q    Type
                         _______ _______ _______ _____ _____    ______ ____

>  <TORSDO>
F 4

$$$$
=
 OpenBabel11042409483D

 33 37  0  0  1  0  0  0  0  0999 V2000
  190.4890  176.8630  140.0320 N   0  0  0  0  0  0  0  0  0  0  0  0
  190.7700  177.6470  142.2130 C   0  0  0  0  0  3  0  0  0  0  0  0
  189.4030  176.7750  145.5170 C   0  0  0  0  0  3  0  0  0  0  0  0
  189.8910  177.3320  141.0850 C   0  0  0  0  0  0  0  0  0  0  0  0
  190.5260  176.9920  146.2500 N   0  0  0  0  0  0  0  0  0  0  0  0
  191.6800  177.7730  144.3220 C   0  0  0  0  0  3  0  0  0  0  0  0
  188.1610  176.9680  143.5830 C   0  0  0  0  0  3  0  0  0  0  0  0
  187.7070  178.1300  140.0170 C   0  0  0  0  0  3  0  0  0  0  0  0
  189.9630  176.4140  138.7720 C   0  0  0  0  0  0  0  0  0  0  0  0
  188.4360  177.5400  141.1400 C   0  0  0  0  0  0  0  0  0  0  0  0
  187.9220  177.9310  138.7160 C   0  0  0  0  0  0  0  0  0  0  0  0
  190.5560  177.5340  143.5250 C   0  0  0  0  0  0  0  0  0  0  0  0
  189.3670  177.0620  144.1460 C   0  0  0  0  0  0  0  0  0  0  0  0
  188.8640  176.9240  138.2040 C   0  0  0  0  0  3  0  0  0  0  0  0
  187.7150  177.3570  142.2390 C   0  0  0  0  0  3  0  0  0  0  0  0
  191.6500  177.5010  145.6880 C   0  0  0  0  0  3  0  0  0  0  0  0
  190.1230  174.4190  137.2190 C   0  0  0  0  0  2  0  0  0  0  0  0
  192.1590  175.4620  137.9690 C   0  0  0  0  0  3  0  0  0  0  0  0
  190.7380  175.4610  138.0230 N   0  0  0  0  0  0  0  0  0  0  0  0
  191.4680  173.4330  136.4690 S   0  0  0  0  0  0  0  0  0  0  0  0
  192.6790  174.5090  137.2260 C   0  0  0  0  0  3  0  0  0  0  0  0
  187.6740  179.4320  136.8440 O   0  0  0  0  0  1  0  0  0  0  0  0
  187.0970  178.6200  137.7650 N   0  0  0  0  0  0  0  0  0  0  0  0
  185.6430  178.6280  137.8790 C   0  0  0  0  0  2  0  0  0  0  0  0
  183.8460  176.8580  138.3320 N   0  0  0  0  0  0  0  0  0  0  0  0
  185.5480  177.4700  135.0920 O   0  0  0  0  0  1  0  0  0  0  0  0
  184.7510  177.0560  136.1530 C   0  0  0  0  0  0  0  0  0  0  0  0
  185.0780  177.2320  137.5860 C   0  0  1  0  0  3  0  0  0  0  0  0
  183.1030  178.0420  138.7880 C   0  0  0  0  0  1  0  0  0  0  0  0
  183.0510  176.0830  137.3460 C   0  0  2  0  0  3  0  0  0  0  0  0
  183.0590  176.0580  134.7990 O   0  0  0  0  0  1  0  0  0  0  0  0
  183.6210  176.4130  136.0200 C   0  0  0  0  0  0  0  0  0  0  0  0
  181.6790  176.3750  137.3850 O   0  0  0  0  0  1  0  0  0  0  0  0
  1  4  1  0  0  0  0
  2 12  1  0  0  0  0
  3  5  1  0  0  0  0
  4 10  1  0  0  0  0
  4  2  2  0  0  0  0
  6 16  1  0  0  0  0
  7 13  1  0  0  0  0
  8 10  2  0  0  0  0
  9  1  2  0  0  0  0
 10 15  1  0  0  0  0
 11  8  1  0  0  0  0
 12 13  1  0  0  0  0
 12  6  2  0  0  0  0
 13  3  2  0  0  0  0
 14 11  2  0  0  0  0
 14  9  1  0  0  0  0
 15  7  2  0  0  0  0
 16  5  2  0  0  0  0
 17 19  1  0  0  0  0
 18 19  1  0  0  0  0
 19  9  1  0  0  0  0
 20 17  1  0  0  0  0
 20 21  1  0  0  0  0
 21 18  2  0  0  0  0
 22 23  1  0  0  0  0
 23 24  1  0  0  0  0
 23 11  1  0  0  0  0
 25 29  1  0  0  0  0
 26 27  1  0  0  0  0
 27 28  1  0  0  0  0
 28 24  1  6  0  0  0
 28 25  1  0  0  0  0
 30 33  1  6  0  0  0
 30 25  1  0  0  0  0
 31 32  1  0  0  0  0
 32 27  2  0  0  0  0
 32 30  1  0  0  0  0
M  END
>  <MODEL>
9

>  <REMARK>
 VINA RESULT:      -7.3      2.393      2.989
  Name = 
  4 active torsions:
  status: ('A' for Active; 'I' for Inactive)
    1  A    between atoms: N_13  and  C_19
    2  A    between atoms: N_14  and  C_23
    3  A    between atoms: N_14  and  C_25
    4  A    between atoms: C_15  and  C_23
                            x       y       z     vdW  Elec       q    Type
                         _______ _______ _______ _____ _____    ______ ____

>  <TORSDO>
F 4

$$$$
