=
 OpenBabel11042409493D

 33 37  0  0  1  0  0  0  0  0999 V2000
  188.0850  177.0390  143.3070 C   0  0  0  0  0  2  0  0  0  0  0  0
  187.3050  178.2810  147.8710 N   0  0  0  0  0  0  0  0  0  0  0  0
  191.0270  177.4060  145.6180 C   0  0  0  0  0  3  0  0  0  0  0  0
  186.4450  177.6690  145.7040 C   0  0  1  0  0  3  0  0  0  0  0  0
  190.1760  177.5820  144.6100 C   0  0  0  0  0  3  0  0  0  0  0  0
  187.9440  177.5340  145.7260 C   0  0  0  0  0  0  0  0  0  0  0  0
  188.3900  177.8510  147.0780 C   0  0  0  0  0  0  0  0  0  0  0  0
  186.0640  178.1000  147.1320 C   0  0  0  0  0  3  0  0  0  0  0  0
  188.7180  177.3330  144.6330 C   0  0  0  0  0  0  0  0  0  0  0  0
  189.5700  177.5700  147.6260 C   0  0  0  0  0  3  0  0  0  0  0  0
  190.6430  176.8020  146.9270 C   0  0  2  0  0  3  0  0  0  0  0  0
  184.4430  180.1940  143.9680 O   0  0  0  0  0  0  0  0  0  0  0  0
  186.0460  178.7230  144.7810 N   0  0  0  0  0  2  0  0  0  0  0  0
  184.7290  179.2720  144.7750 C   0  0  0  0  0  0  0  0  0  0  0  0
  183.7600  178.7960  145.6480 O   0  0  0  0  0  1  0  0  0  0  0  0
  192.4440  175.5740  147.3150 C   0  0  0  0  0  1  0  0  0  0  0  0
  191.7670  176.7140  147.7510 O   0  0  0  0  0  0  0  0  0  0  0  0
  188.7350  177.8600  142.2090 C   0  0  1  0  0  3  0  0  0  0  0  0
  189.0810  177.0540  141.1410 C   0  0  1  0  0  3  0  0  0  0  0  0
  187.8390  177.8740  141.0130 N   0  0  0  0  0  0  0  0  0  0  0  0
  192.2530  177.8630  141.5820 O   0  0  0  0  0  1  0  0  0  0  0  0
  190.2340  177.6260  140.2910 C   0  0  1  0  0  3  0  0  0  0  0  0
  191.6470  177.0730  140.6070 C   0  0  1  0  0  3  0  0  0  0  0  0
  192.5340  177.0270  139.3660 C   0  0  0  0  0  2  0  0  0  0  0  0
  189.8720  177.5600  138.8020 C   0  0  0  0  0  2  0  0  0  0  0  0
  191.9150  176.1480  138.2720 C   0  0  0  0  0  2  0  0  0  0  0  0
  190.3860  176.2660  138.1750 C   0  0  0  0  0  2  0  0  0  0  0  0
  184.5110  179.3550  140.2880 C   0  0  0  0  0  3  0  0  0  0  0  0
  186.6850  178.3190  140.3090 C   0  0  0  0  0  0  0  0  0  0  0  0
  185.4610  178.5840  138.2510 C   0  0  0  0  0  3  0  0  0  0  0  0
  185.6360  178.9280  140.9980 C   0  0  0  0  0  3  0  0  0  0  0  0
  186.6020  178.1430  138.9260 C   0  0  0  0  0  3  0  0  0  0  0  0
  184.4480  179.1770  138.9400 N   0  0  0  0  0  0  0  0  0  0  0  0
  1  9  1  0  0  0  0
  3 11  1  0  0  0  0
  4 13  1  6  0  0  0
  4  6  1  0  0  0  0
  4  8  1  0  0  0  0
  5  9  1  0  0  0  0
  5  3  2  0  0  0  0
  6  7  1  0  0  0  0
  7 10  2  0  0  0  0
  7  2  1  0  0  0  0
  8  2  2  0  0  0  0
  9  6  2  0  0  0  0
 11 10  1  0  0  0  0
 11 17  1  1  0  0  0
 12 14  2  0  0  0  0
 14 13  1  0  0  0  0
 14 15  1  0  0  0  0
 16 17  1  0  0  0  0
 18  1  1  1  0  0  0
 19 20  1  6  0  0  0
 19 18  1  0  0  0  0
 20 18  1  0  0  0  0
 22 25  1  6  0  0  0
 22 23  1  0  0  0  0
 22 19  1  0  0  0  0
 23 21  1  1  0  0  0
 24 23  1  0  0  0  0
 26 24  1  0  0  0  0
 27 26  1  0  0  0  0
 27 25  1  0  0  0  0
 28 31  1  0  0  0  0
 29 31  2  0  0  0  0
 29 20  1  0  0  0  0
 30 32  2  0  0  0  0
 30 33  1  0  0  0  0
 32 29  1  0  0  0  0
 33 28  2  0  0  0  0
M  END
>  <MODEL>
1

>  <REMARK>
 VINA RESULT:      -9.4      0.000      0.000
  Name = 
  6 active torsions:
  status: ('A' for Active; 'I' for Inactive)
    1  A    between atoms: C_4  and  N_13
    2  A    between atoms: C_5  and  N_32
    3  A    between atoms: C_7  and  C_16
    4  A    between atoms: C_7  and  C_24
    5  A    between atoms: C_14  and  C_30
    6  A    between atoms: O_20  and  C_33
                            x       y       z     vdW  Elec       q    Type
                         _______ _______ _______ _____ _____    ______ ____

>  <TORSDO>
F 6

$$$$
=
 OpenBabel11042409493D

 33 37  0  0  1  0  0  0  0  0999 V2000
  185.3950  177.6310  142.2680 C   0  0  0  0  0  2  0  0  0  0  0  0
  181.4810  178.9480  139.8350 N   0  0  0  0  0  0  0  0  0  0  0  0
  182.5580  179.2500  144.1290 C   0  0  0  0  0  3  0  0  0  0  0  0
  183.6310  177.8610  139.8870 C   0  0  1  0  0  3  0  0  0  0  0  0
  183.7560  179.0110  143.6010 C   0  0  0  0  0  3  0  0  0  0  0  0
  183.2230  178.2750  141.2750 C   0  0  0  0  0  0  0  0  0  0  0  0
  181.8910  178.8600  141.1810 C   0  0  0  0  0  0  0  0  0  0  0  0
  182.4470  178.2640  138.9890 C   0  0  0  0  0  2  0  0  0  0  0  0
  184.0380  178.2590  142.3570 C   0  0  0  0  0  0  0  0  0  0  0  0
  181.0300  179.0750  142.1750 C   0  0  0  0  0  2  0  0  0  0  0  0
  181.2900  178.6780  143.5910 C   0  0  2  0  0  3  0  0  0  0  0  0
  186.6080  178.8900  138.0220 O   0  0  0  0  0  1  0  0  0  0  0  0
  184.8080  178.6080  139.4630 N   0  0  0  0  0  2  0  0  0  0  0  0
  185.6120  178.1990  138.3570 C   0  0  0  0  0  0  0  0  0  0  0  0
  185.3090  177.0410  137.6520 O   0  0  0  0  0  0  0  0  0  0  0  0
  179.1620  179.2840  143.5030 C   0  0  0  0  0  1  0  0  0  0  0  0
  180.2180  179.0790  144.3920 O   0  0  0  0  0  0  0  0  0  0  0  0
  186.3920  178.3840  143.1290 C   0  0  1  0  0  3  0  0  0  0  0  0
  186.9310  177.5490  144.0890 C   0  0  1  0  0  3  0  0  0  0  0  0
  187.7610  177.8390  142.8820 N   0  0  0  0  0  0  0  0  0  0  0  0
  185.6430  179.2840  146.5880 O   0  0  0  0  0  1  0  0  0  0  0  0
  187.4490  178.3010  145.3330 C   0  0  1  0  0  3  0  0  0  0  0  0
  186.5490  178.2250  146.5930 C   0  0  1  0  0  3  0  0  0  0  0  0
  187.3660  178.2590  147.8810 C   0  0  0  0  0  2  0  0  0  0  0  0
  188.9110  177.9250  145.6040 C   0  0  0  0  0  2  0  0  0  0  0  0
  188.3620  177.0950  147.9400 C   0  0  0  0  0  2  0  0  0  0  0  0
  188.9990  176.7570  146.5830 C   0  0  0  0  0  2  0  0  0  0  0  0
  190.0130  177.4960  139.9480 C   0  0  0  0  0  3  0  0  0  0  0  0
  188.9380  177.6990  142.0940 C   0  0  0  0  0  0  0  0  0  0  0  0
  191.3310  177.4830  141.9240 C   0  0  0  0  0  3  0  0  0  0  0  0
  188.8450  177.6360  140.7020 C   0  0  0  0  0  3  0  0  0  0  0  0
  190.1870  177.6220  142.7130 C   0  0  0  0  0  3  0  0  0  0  0  0
  191.2210  177.4230  140.5690 N   0  0  0  0  0  0  0  0  0  0  0  0
  1  9  1  0  0  0  0
  2  7  2  0  0  0  0
  4 13  1  6  0  0  0
  4  6  1  0  0  0  0
  5  3  2  0  0  0  0
  6  9  2  0  0  0  0
  7  6  1  0  0  0  0
  7 10  1  0  0  0  0
  8  2  1  0  0  0  0
  8  4  1  0  0  0  0
  9  5  1  0  0  0  0
 10 11  1  0  0  0  0
 11  3  1  0  0  0  0
 11 17  1  1  0  0  0
 12 14  1  0  0  0  0
 14 13  1  0  0  0  0
 15 14  2  0  0  0  0
 16 17  1  0  0  0  0
 18  1  1  6  0  0  0
 18 19  1  0  0  0  0
 19 20  1  6  0  0  0
 19 22  1  0  0  0  0
 20 18  1  0  0  0  0
 22 25  1  1  0  0  0
 22 23  1  0  0  0  0
 23 21  1  1  0  0  0
 23 24  1  0  0  0  0
 24 26  1  0  0  0  0
 25 27  1  0  0  0  0
 27 26  1  0  0  0  0
 28 33  2  0  0  0  0
 28 31  1  0  0  0  0
 29 32  1  0  0  0  0
 29 20  1  0  0  0  0
 30 32  2  0  0  0  0
 31 29  2  0  0  0  0
 33 30  1  0  0  0  0
M  END
>  <MODEL>
2

>  <REMARK>
 VINA RESULT:      -9.1      2.789      7.681
  Name = 
  6 active torsions:
  status: ('A' for Active; 'I' for Inactive)
    1  A    between atoms: C_4  and  N_13
    2  A    between atoms: C_5  and  N_32
    3  A    between atoms: C_7  and  C_16
    4  A    between atoms: C_7  and  C_24
    5  A    between atoms: C_14  and  C_30
    6  A    between atoms: O_20  and  C_33
                            x       y       z     vdW  Elec       q    Type
                         _______ _______ _______ _____ _____    ______ ____

>  <TORSDO>
F 6

$$$$
=
 OpenBabel11042409493D

 33 37  0  0  1  0  0  0  0  0999 V2000
  187.9030  178.2810  140.8410 C   0  0  0  0  0  2  0  0  0  0  0  0
  187.8490  177.5890  136.0980 N   0  0  0  0  0  0  0  0  0  0  0  0
  190.7250  176.3720  139.2520 C   0  0  0  0  0  3  0  0  0  0  0  0
  186.8860  178.5930  138.0660 C   0  0  1  0  0  3  0  0  0  0  0  0
  189.6720  176.6890  140.0010 C   0  0  0  0  0  3  0  0  0  0  0  0
  188.1800  177.9070  138.4130 C   0  0  0  0  0  0  0  0  0  0  0  0
  188.7410  177.3840  137.1720 C   0  0  0  0  0  0  0  0  0  0  0  0
  186.7360  178.4140  136.5450 C   0  0  0  0  0  2  0  0  0  0  0  0
  188.6200  177.6780  139.6730 C   0  0  0  0  0  0  0  0  0  0  0  0
  189.9930  176.9860  136.9560 C   0  0  0  0  0  2  0  0  0  0  0  0
  191.0750  177.0720  137.9820 C   0  0  2  0  0  3  0  0  0  0  0  0
  183.6940  178.0130  139.7630 O   0  0  0  0  0  1  0  0  0  0  0  0
  185.7690  177.9260  138.7230 N   0  0  0  0  0  2  0  0  0  0  0  0
  184.6400  178.6410  139.2200 C   0  0  0  0  0  0  0  0  0  0  0  0
  184.5770  180.0250  139.1150 O   0  0  0  0  0  0  0  0  0  0  0  0
  192.1140  175.1550  137.5980 C   0  0  0  0  0  1  0  0  0  0  0  0
  192.2560  176.5360  137.4620 O   0  0  0  0  0  0  0  0  0  0  0  0
  187.9110  177.3290  142.0240 C   0  0  1  0  0  3  0  0  0  0  0  0
  188.6390  177.8630  143.0710 C   0  0  1  0  0  3  0  0  0  0  0  0
  187.1500  177.9450  143.1520 N   0  0  0  0  0  0  0  0  0  0  0  0
  190.5060  175.1480  142.8480 O   0  0  0  0  0  1  0  0  0  0  0  0
  189.2060  176.7960  144.0290 C   0  0  1  0  0  3  0  0  0  0  0  0
  190.6180  176.2580  143.6830 C   0  0  1  0  0  3  0  0  0  0  0  0
  191.4070  175.8780  144.9320 C   0  0  0  0  0  2  0  0  0  0  0  0
  189.0740  177.2710  145.4820 C   0  0  0  0  0  2  0  0  0  0  0  0
  191.5760  177.0790  145.8710 C   0  0  0  0  0  2  0  0  0  0  0  0
  190.3410  177.9920  145.9360 C   0  0  0  0  0  2  0  0  0  0  0  0
  183.6470  179.0610  143.6850 C   0  0  0  0  0  3  0  0  0  0  0  0
  185.9380  178.3240  143.7950 C   0  0  0  0  0  0  0  0  0  0  0  0
  184.6640  178.7100  145.8030 C   0  0  0  0  0  3  0  0  0  0  0  0
  184.8260  178.6900  143.0340 C   0  0  0  0  0  3  0  0  0  0  0  0
  185.8610  178.3330  145.1890 C   0  0  0  0  0  3  0  0  0  0  0  0
  183.5910  179.0630  145.0450 N   0  0  0  0  0  0  0  0  0  0  0  0
  2  8  1  0  0  0  0
  2  7  2  0  0  0  0
  3  5  2  0  0  0  0
  4  6  1  0  0  0  0
  4 13  1  1  0  0  0
  6  9  2  0  0  0  0
  7  6  1  0  0  0  0
  8  4  1  0  0  0  0
  9  5  1  0  0  0  0
  9  1  1  0  0  0  0
 10  7  1  0  0  0  0
 10 11  1  0  0  0  0
 11 17  1  6  0  0  0
 11  3  1  0  0  0  0
 13 14  1  0  0  0  0
 14 12  1  0  0  0  0
 15 14  2  0  0  0  0
 17 16  1  0  0  0  0
 18  1  1  6  0  0  0
 18 19  1  0  0  0  0
 18 20  1  0  0  0  0
 19 20  1  1  0  0  0
 19 22  1  0  0  0  0
 20 29  1  0  0  0  0
 22 25  1  1  0  0  0
 23 21  1  6  0  0  0
 23 22  1  0  0  0  0
 23 24  1  0  0  0  0
 24 26  1  0  0  0  0
 25 27  1  0  0  0  0
 26 27  1  0  0  0  0
 28 33  1  0  0  0  0
 29 32  2  0  0  0  0
 31 28  2  0  0  0  0
 31 29  1  0  0  0  0
 32 30  1  0  0  0  0
 33 30  2  0  0  0  0
M  END
>  <MODEL>
3

>  <REMARK>
 VINA RESULT:      -9.0      2.372      6.759
  Name = 
  6 active torsions:
  status: ('A' for Active; 'I' for Inactive)
    1  A    between atoms: C_4  and  N_13
    2  A    between atoms: C_5  and  N_32
    3  A    between atoms: C_7  and  C_16
    4  A    between atoms: C_7  and  C_24
    5  A    between atoms: C_14  and  C_30
    6  A    between atoms: O_20  and  C_33
                            x       y       z     vdW  Elec       q    Type
                         _______ _______ _______ _____ _____    ______ ____

>  <TORSDO>
F 6

$$$$
=
 OpenBabel11042409493D

 33 37  0  0  1  0  0  0  0  0999 V2000
  188.8760  178.1910  142.7170 C   0  0  0  0  0  2  0  0  0  0  0  0
  187.8660  177.3740  147.3310 N   0  0  0  0  0  0  0  0  0  0  0  0
  185.2790  178.1710  143.8140 C   0  0  0  0  0  3  0  0  0  0  0  0
  189.4910  177.7350  145.5880 C   0  0  1  0  0  3  0  0  0  0  0  0
  186.4220  177.8620  143.2030 C   0  0  0  0  0  3  0  0  0  0  0  0
  188.0990  177.9310  145.0500 C   0  0  0  0  0  0  0  0  0  0  0  0
  187.1740  177.7670  146.1660 C   0  0  0  0  0  0  0  0  0  0  0  0
  189.2990  177.4320  147.0850 C   0  0  0  0  0  3  0  0  0  0  0  0
  187.7880  178.0540  143.7380 C   0  0  0  0  0  0  0  0  0  0  0  0
  185.9000  178.1480  146.2220 C   0  0  0  0  0  3  0  0  0  0  0  0
  185.2100  178.8850  145.1210 C   0  0  2  0  0  3  0  0  0  0  0  0
  191.8860  175.6290  143.7900 O   0  0  0  0  0  0  0  0  0  0  0  0
  190.1180  176.5800  144.9590 N   0  0  0  0  0  2  0  0  0  0  0  0
  191.3810  176.6620  144.3010 C   0  0  0  0  0  0  0  0  0  0  0  0
  192.0560  177.8730  144.2160 O   0  0  0  0  0  1  0  0  0  0  0  0
  183.1710  179.0020  144.2670 C   0  0  0  0  0  1  0  0  0  0  0  0
  183.8740  179.0990  145.4680 O   0  0  0  0  0  0  0  0  0  0  0  0
  188.5370  177.4010  141.4660 C   0  0  1  0  0  3  0  0  0  0  0  0
  188.3290  178.2530  140.3970 C   0  0  1  0  0  3  0  0  0  0  0  0
  189.6460  177.5540  140.4760 N   0  0  0  0  0  0  0  0  0  0  0  0
  185.1180  178.2570  139.6210 O   0  0  0  0  0  1  0  0  0  0  0  0
  187.4270  177.6500  139.3010 C   0  0  1  0  0  3  0  0  0  0  0  0
  186.2390  178.5330  138.8390 C   0  0  1  0  0  3  0  0  0  0  0  0
  185.9010  178.3130  137.3680 C   0  0  0  0  0  2  0  0  0  0  0  0
  188.2860  177.1290  138.1410 C   0  0  0  0  0  2  0  0  0  0  0  0
  187.1020  178.6290  136.4680 C   0  0  0  0  0  2  0  0  0  0  0  0
  188.4510  178.2000  137.0640 C   0  0  0  0  0  2  0  0  0  0  0  0
  193.3470  177.3130  140.2650 C   0  0  0  0  0  3  0  0  0  0  0  0
  190.9540  177.2640  139.9950 C   0  0  0  0  0  0  0  0  0  0  0  0
  192.4090  176.3620  138.3010 C   0  0  0  0  0  3  0  0  0  0  0  0
  192.0730  177.6050  140.7570 C   0  0  0  0  0  3  0  0  0  0  0  0
  191.1190  176.6380  138.7580 C   0  0  0  0  0  3  0  0  0  0  0  0
  193.4880  176.7020  139.0580 N   0  0  0  0  0  0  0  0  0  0  0  0
  1  9  1  0  0  0  0
  3 11  1  0  0  0  0
  4 13  1  6  0  0  0
  4  8  1  0  0  0  0
  5  9  1  0  0  0  0
  5  3  2  0  0  0  0
  6  4  1  0  0  0  0
  6  7  1  0  0  0  0
  7 10  2  0  0  0  0
  7  2  1  0  0  0  0
  8  2  2  0  0  0  0
  9  6  2  0  0  0  0
 11 17  1  1  0  0  0
 11 10  1  0  0  0  0
 12 14  2  0  0  0  0
 14 13  1  0  0  0  0
 15 14  1  0  0  0  0
 16 17  1  0  0  0  0
 18  1  1  1  0  0  0
 19 20  1  6  0  0  0
 19 18  1  0  0  0  0
 20 18  1  0  0  0  0
 22 25  1  6  0  0  0
 22 19  1  0  0  0  0
 23 22  1  0  0  0  0
 23 21  1  1  0  0  0
 24 23  1  0  0  0  0
 26 27  1  0  0  0  0
 26 24  1  0  0  0  0
 27 25  1  0  0  0  0
 28 31  1  0  0  0  0
 29 20  1  0  0  0  0
 29 31  2  0  0  0  0
 30 32  2  0  0  0  0
 30 33  1  0  0  0  0
 32 29  1  0  0  0  0
 33 28  2  0  0  0  0
M  END
>  <MODEL>
4

>  <REMARK>
 VINA RESULT:      -9.0      2.082      5.624
  Name = 
  6 active torsions:
  status: ('A' for Active; 'I' for Inactive)
    1  A    between atoms: C_4  and  N_13
    2  A    between atoms: C_5  and  N_32
    3  A    between atoms: C_7  and  C_16
    4  A    between atoms: C_7  and  C_24
    5  A    between atoms: C_14  and  C_30
    6  A    between atoms: O_20  and  C_33
                            x       y       z     vdW  Elec       q    Type
                         _______ _______ _______ _____ _____    ______ ____

>  <TORSDO>
F 6

$$$$
=
 OpenBabel11042409493D

 33 37  0  0  1  0  0  0  0  0999 V2000
  186.9690  177.4920  142.2500 C   0  0  0  0  0  2  0  0  0  0  0  0
  183.4650  179.2870  144.9840 N   0  0  0  0  0  0  0  0  0  0  0  0
  187.6910  178.2530  145.8610 C   0  0  0  0  0  3  0  0  0  0  0  0
  184.2010  178.3710  142.8800 C   0  0  1  0  0  3  0  0  0  0  0  0
  187.7220  178.2690  144.5300 C   0  0  0  0  0  3  0  0  0  0  0  0
  185.3070  178.2900  143.8970 C   0  0  0  0  0  0  0  0  0  0  0  0
  184.7750  178.7940  145.1580 C   0  0  0  0  0  0  0  0  0  0  0  0
  183.0040  178.9700  143.6400 C   0  0  0  0  0  2  0  0  0  0  0  0
  186.5940  177.9760  143.6170 C   0  0  0  0  0  0  0  0  0  0  0  0
  185.2870  178.6260  146.3760 C   0  0  0  0  0  2  0  0  0  0  0  0
  186.5070  177.8100  146.6530 C   0  0  2  0  0  3  0  0  0  0  0  0
  184.5810  179.8490  139.5520 O   0  0  0  0  0  0  0  0  0  0  0  0
  184.5700  179.2830  141.8050 N   0  0  0  0  0  2  0  0  0  0  0  0
  184.2550  179.0180  140.4390 C   0  0  0  0  0  0  0  0  0  0  0  0
  183.5960  177.8490  140.0790 O   0  0  0  0  0  1  0  0  0  0  0  0
  188.1900  177.6930  148.0860 C   0  0  0  0  0  1  0  0  0  0  0  0
  186.8080  177.8670  148.0160 O   0  0  0  0  0  0  0  0  0  0  0  0
  188.4600  177.6510  142.0160 C   0  0  1  0  0  3  0  0  0  0  0  0
  189.0560  176.4190  141.8210 C   0  0  1  0  0  3  0  0  0  0  0  0
  188.7810  177.2520  140.6130 N   0  0  0  0  0  0  0  0  0  0  0  0
  191.8190  177.8780  140.7510 O   0  0  0  0  0  1  0  0  0  0  0  0
  190.5570  176.4010  142.1750 C   0  0  1  0  0  3  0  0  0  0  0  0
  191.3000  177.7550  142.0390 C   0  0  1  0  0  3  0  0  0  0  0  0
  192.4280  177.8920  143.0580 C   0  0  0  0  0  2  0  0  0  0  0  0
  190.7680  175.7230  143.5340 C   0  0  0  0  0  2  0  0  0  0  0  0
  191.8980  177.7850  144.4930 C   0  0  0  0  0  2  0  0  0  0  0  0
  190.7720  176.7540  144.6610 C   0  0  0  0  0  2  0  0  0  0  0  0
  189.0560  178.9750  137.3340 C   0  0  0  0  0  3  0  0  0  0  0  0
  188.7960  177.4850  139.2090 C   0  0  0  0  0  0  0  0  0  0  0  0
  188.5750  176.6810  136.9490 C   0  0  0  0  0  3  0  0  0  0  0  0
  189.0480  178.7670  138.7150 C   0  0  0  0  0  3  0  0  0  0  0  0
  188.5580  176.4320  138.3230 C   0  0  0  0  0  3  0  0  0  0  0  0
  188.8220  177.9370  136.4860 N   0  0  0  0  0  0  0  0  0  0  0  0
  1  9  1  0  0  0  0
  2  7  2  0  0  0  0
  3 11  1  0  0  0  0
  4 13  1  6  0  0  0
  4  8  1  0  0  0  0
  4  6  1  0  0  0  0
  5  3  2  0  0  0  0
  6  7  1  0  0  0  0
  7 10  1  0  0  0  0
  8  2  1  0  0  0  0
  9  6  2  0  0  0  0
  9  5  1  0  0  0  0
 10 11  1  0  0  0  0
 11 17  1  1  0  0  0
 12 14  2  0  0  0  0
 14 13  1  0  0  0  0
 15 14  1  0  0  0  0
 17 16  1  0  0  0  0
 18  1  1  6  0  0  0
 19 20  1  6  0  0  0
 19 18  1  0  0  0  0
 19 22  1  0  0  0  0
 20 18  1  0  0  0  0
 22 25  1  1  0  0  0
 23 21  1  6  0  0  0
 23 22  1  0  0  0  0
 23 24  1  0  0  0  0
 24 26  1  0  0  0  0
 25 27  1  0  0  0  0
 26 27  1  0  0  0  0
 28 31  1  0  0  0  0
 29 20  1  0  0  0  0
 30 32  2  0  0  0  0
 31 29  2  0  0  0  0
 32 29  1  0  0  0  0
 33 30  1  0  0  0  0
 33 28  2  0  0  0  0
M  END
>  <MODEL>
5

>  <REMARK>
 VINA RESULT:      -8.8      2.352      3.982
  Name = 
  6 active torsions:
  status: ('A' for Active; 'I' for Inactive)
    1  A    between atoms: C_4  and  N_13
    2  A    between atoms: C_5  and  N_32
    3  A    between atoms: C_7  and  C_16
    4  A    between atoms: C_7  and  C_24
    5  A    between atoms: C_14  and  C_30
    6  A    between atoms: O_20  and  C_33
                            x       y       z     vdW  Elec       q    Type
                         _______ _______ _______ _____ _____    ______ ____

>  <TORSDO>
F 6

$$$$
=
 OpenBabel11042409493D

 33 37  0  0  1  0  0  0  0  0999 V2000
  187.4880  178.5240  141.4380 C   0  0  0  0  0  2  0  0  0  0  0  0
  189.2470  177.5450  137.0870 N   0  0  0  0  0  0  0  0  0  0  0  0
  190.8450  176.8510  141.1690 C   0  0  0  0  0  3  0  0  0  0  0  0
  187.5460  178.5510  138.4670 C   0  0  1  0  0  3  0  0  0  0  0  0
  189.5670  177.0930  141.4530 C   0  0  0  0  0  3  0  0  0  0  0  0
  188.6720  178.0370  139.3220 C   0  0  0  0  0  0  0  0  0  0  0  0
  189.6930  177.5070  138.4250 C   0  0  0  0  0  0  0  0  0  0  0  0
  187.9840  178.2650  137.0190 C   0  0  0  0  0  2  0  0  0  0  0  0
  188.6340  177.9360  140.6720 C   0  0  0  0  0  0  0  0  0  0  0  0
  190.9650  177.2390  138.7160 C   0  0  0  0  0  2  0  0  0  0  0  0
  191.5800  177.5080  140.0500 C   0  0  2  0  0  3  0  0  0  0  0  0
  184.0240  177.7400  139.0510 O   0  0  0  0  0  1  0  0  0  0  0  0
  186.3250  177.8040  138.7370 N   0  0  0  0  0  2  0  0  0  0  0  0
  185.0500  178.4360  138.8330 C   0  0  0  0  0  0  0  0  0  0  0  0
  184.9310  179.8130  138.6940 O   0  0  0  0  0  0  0  0  0  0  0  0
  193.1760  176.7500  138.7160 C   0  0  0  0  0  1  0  0  0  0  0  0
  192.9090  177.0780  140.0460 O   0  0  0  0  0  0  0  0  0  0  0  0
  187.1340  177.6500  142.6270 C   0  0  1  0  0  3  0  0  0  0  0  0
  187.3390  178.3340  143.8100 C   0  0  1  0  0  3  0  0  0  0  0  0
  185.9360  178.2200  143.3130 N   0  0  0  0  0  0  0  0  0  0  0  0
  189.8830  176.6540  145.0830 O   0  0  0  0  0  1  0  0  0  0  0  0
  187.5960  177.4080  145.0160 C   0  0  1  0  0  3  0  0  0  0  0  0
  188.9890  177.5380  145.6850 C   0  0  1  0  0  3  0  0  0  0  0  0
  188.9310  177.2600  147.1850 C   0  0  0  0  0  2  0  0  0  0  0  0
  186.4310  177.5040  146.0100 C   0  0  0  0  0  2  0  0  0  0  0  0
  187.9740  178.2270  147.8930 C   0  0  0  0  0  2  0  0  0  0  0  0
  186.7140  178.5570  147.0780 C   0  0  0  0  0  2  0  0  0  0  0  0
  182.3710  178.6750  142.3760 C   0  0  0  0  0  3  0  0  0  0  0  0
  184.5380  178.4690  143.4070 C   0  0  0  0  0  0  0  0  0  0  0  0
  182.5890  179.0040  144.7180 C   0  0  0  0  0  3  0  0  0  0  0  0
  183.7400  178.4250  142.2620 C   0  0  0  0  0  3  0  0  0  0  0  0
  183.9630  178.7600  144.6460 C   0  0  0  0  0  3  0  0  0  0  0  0
  181.8280  178.9560  143.5920 N   0  0  0  0  0  0  0  0  0  0  0  0
  2  7  2  0  0  0  0
  3  5  2  0  0  0  0
  4 13  1  1  0  0  0
  4  6  1  0  0  0  0
  6  9  2  0  0  0  0
  7 10  1  0  0  0  0
  7  6  1  0  0  0  0
  8  2  1  0  0  0  0
  8  4  1  0  0  0  0
  9  1  1  0  0  0  0
  9  5  1  0  0  0  0
 10 11  1  0  0  0  0
 11 17  1  6  0  0  0
 11  3  1  0  0  0  0
 13 14  1  0  0  0  0
 14 12  1  0  0  0  0
 15 14  2  0  0  0  0
 16 17  1  0  0  0  0
 18  1  1  6  0  0  0
 18 20  1  0  0  0  0
 18 19  1  0  0  0  0
 19 20  1  1  0  0  0
 19 22  1  0  0  0  0
 20 29  1  0  0  0  0
 22 23  1  0  0  0  0
 22 25  1  1  0  0  0
 23 21  1  6  0  0  0
 23 24  1  0  0  0  0
 24 26  1  0  0  0  0
 25 27  1  0  0  0  0
 27 26  1  0  0  0  0
 28 33  1  0  0  0  0
 29 32  2  0  0  0  0
 31 28  2  0  0  0  0
 31 29  1  0  0  0  0
 32 30  1  0  0  0  0
 33 30  2  0  0  0  0
M  END
>  <MODEL>
6

>  <REMARK>
 VINA RESULT:      -8.6      2.299      6.687
  Name = 
  6 active torsions:
  status: ('A' for Active; 'I' for Inactive)
    1  A    between atoms: C_4  and  N_13
    2  A    between atoms: C_5  and  N_32
    3  A    between atoms: C_7  and  C_16
    4  A    between atoms: C_7  and  C_24
    5  A    between atoms: C_14  and  C_30
    6  A    between atoms: O_20  and  C_33
                            x       y       z     vdW  Elec       q    Type
                         _______ _______ _______ _____ _____    ______ ____

>  <TORSDO>
F 6

$$$$
=
 OpenBabel11042409493D

 33 37  0  0  1  0  0  0  0  0999 V2000
  188.6800  178.4470  141.3880 C   0  0  0  0  0  2  0  0  0  0  0  0
  186.9480  177.4380  145.7420 N   0  0  0  0  0  0  0  0  0  0  0  0
  184.9540  178.3800  141.8910 C   0  0  0  0  0  3  0  0  0  0  0  0
  188.8290  177.8720  144.3000 C   0  0  1  0  0  3  0  0  0  0  0  0
  186.1820  178.0980  141.4590 C   0  0  0  0  0  3  0  0  0  0  0  0
  187.5410  178.0900  143.5530 C   0  0  0  0  0  0  0  0  0  0  0  0
  186.4500  177.8790  144.4980 C   0  0  0  0  0  0  0  0  0  0  0  0
  188.4010  177.5070  145.7330 C   0  0  0  0  0  3  0  0  0  0  0  0
  187.4430  178.2670  142.2140 C   0  0  0  0  0  0  0  0  0  0  0  0
  185.1800  178.2570  144.3640 C   0  0  0  0  0  3  0  0  0  0  0  0
  184.6710  179.0390  143.1980 C   0  0  2  0  0  3  0  0  0  0  0  0
  191.5280  175.5460  143.4580 O   0  0  0  0  0  0  0  0  0  0  0  0
  189.5570  176.7450  143.7330 N   0  0  0  0  0  2  0  0  0  0  0  0
  190.9520  176.5480  143.9570 C   0  0  0  0  0  0  0  0  0  0  0  0
  191.6810  177.4530  144.7180 O   0  0  0  0  0  1  0  0  0  0  0  0
  183.0300  179.0040  144.6840 C   0  0  0  0  0  1  0  0  0  0  0  0
  183.2950  179.2380  143.3340 O   0  0  0  0  0  0  0  0  0  0  0  0
  188.6060  177.6100  140.1240 C   0  0  1  0  0  3  0  0  0  0  0  0
  188.7380  178.4100  139.0040 C   0  0  1  0  0  3  0  0  0  0  0  0
  189.9350  177.6330  139.4440 N   0  0  0  0  0  0  0  0  0  0  0  0
  188.7810  175.5190  137.4060 O   0  0  0  0  0  1  0  0  0  0  0  0
  188.0960  177.8040  137.7400 C   0  0  1  0  0  3  0  0  0  0  0  0
  187.7100  176.3050  137.8280 C   0  0  1  0  0  3  0  0  0  0  0  0
  186.4780  175.9820  136.9880 C   0  0  0  0  0  2  0  0  0  0  0  0
  186.9510  178.7010  137.2520 C   0  0  0  0  0  2  0  0  0  0  0  0
  185.2670  176.8090  137.4340 C   0  0  0  0  0  2  0  0  0  0  0  0
  185.6170  178.2480  137.8410 C   0  0  0  0  0  2  0  0  0  0  0  0
  193.0670  176.1740  138.0780 C   0  0  0  0  0  3  0  0  0  0  0  0
  191.2950  177.2300  139.3230 C   0  0  0  0  0  0  0  0  0  0  0  0
  193.5270  177.0970  140.2180 C   0  0  0  0  0  3  0  0  0  0  0  0
  191.7280  176.5630  138.1760 C   0  0  0  0  0  3  0  0  0  0  0  0
  192.1970  177.5010  140.3530 C   0  0  0  0  0  3  0  0  0  0  0  0
  193.9320  176.4480  139.0920 N   0  0  0  0  0  0  0  0  0  0  0  0
  1  9  1  0  0  0  0
  3 11  1  0  0  0  0
  4 13  1  6  0  0  0
  4  8  1  0  0  0  0
  5  3  2  0  0  0  0
  5  9  1  0  0  0  0
  6  4  1  0  0  0  0
  6  7  1  0  0  0  0
  7  2  1  0  0  0  0
  8  2  2  0  0  0  0
  9  6  2  0  0  0  0
 10  7  2  0  0  0  0
 11 17  1  1  0  0  0
 11 10  1  0  0  0  0
 12 14  2  0  0  0  0
 13 14  1  0  0  0  0
 14 15  1  0  0  0  0
 17 16  1  0  0  0  0
 18  1  1  1  0  0  0
 19 20  1  6  0  0  0
 19 18  1  0  0  0  0
 20 18  1  0  0  0  0
 22 25  1  1  0  0  0
 22 23  1  0  0  0  0
 22 19  1  0  0  0  0
 23 21  1  6  0  0  0
 24 26  1  0  0  0  0
 24 23  1  0  0  0  0
 25 27  1  0  0  0  0
 26 27  1  0  0  0  0
 28 31  2  0  0  0  0
 28 33  1  0  0  0  0
 29 20  1  0  0  0  0
 29 32  2  0  0  0  0
 30 32  1  0  0  0  0
 31 29  1  0  0  0  0
 33 30  2  0  0  0  0
M  END
>  <MODEL>
7

>  <REMARK>
 VINA RESULT:      -8.6      2.298      6.031
  Name = 
  6 active torsions:
  status: ('A' for Active; 'I' for Inactive)
    1  A    between atoms: C_4  and  N_13
    2  A    between atoms: C_5  and  N_32
    3  A    between atoms: C_7  and  C_16
    4  A    between atoms: C_7  and  C_24
    5  A    between atoms: C_14  and  C_30
    6  A    between atoms: O_20  and  C_33
                            x       y       z     vdW  Elec       q    Type
                         _______ _______ _______ _____ _____    ______ ____

>  <TORSDO>
F 6

$$$$
=
 OpenBabel11042409493D

 33 37  0  0  1  0  0  0  0  0999 V2000
  186.8390  179.0030  141.4850 C   0  0  0  0  0  2  0  0  0  0  0  0
  182.2140  178.8070  142.7280 N   0  0  0  0  0  0  0  0  0  0  0  0
  184.2580  178.4740  138.8030 C   0  0  0  0  0  3  0  0  0  0  0  0
  184.5180  179.1730  143.3330 C   0  0  1  0  0  3  0  0  0  0  0  0
  185.2900  178.2930  139.6240 C   0  0  0  0  0  3  0  0  0  0  0  0
  184.3930  179.0000  141.8430 C   0  0  0  0  0  0  0  0  0  0  0  0
  182.9740  178.8530  141.5400 C   0  0  0  0  0  0  0  0  0  0  0  0
  183.0750  179.0990  143.8640 C   0  0  0  0  0  3  0  0  0  0  0  0
  185.4340  178.8340  140.9940 C   0  0  0  0  0  0  0  0  0  0  0  0
  182.3820  178.9830  140.3540 C   0  0  0  0  0  3  0  0  0  0  0  0
  183.1090  179.3740  139.1090 C   0  0  2  0  0  3  0  0  0  0  0  0
  186.4640  177.1410  145.6750 O   0  0  0  0  0  0  0  0  0  0  0  0
  185.2790  178.0710  143.9060 N   0  0  0  0  0  2  0  0  0  0  0  0
  185.8300  178.1290  145.2220 C   0  0  0  0  0  0  0  0  0  0  0  0
  185.6760  179.2660  146.0030 O   0  0  0  0  0  1  0  0  0  0  0  0
  182.0650  178.0380  137.6850 C   0  0  0  0  0  1  0  0  0  0  0  0
  182.2190  179.3800  138.0320 O   0  0  0  0  0  0  0  0  0  0  0  0
  187.7900  178.1140  140.7040 C   0  0  1  0  0  3  0  0  0  0  0  0
  188.8100  178.8640  140.1490 C   0  0  1  0  0  3  0  0  0  0  0  0
  189.1160  178.0940  141.3910 N   0  0  0  0  0  0  0  0  0  0  0  0
  190.2730  176.0030  139.3810 O   0  0  0  0  0  1  0  0  0  0  0  0
  189.4400  178.2120  138.9010 C   0  0  1  0  0  3  0  0  0  0  0  0
  189.2280  176.6830  138.7560 C   0  0  1  0  0  3  0  0  0  0  0  0
  189.1440  176.2540  137.2940 C   0  0  0  0  0  2  0  0  0  0  0  0
  189.0550  179.0030  137.6440 C   0  0  0  0  0  2  0  0  0  0  0  0
  187.9910  176.9620  136.5720 C   0  0  0  0  0  2  0  0  0  0  0  0
  187.7970  178.4240  137.0020 C   0  0  0  0  0  2  0  0  0  0  0  0
  191.1430  175.9260  143.6240 C   0  0  0  0  0  3  0  0  0  0  0  0
  189.9880  177.6720  142.4340 C   0  0  0  0  0  0  0  0  0  0  0  0
  191.3970  178.1830  144.3200 C   0  0  0  0  0  3  0  0  0  0  0  0
  190.2860  176.3180  142.5930 C   0  0  0  0  0  3  0  0  0  0  0  0
  190.5450  178.6150  143.3010 C   0  0  0  0  0  3  0  0  0  0  0  0
  191.6760  176.8580  144.4600 N   0  0  0  0  0  0  0  0  0  0  0  0
  2  8  2  0  0  0  0
  3 11  1  0  0  0  0
  3  5  2  0  0  0  0
  4  8  1  0  0  0  0
  4 13  1  1  0  0  0
  5  9  1  0  0  0  0
  6  4  1  0  0  0  0
  7  6  1  0  0  0  0
  7  2  1  0  0  0  0
  9  1  1  0  0  0  0
  9  6  2  0  0  0  0
 10  7  2  0  0  0  0
 11 17  1  6  0  0  0
 11 10  1  0  0  0  0
 13 14  1  0  0  0  0
 14 12  2  0  0  0  0
 14 15  1  0  0  0  0
 16 17  1  0  0  0  0
 18 20  1  0  0  0  0
 18  1  1  1  0  0  0
 19 18  1  0  0  0  0
 19 20  1  1  0  0  0
 20 29  1  0  0  0  0
 22 25  1  6  0  0  0
 22 19  1  0  0  0  0
 23 22  1  0  0  0  0
 23 21  1  6  0  0  0
 24 23  1  0  0  0  0
 26 27  1  0  0  0  0
 26 24  1  0  0  0  0
 27 25  1  0  0  0  0
 28 33  1  0  0  0  0
 29 31  1  0  0  0  0
 29 32  2  0  0  0  0
 30 33  2  0  0  0  0
 31 28  2  0  0  0  0
 32 30  1  0  0  0  0
M  END
>  <MODEL>
8

>  <REMARK>
 VINA RESULT:      -8.6      2.567      6.522
  Name = 
  6 active torsions:
  status: ('A' for Active; 'I' for Inactive)
    1  A    between atoms: C_4  and  N_13
    2  A    between atoms: C_5  and  N_32
    3  A    between atoms: C_7  and  C_16
    4  A    between atoms: C_7  and  C_24
    5  A    between atoms: C_14  and  C_30
    6  A    between atoms: O_20  and  C_33
                            x       y       z     vdW  Elec       q    Type
                         _______ _______ _______ _____ _____    ______ ____

>  <TORSDO>
F 6

$$$$
=
 OpenBabel11042409493D

 33 37  0  0  1  0  0  0  0  0999 V2000
  187.1530  178.1940  141.5260 C   0  0  0  0  0  2  0  0  0  0  0  0
  191.7850  176.9760  141.7290 N   0  0  0  0  0  0  0  0  0  0  0  0
  188.5500  176.8970  144.7660 C   0  0  0  0  0  3  0  0  0  0  0  0
  189.9320  177.9190  140.5090 C   0  0  1  0  0  3  0  0  0  0  0  0
  187.8280  177.0190  143.6540 C   0  0  0  0  0  3  0  0  0  0  0  0
  189.5260  177.6290  141.9290 C   0  0  0  0  0  0  0  0  0  0  0  0
  190.7060  177.1280  142.6250 C   0  0  0  0  0  0  0  0  0  0  0  0
  191.4210  177.5360  140.4360 C   0  0  0  0  0  2  0  0  0  0  0  0
  188.2540  177.6640  142.3920 C   0  0  0  0  0  0  0  0  0  0  0  0
  190.8910  177.0390  143.9410 C   0  0  0  0  0  2  0  0  0  0  0  0
  189.8950  177.5130  144.9480 C   0  0  2  0  0  3  0  0  0  0  0  0
  187.9790  176.7960  137.6240 O   0  0  0  0  0  0  0  0  0  0  0  0
  189.1900  177.0700  139.5880 N   0  0  0  0  0  2  0  0  0  0  0  0
  188.5950  177.5780  138.3950 C   0  0  0  0  0  0  0  0  0  0  0  0
  188.6840  178.9270  138.0790 O   0  0  0  0  0  1  0  0  0  0  0  0
  189.2420  177.3330  147.0560 C   0  0  0  0  0  1  0  0  0  0  0  0
  190.3660  177.2390  146.2350 O   0  0  0  0  0  0  0  0  0  0  0  0
  185.8490  178.2630  142.2990 C   0  0  1  0  0  3  0  0  0  0  0  0
  185.4220  179.5720  142.4150 C   0  0  1  0  0  3  0  0  0  0  0  0
  184.7610  178.7200  141.3830 N   0  0  0  0  0  0  0  0  0  0  0  0
  182.3030  178.9030  143.2740 O   0  0  0  0  0  1  0  0  0  0  0  0
  184.5050  179.8110  143.6320 C   0  0  1  0  0  3  0  0  0  0  0  0
  183.4980  178.6770  143.9550 C   0  0  1  0  0  3  0  0  0  0  0  0
  183.2200  178.5680  145.4510 C   0  0  0  0  0  2  0  0  0  0  0  0
  185.3410  180.2460  144.8420 C   0  0  0  0  0  2  0  0  0  0  0  0
  184.5070  178.2960  146.2380 C   0  0  0  0  0  2  0  0  0  0  0  0
  185.7350  179.0410  145.6930 C   0  0  0  0  0  2  0  0  0  0  0  0
  182.2020  177.1170  139.2190 C   0  0  0  0  0  3  0  0  0  0  0  0
  183.8270  178.5050  140.3300 C   0  0  0  0  0  0  0  0  0  0  0  0
  182.7100  179.2620  138.3350 C   0  0  0  0  0  3  0  0  0  0  0  0
  183.1110  177.3080  140.2620 C   0  0  0  0  0  3  0  0  0  0  0  0
  183.6280  179.4910  139.3620 C   0  0  0  0  0  3  0  0  0  0  0  0
  182.0210  178.0890  138.2850 N   0  0  0  0  0  0  0  0  0  0  0  0
  1  9  1  0  0  0  0
  2  7  2  0  0  0  0
  3 11  1  0  0  0  0
  4 13  1  6  0  0  0
  4  6  1  0  0  0  0
  5  3  2  0  0  0  0
  6  9  2  0  0  0  0
  6  7  1  0  0  0  0
  7 10  1  0  0  0  0
  8  4  1  0  0  0  0
  8  2  1  0  0  0  0
  9  5  1  0  0  0  0
 10 11  1  0  0  0  0
 11 17  1  1  0  0  0
 12 14  2  0  0  0  0
 14 13  1  0  0  0  0
 15 14  1  0  0  0  0
 17 16  1  0  0  0  0
 18  1  1  6  0  0  0
 18 19  1  0  0  0  0
 19 20  1  6  0  0  0
 19 22  1  0  0  0  0
 20 18  1  0  0  0  0
 22 23  1  0  0  0  0
 22 25  1  1  0  0  0
 23 21  1  6  0  0  0
 23 24  1  0  0  0  0
 24 26  1  0  0  0  0
 25 27  1  0  0  0  0
 27 26  1  0  0  0  0
 28 31  1  0  0  0  0
 29 20  1  0  0  0  0
 30 32  2  0  0  0  0
 31 29  2  0  0  0  0
 32 29  1  0  0  0  0
 33 30  1  0  0  0  0
 33 28  2  0  0  0  0
M  END
>  <MODEL>
9

>  <REMARK>
 VINA RESULT:      -8.6      2.327      6.152
  Name = 
  6 active torsions:
  status: ('A' for Active; 'I' for Inactive)
    1  A    between atoms: C_4  and  N_13
    2  A    between atoms: C_5  and  N_32
    3  A    between atoms: C_7  and  C_16
    4  A    between atoms: C_7  and  C_24
    5  A    between atoms: C_14  and  C_30
    6  A    between atoms: O_20  and  C_33
                            x       y       z     vdW  Elec       q    Type
                         _______ _______ _______ _____ _____    ______ ____

>  <TORSDO>
F 6

$$$$
