=
 OpenBabel11032419153D

 30 34  0  0  1  0  0  0  0  0999 V2000
  190.0980  177.5290  143.5400 C   0  0  0  0  0  0  0  0  0  0  0  0
  189.4000  177.1240  145.7940 C   0  0  0  0  0  0  0  0  0  0  0  0
  190.0820  176.7460  141.2130 C   0  0  0  0  0  3  0  0  0  0  0  0
  190.6720  176.9860  146.2460 N   0  0  0  0  0  0  0  0  0  0  0  0
  187.2330  177.4520  145.5190 N   0  0  0  0  0  0  0  0  0  0  0  0
  191.6980  177.1010  145.3380 C   0  0  0  0  0  3  0  0  0  0  0  0
  187.8380  177.5580  144.3400 N   0  0  0  0  0  0  0  0  0  0  0  0
  188.1840  177.1690  146.4600 C   0  0  0  0  0  3  0  0  0  0  0  0
  189.6750  177.8560  142.1280 C   0  0  1  0  0  3  0  0  0  0  0  0
  188.1780  178.1680  141.9890 C   0  0  0  0  0  0  0  0  0  0  0  0
  187.7140  178.6460  140.8270 C   0  0  0  0  0  3  0  0  0  0  0  0
  187.2760  177.9920  143.1240 N   0  0  0  0  0  0  0  0  0  0  0  0
  189.4910  178.0090  139.1750 C   0  0  0  0  0  3  0  0  0  0  0  0
  188.4920  178.7990  139.5830 C   0  0  0  0  0  3  0  0  0  0  0  0
  189.1320  177.3720  144.5010 C   0  0  0  0  0  0  0  0  0  0  0  0
  190.0210  176.8190  139.8810 C   0  0  0  0  0  0  0  0  0  0  0  0
  191.4330  177.3820  143.9690 C   0  0  0  0  0  3  0  0  0  0  0  0
  183.0910  178.7270  142.8690 C   0  0  0  0  0  0  0  0  0  0  0  0
  183.7820  178.1940  141.7720 C   0  0  0  0  0  3  0  0  0  0  0  0
  183.7930  179.0130  144.0480 C   0  0  0  0  0  3  0  0  0  0  0  0
  185.8560  178.2240  143.0380 C   0  0  0  0  0  0  0  0  0  0  0  0
  185.1660  178.7660  144.1300 C   0  0  0  0  0  3  0  0  0  0  0  0
  185.1550  177.9470  141.8550 C   0  0  0  0  0  3  0  0  0  0  0  0
  180.7980  178.7490  143.9060 N   0  0  0  0  0  1  0  0  0  0  0  0
  181.1370  179.4250  141.7140 O   0  0  0  0  0  0  0  0  0  0  0  0
  181.6430  178.9880  142.7830 C   0  0  0  0  0  0  0  0  0  0  0  0
  191.6910  175.7340  138.2640 C   0  0  0  0  0  0  0  0  0  0  0  0
  192.3230  176.7980  138.0320 O   0  0  0  0  0  0  0  0  0  0  0  0
  190.5590  175.7130  139.1430 N   0  0  0  0  0  2  0  0  0  0  0  0
  192.1230  174.4730  137.6060 C   0  0  0  0  0  1  0  0  0  0  0  0
  1 17  2  0  0  0  0
  1 15  1  0  0  0  0
  2  4  1  0  0  0  0
  2  8  1  0  0  0  0
  5  8  2  0  0  0  0
  6  4  2  0  0  0  0
  7 15  1  0  0  0  0
  7  5  1  0  0  0  0
  9  3  1  6  0  0  0
  9  1  1  0  0  0  0
 10  9  1  0  0  0  0
 10 12  1  0  0  0  0
 11 10  2  0  0  0  0
 12  7  1  0  0  0  0
 13 14  2  0  0  0  0
 13 16  1  0  0  0  0
 14 11  1  0  0  0  0
 15  2  2  0  0  0  0
 16  3  2  0  0  0  0
 17  6  1  0  0  0  0
 18 20  1  0  0  0  0
 19 23  1  0  0  0  0
 19 18  2  0  0  0  0
 20 22  2  0  0  0  0
 21 12  1  0  0  0  0
 21 22  1  0  0  0  0
 23 21  2  0  0  0  0
 25 26  2  0  0  0  0
 26 18  1  0  0  0  0
 26 24  1  0  0  0  0
 27 29  1  0  0  0  0
 28 27  2  0  0  0  0
 29 16  1  0  0  0  0
 30 27  1  0  0  0  0
M  END
>  <MODEL>
1

>  <REMARK>
 VINA RESULT:      -9.6      0.000      0.000
  Name = 
  3 active torsions:
  status: ('A' for Active; 'I' for Inactive)
    1  A    between atoms: C_5  and  C_22
    2  A    between atoms: N_16  and  C_27
    3  A    between atoms: N_20  and  C_21
                            x       y       z     vdW  Elec       q    Type
                         _______ _______ _______ _____ _____    ______ ____

>  <TORSDO>
F 3

$$$$
=
 OpenBabel11032419153D

 30 34  0  0  1  0  0  0  0  0999 V2000
  188.1710  177.8150  137.8430 C   0  0  0  0  0  0  0  0  0  0  0  0
  190.3530  176.8360  137.9550 C   0  0  0  0  0  0  0  0  0  0  0  0
  185.7610  177.5080  138.1960 C   0  0  0  0  0  3  0  0  0  0  0  0
  190.5460  176.9200  136.6150 N   0  0  0  0  0  0  0  0  0  0  0  0
  190.5210  176.6870  140.1520 N   0  0  0  0  0  0  0  0  0  0  0  0
  189.5340  177.4450  135.8460 C   0  0  0  0  0  3  0  0  0  0  0  0
  189.3160  177.1560  139.8430 N   0  0  0  0  0  0  0  0  0  0  0  0
  191.2020  176.4640  138.9870 C   0  0  0  0  0  3  0  0  0  0  0  0
  186.9630  178.2950  138.6100 C   0  0  1  0  0  3  0  0  0  0  0  0
  187.1470  178.2640  140.1340 C   0  0  0  0  0  0  0  0  0  0  0  0
  186.2200  178.8300  140.9180 C   0  0  0  0  0  3  0  0  0  0  0  0
  188.3430  177.6660  140.7230 N   0  0  0  0  0  0  0  0  0  0  0  0
  184.1960  178.9570  139.4400 C   0  0  0  0  0  3  0  0  0  0  0  0
  184.9350  179.3960  140.4660 C   0  0  0  0  0  3  0  0  0  0  0  0
  189.2150  177.2550  138.5330 C   0  0  0  0  0  0  0  0  0  0  0  0
  184.5110  177.8150  138.5500 C   0  0  0  0  0  0  0  0  0  0  0  0
  188.3290  177.9100  136.4450 C   0  0  0  0  0  3  0  0  0  0  0  0
  188.9290  177.4210  144.9320 C   0  0  0  0  0  0  0  0  0  0  0  0
  187.9050  176.6870  144.3180 C   0  0  0  0  0  3  0  0  0  0  0  0
  189.7550  178.2340  144.1450 C   0  0  0  0  0  3  0  0  0  0  0  0
  188.5470  177.5670  142.1470 C   0  0  0  0  0  0  0  0  0  0  0  0
  189.5640  178.3090  142.7630 C   0  0  0  0  0  3  0  0  0  0  0  0
  187.7130  176.7620  142.9360 C   0  0  0  0  0  3  0  0  0  0  0  0
  190.3400  176.8100  146.9230 N   0  0  0  0  0  1  0  0  0  0  0  0
  188.2360  177.7480  147.1800 O   0  0  0  0  0  0  0  0  0  0  0  0
  189.1310  177.3430  146.3900 C   0  0  0  0  0  0  0  0  0  0  0  0
  182.5650  176.1480  138.6640 C   0  0  0  0  0  0  0  0  0  0  0  0
  182.6600  175.9580  139.9060 O   0  0  0  0  0  0  0  0  0  0  0  0
  183.4580  177.0300  137.9740 N   0  0  0  0  0  2  0  0  0  0  0  0
  181.5080  175.4380  137.8990 C   0  0  0  0  0  1  0  0  0  0  0  0
  1 15  2  0  0  0  0
  1  9  1  0  0  0  0
  2 15  1  0  0  0  0
  2  8  1  0  0  0  0
  3 16  2  0  0  0  0
  4  2  2  0  0  0  0
  6 17  2  0  0  0  0
  6  4  1  0  0  0  0
  7  5  1  0  0  0  0
  7 12  1  0  0  0  0
  8  5  2  0  0  0  0
  9  3  1  1  0  0  0
  9 10  1  0  0  0  0
 10 12  1  0  0  0  0
 10 11  2  0  0  0  0
 12 21  1  0  0  0  0
 13 14  2  0  0  0  0
 14 11  1  0  0  0  0
 15  7  1  0  0  0  0
 16 13  1  0  0  0  0
 17  1  1  0  0  0  0
 18 26  1  0  0  0  0
 19 18  1  0  0  0  0
 20 18  2  0  0  0  0
 21 22  2  0  0  0  0
 21 23  1  0  0  0  0
 22 20  1  0  0  0  0
 23 19  2  0  0  0  0
 26 24  1  0  0  0  0
 26 25  2  0  0  0  0
 27 28  2  0  0  0  0
 29 16  1  0  0  0  0
 29 27  1  0  0  0  0
 30 27  1  0  0  0  0
M  END
>  <MODEL>
2

>  <REMARK>
 VINA RESULT:      -8.8      3.119      6.838
  Name = 
  3 active torsions:
  status: ('A' for Active; 'I' for Inactive)
    1  A    between atoms: C_5  and  C_22
    2  A    between atoms: N_16  and  C_27
    3  A    between atoms: N_20  and  C_21
                            x       y       z     vdW  Elec       q    Type
                         _______ _______ _______ _____ _____    ______ ____

>  <TORSDO>
F 3

$$$$
=
 OpenBabel11032419153D

 30 34  0  0  1  0  0  0  0  0999 V2000
  186.9940  178.3370  137.8650 C   0  0  0  0  0  0  0  0  0  0  0  0
  189.2080  177.9410  138.6850 C   0  0  0  0  0  0  0  0  0  0  0  0
  184.7170  177.4600  137.5920 C   0  0  0  0  0  3  0  0  0  0  0  0
  189.7600  177.9910  137.4470 N   0  0  0  0  0  0  0  0  0  0  0  0
  188.7550  177.9690  140.8470 N   0  0  0  0  0  0  0  0  0  0  0  0
  188.9270  178.2010  136.3740 C   0  0  0  0  0  3  0  0  0  0  0  0
  187.6200  178.1030  140.1670 N   0  0  0  0  0  0  0  0  0  0  0  0
  189.7780  177.8540  139.9470 C   0  0  0  0  0  3  0  0  0  0  0  0
  185.5390  178.5450  138.2110 C   0  0  1  0  0  3  0  0  0  0  0  0
  185.2720  178.6510  139.7190 C   0  0  0  0  0  0  0  0  0  0  0  0
  184.0550  179.0140  140.1450 C   0  0  0  0  0  3  0  0  0  0  0  0
  186.3450  178.4070  140.6800 N   0  0  0  0  0  0  0  0  0  0  0  0
  182.5760  178.5450  138.1730 C   0  0  0  0  0  3  0  0  0  0  0  0
  182.8660  179.2140  139.2950 C   0  0  0  0  0  3  0  0  0  0  0  0
  187.8870  178.0960  138.8770 C   0  0  0  0  0  0  0  0  0  0  0  0
  183.3830  177.4670  137.5540 C   0  0  0  0  0  0  0  0  0  0  0  0
  187.5280  178.3850  136.5610 C   0  0  0  0  0  3  0  0  0  0  0  0
  185.6960  178.5020  144.8860 C   0  0  0  0  0  0  0  0  0  0  0  0
  186.6370  177.6200  144.3360 C   0  0  0  0  0  3  0  0  0  0  0  0
  184.9740  179.3500  144.0350 C   0  0  0  0  0  3  0  0  0  0  0  0
  186.1410  178.4460  142.1070 C   0  0  0  0  0  0  0  0  0  0  0  0
  185.1930  179.3200  142.6550 C   0  0  0  0  0  3  0  0  0  0  0  0
  186.8560  177.5900  142.9570 C   0  0  0  0  0  3  0  0  0  0  0  0
  186.5560  178.4040  147.2480 N   0  0  0  0  0  1  0  0  0  0  0  0
  184.2980  178.6760  146.7970 O   0  0  0  0  0  0  0  0  0  0  0  0
  185.4650  178.5340  146.3410 C   0  0  0  0  0  0  0  0  0  0  0  0
  182.0080  175.3090  137.3640 C   0  0  0  0  0  0  0  0  0  0  0  0
  181.8790  175.1550  138.6070 O   0  0  0  0  0  0  0  0  0  0  0  0
  182.7460  176.4110  136.8210 N   0  0  0  0  0  2  0  0  0  0  0  0
  181.3880  174.3240  136.4400 C   0  0  0  0  0  1  0  0  0  0  0  0
  1  9  1  0  0  0  0
  1 15  2  0  0  0  0
  2 15  1  0  0  0  0
  2  8  1  0  0  0  0
  4  2  2  0  0  0  0
  6 17  2  0  0  0  0
  6  4  1  0  0  0  0
  7 12  1  0  0  0  0
  7  5  1  0  0  0  0
  8  5  2  0  0  0  0
  9  3  1  1  0  0  0
  9 10  1  0  0  0  0
 10 11  2  0  0  0  0
 10 12  1  0  0  0  0
 12 21  1  0  0  0  0
 13 14  2  0  0  0  0
 14 11  1  0  0  0  0
 15  7  1  0  0  0  0
 16  3  2  0  0  0  0
 16 13  1  0  0  0  0
 17  1  1  0  0  0  0
 18 26  1  0  0  0  0
 19 18  1  0  0  0  0
 20 18  2  0  0  0  0
 21 22  2  0  0  0  0
 21 23  1  0  0  0  0
 22 20  1  0  0  0  0
 23 19  2  0  0  0  0
 26 25  2  0  0  0  0
 26 24  1  0  0  0  0
 27 28  2  0  0  0  0
 29 27  1  0  0  0  0
 29 16  1  0  0  0  0
 30 27  1  0  0  0  0
M  END
>  <MODEL>
3

>  <REMARK>
 VINA RESULT:      -8.5      3.598      6.402
  Name = 
  3 active torsions:
  status: ('A' for Active; 'I' for Inactive)
    1  A    between atoms: C_5  and  C_22
    2  A    between atoms: N_16  and  C_27
    3  A    between atoms: N_20  and  C_21
                            x       y       z     vdW  Elec       q    Type
                         _______ _______ _______ _____ _____    ______ ____

>  <TORSDO>
F 3

$$$$
=
 OpenBabel11032419153D

 30 34  0  0  1  0  0  0  0  0999 V2000
  187.0420  178.3290  138.5510 C   0  0  0  0  0  0  0  0  0  0  0  0
  189.2280  177.5610  137.9530 C   0  0  0  0  0  0  0  0  0  0  0  0
  184.8600  177.7610  139.5260 C   0  0  0  0  0  3  0  0  0  0  0  0
  189.0250  177.7670  136.6280 N   0  0  0  0  0  0  0  0  0  0  0  0
  190.0270  177.2590  139.9910 N   0  0  0  0  0  0  0  0  0  0  0  0
  187.8010  178.2490  136.2280 C   0  0  0  0  0  3  0  0  0  0  0  0
  188.7520  177.6310  140.0770 N   0  0  0  0  0  0  0  0  0  0  0  0
  190.3610  177.1950  138.6670 C   0  0  0  0  0  3  0  0  0  0  0  0
  186.0710  178.6270  139.6680 C   0  0  0  0  0  0  0  0  0  0  0  0
  186.6830  178.4960  141.0700 C   0  0  0  0  0  0  0  0  0  0  0  0
  185.9800  178.9070  142.1330 C   0  0  0  0  0  3  0  0  0  0  0  0
  188.0380  177.9750  141.2400 N   0  0  0  0  0  0  0  0  0  0  0  0
  183.6160  178.9500  141.2960 C   0  0  0  0  0  3  0  0  0  0  0  0
  184.5830  179.3790  142.1160 C   0  0  0  0  0  3  0  0  0  0  0  0
  188.2760  177.8210  138.8640 C   0  0  0  0  0  0  0  0  0  0  0  0
  183.7450  177.9170  140.2420 C   0  0  1  0  0  3  0  0  0  0  0  0
  186.7870  178.5470  137.1810 C   0  0  0  0  0  3  0  0  0  0  0  0
  189.8180  177.4640  145.0730 C   0  0  0  0  0  0  0  0  0  0  0  0
  188.6580  176.7540  144.7330 C   0  0  0  0  0  3  0  0  0  0  0  0
  190.3830  178.3410  144.1370 C   0  0  0  0  0  3  0  0  0  0  0  0
  188.6460  177.7860  142.5340 C   0  0  0  0  0  0  0  0  0  0  0  0
  189.7990  178.5030  142.8780 C   0  0  0  0  0  3  0  0  0  0  0  0
  188.0750  176.9150  143.4740 C   0  0  0  0  0  3  0  0  0  0  0  0
  189.6320  177.3140  147.5780 N   0  0  0  0  0  1  0  0  0  0  0  0
  191.6800  177.1280  146.5080 O   0  0  0  0  0  0  0  0  0  0  0  0
  190.4350  177.2940  146.4010 C   0  0  0  0  0  0  0  0  0  0  0  0
  181.6460  177.3230  138.8910 C   0  0  0  0  0  0  0  0  0  0  0  0
  181.6660  178.3720  138.1960 O   0  0  0  0  0  0  0  0  0  0  0  0
  182.6300  177.0790  139.9030 N   0  0  0  0  0  2  0  0  0  0  0  0
  180.5750  176.3180  138.6620 C   0  0  0  0  0  1  0  0  0  0  0  0
  1 15  2  0  0  0  0
  1  9  1  0  0  0  0
  2  8  1  0  0  0  0
  2 15  1  0  0  0  0
  3  9  2  0  0  0  0
  3 16  1  0  0  0  0
  4  2  2  0  0  0  0
  5  7  1  0  0  0  0
  6  4  1  0  0  0  0
  6 17  2  0  0  0  0
  7 12  1  0  0  0  0
  8  5  2  0  0  0  0
  9 10  1  0  0  0  0
 10 12  1  0  0  0  0
 10 11  2  0  0  0  0
 12 21  1  0  0  0  0
 13 14  2  0  0  0  0
 14 11  1  0  0  0  0
 15  7  1  0  0  0  0
 16 29  1  6  0  0  0
 16 13  1  0  0  0  0
 17  1  1  0  0  0  0
 18 26  1  0  0  0  0
 19 18  1  0  0  0  0
 20 18  2  0  0  0  0
 21 22  2  0  0  0  0
 21 23  1  0  0  0  0
 22 20  1  0  0  0  0
 23 19  2  0  0  0  0
 26 25  2  0  0  0  0
 26 24  1  0  0  0  0
 27 29  1  0  0  0  0
 28 27  2  0  0  0  0
 30 27  1  0  0  0  0
M  END
>  <MODEL>
4

>  <REMARK>
 VINA RESULT:      -8.3      2.774      7.315
  Name = 
  3 active torsions:
  status: ('A' for Active; 'I' for Inactive)
    1  A    between atoms: C_5  and  C_22
    2  A    between atoms: N_16  and  C_27
    3  A    between atoms: N_20  and  C_21
                            x       y       z     vdW  Elec       q    Type
                         _______ _______ _______ _____ _____    ______ ____

>  <TORSDO>
F 3

$$$$
=
 OpenBabel11032419153D

 30 34  0  0  1  0  0  0  0  0999 V2000
  186.0170  177.9400  143.3440 C   0  0  0  0  0  0  0  0  0  0  0  0
  185.0510  178.8020  145.3570 C   0  0  0  0  0  0  0  0  0  0  0  0
  187.6830  178.2540  141.5660 C   0  0  0  0  0  3  0  0  0  0  0  0
  183.8320  178.9810  144.7890 N   0  0  0  0  0  0  0  0  0  0  0  0
  186.7840  178.5020  146.6940 N   0  0  0  0  0  0  0  0  0  0  0  0
  183.6820  178.6550  143.4620 C   0  0  0  0  0  3  0  0  0  0  0  0
  187.1250  178.1470  145.4590 N   0  0  0  0  0  0  0  0  0  0  0  0
  185.4850  178.9290  146.6690 C   0  0  0  0  0  3  0  0  0  0  0  0
  187.2430  177.3590  142.6810 C   0  0  1  0  0  3  0  0  0  0  0  0
  188.3960  177.0790  143.6540 C   0  0  0  0  0  0  0  0  0  0  0  0
  189.4670  176.4000  143.2220 C   0  0  0  0  0  3  0  0  0  0  0  0
  188.3090  177.5040  145.0490 N   0  0  0  0  0  0  0  0  0  0  0  0
  189.3520  176.6400  140.7270 C   0  0  0  0  0  3  0  0  0  0  0  0
  189.7210  175.9800  141.8310 C   0  0  0  0  0  3  0  0  0  0  0  0
  186.0910  178.3150  144.6600 C   0  0  0  0  0  0  0  0  0  0  0  0
  188.6170  177.9260  140.6720 C   0  0  0  0  0  0  0  0  0  0  0  0
  184.7690  178.1220  142.7140 C   0  0  0  0  0  3  0  0  0  0  0  0
  191.4950  176.9670  147.8190 C   0  0  0  0  0  0  0  0  0  0  0  0
  190.2600  177.4700  148.2520 C   0  0  0  0  0  3  0  0  0  0  0  0
  191.6660  176.6440  146.4660 C   0  0  0  0  0  3  0  0  0  0  0  0
  189.3790  177.3090  145.9940 C   0  0  0  0  0  0  0  0  0  0  0  0
  190.6170  176.8160  145.5600 C   0  0  0  0  0  3  0  0  0  0  0  0
  189.2110  177.6420  147.3460 C   0  0  0  0  0  3  0  0  0  0  0  0
  192.9630  177.8330  149.6710 N   0  0  0  0  0  1  0  0  0  0  0  0
  193.2420  175.7000  148.8080 O   0  0  0  0  0  0  0  0  0  0  0  0
  192.6030  176.7850  148.7750 C   0  0  0  0  0  0  0  0  0  0  0  0
  188.7250  178.5780  138.1930 C   0  0  0  0  0  0  0  0  0  0  0  0
  188.4260  177.4300  137.7680 O   0  0  0  0  0  0  0  0  0  0  0  0
  188.8420  178.8470  139.5950 N   0  0  0  0  0  2  0  0  0  0  0  0
  188.9670  179.6740  137.2200 C   0  0  0  0  0  1  0  0  0  0  0  0
  1 15  1  0  0  0  0
  2  8  1  0  0  0  0
  4  2  1  0  0  0  0
  6  4  2  0  0  0  0
  7  5  1  0  0  0  0
  8  5  2  0  0  0  0
  9  3  1  6  0  0  0
  9  1  1  0  0  0  0
  9 10  1  0  0  0  0
 10 12  1  0  0  0  0
 11 10  2  0  0  0  0
 12  7  1  0  0  0  0
 12 21  1  0  0  0  0
 13 14  2  0  0  0  0
 14 11  1  0  0  0  0
 15  2  2  0  0  0  0
 15  7  1  0  0  0  0
 16 13  1  0  0  0  0
 16  3  2  0  0  0  0
 17  1  2  0  0  0  0
 17  6  1  0  0  0  0
 18 19  1  0  0  0  0
 18 26  1  0  0  0  0
 20 18  2  0  0  0  0
 21 23  1  0  0  0  0
 22 21  2  0  0  0  0
 22 20  1  0  0  0  0
 23 19  2  0  0  0  0
 26 25  2  0  0  0  0
 26 24  1  0  0  0  0
 27 29  1  0  0  0  0
 28 27  2  0  0  0  0
 29 16  1  0  0  0  0
 30 27  1  0  0  0  0
M  END
>  <MODEL>
5

>  <REMARK>
 VINA RESULT:      -8.3      2.814      6.559
  Name = 
  3 active torsions:
  status: ('A' for Active; 'I' for Inactive)
    1  A    between atoms: C_5  and  C_22
    2  A    between atoms: N_16  and  C_27
    3  A    between atoms: N_20  and  C_21
                            x       y       z     vdW  Elec       q    Type
                         _______ _______ _______ _____ _____    ______ ____

>  <TORSDO>
F 3

$$$$
=
 OpenBabel11032419153D

 30 34  0  0  1  0  0  0  0  0999 V2000
  185.7660  178.6690  144.2020 C   0  0  0  0  0  0  0  0  0  0  0  0
  183.4830  178.6750  144.9200 C   0  0  0  0  0  0  0  0  0  0  0  0
  187.6080  177.3730  143.2220 C   0  0  0  0  0  3  0  0  0  0  0  0
  183.8090  178.9020  146.2170 N   0  0  0  0  0  0  0  0  0  0  0  0
  182.5260  178.4920  142.9380 N   0  0  0  0  0  0  0  0  0  0  0  0
  185.1410  179.0020  146.5420 C   0  0  0  0  0  3  0  0  0  0  0  0
  183.8460  178.4360  142.7860 N   0  0  0  0  0  0  0  0  0  0  0  0
  182.2570  178.6330  144.2710 C   0  0  0  0  0  3  0  0  0  0  0  0
  186.7220  178.5640  143.0380 C   0  0  1  0  0  3  0  0  0  0  0  0
  186.0280  178.5310  141.6700 C   0  0  0  0  0  0  0  0  0  0  0  0
  186.7670  178.6200  140.5570 C   0  0  0  0  0  3  0  0  0  0  0  0
  184.5710  178.4510  141.5800 N   0  0  0  0  0  0  0  0  0  0  0  0
  189.0680  177.9780  141.3250 C   0  0  0  0  0  3  0  0  0  0  0  0
  188.2410  178.6280  140.4970 C   0  0  0  0  0  3  0  0  0  0  0  0
  184.4210  178.5540  143.9660 C   0  0  0  0  0  0  0  0  0  0  0  0
  188.6780  177.1170  142.4670 C   0  0  0  0  0  0  0  0  0  0  0  0
  186.1460  178.8940  145.5410 C   0  0  0  0  0  3  0  0  0  0  0  0
  182.4540  178.1980  137.8960 C   0  0  0  0  0  0  0  0  0  0  0  0
  182.8830  179.4420  138.3800 C   0  0  0  0  0  3  0  0  0  0  0  0
  182.7310  177.0420  138.6390 C   0  0  0  0  0  3  0  0  0  0  0  0
  183.8690  178.3700  140.3240 C   0  0  0  0  0  0  0  0  0  0  0  0
  183.4310  177.1280  139.8450 C   0  0  0  0  0  3  0  0  0  0  0  0
  183.5820  179.5280  139.5860 C   0  0  0  0  0  3  0  0  0  0  0  0
  181.1400  179.2720  136.0380 N   0  0  0  0  0  1  0  0  0  0  0  0
  181.5870  176.9980  136.0410 O   0  0  0  0  0  0  0  0  0  0  0  0
  181.7160  178.1080  136.6240 C   0  0  0  0  0  0  0  0  0  0  0  0
  190.7320  176.0390  143.5610 C   0  0  0  0  0  0  0  0  0  0  0  0
  191.2540  177.1310  143.9080 O   0  0  0  0  0  0  0  0  0  0  0  0
  189.4920  175.9980  142.8460 N   0  0  0  0  0  2  0  0  0  0  0  0
  191.4210  174.7650  143.8950 C   0  0  0  0  0  1  0  0  0  0  0  0
  1 17  2  0  0  0  0
  2  4  1  0  0  0  0
  4  6  2  0  0  0  0
  5  8  2  0  0  0  0
  7  5  1  0  0  0  0
  7 15  1  0  0  0  0
  8  2  1  0  0  0  0
  9  3  1  1  0  0  0
  9  1  1  0  0  0  0
 10  9  1  0  0  0  0
 11 10  2  0  0  0  0
 12 10  1  0  0  0  0
 12  7  1  0  0  0  0
 13 16  1  0  0  0  0
 14 11  1  0  0  0  0
 14 13  2  0  0  0  0
 15  1  1  0  0  0  0
 15  2  2  0  0  0  0
 16 29  1  0  0  0  0
 16  3  2  0  0  0  0
 17  6  1  0  0  0  0
 18 19  2  0  0  0  0
 18 20  1  0  0  0  0
 19 23  1  0  0  0  0
 20 22  2  0  0  0  0
 21 12  1  0  0  0  0
 22 21  1  0  0  0  0
 23 21  2  0  0  0  0
 24 26  1  0  0  0  0
 25 26  2  0  0  0  0
 26 18  1  0  0  0  0
 27 30  1  0  0  0  0
 27 28  2  0  0  0  0
 29 27  1  0  0  0  0
M  END
>  <MODEL>
6

>  <REMARK>
 VINA RESULT:      -8.2      3.168      4.947
  Name = 
  3 active torsions:
  status: ('A' for Active; 'I' for Inactive)
    1  A    between atoms: C_5  and  C_22
    2  A    between atoms: N_16  and  C_27
    3  A    between atoms: N_20  and  C_21
                            x       y       z     vdW  Elec       q    Type
                         _______ _______ _______ _____ _____    ______ ____

>  <TORSDO>
F 3

$$$$
=
 OpenBabel11032419153D

 30 34  0  0  1  0  0  0  0  0999 V2000
  190.0910  177.6820  142.7760 C   0  0  0  0  0  0  0  0  0  0  0  0
  189.1550  177.4150  144.9630 C   0  0  0  0  0  0  0  0  0  0  0  0
  190.3240  176.7550  140.5140 C   0  0  0  0  0  3  0  0  0  0  0  0
  190.3710  177.3120  145.5560 N   0  0  0  0  0  0  0  0  0  0  0  0
  187.0310  177.7140  144.4370 N   0  0  0  0  0  0  0  0  0  0  0  0
  191.4890  177.3750  144.7580 C   0  0  0  0  0  3  0  0  0  0  0  0
  187.7590  177.7500  143.3250 N   0  0  0  0  0  0  0  0  0  0  0  0
  187.8750  177.4960  145.4910 C   0  0  0  0  0  3  0  0  0  0  0  0
  189.8230  177.9180  141.3090 C   0  0  1  0  0  3  0  0  0  0  0  0
  188.3500  178.2130  140.9900 C   0  0  0  0  0  0  0  0  0  0  0  0
  188.0140  178.6150  139.7580 C   0  0  0  0  0  3  0  0  0  0  0  0
  187.3310  178.1040  142.0320 N   0  0  0  0  0  0  0  0  0  0  0  0
  189.9580  177.8840  138.3490 C   0  0  0  0  0  3  0  0  0  0  0  0
  188.9210  178.6940  138.5970 C   0  0  0  0  0  3  0  0  0  0  0  0
  189.0280  177.5810  143.6350 C   0  0  0  0  0  0  0  0  0  0  0  0
  190.4060  176.7440  139.1820 C   0  0  0  0  0  0  0  0  0  0  0  0
  191.3720  177.5680  143.3530 C   0  0  0  0  0  3  0  0  0  0  0  0
  183.1890  178.7080  141.2580 C   0  0  0  0  0  0  0  0  0  0  0  0
  183.6240  178.3610  142.5450 C   0  0  0  0  0  3  0  0  0  0  0  0
  184.1330  178.8540  140.2330 C   0  0  0  0  0  3  0  0  0  0  0  0
  185.9290  178.3230  141.7790 C   0  0  0  0  0  0  0  0  0  0  0  0
  185.4920  178.6600  140.4910 C   0  0  0  0  0  3  0  0  0  0  0  0
  184.9830  178.1670  142.8030 C   0  0  0  0  0  3  0  0  0  0  0  0
  181.3260  179.9790  140.1430 N   0  0  0  0  0  1  0  0  0  0  0  0
  180.8940  178.1470  141.4960 O   0  0  0  0  0  0  0  0  0  0  0  0
  181.7550  178.9130  140.9860 C   0  0  0  0  0  0  0  0  0  0  0  0
  190.4610  174.7620  137.5540 C   0  0  0  0  0  0  0  0  0  0  0  0
  189.3030  174.9630  137.1010 O   0  0  0  0  0  0  0  0  0  0  0  0
  191.0190  175.5970  138.5760 N   0  0  0  0  0  2  0  0  0  0  0  0
  191.2630  173.6290  137.0220 C   0  0  0  0  0  1  0  0  0  0  0  0
  1 17  2  0  0  0  0
  1 15  1  0  0  0  0
  2  8  1  0  0  0  0
  2  4  1  0  0  0  0
  5  8  2  0  0  0  0
  6  4  2  0  0  0  0
  7 15  1  0  0  0  0
  7  5  1  0  0  0  0
  9  3  1  6  0  0  0
  9  1  1  0  0  0  0
 10  9  1  0  0  0  0
 10 12  1  0  0  0  0
 11 10  2  0  0  0  0
 12  7  1  0  0  0  0
 13 14  2  0  0  0  0
 13 16  1  0  0  0  0
 14 11  1  0  0  0  0
 15  2  2  0  0  0  0
 16  3  2  0  0  0  0
 17  6  1  0  0  0  0
 18 19  1  0  0  0  0
 19 23  2  0  0  0  0
 20 22  1  0  0  0  0
 20 18  2  0  0  0  0
 21 12  1  0  0  0  0
 21 23  1  0  0  0  0
 22 21  2  0  0  0  0
 24 26  1  0  0  0  0
 26 18  1  0  0  0  0
 26 25  2  0  0  0  0
 27 29  1  0  0  0  0
 28 27  2  0  0  0  0
 29 16  1  0  0  0  0
 30 27  1  0  0  0  0
M  END
>  <MODEL>
7

>  <REMARK>
 VINA RESULT:      -8.0      1.405      1.715
  Name = 
  3 active torsions:
  status: ('A' for Active; 'I' for Inactive)
    1  A    between atoms: C_5  and  C_22
    2  A    between atoms: N_16  and  C_27
    3  A    between atoms: N_20  and  C_21
                            x       y       z     vdW  Elec       q    Type
                         _______ _______ _______ _____ _____    ______ ____

>  <TORSDO>
F 3

$$$$
=
 OpenBabel11032419153D

 30 34  0  0  1  0  0  0  0  0999 V2000
  187.5000  178.3150  145.1560 C   0  0  0  0  0  0  0  0  0  0  0  0
  185.2380  178.1350  144.3930 C   0  0  0  0  0  0  0  0  0  0  0  0
  189.6450  177.1740  145.5130 C   0  0  0  0  0  3  0  0  0  0  0  0
  184.7200  178.3910  145.6200 N   0  0  0  0  0  0  0  0  0  0  0  0
  185.6510  177.8720  142.2380 N   0  0  0  0  0  0  0  0  0  0  0  0
  185.5940  178.5990  146.6610 C   0  0  0  0  0  3  0  0  0  0  0  0
  186.8060  177.9240  142.8960 N   0  0  0  0  0  0  0  0  0  0  0  0
  184.6380  177.9930  143.1500 C   0  0  0  0  0  3  0  0  0  0  0  0
  188.9630  178.2880  144.7840 C   0  0  0  0  0  0  0  0  0  0  0  0
  189.2140  178.1950  143.2730 C   0  0  0  0  0  0  0  0  0  0  0  0
  190.4600  178.3440  142.8050 C   0  0  0  0  0  3  0  0  0  0  0  0
  188.1000  177.9970  142.3480 N   0  0  0  0  0  0  0  0  0  0  0  0
  191.8990  177.8930  144.8100 C   0  0  0  0  0  3  0  0  0  0  0  0
  191.6810  178.4720  143.6230 C   0  0  0  0  0  3  0  0  0  0  0  0
  186.5640  178.0900  144.1800 C   0  0  0  0  0  0  0  0  0  0  0  0
  190.9680  177.0050  145.5450 C   0  0  1  0  0  3  0  0  0  0  0  0
  187.0010  178.5730  146.4490 C   0  0  0  0  0  3  0  0  0  0  0  0
  188.6240  177.5320  138.1490 C   0  0  0  0  0  0  0  0  0  0  0  0
  187.5300  178.2530  138.6480 C   0  0  0  0  0  3  0  0  0  0  0  0
  189.5410  176.9690  139.0470 C   0  0  0  0  0  3  0  0  0  0  0  0
  188.2820  177.8560  140.9240 C   0  0  0  0  0  0  0  0  0  0  0  0
  189.3690  177.1280  140.4240 C   0  0  0  0  0  3  0  0  0  0  0  0
  187.3590  178.4110  140.0260 C   0  0  0  0  0  3  0  0  0  0  0  0
  189.9710  176.7230  136.1830 N   0  0  0  0  0  1  0  0  0  0  0  0
  187.9330  177.7890  135.8920 O   0  0  0  0  0  0  0  0  0  0  0  0
  188.8060  177.3650  136.6960 C   0  0  0  0  0  0  0  0  0  0  0  0
  191.9790  176.0900  147.7180 C   0  0  0  0  0  0  0  0  0  0  0  0
  192.0560  177.2140  148.2810 O   0  0  0  0  0  0  0  0  0  0  0  0
  191.4720  175.9570  146.3850 N   0  0  0  0  0  2  0  0  0  0  0  0
  192.4300  174.8780  148.4490 C   0  0  0  0  0  1  0  0  0  0  0  0
  1 17  2  0  0  0  0
  2  4  1  0  0  0  0
  3 16  1  0  0  0  0
  4  6  2  0  0  0  0
  5  7  1  0  0  0  0
  5  8  2  0  0  0  0
  7 15  1  0  0  0  0
  8  2  1  0  0  0  0
  9  1  1  0  0  0  0
  9  3  2  0  0  0  0
 10  9  1  0  0  0  0
 11 10  2  0  0  0  0
 11 14  1  0  0  0  0
 12  7  1  0  0  0  0
 12 10  1  0  0  0  0
 13 16  1  0  0  0  0
 14 13  2  0  0  0  0
 15  2  2  0  0  0  0
 15  1  1  0  0  0  0
 16 29  1  1  0  0  0
 17  6  1  0  0  0  0
 18 19  2  0  0  0  0
 18 20  1  0  0  0  0
 19 23  1  0  0  0  0
 20 22  2  0  0  0  0
 21 12  1  0  0  0  0
 22 21  1  0  0  0  0
 23 21  2  0  0  0  0
 24 26  1  0  0  0  0
 25 26  2  0  0  0  0
 26 18  1  0  0  0  0
 27 28  2  0  0  0  0
 27 30  1  0  0  0  0
 29 27  1  0  0  0  0
M  END
>  <MODEL>
8

>  <REMARK>
 VINA RESULT:      -8.0      2.675      6.338
  Name = 
  3 active torsions:
  status: ('A' for Active; 'I' for Inactive)
    1  A    between atoms: C_5  and  C_22
    2  A    between atoms: N_16  and  C_27
    3  A    between atoms: N_20  and  C_21
                            x       y       z     vdW  Elec       q    Type
                         _______ _______ _______ _____ _____    ______ ____

>  <TORSDO>
F 3

$$$$
=
 OpenBabel11032419153D

 30 34  0  0  1  0  0  0  0  0999 V2000
  187.6890  178.3790  140.9710 C   0  0  0  0  0  0  0  0  0  0  0  0
  186.6610  177.8780  138.8690 C   0  0  0  0  0  0  0  0  0  0  0  0
  188.6120  177.4960  143.0690 C   0  0  0  0  0  3  0  0  0  0  0  0
  185.5120  178.5250  139.1860 N   0  0  0  0  0  0  0  0  0  0  0  0
  188.3860  176.8990  137.8960 N   0  0  0  0  0  0  0  0  0  0  0  0
  185.4190  179.1070  140.4290 C   0  0  0  0  0  3  0  0  0  0  0  0
  188.7150  177.2100  139.1470 N   0  0  0  0  0  0  0  0  0  0  0  0
  187.0950  177.2970  137.6850 C   0  0  0  0  0  3  0  0  0  0  0  0
  188.9270  178.2680  141.8280 C   0  0  0  0  0  0  0  0  0  0  0  0
  190.1340  177.6670  141.0940 C   0  0  0  0  0  0  0  0  0  0  0  0
  191.3350  177.6830  141.6860 C   0  0  0  0  0  3  0  0  0  0  0  0
  189.9870  177.1280  139.7440 N   0  0  0  0  0  0  0  0  0  0  0  0
  190.7910  177.9960  144.1150 C   0  0  0  0  0  3  0  0  0  0  0  0
  191.6130  178.1220  143.0660 C   0  0  0  0  0  3  0  0  0  0  0  0
  187.6910  177.8020  139.7270 C   0  0  0  0  0  0  0  0  0  0  0  0
  189.4400  177.3880  144.1100 C   0  0  1  0  0  3  0  0  0  0  0  0
  186.5080  179.0520  141.3440 C   0  0  0  0  0  3  0  0  0  0  0  0
  193.1730  175.3150  137.5800 C   0  0  0  0  0  0  0  0  0  0  0  0
  193.3820  176.5180  138.2680 C   0  0  0  0  0  3  0  0  0  0  0  0
  191.9050  174.7190  137.6140 C   0  0  0  0  0  3  0  0  0  0  0  0
  191.0740  176.5100  139.0260 C   0  0  0  0  0  0  0  0  0  0  0  0
  190.8630  175.3130  138.3290 C   0  0  0  0  0  3  0  0  0  0  0  0
  192.3400  177.1130  138.9840 C   0  0  0  0  0  3  0  0  0  0  0  0
  195.5800  175.2530  136.8490 N   0  0  0  0  0  1  0  0  0  0  0  0
  194.0650  173.6430  136.1500 O   0  0  0  0  0  0  0  0  0  0  0  0
  194.2720  174.6870  136.8250 C   0  0  0  0  0  0  0  0  0  0  0  0
  188.8910  177.2200  146.6100 C   0  0  0  0  0  0  0  0  0  0  0  0
  189.3360  178.3630  146.8950 O   0  0  0  0  0  0  0  0  0  0  0  0
  188.9420  176.7110  145.2720 N   0  0  0  0  0  2  0  0  0  0  0  0
  188.3070  176.3780  147.6860 C   0  0  0  0  0  1  0  0  0  0  0  0
  1 17  1  0  0  0  0
  1  9  1  0  0  0  0
  2  4  2  0  0  0  0
  2 15  1  0  0  0  0
  3 16  1  0  0  0  0
  4  6  1  0  0  0  0
  5  7  1  0  0  0  0
  6 17  2  0  0  0  0
  7 15  1  0  0  0  0
  7 12  1  0  0  0  0
  8  5  2  0  0  0  0
  8  2  1  0  0  0  0
  9  3  2  0  0  0  0
 10 11  2  0  0  0  0
 10  9  1  0  0  0  0
 11 14  1  0  0  0  0
 12 10  1  0  0  0  0
 14 13  2  0  0  0  0
 15  1  2  0  0  0  0
 16 13  1  0  0  0  0
 16 29  1  1  0  0  0
 18 20  2  0  0  0  0
 18 19  1  0  0  0  0
 19 23  2  0  0  0  0
 20 22  1  0  0  0  0
 21 12  1  0  0  0  0
 22 21  2  0  0  0  0
 23 21  1  0  0  0  0
 25 26  2  0  0  0  0
 26 24  1  0  0  0  0
 26 18  1  0  0  0  0
 27 28  2  0  0  0  0
 27 30  1  0  0  0  0
 29 27  1  0  0  0  0
M  END
>  <MODEL>
9

>  <REMARK>
 VINA RESULT:      -7.6      2.964      8.502
  Name = 
  3 active torsions:
  status: ('A' for Active; 'I' for Inactive)
    1  A    between atoms: C_5  and  C_22
    2  A    between atoms: N_16  and  C_27
    3  A    between atoms: N_20  and  C_21
                            x       y       z     vdW  Elec       q    Type
                         _______ _______ _______ _____ _____    ______ ____

>  <TORSDO>
F 3

$$$$
