=
 OpenBabel11042411573D

 37 40  0  0  1  0  0  0  0  0999 V2000
  189.6250  177.1810  138.0160 C   0  0  0  0  0  0  0  0  0  0  0  0
  190.9280  176.9470  137.5620 C   0  0  0  0  0  3  0  0  0  0  0  0
  188.5320  176.6570  137.2860 C   0  0  0  0  0  0  0  0  0  0  0  0
  187.7520  175.3200  135.3460 N   0  0  0  0  0  1  0  0  0  0  0  0
  190.0840  175.6910  135.7240 N   0  0  0  0  0  0  0  0  0  0  0  0
  191.1400  176.1950  136.4100 C   0  0  0  0  0  3  0  0  0  0  0  0
  188.8000  175.8950  136.1210 C   0  0  0  0  0  0  0  0  0  0  0  0
  189.4230  178.0180  139.2230 C   0  0  0  0  0  0  0  0  0  0  0  0
  189.1030  179.2300  139.0860 O   0  0  0  0  0  0  0  0  0  0  0  0
  187.9830  176.0520  143.5370 C   0  0  0  0  0  1  0  0  0  0  0  0
  189.5970  177.4890  140.5910 C   0  0  0  0  0  0  0  0  0  0  0  0
  191.0530  177.3920  141.4410 S   0  0  0  0  0  0  0  0  0  0  0  0
  188.5700  176.9870  141.3160 N   0  0  0  0  0  0  0  0  0  0  0  0
  190.3400  176.6620  142.7730 C   0  0  0  0  0  0  0  0  0  0  0  0
  188.9710  176.5350  142.5340 C   0  0  0  0  0  0  0  0  0  0  0  0
  191.0420  176.3600  143.9840 N   0  0  0  0  0  2  0  0  0  0  0  0
  191.8300  176.9320  146.0930 O   0  0  0  0  0  0  0  0  0  0  0  0
  190.9730  177.1250  145.1930 C   0  0  0  0  0  0  0  0  0  0  0  0
  189.8430  178.0760  145.4550 C   0  0  0  0  0  2  0  0  0  0  0  0
  187.5740  178.0230  146.4380 C   0  0  0  0  0  1  0  0  0  0  0  0
  189.4770  178.3720  147.8090 O   0  0  0  0  0  1  0  0  0  0  0  0
  189.1340  176.3150  146.9080 F   0  0  0  0  0  0  0  0  0  0  0  0
  189.0290  177.6770  146.6830 C   0  0  2  0  0  0  0  0  0  0  0  0
  187.1980  176.8860  137.7750 N   0  0  0  0  0  2  0  0  0  0  0  0
  186.4100  178.0970  137.6040 C   0  0  0  0  0  2  0  0  0  0  0  0
  183.5590  178.7370  143.5410 C   0  0  0  0  0  3  0  0  0  0  0  0
  182.7180  179.1860  139.9800 O   0  0  0  0  0  0  0  0  0  0  0  0
  182.8370  178.8890  142.3550 C   0  0  0  0  0  3  0  0  0  0  0  0
  185.6890  178.8130  139.8930 O   0  0  0  0  0  0  0  0  0  0  0  0
  184.9490  178.6500  143.5040 C   0  0  0  0  0  3  0  0  0  0  0  0
  182.9380  177.3800  138.4050 C   0  0  0  0  0  3  0  0  0  0  0  0
  184.9130  178.8190  141.0730 C   0  0  0  0  0  0  0  0  0  0  0  0
  184.1970  177.6950  138.4590 C   0  0  0  0  0  0  0  0  0  0  0  0
  183.4940  178.9480  141.1200 C   0  0  0  0  0  0  0  0  0  0  0  0
  182.0180  178.1220  139.3250 C   0  0  0  0  0  2  0  0  0  0  0  0
  185.6170  178.6940  142.2790 C   0  0  0  0  0  3  0  0  0  0  0  0
  185.3810  178.1760  138.6760 C   0  0  0  0  0  0  0  0  0  0  0  0
  1  8  1  0  0  0  0
  2  1  1  0  0  0  0
  3 24  1  0  0  0  0
  3  1  2  0  0  0  0
  4  7  1  0  0  0  0
  5  7  2  0  0  0  0
  5  6  1  0  0  0  0
  6  2  2  0  0  0  0
  7  3  1  0  0  0  0
  8 11  1  0  0  0  0
  9  8  2  0  0  0  0
 11 13  2  0  0  0  0
 11 12  1  0  0  0  0
 12 14  1  0  0  0  0
 13 15  1  0  0  0  0
 14 16  1  0  0  0  0
 15 14  2  0  0  0  0
 15 10  1  0  0  0  0
 16 18  1  0  0  0  0
 18 19  1  0  0  0  0
 18 17  2  0  0  0  0
 19 23  1  0  0  0  0
 23 20  1  6  0  0  0
 23 22  1  0  0  0  0
 23 21  1  0  0  0  0
 25 24  1  0  0  0  0
 25 37  1  0  0  0  0
 27 34  1  0  0  0  0
 28 26  2  0  0  0  0
 29 32  1  0  0  0  0
 30 26  1  0  0  0  0
 31 33  2  0  0  0  0
 31 35  1  0  0  0  0
 32 34  2  0  0  0  0
 32 36  1  0  0  0  0
 33 37  2  0  0  0  0
 34 28  1  0  0  0  0
 35 27  1  0  0  0  0
 36 30  2  0  0  0  0
 37 29  1  0  0  0  0
M  END
>  <MODEL>
1

>  <REMARK>
 VINA RESULT:      -8.7      0.000      0.000
  Name = 
  8 active torsions:
  status: ('A' for Active; 'I' for Inactive)
    1  A    between atoms: C_1  and  C_3
    2  A    between atoms: C_3  and  C_8
    3  A    between atoms: C_7  and  N_23
    4  A    between atoms: N_11  and  C_25
    5  A    between atoms: C_18  and  C_30
    6  A    between atoms: N_23  and  C_27
    7  A    between atoms: C_27  and  C_37
    8  A    between atoms: C_28  and  C_30
                            x       y       z     vdW  Elec       q    Type
                         _______ _______ _______ _____ _____    ______ ____

>  <TORSDO>
F 8

$$$$
=
 OpenBabel11042411573D

 37 40  0  0  1  0  0  0  0  0999 V2000
  187.1160  178.3580  138.8800 C   0  0  0  0  0  0  0  0  0  0  0  0
  185.9420  178.3630  138.1180 C   0  0  0  0  0  3  0  0  0  0  0  0
  187.0310  178.5030  140.2850 C   0  0  0  0  0  0  0  0  0  0  0  0
  185.5840  178.7630  142.2840 N   0  0  0  0  0  1  0  0  0  0  0  0
  184.6380  178.6250  140.0920 N   0  0  0  0  0  0  0  0  0  0  0  0
  184.7060  178.4960  138.7430 C   0  0  0  0  0  3  0  0  0  0  0  0
  185.7490  178.6320  140.8750 C   0  0  0  0  0  0  0  0  0  0  0  0
  188.4230  178.2550  138.1870 C   0  0  0  0  0  0  0  0  0  0  0  0
  189.0140  179.3090  137.8260 O   0  0  0  0  0  0  0  0  0  0  0  0
  188.6650  173.6250  136.4410 C   0  0  0  0  0  1  0  0  0  0  0  0
  189.0590  176.9560  137.8880 C   0  0  0  0  0  0  0  0  0  0  0  0
  190.6410  176.5120  138.2770 S   0  0  0  0  0  0  0  0  0  0  0  0
  188.4190  175.9640  137.2260 N   0  0  0  0  0  0  0  0  0  0  0  0
  190.5010  175.0060  137.5500 C   0  0  0  0  0  0  0  0  0  0  0  0
  189.2090  174.8730  137.0430 C   0  0  0  0  0  0  0  0  0  0  0  0
  191.5260  174.0070  137.5880 N   0  0  0  0  0  2  0  0  0  0  0  0
  193.2950  172.8480  136.6260 O   0  0  0  0  0  0  0  0  0  0  0  0
  192.6200  173.9080  136.6680 C   0  0  0  0  0  0  0  0  0  0  0  0
  193.0450  175.0760  135.8280 C   0  0  0  0  0  2  0  0  0  0  0  0
  195.5180  175.1400  135.8330 C   0  0  0  0  0  1  0  0  0  0  0  0
  194.2910  175.6610  137.7940 O   0  0  0  0  0  1  0  0  0  0  0  0
  194.2570  177.1230  136.0570 F   0  0  0  0  0  0  0  0  0  0  0  0
  194.2690  175.7830  136.4030 C   0  0  2  0  0  0  0  0  0  0  0  0
  188.2440  178.4750  141.0590 N   0  0  0  0  0  2  0  0  0  0  0  0
  188.9090  177.2920  141.5830 C   0  0  0  0  0  2  0  0  0  0  0  0
  187.7410  178.1500  148.0400 C   0  0  0  0  0  3  0  0  0  0  0  0
  190.3000  176.6640  145.8420 O   0  0  0  0  0  0  0  0  0  0  0  0
  188.9470  177.6230  147.5710 C   0  0  0  0  0  3  0  0  0  0  0  0
  188.0530  177.2000  143.9340 O   0  0  0  0  0  0  0  0  0  0  0  0
  186.6690  178.3180  147.1670 C   0  0  0  0  0  3  0  0  0  0  0  0
  191.4000  177.9670  144.1420 C   0  0  0  0  0  3  0  0  0  0  0  0
  188.0150  177.4720  145.3200 C   0  0  0  0  0  0  0  0  0  0  0  0
  190.2930  177.7660  143.4940 C   0  0  0  0  0  0  0  0  0  0  0  0
  189.0960  177.2640  146.2250 C   0  0  0  0  0  0  0  0  0  0  0  0
  191.4600  177.4520  145.5480 C   0  0  0  0  0  2  0  0  0  0  0  0
  186.8070  177.9780  145.8200 C   0  0  0  0  0  3  0  0  0  0  0  0
  189.1170  177.4470  143.0480 C   0  0  0  0  0  0  0  0  0  0  0  0
  1  3  1  0  0  0  0
  2  6  1  0  0  0  0
  2  1  2  0  0  0  0
  3  7  2  0  0  0  0
  3 24  1  0  0  0  0
  5  7  1  0  0  0  0
  6  5  2  0  0  0  0
  7  4  1  0  0  0  0
  8  1  1  0  0  0  0
  9  8  2  0  0  0  0
 10 15  1  0  0  0  0
 11  8  1  0  0  0  0
 11 12  1  0  0  0  0
 13 11  2  0  0  0  0
 14 16  1  0  0  0  0
 14 12  1  0  0  0  0
 15 13  1  0  0  0  0
 15 14  2  0  0  0  0
 17 18  2  0  0  0  0
 18 16  1  0  0  0  0
 19 23  1  0  0  0  0
 19 18  1  0  0  0  0
 22 23  1  0  0  0  0
 23 20  1  6  0  0  0
 23 21  1  0  0  0  0
 24 25  1  0  0  0  0
 25 37  1  0  0  0  0
 27 34  1  0  0  0  0
 28 26  1  0  0  0  0
 29 32  1  0  0  0  0
 30 26  2  0  0  0  0
 31 35  1  0  0  0  0
 32 36  2  0  0  0  0
 32 34  1  0  0  0  0
 33 31  2  0  0  0  0
 34 28  2  0  0  0  0
 35 27  1  0  0  0  0
 36 30  1  0  0  0  0
 37 33  2  0  0  0  0
 37 29  1  0  0  0  0
M  END
>  <MODEL>
2

>  <REMARK>
 VINA RESULT:      -8.7      3.310      7.510
  Name = 
  8 active torsions:
  status: ('A' for Active; 'I' for Inactive)
    1  A    between atoms: C_1  and  C_3
    2  A    between atoms: C_3  and  C_8
    3  A    between atoms: C_7  and  N_23
    4  A    between atoms: N_11  and  C_25
    5  A    between atoms: C_18  and  C_30
    6  A    between atoms: N_23  and  C_27
    7  A    between atoms: C_27  and  C_37
    8  A    between atoms: C_28  and  C_30
                            x       y       z     vdW  Elec       q    Type
                         _______ _______ _______ _____ _____    ______ ____

>  <TORSDO>
F 8

$$$$
=
 OpenBabel11042411573D

 37 40  0  0  1  0  0  0  0  0999 V2000
  189.2720  177.3590  137.3830 C   0  0  0  0  0  0  0  0  0  0  0  0
  189.2760  177.4130  135.9860 C   0  0  0  0  0  3  0  0  0  0  0  0
  190.0440  176.3730  138.0420 C   0  0  0  0  0  0  0  0  0  0  0  0
  191.6270  174.4720  137.8490 N   0  0  0  0  0  1  0  0  0  0  0  0
  190.7870  175.5750  135.9000 N   0  0  0  0  0  0  0  0  0  0  0  0
  190.0450  176.5100  135.2560 C   0  0  0  0  0  3  0  0  0  0  0  0
  190.8110  175.4790  137.2560 C   0  0  0  0  0  0  0  0  0  0  0  0
  188.4150  178.3070  138.1370 C   0  0  0  0  0  0  0  0  0  0  0  0
  188.9530  179.2610  138.7610 O   0  0  0  0  0  0  0  0  0  0  0  0
  183.9080  178.6940  140.1580 C   0  0  0  0  0  1  0  0  0  0  0  0
  186.9460  178.1670  138.1990 C   0  0  0  0  0  0  0  0  0  0  0  0
  185.9620  177.4910  137.0040 S   0  0  0  0  0  0  0  0  0  0  0  0
  186.2130  178.6060  139.2490 N   0  0  0  0  0  0  0  0  0  0  0  0
  184.5490  177.7950  137.8580 C   0  0  0  0  0  0  0  0  0  0  0  0
  184.8820  178.3930  139.0740 C   0  0  0  0  0  0  0  0  0  0  0  0
  183.2520  177.3690  137.4260 N   0  0  0  0  0  2  0  0  0  0  0  0
  181.7710  175.7380  136.6900 O   0  0  0  0  0  0  0  0  0  0  0  0
  182.8170  176.0070  137.3350 C   0  0  0  0  0  0  0  0  0  0  0  0
  183.5190  174.9080  138.0750 C   0  0  0  0  0  2  0  0  0  0  0  0
  185.1450  173.0600  137.8430 C   0  0  0  0  0  1  0  0  0  0  0  0
  184.5710  174.4060  135.9770 O   0  0  0  0  0  1  0  0  0  0  0  0
  183.0330  172.9490  136.7950 F   0  0  0  0  0  0  0  0  0  0  0  0
  184.0470  173.8280  137.1360 C   0  0  2  0  0  0  0  0  0  0  0  0
  190.0480  176.3420  139.4810 N   0  0  0  0  0  2  0  0  0  0  0  0
  190.9860  177.0260  140.3590 C   0  0  0  0  0  2  0  0  0  0  0  0
  186.4340  177.9960  145.0630 C   0  0  0  0  0  3  0  0  0  0  0  0
  189.8590  176.6770  144.7270 O   0  0  0  0  0  0  0  0  0  0  0  0
  187.7280  177.5660  145.3660 C   0  0  0  0  0  3  0  0  0  0  0  0
  188.9920  176.9370  141.8710 O   0  0  0  0  0  0  0  0  0  0  0  0
  186.0040  178.0330  143.7390 C   0  0  0  0  0  3  0  0  0  0  0  0
  191.6300  178.0170  143.7960 C   0  0  0  0  0  3  0  0  0  0  0  0
  188.1870  177.2520  142.9880 C   0  0  0  0  0  0  0  0  0  0  0  0
  191.0710  177.6920  142.6700 C   0  0  0  0  0  0  0  0  0  0  0  0
  188.6090  177.1770  144.3490 C   0  0  0  0  0  0  0  0  0  0  0  0
  190.9430  177.5580  145.0460 C   0  0  0  0  0  2  0  0  0  0  0  0
  186.8750  177.6610  142.7130 C   0  0  0  0  0  3  0  0  0  0  0  0
  190.3500  177.2510  141.6860 C   0  0  0  0  0  0  0  0  0  0  0  0
  1  3  1  0  0  0  0
  1  8  1  0  0  0  0
  2  1  2  0  0  0  0
  3 24  1  0  0  0  0
  5  7  1  0  0  0  0
  6  5  2  0  0  0  0
  6  2  1  0  0  0  0
  7  4  1  0  0  0  0
  7  3  2  0  0  0  0
  8 11  1  0  0  0  0
  8  9  2  0  0  0  0
 11 13  2  0  0  0  0
 12 14  1  0  0  0  0
 12 11  1  0  0  0  0
 14 15  2  0  0  0  0
 15 13  1  0  0  0  0
 15 10  1  0  0  0  0
 16 14  1  0  0  0  0
 17 18  2  0  0  0  0
 18 16  1  0  0  0  0
 18 19  1  0  0  0  0
 21 23  1  0  0  0  0
 22 23  1  0  0  0  0
 23 20  1  1  0  0  0
 23 19  1  0  0  0  0
 24 25  1  0  0  0  0
 25 37  1  0  0  0  0
 26 28  1  0  0  0  0
 27 35  1  0  0  0  0
 29 32  1  0  0  0  0
 30 26  2  0  0  0  0
 31 35  1  0  0  0  0
 32 34  1  0  0  0  0
 33 31  2  0  0  0  0
 34 27  1  0  0  0  0
 34 28  2  0  0  0  0
 36 32  2  0  0  0  0
 36 30  1  0  0  0  0
 37 29  1  0  0  0  0
 37 33  2  0  0  0  0
M  END
>  <MODEL>
3

>  <REMARK>
 VINA RESULT:      -8.6      3.263      7.163
  Name = 
  8 active torsions:
  status: ('A' for Active; 'I' for Inactive)
    1  A    between atoms: C_1  and  C_3
    2  A    between atoms: C_3  and  C_8
    3  A    between atoms: C_7  and  N_23
    4  A    between atoms: N_11  and  C_25
    5  A    between atoms: C_18  and  C_30
    6  A    between atoms: N_23  and  C_27
    7  A    between atoms: C_27  and  C_37
    8  A    between atoms: C_28  and  C_30
                            x       y       z     vdW  Elec       q    Type
                         _______ _______ _______ _____ _____    ______ ____

>  <TORSDO>
F 8

$$$$
=
 OpenBabel11042411573D

 37 40  0  0  1  0  0  0  0  0999 V2000
  191.2430  175.3570  137.1900 C   0  0  0  0  0  0  0  0  0  0  0  0
  192.1040  175.2970  136.0890 C   0  0  0  0  0  3  0  0  0  0  0  0
  191.6700  176.0120  138.3700 C   0  0  0  0  0  0  0  0  0  0  0  0
  193.4500  177.2930  139.5320 N   0  0  0  0  0  1  0  0  0  0  0  0
  193.7560  176.5210  137.2890 N   0  0  0  0  0  0  0  0  0  0  0  0
  193.3620  175.8890  136.1550 C   0  0  0  0  0  3  0  0  0  0  0  0
  192.9590  176.6010  138.3870 C   0  0  0  0  0  0  0  0  0  0  0  0
  189.9230  174.6850  137.1090 C   0  0  0  0  0  0  0  0  0  0  0  0
  189.8460  173.4490  137.3450 O   0  0  0  0  0  0  0  0  0  0  0  0
  187.2170  178.2220  134.9380 C   0  0  0  0  0  1  0  0  0  0  0  0
  188.6880  175.4090  136.7470 C   0  0  0  0  0  0  0  0  0  0  0  0
  187.1240  175.0170  137.2480 S   0  0  0  0  0  0  0  0  0  0  0  0
  188.6860  176.4850  135.9260 N   0  0  0  0  0  0  0  0  0  0  0  0
  186.4240  176.2590  136.3620 C   0  0  0  0  0  0  0  0  0  0  0  0
  187.4340  176.9710  135.7150 C   0  0  0  0  0  0  0  0  0  0  0  0
  185.0280  176.5750  136.4030 N   0  0  0  0  0  2  0  0  0  0  0  0
  183.1440  177.3960  137.4850 O   0  0  0  0  0  0  0  0  0  0  0  0
  184.3970  177.4090  137.3820 C   0  0  0  0  0  0  0  0  0  0  0  0
  185.1860  178.3740  138.2150 C   0  0  0  0  0  2  0  0  0  0  0  0
  183.3610  179.8190  139.0490 C   0  0  0  0  0  1  0  0  0  0  0  0
  185.2890  179.4250  140.3710 O   0  0  0  0  0  1  0  0  0  0  0  0
  183.8070  177.7330  140.0590 F   0  0  0  0  0  0  0  0  0  0  0  0
  184.4220  178.8180  139.4590 C   0  0  2  0  0  0  0  0  0  0  0  0
  190.7670  176.0850  139.4880 N   0  0  0  0  0  2  0  0  0  0  0  0
  189.8740  177.1890  139.8090 C   0  0  0  0  0  2  0  0  0  0  0  0
  187.1300  177.7420  145.8040 C   0  0  0  0  0  3  0  0  0  0  0  0
  190.1890  176.3940  144.2510 O   0  0  0  0  0  0  0  0  0  0  0  0
  188.4270  177.2540  145.6290 C   0  0  0  0  0  3  0  0  0  0  0  0
  188.4680  176.9790  141.8700 O   0  0  0  0  0  0  0  0  0  0  0  0
  186.3010  177.9310  144.7010 C   0  0  0  0  0  3  0  0  0  0  0  0
  191.6390  177.7880  142.9290 C   0  0  0  0  0  3  0  0  0  0  0  0
  188.0820  177.1890  143.2120 C   0  0  0  0  0  0  0  0  0  0  0  0
  190.7320  177.5990  142.0190 C   0  0  0  0  0  0  0  0  0  0  0  0
  188.9130  176.9580  144.3480 C   0  0  0  0  0  0  0  0  0  0  0  0
  191.3650  177.2120  144.2840 C   0  0  0  0  0  2  0  0  0  0  0  0
  186.7760  177.6540  143.4180 C   0  0  0  0  0  3  0  0  0  0  0  0
  189.7110  177.2820  141.2850 C   0  0  0  0  0  0  0  0  0  0  0  0
  1  3  1  0  0  0  0
  2  6  1  0  0  0  0
  2  1  2  0  0  0  0
  3  7  2  0  0  0  0
  3 24  1  0  0  0  0
  5  7  1  0  0  0  0
  6  5  2  0  0  0  0
  7  4  1  0  0  0  0
  8  1  1  0  0  0  0
  8  9  2  0  0  0  0
 10 15  1  0  0  0  0
 11  8  1  0  0  0  0
 11 12  1  0  0  0  0
 13 11  2  0  0  0  0
 14 16  1  0  0  0  0
 14 12  1  0  0  0  0
 15 13  1  0  0  0  0
 15 14  2  0  0  0  0
 16 18  1  0  0  0  0
 18 17  2  0  0  0  0
 18 19  1  0  0  0  0
 19 23  1  0  0  0  0
 23 20  1  6  0  0  0
 23 22  1  0  0  0  0
 23 21  1  0  0  0  0
 24 25  1  0  0  0  0
 25 37  1  0  0  0  0
 27 35  1  0  0  0  0
 27 34  1  0  0  0  0
 28 26  1  0  0  0  0
 29 32  1  0  0  0  0
 30 26  2  0  0  0  0
 31 35  1  0  0  0  0
 32 36  2  0  0  0  0
 32 34  1  0  0  0  0
 33 31  2  0  0  0  0
 34 28  2  0  0  0  0
 36 30  1  0  0  0  0
 37 29  1  0  0  0  0
 37 33  2  0  0  0  0
M  END
>  <MODEL>
4

>  <REMARK>
 VINA RESULT:      -8.6      2.888      6.829
  Name = 
  8 active torsions:
  status: ('A' for Active; 'I' for Inactive)
    1  A    between atoms: C_1  and  C_3
    2  A    between atoms: C_3  and  C_8
    3  A    between atoms: C_7  and  N_23
    4  A    between atoms: N_11  and  C_25
    5  A    between atoms: C_18  and  C_30
    6  A    between atoms: N_23  and  C_27
    7  A    between atoms: C_27  and  C_37
    8  A    between atoms: C_28  and  C_30
                            x       y       z     vdW  Elec       q    Type
                         _______ _______ _______ _____ _____    ______ ____

>  <TORSDO>
F 8

$$$$
=
 OpenBabel11042411573D

 37 40  0  0  1  0  0  0  0  0999 V2000
  186.6900  178.4170  138.9740 C   0  0  0  0  0  0  0  0  0  0  0  0
  185.4370  178.4590  138.3520 C   0  0  0  0  0  3  0  0  0  0  0  0
  186.7780  178.6270  140.3700 C   0  0  0  0  0  0  0  0  0  0  0  0
  185.5920  179.0600  142.5070 N   0  0  0  0  0  1  0  0  0  0  0  0
  184.3890  178.8840  140.4470 N   0  0  0  0  0  0  0  0  0  0  0  0
  184.2920  178.6920  139.1080 C   0  0  0  0  0  3  0  0  0  0  0  0
  185.5840  178.8580  141.0960 C   0  0  0  0  0  0  0  0  0  0  0  0
  187.9000  178.2060  138.1410 C   0  0  0  0  0  0  0  0  0  0  0  0
  188.6820  179.1730  137.9350 O   0  0  0  0  0  0  0  0  0  0  0  0
  190.6370  174.1780  137.2310 C   0  0  0  0  0  1  0  0  0  0  0  0
  188.2190  176.9010  137.5280 C   0  0  0  0  0  0  0  0  0  0  0  0
  187.2520  176.0550  136.4330 S   0  0  0  0  0  0  0  0  0  0  0  0
  189.3520  176.2180  137.8130 N   0  0  0  0  0  0  0  0  0  0  0  0
  188.3160  174.7600  136.3430 C   0  0  0  0  0  0  0  0  0  0  0  0
  189.4200  175.0320  137.1510 C   0  0  0  0  0  0  0  0  0  0  0  0
  188.1380  173.6440  135.4640 N   0  0  0  0  0  2  0  0  0  0  0  0
  187.6210  171.4160  135.0600 O   0  0  0  0  0  0  0  0  0  0  0  0
  187.4800  172.4190  135.8060 C   0  0  0  0  0  0  0  0  0  0  0  0
  186.5440  172.3310  136.9740 C   0  0  0  0  0  2  0  0  0  0  0  0
  184.5390  173.6370  137.6000 C   0  0  0  0  0  1  0  0  0  0  0  0
  184.3240  171.5080  136.5800 O   0  0  0  0  0  1  0  0  0  0  0  0
  185.0710  173.2520  135.3330 F   0  0  0  0  0  0  0  0  0  0  0  0
  185.1060  172.6650  136.5860 C   0  0  2  0  0  0  0  0  0  0  0  0
  188.0700  178.5610  141.0010 N   0  0  0  0  0  2  0  0  0  0  0  0
  188.7320  177.3610  141.4940 C   0  0  0  0  0  2  0  0  0  0  0  0
  187.8800  178.1240  148.0110 C   0  0  0  0  0  3  0  0  0  0  0  0
  190.3670  176.7450  145.6660 O   0  0  0  0  0  0  0  0  0  0  0  0
  189.0760  177.6420  147.4750 C   0  0  0  0  0  3  0  0  0  0  0  0
  188.0050  177.2200  143.8860 O   0  0  0  0  0  0  0  0  0  0  0  0
  186.7580  178.2630  147.1980 C   0  0  0  0  0  3  0  0  0  0  0  0
  191.3310  178.0990  143.9250 C   0  0  0  0  0  3  0  0  0  0  0  0
  188.0320  177.4790  145.2740 C   0  0  0  0  0  0  0  0  0  0  0  0
  190.1980  177.8660  143.3340 C   0  0  0  0  0  0  0  0  0  0  0  0
  189.1660  177.3000  146.1190 C   0  0  0  0  0  0  0  0  0  0  0  0
  191.4830  177.5740  145.3200 C   0  0  0  0  0  2  0  0  0  0  0  0
  186.8360  177.9390  145.8420 C   0  0  0  0  0  3  0  0  0  0  0  0
  189.0120  177.5110  142.9480 C   0  0  0  0  0  0  0  0  0  0  0  0
  1  3  1  0  0  0  0
  2  1  2  0  0  0  0
  2  6  1  0  0  0  0
  3 24  1  0  0  0  0
  3  7  2  0  0  0  0
  5  7  1  0  0  0  0
  6  5  2  0  0  0  0
  7  4  1  0  0  0  0
  8  1  1  0  0  0  0
  9  8  2  0  0  0  0
 11 13  2  0  0  0  0
 11  8  1  0  0  0  0
 12 11  1  0  0  0  0
 14 12  1  0  0  0  0
 14 15  2  0  0  0  0
 15 10  1  0  0  0  0
 15 13  1  0  0  0  0
 16 18  1  0  0  0  0
 16 14  1  0  0  0  0
 17 18  2  0  0  0  0
 18 19  1  0  0  0  0
 21 23  1  0  0  0  0
 22 23  1  0  0  0  0
 23 19  1  0  0  0  0
 23 20  1  1  0  0  0
 24 25  1  0  0  0  0
 25 37  1  0  0  0  0
 27 34  1  0  0  0  0
 28 26  1  0  0  0  0
 29 32  1  0  0  0  0
 30 26  2  0  0  0  0
 31 35  1  0  0  0  0
 32 36  2  0  0  0  0
 32 34  1  0  0  0  0
 33 31  2  0  0  0  0
 34 28  2  0  0  0  0
 35 27  1  0  0  0  0
 36 30  1  0  0  0  0
 37 33  2  0  0  0  0
 37 29  1  0  0  0  0
M  END
>  <MODEL>
5

>  <REMARK>
 VINA RESULT:      -8.4      3.759      7.899
  Name = 
  8 active torsions:
  status: ('A' for Active; 'I' for Inactive)
    1  A    between atoms: C_1  and  C_3
    2  A    between atoms: C_3  and  C_8
    3  A    between atoms: C_7  and  N_23
    4  A    between atoms: N_11  and  C_25
    5  A    between atoms: C_18  and  C_30
    6  A    between atoms: N_23  and  C_27
    7  A    between atoms: C_27  and  C_37
    8  A    between atoms: C_28  and  C_30
                            x       y       z     vdW  Elec       q    Type
                         _______ _______ _______ _____ _____    ______ ____

>  <TORSDO>
F 8

$$$$
=
 OpenBabel11042411573D

 37 40  0  0  1  0  0  0  0  0999 V2000
  183.4450  179.0390  140.7400 C   0  0  0  0  0  0  0  0  0  0  0  0
  182.0570  178.8710  140.7230 C   0  0  0  0  0  3  0  0  0  0  0  0
  184.1330  179.0030  141.9760 C   0  0  0  0  0  0  0  0  0  0  0  0
  184.0110  178.7150  144.4380 N   0  0  0  0  0  1  0  0  0  0  0  0
  182.0370  178.6190  143.0900 N   0  0  0  0  0  0  0  0  0  0  0  0
  181.3660  178.6590  141.9120 C   0  0  0  0  0  3  0  0  0  0  0  0
  183.3850  178.7820  143.1590 C   0  0  0  0  0  0  0  0  0  0  0  0
  184.1550  179.3020  139.4640 C   0  0  0  0  0  0  0  0  0  0  0  0
  184.3310  180.4940  139.0920 O   0  0  0  0  0  0  0  0  0  0  0  0
  184.1310  174.8210  137.3500 C   0  0  0  0  0  1  0  0  0  0  0  0
  184.6530  178.2150  138.5970 C   0  0  0  0  0  0  0  0  0  0  0  0
  186.0620  178.2540  137.6670 S   0  0  0  0  0  0  0  0  0  0  0  0
  183.9930  177.0450  138.4400 N   0  0  0  0  0  0  0  0  0  0  0  0
  185.7980  176.7260  137.0250 C   0  0  0  0  0  0  0  0  0  0  0  0
  184.6260  176.2070  137.5770 C   0  0  0  0  0  0  0  0  0  0  0  0
  186.7220  176.0560  136.1610 N   0  0  0  0  0  2  0  0  0  0  0  0
  188.8790  175.5780  135.4440 O   0  0  0  0  0  0  0  0  0  0  0  0
  188.1310  175.9390  136.3890 C   0  0  0  0  0  0  0  0  0  0  0  0
  188.7240  176.1370  137.7520 C   0  0  0  0  0  2  0  0  0  0  0  0
  189.7850  177.8760  139.1550 C   0  0  0  0  0  1  0  0  0  0  0  0
  189.4270  178.2430  136.8400 O   0  0  0  0  0  1  0  0  0  0  0  0
  191.0180  176.7550  137.4820 F   0  0  0  0  0  0  0  0  0  0  0  0
  189.7600  177.2570  137.7720 C   0  0  2  0  0  0  0  0  0  0  0  0
  185.5640  179.1550  141.9780 N   0  0  0  0  0  2  0  0  0  0  0  0
  186.5470  178.1050  141.7520 C   0  0  0  0  0  2  0  0  0  0  0  0
  188.6910  177.8760  148.0080 C   0  0  0  0  0  3  0  0  0  0  0  0
  189.7160  176.7130  144.6640 O   0  0  0  0  0  0  0  0  0  0  0  0
  189.4620  177.4000  146.9460 C   0  0  0  0  0  3  0  0  0  0  0  0
  186.9070  177.6370  144.1860 O   0  0  0  0  0  0  0  0  0  0  0  0
  187.3580  178.2240  147.8010 C   0  0  0  0  0  3  0  0  0  0  0  0
  190.0110  178.2540  142.8400 C   0  0  0  0  0  3  0  0  0  0  0  0
  187.5620  177.6670  145.4370 C   0  0  0  0  0  0  0  0  0  0  0  0
  188.7150  178.2020  142.7920 C   0  0  0  0  0  0  0  0  0  0  0  0
  188.9140  177.2740  145.6630 C   0  0  0  0  0  0  0  0  0  0  0  0
  190.6750  177.5030  143.9530 C   0  0  0  0  0  2  0  0  0  0  0  0
  186.8010  178.1160  146.5250 C   0  0  0  0  0  3  0  0  0  0  0  0
  187.4420  178.0000  142.9360 C   0  0  0  0  0  0  0  0  0  0  0  0
  1  3  1  0  0  0  0
  2  1  2  0  0  0  0
  2  6  1  0  0  0  0
  3 24  1  0  0  0  0
  3  7  2  0  0  0  0
  5  7  1  0  0  0  0
  6  5  2  0  0  0  0
  7  4  1  0  0  0  0
  8  1  1  0  0  0  0
  9  8  2  0  0  0  0
 10 15  1  0  0  0  0
 11  8  1  0  0  0  0
 12 11  1  0  0  0  0
 13 11  2  0  0  0  0
 14 15  2  0  0  0  0
 14 12  1  0  0  0  0
 15 13  1  0  0  0  0
 16 18  1  0  0  0  0
 16 14  1  0  0  0  0
 17 18  2  0  0  0  0
 18 19  1  0  0  0  0
 19 23  1  0  0  0  0
 21 23  1  0  0  0  0
 22 23  1  0  0  0  0
 23 20  1  1  0  0  0
 25 24  1  0  0  0  0
 25 37  1  0  0  0  0
 27 34  1  0  0  0  0
 28 26  2  0  0  0  0
 29 32  1  0  0  0  0
 30 26  1  0  0  0  0
 31 35  1  0  0  0  0
 32 34  2  0  0  0  0
 32 36  1  0  0  0  0
 33 31  2  0  0  0  0
 33 37  2  0  0  0  0
 34 28  1  0  0  0  0
 35 27  1  0  0  0  0
 36 30  2  0  0  0  0
 37 29  1  0  0  0  0
M  END
>  <MODEL>
6

>  <REMARK>
 VINA RESULT:      -8.3      3.087      7.819
  Name = 
  8 active torsions:
  status: ('A' for Active; 'I' for Inactive)
    1  A    between atoms: C_1  and  C_3
    2  A    between atoms: C_3  and  C_8
    3  A    between atoms: C_7  and  N_23
    4  A    between atoms: N_11  and  C_25
    5  A    between atoms: C_18  and  C_30
    6  A    between atoms: N_23  and  C_27
    7  A    between atoms: C_27  and  C_37
    8  A    between atoms: C_28  and  C_30
                            x       y       z     vdW  Elec       q    Type
                         _______ _______ _______ _____ _____    ______ ____

>  <TORSDO>
F 8

$$$$
=
 OpenBabel11042411573D

 37 40  0  0  1  0  0  0  0  0999 V2000
  189.6370  177.5450  137.9010 C   0  0  0  0  0  0  0  0  0  0  0  0
  190.4480  176.8960  136.9640 C   0  0  0  0  0  3  0  0  0  0  0  0
  190.0650  177.6320  139.2470 C   0  0  0  0  0  0  0  0  0  0  0  0
  191.8220  177.1310  140.9270 N   0  0  0  0  0  1  0  0  0  0  0  0
  192.0720  176.4520  138.6470 N   0  0  0  0  0  0  0  0  0  0  0  0
  191.6690  176.3550  137.3560 C   0  0  0  0  0  3  0  0  0  0  0  0
  191.3170  177.0670  139.5960 C   0  0  0  0  0  0  0  0  0  0  0  0
  188.3230  178.0800  137.4680 C   0  0  0  0  0  0  0  0  0  0  0  0
  188.2120  179.3100  137.2150 O   0  0  0  0  0  0  0  0  0  0  0  0
  185.8210  173.8280  137.0080 C   0  0  0  0  0  1  0  0  0  0  0  0
  187.1260  177.2250  137.3350 C   0  0  0  0  0  0  0  0  0  0  0  0
  185.5270  177.7610  137.2520 S   0  0  0  0  0  0  0  0  0  0  0  0
  187.1940  175.8740  137.2890 N   0  0  0  0  0  0  0  0  0  0  0  0
  184.9050  176.2040  137.1770 C   0  0  0  0  0  0  0  0  0  0  0  0
  185.9670  175.2990  137.1900 C   0  0  0  0  0  0  0  0  0  0  0  0
  183.5160  175.9110  136.9960 N   0  0  0  0  0  2  0  0  0  0  0  0
  181.4710  175.1220  137.7650 O   0  0  0  0  0  0  0  0  0  0  0  0
  182.5850  175.6310  138.0490 C   0  0  0  0  0  0  0  0  0  0  0  0
  182.8650  176.0270  139.4680 C   0  0  0  0  0  2  0  0  0  0  0  0
  183.3740  178.0940  140.7280 C   0  0  0  0  0  1  0  0  0  0  0  0
  181.1300  177.4170  140.3730 O   0  0  0  0  0  1  0  0  0  0  0  0
  182.3330  178.1940  138.6110 F   0  0  0  0  0  0  0  0  0  0  0  0
  182.3910  177.4450  139.7740 C   0  0  2  0  0  0  0  0  0  0  0  0
  189.2310  178.3200  140.1970 N   0  0  0  0  0  2  0  0  0  0  0  0
  187.9370  177.8770  140.6940 C   0  0  0  0  0  2  0  0  0  0  0  0
  185.8150  178.4090  146.9390 C   0  0  0  0  0  3  0  0  0  0  0  0
  188.6670  177.0070  145.0720 O   0  0  0  0  0  0  0  0  0  0  0  0
  187.0740  177.8910  146.6290 C   0  0  0  0  0  3  0  0  0  0  0  0
  186.7360  177.6730  142.8810 O   0  0  0  0  0  0  0  0  0  0  0  0
  184.8870  178.6370  145.9260 C   0  0  0  0  0  3  0  0  0  0  0  0
  190.0170  178.3830  143.6300 C   0  0  0  0  0  3  0  0  0  0  0  0
  186.4910  177.8720  144.2580 C   0  0  0  0  0  0  0  0  0  0  0  0
  189.0190  178.2320  142.8130 C   0  0  0  0  0  0  0  0  0  0  0  0
  187.4230  177.6020  145.3030 C   0  0  0  0  0  0  0  0  0  0  0  0
  189.8620  177.7930  144.9990 C   0  0  0  0  0  2  0  0  0  0  0  0
  185.2240  178.3670  144.5980 C   0  0  0  0  0  3  0  0  0  0  0  0
  187.9230  177.9520  142.1800 C   0  0  0  0  0  0  0  0  0  0  0  0
  1  3  1  0  0  0  0
  2  6  1  0  0  0  0
  2  1  2  0  0  0  0
  3  7  2  0  0  0  0
  3 24  1  0  0  0  0
  5  7  1  0  0  0  0
  6  5  2  0  0  0  0
  7  4  1  0  0  0  0
  8  1  1  0  0  0  0
  9  8  2  0  0  0  0
 10 15  1  0  0  0  0
 11  8  1  0  0  0  0
 12 11  1  0  0  0  0
 13 11  2  0  0  0  0
 14 15  2  0  0  0  0
 14 12  1  0  0  0  0
 15 13  1  0  0  0  0
 16 14  1  0  0  0  0
 16 18  1  0  0  0  0
 17 18  2  0  0  0  0
 18 19  1  0  0  0  0
 19 23  1  0  0  0  0
 22 23  1  0  0  0  0
 23 21  1  0  0  0  0
 23 20  1  1  0  0  0
 24 25  1  0  0  0  0
 25 37  1  0  0  0  0
 27 34  1  0  0  0  0
 28 26  1  0  0  0  0
 29 32  1  0  0  0  0
 30 26  2  0  0  0  0
 31 35  1  0  0  0  0
 32 36  2  0  0  0  0
 32 34  1  0  0  0  0
 33 31  2  0  0  0  0
 34 28  2  0  0  0  0
 35 27  1  0  0  0  0
 36 30  1  0  0  0  0
 37 33  2  0  0  0  0
 37 29  1  0  0  0  0
M  END
>  <MODEL>
7

>  <REMARK>
 VINA RESULT:      -8.3      3.022      6.721
  Name = 
  8 active torsions:
  status: ('A' for Active; 'I' for Inactive)
    1  A    between atoms: C_1  and  C_3
    2  A    between atoms: C_3  and  C_8
    3  A    between atoms: C_7  and  N_23
    4  A    between atoms: N_11  and  C_25
    5  A    between atoms: C_18  and  C_30
    6  A    between atoms: N_23  and  C_27
    7  A    between atoms: C_27  and  C_37
    8  A    between atoms: C_28  and  C_30
                            x       y       z     vdW  Elec       q    Type
                         _______ _______ _______ _____ _____    ______ ____

>  <TORSDO>
F 8

$$$$
=
 OpenBabel11042411573D

 37 40  0  0  1  0  0  0  0  0999 V2000
  183.2020  178.8690  141.2370 C   0  0  0  0  0  0  0  0  0  0  0  0
  181.8050  178.8290  141.2990 C   0  0  0  0  0  3  0  0  0  0  0  0
  183.9480  178.9310  142.4380 C   0  0  0  0  0  0  0  0  0  0  0  0
  183.9300  178.9770  144.9190 N   0  0  0  0  0  1  0  0  0  0  0  0
  181.8880  178.8890  143.6770 N   0  0  0  0  0  0  0  0  0  0  0  0
  181.1610  178.8380  142.5330 C   0  0  0  0  0  3  0  0  0  0  0  0
  183.2470  178.9350  143.6690 C   0  0  0  0  0  0  0  0  0  0  0  0
  183.8630  178.8980  139.9090 C   0  0  0  0  0  0  0  0  0  0  0  0
  184.5490  179.9060  139.5850 O   0  0  0  0  0  0  0  0  0  0  0  0
  184.3760  176.6300  135.5350 C   0  0  0  0  0  1  0  0  0  0  0  0
  183.7380  177.7930  138.9390 C   0  0  0  0  0  0  0  0  0  0  0  0
  183.0160  176.2930  139.2290 S   0  0  0  0  0  0  0  0  0  0  0  0
  184.2290  177.8660  137.6800 N   0  0  0  0  0  0  0  0  0  0  0  0
  183.3690  175.7160  137.6930 C   0  0  0  0  0  0  0  0  0  0  0  0
  184.0190  176.7210  136.9770 C   0  0  0  0  0  0  0  0  0  0  0  0
  182.9340  174.4430  137.2040 N   0  0  0  0  0  2  0  0  0  0  0  0
  183.3540  172.3150  136.3720 O   0  0  0  0  0  0  0  0  0  0  0  0
  183.7640  173.2850  137.0600 C   0  0  0  0  0  0  0  0  0  0  0  0
  185.0650  173.1560  137.7960 C   0  0  0  0  0  2  0  0  0  0  0  0
  187.3090  172.4550  137.0290 C   0  0  0  0  0  1  0  0  0  0  0  0
  186.8080  174.7480  137.3610 O   0  0  0  0  0  1  0  0  0  0  0  0
  185.8690  173.6630  135.6020 F   0  0  0  0  0  0  0  0  0  0  0  0
  186.2580  173.5410  136.9250 C   0  0  2  0  0  0  0  0  0  0  0  0
  185.3850  178.9500  142.3620 N   0  0  0  0  0  2  0  0  0  0  0  0
  186.2590  177.7970  142.2040 C   0  0  0  0  0  2  0  0  0  0  0  0
  188.9580  177.9360  148.2440 C   0  0  0  0  0  3  0  0  0  0  0  0
  189.7230  176.6470  144.8760 O   0  0  0  0  0  0  0  0  0  0  0  0
  189.6480  177.4350  147.1380 C   0  0  0  0  0  3  0  0  0  0  0  0
  186.8500  177.4570  144.6130 O   0  0  0  0  0  0  0  0  0  0  0  0
  187.6000  178.2300  148.1420 C   0  0  0  0  0  3  0  0  0  0  0  0
  189.7980  178.1090  142.9650 C   0  0  0  0  0  3  0  0  0  0  0  0
  187.6130  177.5680  145.7960 C   0  0  0  0  0  0  0  0  0  0  0  0
  188.5060  178.0120  143.0370 C   0  0  0  0  0  0  0  0  0  0  0  0
  188.9930  177.2300  145.9170 C   0  0  0  0  0  0  0  0  0  0  0  0
  190.5860  177.4330  144.0460 C   0  0  0  0  0  2  0  0  0  0  0  0
  186.9360  178.0440  146.9280 C   0  0  0  0  0  3  0  0  0  0  0  0
  187.2590  177.7770  143.3050 C   0  0  0  0  0  0  0  0  0  0  0  0
  1  2  2  0  0  0  0
  1  3  1  0  0  0  0
  2  6  1  0  0  0  0
  3  7  2  0  0  0  0
  6  5  2  0  0  0  0
  7  5  1  0  0  0  0
  7  4  1  0  0  0  0
  8  1  1  0  0  0  0
  9  8  2  0  0  0  0
 10 15  1  0  0  0  0
 11 12  1  0  0  0  0
 11  8  1  0  0  0  0
 13 11  2  0  0  0  0
 14 12  1  0  0  0  0
 15 13  1  0  0  0  0
 15 14  2  0  0  0  0
 16 14  1  0  0  0  0
 17 18  2  0  0  0  0
 18 16  1  0  0  0  0
 18 19  1  0  0  0  0
 22 23  1  0  0  0  0
 23 20  1  1  0  0  0
 23 21  1  0  0  0  0
 23 19  1  0  0  0  0
 24  3  1  0  0  0  0
 25 24  1  0  0  0  0
 25 37  1  0  0  0  0
 27 34  1  0  0  0  0
 28 26  2  0  0  0  0
 29 32  1  0  0  0  0
 30 26  1  0  0  0  0
 31 33  2  0  0  0  0
 31 35  1  0  0  0  0
 32 34  2  0  0  0  0
 32 36  1  0  0  0  0
 33 37  2  0  0  0  0
 34 28  1  0  0  0  0
 35 27  1  0  0  0  0
 36 30  2  0  0  0  0
 37 29  1  0  0  0  0
M  END
>  <MODEL>
8

>  <REMARK>
 VINA RESULT:      -8.3      3.965      8.723
  Name = 
  8 active torsions:
  status: ('A' for Active; 'I' for Inactive)
    1  A    between atoms: C_1  and  C_3
    2  A    between atoms: C_3  and  C_8
    3  A    between atoms: C_7  and  N_23
    4  A    between atoms: N_11  and  C_25
    5  A    between atoms: C_18  and  C_30
    6  A    between atoms: N_23  and  C_27
    7  A    between atoms: C_27  and  C_37
    8  A    between atoms: C_28  and  C_30
                            x       y       z     vdW  Elec       q    Type
                         _______ _______ _______ _____ _____    ______ ____

>  <TORSDO>
F 8

$$$$
=
 OpenBabel11042411573D

 37 40  0  0  1  0  0  0  0  0999 V2000
  189.1770  177.3130  140.0520 C   0  0  0  0  0  0  0  0  0  0  0  0
  190.3880  176.6920  139.7290 C   0  0  0  0  0  3  0  0  0  0  0  0
  188.4640  178.0080  139.0460 C   0  0  0  0  0  0  0  0  0  0  0  0
  188.3310  178.7010  136.6670 N   0  0  0  0  0  1  0  0  0  0  0  0
  190.1790  177.4130  137.4700 N   0  0  0  0  0  0  0  0  0  0  0  0
  190.8760  176.7500  138.4270 C   0  0  0  0  0  3  0  0  0  0  0  0
  189.0010  178.0370  137.7350 C   0  0  0  0  0  0  0  0  0  0  0  0
  188.6970  177.2710  141.4550 C   0  0  0  0  0  0  0  0  0  0  0  0
  187.4730  177.0700  141.6820 O   0  0  0  0  0  0  0  0  0  0  0  0
  191.8490  179.7520  144.3630 C   0  0  0  0  0  1  0  0  0  0  0  0
  189.6010  177.4710  142.6060 C   0  0  0  0  0  0  0  0  0  0  0  0
  189.9720  176.3230  143.7880 S   0  0  0  0  0  0  0  0  0  0  0  0
  190.2260  178.6460  142.8490 N   0  0  0  0  0  0  0  0  0  0  0  0
  190.9490  177.3820  144.6490 C   0  0  0  0  0  0  0  0  0  0  0  0
  190.9850  178.6040  143.9760 C   0  0  0  0  0  0  0  0  0  0  0  0
  191.7040  177.0050  145.8050 N   0  0  0  0  0  2  0  0  0  0  0  0
  191.9290  176.7070  148.0980 O   0  0  0  0  0  0  0  0  0  0  0  0
  191.1580  176.7600  147.1060 C   0  0  0  0  0  0  0  0  0  0  0  0
  189.7010  176.4610  147.3010 C   0  0  0  0  0  2  0  0  0  0  0  0
  187.9350  177.5050  148.6830 C   0  0  0  0  0  1  0  0  0  0  0  0
  188.1270  178.0190  146.3760 O   0  0  0  0  0  1  0  0  0  0  0  0
  189.7080  178.7970  147.8090 F   0  0  0  0  0  0  0  0  0  0  0  0
  188.8780  177.7270  147.5170 C   0  0  2  0  0  0  0  0  0  0  0  0
  187.2090  178.6250  139.3860 N   0  0  0  0  0  2  0  0  0  0  0  0
  185.9040  178.2940  138.8330 C   0  0  0  0  0  2  0  0  0  0  0  0
  183.0600  178.9620  144.7700 C   0  0  0  0  0  3  0  0  0  0  0  0
  182.1290  179.0600  141.2040 O   0  0  0  0  0  0  0  0  0  0  0  0
  182.3110  178.9410  143.5910 C   0  0  0  0  0  3  0  0  0  0  0  0
  185.1220  179.0630  141.0840 O   0  0  0  0  0  0  0  0  0  0  0  0
  184.4480  179.0510  144.7110 C   0  0  0  0  0  3  0  0  0  0  0  0
  182.5630  177.1950  139.7460 C   0  0  0  0  0  3  0  0  0  0  0  0
  184.3650  179.0500  142.2760 C   0  0  0  0  0  0  0  0  0  0  0  0
  183.7710  177.6700  139.7550 C   0  0  0  0  0  0  0  0  0  0  0  0
  182.9420  179.0000  142.3410 C   0  0  0  0  0  0  0  0  0  0  0  0
  181.5650  177.8740  140.6340 C   0  0  0  0  0  2  0  0  0  0  0  0
  185.0920  179.0970  143.4730 C   0  0  0  0  0  3  0  0  0  0  0  0
  184.8860  178.3120  139.9180 C   0  0  0  0  0  0  0  0  0  0  0  0
  1  8  1  0  0  0  0
  2  1  1  0  0  0  0
  3 24  1  0  0  0  0
  3  1  2  0  0  0  0
  4  7  1  0  0  0  0
  5  7  2  0  0  0  0
  5  6  1  0  0  0  0
  6  2  2  0  0  0  0
  7  3  1  0  0  0  0
  8  9  2  0  0  0  0
  8 11  1  0  0  0  0
 11 13  2  0  0  0  0
 11 12  1  0  0  0  0
 12 14  1  0  0  0  0
 13 15  1  0  0  0  0
 14 16  1  0  0  0  0
 15 10  1  0  0  0  0
 15 14  2  0  0  0  0
 16 18  1  0  0  0  0
 18 19  1  0  0  0  0
 18 17  2  0  0  0  0
 19 23  1  0  0  0  0
 21 23  1  0  0  0  0
 23 22  1  0  0  0  0
 23 20  1  1  0  0  0
 25 24  1  0  0  0  0
 25 37  1  0  0  0  0
 27 34  1  0  0  0  0
 28 26  2  0  0  0  0
 29 32  1  0  0  0  0
 30 26  1  0  0  0  0
 31 33  2  0  0  0  0
 31 35  1  0  0  0  0
 32 34  2  0  0  0  0
 32 36  1  0  0  0  0
 33 37  2  0  0  0  0
 34 28  1  0  0  0  0
 35 27  1  0  0  0  0
 36 30  2  0  0  0  0
 37 29  1  0  0  0  0
M  END
>  <MODEL>
9

>  <REMARK>
 VINA RESULT:      -8.3      1.832      2.294
  Name = 
  8 active torsions:
  status: ('A' for Active; 'I' for Inactive)
    1  A    between atoms: C_1  and  C_3
    2  A    between atoms: C_3  and  C_8
    3  A    between atoms: C_7  and  N_23
    4  A    between atoms: N_11  and  C_25
    5  A    between atoms: C_18  and  C_30
    6  A    between atoms: N_23  and  C_27
    7  A    between atoms: C_27  and  C_37
    8  A    between atoms: C_28  and  C_30
                            x       y       z     vdW  Elec       q    Type
                         _______ _______ _______ _____ _____    ______ ____

>  <TORSDO>
F 8

$$$$
