=
 OpenBabel11042411353D

 61 65  0  0  1  0  0  0  0  0999 V2000
  186.4600  178.4530  142.5420 C   0  0  2  0  0  3  0  0  0  0  0  0
  186.6720  178.3660  144.1200 C   0  0  2  0  0  3  0  0  0  0  0  0
  187.1780  177.0270  144.5260 C   0  0  0  0  0  3  0  0  0  0  0  0
  188.3020  176.9320  145.0840 O   0  0  0  0  0  0  0  0  0  0  0  0
  185.6410  178.9480  145.0390 C   0  0  0  0  0  2  0  0  0  0  0  0
  186.1270  179.1130  146.3230 F   0  0  0  0  0  0  0  0  0  0  0  0
  187.6100  178.6830  141.5750 C   0  0  0  0  0  2  0  0  0  0  0  0
  188.5780  177.4390  141.4790 C   0  0  2  0  0  3  0  0  0  0  0  0
  190.0400  177.6620  141.4520 C   0  0  2  0  0  3  0  0  0  0  0  0
  189.9650  176.6980  140.3200 C   0  0  1  0  0  3  0  0  0  0  0  0
  188.5880  176.8070  140.2650 O   0  0  0  0  0  0  0  0  0  0  0  0
  191.9370  177.0990  139.1560 O   0  0  0  0  0  1  0  0  0  0  0  0
  190.6490  177.5380  139.1620 C   0  0  1  0  0  3  0  0  0  0  0  0
  189.9930  177.3640  137.8950 C   0  0  0  0  0  2  0  0  0  0  0  0
  188.9080  175.2660  136.1870 C   0  0  0  0  0  2  0  0  0  0  0  0
  189.7350  176.4600  135.8100 C   0  0  0  0  0  2  0  0  0  0  0  0
  189.9020  175.1360  137.3470 C   0  0  2  0  0  3  0  0  0  0  0  0
  190.6510  176.3810  136.9930 N   0  0  0  0  0  0  0  0  0  0  0  0
  190.6400  173.8660  137.2120 O   0  0  0  0  0  0  0  0  0  0  0  0
  193.4450  172.3380  135.3510 C   0  0  0  0  0  3  0  0  0  0  0  0
  191.9200  173.5680  136.7870 C   0  0  0  0  0  0  0  0  0  0  0  0
  193.0500  173.9790  137.5560 C   0  0  0  0  0  3  0  0  0  0  0  0
  194.3380  173.6090  137.1620 C   0  0  0  0  0  0  0  0  0  0  0  0
  194.5450  172.7780  136.0510 C   0  0  0  0  0  3  0  0  0  0  0  0
  192.2050  172.6940  135.7100 C   0  0  0  0  0  3  0  0  0  0  0  0
  196.1360  175.0270  137.6010 O   0  0  0  0  0  0  0  0  0  0  0  0
  195.4190  174.0700  137.9720 C   0  0  0  0  0  0  0  0  0  0  0  0
  195.6290  173.4250  139.1700 O   0  0  0  0  0  1  0  0  0  0  0  0
  191.0220  177.1490  142.5740 C   0  0  1  0  0  3  0  0  0  0  0  0
  190.7540  179.2790  144.0290 C   0  0  0  0  0  1  0  0  0  0  0  0
  191.5620  178.1120  143.6160 C   0  0  0  0  0  2  0  0  0  0  0  0
  191.7350  175.4920  143.9210 C   0  0  0  0  0  1  0  0  0  0  0  0
  190.6500  175.9730  143.1600 O   0  0  0  0  0  0  0  0  0  0  0  0
  185.2560  179.2240  142.1690 N   0  0  0  0  0  2  0  0  0  0  0  0
  180.5770  178.5360  142.0660 C   0  0  0  0  0  3  0  0  0  0  0  0
  184.1870  178.2280  141.9450 C   0  0  2  0  0  3  0  0  0  0  0  0
  179.1830  178.4400  144.0880 F   0  0  0  0  0  0  0  0  0  0  0  0
  180.3790  178.5680  143.4640 C   0  0  0  0  0  0  0  0  0  0  0  0
  182.4510  178.4370  140.1900 C   0  0  2  0  0  3  0  0  0  0  0  0
  182.7450  178.8280  143.8260 C   0  0  0  0  0  3  0  0  0  0  0  0
  181.8880  178.6200  141.5690 C   0  0  0  0  0  0  0  0  0  0  0  0
  181.4760  178.7600  144.3150 C   0  0  0  0  0  3  0  0  0  0  0  0
  183.9000  178.0010  140.4560 C   0  0  0  0  0  2  0  0  0  0  0  0
  182.9100  178.7310  142.4770 C   0  0  0  0  0  0  0  0  0  0  0  0
  183.3520  180.3130  138.9530 O   0  0  0  0  0  0  0  0  0  0  0  0
  182.3380  179.7320  139.3510 C   0  0  0  0  0  0  0  0  0  0  0  0
  181.0200  180.3470  138.9590 C   0  0  0  0  0  2  0  0  0  0  0  0
  180.4860  179.5120  136.7750 N   0  0  0  0  0  0  0  0  0  0  0  0
  180.7850  180.5520  137.5090 C   0  0  0  0  0  0  0  0  0  0  0  0
  179.1120  177.7020  137.5180 O   0  0  0  0  0  0  0  0  0  0  0  0
  180.2740  178.1780  137.1160 C   0  0  0  0  0  0  0  0  0  0  0  0
  183.6440  175.4120  137.2450 C   0  0  0  0  0  1  0  0  0  0  0  0
  184.9820  177.4760  136.6900 C   0  0  0  0  0  1  0  0  0  0  0  0
  182.5530  177.6330  136.5640 C   0  0  0  0  0  3  0  0  0  0  0  0
  183.7120  176.8010  136.7920 N   0  0  0  0  0  0  0  0  0  0  0  0
  181.4320  177.3280  137.0460 N   0  0  0  0  0  0  0  0  0  0  0  0
  181.2110  181.8510  136.8600 C   0  0  0  0  0  2  0  0  0  0  0  0
  180.2430  182.5400  135.9750 N   0  0  0  0  0  0  0  0  0  0  0  0
  179.0900  182.8550  136.8160 C   0  0  0  0  0  1  0  0  0  0  0  0
  181.4340  184.3990  136.8980 C   0  0  0  0  0  1  0  0  0  0  0  0
  180.6870  183.9010  135.6750 C   0  0  0  0  0  2  0  0  0  0  0  0
  1  7  1  6  0  0  0
  1  2  1  0  0  0  0
  2  3  1  1  0  0  0
  2  5  1  0  0  0  0
  3  4  2  0  0  0  0
  5  6  1  0  0  0  0
  8  7  1  6  0  0  0
  9  8  1  0  0  0  0
  9 29  1  1  0  0  0
 10 13  1  6  0  0  0
 10  9  1  0  0  0  0
 11 10  1  0  0  0  0
 11  8  1  0  0  0  0
 13 12  1  6  0  0  0
 14 13  1  0  0  0  0
 15 17  1  0  0  0  0
 16 15  1  0  0  0  0
 16 18  1  0  0  0  0
 17 19  1  6  0  0  0
 18 17  1  0  0  0  0
 18 14  1  0  0  0  0
 20 25  2  0  0  0  0
 20 24  1  0  0  0  0
 21 19  1  0  0  0  0
 21 22  2  0  0  0  0
 23 22  1  0  0  0  0
 23 27  1  0  0  0  0
 24 23  2  0  0  0  0
 25 21  1  0  0  0  0
 26 27  2  0  0  0  0
 27 28  1  0  0  0  0
 29 33  1  0  0  0  0
 29 31  1  1  0  0  0
 31 30  1  0  0  0  0
 33 32  1  0  0  0  0
 34  1  1  0  0  0  0
 35 38  1  0  0  0  0
 36 34  1  6  0  0  0
 36 44  1  0  0  0  0
 38 37  1  0  0  0  0
 38 42  2  0  0  0  0
 39 46  1  6  0  0  0
 39 43  1  0  0  0  0
 39 41  1  0  0  0  0
 40 42  1  0  0  0  0
 41 35  2  0  0  0  0
 41 44  1  0  0  0  0
 43 36  1  0  0  0  0
 44 40  2  0  0  0  0
 45 46  2  0  0  0  0
 47 46  1  0  0  0  0
 48 51  1  0  0  0  0
 48 49  2  0  0  0  0
 49 47  1  0  0  0  0
 51 50  2  0  0  0  0
 53 55  1  0  0  0  0
 54 55  1  0  0  0  0
 54 56  2  0  0  0  0
 55 52  1  0  0  0  0
 56 51  1  0  0  0  0
 57 49  1  0  0  0  0
 58 59  1  0  0  0  0
 58 57  1  0  0  0  0
 61 58  1  0  0  0  0
 61 60  1  0  0  0  0
M  END
>  <MODEL>
1

>  <REMARK>
 VINA RESULT:      -7.1      0.000      0.000
  Name = 
  24 active torsions:
  status: ('A' for Active; 'I' for Inactive)
    1  A    between atoms: O_1  and  C_12
    2  A    between atoms: O_1  and  C_50
    3  A    between atoms: C_4  and  N_38
    4  A    between atoms: C_5  and  C_7
    5  A    between atoms: C_5  and  C_58
    6  A    between atoms: C_9  and  C_13
    7  A    between atoms: N_11  and  C_59
    8  A    between atoms: C_13  and  C_48
    9  A    between atoms: C_13  and  C_58
   10  A    between atoms: C_18  and  C_61
   11  A    between atoms: C_23  and  C_27
   12  A    between atoms: C_23  and  C_30
   13  A    between atoms: C_26  and  C_35
   14  A    between atoms: C_26  and  C_47
   15  A    between atoms: C_28  and  C_60
   16  A    between atoms: C_30  and  N_55
   17  A    between atoms: N_33  and  C_37
   18  A    between atoms: N_33  and  C_47
   19  A    between atoms: C_35  and  C_60
   20  A    between atoms: N_38  and  C_58
   21  A    between atoms: O_40  and  C_61
   22  A    between atoms: C_43  and  C_51
   23  A    between atoms: N_45  and  C_59
   24  A    between atoms: C_46  and  C_61
                            x       y       z     vdW  Elec       q    Type
                         _______ _______ _______ _____ _____    ______ ____

>  <TORSDO>
F 24

$$$$
=
 OpenBabel11042411353D

 61 65  0  0  1  0  0  0  0  0999 V2000
  184.7290  178.1880  142.4390 C   0  0  2  0  0  3  0  0  0  0  0  0
  184.0420  178.6150  143.8150 C   0  0  2  0  0  3  0  0  0  0  0  0
  182.5810  178.3330  143.8010 C   0  0  0  0  0  3  0  0  0  0  0  0
  181.7700  179.2750  143.6050 O   0  0  0  0  0  0  0  0  0  0  0  0
  184.4200  179.9130  144.4590 C   0  0  0  0  0  2  0  0  0  0  0  0
  185.2160  180.6880  143.6350 F   0  0  0  0  0  0  0  0  0  0  0  0
  183.9250  177.7210  141.2360 C   0  0  0  0  0  2  0  0  0  0  0  0
  183.2130  178.9110  140.4840 C   0  0  2  0  0  3  0  0  0  0  0  0
  181.8700  178.6990  139.9040 C   0  0  2  0  0  3  0  0  0  0  0  0
  182.4910  179.3630  138.7260 C   0  0  1  0  0  3  0  0  0  0  0  0
  183.7560  179.2350  139.2700 O   0  0  0  0  0  0  0  0  0  0  0  0
  181.5850  178.9570  136.6240 O   0  0  0  0  0  1  0  0  0  0  0  0
  182.2450  178.2750  137.5990 C   0  0  1  0  0  3  0  0  0  0  0  0
  183.4660  177.6770  137.1340 C   0  0  0  0  0  2  0  0  0  0  0  0
  183.7160  174.8400  137.7560 C   0  0  0  0  0  2  0  0  0  0  0  0
  182.5180  175.5990  137.2670 C   0  0  0  0  0  2  0  0  0  0  0  0
  184.4740  175.6590  136.7030 C   0  0  2  0  0  3  0  0  0  0  0  0
  183.2760  176.4590  136.3010 N   0  0  0  0  0  0  0  0  0  0  0  0
  185.0240  174.7460  135.6850 O   0  0  0  0  0  0  0  0  0  0  0  0
  186.9320  171.5790  135.7050 C   0  0  0  0  0  3  0  0  0  0  0  0
  186.0790  173.8540  135.6990 C   0  0  0  0  0  0  0  0  0  0  0  0
  187.3980  174.3000  136.0130 C   0  0  0  0  0  3  0  0  0  0  0  0
  188.4470  173.3810  136.1010 C   0  0  0  0  0  0  0  0  0  0  0  0
  188.2180  172.0050  135.9490 C   0  0  0  0  0  3  0  0  0  0  0  0
  185.9200  172.4500  135.6070 C   0  0  0  0  0  3  0  0  0  0  0  0
  190.3270  173.5890  137.4640 O   0  0  0  0  0  1  0  0  0  0  0  0
  189.7400  173.9030  136.4040 C   0  0  0  0  0  0  0  0  0  0  0  0
  190.3060  174.7560  135.4830 O   0  0  0  0  0  0  0  0  0  0  0  0
  180.5800  179.4710  140.3790 C   0  0  1  0  0  3  0  0  0  0  0  0
  179.2950  180.8790  138.6210 C   0  0  0  0  0  1  0  0  0  0  0  0
  180.2240  180.8150  139.7690 C   0  0  0  0  0  2  0  0  0  0  0  0
  179.7400  177.6500  141.4040 C   0  0  0  0  0  1  0  0  0  0  0  0
  179.4630  178.6920  140.4970 O   0  0  0  0  0  0  0  0  0  0  0  0
  185.9530  177.3870  142.6380 N   0  0  0  0  0  2  0  0  0  0  0  0
  190.0140  177.7050  145.0440 C   0  0  0  0  0  3  0  0  0  0  0  0
  186.9670  178.3170  143.1780 C   0  0  2  0  0  3  0  0  0  0  0  0
  190.1770  177.3370  147.4690 F   0  0  0  0  0  0  0  0  0  0  0  0
  189.4710  177.4150  146.3160 C   0  0  0  0  0  0  0  0  0  0  0  0
  189.3590  178.2780  142.5370 C   0  0  2  0  0  3  0  0  0  0  0  0
  187.2570  177.2870  145.3760 C   0  0  0  0  0  3  0  0  0  0  0  0
  189.1420  177.8140  143.9470 C   0  0  0  0  0  0  0  0  0  0  0  0
  188.0970  177.1670  146.4410 C   0  0  0  0  0  3  0  0  0  0  0  0
  187.9700  178.7760  142.1130 C   0  0  0  0  0  2  0  0  0  0  0  0
  187.8020  177.6300  144.1760 C   0  0  0  0  0  0  0  0  0  0  0  0
  189.5140  175.9820  141.7830 O   0  0  0  0  0  0  0  0  0  0  0  0
  189.9110  177.1420  141.6420 C   0  0  0  0  0  0  0  0  0  0  0  0
  190.9290  177.3710  140.5550 C   0  0  0  0  0  2  0  0  0  0  0  0
  191.6680  176.4170  138.4820 N   0  0  0  0  0  0  0  0  0  0  0  0
  190.6530  176.7430  139.2400 C   0  0  0  0  0  0  0  0  0  0  0  0
  193.5900  177.2570  139.6310 O   0  0  0  0  0  0  0  0  0  0  0  0
  193.0420  176.4960  138.7040 C   0  0  0  0  0  0  0  0  0  0  0  0
  195.5730  174.4690  135.7880 C   0  0  0  0  0  1  0  0  0  0  0  0
  193.8480  172.6420  135.9970 C   0  0  0  0  0  1  0  0  0  0  0  0
  193.7480  174.4810  137.5920 C   0  0  0  0  0  3  0  0  0  0  0  0
  194.4410  173.8610  136.4870 N   0  0  0  0  0  0  0  0  0  0  0  0
  193.8590  175.7130  137.8160 N   0  0  0  0  0  0  0  0  0  0  0  0
  189.2540  176.7950  138.6660 C   0  0  0  0  0  2  0  0  0  0  0  0
  188.5840  178.1130  138.5800 N   0  0  0  0  0  0  0  0  0  0  0  0
  189.0920  178.7390  137.3610 C   0  0  0  0  0  1  0  0  0  0  0  0
  187.0760  178.4030  136.7440 C   0  0  0  0  0  1  0  0  0  0  0  0
  187.1820  177.9620  138.1920 C   0  0  0  0  0  2  0  0  0  0  0  0
  1  7  1  6  0  0  0
  1 34  1  0  0  0  0
  1  2  1  0  0  0  0
  2  3  1  6  0  0  0
  2  5  1  0  0  0  0
  4  3  2  0  0  0  0
  6  5  1  0  0  0  0
  8  7  1  6  0  0  0
  9 29  1  1  0  0  0
  9  8  1  0  0  0  0
 10 13  1  6  0  0  0
 10 11  1  0  0  0  0
 10  9  1  0  0  0  0
 11  8  1  0  0  0  0
 13 12  1  6  0  0  0
 14 13  1  0  0  0  0
 16 15  1  0  0  0  0
 17 19  1  6  0  0  0
 17 15  1  0  0  0  0
 18 17  1  0  0  0  0
 18 14  1  0  0  0  0
 18 16  1  0  0  0  0
 19 21  1  0  0  0  0
 20 24  1  0  0  0  0
 21 22  2  0  0  0  0
 22 23  1  0  0  0  0
 23 27  1  0  0  0  0
 24 23  2  0  0  0  0
 25 21  1  0  0  0  0
 25 20  2  0  0  0  0
 27 26  1  0  0  0  0
 28 27  2  0  0  0  0
 29 31  1  6  0  0  0
 29 33  1  0  0  0  0
 30 31  1  0  0  0  0
 33 32  1  0  0  0  0
 35 38  1  0  0  0  0
 36 34  1  6  0  0  0
 36 44  1  0  0  0  0
 38 42  2  0  0  0  0
 38 37  1  0  0  0  0
 39 46  1  6  0  0  0
 39 41  1  0  0  0  0
 40 42  1  0  0  0  0
 41 44  1  0  0  0  0
 41 35  2  0  0  0  0
 43 39  1  0  0  0  0
 43 36  1  0  0  0  0
 44 40  2  0  0  0  0
 46 45  2  0  0  0  0
 47 46  1  0  0  0  0
 48 51  1  0  0  0  0
 48 49  2  0  0  0  0
 49 47  1  0  0  0  0
 51 50  2  0  0  0  0
 52 55  1  0  0  0  0
 53 55  1  0  0  0  0
 54 56  2  0  0  0  0
 55 54  1  0  0  0  0
 56 51  1  0  0  0  0
 57 49  1  0  0  0  0
 58 57  1  0  0  0  0
 59 58  1  0  0  0  0
 60 61  1  0  0  0  0
 61 58  1  0  0  0  0
M  END
>  <MODEL>
2

>  <REMARK>
 VINA RESULT:      -6.8      2.353      8.488
  Name = 
  24 active torsions:
  status: ('A' for Active; 'I' for Inactive)
    1  A    between atoms: O_1  and  C_12
    2  A    between atoms: O_1  and  C_50
    3  A    between atoms: C_4  and  N_38
    4  A    between atoms: C_5  and  C_7
    5  A    between atoms: C_5  and  C_58
    6  A    between atoms: C_9  and  C_13
    7  A    between atoms: N_11  and  C_59
    8  A    between atoms: C_13  and  C_48
    9  A    between atoms: C_13  and  C_58
   10  A    between atoms: C_18  and  C_61
   11  A    between atoms: C_23  and  C_27
   12  A    between atoms: C_23  and  C_30
   13  A    between atoms: C_26  and  C_35
   14  A    between atoms: C_26  and  C_47
   15  A    between atoms: C_28  and  C_60
   16  A    between atoms: C_30  and  N_55
   17  A    between atoms: N_33  and  C_37
   18  A    between atoms: N_33  and  C_47
   19  A    between atoms: C_35  and  C_60
   20  A    between atoms: N_38  and  C_58
   21  A    between atoms: O_40  and  C_61
   22  A    between atoms: C_43  and  C_51
   23  A    between atoms: N_45  and  C_59
   24  A    between atoms: C_46  and  C_61
                            x       y       z     vdW  Elec       q    Type
                         _______ _______ _______ _____ _____    ______ ____

>  <TORSDO>
F 24

$$$$
=
 OpenBabel11042411353D

 61 65  0  0  1  0  0  0  0  0999 V2000
  187.4400  176.8730  137.2480 C   0  0  2  0  0  3  0  0  0  0  0  0
  187.5130  176.9510  135.6570 C   0  0  2  0  0  3  0  0  0  0  0  0
  188.4550  175.9390  135.1070 C   0  0  0  0  0  3  0  0  0  0  0  0
  189.5410  176.3160  134.5950 O   0  0  0  0  0  0  0  0  0  0  0  0
  187.5720  178.2880  134.9830 C   0  0  0  0  0  2  0  0  0  0  0  0
  187.1860  179.3110  135.8300 F   0  0  0  0  0  0  0  0  0  0  0  0
  188.4510  176.0940  138.0740 C   0  0  0  0  0  2  0  0  0  0  0  0
  189.8870  176.7480  138.0480 C   0  0  2  0  0  3  0  0  0  0  0  0
  191.0070  176.0610  138.7270 C   0  0  2  0  0  3  0  0  0  0  0  0
  191.2550  177.4250  139.2690 C   0  0  1  0  0  3  0  0  0  0  0  0
  190.0250  177.8710  138.8200 O   0  0  0  0  0  0  0  0  0  0  0  0
  192.5080  177.3440  141.2240 O   0  0  0  0  0  1  0  0  0  0  0  0
  191.2220  177.1420  140.8290 C   0  0  1  0  0  3  0  0  0  0  0  0
  190.2860  177.9850  141.5220 C   0  0  0  0  0  2  0  0  0  0  0  0
  189.2820  175.5680  142.8050 C   0  0  0  0  0  2  0  0  0  0  0  0
  190.6190  176.2320  142.9530 C   0  0  0  0  0  2  0  0  0  0  0  0
  188.7330  176.9970  142.8950 C   0  0  2  0  0  3  0  0  0  0  0  0
  190.0860  177.6330  142.9530 N   0  0  0  0  0  0  0  0  0  0  0  0
  187.8990  177.1190  144.1040 O   0  0  0  0  0  0  0  0  0  0  0  0
  185.0310  178.5890  145.9150 C   0  0  0  0  0  3  0  0  0  0  0  0
  186.7140  177.7800  144.3610 C   0  0  0  0  0  0  0  0  0  0  0  0
  185.8100  178.0820  143.2980 C   0  0  0  0  0  3  0  0  0  0  0  0
  184.5790  178.6820  143.5740 C   0  0  0  0  0  0  0  0  0  0  0  0
  184.1780  178.9390  144.8930 C   0  0  0  0  0  3  0  0  0  0  0  0
  186.2190  178.0250  145.6650 C   0  0  0  0  0  3  0  0  0  0  0  0
  184.2190  179.3600  141.3720 O   0  0  0  0  0  0  0  0  0  0  0  0
  183.7350  178.9680  142.4580 C   0  0  0  0  0  0  0  0  0  0  0  0
  182.3810  178.7880  142.6300 O   0  0  0  0  0  1  0  0  0  0  0  0
  192.2770  175.5070  137.9750 C   0  0  1  0  0  3  0  0  0  0  0  0
  191.5160  173.4980  136.5230 C   0  0  0  0  0  1  0  0  0  0  0  0
  192.1330  174.8380  136.6200 C   0  0  0  0  0  2  0  0  0  0  0  0
  194.0240  176.2180  136.7450 C   0  0  0  0  0  1  0  0  0  0  0  0
  193.3510  176.3520  137.9750 O   0  0  0  0  0  0  0  0  0  0  0  0
  186.0610  176.7030  137.7490 N   0  0  0  0  0  2  0  0  0  0  0  0
  182.4490  173.9170  136.4950 C   0  0  0  0  0  3  0  0  0  0  0  0
  185.2740  176.1850  136.6090 C   0  0  2  0  0  3  0  0  0  0  0  0
  182.5600  171.4630  136.5380 F   0  0  0  0  0  0  0  0  0  0  0  0
  183.1100  172.6880  136.7140 C   0  0  0  0  0  0  0  0  0  0  0  0
  182.8370  176.5390  136.3400 C   0  0  2  0  0  3  0  0  0  0  0  0
  185.1350  173.8470  137.3080 C   0  0  0  0  0  3  0  0  0  0  0  0
  183.1720  175.1110  136.6600 C   0  0  0  0  0  0  0  0  0  0  0  0
  184.4370  172.6870  137.1630 C   0  0  0  0  0  3  0  0  0  0  0  0
  184.2150  177.1830  136.1270 C   0  0  0  0  0  2  0  0  0  0  0  0
  184.4890  175.0140  137.0290 C   0  0  0  0  0  0  0  0  0  0  0  0
  182.5300  177.4460  138.5640 O   0  0  0  0  0  0  0  0  0  0  0  0
  182.0130  177.1980  137.4710 C   0  0  0  0  0  0  0  0  0  0  0  0
  180.5660  177.5890  137.3160 C   0  0  0  0  0  2  0  0  0  0  0  0
  179.2490  178.0540  139.2660 N   0  0  0  0  0  0  0  0  0  0  0  0
  179.6400  177.1620  138.3940 C   0  0  0  0  0  0  0  0  0  0  0  0
  179.8450  180.0300  140.4740 O   0  0  0  0  0  0  0  0  0  0  0  0
  179.4990  179.4220  139.3550 C   0  0  0  0  0  0  0  0  0  0  0  0
  178.9530  181.3160  135.4650 C   0  0  0  0  0  1  0  0  0  0  0  0
  180.6350  182.9680  136.3600 C   0  0  0  0  0  1  0  0  0  0  0  0
  179.7030  181.3430  137.9190 C   0  0  0  0  0  3  0  0  0  0  0  0
  179.7070  181.8880  136.5810 N   0  0  0  0  0  0  0  0  0  0  0  0
  179.3170  180.1670  138.1390 N   0  0  0  0  0  0  0  0  0  0  0  0
  179.4370  175.6870  138.6620 C   0  0  0  0  0  2  0  0  0  0  0  0
  179.8470  175.1540  139.9820 N   0  0  0  0  0  0  0  0  0  0  0  0
  179.1470  175.9670  140.9750 C   0  0  0  0  0  1  0  0  0  0  0  0
  179.3440  173.6070  141.7370 C   0  0  0  0  0  1  0  0  0  0  0  0
  179.2080  173.8660  140.2470 C   0  0  0  0  0  2  0  0  0  0  0  0
  1 34  1  0  0  0  0
  1  7  1  6  0  0  0
  2  5  1  1  0  0  0
  2  1  1  0  0  0  0
  3  2  1  0  0  0  0
  4  3  2  0  0  0  0
  5  6  1  0  0  0  0
  8  7  1  1  0  0  0
  8  9  1  0  0  0  0
  8 11  1  0  0  0  0
  9 29  1  6  0  0  0
  9 10  1  0  0  0  0
 10 13  1  1  0  0  0
 11 10  1  0  0  0  0
 13 12  1  1  0  0  0
 13 14  1  0  0  0  0
 14 18  1  0  0  0  0
 15 17  1  0  0  0  0
 15 16  1  0  0  0  0
 16 18  1  0  0  0  0
 17 18  1  0  0  0  0
 17 19  1  1  0  0  0
 19 21  1  0  0  0  0
 21 25  2  0  0  0  0
 22 23  2  0  0  0  0
 22 21  1  0  0  0  0
 23 24  1  0  0  0  0
 24 20  2  0  0  0  0
 25 20  1  0  0  0  0
 26 27  2  0  0  0  0
 27 28  1  0  0  0  0
 27 23  1  0  0  0  0
 29 31  1  6  0  0  0
 29 33  1  0  0  0  0
 30 31  1  0  0  0  0
 32 33  1  0  0  0  0
 35 41  2  0  0  0  0
 35 38  1  0  0  0  0
 36 44  1  0  0  0  0
 36 34  1  1  0  0  0
 37 38  1  0  0  0  0
 38 42  2  0  0  0  0
 39 41  1  0  0  0  0
 39 46  1  1  0  0  0
 41 44  1  0  0  0  0
 42 40  1  0  0  0  0
 43 39  1  0  0  0  0
 43 36  1  0  0  0  0
 44 40  2  0  0  0  0
 46 45  2  0  0  0  0
 47 46  1  0  0  0  0
 47 49  1  0  0  0  0
 48 51  1  0  0  0  0
 49 57  1  0  0  0  0
 49 48  2  0  0  0  0
 51 50  2  0  0  0  0
 52 55  1  0  0  0  0
 53 55  1  0  0  0  0
 54 56  2  0  0  0  0
 55 54  1  0  0  0  0
 56 51  1  0  0  0  0
 57 58  1  0  0  0  0
 58 61  1  0  0  0  0
 58 59  1  0  0  0  0
 61 60  1  0  0  0  0
M  END
>  <MODEL>
3

>  <REMARK>
 VINA RESULT:      -5.7      2.997      8.071
  Name = 
  24 active torsions:
  status: ('A' for Active; 'I' for Inactive)
    1  A    between atoms: O_1  and  C_12
    2  A    between atoms: O_1  and  C_50
    3  A    between atoms: C_4  and  N_38
    4  A    between atoms: C_5  and  C_7
    5  A    between atoms: C_5  and  C_58
    6  A    between atoms: C_9  and  C_13
    7  A    between atoms: N_11  and  C_59
    8  A    between atoms: C_13  and  C_48
    9  A    between atoms: C_13  and  C_58
   10  A    between atoms: C_18  and  C_61
   11  A    between atoms: C_23  and  C_27
   12  A    between atoms: C_23  and  C_30
   13  A    between atoms: C_26  and  C_35
   14  A    between atoms: C_26  and  C_47
   15  A    between atoms: C_28  and  C_60
   16  A    between atoms: C_30  and  N_55
   17  A    between atoms: N_33  and  C_37
   18  A    between atoms: N_33  and  C_47
   19  A    between atoms: C_35  and  C_60
   20  A    between atoms: N_38  and  C_58
   21  A    between atoms: O_40  and  C_61
   22  A    between atoms: C_43  and  C_51
   23  A    between atoms: N_45  and  C_59
   24  A    between atoms: C_46  and  C_61
                            x       y       z     vdW  Elec       q    Type
                         _______ _______ _______ _____ _____    ______ ____

>  <TORSDO>
F 24

$$$$
=
 OpenBabel11042411353D

 61 65  0  0  1  0  0  0  0  0999 V2000
  185.1500  178.1430  142.5900 C   0  0  2  0  0  3  0  0  0  0  0  0
  184.6200  178.4470  144.0630 C   0  0  2  0  0  3  0  0  0  0  0  0
  183.7570  179.6590  144.0900 C   0  0  0  0  0  3  0  0  0  0  0  0
  184.2810  180.7890  144.2670 O   0  0  0  0  0  0  0  0  0  0  0  0
  185.5560  178.3230  145.2270 C   0  0  0  0  0  2  0  0  0  0  0  0
  185.5990  177.0320  145.7200 F   0  0  0  0  0  0  0  0  0  0  0  0
  184.2170  177.7770  141.4460 C   0  0  0  0  0  2  0  0  0  0  0  0
  183.2530  178.9620  141.0490 C   0  0  2  0  0  3  0  0  0  0  0  0
  181.8710  178.6560  140.6200 C   0  0  2  0  0  3  0  0  0  0  0  0
  182.2120  179.6080  139.5270 C   0  0  1  0  0  3  0  0  0  0  0  0
  183.5530  179.5770  139.8630 O   0  0  0  0  0  0  0  0  0  0  0  0
  181.4090  179.5930  137.3460 O   0  0  0  0  0  1  0  0  0  0  0  0
  181.9260  178.7150  138.2480 C   0  0  1  0  0  3  0  0  0  0  0  0
  183.1050  178.0480  137.7660 C   0  0  0  0  0  2  0  0  0  0  0  0
  182.9730  175.2670  138.6280 C   0  0  0  0  0  2  0  0  0  0  0  0
  181.9130  176.1080  137.9800 C   0  0  0  0  0  2  0  0  0  0  0  0
  183.8990  175.9020  137.5830 C   0  0  2  0  0  3  0  0  0  0  0  0
  182.8370  176.7910  137.0180 N   0  0  0  0  0  0  0  0  0  0  0  0
  184.4140  174.8480  136.6890 O   0  0  0  0  0  0  0  0  0  0  0  0
  184.5800  171.2320  135.9420 C   0  0  0  0  0  3  0  0  0  0  0  0
  184.0330  173.5390  136.4680 C   0  0  0  0  0  0  0  0  0  0  0  0
  182.6600  173.2130  136.2540 C   0  0  0  0  0  3  0  0  0  0  0  0
  182.2890  171.9000  135.9550 C   0  0  0  0  0  0  0  0  0  0  0  0
  183.2540  170.8950  135.7930 C   0  0  0  0  0  3  0  0  0  0  0  0
  184.9490  172.4840  136.2410 C   0  0  0  0  0  3  0  0  0  0  0  0
  180.3000  172.0580  134.7480 O   0  0  0  0  0  0  0  0  0  0  0  0
  180.8960  171.6480  135.7700 C   0  0  0  0  0  0  0  0  0  0  0  0
  180.2490  170.9360  136.7550 O   0  0  0  0  0  1  0  0  0  0  0  0
  180.5890  179.1270  141.4060 C   0  0  1  0  0  3  0  0  0  0  0  0
  180.5030  178.4280  143.9010 C   0  0  0  0  0  1  0  0  0  0  0  0
  180.0120  178.2660  142.5160 C   0  0  0  0  0  2  0  0  0  0  0  0
  179.2930  180.9500  141.6740 C   0  0  0  0  0  1  0  0  0  0  0  0
  180.6030  180.4410  141.7820 O   0  0  0  0  0  0  0  0  0  0  0  0
  186.3840  177.3320  142.5830 N   0  0  0  0  0  2  0  0  0  0  0  0
  190.9790  177.7520  143.6310 C   0  0  0  0  0  3  0  0  0  0  0  0
  187.5000  178.2860  142.7630 C   0  0  2  0  0  3  0  0  0  0  0  0
  191.8770  177.4620  145.9000 F   0  0  0  0  0  0  0  0  0  0  0  0
  190.8520  177.4990  145.0150 C   0  0  0  0  0  0  0  0  0  0  0  0
  189.5840  178.2410  141.4260 C   0  0  2  0  0  3  0  0  0  0  0  0
  188.4600  177.3280  144.7970 C   0  0  0  0  0  3  0  0  0  0  0  0
  189.8140  177.8210  142.8480 C   0  0  0  0  0  0  0  0  0  0  0  0
  189.5860  177.2460  145.5590 C   0  0  0  0  0  3  0  0  0  0  0  0
  188.1240  178.7160  141.4310 C   0  0  0  0  0  2  0  0  0  0  0  0
  188.6090  177.6350  143.4780 C   0  0  0  0  0  0  0  0  0  0  0  0
  189.1450  176.0720  140.4430 O   0  0  0  0  0  0  0  0  0  0  0  0
  189.8550  177.0810  140.4380 C   0  0  0  0  0  0  0  0  0  0  0  0
  190.9630  177.1100  139.4180 C   0  0  0  0  0  2  0  0  0  0  0  0
  191.5960  176.2560  137.2670 N   0  0  0  0  0  0  0  0  0  0  0  0
  190.6240  176.6460  138.0510 C   0  0  0  0  0  0  0  0  0  0  0  0
  193.6530  176.9380  138.2780 O   0  0  0  0  0  0  0  0  0  0  0  0
  192.9650  176.1290  137.4970 C   0  0  0  0  0  0  0  0  0  0  0  0
  194.9640  173.1540  135.0120 C   0  0  0  0  0  1  0  0  0  0  0  0
  193.2620  171.5930  136.0230 C   0  0  0  0  0  1  0  0  0  0  0  0
  193.4490  173.8300  136.9700 C   0  0  0  0  0  3  0  0  0  0  0  0
  193.9470  172.8610  136.0210 N   0  0  0  0  0  0  0  0  0  0  0  0
  193.6170  175.0620  136.7850 N   0  0  0  0  0  0  0  0  0  0  0  0
  189.2520  176.9370  137.4820 C   0  0  0  0  0  2  0  0  0  0  0  0
  189.0760  178.1720  136.6830 N   0  0  0  0  0  0  0  0  0  0  0  0
  189.0430  177.7410  135.2870 C   0  0  0  0  0  1  0  0  0  0  0  0
  187.0460  177.9000  137.9200 C   0  0  0  0  0  1  0  0  0  0  0  0
  187.7090  178.6780  136.7990 C   0  0  0  0  0  2  0  0  0  0  0  0
  1  7  1  6  0  0  0
  1  2  1  0  0  0  0
  2  3  1  6  0  0  0
  2  5  1  0  0  0  0
  3  4  2  0  0  0  0
  5  6  1  0  0  0  0
  8  7  1  6  0  0  0
  9  8  1  0  0  0  0
  9 29  1  1  0  0  0
 10 13  1  6  0  0  0
 10 11  1  0  0  0  0
 10  9  1  0  0  0  0
 11  8  1  0  0  0  0
 13 12  1  6  0  0  0
 14 13  1  0  0  0  0
 16 15  1  0  0  0  0
 17 19  1  6  0  0  0
 17 15  1  0  0  0  0
 18 17  1  0  0  0  0
 18 14  1  0  0  0  0
 18 16  1  0  0  0  0
 20 25  1  0  0  0  0
 21 19  1  0  0  0  0
 22 21  1  0  0  0  0
 23 22  2  0  0  0  0
 24 20  2  0  0  0  0
 24 23  1  0  0  0  0
 25 21  2  0  0  0  0
 26 27  2  0  0  0  0
 27 23  1  0  0  0  0
 27 28  1  0  0  0  0
 29 33  1  0  0  0  0
 29 31  1  1  0  0  0
 31 30  1  0  0  0  0
 32 33  1  0  0  0  0
 34  1  1  0  0  0  0
 35 38  1  0  0  0  0
 36 34  1  6  0  0  0
 36 44  1  0  0  0  0
 38 42  2  0  0  0  0
 38 37  1  0  0  0  0
 39 46  1  6  0  0  0
 39 43  1  0  0  0  0
 39 41  1  0  0  0  0
 40 42  1  0  0  0  0
 41 44  1  0  0  0  0
 41 35  2  0  0  0  0
 43 36  1  0  0  0  0
 44 40  2  0  0  0  0
 46 45  2  0  0  0  0
 47 46  1  0  0  0  0
 48 51  1  0  0  0  0
 48 49  2  0  0  0  0
 49 47  1  0  0  0  0
 51 50  2  0  0  0  0
 52 55  1  0  0  0  0
 55 53  1  0  0  0  0
 55 54  1  0  0  0  0
 56 54  2  0  0  0  0
 56 51  1  0  0  0  0
 57 49  1  0  0  0  0
 58 61  1  0  0  0  0
 58 57  1  0  0  0  0
 59 58  1  0  0  0  0
 61 60  1  0  0  0  0
M  END
>  <MODEL>
4

>  <REMARK>
 VINA RESULT:      -5.3      2.711      9.419
  Name = 
  24 active torsions:
  status: ('A' for Active; 'I' for Inactive)
    1  A    between atoms: O_1  and  C_12
    2  A    between atoms: O_1  and  C_50
    3  A    between atoms: C_4  and  N_38
    4  A    between atoms: C_5  and  C_7
    5  A    between atoms: C_5  and  C_58
    6  A    between atoms: C_9  and  C_13
    7  A    between atoms: N_11  and  C_59
    8  A    between atoms: C_13  and  C_48
    9  A    between atoms: C_13  and  C_58
   10  A    between atoms: C_18  and  C_61
   11  A    between atoms: C_23  and  C_27
   12  A    between atoms: C_23  and  C_30
   13  A    between atoms: C_26  and  C_35
   14  A    between atoms: C_26  and  C_47
   15  A    between atoms: C_28  and  C_60
   16  A    between atoms: C_30  and  N_55
   17  A    between atoms: N_33  and  C_37
   18  A    between atoms: N_33  and  C_47
   19  A    between atoms: C_35  and  C_60
   20  A    between atoms: N_38  and  C_58
   21  A    between atoms: O_40  and  C_61
   22  A    between atoms: C_43  and  C_51
   23  A    between atoms: N_45  and  C_59
   24  A    between atoms: C_46  and  C_61
                            x       y       z     vdW  Elec       q    Type
                         _______ _______ _______ _____ _____    ______ ____

>  <TORSDO>
F 24

$$$$
=
 OpenBabel11042411353D

 61 65  0  0  1  0  0  0  0  0999 V2000
  190.0750  177.4980  138.5140 C   0  0  2  0  0  3  0  0  0  0  0  0
  188.7830  178.1770  137.8700 C   0  0  2  0  0  3  0  0  0  0  0  0
  187.5430  177.4470  138.2470 C   0  0  0  0  0  3  0  0  0  0  0  0
  186.4660  177.7020  137.6470 O   0  0  0  0  0  0  0  0  0  0  0  0
  188.8230  178.6440  136.4470 C   0  0  0  0  0  2  0  0  0  0  0  0
  187.6030  179.1440  136.0330 F   0  0  0  0  0  0  0  0  0  0  0  0
  190.3110  175.9960  138.4790 C   0  0  0  0  0  2  0  0  0  0  0  0
  189.8010  175.3350  137.1400 C   0  0  2  0  0  3  0  0  0  0  0  0
  189.8210  173.8620  137.0090 C   0  0  2  0  0  3  0  0  0  0  0  0
  190.4350  174.1860  135.6920 C   0  0  1  0  0  3  0  0  0  0  0  0
  190.6250  175.5050  136.0600 O   0  0  0  0  0  0  0  0  0  0  0  0
  191.4550  172.1260  135.3450 O   0  0  0  0  0  1  0  0  0  0  0  0
  191.7920  173.3700  135.7820 C   0  0  1  0  0  3  0  0  0  0  0  0
  192.8460  173.9670  135.0090 C   0  0  0  0  0  2  0  0  0  0  0  0
  195.6020  173.0180  135.0360 C   0  0  0  0  0  2  0  0  0  0  0  0
  195.0760  174.3900  134.7320 C   0  0  0  0  0  2  0  0  0  0  0  0
  194.5910  173.0540  136.1880 C   0  0  2  0  0  3  0  0  0  0  0  0
  194.0300  174.3860  135.8050 N   0  0  0  0  0  0  0  0  0  0  0  0
  195.3170  172.9920  137.4700 O   0  0  0  0  0  0  0  0  0  0  0  0
  198.8780  173.9220  137.8250 C   0  0  0  0  0  3  0  0  0  0  0  0
  196.4720  173.6020  137.9220 C   0  0  0  0  0  0  0  0  0  0  0  0
  196.4720  174.3270  139.1520 C   0  0  0  0  0  3  0  0  0  0  0  0
  197.6590  174.8760  139.6420 C   0  0  0  0  0  0  0  0  0  0  0  0
  198.8790  174.6730  138.9790 C   0  0  0  0  0  3  0  0  0  0  0  0
  197.7460  173.4000  137.3380 C   0  0  0  0  0  3  0  0  0  0  0  0
  196.8280  176.5990  140.9750 O   0  0  0  0  0  0  0  0  0  0  0  0
  197.5770  175.6020  140.8680 C   0  0  0  0  0  0  0  0  0  0  0  0
  198.3480  175.1530  141.9180 O   0  0  0  0  0  1  0  0  0  0  0  0
  188.5240  172.9830  136.8320 C   0  0  1  0  0  3  0  0  0  0  0  0
  186.0380  173.1230  137.5550 C   0  0  0  0  0  1  0  0  0  0  0  0
  187.1590  173.6410  136.7430 C   0  0  0  0  0  2  0  0  0  0  0  0
  187.7610  172.2800  134.8330 C   0  0  0  0  0  1  0  0  0  0  0  0
  188.6340  171.9890  135.9000 O   0  0  0  0  0  0  0  0  0  0  0  0
  190.4420  178.0900  139.8160 N   0  0  0  0  0  2  0  0  0  0  0  0
  189.7880  177.1830  144.4120 C   0  0  0  0  0  3  0  0  0  0  0  0
  190.2440  177.0230  140.8200 C   0  0  2  0  0  3  0  0  0  0  0  0
  191.5740  177.3700  146.0910 F   0  0  0  0  0  0  0  0  0  0  0  0
  191.1160  177.4430  144.8180 C   0  0  0  0  0  0  0  0  0  0  0  0
  188.2480  176.8510  142.2770 C   0  0  2  0  0  3  0  0  0  0  0  0
  191.7630  177.8680  142.5380 C   0  0  0  0  0  3  0  0  0  0  0  0
  189.4780  177.2400  143.0430 C   0  0  0  0  0  0  0  0  0  0  0  0
  192.0680  177.8280  143.8650 C   0  0  0  0  0  3  0  0  0  0  0  0
  188.7930  176.5330  140.8760 C   0  0  0  0  0  2  0  0  0  0  0  0
  190.4910  177.5500  142.1710 C   0  0  0  0  0  0  0  0  0  0  0  0
  187.4770  179.1160  141.9060 O   0  0  0  0  0  0  0  0  0  0  0  0
  187.1880  177.9790  142.2880 C   0  0  0  0  0  0  0  0  0  0  0  0
  185.7660  177.7680  142.7390 C   0  0  0  0  0  2  0  0  0  0  0  0
  184.3530  179.4970  141.8640 N   0  0  0  0  0  0  0  0  0  0  0  0
  184.9350  178.9840  142.9160 C   0  0  0  0  0  0  0  0  0  0  0  0
  185.0360  179.6010  139.5740 O   0  0  0  0  0  0  0  0  0  0  0  0
  184.3100  179.0690  140.5380 C   0  0  0  0  0  0  0  0  0  0  0  0
  181.7840  175.6730  139.4880 C   0  0  0  0  0  1  0  0  0  0  0  0
  180.0900  177.4670  138.9700 C   0  0  0  0  0  1  0  0  0  0  0  0
  182.1300  178.1350  140.1220 C   0  0  0  0  0  3  0  0  0  0  0  0
  181.3330  177.0610  139.5760 N   0  0  0  0  0  0  0  0  0  0  0  0
  183.3740  178.0140  140.2570 N   0  0  0  0  0  0  0  0  0  0  0  0
  185.0420  179.7810  144.1980 C   0  0  0  0  0  2  0  0  0  0  0  0
  184.1440  179.4220  145.3190 N   0  0  0  0  0  0  0  0  0  0  0  0
  183.0090  178.7270  144.7150 C   0  0  0  0  0  1  0  0  0  0  0  0
  185.7580  178.9130  147.0110 C   0  0  0  0  0  1  0  0  0  0  0  0
  184.6990  178.3180  146.1010 C   0  0  0  0  0  2  0  0  0  0  0  0
  1  7  1  1  0  0  0
  1 34  1  0  0  0  0
  2  5  1  6  0  0  0
  2  3  1  0  0  0  0
  2  1  1  0  0  0  0
  4  3  2  0  0  0  0
  6  5  1  0  0  0  0
  8  7  1  1  0  0  0
  9 29  1  6  0  0  0
  9  8  1  0  0  0  0
 10 13  1  1  0  0  0
 10 11  1  0  0  0  0
 10  9  1  0  0  0  0
 11  8  1  0  0  0  0
 13 12  1  6  0  0  0
 14 13  1  0  0  0  0
 14 18  1  0  0  0  0
 15 17  1  0  0  0  0
 16 15  1  0  0  0  0
 16 18  1  0  0  0  0
 17 19  1  1  0  0  0
 18 17  1  0  0  0  0
 19 21  1  0  0  0  0
 20 24  1  0  0  0  0
 21 22  2  0  0  0  0
 22 23  1  0  0  0  0
 23 27  1  0  0  0  0
 24 23  2  0  0  0  0
 25 20  2  0  0  0  0
 25 21  1  0  0  0  0
 27 26  2  0  0  0  0
 27 28  1  0  0  0  0
 29 31  1  6  0  0  0
 31 30  1  0  0  0  0
 32 33  1  0  0  0  0
 33 29  1  0  0  0  0
 35 38  1  0  0  0  0
 36 34  1  6  0  0  0
 36 43  1  0  0  0  0
 36 44  1  0  0  0  0
 38 37  1  0  0  0  0
 39 46  1  6  0  0  0
 39 41  1  0  0  0  0
 40 42  1  0  0  0  0
 41 35  2  0  0  0  0
 42 38  2  0  0  0  0
 43 39  1  0  0  0  0
 44 40  2  0  0  0  0
 44 41  1  0  0  0  0
 45 46  2  0  0  0  0
 46 47  1  0  0  0  0
 47 49  1  0  0  0  0
 48 49  2  0  0  0  0
 49 57  1  0  0  0  0
 50 51  2  0  0  0  0
 51 48  1  0  0  0  0
 52 55  1  0  0  0  0
 53 55  1  0  0  0  0
 54 56  2  0  0  0  0
 55 54  1  0  0  0  0
 56 51  1  0  0  0  0
 57 58  1  0  0  0  0
 58 61  1  0  0  0  0
 59 58  1  0  0  0  0
 61 60  1  0  0  0  0
M  END
>  <MODEL>
5

>  <REMARK>
 VINA RESULT:      -5.2      3.310      7.177
  Name = 
  24 active torsions:
  status: ('A' for Active; 'I' for Inactive)
    1  A    between atoms: O_1  and  C_12
    2  A    between atoms: O_1  and  C_50
    3  A    between atoms: C_4  and  N_38
    4  A    between atoms: C_5  and  C_7
    5  A    between atoms: C_5  and  C_58
    6  A    between atoms: C_9  and  C_13
    7  A    between atoms: N_11  and  C_59
    8  A    between atoms: C_13  and  C_48
    9  A    between atoms: C_13  and  C_58
   10  A    between atoms: C_18  and  C_61
   11  A    between atoms: C_23  and  C_27
   12  A    between atoms: C_23  and  C_30
   13  A    between atoms: C_26  and  C_35
   14  A    between atoms: C_26  and  C_47
   15  A    between atoms: C_28  and  C_60
   16  A    between atoms: C_30  and  N_55
   17  A    between atoms: N_33  and  C_37
   18  A    between atoms: N_33  and  C_47
   19  A    between atoms: C_35  and  C_60
   20  A    between atoms: N_38  and  C_58
   21  A    between atoms: O_40  and  C_61
   22  A    between atoms: C_43  and  C_51
   23  A    between atoms: N_45  and  C_59
   24  A    between atoms: C_46  and  C_61
                            x       y       z     vdW  Elec       q    Type
                         _______ _______ _______ _____ _____    ______ ____

>  <TORSDO>
F 24

$$$$
=
 OpenBabel11042411353D

 61 65  0  0  1  0  0  0  0  0999 V2000
  191.2810  176.8850  139.6000 C   0  0  2  0  0  3  0  0  0  0  0  0
  192.7460  176.4570  139.1370 C   0  0  2  0  0  3  0  0  0  0  0  0
  193.7880  177.0490  140.0190 C   0  0  0  0  0  3  0  0  0  0  0  0
  194.8820  176.4490  140.1760 O   0  0  0  0  0  0  0  0  0  0  0  0
  193.0910  176.4540  137.6800 C   0  0  0  0  0  2  0  0  0  0  0  0
  194.0220  175.4800  137.3700 F   0  0  0  0  0  0  0  0  0  0  0  0
  190.2630  177.4800  138.6390 C   0  0  0  0  0  2  0  0  0  0  0  0
  189.3160  176.3860  138.0080 C   0  0  2  0  0  3  0  0  0  0  0  0
  189.2670  176.2340  136.5380 C   0  0  2  0  0  3  0  0  0  0  0  0
  187.7990  176.2340  136.7860 C   0  0  1  0  0  3  0  0  0  0  0  0
  187.9780  176.6660  138.0870 O   0  0  0  0  0  0  0  0  0  0  0  0
  187.8260  177.0920  134.6260 O   0  0  0  0  0  1  0  0  0  0  0  0
  187.3340  177.4260  135.8500 C   0  0  1  0  0  3  0  0  0  0  0  0
  185.9080  177.6030  135.8500 C   0  0  0  0  0  2  0  0  0  0  0  0
  183.1310  176.8340  135.4080 C   0  0  0  0  0  2  0  0  0  0  0  0
  184.3870  176.1340  134.9780 C   0  0  0  0  0  2  0  0  0  0  0  0
  183.8720  177.0180  136.7380 C   0  0  2  0  0  3  0  0  0  0  0  0
  185.1390  176.3930  136.2480 N   0  0  0  0  0  0  0  0  0  0  0  0
  183.1500  176.2920  137.7980 O   0  0  0  0  0  0  0  0  0  0  0  0
  179.7030  175.1120  138.4210 C   0  0  0  0  0  3  0  0  0  0  0  0
  182.0150  175.5050  137.7880 C   0  0  0  0  0  0  0  0  0  0  0  0
  182.0850  174.1410  137.3750 C   0  0  0  0  0  3  0  0  0  0  0  0
  180.9500  173.3290  137.4400 C   0  0  0  0  0  0  0  0  0  0  0  0
  179.7440  173.8120  137.9690 C   0  0  0  0  0  3  0  0  0  0  0  0
  180.7800  175.9040  138.3540 C   0  0  0  0  0  3  0  0  0  0  0  0
  182.2160  171.5270  136.6740 O   0  0  0  0  0  0  0  0  0  0  0  0
  181.0940  171.9800  136.9940 C   0  0  0  0  0  0  0  0  0  0  0  0
  179.9540  171.2100  136.9400 O   0  0  0  0  0  1  0  0  0  0  0  0
  189.7170  174.9270  135.7790 C   0  0  1  0  0  3  0  0  0  0  0  0
  189.2510  172.3780  135.8560 C   0  0  0  0  0  1  0  0  0  0  0  0
  188.7620  173.7560  135.6390 C   0  0  0  0  0  2  0  0  0  0  0  0
  191.7540  175.0060  134.8220 C   0  0  0  0  0  1  0  0  0  0  0  0
  190.3700  175.1520  134.6000 O   0  0  0  0  0  0  0  0  0  0  0  0
  191.2720  177.5630  140.9110 N   0  0  0  0  0  2  0  0  0  0  0  0
  188.8210  177.5160  144.9580 C   0  0  0  0  0  3  0  0  0  0  0  0
  190.4010  176.7500  141.7860 C   0  0  2  0  0  3  0  0  0  0  0  0
  189.8770  177.3730  147.1720 F   0  0  0  0  0  0  0  0  0  0  0  0
  189.9360  177.4130  145.8200 C   0  0  0  0  0  0  0  0  0  0  0  0
  188.0890  177.3860  142.4100 C   0  0  2  0  0  3  0  0  0  0  0  0
  191.4270  177.3150  143.9320 C   0  0  0  0  0  3  0  0  0  0  0  0
  189.0370  177.4820  143.5690 C   0  0  0  0  0  0  0  0  0  0  0  0
  191.2270  177.3600  145.2780 C   0  0  0  0  0  3  0  0  0  0  0  0
  188.9430  176.7350  141.3120 C   0  0  0  0  0  2  0  0  0  0  0  0
  190.3290  177.3520  143.1270 C   0  0  0  0  0  0  0  0  0  0  0  0
  188.2560  179.7680  142.0120 O   0  0  0  0  0  0  0  0  0  0  0  0
  187.5260  178.7730  142.0170 C   0  0  0  0  0  0  0  0  0  0  0  0
  186.0930  178.9950  141.6090 C   0  0  0  0  0  2  0  0  0  0  0  0
  183.8730  178.1090  141.8000 N   0  0  0  0  0  0  0  0  0  0  0  0
  185.0640  178.2060  142.3290 C   0  0  0  0  0  0  0  0  0  0  0  0
  184.1180  178.9140  139.5610 O   0  0  0  0  0  0  0  0  0  0  0  0
  183.3640  178.5810  140.5910 C   0  0  0  0  0  0  0  0  0  0  0  0
  179.0030  178.6590  140.6130 C   0  0  0  0  0  1  0  0  0  0  0  0
  179.2990  179.5090  138.2580 C   0  0  0  0  0  1  0  0  0  0  0  0
  181.2830  179.3590  139.6640 C   0  0  0  0  0  3  0  0  0  0  0  0
  179.8500  179.2120  139.5560 N   0  0  0  0  0  0  0  0  0  0  0  0
  181.9340  178.7280  140.5350 N   0  0  0  0  0  0  0  0  0  0  0  0
  185.2940  177.8230  143.7750 C   0  0  0  0  0  2  0  0  0  0  0  0
  184.4280  178.4380  144.8060 N   0  0  0  0  0  0  0  0  0  0  0  0
  185.3090  179.2700  145.6240 C   0  0  0  0  0  1  0  0  0  0  0  0
  182.1610  178.9880  144.2690 C   0  0  0  0  0  1  0  0  0  0  0  0
  183.5930  179.4900  144.2270 C   0  0  0  0  0  2  0  0  0  0  0  0
  1  7  1  6  0  0  0
  1 34  1  0  0  0  0
  2  5  1  6  0  0  0
  2  1  1  0  0  0  0
  2  3  1  0  0  0  0
  3  4  2  0  0  0  0
  6  5  1  0  0  0  0
  8 11  1  0  0  0  0
  8  7  1  6  0  0  0
  9 29  1  1  0  0  0
  9 10  1  0  0  0  0
  9  8  1  0  0  0  0
 10 13  1  6  0  0  0
 10 11  1  0  0  0  0
 13 12  1  6  0  0  0
 14 13  1  0  0  0  0
 14 18  1  0  0  0  0
 15 17  1  0  0  0  0
 16 15  1  0  0  0  0
 16 18  1  0  0  0  0
 17 19  1  1  0  0  0
 18 17  1  0  0  0  0
 21 19  1  0  0  0  0
 21 25  2  0  0  0  0
 22 23  2  0  0  0  0
 22 21  1  0  0  0  0
 23 24  1  0  0  0  0
 24 20  2  0  0  0  0
 25 20  1  0  0  0  0
 26 27  2  0  0  0  0
 27 23  1  0  0  0  0
 28 27  1  0  0  0  0
 29 31  1  6  0  0  0
 31 30  1  0  0  0  0
 33 32  1  0  0  0  0
 33 29  1  0  0  0  0
 35 38  1  0  0  0  0
 36 34  1  6  0  0  0
 36 44  1  0  0  0  0
 38 37  1  0  0  0  0
 39 46  1  6  0  0  0
 39 41  1  0  0  0  0
 40 42  1  0  0  0  0
 41 35  2  0  0  0  0
 42 38  2  0  0  0  0
 43 36  1  0  0  0  0
 43 39  1  0  0  0  0
 44 41  1  0  0  0  0
 44 40  2  0  0  0  0
 45 46  2  0  0  0  0
 47 46  1  0  0  0  0
 47 49  1  0  0  0  0
 48 49  2  0  0  0  0
 49 57  1  0  0  0  0
 50 51  2  0  0  0  0
 51 48  1  0  0  0  0
 53 55  1  0  0  0  0
 54 56  2  0  0  0  0
 55 54  1  0  0  0  0
 55 52  1  0  0  0  0
 56 51  1  0  0  0  0
 57 58  1  0  0  0  0
 58 59  1  0  0  0  0
 61 60  1  0  0  0  0
 61 58  1  0  0  0  0
M  END
>  <MODEL>
6

>  <REMARK>
 VINA RESULT:      -4.9      3.077      8.644
  Name = 
  24 active torsions:
  status: ('A' for Active; 'I' for Inactive)
    1  A    between atoms: O_1  and  C_12
    2  A    between atoms: O_1  and  C_50
    3  A    between atoms: C_4  and  N_38
    4  A    between atoms: C_5  and  C_7
    5  A    between atoms: C_5  and  C_58
    6  A    between atoms: C_9  and  C_13
    7  A    between atoms: N_11  and  C_59
    8  A    between atoms: C_13  and  C_48
    9  A    between atoms: C_13  and  C_58
   10  A    between atoms: C_18  and  C_61
   11  A    between atoms: C_23  and  C_27
   12  A    between atoms: C_23  and  C_30
   13  A    between atoms: C_26  and  C_35
   14  A    between atoms: C_26  and  C_47
   15  A    between atoms: C_28  and  C_60
   16  A    between atoms: C_30  and  N_55
   17  A    between atoms: N_33  and  C_37
   18  A    between atoms: N_33  and  C_47
   19  A    between atoms: C_35  and  C_60
   20  A    between atoms: N_38  and  C_58
   21  A    between atoms: O_40  and  C_61
   22  A    between atoms: C_43  and  C_51
   23  A    between atoms: N_45  and  C_59
   24  A    between atoms: C_46  and  C_61
                            x       y       z     vdW  Elec       q    Type
                         _______ _______ _______ _____ _____    ______ ____

>  <TORSDO>
F 24

$$$$
=
 OpenBabel11042411353D

 61 65  0  0  1  0  0  0  0  0999 V2000
  186.0640  177.5530  144.1890 C   0  0  2  0  0  3  0  0  0  0  0  0
  186.5910  178.4740  145.3800 C   0  0  2  0  0  3  0  0  0  0  0  0
  187.2110  177.6610  146.4600 C   0  0  0  0  0  3  0  0  0  0  0  0
  188.2630  178.0680  147.0170 O   0  0  0  0  0  0  0  0  0  0  0  0
  185.7480  179.6140  145.8630 C   0  0  0  0  0  2  0  0  0  0  0  0
  185.9470  179.8710  147.2080 F   0  0  0  0  0  0  0  0  0  0  0  0
  186.7460  176.2510  143.8010 C   0  0  0  0  0  2  0  0  0  0  0  0
  188.2030  176.4750  143.2380 C   0  0  2  0  0  3  0  0  0  0  0  0
  188.7670  177.8420  143.2170 C   0  0  2  0  0  3  0  0  0  0  0  0
  189.1380  177.4540  141.8280 C   0  0  1  0  0  3  0  0  0  0  0  0
  188.3260  176.3360  141.8820 O   0  0  0  0  0  0  0  0  0  0  0  0
  189.4890  179.4150  140.6310 O   0  0  0  0  0  1  0  0  0  0  0  0
  188.4500  178.6160  140.9960 C   0  0  1  0  0  3  0  0  0  0  0  0
  187.7040  178.1200  139.8720 C   0  0  0  0  0  2  0  0  0  0  0  0
  187.0270  177.1110  137.2230 C   0  0  0  0  0  2  0  0  0  0  0  0
  187.3390  178.5150  137.6490 C   0  0  0  0  0  2  0  0  0  0  0  0
  188.2190  176.7390  138.1120 C   0  0  2  0  0  3  0  0  0  0  0  0
  188.4480  178.1390  138.5840 N   0  0  0  0  0  0  0  0  0  0  0  0
  189.2800  176.1480  137.2760 O   0  0  0  0  0  0  0  0  0  0  0  0
  192.7810  176.5480  138.3960 C   0  0  0  0  0  3  0  0  0  0  0  0
  190.6180  175.8920  137.5040 C   0  0  0  0  0  0  0  0  0  0  0  0
  191.2760  174.8240  136.8220 C   0  0  0  0  0  3  0  0  0  0  0  0
  192.6460  174.6180  136.9990 C   0  0  0  0  0  0  0  0  0  0  0  0
  193.4130  175.4860  137.7900 C   0  0  0  0  0  3  0  0  0  0  0  0
  191.4660  176.7510  138.2450 C   0  0  0  0  0  3  0  0  0  0  0  0
  194.2330  172.9270  136.7530 O   0  0  0  0  0  1  0  0  0  0  0  0
  193.2300  173.5210  136.2960 C   0  0  0  0  0  0  0  0  0  0  0  0
  192.6410  173.1480  135.1090 O   0  0  0  0  0  0  0  0  0  0  0  0
  190.0370  178.2760  144.0450 C   0  0  1  0  0  3  0  0  0  0  0  0
  191.2840  176.7650  145.7440 C   0  0  0  0  0  1  0  0  0  0  0  0
  191.1260  177.2660  144.3620 C   0  0  0  0  0  2  0  0  0  0  0  0
  191.9180  179.5110  144.1240 C   0  0  0  0  0  1  0  0  0  0  0  0
  190.5890  179.4640  143.6570 O   0  0  0  0  0  0  0  0  0  0  0  0
  185.6400  178.3330  143.0090 N   0  0  0  0  0  2  0  0  0  0  0  0
  181.2230  179.1930  141.5490 C   0  0  0  0  0  3  0  0  0  0  0  0
  184.3800  177.7160  142.5420 C   0  0  2  0  0  3  0  0  0  0  0  0
  179.4160  179.8990  143.0590 F   0  0  0  0  0  0  0  0  0  0  0  0
  180.6950  179.5250  142.8170 C   0  0  0  0  0  0  0  0  0  0  0  0
  183.3520  178.1740  140.3360 C   0  0  2  0  0  3  0  0  0  0  0  0
  182.8180  179.0610  143.8560 C   0  0  0  0  0  3  0  0  0  0  0  0
  182.5570  178.7610  141.4650 C   0  0  0  0  0  0  0  0  0  0  0  0
  181.5290  179.4930  143.9430 C   0  0  0  0  0  3  0  0  0  0  0  0
  184.4250  177.3440  141.0560 C   0  0  0  0  0  2  0  0  0  0  0  0
  183.2790  178.6870  142.6290 C   0  0  0  0  0  0  0  0  0  0  0  0
  185.0140  179.8060  139.6780 O   0  0  0  0  0  0  0  0  0  0  0  0
  183.9320  179.2740  139.4150 C   0  0  0  0  0  0  0  0  0  0  0  0
  183.2460  179.7450  138.1600 C   0  0  0  0  0  2  0  0  0  0  0  0
  181.3860  179.1770  136.7550 N   0  0  0  0  0  0  0  0  0  0  0  0
  182.4150  178.7490  137.4400 C   0  0  0  0  0  0  0  0  0  0  0  0
  181.0170  181.0630  135.3320 O   0  0  0  0  0  0  0  0  0  0  0  0
  180.9220  180.4670  136.5050 C   0  0  0  0  0  0  0  0  0  0  0  0
  178.9530  182.2100  139.9840 C   0  0  0  0  0  1  0  0  0  0  0  0
  178.9550  184.2990  138.5730 C   0  0  0  0  0  1  0  0  0  0  0  0
  180.2550  182.3960  137.7800 C   0  0  0  0  0  3  0  0  0  0  0  0
  179.4270  182.9600  138.8220 N   0  0  0  0  0  0  0  0  0  0  0  0
  180.3540  181.1520  137.6350 N   0  0  0  0  0  0  0  0  0  0  0  0
  182.5570  177.2790  137.7700 C   0  0  0  0  0  2  0  0  0  0  0  0
  183.5610  176.4890  137.0200 N   0  0  0  0  0  0  0  0  0  0  0  0
  183.9000  175.3570  137.8790 C   0  0  0  0  0  1  0  0  0  0  0  0
  181.5310  175.4000  136.3710 C   0  0  0  0  0  1  0  0  0  0  0  0
  182.9340  175.7610  135.9170 C   0  0  0  0  0  2  0  0  0  0  0  0
  1  7  1  6  0  0  0
  1  2  1  0  0  0  0
  2  5  1  1  0  0  0
  2  3  1  0  0  0  0
  3  4  2  0  0  0  0
  5  6  1  0  0  0  0
  8  7  1  6  0  0  0
  9  8  1  0  0  0  0
  9 29  1  1  0  0  0
 10 13  1  6  0  0  0
 10 11  1  0  0  0  0
 10  9  1  0  0  0  0
 11  8  1  0  0  0  0
 13 12  1  6  0  0  0
 14 13  1  0  0  0  0
 15 16  1  0  0  0  0
 15 17  1  0  0  0  0
 16 18  1  0  0  0  0
 17 19  1  6  0  0  0
 17 18  1  0  0  0  0
 18 14  1  0  0  0  0
 19 21  1  0  0  0  0
 21 25  2  0  0  0  0
 22 23  2  0  0  0  0
 22 21  1  0  0  0  0
 23 24  1  0  0  0  0
 24 20  2  0  0  0  0
 25 20  1  0  0  0  0
 27 26  1  0  0  0  0
 27 23  1  0  0  0  0
 28 27  2  0  0  0  0
 29 31  1  6  0  0  0
 31 30  1  0  0  0  0
 33 29  1  0  0  0  0
 33 32  1  0  0  0  0
 34  1  1  0  0  0  0
 35 38  1  0  0  0  0
 36 44  1  0  0  0  0
 36 34  1  6  0  0  0
 38 37  1  0  0  0  0
 38 42  2  0  0  0  0
 39 46  1  1  0  0  0
 39 43  1  0  0  0  0
 39 41  1  0  0  0  0
 40 42  1  0  0  0  0
 41 35  2  0  0  0  0
 41 44  1  0  0  0  0
 43 36  1  0  0  0  0
 44 40  2  0  0  0  0
 46 45  2  0  0  0  0
 47 46  1  0  0  0  0
 48 49  2  0  0  0  0
 49 57  1  0  0  0  0
 49 47  1  0  0  0  0
 50 51  2  0  0  0  0
 51 48  1  0  0  0  0
 51 56  1  0  0  0  0
 53 55  1  0  0  0  0
 54 55  1  0  0  0  0
 55 52  1  0  0  0  0
 56 54  2  0  0  0  0
 58 57  1  0  0  0  0
 58 59  1  0  0  0  0
 61 60  1  0  0  0  0
 61 58  1  0  0  0  0
M  END
>  <MODEL>
7

>  <REMARK>
 VINA RESULT:      -4.7      1.838      3.875
  Name = 
  24 active torsions:
  status: ('A' for Active; 'I' for Inactive)
    1  A    between atoms: O_1  and  C_12
    2  A    between atoms: O_1  and  C_50
    3  A    between atoms: C_4  and  N_38
    4  A    between atoms: C_5  and  C_7
    5  A    between atoms: C_5  and  C_58
    6  A    between atoms: C_9  and  C_13
    7  A    between atoms: N_11  and  C_59
    8  A    between atoms: C_13  and  C_48
    9  A    between atoms: C_13  and  C_58
   10  A    between atoms: C_18  and  C_61
   11  A    between atoms: C_23  and  C_27
   12  A    between atoms: C_23  and  C_30
   13  A    between atoms: C_26  and  C_35
   14  A    between atoms: C_26  and  C_47
   15  A    between atoms: C_28  and  C_60
   16  A    between atoms: C_30  and  N_55
   17  A    between atoms: N_33  and  C_37
   18  A    between atoms: N_33  and  C_47
   19  A    between atoms: C_35  and  C_60
   20  A    between atoms: N_38  and  C_58
   21  A    between atoms: O_40  and  C_61
   22  A    between atoms: C_43  and  C_51
   23  A    between atoms: N_45  and  C_59
   24  A    between atoms: C_46  and  C_61
                            x       y       z     vdW  Elec       q    Type
                         _______ _______ _______ _____ _____    ______ ____

>  <TORSDO>
F 24

$$$$
=
 OpenBabel11042411353D

 61 65  0  0  1  0  0  0  0  0999 V2000
  184.4580  177.5160  138.3850 C   0  0  2  0  0  3  0  0  0  0  0  0
  183.6430  177.8360  137.0520 C   0  0  2  0  0  3  0  0  0  0  0  0
  182.2590  178.2910  137.3580 C   0  0  0  0  0  3  0  0  0  0  0  0
  181.6730  179.0690  136.5630 O   0  0  0  0  0  0  0  0  0  0  0  0
  183.7480  176.9090  135.8790 C   0  0  0  0  0  2  0  0  0  0  0  0
  183.6040  177.5770  134.6770 F   0  0  0  0  0  0  0  0  0  0  0  0
  184.5040  178.4760  139.5630 C   0  0  0  0  0  2  0  0  0  0  0  0
  183.4500  178.1130  140.6810 C   0  0  2  0  0  3  0  0  0  0  0  0
  182.9930  179.1660  141.6130 C   0  0  2  0  0  3  0  0  0  0  0  0
  183.2600  178.1080  142.6260 C   0  0  1  0  0  3  0  0  0  0  0  0
  183.9320  177.3330  141.6980 O   0  0  0  0  0  0  0  0  0  0  0  0
  184.0940  180.1730  143.2910 O   0  0  0  0  0  1  0  0  0  0  0  0
  184.2770  178.8570  143.5840 C   0  0  1  0  0  3  0  0  0  0  0  0
  184.0500  178.5560  144.9710 C   0  0  0  0  0  2  0  0  0  0  0  0
  186.5190  179.0140  146.4510 C   0  0  0  0  0  2  0  0  0  0  0  0
  185.2780  178.2900  146.8820 C   0  0  0  0  0  2  0  0  0  0  0  0
  186.3210  178.2540  145.1340 C   0  0  2  0  0  3  0  0  0  0  0  0
  185.0380  177.6170  145.5660 N   0  0  0  0  0  0  0  0  0  0  0  0
  187.4640  177.3470  144.9220 O   0  0  0  0  0  0  0  0  0  0  0  0
  190.8960  178.2400  143.8780 C   0  0  0  0  0  3  0  0  0  0  0  0
  188.8310  177.5420  144.9510 C   0  0  0  0  0  0  0  0  0  0  0  0
  189.6210  176.9710  145.9940 C   0  0  0  0  0  3  0  0  0  0  0  0
  191.0110  177.1070  145.9750 C   0  0  0  0  0  0  0  0  0  0  0  0
  191.6620  177.7440  144.9090 C   0  0  0  0  0  3  0  0  0  0  0  0
  189.5620  178.1270  143.8880 C   0  0  0  0  0  3  0  0  0  0  0  0
  191.8700  177.1360  148.1430 O   0  0  0  0  0  1  0  0  0  0  0  0
  191.7310  176.5230  147.0600 C   0  0  0  0  0  0  0  0  0  0  0  0
  192.2560  175.2650  146.8630 O   0  0  0  0  0  0  0  0  0  0  0  0
  181.5020  179.6720  141.6960 C   0  0  1  0  0  3  0  0  0  0  0  0
  180.2650  180.6750  139.6500 C   0  0  0  0  0  1  0  0  0  0  0  0
  180.5710  179.5100  140.5080 C   0  0  0  0  0  2  0  0  0  0  0  0
  179.4780  179.2250  142.5780 C   0  0  0  0  0  1  0  0  0  0  0  0
  180.8550  179.3440  142.8550 O   0  0  0  0  0  0  0  0  0  0  0  0
  185.7730  176.9000  138.1160 N   0  0  0  0  0  2  0  0  0  0  0  0
  190.3610  177.9280  138.6360 C   0  0  0  0  0  3  0  0  0  0  0  0
  186.7620  177.9950  138.2060 C   0  0  2  0  0  3  0  0  0  0  0  0
  191.5600  177.7040  140.7700 F   0  0  0  0  0  0  0  0  0  0  0  0
  190.4390  177.6230  140.0130 C   0  0  0  0  0  0  0  0  0  0  0  0
  188.6550  178.2780  136.6330 C   0  0  2  0  0  3  0  0  0  0  0  0
  188.0840  177.1250  140.0690 C   0  0  0  0  0  3  0  0  0  0  0  0
  189.1110  177.8550  137.9990 C   0  0  0  0  0  0  0  0  0  0  0  0
  189.2950  177.1810  140.6900 C   0  0  0  0  0  3  0  0  0  0  0  0
  187.1560  178.5440  136.8300 C   0  0  0  0  0  2  0  0  0  0  0  0
  188.0290  177.4860  138.7570 C   0  0  0  0  0  0  0  0  0  0  0  0
  188.1750  176.9930  134.6380 O   0  0  0  0  0  0  0  0  0  0  0  0
  188.9580  177.1940  135.5700 C   0  0  0  0  0  0  0  0  0  0  0  0
  190.2040  176.3470  135.5900 C   0  0  0  0  0  2  0  0  0  0  0  0
  190.9760  174.1390  136.1220 N   0  0  0  0  0  0  0  0  0  0  0  0
  190.0100  174.8770  135.6390 C   0  0  0  0  0  0  0  0  0  0  0  0
  192.3960  175.5790  137.3990 O   0  0  0  0  0  0  0  0  0  0  0  0
  192.2020  174.4860  136.6850 C   0  0  0  0  0  0  0  0  0  0  0  0
  195.4140  171.5750  136.2090 C   0  0  0  0  0  1  0  0  0  0  0  0
  196.7140  173.5780  135.3990 C   0  0  0  0  0  1  0  0  0  0  0  0
  194.3130  173.8420  135.7240 C   0  0  0  0  0  3  0  0  0  0  0  0
  195.4570  172.9600  135.7400 N   0  0  0  0  0  0  0  0  0  0  0  0
  193.2890  173.5870  136.4080 N   0  0  0  0  0  0  0  0  0  0  0  0
  188.8840  174.2460  134.8510 C   0  0  0  0  0  2  0  0  0  0  0  0
  187.8800  173.4440  135.5880 N   0  0  0  0  0  0  0  0  0  0  0  0
  186.6430  174.2220  135.5520 C   0  0  0  0  0  1  0  0  0  0  0  0
  187.3560  171.1140  135.7500 C   0  0  0  0  0  1  0  0  0  0  0  0
  187.4490  172.2910  134.7970 C   0  0  0  0  0  2  0  0  0  0  0  0
  1  7  1  6  0  0  0
  2  5  1  6  0  0  0
  2  3  1  0  0  0  0
  2  1  1  0  0  0  0
  4  3  2  0  0  0  0
  6  5  1  0  0  0  0
  8  7  1  6  0  0  0
  8  9  1  0  0  0  0
  8 11  1  0  0  0  0
  9 29  1  6  0  0  0
  9 10  1  0  0  0  0
 10 13  1  1  0  0  0
 11 10  1  0  0  0  0
 13 12  1  1  0  0  0
 13 14  1  0  0  0  0
 14 18  1  0  0  0  0
 15 16  1  0  0  0  0
 17 19  1  1  0  0  0
 17 18  1  0  0  0  0
 17 15  1  0  0  0  0
 18 16  1  0  0  0  0
 19 21  1  0  0  0  0
 20 25  2  0  0  0  0
 20 24  1  0  0  0  0
 21 22  2  0  0  0  0
 23 22  1  0  0  0  0
 23 27  1  0  0  0  0
 24 23  2  0  0  0  0
 25 21  1  0  0  0  0
 27 26  1  0  0  0  0
 28 27  2  0  0  0  0
 29 31  1  6  0  0  0
 29 33  1  0  0  0  0
 30 31  1  0  0  0  0
 32 33  1  0  0  0  0
 34  1  1  0  0  0  0
 35 38  1  0  0  0  0
 36 34  1  6  0  0  0
 36 44  1  0  0  0  0
 38 42  2  0  0  0  0
 38 37  1  0  0  0  0
 39 46  1  6  0  0  0
 39 43  1  0  0  0  0
 39 41  1  0  0  0  0
 40 42  1  0  0  0  0
 41 35  2  0  0  0  0
 41 44  1  0  0  0  0
 43 36  1  0  0  0  0
 44 40  2  0  0  0  0
 45 46  2  0  0  0  0
 46 47  1  0  0  0  0
 47 49  1  0  0  0  0
 48 51  1  0  0  0  0
 49 48  2  0  0  0  0
 51 50  2  0  0  0  0
 53 55  1  0  0  0  0
 54 55  1  0  0  0  0
 54 56  2  0  0  0  0
 55 52  1  0  0  0  0
 56 51  1  0  0  0  0
 57 58  1  0  0  0  0
 57 49  1  0  0  0  0
 59 58  1  0  0  0  0
 61 58  1  0  0  0  0
 61 60  1  0  0  0  0
M  END
>  <MODEL>
8

>  <REMARK>
 VINA RESULT:      -4.7      3.116     10.035
  Name = 
  24 active torsions:
  status: ('A' for Active; 'I' for Inactive)
    1  A    between atoms: O_1  and  C_12
    2  A    between atoms: O_1  and  C_50
    3  A    between atoms: C_4  and  N_38
    4  A    between atoms: C_5  and  C_7
    5  A    between atoms: C_5  and  C_58
    6  A    between atoms: C_9  and  C_13
    7  A    between atoms: N_11  and  C_59
    8  A    between atoms: C_13  and  C_48
    9  A    between atoms: C_13  and  C_58
   10  A    between atoms: C_18  and  C_61
   11  A    between atoms: C_23  and  C_27
   12  A    between atoms: C_23  and  C_30
   13  A    between atoms: C_26  and  C_35
   14  A    between atoms: C_26  and  C_47
   15  A    between atoms: C_28  and  C_60
   16  A    between atoms: C_30  and  N_55
   17  A    between atoms: N_33  and  C_37
   18  A    between atoms: N_33  and  C_47
   19  A    between atoms: C_35  and  C_60
   20  A    between atoms: N_38  and  C_58
   21  A    between atoms: O_40  and  C_61
   22  A    between atoms: C_43  and  C_51
   23  A    between atoms: N_45  and  C_59
   24  A    between atoms: C_46  and  C_61
                            x       y       z     vdW  Elec       q    Type
                         _______ _______ _______ _____ _____    ______ ____

>  <TORSDO>
F 24

$$$$
=
 OpenBabel11042411353D

 61 65  0  0  1  0  0  0  0  0999 V2000
  185.2870  178.8710  140.4310 C   0  0  2  0  0  3  0  0  0  0  0  0
  184.7960  178.3550  141.8590 C   0  0  2  0  0  3  0  0  0  0  0  0
  183.3110  178.3560  141.9540 C   0  0  0  0  0  3  0  0  0  0  0  0
  182.7480  179.0370  142.8500 O   0  0  0  0  0  0  0  0  0  0  0  0
  185.5000  178.8210  143.0960 C   0  0  0  0  0  2  0  0  0  0  0  0
  185.3630  177.9220  144.1390 F   0  0  0  0  0  0  0  0  0  0  0  0
  184.3360  179.4750  139.4110 C   0  0  0  0  0  2  0  0  0  0  0  0
  183.2340  178.4520  138.9310 C   0  0  2  0  0  3  0  0  0  0  0  0
  183.1990  178.0400  137.5110 C   0  0  2  0  0  3  0  0  0  0  0  0
  181.7470  178.3240  137.6690 C   0  0  1  0  0  3  0  0  0  0  0  0
  181.9610  178.9550  138.8810 O   0  0  0  0  0  0  0  0  0  0  0  0
  180.6580  178.7560  135.6620 O   0  0  0  0  0  1  0  0  0  0  0  0
  181.5170  179.3820  136.5110 C   0  0  1  0  0  3  0  0  0  0  0  0
  181.0060  180.6330  137.0010 C   0  0  0  0  0  2  0  0  0  0  0  0
  179.3520  182.6130  138.3560 C   0  0  0  0  0  2  0  0  0  0  0  0
  178.9310  181.4360  137.5270 C   0  0  0  0  0  2  0  0  0  0  0  0
  180.3580  181.6290  138.9650 C   0  0  2  0  0  3  0  0  0  0  0  0
  179.9730  180.5010  138.0620 N   0  0  0  0  0  0  0  0  0  0  0  0
  180.0570  181.4540  140.3980 O   0  0  0  0  0  0  0  0  0  0  0  0
  178.9580  179.3780  143.2520 C   0  0  0  0  0  3  0  0  0  0  0  0
  179.6300  180.3690  141.1390 C   0  0  0  0  0  0  0  0  0  0  0  0
  179.7020  179.0510  140.5970 C   0  0  0  0  0  3  0  0  0  0  0  0
  179.3410  177.9500  141.3790 C   0  0  0  0  0  0  0  0  0  0  0  0
  178.9660  178.1080  142.7210 C   0  0  0  0  0  3  0  0  0  0  0  0
  179.2900  180.4420  142.5110 C   0  0  0  0  0  3  0  0  0  0  0  0
  179.9090  176.5340  139.6160 O   0  0  0  0  0  0  0  0  0  0  0  0
  179.4240  176.6650  140.7630 C   0  0  0  0  0  0  0  0  0  0  0  0
  178.9570  175.5900  141.4840 O   0  0  0  0  0  1  0  0  0  0  0  0
  183.4410  176.5600  137.0250 C   0  0  1  0  0  3  0  0  0  0  0  0
  182.7130  176.0270  134.5940 C   0  0  0  0  0  1  0  0  0  0  0  0
  183.7900  176.2780  135.5740 C   0  0  0  0  0  2  0  0  0  0  0  0
  183.5500  174.6030  138.1350 C   0  0  0  0  0  1  0  0  0  0  0  0
  184.2230  175.8090  137.8560 O   0  0  0  0  0  0  0  0  0  0  0  0
  186.2740  177.9680  139.8070 N   0  0  0  0  0  2  0  0  0  0  0  0
  190.9310  177.3110  140.3200 C   0  0  0  0  0  3  0  0  0  0  0  0
  187.5830  178.6450  139.9320 C   0  0  2  0  0  3  0  0  0  0  0  0
  191.9680  176.5920  142.4290 F   0  0  0  0  0  0  0  0  0  0  0  0
  190.8930  176.9380  141.6820 C   0  0  0  0  0  0  0  0  0  0  0  0
  189.4630  178.3200  138.3520 C   0  0  2  0  0  3  0  0  0  0  0  0
  188.5110  177.2890  141.7420 C   0  0  0  0  0  3  0  0  0  0  0  0
  189.7370  177.7060  139.6940 C   0  0  0  0  0  0  0  0  0  0  0  0
  189.6630  176.8930  142.3520 C   0  0  0  0  0  3  0  0  0  0  0  0
  188.1490  179.0830  138.5770 C   0  0  0  0  0  2  0  0  0  0  0  0
  188.5900  177.7040  140.4470 C   0  0  0  0  0  0  0  0  0  0  0  0
  189.7250  177.5070  136.0870 O   0  0  0  0  0  0  0  0  0  0  0  0
  189.3750  177.2460  137.2410 C   0  0  0  0  0  0  0  0  0  0  0  0
  188.8860  175.8430  137.4890 C   0  0  0  0  0  2  0  0  0  0  0  0
  190.2510  174.3410  136.2110 N   0  0  0  0  0  0  0  0  0  0  0  0
  189.0670  174.8690  136.3850 C   0  0  0  0  0  0  0  0  0  0  0  0
  191.4730  174.6070  138.2490 O   0  0  0  0  0  0  0  0  0  0  0  0
  191.4330  174.4770  136.9370 C   0  0  0  0  0  0  0  0  0  0  0  0
  195.2150  174.2340  134.7790 C   0  0  0  0  0  1  0  0  0  0  0  0
  195.2430  176.7290  135.1370 C   0  0  0  0  0  1  0  0  0  0  0  0
  193.1900  175.5320  135.6750 C   0  0  0  0  0  3  0  0  0  0  0  0
  194.5340  175.4750  135.1460 N   0  0  0  0  0  0  0  0  0  0  0  0
  192.6400  174.5090  136.1570 N   0  0  0  0  0  0  0  0  0  0  0  0
  188.0130  174.7590  135.3050 C   0  0  0  0  0  2  0  0  0  0  0  0
  187.4870  173.4140  134.9770 N   0  0  0  0  0  0  0  0  0  0  0  0
  188.6550  172.5990  134.6470 C   0  0  0  0  0  1  0  0  0  0  0  0
  187.5570  171.2860  136.0710 C   0  0  0  0  0  1  0  0  0  0  0  0
  187.0540  172.7130  136.1860 C   0  0  0  0  0  2  0  0  0  0  0  0
  1  7  1  6  0  0  0
  1  2  1  0  0  0  0
  2  3  1  1  0  0  0
  2  5  1  0  0  0  0
  3  4  2  0  0  0  0
  5  6  1  0  0  0  0
  8  7  1  6  0  0  0
  9 29  1  1  0  0  0
  9 10  1  0  0  0  0
  9  8  1  0  0  0  0
 10 13  1  6  0  0  0
 10 11  1  0  0  0  0
 11  8  1  0  0  0  0
 13 12  1  6  0  0  0
 13 14  1  0  0  0  0
 14 18  1  0  0  0  0
 15 17  1  0  0  0  0
 16 18  1  0  0  0  0
 16 15  1  0  0  0  0
 17 19  1  1  0  0  0
 18 17  1  0  0  0  0
 19 21  1  0  0  0  0
 21 25  1  0  0  0  0
 22 21  2  0  0  0  0
 22 23  1  0  0  0  0
 23 24  2  0  0  0  0
 24 20  1  0  0  0  0
 25 20  2  0  0  0  0
 26 27  2  0  0  0  0
 27 23  1  0  0  0  0
 27 28  1  0  0  0  0
 29 31  1  6  0  0  0
 29 33  1  0  0  0  0
 30 31  1  0  0  0  0
 33 32  1  0  0  0  0
 34  1  1  0  0  0  0
 35 38  1  0  0  0  0
 36 34  1  6  0  0  0
 36 44  1  0  0  0  0
 38 42  2  0  0  0  0
 38 37  1  0  0  0  0
 39 46  1  6  0  0  0
 39 43  1  0  0  0  0
 39 41  1  0  0  0  0
 40 42  1  0  0  0  0
 41 35  2  0  0  0  0
 41 44  1  0  0  0  0
 43 36  1  0  0  0  0
 44 40  2  0  0  0  0
 45 46  2  0  0  0  0
 46 47  1  0  0  0  0
 48 49  2  0  0  0  0
 48 51  1  0  0  0  0
 49 47  1  0  0  0  0
 51 50  2  0  0  0  0
 52 55  1  0  0  0  0
 53 55  1  0  0  0  0
 54 56  2  0  0  0  0
 55 54  1  0  0  0  0
 56 51  1  0  0  0  0
 57 49  1  0  0  0  0
 58 57  1  0  0  0  0
 58 61  1  0  0  0  0
 59 58  1  0  0  0  0
 60 61  1  0  0  0  0
M  END
>  <MODEL>
9

>  <REMARK>
 VINA RESULT:      -4.2      2.556     10.911
  Name = 
  24 active torsions:
  status: ('A' for Active; 'I' for Inactive)
    1  A    between atoms: O_1  and  C_12
    2  A    between atoms: O_1  and  C_50
    3  A    between atoms: C_4  and  N_38
    4  A    between atoms: C_5  and  C_7
    5  A    between atoms: C_5  and  C_58
    6  A    between atoms: C_9  and  C_13
    7  A    between atoms: N_11  and  C_59
    8  A    between atoms: C_13  and  C_48
    9  A    between atoms: C_13  and  C_58
   10  A    between atoms: C_18  and  C_61
   11  A    between atoms: C_23  and  C_27
   12  A    between atoms: C_23  and  C_30
   13  A    between atoms: C_26  and  C_35
   14  A    between atoms: C_26  and  C_47
   15  A    between atoms: C_28  and  C_60
   16  A    between atoms: C_30  and  N_55
   17  A    between atoms: N_33  and  C_37
   18  A    between atoms: N_33  and  C_47
   19  A    between atoms: C_35  and  C_60
   20  A    between atoms: N_38  and  C_58
   21  A    between atoms: O_40  and  C_61
   22  A    between atoms: C_43  and  C_51
   23  A    between atoms: N_45  and  C_59
   24  A    between atoms: C_46  and  C_61
                            x       y       z     vdW  Elec       q    Type
                         _______ _______ _______ _____ _____    ______ ____

>  <TORSDO>
F 24

$$$$
