=
 OpenBabel11032420013D

 64 72  0  0  1  0  0  0  0  0999 V2000
  189.1540  177.0450  137.0700 N   0  0  0  0  0  0  0  0  0  0  0  0
  191.5930  177.1420  141.6710 C   0  0  0  0  0  2  0  0  0  0  0  0
  189.7060  178.2730  139.1440 C   0  0  2  0  0  3  0  0  0  0  0  0
  186.5950  178.1330  138.5930 C   0  0  0  0  0  1  0  0  0  0  0  0
  189.2810  177.2400  141.3220 C   0  0  2  0  0  3  0  0  0  0  0  0
  189.3050  178.3690  137.6610 C   0  0  0  0  0  2  0  0  0  0  0  0
  189.5790  178.1320  142.4460 N   0  0  0  0  0  2  0  0  0  0  0  0
  190.5320  176.6730  140.8020 N   0  0  1  0  0  0  0  0  0  0  0  0
  186.3620  178.7220  140.9750 C   0  0  1  0  0  3  0  0  0  0  0  0
  190.8280  176.0290  138.4780 C   0  0  0  0  0  2  0  0  0  0  0  0
  190.7800  177.2120  139.4570 C   0  0  1  0  0  3  0  0  0  0  0  0
  191.0210  178.2490  142.5090 C   0  0  1  0  0  3  0  0  0  0  0  0
  187.7400  179.1610  140.5190 C   0  0  1  0  0  3  0  0  0  0  0  0
  188.6390  177.9900  140.1750 C   0  0  1  0  0  0  0  0  0  0  0  0
  187.1250  177.8660  139.9870 C   0  0  2  0  0  0  0  0  0  0  0  0
  190.4830  176.4500  137.0580 C   0  0  0  0  0  2  0  0  0  0  0  0
  188.7390  177.2530  135.6910 C   0  0  0  0  0  2  0  0  0  0  0  0
  187.4330  176.5230  135.4300 C   0  0  0  0  0  2  0  0  0  0  0  0
  187.7150  175.1840  134.9530 N   0  0  0  0  0  2  0  0  0  0  0  0
  186.9500  174.2610  135.7830 C   0  0  2  0  0  3  0  0  0  0  0  0
  189.2270  173.3590  136.2370 O   0  0  0  0  0  0  0  0  0  0  0  0
  187.8630  173.2890  136.4600 C   0  0  0  0  0  0  0  0  0  0  0  0
  187.4010  172.4310  137.2570 O   0  0  0  0  0  1  0  0  0  0  0  0
  185.8570  173.5460  134.9820 C   0  0  0  0  0  2  0  0  0  0  0  0
  184.2060  173.8090  136.8230 C   0  0  0  0  0  0  0  0  0  0  0  0
  183.6800  176.3770  135.6680 C   0  0  0  0  0  3  0  0  0  0  0  0
  184.2710  175.4450  134.9060 C   0  0  0  0  0  3  0  0  0  0  0  0
  184.2080  172.6790  137.2850 O   0  0  0  0  0  0  0  0  0  0  0  0
  183.9600  174.9760  137.7340 C   0  0  0  0  0  2  0  0  0  0  0  0
  184.4500  174.0110  135.3470 C   0  0  1  0  0  3  0  0  0  0  0  0
  183.1370  176.0640  137.0360 C   0  0  2  0  0  3  0  0  0  0  0  0
  180.8910  175.9710  135.8370 N   0  0  0  0  0  1  0  0  0  0  0  0
  181.1610  175.1190  137.9820 O   0  0  0  0  0  0  0  0  0  0  0  0
  181.6790  175.7090  136.9970 C   0  0  0  0  0  0  0  0  0  0  0  0
  191.5020  178.1110  143.9410 C   0  0  0  0  0  2  0  0  0  0  0  0
  191.3730  176.6630  144.3790 C   0  0  0  0  0  2  0  0  0  0  0  0
  191.8590  176.4730  145.7410 N   0  0  0  0  0  2  0  0  0  0  0  0
  191.1630  175.6730  147.8040 O   0  0  0  0  0  0  0  0  0  0  0  0
  191.0230  176.5440  146.9020 C   0  0  0  0  0  0  0  0  0  0  0  0
  189.8660  177.4990  146.9880 C   0  0  1  0  0  3  0  0  0  0  0  0
  188.3110  178.2780  148.6330 C   0  0  0  0  0  1  0  0  0  0  0  0
  188.5850  176.8700  146.4100 C   0  0  0  0  0  0  0  0  0  0  0  0
  188.8410  177.0240  147.9420 C   0  0  1  0  0  3  0  0  0  0  0  0
  188.2090  178.0660  145.5170 C   0  0  0  0  0  2  0  0  0  0  0  0
  187.1430  177.4000  146.2870 C   0  0  0  0  0  2  0  0  0  0  0  0
  186.4220  178.1400  142.3760 C   0  0  0  0  0  2  0  0  0  0  0  0
  185.0140  178.0210  142.9210 C   0  0  0  0  0  2  0  0  0  0  0  0
  184.1420  179.1320  142.3600 C   0  0  0  0  0  2  0  0  0  0  0  0
  182.8270  178.5780  141.8200 C   0  0  0  0  0  2  0  0  0  0  0  0
  182.9650  177.9520  140.4340 C   0  0  1  0  0  3  0  0  0  0  0  0
  182.8380  176.5640  140.5120 O   0  0  0  0  0  1  0  0  0  0  0  0
  181.9390  178.4840  139.5380 N   0  0  0  0  0  2  0  0  0  0  0  0
  183.2830  180.1590  138.6260 O   0  0  0  0  0  0  0  0  0  0  0  0
  182.1510  179.6010  138.6620 C   0  0  0  0  0  0  0  0  0  0  0  0
  179.6140  179.7400  138.3070 C   0  0  1  0  0  3  0  0  0  0  0  0
  180.9800  181.7110  138.1810 C   0  0  2  0  0  3  0  0  0  0  0  0
  181.0040  180.2050  137.8730 C   0  0  1  0  0  0  0  0  0  0  0  0
  180.0850  181.8570  139.4090 C   0  0  0  0  0  2  0  0  0  0  0  0
  179.4160  177.9890  138.6140 Cl  0  0  0  0  0  0  0  0  0  0  0  0
  179.2220  180.6060  139.4900 C   0  0  0  0  0  2  0  0  0  0  0  0
  181.1980  179.8950  136.3900 C   0  0  0  0  0  1  0  0  0  0  0  0
  180.3950  182.5570  137.0560 C   0  0  0  0  0  2  0  0  0  0  0  0
  180.6880  184.0290  137.2950 C   0  0  0  0  0  2  0  0  0  0  0  0
  182.0670  184.2310  137.3070 O   0  0  0  0  0  1  0  0  0  0  0  0
  1  6  1  0  0  0  0
  2 12  1  0  0  0  0
  3  6  1  6  0  0  0
  3 11  1  0  0  0  0
  3 14  1  0  0  0  0
  4 15  1  0  0  0  0
  5  7  1  1  0  0  0
  7 12  1  0  0  0  0
  8  5  1  0  0  0  0
  8  2  1  1  0  0  0
  9 46  1  1  0  0  0
 11 10  1  6  0  0  0
 11  8  1  0  0  0  0
 12 35  1  1  0  0  0
 13  9  1  0  0  0  0
 14 13  1  0  0  0  0
 14  5  1  0  0  0  0
 15 14  1  0  0  0  0
 15 13  1  0  0  0  0
 15  9  1  0  0  0  0
 16  1  1  0  0  0  0
 16 10  1  0  0  0  0
 17  1  1  0  0  0  0
 18 17  1  0  0  0  0
 19 18  1  0  0  0  0
 19 20  1  0  0  0  0
 20 22  1  0  0  0  0
 21 22  2  0  0  0  0
 22 23  1  0  0  0  0
 24 30  1  0  0  0  0
 24 20  1  0  0  0  0
 25 28  2  0  0  0  0
 25 29  1  0  0  0  0
 26 31  1  0  0  0  0
 27 30  1  0  0  0  0
 27 26  2  0  0  0  0
 30 25  1  0  0  0  0
 31 29  1  0  0  0  0
 32 34  1  0  0  0  0
 34 31  1  0  0  0  0
 34 33  2  0  0  0  0
 35 36  1  0  0  0  0
 36 37  1  0  0  0  0
 37 39  1  0  0  0  0
 39 40  1  0  0  0  0
 39 38  2  0  0  0  0
 40 43  1  0  0  0  0
 42 40  1  0  0  0  0
 42 43  1  0  0  0  0
 43 41  1  0  0  0  0
 44 45  1  0  0  0  0
 44 42  1  0  0  0  0
 45 42  1  0  0  0  0
 46 47  1  0  0  0  0
 48 47  1  0  0  0  0
 49 48  1  0  0  0  0
 50 51  1  0  0  0  0
 50 49  1  0  0  0  0
 52 50  1  0  0  0  0
 53 54  2  0  0  0  0
 54 52  1  0  0  0  0
 55 59  1  0  0  0  0
 55 60  1  0  0  0  0
 56 58  1  0  0  0  0
 57 56  1  0  0  0  0
 57 55  1  0  0  0  0
 57 54  1  0  0  0  0
 58 60  1  0  0  0  0
 61 57  1  0  0  0  0
 62 63  1  0  0  0  0
 62 56  1  0  0  0  0
 63 64  1  0  0  0  0
M  END
>  <MODEL>
1

>  <REMARK>
 VINA RESULT:      -7.4      0.000      0.000
  Name = 
  21 active torsions:
  status: ('A' for Active; 'I' for Inactive)
    1  A    between atoms: C_1  and  N_27
    2  A    between atoms: C_1  and  C_59
    3  A    between atoms: C_2  and  C_12
    4  A    between atoms: C_2  and  C_22
    5  A    between atoms: C_3  and  N_23
    6  A    between atoms: C_3  and  C_49
    7  A    between atoms: N_4  and  C_49
    8  A    between atoms: C_8  and  C_44
    9  A    between atoms: C_9  and  C_35
   10  A    between atoms: C_9  and  C_54
   11  A    between atoms: N_11  and  C_20
   12  A    between atoms: C_17  and  C_43
   13  A    between atoms: CA_18  and  N_23
   14  A    between atoms: CA_18  and  C_42
   15  A    between atoms: CA_18  and  C_47
   16  A    between atoms: C_20  and  C_21
   17  A    between atoms: C_21  and  C_45
   18  A    between atoms: C_42  and  C_61
   19  A    between atoms: C_51  and  C_54
   20  A    between atoms: C_51  and  C_59
   21  A    between atoms: C_62  and  C_63
                            x       y       z     vdW  Elec       q    Type
                         _______ _______ _______ _____ _____    ______ ____

>  <TORSDO>
F 21

$$$$
=
 OpenBabel11032420013D

 64 72  0  0  1  0  0  0  0  0999 V2000
  184.9140  178.3610  140.7030 N   0  0  0  0  0  0  0  0  0  0  0  0
  181.4870  176.7290  137.1370 C   0  0  0  0  0  2  0  0  0  0  0  0
  184.0290  178.5100  138.3990 C   0  0  2  0  0  3  0  0  0  0  0  0
  187.1470  177.9900  138.4820 C   0  0  0  0  0  1  0  0  0  0  0  0
  183.8120  176.4840  137.0420 C   0  0  2  0  0  3  0  0  0  0  0  0
  184.7750  179.2270  139.5380 C   0  0  0  0  0  2  0  0  0  0  0  0
  183.3580  176.7570  135.6760 N   0  0  0  0  0  2  0  0  0  0  0  0
  182.6640  176.5260  137.9570 N   0  0  1  0  0  0  0  0  0  0  0  0
  186.8760  177.2800  136.1370 C   0  0  1  0  0  3  0  0  0  0  0  0
  182.8540  177.1760  140.2910 C   0  0  0  0  0  2  0  0  0  0  0  0
  182.8010  177.6910  138.8440 C   0  0  1  0  0  3  0  0  0  0  0  0
  181.9640  177.1360  135.7710 C   0  0  1  0  0  3  0  0  0  0  0  0
  185.7010  178.1700  136.4930 C   0  0  1  0  0  3  0  0  0  0  0  0
  184.7850  177.5390  137.5240 C   0  0  1  0  0  0  0  0  0  0  0  0
  186.2770  177.1990  137.5250 C   0  0  2  0  0  0  0  0  0  0  0  0
  183.5680  178.1490  141.2150 C   0  0  0  0  0  2  0  0  0  0  0  0
  185.6630  179.1180  141.6940 C   0  0  0  0  0  2  0  0  0  0  0  0
  185.0330  178.9390  143.0650 C   0  0  0  0  0  2  0  0  0  0  0  0
  186.0670  178.9790  144.0800 N   0  0  0  0  0  2  0  0  0  0  0  0
  185.7840  177.9050  145.0240 C   0  0  2  0  0  3  0  0  0  0  0  0
  186.4360  178.8030  147.2540 O   0  0  0  0  0  1  0  0  0  0  0  0
  185.4310  178.4670  146.3630 C   0  0  0  0  0  0  0  0  0  0  0  0
  184.2270  178.6690  146.6730 O   0  0  0  0  0  0  0  0  0  0  0  0
  186.9450  176.9090  145.1180 C   0  0  0  0  0  2  0  0  0  0  0  0
  189.3550  177.5070  145.2480 C   0  0  0  0  0  0  0  0  0  0  0  0
  189.6390  175.8950  142.8960 C   0  0  0  0  0  3  0  0  0  0  0  0
  188.4190  176.3570  143.2080 C   0  0  0  0  0  3  0  0  0  0  0  0
  189.3260  178.3570  146.1230 O   0  0  0  0  0  0  0  0  0  0  0  0
  190.5700  176.6350  145.1090 C   0  0  0  0  0  2  0  0  0  0  0  0
  188.1720  177.3460  144.3240 C   0  0  1  0  0  3  0  0  0  0  0  0
  190.8730  176.3330  143.6380 C   0  0  2  0  0  3  0  0  0  0  0  0
  191.7630  177.5040  141.5570 N   0  0  0  0  0  1  0  0  0  0  0  0
  191.8870  178.4920  143.6560 O   0  0  0  0  0  0  0  0  0  0  0  0
  191.5520  177.4920  142.9680 C   0  0  0  0  0  0  0  0  0  0  0  0
  181.1470  176.4250  134.7080 C   0  0  0  0  0  2  0  0  0  0  0  0
  181.6050  174.9820  134.6020 C   0  0  0  0  0  2  0  0  0  0  0  0
  180.7360  174.0900  135.3600 N   0  0  0  0  0  2  0  0  0  0  0  0
  180.7020  172.8500  137.3200 O   0  0  0  0  0  0  0  0  0  0  0  0
  181.2170  173.0190  136.1810 C   0  0  0  0  0  0  0  0  0  0  0  0
  182.4350  172.2200  135.8080 C   0  0  1  0  0  3  0  0  0  0  0  0
  183.4160  170.1040  136.3450 C   0  0  0  0  0  1  0  0  0  0  0  0
  183.6800  172.7270  136.5600 C   0  0  0  0  0  0  0  0  0  0  0  0
  182.9260  171.4180  136.9490 C   0  0  1  0  0  3  0  0  0  0  0  0
  184.5890  172.8130  135.3210 C   0  0  0  0  0  2  0  0  0  0  0  0
  185.1450  172.2490  136.5650 C   0  0  0  0  0  2  0  0  0  0  0  0
  186.4240  176.1170  135.2700 C   0  0  0  0  0  2  0  0  0  0  0  0
  187.3340  174.9340  135.5210 C   0  0  0  0  0  2  0  0  0  0  0  0
  188.7630  175.2840  135.1400 C   0  0  0  0  0  2  0  0  0  0  0  0
  189.6890  174.0850  135.3200 C   0  0  0  0  0  2  0  0  0  0  0  0
  190.7300  174.2910  136.4180 C   0  0  1  0  0  3  0  0  0  0  0  0
  190.2760  173.7600  137.6260 O   0  0  0  0  0  1  0  0  0  0  0  0
  191.9880  173.6450  136.0450 N   0  0  0  0  0  2  0  0  0  0  0  0
  193.2620  174.6460  137.7230 O   0  0  0  0  0  0  0  0  0  0  0  0
  193.2300  173.8700  136.7280 C   0  0  0  0  0  0  0  0  0  0  0  0
  195.7120  174.2630  136.2100 C   0  0  1  0  0  3  0  0  0  0  0  0
  194.9720  172.1900  137.1700 C   0  0  2  0  0  3  0  0  0  0  0  0
  194.5300  173.2940  136.1970 C   0  0  1  0  0  0  0  0  0  0  0  0
  195.8270  172.8960  138.2190 C   0  0  0  0  0  2  0  0  0  0  0  0
  195.3890  175.9260  135.6370 Cl  0  0  0  0  0  0  0  0  0  0  0  0
  196.2930  174.2110  137.6120 C   0  0  0  0  0  2  0  0  0  0  0  0
  194.3080  172.7900  134.7720 C   0  0  0  0  0  1  0  0  0  0  0  0
  195.8140  171.1000  136.5180 C   0  0  0  0  0  2  0  0  0  0  0  0
  196.8890  170.6170  137.4770 C   0  0  0  0  0  2  0  0  0  0  0  0
  198.1360  170.7060  136.8590 O   0  0  0  0  0  1  0  0  0  0  0  0
  1 16  1  0  0  0  0
  1 17  1  0  0  0  0
  3 11  1  0  0  0  0
  3  6  1  1  0  0  0
  5  7  1  6  0  0  0
  5 14  1  0  0  0  0
  5  8  1  0  0  0  0
  6  1  1  0  0  0  0
  7 12  1  0  0  0  0
  8  2  1  6  0  0  0
  8 11  1  0  0  0  0
  9 46  1  6  0  0  0
  9 13  1  0  0  0  0
  9 15  1  0  0  0  0
 10 16  1  0  0  0  0
 11 10  1  1  0  0  0
 12 35  1  6  0  0  0
 12  2  1  0  0  0  0
 13 14  1  0  0  0  0
 13 15  1  0  0  0  0
 14 15  1  0  0  0  0
 14  3  1  0  0  0  0
 15  4  1  0  0  0  0
 17 18  1  0  0  0  0
 18 19  1  0  0  0  0
 19 20  1  0  0  0  0
 20 24  1  0  0  0  0
 20 22  1  0  0  0  0
 22 23  2  0  0  0  0
 22 21  1  0  0  0  0
 25 28  2  0  0  0  0
 26 27  2  0  0  0  0
 26 31  1  0  0  0  0
 27 30  1  0  0  0  0
 29 25  1  0  0  0  0
 30 24  1  0  0  0  0
 30 25  1  0  0  0  0
 31 29  1  0  0  0  0
 32 34  1  0  0  0  0
 34 31  1  0  0  0  0
 34 33  2  0  0  0  0
 36 35  1  0  0  0  0
 36 37  1  0  0  0  0
 37 39  1  0  0  0  0
 39 38  2  0  0  0  0
 40 39  1  0  0  0  0
 40 42  1  0  0  0  0
 40 43  1  0  0  0  0
 41 43  1  0  0  0  0
 42 45  1  0  0  0  0
 42 43  1  0  0  0  0
 44 42  1  0  0  0  0
 44 45  1  0  0  0  0
 46 47  1  0  0  0  0
 48 49  1  0  0  0  0
 48 47  1  0  0  0  0
 49 50  1  0  0  0  0
 50 51  1  0  0  0  0
 52 50  1  0  0  0  0
 52 54  1  0  0  0  0
 54 53  2  0  0  0  0
 55 60  1  0  0  0  0
 56 58  1  0  0  0  0
 57 55  1  0  0  0  0
 57 54  1  0  0  0  0
 57 56  1  0  0  0  0
 59 55  1  0  0  0  0
 60 58  1  0  0  0  0
 61 57  1  0  0  0  0
 62 56  1  0  0  0  0
 62 63  1  0  0  0  0
 64 63  1  0  0  0  0
M  END
>  <MODEL>
2

>  <REMARK>
 VINA RESULT:      -6.4      4.004     11.941
  Name = 
  21 active torsions:
  status: ('A' for Active; 'I' for Inactive)
    1  A    between atoms: C_1  and  N_27
    2  A    between atoms: C_1  and  C_59
    3  A    between atoms: C_2  and  C_12
    4  A    between atoms: C_2  and  C_22
    5  A    between atoms: C_3  and  N_23
    6  A    between atoms: C_3  and  C_49
    7  A    between atoms: N_4  and  C_49
    8  A    between atoms: C_8  and  C_44
    9  A    between atoms: C_9  and  C_35
   10  A    between atoms: C_9  and  C_54
   11  A    between atoms: N_11  and  C_20
   12  A    between atoms: C_17  and  C_43
   13  A    between atoms: CA_18  and  N_23
   14  A    between atoms: CA_18  and  C_42
   15  A    between atoms: CA_18  and  C_47
   16  A    between atoms: C_20  and  C_21
   17  A    between atoms: C_21  and  C_45
   18  A    between atoms: C_42  and  C_61
   19  A    between atoms: C_51  and  C_54
   20  A    between atoms: C_51  and  C_59
   21  A    between atoms: C_62  and  C_63
                            x       y       z     vdW  Elec       q    Type
                         _______ _______ _______ _____ _____    ______ ____

>  <TORSDO>
F 21

$$$$
=
 OpenBabel11032420013D

 64 72  0  0  1  0  0  0  0  0999 V2000
  188.0760  178.5910  138.1530 N   0  0  0  0  0  0  0  0  0  0  0  0
  182.8710  178.4010  138.2070 C   0  0  0  0  0  2  0  0  0  0  0  0
  186.0060  177.6340  139.1090 C   0  0  2  0  0  3  0  0  0  0  0  0
  187.9320  178.8330  141.3120 C   0  0  0  0  0  1  0  0  0  0  0  0
  184.2530  179.1180  139.9540 C   0  0  2  0  0  3  0  0  0  0  0  0
  187.5070  177.4350  138.8350 C   0  0  0  0  0  2  0  0  0  0  0  0
  183.1360  178.3940  140.5670 N   0  0  0  0  0  2  0  0  0  0  0  0
  184.1230  179.0720  138.4920 N   0  0  1  0  0  0  0  0  0  0  0  0
  185.9410  178.8050  142.7640 C   0  0  1  0  0  3  0  0  0  0  0  0
  186.0340  179.1360  136.9920 C   0  0  0  0  0  2  0  0  0  0  0  0
  185.2110  178.2510  137.9410 C   0  0  1  0  0  3  0  0  0  0  0  0
  182.4140  177.7560  139.4850 C   0  0  1  0  0  3  0  0  0  0  0  0
  185.7150  177.8080  141.6440 C   0  0  1  0  0  3  0  0  0  0  0  0
  185.5810  178.4750  140.2890 C   0  0  1  0  0  0  0  0  0  0  0  0
  186.4460  179.1230  141.3730 C   0  0  2  0  0  0  0  0  0  0  0  0
  187.4590  178.6310  136.8350 C   0  0  0  0  0  2  0  0  0  0  0  0
  189.4940  178.3150  137.9820 C   0  0  0  0  0  2  0  0  0  0  0  0
  189.6970  176.8500  137.6350 C   0  0  0  0  0  2  0  0  0  0  0  0
  190.2950  176.7450  136.3180 N   0  0  0  0  0  2  0  0  0  0  0  0
  191.2660  175.6590  136.3730 C   0  0  2  0  0  3  0  0  0  0  0  0
  190.1980  173.7080  137.4940 O   0  0  0  0  0  1  0  0  0  0  0  0
  190.5720  174.3360  136.3180 C   0  0  0  0  0  0  0  0  0  0  0  0
  190.2970  173.8060  135.2100 O   0  0  0  0  0  0  0  0  0  0  0  0
  192.1760  175.7690  137.6010 C   0  0  0  0  0  2  0  0  0  0  0  0
  194.1960  174.3760  137.1990 C   0  0  0  0  0  0  0  0  0  0  0  0
  194.6580  176.1110  134.9660 C   0  0  0  0  0  3  0  0  0  0  0  0
  193.8500  176.5370  135.9470 C   0  0  0  0  0  3  0  0  0  0  0  0
  194.2060  173.7020  138.2160 O   0  0  0  0  0  0  0  0  0  0  0  0
  194.7180  173.7880  135.9210 C   0  0  0  0  0  2  0  0  0  0  0  0
  193.6590  175.7870  137.2450 C   0  0  1  0  0  3  0  0  0  0  0  0
  195.4540  174.8390  135.0830 C   0  0  2  0  0  3  0  0  0  0  0  0
  197.3450  176.4120  135.7490 N   0  0  0  0  0  1  0  0  0  0  0  0
  197.5410  174.1090  135.9810 O   0  0  0  0  0  0  0  0  0  0  0  0
  196.8400  175.0860  135.6080 C   0  0  0  0  0  0  0  0  0  0  0  0
  180.9200  177.9550  139.6560 C   0  0  0  0  0  2  0  0  0  0  0  0
  180.5300  179.3260  139.1350 C   0  0  0  0  0  2  0  0  0  0  0  0
  179.7450  179.2280  137.9100 N   0  0  0  0  0  2  0  0  0  0  0  0
  179.8940  179.6700  135.6380 O   0  0  0  0  0  0  0  0  0  0  0  0
  179.8700  180.1370  136.8100 C   0  0  0  0  0  0  0  0  0  0  0  0
  180.1640  181.5960  137.0170 C   0  0  1  0  0  3  0  0  0  0  0  0
  179.3610  183.4060  138.3630 C   0  0  0  0  0  1  0  0  0  0  0  0
  179.5350  182.4510  135.9020 C   0  0  0  0  0  0  0  0  0  0  0  0
  178.9360  182.3540  137.3400 C   0  0  1  0  0  3  0  0  0  0  0  0
  180.8030  183.2680  135.5930 C   0  0  0  0  0  2  0  0  0  0  0  0
  179.5090  183.9730  135.6610 C   0  0  0  0  0  2  0  0  0  0  0  0
  184.6600  179.5610  143.0740 C   0  0  0  0  0  2  0  0  0  0  0  0
  184.0170  178.9540  144.3040 C   0  0  0  0  0  2  0  0  0  0  0  0
  184.9910  178.9830  145.4710 C   0  0  0  0  0  2  0  0  0  0  0  0
  185.9420  177.7930  145.4210 C   0  0  0  0  0  2  0  0  0  0  0  0
  187.2580  178.0460  146.1550 C   0  0  1  0  0  3  0  0  0  0  0  0
  187.3960  177.1610  147.2260 O   0  0  0  0  0  1  0  0  0  0  0  0
  188.3850  177.8800  145.2380 N   0  0  0  0  0  2  0  0  0  0  0  0
  189.9540  177.3900  146.8930 O   0  0  0  0  0  0  0  0  0  0  0  0
  189.7170  177.5630  145.6660 C   0  0  0  0  0  0  0  0  0  0  0  0
  191.7360  176.2980  144.7130 C   0  0  1  0  0  3  0  0  0  0  0  0
  190.2720  177.5370  143.2680 C   0  0  2  0  0  3  0  0  0  0  0  0
  190.8740  177.5590  144.6830 C   0  0  1  0  0  0  0  0  0  0  0  0
  190.1040  176.0590  142.9250 C   0  0  0  0  0  2  0  0  0  0  0  0
  192.1800  175.6710  146.3280 Cl  0  0  0  0  0  0  0  0  0  0  0  0
  191.0300  175.2740  143.8440 C   0  0  0  0  0  2  0  0  0  0  0  0
  191.7560  178.7790  144.9440 C   0  0  0  0  0  1  0  0  0  0  0  0
  191.1660  178.1770  142.2120 C   0  0  0  0  0  2  0  0  0  0  0  0
  191.2460  177.2900  140.9810 C   0  0  0  0  0  2  0  0  0  0  0  0
  192.5840  177.0910  140.6400 O   0  0  0  0  0  1  0  0  0  0  0  0
  1  6  1  0  0  0  0
  2 12  1  0  0  0  0
  3  6  1  6  0  0  0
  3 14  1  0  0  0  0
  4 15  1  0  0  0  0
  5 14  1  0  0  0  0
  5  7  1  1  0  0  0
  8  2  1  1  0  0  0
  8  5  1  0  0  0  0
  9 46  1  6  0  0  0
 11 10  1  1  0  0  0
 11  8  1  0  0  0  0
 11  3  1  0  0  0  0
 12 35  1  1  0  0  0
 12  7  1  0  0  0  0
 13  9  1  0  0  0  0
 14 15  1  0  0  0  0
 14 13  1  0  0  0  0
 15 13  1  0  0  0  0
 15  9  1  0  0  0  0
 16 10  1  0  0  0  0
 16  1  1  0  0  0  0
 17  1  1  0  0  0  0
 18 17  1  0  0  0  0
 19 20  1  0  0  0  0
 19 18  1  0  0  0  0
 20 24  1  0  0  0  0
 22 20  1  0  0  0  0
 22 21  1  0  0  0  0
 23 22  2  0  0  0  0
 25 30  1  0  0  0  0
 25 28  2  0  0  0  0
 26 31  1  0  0  0  0
 26 27  2  0  0  0  0
 27 30  1  0  0  0  0
 29 25  1  0  0  0  0
 30 24  1  0  0  0  0
 31 34  1  0  0  0  0
 31 29  1  0  0  0  0
 34 32  1  0  0  0  0
 34 33  2  0  0  0  0
 36 35  1  0  0  0  0
 37 36  1  0  0  0  0
 38 39  2  0  0  0  0
 39 40  1  0  0  0  0
 39 37  1  0  0  0  0
 40 43  1  0  0  0  0
 42 40  1  0  0  0  0
 42 43  1  0  0  0  0
 43 41  1  0  0  0  0
 44 45  1  0  0  0  0
 44 42  1  0  0  0  0
 45 42  1  0  0  0  0
 46 47  1  0  0  0  0
 47 48  1  0  0  0  0
 49 48  1  0  0  0  0
 49 50  1  0  0  0  0
 50 51  1  0  0  0  0
 52 54  1  0  0  0  0
 52 50  1  0  0  0  0
 54 53  2  0  0  0  0
 55 59  1  0  0  0  0
 56 57  1  0  0  0  0
 57 55  1  0  0  0  0
 57 61  1  0  0  0  0
 57 54  1  0  0  0  0
 58 56  1  0  0  0  0
 58 60  1  0  0  0  0
 60 55  1  0  0  0  0
 62 56  1  0  0  0  0
 63 62  1  0  0  0  0
 64 63  1  0  0  0  0
M  END
>  <MODEL>
3

>  <REMARK>
 VINA RESULT:      -5.5      3.466     10.183
  Name = 
  21 active torsions:
  status: ('A' for Active; 'I' for Inactive)
    1  A    between atoms: C_1  and  N_27
    2  A    between atoms: C_1  and  C_59
    3  A    between atoms: C_2  and  C_12
    4  A    between atoms: C_2  and  C_22
    5  A    between atoms: C_3  and  N_23
    6  A    between atoms: C_3  and  C_49
    7  A    between atoms: N_4  and  C_49
    8  A    between atoms: C_8  and  C_44
    9  A    between atoms: C_9  and  C_35
   10  A    between atoms: C_9  and  C_54
   11  A    between atoms: N_11  and  C_20
   12  A    between atoms: C_17  and  C_43
   13  A    between atoms: CA_18  and  N_23
   14  A    between atoms: CA_18  and  C_42
   15  A    between atoms: CA_18  and  C_47
   16  A    between atoms: C_20  and  C_21
   17  A    between atoms: C_21  and  C_45
   18  A    between atoms: C_42  and  C_61
   19  A    between atoms: C_51  and  C_54
   20  A    between atoms: C_51  and  C_59
   21  A    between atoms: C_62  and  C_63
                            x       y       z     vdW  Elec       q    Type
                         _______ _______ _______ _____ _____    ______ ____

>  <TORSDO>
F 21

$$$$
=
 OpenBabel11032420013D

 64 72  0  0  1  0  0  0  0  0999 V2000
  187.8930  178.6430  138.1420 N   0  0  0  0  0  0  0  0  0  0  0  0
  182.7200  178.1340  138.4710 C   0  0  0  0  0  2  0  0  0  0  0  0
  185.9370  177.5950  139.2340 C   0  0  2  0  0  3  0  0  0  0  0  0
  187.8900  178.9890  141.2940 C   0  0  0  0  0  1  0  0  0  0  0  0
  184.1370  178.9980  140.1200 C   0  0  2  0  0  3  0  0  0  0  0  0
  187.4320  177.4790  138.8900 C   0  0  0  0  0  2  0  0  0  0  0  0
  183.1010  178.2290  140.8120 N   0  0  0  0  0  2  0  0  0  0  0  0
  183.9390  178.8920  138.6690 N   0  0  1  0  0  0  0  0  0  0  0  0
  185.9790  178.8910  142.8470 C   0  0  1  0  0  3  0  0  0  0  0  0
  185.7650  179.0180  137.0700 C   0  0  0  0  0  2  0  0  0  0  0  0
  185.0480  178.1190  138.0890 C   0  0  1  0  0  3  0  0  0  0  0  0
  182.3680  177.5100  139.7910 C   0  0  1  0  0  3  0  0  0  0  0  0
  185.7610  177.8420  141.7740 C   0  0  1  0  0  3  0  0  0  0  0  0
  185.5190  178.4500  140.4070 C   0  0  1  0  0  0  0  0  0  0  0  0
  186.3940  179.1890  141.4220 C   0  0  2  0  0  0  0  0  0  0  0  0
  187.2100  178.5970  136.8570 C   0  0  0  0  0  2  0  0  0  0  0  0
  189.3150  178.4480  137.9070 C   0  0  0  0  0  2  0  0  0  0  0  0
  189.5800  177.0080  137.5050 C   0  0  0  0  0  2  0  0  0  0  0  0
  190.0020  176.9640  136.1190 N   0  0  0  0  0  2  0  0  0  0  0  0
  190.9700  175.8800  135.9980 C   0  0  2  0  0  3  0  0  0  0  0  0
  188.9430  174.4810  135.6260 O   0  0  0  0  0  1  0  0  0  0  0  0
  190.3090  174.6470  135.4710 C   0  0  0  0  0  0  0  0  0  0  0  0
  190.9810  173.7750  134.8600 O   0  0  0  0  0  0  0  0  0  0  0  0
  191.6930  175.6120  137.3210 C   0  0  0  0  0  2  0  0  0  0  0  0
  193.7340  174.2350  136.9750 C   0  0  0  0  0  0  0  0  0  0  0  0
  194.5350  176.3020  135.1600 C   0  0  0  0  0  3  0  0  0  0  0  0
  193.5980  176.5860  136.0760 C   0  0  0  0  0  3  0  0  0  0  0  0
  193.5890  173.3990  137.8520 O   0  0  0  0  0  0  0  0  0  0  0  0
  194.4290  173.8510  135.7010 C   0  0  0  0  0  2  0  0  0  0  0  0
  193.2130  175.6360  137.1860 C   0  0  1  0  0  3  0  0  0  0  0  0
  195.2910  175.0000  135.1680 C   0  0  2  0  0  3  0  0  0  0  0  0
  197.2790  176.3500  136.0160 N   0  0  0  0  0  1  0  0  0  0  0  0
  197.0410  174.0930  136.5130 O   0  0  0  0  0  0  0  0  0  0  0  0
  196.5890  175.1060  135.9170 C   0  0  0  0  0  0  0  0  0  0  0  0
  180.8750  177.6220  140.0320 C   0  0  0  0  0  2  0  0  0  0  0  0
  180.1280  176.9610  138.8880 C   0  0  0  0  0  2  0  0  0  0  0  0
  179.2530  175.8960  139.3660 N   0  0  0  0  0  2  0  0  0  0  0  0
  179.3470  173.7600  140.2650 O   0  0  0  0  0  0  0  0  0  0  0  0
  179.5710  174.5020  139.2700 C   0  0  0  0  0  0  0  0  0  0  0  0
  180.3320  173.9420  138.1020 C   0  0  1  0  0  3  0  0  0  0  0  0
  180.5570  174.3520  135.7540 C   0  0  0  0  0  1  0  0  0  0  0  0
  179.6730  172.6530  137.5790 C   0  0  0  0  0  0  0  0  0  0  0  0
  179.5460  174.0280  136.8530 C   0  0  1  0  0  3  0  0  0  0  0  0
  180.9660  171.8180  137.5380 C   0  0  0  0  0  2  0  0  0  0  0  0
  180.0260  171.7180  136.4050 C   0  0  0  0  0  2  0  0  0  0  0  0
  184.6700  179.5770  143.1980 C   0  0  0  0  0  2  0  0  0  0  0  0
  184.0940  178.9310  144.4410 C   0  0  0  0  0  2  0  0  0  0  0  0
  185.1010  178.9930  145.5770 C   0  0  0  0  0  2  0  0  0  0  0  0
  185.9740  177.7430  145.6060 C   0  0  0  0  0  2  0  0  0  0  0  0
  187.3260  177.9710  146.2790 C   0  0  1  0  0  3  0  0  0  0  0  0
  187.4970  177.0840  147.3420 O   0  0  0  0  0  1  0  0  0  0  0  0
  188.4070  177.7850  145.3110 N   0  0  0  0  0  2  0  0  0  0  0  0
  190.0720  177.4080  146.9020 O   0  0  0  0  0  0  0  0  0  0  0  0
  189.7670  177.5160  145.6820 C   0  0  0  0  0  0  0  0  0  0  0  0
  191.7360  176.2310  144.6550 C   0  0  1  0  0  3  0  0  0  0  0  0
  190.1950  177.4330  143.2600 C   0  0  2  0  0  3  0  0  0  0  0  0
  190.8700  177.4900  144.6400 C   0  0  1  0  0  0  0  0  0  0  0  0
  190.0120  175.9470  142.9620 C   0  0  0  0  0  2  0  0  0  0  0  0
  192.2660  175.6440  146.2590 Cl  0  0  0  0  0  0  0  0  0  0  0  0
  190.9870  175.1860  143.8490 C   0  0  0  0  0  2  0  0  0  0  0  0
  191.7620  178.7170  144.8240 C   0  0  0  0  0  1  0  0  0  0  0  0
  191.0300  178.0490  142.1430 C   0  0  0  0  0  2  0  0  0  0  0  0
  191.0320  177.1410  140.9240 C   0  0  0  0  0  2  0  0  0  0  0  0
  192.2260  177.3110  140.2220 O   0  0  0  0  0  1  0  0  0  0  0  0
  1  6  1  0  0  0  0
  2 12  1  0  0  0  0
  3  6  1  6  0  0  0
  3 14  1  0  0  0  0
  4 15  1  0  0  0  0
  5 14  1  0  0  0  0
  5  7  1  1  0  0  0
  8  2  1  1  0  0  0
  8  5  1  0  0  0  0
  9 46  1  6  0  0  0
 11 10  1  6  0  0  0
 11  8  1  0  0  0  0
 11  3  1  0  0  0  0
 12 35  1  1  0  0  0
 12  7  1  0  0  0  0
 13  9  1  0  0  0  0
 14 15  1  0  0  0  0
 14 13  1  0  0  0  0
 15 13  1  0  0  0  0
 15  9  1  0  0  0  0
 16 10  1  0  0  0  0
 16  1  1  0  0  0  0
 17  1  1  0  0  0  0
 18 17  1  0  0  0  0
 19 18  1  0  0  0  0
 20 19  1  0  0  0  0
 20 24  1  0  0  0  0
 22 21  1  0  0  0  0
 22 20  1  0  0  0  0
 23 22  2  0  0  0  0
 25 30  1  0  0  0  0
 25 28  2  0  0  0  0
 26 31  1  0  0  0  0
 26 27  2  0  0  0  0
 27 30  1  0  0  0  0
 29 25  1  0  0  0  0
 30 24  1  0  0  0  0
 31 29  1  0  0  0  0
 31 34  1  0  0  0  0
 34 32  1  0  0  0  0
 34 33  2  0  0  0  0
 36 37  1  0  0  0  0
 36 35  1  0  0  0  0
 39 37  1  0  0  0  0
 39 38  2  0  0  0  0
 40 39  1  0  0  0  0
 41 43  1  0  0  0  0
 42 40  1  0  0  0  0
 43 42  1  0  0  0  0
 43 40  1  0  0  0  0
 44 42  1  0  0  0  0
 45 44  1  0  0  0  0
 45 42  1  0  0  0  0
 46 47  1  0  0  0  0
 47 48  1  0  0  0  0
 48 49  1  0  0  0  0
 49 50  1  0  0  0  0
 50 51  1  0  0  0  0
 52 54  1  0  0  0  0
 52 50  1  0  0  0  0
 54 53  2  0  0  0  0
 55 59  1  0  0  0  0
 56 57  1  0  0  0  0
 57 55  1  0  0  0  0
 57 61  1  0  0  0  0
 57 54  1  0  0  0  0
 58 56  1  0  0  0  0
 58 60  1  0  0  0  0
 60 55  1  0  0  0  0
 62 56  1  0  0  0  0
 63 62  1  0  0  0  0
 64 63  1  0  0  0  0
M  END
>  <MODEL>
4

>  <REMARK>
 VINA RESULT:      -5.4      3.719      9.902
  Name = 
  21 active torsions:
  status: ('A' for Active; 'I' for Inactive)
    1  A    between atoms: C_1  and  N_27
    2  A    between atoms: C_1  and  C_59
    3  A    between atoms: C_2  and  C_12
    4  A    between atoms: C_2  and  C_22
    5  A    between atoms: C_3  and  N_23
    6  A    between atoms: C_3  and  C_49
    7  A    between atoms: N_4  and  C_49
    8  A    between atoms: C_8  and  C_44
    9  A    between atoms: C_9  and  C_35
   10  A    between atoms: C_9  and  C_54
   11  A    between atoms: N_11  and  C_20
   12  A    between atoms: C_17  and  C_43
   13  A    between atoms: CA_18  and  N_23
   14  A    between atoms: CA_18  and  C_42
   15  A    between atoms: CA_18  and  C_47
   16  A    between atoms: C_20  and  C_21
   17  A    between atoms: C_21  and  C_45
   18  A    between atoms: C_42  and  C_61
   19  A    between atoms: C_51  and  C_54
   20  A    between atoms: C_51  and  C_59
   21  A    between atoms: C_62  and  C_63
                            x       y       z     vdW  Elec       q    Type
                         _______ _______ _______ _____ _____    ______ ____

>  <TORSDO>
F 21

$$$$
=
 OpenBabel11032420013D

 64 72  0  0  1  0  0  0  0  0999 V2000
  186.8110  177.4910  136.3580 N   0  0  0  0  0  0  0  0  0  0  0  0
  189.5090  177.9610  140.7880 C   0  0  0  0  0  2  0  0  0  0  0  0
  188.0120  176.4040  138.2260 C   0  0  2  0  0  3  0  0  0  0  0  0
  189.0720  175.4890  135.3900 C   0  0  0  0  0  1  0  0  0  0  0  0
  190.3000  177.0870  138.7660 C   0  0  2  0  0  3  0  0  0  0  0  0
  186.9280  176.2680  137.1430 C   0  0  0  0  0  2  0  0  0  0  0  0
  190.8980  176.2860  139.8370 N   0  0  0  0  0  2  0  0  0  0  0  0
  189.3940  178.0850  139.3490 N   0  0  1  0  0  0  0  0  0  0  0  0
  191.0590  174.7070  136.6210 C   0  0  1  0  0  3  0  0  0  0  0  0
  187.4370  178.9350  138.1850 C   0  0  0  0  0  2  0  0  0  0  0  0
  188.0110  177.7500  138.9770 C   0  0  1  0  0  3  0  0  0  0  0  0
  190.2330  176.6730  141.0640 C   0  0  1  0  0  3  0  0  0  0  0  0
  189.9100  174.8050  137.6050 C   0  0  1  0  0  3  0  0  0  0  0  0
  189.4620  176.2340  137.8380 C   0  0  1  0  0  0  0  0  0  0  0  0
  190.0590  175.8360  136.4860 C   0  0  2  0  0  0  0  0  0  0  0  0
  186.3030  178.5100  137.2660 C   0  0  0  0  0  2  0  0  0  0  0  0
  185.7950  177.2380  135.3470 C   0  0  0  0  0  2  0  0  0  0  0  0
  185.9000  175.8040  134.8570 C   0  0  0  0  0  2  0  0  0  0  0  0
  184.5720  175.2860  134.5940 N   0  0  0  0  0  2  0  0  0  0  0  0
  183.8960  175.1640  135.8800 C   0  0  2  0  0  3  0  0  0  0  0  0
  184.8380  172.8620  135.7430 O   0  0  0  0  0  0  0  0  0  0  0  0
  184.0560  173.7810  136.4240 C   0  0  0  0  0  0  0  0  0  0  0  0
  183.5130  173.4570  137.5120 O   0  0  0  0  0  1  0  0  0  0  0  0
  182.4210  175.5680  135.7890 C   0  0  0  0  0  2  0  0  0  0  0  0
  180.9470  175.8650  137.7690 C   0  0  0  0  0  0  0  0  0  0  0  0
  183.2490  177.0330  139.0120 C   0  0  0  0  0  3  0  0  0  0  0  0
  183.2150  176.9620  137.6740 C   0  0  0  0  0  3  0  0  0  0  0  0
  179.8660  175.5650  137.2880 O   0  0  0  0  0  0  0  0  0  0  0  0
  181.2140  175.5740  139.2170 C   0  0  0  0  0  2  0  0  0  0  0  0
  181.9940  176.5210  136.9010 C   0  0  1  0  0  3  0  0  0  0  0  0
  182.0580  176.6800  139.8610 C   0  0  2  0  0  3  0  0  0  0  0  0
  181.8230  179.1680  140.3550 N   0  0  0  0  0  1  0  0  0  0  0  0
  179.9730  177.7650  140.2710 O   0  0  0  0  0  0  0  0  0  0  0  0
  181.2240  177.8840  140.1930 C   0  0  0  0  0  0  0  0  0  0  0  0
  191.2460  176.8800  142.1740 C   0  0  0  0  0  2  0  0  0  0  0  0
  190.8280  176.0800  143.3940 C   0  0  0  0  0  2  0  0  0  0  0  0
  191.7840  176.2330  144.4850 N   0  0  0  0  0  2  0  0  0  0  0  0
  191.9440  175.9760  146.7850 O   0  0  0  0  0  0  0  0  0  0  0  0
  191.4150  176.5950  145.8210 C   0  0  0  0  0  0  0  0  0  0  0  0
  190.2850  177.5460  146.1010 C   0  0  1  0  0  3  0  0  0  0  0  0
  188.9760  178.2620  147.9730 C   0  0  0  0  0  1  0  0  0  0  0  0
  188.9340  176.9380  145.6840 C   0  0  0  0  0  0  0  0  0  0  0  0
  189.4000  177.0350  147.1690 C   0  0  1  0  0  3  0  0  0  0  0  0
  188.4440  178.1660  144.8950 C   0  0  0  0  0  2  0  0  0  0  0  0
  187.4910  177.4710  145.7810 C   0  0  0  0  0  2  0  0  0  0  0  0
  192.3520  175.1860  137.2580 C   0  0  0  0  0  2  0  0  0  0  0  0
  192.7500  176.5060  136.6320 C   0  0  0  0  0  2  0  0  0  0  0  0
  192.8230  176.3670  135.1210 C   0  0  0  0  0  2  0  0  0  0  0  0
  193.9340  175.4070  134.7110 C   0  0  0  0  0  2  0  0  0  0  0  0
  195.3320  175.9930  134.8950 C   0  0  1  0  0  3  0  0  0  0  0  0
  195.2620  177.3770  135.0580 O   0  0  0  0  0  1  0  0  0  0  0  0
  195.9760  175.3970  136.0650 N   0  0  0  0  0  2  0  0  0  0  0  0
  195.6080  173.1850  135.4250 O   0  0  0  0  0  0  0  0  0  0  0  0
  196.0750  173.9830  136.2840 C   0  0  0  0  0  0  0  0  0  0  0  0
  197.7760  172.4490  137.4400 C   0  0  1  0  0  3  0  0  0  0  0  0
  197.2450  174.6030  138.3580 C   0  0  2  0  0  3  0  0  0  0  0  0
  196.6140  173.4300  137.5910 C   0  0  1  0  0  0  0  0  0  0  0  0
  198.6980  174.6540  137.8930 C   0  0  0  0  0  2  0  0  0  0  0  0
  197.6140  171.2090  136.1610 Cl  0  0  0  0  0  0  0  0  0  0  0  0
  199.0330  173.2890  137.3080 C   0  0  0  0  0  2  0  0  0  0  0  0
  195.4780  172.7510  138.3540 C   0  0  0  0  0  1  0  0  0  0  0  0
  197.2310  174.4230  139.8720 C   0  0  0  0  0  2  0  0  0  0  0  0
  197.7540  175.6750  140.5570 C   0  0  0  0  0  2  0  0  0  0  0  0
  198.0820  175.3760  141.8790 O   0  0  0  0  0  1  0  0  0  0  0  0
  1  6  1  0  0  0  0
  1 16  1  0  0  0  0
  2 12  1  0  0  0  0
  3  6  1  6  0  0  0
  3 11  1  0  0  0  0
  4 15  1  0  0  0  0
  5  8  1  0  0  0  0
  5  7  1  1  0  0  0
  7 12  1  0  0  0  0
  8  2  1  1  0  0  0
  9 46  1  1  0  0  0
  9 13  1  0  0  0  0
 11 10  1  6  0  0  0
 11  8  1  0  0  0  0
 12 35  1  1  0  0  0
 13 14  1  0  0  0  0
 14  3  1  0  0  0  0
 14  5  1  0  0  0  0
 15  9  1  0  0  0  0
 15 13  1  0  0  0  0
 15 14  1  0  0  0  0
 16 10  1  0  0  0  0
 17  1  1  0  0  0  0
 18 17  1  0  0  0  0
 19 18  1  0  0  0  0
 19 20  1  0  0  0  0
 20 22  1  0  0  0  0
 21 22  2  0  0  0  0
 22 23  1  0  0  0  0
 24 20  1  0  0  0  0
 24 30  1  0  0  0  0
 25 29  1  0  0  0  0
 26 31  1  0  0  0  0
 27 26  2  0  0  0  0
 28 25  2  0  0  0  0
 29 31  1  0  0  0  0
 30 27  1  0  0  0  0
 30 25  1  0  0  0  0
 31 34  1  0  0  0  0
 34 33  2  0  0  0  0
 34 32  1  0  0  0  0
 35 36  1  0  0  0  0
 36 37  1  0  0  0  0
 37 39  1  0  0  0  0
 39 40  1  0  0  0  0
 39 38  2  0  0  0  0
 40 43  1  0  0  0  0
 42 45  1  0  0  0  0
 42 40  1  0  0  0  0
 42 43  1  0  0  0  0
 43 41  1  0  0  0  0
 44 42  1  0  0  0  0
 44 45  1  0  0  0  0
 47 46  1  0  0  0  0
 48 47  1  0  0  0  0
 49 50  1  0  0  0  0
 49 48  1  0  0  0  0
 50 51  1  0  0  0  0
 50 52  1  0  0  0  0
 52 54  1  0  0  0  0
 53 54  2  0  0  0  0
 54 57  1  0  0  0  0
 55 57  1  0  0  0  0
 56 62  1  0  0  0  0
 57 61  1  0  0  0  0
 57 56  1  0  0  0  0
 58 56  1  0  0  0  0
 59 55  1  0  0  0  0
 60 55  1  0  0  0  0
 60 58  1  0  0  0  0
 62 63  1  0  0  0  0
 63 64  1  0  0  0  0
M  END
>  <MODEL>
5

>  <REMARK>
 VINA RESULT:      -5.0      4.372      9.373
  Name = 
  21 active torsions:
  status: ('A' for Active; 'I' for Inactive)
    1  A    between atoms: C_1  and  N_27
    2  A    between atoms: C_1  and  C_59
    3  A    between atoms: C_2  and  C_12
    4  A    between atoms: C_2  and  C_22
    5  A    between atoms: C_3  and  N_23
    6  A    between atoms: C_3  and  C_49
    7  A    between atoms: N_4  and  C_49
    8  A    between atoms: C_8  and  C_44
    9  A    between atoms: C_9  and  C_35
   10  A    between atoms: C_9  and  C_54
   11  A    between atoms: N_11  and  C_20
   12  A    between atoms: C_17  and  C_43
   13  A    between atoms: CA_18  and  N_23
   14  A    between atoms: CA_18  and  C_42
   15  A    between atoms: CA_18  and  C_47
   16  A    between atoms: C_20  and  C_21
   17  A    between atoms: C_21  and  C_45
   18  A    between atoms: C_42  and  C_61
   19  A    between atoms: C_51  and  C_54
   20  A    between atoms: C_51  and  C_59
   21  A    between atoms: C_62  and  C_63
                            x       y       z     vdW  Elec       q    Type
                         _______ _______ _______ _____ _____    ______ ____

>  <TORSDO>
F 21

$$$$
=
 OpenBabel11032420013D

 64 72  0  0  1  0  0  0  0  0999 V2000
  183.8650  174.3380  136.8440 N   0  0  0  0  0  0  0  0  0  0  0  0
  188.6750  172.9220  135.4350 C   0  0  0  0  0  2  0  0  0  0  0  0
  185.8770  174.7650  135.4720 C   0  0  2  0  0  3  0  0  0  0  0  0
  185.0120  177.2740  137.1930 C   0  0  0  0  0  1  0  0  0  0  0  0
  188.0760  174.8970  136.5390 C   0  0  2  0  0  3  0  0  0  0  0  0
  184.3570  174.9560  135.6200 C   0  0  0  0  0  2  0  0  0  0  0  0
  189.1470  175.2430  135.6010 N   0  0  0  0  0  2  0  0  0  0  0  0
  187.7410  173.4740  136.3960 N   0  0  1  0  0  0  0  0  0  0  0  0
  187.2980  178.0880  136.7640 C   0  0  1  0  0  3  0  0  0  0  0  0
  185.5230  172.5860  136.8370 C   0  0  0  0  0  2  0  0  0  0  0  0
  186.3890  173.3550  135.8290 C   0  0  1  0  0  3  0  0  0  0  0  0
  189.3540  174.0820  134.7620 C   0  0  1  0  0  3  0  0  0  0  0  0
  186.9570  177.0730  135.6900 C   0  0  1  0  0  3  0  0  0  0  0  0
  186.8080  175.6700  136.2430 C   0  0  1  0  0  0  0  0  0  0  0  0
  186.4720  176.8730  137.1270 C   0  0  2  0  0  0  0  0  0  0  0  0
  184.0450  172.9030  136.6760 C   0  0  0  0  0  2  0  0  0  0  0  0
  182.4370  174.6120  136.9020 C   0  0  0  0  0  2  0  0  0  0  0  0
  182.0830  175.2210  138.2480 C   0  0  0  0  0  2  0  0  0  0  0  0
  180.7330  175.7460  138.1990 N   0  0  0  0  0  2  0  0  0  0  0  0
  180.2700  175.8710  139.5760 C   0  0  2  0  0  3  0  0  0  0  0  0
  179.5650  173.5070  139.2270 O   0  0  0  0  0  0  0  0  0  0  0  0
  179.8470  174.5380  140.1070 C   0  0  0  0  0  0  0  0  0  0  0  0
  179.7770  174.3390  141.3480 O   0  0  0  0  0  1  0  0  0  0  0  0
  179.1540  176.9120  139.7100 C   0  0  0  0  0  2  0  0  0  0  0  0
  180.9870  178.5830  139.8890 C   0  0  0  0  0  0  0  0  0  0  0  0
  180.4820  179.0850  137.1140 C   0  0  0  0  0  3  0  0  0  0  0  0
  179.5240  178.4890  137.8380 C   0  0  0  0  0  3  0  0  0  0  0  0
  181.1630  178.5910  141.0970 O   0  0  0  0  0  0  0  0  0  0  0  0
  182.1510  178.8340  138.9750 C   0  0  0  0  0  2  0  0  0  0  0  0
  179.6060  178.3210  139.3380 C   0  0  1  0  0  3  0  0  0  0  0  0
  181.7290  179.6450  137.7440 C   0  0  2  0  0  3  0  0  0  0  0  0
  182.6150  181.7960  138.7830 N   0  0  0  0  0  1  0  0  0  0  0  0
  180.5840  181.7360  137.6560 O   0  0  0  0  0  0  0  0  0  0  0  0
  181.5910  181.1040  138.0700 C   0  0  0  0  0  0  0  0  0  0  0  0
  190.8350  173.7940  134.6100 C   0  0  0  0  0  2  0  0  0  0  0  0
  191.1000  172.3320  134.9210 C   0  0  0  0  0  2  0  0  0  0  0  0
  192.5070  172.0970  135.2210 N   0  0  0  0  0  2  0  0  0  0  0  0
  194.0590  172.3970  136.9190 O   0  0  0  0  0  0  0  0  0  0  0  0
  193.2900  172.9370  136.0780 C   0  0  0  0  0  0  0  0  0  0  0  0
  193.0800  174.4240  136.1360 C   0  0  1  0  0  3  0  0  0  0  0  0
  194.3030  176.4210  135.6360 C   0  0  0  0  0  1  0  0  0  0  0  0
  193.2560  174.9520  137.5710 C   0  0  0  0  0  0  0  0  0  0  0  0
  194.3350  175.1350  136.4600 C   0  0  1  0  0  3  0  0  0  0  0  0
  191.9560  175.7770  137.5970 C   0  0  0  0  0  2  0  0  0  0  0  0
  193.1810  176.3740  138.1620 C   0  0  0  0  0  2  0  0  0  0  0  0
  188.7420  177.9310  137.2100 C   0  0  0  0  0  2  0  0  0  0  0  0
  188.8350  178.2280  138.6910 C   0  0  0  0  0  2  0  0  0  0  0  0
  187.4670  178.6110  139.2340 C   0  0  0  0  0  2  0  0  0  0  0  0
  187.1550  177.8520  140.5190 C   0  0  0  0  0  2  0  0  0  0  0  0
  187.5760  178.6050  141.7790 C   0  0  1  0  0  3  0  0  0  0  0  0
  186.6610  178.3820  142.8090 O   0  0  0  0  0  1  0  0  0  0  0  0
  188.9050  178.1690  142.2050 N   0  0  0  0  0  2  0  0  0  0  0  0
  188.1730  176.2400  143.2930 O   0  0  0  0  0  0  0  0  0  0  0  0
  189.1430  176.9810  142.9730 C   0  0  0  0  0  0  0  0  0  0  0  0
  191.6590  177.4760  142.8920 C   0  0  1  0  0  3  0  0  0  0  0  0
  190.5480  177.1130  144.9890 C   0  0  2  0  0  3  0  0  0  0  0  0
  190.5250  176.6670  143.5180 C   0  0  1  0  0  0  0  0  0  0  0  0
  190.9980  178.5710  144.9600 C   0  0  0  0  0  2  0  0  0  0  0  0
  191.6270  177.6550  141.1120 Cl  0  0  0  0  0  0  0  0  0  0  0  0
  191.7000  178.8010  143.6290 C   0  0  0  0  0  2  0  0  0  0  0  0
  190.8080  175.1760  143.3350 C   0  0  0  0  0  1  0  0  0  0  0  0
  191.5260  176.3240  145.8530 C   0  0  0  0  0  2  0  0  0  0  0  0
  191.0450  176.2850  147.2940 C   0  0  0  0  0  2  0  0  0  0  0  0
  191.8200  177.1520  148.0640 O   0  0  0  0  0  1  0  0  0  0  0  0
  1 17  1  0  0  0  0
  3  6  1  1  0  0  0
  3 11  1  0  0  0  0
  3 14  1  0  0  0  0
  5  7  1  6  0  0  0
  6  1  1  0  0  0  0
  8  2  1  6  0  0  0
  8  5  1  0  0  0  0
  9 15  1  0  0  0  0
  9 46  1  1  0  0  0
 11  8  1  0  0  0  0
 11 10  1  1  0  0  0
 12 35  1  1  0  0  0
 12  2  1  0  0  0  0
 12  7  1  0  0  0  0
 13 14  1  0  0  0  0
 13  9  1  0  0  0  0
 13 15  1  0  0  0  0
 14  5  1  0  0  0  0
 14 15  1  0  0  0  0
 15  4  1  0  0  0  0
 16 10  1  0  0  0  0
 16  1  1  0  0  0  0
 17 18  1  0  0  0  0
 19 18  1  0  0  0  0
 19 20  1  0  0  0  0
 20 24  1  0  0  0  0
 20 22  1  0  0  0  0
 21 22  2  0  0  0  0
 22 23  1  0  0  0  0
 25 28  2  0  0  0  0
 26 31  1  0  0  0  0
 26 27  2  0  0  0  0
 27 30  1  0  0  0  0
 29 25  1  0  0  0  0
 30 24  1  0  0  0  0
 30 25  1  0  0  0  0
 31 34  1  0  0  0  0
 31 29  1  0  0  0  0
 33 34  2  0  0  0  0
 34 32  1  0  0  0  0
 35 36  1  0  0  0  0
 36 37  1  0  0  0  0
 37 39  1  0  0  0  0
 39 40  1  0  0  0  0
 39 38  2  0  0  0  0
 40 43  1  0  0  0  0
 40 42  1  0  0  0  0
 41 43  1  0  0  0  0
 42 44  1  0  0  0  0
 42 45  1  0  0  0  0
 43 42  1  0  0  0  0
 44 45  1  0  0  0  0
 46 47  1  0  0  0  0
 47 48  1  0  0  0  0
 48 49  1  0  0  0  0
 49 50  1  0  0  0  0
 50 52  1  0  0  0  0
 50 51  1  0  0  0  0
 52 54  1  0  0  0  0
 54 53  2  0  0  0  0
 54 57  1  0  0  0  0
 55 57  1  0  0  0  0
 55 60  1  0  0  0  0
 56 62  1  0  0  0  0
 57 56  1  0  0  0  0
 58 56  1  0  0  0  0
 59 55  1  0  0  0  0
 60 58  1  0  0  0  0
 61 57  1  0  0  0  0
 62 63  1  0  0  0  0
 63 64  1  0  0  0  0
M  END
>  <MODEL>
6

>  <REMARK>
 VINA RESULT:      -4.9      2.937      9.002
  Name = 
  21 active torsions:
  status: ('A' for Active; 'I' for Inactive)
    1  A    between atoms: C_1  and  N_27
    2  A    between atoms: C_1  and  C_59
    3  A    between atoms: C_2  and  C_12
    4  A    between atoms: C_2  and  C_22
    5  A    between atoms: C_3  and  N_23
    6  A    between atoms: C_3  and  C_49
    7  A    between atoms: N_4  and  C_49
    8  A    between atoms: C_8  and  C_44
    9  A    between atoms: C_9  and  C_35
   10  A    between atoms: C_9  and  C_54
   11  A    between atoms: N_11  and  C_20
   12  A    between atoms: C_17  and  C_43
   13  A    between atoms: CA_18  and  N_23
   14  A    between atoms: CA_18  and  C_42
   15  A    between atoms: CA_18  and  C_47
   16  A    between atoms: C_20  and  C_21
   17  A    between atoms: C_21  and  C_45
   18  A    between atoms: C_42  and  C_61
   19  A    between atoms: C_51  and  C_54
   20  A    between atoms: C_51  and  C_59
   21  A    between atoms: C_62  and  C_63
                            x       y       z     vdW  Elec       q    Type
                         _______ _______ _______ _____ _____    ______ ____

>  <TORSDO>
F 21

$$$$
=
 OpenBabel11032420013D

 64 72  0  0  1  0  0  0  0  0999 V2000
  183.7870  178.7660  144.7560 N   0  0  0  0  0  0  0  0  0  0  0  0
  179.8080  179.0080  141.4050 C   0  0  0  0  0  2  0  0  0  0  0  0
  182.8360  179.6880  142.6690 C   0  0  2  0  0  3  0  0  0  0  0  0
  185.6650  178.3420  142.2360 C   0  0  0  0  0  1  0  0  0  0  0  0
  181.9490  178.1750  140.9600 C   0  0  2  0  0  3  0  0  0  0  0  0
  183.8310  179.8870  143.8250 C   0  0  0  0  0  2  0  0  0  0  0  0
  181.5070  178.8750  139.7510 N   0  0  0  0  0  2  0  0  0  0  0  0
  180.9260  178.3080  142.0050 N   0  0  1  0  0  0  0  0  0  0  0  0
  185.0460  178.3060  139.8510 C   0  0  1  0  0  3  0  0  0  0  0  0
  181.4490  178.3120  144.3780 C   0  0  0  0  0  2  0  0  0  0  0  0
  181.4540  179.1490  143.0890 C   0  0  1  0  0  3  0  0  0  0  0  0
  180.2930  179.5820  140.1030 C   0  0  1  0  0  3  0  0  0  0  0  0
  184.2080  179.3690  140.5330 C   0  0  1  0  0  3  0  0  0  0  0  0
  183.2170  178.7840  141.5200 C   0  0  1  0  0  0  0  0  0  0  0  0
  184.5420  178.0640  141.2570 C   0  0  2  0  0  0  0  0  0  0  0  0
  182.4740  178.8100  145.3840 C   0  0  0  0  0  2  0  0  0  0  0  0
  184.7870  179.0370  145.7780 C   0  0  0  0  0  2  0  0  0  0  0  0
  186.0850  178.3270  145.4310 C   0  0  0  0  0  2  0  0  0  0  0  0
  187.1250  178.7500  146.3470 N   0  0  0  0  0  2  0  0  0  0  0  0
  188.1040  177.6720  146.4140 C   0  0  2  0  0  3  0  0  0  0  0  0
  188.1090  175.7530  148.0020 O   0  0  0  0  0  0  0  0  0  0  0  0
  188.1800  177.1210  147.8020 C   0  0  0  0  0  0  0  0  0  0  0  0
  188.3410  177.8910  148.7850 O   0  0  0  0  0  1  0  0  0  0  0  0
  189.4790  178.1190  145.9070 C   0  0  0  0  0  2  0  0  0  0  0  0
  191.0300  178.0680  143.9640 C   0  0  0  0  0  0  0  0  0  0  0  0
  189.1820  176.1890  142.8390 C   0  0  0  0  0  3  0  0  0  0  0  0
  188.7550  176.9890  143.8270 C   0  0  0  0  0  3  0  0  0  0  0  0
  191.7790  178.9870  144.2540 O   0  0  0  0  0  0  0  0  0  0  0  0
  191.5670  176.8970  143.1930 C   0  0  0  0  0  2  0  0  0  0  0  0
  189.5810  178.1250  144.3850 C   0  0  1  0  0  3  0  0  0  0  0  0
  190.5320  176.3640  142.1960 C   0  0  2  0  0  3  0  0  0  0  0  0
  191.6310  177.8590  140.4510 N   0  0  0  0  0  1  0  0  0  0  0  0
  189.3720  177.3300  140.3480 O   0  0  0  0  0  0  0  0  0  0  0  0
  190.4640  177.2210  140.9650 C   0  0  0  0  0  0  0  0  0  0  0  0
  179.2370  179.3900  139.0310 C   0  0  0  0  0  2  0  0  0  0  0  0
  179.5440  178.1300  138.2410 C   0  0  0  0  0  2  0  0  0  0  0  0
  179.6860  178.4150  136.8180 N   0  0  0  0  0  2  0  0  0  0  0  0
  179.7010  177.3400  134.7620 O   0  0  0  0  0  0  0  0  0  0  0  0
  180.2660  177.5010  135.8780 C   0  0  0  0  0  0  0  0  0  0  0  0
  181.4060  176.5960  136.2540 C   0  0  1  0  0  3  0  0  0  0  0  0
  182.8220  174.9790  135.2010 C   0  0  0  0  0  1  0  0  0  0  0  0
  180.8960  175.3370  136.9780 C   0  0  0  0  0  0  0  0  0  0  0  0
  181.3650  175.3300  135.4900 C   0  0  1  0  0  3  0  0  0  0  0  0
  181.8900  175.4160  138.1510 C   0  0  0  0  0  2  0  0  0  0  0  0
  181.6300  174.1010  137.5350 C   0  0  0  0  0  2  0  0  0  0  0  0
  184.2190  177.5480  138.8270 C   0  0  0  0  0  2  0  0  0  0  0  0
  184.7940  177.7960  137.4480 C   0  0  0  0  0  2  0  0  0  0  0  0
  186.2300  177.3010  137.3840 C   0  0  0  0  0  2  0  0  0  0  0  0
  186.6830  177.1200  135.9390 C   0  0  0  0  0  2  0  0  0  0  0  0
  188.1670  177.4190  135.7350 C   0  0  1  0  0  3  0  0  0  0  0  0
  188.4760  178.6970  136.2030 O   0  0  0  0  0  1  0  0  0  0  0  0
  188.9810  176.4310  136.4440 N   0  0  0  0  0  2  0  0  0  0  0  0
  190.5850  176.2130  134.7640 O   0  0  0  0  0  0  0  0  0  0  0  0
  190.1770  175.8520  135.9030 C   0  0  0  0  0  0  0  0  0  0  0  0
  190.2350  173.3480  136.4560 C   0  0  1  0  0  3  0  0  0  0  0  0
  192.2560  174.5360  135.9390 C   0  0  2  0  0  3  0  0  0  0  0  0
  190.8890  174.7190  136.6190 C   0  0  1  0  0  0  0  0  0  0  0  0
  192.0140  173.5400  134.8080 C   0  0  0  0  0  2  0  0  0  0  0  0
  188.4560  173.2850  136.6300 Cl  0  0  0  0  0  0  0  0  0  0  0  0
  190.7310  172.7890  135.1350 C   0  0  0  0  0  2  0  0  0  0  0  0
  190.9950  175.0540  138.1060 C   0  0  0  0  0  1  0  0  0  0  0  0
  193.3270  173.9660  136.8620 C   0  0  0  0  0  2  0  0  0  0  0  0
  194.3630  175.0280  137.1890 C   0  0  0  0  0  2  0  0  0  0  0  0
  194.7470  174.9060  138.5240 O   0  0  0  0  0  1  0  0  0  0  0  0
  1 16  1  0  0  0  0
  1 17  1  0  0  0  0
  3 11  1  0  0  0  0
  3  6  1  1  0  0  0
  5  7  1  6  0  0  0
  5 14  1  0  0  0  0
  5  8  1  0  0  0  0
  6  1  1  0  0  0  0
  7 12  1  0  0  0  0
  8  2  1  6  0  0  0
  8 11  1  0  0  0  0
  9 46  1  6  0  0  0
  9 13  1  0  0  0  0
  9 15  1  0  0  0  0
 10 16  1  0  0  0  0
 11 10  1  1  0  0  0
 12 35  1  6  0  0  0
 12  2  1  0  0  0  0
 13 15  1  0  0  0  0
 13 14  1  0  0  0  0
 14  3  1  0  0  0  0
 15 14  1  0  0  0  0
 15  4  1  0  0  0  0
 18 17  1  0  0  0  0
 18 19  1  0  0  0  0
 19 20  1  0  0  0  0
 20 22  1  0  0  0  0
 22 21  2  0  0  0  0
 22 23  1  0  0  0  0
 24 20  1  0  0  0  0
 25 28  2  0  0  0  0
 25 30  1  0  0  0  0
 26 27  2  0  0  0  0
 27 30  1  0  0  0  0
 29 25  1  0  0  0  0
 30 24  1  0  0  0  0
 31 26  1  0  0  0  0
 31 29  1  0  0  0  0
 32 34  1  0  0  0  0
 33 34  2  0  0  0  0
 34 31  1  0  0  0  0
 36 35  1  0  0  0  0
 37 36  1  0  0  0  0
 38 39  2  0  0  0  0
 39 40  1  0  0  0  0
 39 37  1  0  0  0  0
 40 42  1  0  0  0  0
 41 43  1  0  0  0  0
 42 45  1  0  0  0  0
 42 44  1  0  0  0  0
 43 40  1  0  0  0  0
 43 42  1  0  0  0  0
 45 44  1  0  0  0  0
 47 46  1  0  0  0  0
 48 47  1  0  0  0  0
 49 48  1  0  0  0  0
 50 49  1  0  0  0  0
 50 51  1  0  0  0  0
 50 52  1  0  0  0  0
 53 54  2  0  0  0  0
 54 52  1  0  0  0  0
 54 57  1  0  0  0  0
 55 57  1  0  0  0  0
 55 59  1  0  0  0  0
 56 57  1  0  0  0  0
 56 62  1  0  0  0  0
 57 61  1  0  0  0  0
 58 60  1  0  0  0  0
 58 56  1  0  0  0  0
 60 55  1  0  0  0  0
 62 63  1  0  0  0  0
 63 64  1  0  0  0  0
M  END
>  <MODEL>
7

>  <REMARK>
 VINA RESULT:      -4.9      3.079     11.043
  Name = 
  21 active torsions:
  status: ('A' for Active; 'I' for Inactive)
    1  A    between atoms: C_1  and  N_27
    2  A    between atoms: C_1  and  C_59
    3  A    between atoms: C_2  and  C_12
    4  A    between atoms: C_2  and  C_22
    5  A    between atoms: C_3  and  N_23
    6  A    between atoms: C_3  and  C_49
    7  A    between atoms: N_4  and  C_49
    8  A    between atoms: C_8  and  C_44
    9  A    between atoms: C_9  and  C_35
   10  A    between atoms: C_9  and  C_54
   11  A    between atoms: N_11  and  C_20
   12  A    between atoms: C_17  and  C_43
   13  A    between atoms: CA_18  and  N_23
   14  A    between atoms: CA_18  and  C_42
   15  A    between atoms: CA_18  and  C_47
   16  A    between atoms: C_20  and  C_21
   17  A    between atoms: C_21  and  C_45
   18  A    between atoms: C_42  and  C_61
   19  A    between atoms: C_51  and  C_54
   20  A    between atoms: C_51  and  C_59
   21  A    between atoms: C_62  and  C_63
                            x       y       z     vdW  Elec       q    Type
                         _______ _______ _______ _____ _____    ______ ____

>  <TORSDO>
F 21

$$$$
=
 OpenBabel11032420013D

 64 72  0  0  1  0  0  0  0  0999 V2000
  186.9060  177.1690  135.9620 N   0  0  0  0  0  0  0  0  0  0  0  0
  189.3150  178.2230  140.4580 C   0  0  0  0  0  2  0  0  0  0  0  0
  188.0460  176.3410  137.9940 C   0  0  2  0  0  3  0  0  0  0  0  0
  189.3110  175.2020  135.3280 C   0  0  0  0  0  1  0  0  0  0  0  0
  190.2630  177.1940  138.5820 C   0  0  2  0  0  3  0  0  0  0  0  0
  187.0350  176.0390  136.8740 C   0  0  0  0  0  2  0  0  0  0  0  0
  190.8350  176.5370  139.7610 N   0  0  0  0  0  2  0  0  0  0  0  0
  189.2790  178.1960  139.0090 N   0  0  1  0  0  0  0  0  0  0  0  0
  191.2580  174.6540  136.7380 C   0  0  1  0  0  3  0  0  0  0  0  0
  187.3560  178.8210  137.6610 C   0  0  0  0  0  2  0  0  0  0  0  0
  187.9370  177.7530  138.6010 C   0  0  1  0  0  3  0  0  0  0  0  0
  190.0810  177.0100  140.9030 C   0  0  1  0  0  3  0  0  0  0  0  0
  190.0490  174.7890  137.6440 C   0  0  1  0  0  3  0  0  0  0  0  0
  189.5220  176.2090  137.7040 C   0  0  1  0  0  0  0  0  0  0  0  0
  190.2150  175.7090  136.4340 C   0  0  2  0  0  0  0  0  0  0  0  0
  186.2990  178.2460  136.7310 C   0  0  0  0  0  2  0  0  0  0  0  0
  185.9650  176.7630  134.9290 C   0  0  0  0  0  2  0  0  0  0  0  0
  185.5170  175.3320  135.1720 C   0  0  0  0  0  2  0  0  0  0  0  0
  184.1810  175.1480  134.6410 N   0  0  0  0  0  2  0  0  0  0  0  0
  183.2530  175.2860  135.7570 C   0  0  2  0  0  3  0  0  0  0  0  0
  181.2880  173.8570  135.2060 O   0  0  0  0  0  0  0  0  0  0  0  0
  182.4550  174.0330  135.9300 C   0  0  0  0  0  0  0  0  0  0  0  0
  182.8550  173.1240  136.7030 O   0  0  0  0  0  1  0  0  0  0  0  0
  182.3490  176.5130  135.5990 C   0  0  0  0  0  2  0  0  0  0  0  0
  180.5470  176.7840  137.2900 C   0  0  0  0  0  0  0  0  0  0  0  0
  182.6180  176.3520  139.2220 C   0  0  0  0  0  3  0  0  0  0  0  0
  182.9690  176.7330  137.9860 C   0  0  0  0  0  3  0  0  0  0  0  0
  179.6300  177.1620  136.5790 O   0  0  0  0  0  0  0  0  0  0  0  0
  180.2400  175.9620  138.5090 C   0  0  0  0  0  2  0  0  0  0  0  0
  181.9680  177.1480  136.9340 C   0  0  1  0  0  3  0  0  0  0  0  0
  181.1800  176.3120  139.6680 C   0  0  2  0  0  3  0  0  0  0  0  0
  181.6480  178.7020  140.4150 N   0  0  0  0  0  1  0  0  0  0  0  0
  179.5970  177.6850  140.8080 O   0  0  0  0  0  0  0  0  0  0  0  0
  180.7640  177.5850  140.3460 C   0  0  0  0  0  0  0  0  0  0  0  0
  191.0160  177.3810  142.0390 C   0  0  0  0  0  2  0  0  0  0  0  0
  190.5270  176.7410  143.3250 C   0  0  0  0  0  2  0  0  0  0  0  0
  191.5840  176.6820  144.3270 N   0  0  0  0  0  2  0  0  0  0  0  0
  191.9700  175.9440  146.4930 O   0  0  0  0  0  0  0  0  0  0  0  0
  191.3460  176.7410  145.7390 C   0  0  0  0  0  0  0  0  0  0  0  0
  190.2450  177.5820  146.3230 C   0  0  1  0  0  3  0  0  0  0  0  0
  189.5660  178.3940  148.4700 C   0  0  0  0  0  1  0  0  0  0  0  0
  188.9490  176.7650  146.4790 C   0  0  0  0  0  0  0  0  0  0  0  0
  189.8780  177.1240  147.6800 C   0  0  1  0  0  3  0  0  0  0  0  0
  188.0270  177.8030  145.8150 C   0  0  0  0  0  2  0  0  0  0  0  0
  187.5630  177.1320  147.0430 C   0  0  0  0  0  2  0  0  0  0  0  0
  192.4870  175.2620  137.3910 C   0  0  0  0  0  2  0  0  0  0  0  0
  192.8750  176.5160  136.6370 C   0  0  0  0  0  2  0  0  0  0  0  0
  192.9700  176.2240  135.1490 C   0  0  0  0  0  2  0  0  0  0  0  0
  194.0280  175.1640  134.8640 C   0  0  0  0  0  2  0  0  0  0  0  0
  195.4430  175.6180  135.2180 C   0  0  1  0  0  3  0  0  0  0  0  0
  195.4360  176.9480  135.6410 O   0  0  0  0  0  1  0  0  0  0  0  0
  195.9920  174.7730  136.2780 N   0  0  0  0  0  2  0  0  0  0  0  0
  197.5560  173.6970  134.9220 O   0  0  0  0  0  0  0  0  0  0  0  0
  197.0440  173.8190  136.0690 C   0  0  0  0  0  0  0  0  0  0  0  0
  196.4810  172.7650  138.3390 C   0  0  1  0  0  3  0  0  0  0  0  0
  197.4410  171.4450  136.5770 C   0  0  2  0  0  3  0  0  0  0  0  0
  197.4610  172.8630  137.1710 C   0  0  1  0  0  0  0  0  0  0  0  0
  196.0210  170.9330  136.8050 C   0  0  0  0  0  2  0  0  0  0  0  0
  195.8160  174.3060  138.9560 Cl  0  0  0  0  0  0  0  0  0  0  0  0
  195.4120  171.7720  137.9200 C   0  0  0  0  0  2  0  0  0  0  0  0
  198.8340  173.2760  137.6990 C   0  0  0  0  0  1  0  0  0  0  0  0
  198.4130  170.4840  137.2530 C   0  0  0  0  0  2  0  0  0  0  0  0
  199.1180  169.6280  136.2140 C   0  0  0  0  0  2  0  0  0  0  0  0
  198.7720  170.0710  134.9370 O   0  0  0  0  0  1  0  0  0  0  0  0
  1 16  1  0  0  0  0
  1  6  1  0  0  0  0
  2 12  1  0  0  0  0
  3  6  1  6  0  0  0
  3 11  1  0  0  0  0
  4 15  1  0  0  0  0
  5  8  1  0  0  0  0
  5  7  1  1  0  0  0
  7 12  1  0  0  0  0
  8  2  1  1  0  0  0
  9 46  1  1  0  0  0
  9 13  1  0  0  0  0
 11 10  1  6  0  0  0
 11  8  1  0  0  0  0
 12 35  1  1  0  0  0
 13 14  1  0  0  0  0
 14  3  1  0  0  0  0
 14  5  1  0  0  0  0
 15  9  1  0  0  0  0
 15 13  1  0  0  0  0
 15 14  1  0  0  0  0
 16 10  1  0  0  0  0
 17 18  1  0  0  0  0
 17  1  1  0  0  0  0
 19 18  1  0  0  0  0
 19 20  1  0  0  0  0
 20 22  1  0  0  0  0
 21 22  2  0  0  0  0
 22 23  1  0  0  0  0
 24 20  1  0  0  0  0
 24 30  1  0  0  0  0
 25 29  1  0  0  0  0
 26 31  1  0  0  0  0
 27 26  2  0  0  0  0
 28 25  2  0  0  0  0
 29 31  1  0  0  0  0
 30 25  1  0  0  0  0
 30 27  1  0  0  0  0
 31 34  1  0  0  0  0
 34 32  1  0  0  0  0
 34 33  2  0  0  0  0
 35 36  1  0  0  0  0
 36 37  1  0  0  0  0
 37 39  1  0  0  0  0
 39 40  1  0  0  0  0
 39 38  2  0  0  0  0
 40 42  1  0  0  0  0
 40 43  1  0  0  0  0
 42 45  1  0  0  0  0
 42 43  1  0  0  0  0
 43 41  1  0  0  0  0
 44 42  1  0  0  0  0
 44 45  1  0  0  0  0
 47 46  1  0  0  0  0
 48 47  1  0  0  0  0
 49 48  1  0  0  0  0
 49 50  1  0  0  0  0
 50 51  1  0  0  0  0
 50 52  1  0  0  0  0
 53 54  2  0  0  0  0
 54 52  1  0  0  0  0
 54 57  1  0  0  0  0
 55 59  1  0  0  0  0
 56 58  1  0  0  0  0
 56 57  1  0  0  0  0
 56 62  1  0  0  0  0
 57 61  1  0  0  0  0
 57 55  1  0  0  0  0
 58 60  1  0  0  0  0
 60 55  1  0  0  0  0
 63 62  1  0  0  0  0
 64 63  1  0  0  0  0
M  END
>  <MODEL>
8

>  <REMARK>
 VINA RESULT:      -4.9      4.604      9.824
  Name = 
  21 active torsions:
  status: ('A' for Active; 'I' for Inactive)
    1  A    between atoms: C_1  and  N_27
    2  A    between atoms: C_1  and  C_59
    3  A    between atoms: C_2  and  C_12
    4  A    between atoms: C_2  and  C_22
    5  A    between atoms: C_3  and  N_23
    6  A    between atoms: C_3  and  C_49
    7  A    between atoms: N_4  and  C_49
    8  A    between atoms: C_8  and  C_44
    9  A    between atoms: C_9  and  C_35
   10  A    between atoms: C_9  and  C_54
   11  A    between atoms: N_11  and  C_20
   12  A    between atoms: C_17  and  C_43
   13  A    between atoms: CA_18  and  N_23
   14  A    between atoms: CA_18  and  C_42
   15  A    between atoms: CA_18  and  C_47
   16  A    between atoms: C_20  and  C_21
   17  A    between atoms: C_21  and  C_45
   18  A    between atoms: C_42  and  C_61
   19  A    between atoms: C_51  and  C_54
   20  A    between atoms: C_51  and  C_59
   21  A    between atoms: C_62  and  C_63
                            x       y       z     vdW  Elec       q    Type
                         _______ _______ _______ _____ _____    ______ ____

>  <TORSDO>
F 21

$$$$
=
 OpenBabel11032420013D

 64 72  0  0  1  0  0  0  0  0999 V2000
  192.2670  175.5160  135.9460 N   0  0  0  0  0  0  0  0  0  0  0  0
  189.8650  177.5000  140.1200 C   0  0  0  0  0  2  0  0  0  0  0  0
  190.6460  177.1300  136.8830 C   0  0  2  0  0  3  0  0  0  0  0  0
  189.4040  175.3350  134.5940 C   0  0  0  0  0  1  0  0  0  0  0  0
  188.8530  176.3460  138.3540 C   0  0  2  0  0  3  0  0  0  0  0  0
  191.6060  176.7970  135.7280 C   0  0  0  0  0  2  0  0  0  0  0  0
  187.9290  177.4120  138.7490 N   0  0  0  0  0  2  0  0  0  0  0  0
  190.0770  176.4350  139.1600 N   0  0  1  0  0  0  0  0  0  0  0  0
  187.2290  176.0500  135.5050 C   0  0  1  0  0  3  0  0  0  0  0  0
  192.2520  175.7150  138.3500 C   0  0  0  0  0  2  0  0  0  0  0  0
  191.1960  176.8290  138.2900 C   0  0  1  0  0  3  0  0  0  0  0  0
  188.6490  178.2610  139.6740 C   0  0  1  0  0  3  0  0  0  0  0  0
  188.2700  177.0650  135.9350 C   0  0  1  0  0  3  0  0  0  0  0  0
  189.2790  176.4880  136.9080 C   0  0  1  0  0  0  0  0  0  0  0  0
  188.6210  175.5780  135.8680 C   0  0  2  0  0  0  0  0  0  0  0  0
  193.1280  175.6940  137.1070 C   0  0  0  0  0  2  0  0  0  0  0  0
  193.1130  175.2830  134.7860 C   0  0  0  0  0  2  0  0  0  0  0  0
  193.3890  173.7970  134.6380 C   0  0  0  0  0  2  0  0  0  0  0  0
  192.3490  173.0440  135.3110 N   0  0  0  0  0  2  0  0  0  0  0  0
  192.6000  171.6330  135.0460 C   0  0  2  0  0  3  0  0  0  0  0  0
  190.1150  171.5850  134.8770 O   0  0  0  0  0  1  0  0  0  0  0  0
  191.3100  170.8860  134.9290 C   0  0  0  0  0  0  0  0  0  0  0  0
  191.3050  169.6300  134.8430 O   0  0  0  0  0  0  0  0  0  0  0  0
  193.5190  171.0090  136.1020 C   0  0  0  0  0  2  0  0  0  0  0  0
  195.7450  171.0800  137.2070 C   0  0  0  0  0  0  0  0  0  0  0  0
  196.7780  170.3150  134.6470 C   0  0  0  0  0  3  0  0  0  0  0  0
  195.5550  170.8620  134.7030 C   0  0  0  0  0  3  0  0  0  0  0  0
  195.4450  171.5830  138.2780 O   0  0  0  0  0  0  0  0  0  0  0  0
  196.8790  170.0980  137.1480 C   0  0  0  0  0  2  0  0  0  0  0  0
  194.9720  171.4530  135.9650 C   0  0  1  0  0  3  0  0  0  0  0  0
  197.6800  170.2500  135.8500 C   0  0  2  0  0  3  0  0  0  0  0  0
  199.1720  171.8450  137.1620 N   0  0  0  0  0  1  0  0  0  0  0  0
  198.9600  171.9980  134.8540 O   0  0  0  0  0  0  0  0  0  0  0  0
  198.6170  171.4210  135.9180 C   0  0  0  0  0  0  0  0  0  0  0  0
  187.7820  178.5930  140.8740 C   0  0  0  0  0  2  0  0  0  0  0  0
  188.4210  178.0310  142.1300 C   0  0  0  0  0  2  0  0  0  0  0  0
  187.4180  177.5030  143.0480 N   0  0  0  0  0  2  0  0  0  0  0  0
  186.7610  177.6460  145.2680 O   0  0  0  0  0  0  0  0  0  0  0  0
  187.6510  177.2950  144.4470 C   0  0  0  0  0  0  0  0  0  0  0  0
  188.9890  176.8530  144.9700 C   0  0  1  0  0  3  0  0  0  0  0  0
  190.2250  176.9460  147.0180 C   0  0  0  0  0  1  0  0  0  0  0  0
  190.1030  177.8180  144.5240 C   0  0  0  0  0  0  0  0  0  0  0  0
  189.5190  177.8040  145.9700 C   0  0  1  0  0  3  0  0  0  0  0  0
  191.0640  176.7280  144.0150 C   0  0  0  0  0  2  0  0  0  0  0  0
  191.6180  177.8430  144.8060 C   0  0  0  0  0  2  0  0  0  0  0  0
  186.2430  175.7860  136.6300 C   0  0  0  0  0  2  0  0  0  0  0  0
  185.2870  176.9550  136.7320 C   0  0  0  0  0  2  0  0  0  0  0  0
  184.1120  176.7530  135.7900 C   0  0  0  0  0  2  0  0  0  0  0  0
  183.4990  175.3680  135.9680 C   0  0  0  0  0  2  0  0  0  0  0  0
  182.8360  175.1750  137.3300 C   0  0  1  0  0  3  0  0  0  0  0  0
  183.6220  174.3550  138.1420 O   0  0  0  0  0  1  0  0  0  0  0  0
  182.6450  176.4690  137.9840 N   0  0  0  0  0  2  0  0  0  0  0  0
  181.9390  175.5880  140.0260 O   0  0  0  0  0  0  0  0  0  0  0  0
  182.1820  176.6160  139.3340 C   0  0  0  0  0  0  0  0  0  0  0  0
  183.0300  178.7020  140.5620 C   0  0  1  0  0  3  0  0  0  0  0  0
  181.5040  178.9000  138.7190 C   0  0  2  0  0  3  0  0  0  0  0  0
  181.8530  177.9840  139.9030 C   0  0  1  0  0  0  0  0  0  0  0  0
  182.8310  179.5100  138.2760 C   0  0  0  0  0  2  0  0  0  0  0  0
  184.0660  177.7200  141.6390 Cl  0  0  0  0  0  0  0  0  0  0  0  0
  183.7990  179.3820  139.4440 C   0  0  0  0  0  2  0  0  0  0  0  0
  180.7170  177.8460  140.9150 C   0  0  0  0  0  1  0  0  0  0  0  0
  180.5500  180.0330  139.0820 C   0  0  0  0  0  2  0  0  0  0  0  0
  180.6020  181.1250  138.0260 C   0  0  0  0  0  2  0  0  0  0  0  0
  179.6810  180.8390  137.0190 O   0  0  0  0  0  1  0  0  0  0  0  0
  1 16  1  0  0  0  0
  3  6  1  6  0  0  0
  3 14  1  0  0  0  0
  3 11  1  0  0  0  0
  4 15  1  0  0  0  0
  5  7  1  1  0  0  0
  5  8  1  0  0  0  0
  6  1  1  0  0  0  0
  7 12  1  0  0  0  0
  8  2  1  1  0  0  0
  9 15  1  0  0  0  0
  9 13  1  0  0  0  0
  9 46  1  1  0  0  0
 11 10  1  6  0  0  0
 11  8  1  0  0  0  0
 12  2  1  0  0  0  0
 12 35  1  1  0  0  0
 13 14  1  0  0  0  0
 14  5  1  0  0  0  0
 15 13  1  0  0  0  0
 15 14  1  0  0  0  0
 16 10  1  0  0  0  0
 17  1  1  0  0  0  0
 18 17  1  0  0  0  0
 18 19  1  0  0  0  0
 20 19  1  0  0  0  0
 20 24  1  0  0  0  0
 21 22  1  0  0  0  0
 22 20  1  0  0  0  0
 23 22  2  0  0  0  0
 25 28  2  0  0  0  0
 26 27  2  0  0  0  0
 26 31  1  0  0  0  0
 27 30  1  0  0  0  0
 29 25  1  0  0  0  0
 30 24  1  0  0  0  0
 30 25  1  0  0  0  0
 31 34  1  0  0  0  0
 31 29  1  0  0  0  0
 33 34  2  0  0  0  0
 34 32  1  0  0  0  0
 35 36  1  0  0  0  0
 36 37  1  0  0  0  0
 37 39  1  0  0  0  0
 39 40  1  0  0  0  0
 39 38  2  0  0  0  0
 40 43  1  0  0  0  0
 42 45  1  0  0  0  0
 42 40  1  0  0  0  0
 42 43  1  0  0  0  0
 43 41  1  0  0  0  0
 44 42  1  0  0  0  0
 44 45  1  0  0  0  0
 46 47  1  0  0  0  0
 48 49  1  0  0  0  0
 48 47  1  0  0  0  0
 49 50  1  0  0  0  0
 50 52  1  0  0  0  0
 50 51  1  0  0  0  0
 52 54  1  0  0  0  0
 54 57  1  0  0  0  0
 54 53  2  0  0  0  0
 55 59  1  0  0  0  0
 56 62  1  0  0  0  0
 56 57  1  0  0  0  0
 57 55  1  0  0  0  0
 57 61  1  0  0  0  0
 58 56  1  0  0  0  0
 58 60  1  0  0  0  0
 60 55  1  0  0  0  0
 63 62  1  0  0  0  0
 64 63  1  0  0  0  0
M  END
>  <MODEL>
9

>  <REMARK>
 VINA RESULT:      -4.7      4.148      7.114
  Name = 
  21 active torsions:
  status: ('A' for Active; 'I' for Inactive)
    1  A    between atoms: C_1  and  N_27
    2  A    between atoms: C_1  and  C_59
    3  A    between atoms: C_2  and  C_12
    4  A    between atoms: C_2  and  C_22
    5  A    between atoms: C_3  and  N_23
    6  A    between atoms: C_3  and  C_49
    7  A    between atoms: N_4  and  C_49
    8  A    between atoms: C_8  and  C_44
    9  A    between atoms: C_9  and  C_35
   10  A    between atoms: C_9  and  C_54
   11  A    between atoms: N_11  and  C_20
   12  A    between atoms: C_17  and  C_43
   13  A    between atoms: CA_18  and  N_23
   14  A    between atoms: CA_18  and  C_42
   15  A    between atoms: CA_18  and  C_47
   16  A    between atoms: C_20  and  C_21
   17  A    between atoms: C_21  and  C_45
   18  A    between atoms: C_42  and  C_61
   19  A    between atoms: C_51  and  C_54
   20  A    between atoms: C_51  and  C_59
   21  A    between atoms: C_62  and  C_63
                            x       y       z     vdW  Elec       q    Type
                         _______ _______ _______ _____ _____    ______ ____

>  <TORSDO>
F 21

$$$$
