=
 OpenBabel11032419213D

 25 27  0  0  1  0  0  0  0  0999 V2000
  183.3490  178.7410  140.4210 C   0  0  1  0  0  3  0  0  0  0  0  0
  184.1630  179.5430  139.2650 S   0  0  0  0  0  0  0  0  0  0  0  0
  181.4680  177.1270  139.8430 C   0  0  0  0  0  0  0  0  0  0  0  0
  182.3870  176.0430  139.7040 N   0  0  0  0  0  1  0  0  0  0  0  0
  181.9120  178.4170  140.2200 C   0  0  0  0  0  0  0  0  0  0  0  0
  180.9550  179.4270  140.3980 C   0  0  0  0  0  3  0  0  0  0  0  0
  179.2060  177.9130  139.8290 N   0  0  0  0  0  0  0  0  0  0  0  0
  180.0950  176.9010  139.6500 C   0  0  0  0  0  0  0  0  0  0  0  0
  179.6020  179.1570  140.1980 C   0  0  0  0  0  3  0  0  0  0  0  0
  179.5860  175.5560  139.2570 C   0  0  0  0  0  1  0  0  0  0  0  0
  183.1460  178.2110  142.8790 C   0  0  0  0  0  2  0  0  0  0  0  0
  186.3670  178.2530  142.7730 C   0  0  0  0  0  2  0  0  0  0  0  0
  183.2170  179.4170  143.5880 O   0  0  0  0  0  0  0  0  0  0  0  0
  185.3740  179.0020  141.8820 C   0  0  0  0  0  2  0  0  0  0  0  0
  185.2530  179.1750  144.8650 C   0  0  0  0  0  2  0  0  0  0  0  0
  184.0640  178.2440  141.6500 C   0  0  2  0  0  3  0  0  0  0  0  0
  185.8540  177.9520  144.1810 C   0  0  0  0  0  2  0  0  0  0  0  0
  183.7290  179.0810  144.8470 C   0  0  0  0  0  2  0  0  0  0  0  0
  187.3160  178.6110  139.0560 O   0  0  0  0  0  0  0  0  0  0  0  0
  185.0280  178.2910  138.3510 C   0  0  0  0  0  0  0  0  0  0  0  0
  186.4400  178.0130  138.3770 C   0  0  0  0  0  0  0  0  0  0  0  0
  186.7030  176.9440  137.4870 N   0  0  0  0  0  0  0  0  0  0  0  0
  184.4620  177.4850  137.5180 N   0  0  0  0  0  0  0  0  0  0  0  0
  185.3060  175.5880  136.0150 C   0  0  0  0  0  1  0  0  0  0  0  0
  185.5270  176.6690  137.0110 C   0  0  0  0  0  0  0  0  0  0  0  0
  1  2  1  6  0  0  0
  3  5  1  0  0  0  0
  4  3  1  0  0  0  0
  5  6  2  0  0  0  0
  5  1  1  0  0  0  0
  7  9  2  0  0  0  0
  8  7  1  0  0  0  0
  8  3  2  0  0  0  0
  9  6  1  0  0  0  0
 10  8  1  0  0  0  0
 11 13  1  0  0  0  0
 12 17  1  0  0  0  0
 13 18  1  0  0  0  0
 14 12  1  0  0  0  0
 16  1  1  6  0  0  0
 16 14  1  0  0  0  0
 16 11  1  0  0  0  0
 17 15  1  0  0  0  0
 18 15  1  0  0  0  0
 20 21  1  0  0  0  0
 20  2  1  0  0  0  0
 21 19  2  0  0  0  0
 22 21  1  0  0  0  0
 23 20  2  0  0  0  0
 24 25  1  0  0  0  0
 25 22  2  0  0  0  0
 25 23  1  0  0  0  0
M  END
>  <MODEL>
1

>  <REMARK>
 VINA RESULT:      -6.2      0.000      0.000
  Name = 
  3 active torsions:
  status: ('A' for Active; 'I' for Inactive)
    1  A    between atoms: C_6  and  S_20
    2  A    between atoms: C_7  and  C_19
    3  A    between atoms: C_16  and  C_19
                            x       y       z     vdW  Elec       q    Type
                         _______ _______ _______ _____ _____    ______ ____

>  <TORSDO>
F 3

$$$$
=
 OpenBabel11032419213D

 25 27  0  0  1  0  0  0  0  0999 V2000
  188.5900  177.4680  137.6560 C   0  0  1  0  0  3  0  0  0  0  0  0
  189.1030  178.6360  138.6630 S   0  0  0  0  0  0  0  0  0  0  0  0
  190.2860  175.6490  137.1180 C   0  0  0  0  0  0  0  0  0  0  0  0
  190.0690  175.0180  138.3800 N   0  0  0  0  0  1  0  0  0  0  0  0
  189.5590  176.8040  136.7440 C   0  0  0  0  0  0  0  0  0  0  0  0
  189.7730  177.3440  135.4680 C   0  0  0  0  0  3  0  0  0  0  0  0
  191.3780  175.6510  134.9860 N   0  0  0  0  0  0  0  0  0  0  0  0
  191.2010  175.0880  136.2100 C   0  0  0  0  0  0  0  0  0  0  0  0
  190.6890  176.7540  134.5980 C   0  0  0  0  0  3  0  0  0  0  0  0
  191.9840  173.8700  136.5630 C   0  0  0  0  0  1  0  0  0  0  0  0
  186.8620  175.9480  136.6240 C   0  0  0  0  0  2  0  0  0  0  0  0
  184.7950  177.8030  138.2600 C   0  0  0  0  0  2  0  0  0  0  0  0
  186.3890  176.5610  135.4550 O   0  0  0  0  0  0  0  0  0  0  0  0
  186.1790  178.1660  137.7180 C   0  0  0  0  0  2  0  0  0  0  0  0
  184.0660  176.9790  135.9670 C   0  0  0  0  0  2  0  0  0  0  0  0
  187.1620  176.9920  137.7070 C   0  0  2  0  0  3  0  0  0  0  0  0
  184.0700  176.7140  137.4680 C   0  0  0  0  0  2  0  0  0  0  0  0
  185.0870  176.0770  135.2790 C   0  0  0  0  0  2  0  0  0  0  0  0
  191.7390  177.4990  140.2790 O   0  0  0  0  0  0  0  0  0  0  0  0
  189.3460  177.8300  140.2250 C   0  0  0  0  0  0  0  0  0  0  0  0
  190.5950  177.3900  140.7920 C   0  0  0  0  0  0  0  0  0  0  0  0
  190.3290  176.7840  142.0440 N   0  0  0  0  0  0  0  0  0  0  0  0
  188.3910  177.5210  141.0340 N   0  0  0  0  0  0  0  0  0  0  0  0
  188.2910  176.3700  143.3230 C   0  0  0  0  0  1  0  0  0  0  0  0
  189.0390  176.8830  142.1450 C   0  0  0  0  0  0  0  0  0  0  0  0
  1  2  1  1  0  0  0
  2 20  1  0  0  0  0
  3  4  1  0  0  0  0
  5  3  1  0  0  0  0
  5  1  1  0  0  0  0
  6  5  2  0  0  0  0
  7  8  1  0  0  0  0
  8 10  1  0  0  0  0
  8  3  2  0  0  0  0
  9  7  2  0  0  0  0
  9  6  1  0  0  0  0
 11 16  1  0  0  0  0
 13 11  1  0  0  0  0
 14 12  1  0  0  0  0
 15 17  1  0  0  0  0
 16  1  1  6  0  0  0
 16 14  1  0  0  0  0
 17 12  1  0  0  0  0
 18 13  1  0  0  0  0
 18 15  1  0  0  0  0
 19 21  2  0  0  0  0
 20 21  1  0  0  0  0
 20 23  2  0  0  0  0
 21 22  1  0  0  0  0
 22 25  2  0  0  0  0
 23 25  1  0  0  0  0
 25 24  1  0  0  0  0
M  END
>  <MODEL>
2

>  <REMARK>
 VINA RESULT:      -5.3      4.699      8.271
  Name = 
  3 active torsions:
  status: ('A' for Active; 'I' for Inactive)
    1  A    between atoms: C_6  and  S_20
    2  A    between atoms: C_7  and  C_19
    3  A    between atoms: C_16  and  C_19
                            x       y       z     vdW  Elec       q    Type
                         _______ _______ _______ _____ _____    ______ ____

>  <TORSDO>
F 3

$$$$
=
 OpenBabel11032419213D

 25 27  0  0  1  0  0  0  0  0999 V2000
  189.7260  177.3820  138.7520 C   0  0  1  0  0  3  0  0  0  0  0  0
  189.2100  178.6330  137.8520 S   0  0  0  0  0  0  0  0  0  0  0  0
  190.7710  177.4670  141.0710 C   0  0  0  0  0  0  0  0  0  0  0  0
  192.0880  177.4870  140.5200 N   0  0  0  0  0  1  0  0  0  0  0  0
  189.6300  177.4520  140.2350 C   0  0  0  0  0  0  0  0  0  0  0  0
  188.3620  177.4940  140.8340 C   0  0  0  0  0  3  0  0  0  0  0  0
  189.3530  177.5460  143.0000 N   0  0  0  0  0  0  0  0  0  0  0  0
  190.6020  177.5120  142.4660 C   0  0  0  0  0  0  0  0  0  0  0  0
  188.2410  177.5400  142.2220 C   0  0  0  0  0  3  0  0  0  0  0  0
  191.7780  177.5330  143.3810 C   0  0  0  0  0  1  0  0  0  0  0  0
  191.3910  176.3810  137.1440 C   0  0  0  0  0  2  0  0  0  0  0  0
  189.3770  173.8660  137.2080 C   0  0  0  0  0  2  0  0  0  0  0  0
  190.9380  176.6300  135.8410 O   0  0  0  0  0  0  0  0  0  0  0  0
  189.0640  175.3440  137.4460 C   0  0  0  0  0  2  0  0  0  0  0  0
  190.4950  174.4130  134.9900 C   0  0  0  0  0  2  0  0  0  0  0  0
  190.2150  176.1200  138.0930 C   0  0  2  0  0  3  0  0  0  0  0  0
  190.5680  173.6100  136.2840 C   0  0  0  0  0  2  0  0  0  0  0  0
  191.4610  175.5930  135.0580 C   0  0  0  0  0  2  0  0  0  0  0  0
  187.8890  177.7200  134.9750 O   0  0  0  0  0  0  0  0  0  0  0  0
  187.5760  178.1830  137.3260 C   0  0  0  0  0  0  0  0  0  0  0  0
  187.1620  177.8020  136.0000 C   0  0  0  0  0  0  0  0  0  0  0  0
  185.7710  177.5410  136.0220 N   0  0  0  0  0  0  0  0  0  0  0  0
  186.5450  178.1750  138.1000 N   0  0  0  0  0  0  0  0  0  0  0  0
  184.0640  177.6210  137.7660 C   0  0  0  0  0  1  0  0  0  0  0  0
  185.4540  177.7690  137.2610 C   0  0  0  0  0  0  0  0  0  0  0  0
  1  2  1  6  0  0  0
  1  5  1  0  0  0  0
  3  8  1  0  0  0  0
  4  3  1  0  0  0  0
  5  6  1  0  0  0  0
  5  3  2  0  0  0  0
  6  9  2  0  0  0  0
  8  7  2  0  0  0  0
  8 10  1  0  0  0  0
  9  7  1  0  0  0  0
 11 16  1  0  0  0  0
 12 14  1  0  0  0  0
 13 11  1  0  0  0  0
 14 16  1  0  0  0  0
 15 18  1  0  0  0  0
 15 17  1  0  0  0  0
 16  1  1  6  0  0  0
 17 12  1  0  0  0  0
 18 13  1  0  0  0  0
 19 21  2  0  0  0  0
 20  2  1  0  0  0  0
 20 23  2  0  0  0  0
 21 22  1  0  0  0  0
 21 20  1  0  0  0  0
 22 25  2  0  0  0  0
 25 24  1  0  0  0  0
 25 23  1  0  0  0  0
M  END
>  <MODEL>
3

>  <REMARK>
 VINA RESULT:      -5.3      4.402      8.300
  Name = 
  3 active torsions:
  status: ('A' for Active; 'I' for Inactive)
    1  A    between atoms: C_6  and  S_20
    2  A    between atoms: C_7  and  C_19
    3  A    between atoms: C_16  and  C_19
                            x       y       z     vdW  Elec       q    Type
                         _______ _______ _______ _____ _____    ______ ____

>  <TORSDO>
F 3

$$$$
=
 OpenBabel11032419213D

 25 27  0  0  1  0  0  0  0  0999 V2000
  188.2400  177.2300  143.9940 C   0  0  1  0  0  3  0  0  0  0  0  0
  186.8500  176.4290  144.2580 S   0  0  0  0  0  0  0  0  0  0  0  0
  189.6090  176.7860  141.8950 C   0  0  0  0  0  0  0  0  0  0  0  0
  190.1800  175.6090  142.4690 N   0  0  0  0  0  1  0  0  0  0  0  0
  188.6520  177.5520  142.6020 C   0  0  0  0  0  0  0  0  0  0  0  0
  188.0830  178.6640  141.9630 C   0  0  0  0  0  3  0  0  0  0  0  0
  189.3910  178.2520  140.0140 N   0  0  0  0  0  0  0  0  0  0  0  0
  189.9660  177.1640  140.5890 C   0  0  0  0  0  0  0  0  0  0  0  0
  188.4650  179.0010  140.6660 C   0  0  0  0  0  3  0  0  0  0  0  0
  190.9660  176.3810  139.8100 C   0  0  0  0  0  1  0  0  0  0  0  0
  190.5690  177.6310  144.8750 C   0  0  0  0  0  2  0  0  0  0  0  0
  189.0560  177.8540  147.7110 C   0  0  0  0  0  2  0  0  0  0  0  0
  191.0820  176.4030  145.3170 O   0  0  0  0  0  0  0  0  0  0  0  0
  188.6380  177.0690  146.4680 C   0  0  0  0  0  2  0  0  0  0  0  0
  191.3480  176.7530  147.6920 C   0  0  0  0  0  2  0  0  0  0  0  0
  189.0640  177.7280  145.1530 C   0  0  2  0  0  3  0  0  0  0  0  0
  190.5650  178.0490  147.8610 C   0  0  0  0  0  2  0  0  0  0  0  0
  192.0090  176.7230  146.3160 C   0  0  0  0  0  2  0  0  0  0  0  0
  185.9050  177.8780  147.0610 O   0  0  0  0  0  0  0  0  0  0  0  0
  185.6620  177.6820  144.6650 C   0  0  0  0  0  0  0  0  0  0  0  0
  185.3680  178.2110  145.9720 C   0  0  0  0  0  0  0  0  0  0  0  0
  184.3450  179.1800  145.8430 N   0  0  0  0  0  0  0  0  0  0  0  0
  184.8900  178.2530  143.8040 N   0  0  0  0  0  0  0  0  0  0  0  0
  183.0700  180.0510  143.9530 C   0  0  0  0  0  1  0  0  0  0  0  0
  184.0980  179.1730  144.5690 C   0  0  0  0  0  0  0  0  0  0  0  0
  1  2  1  1  0  0  0
  2 20  1  0  0  0  0
  3  4  1  0  0  0  0
  3  5  1  0  0  0  0
  5  1  1  0  0  0  0
  6  5  2  0  0  0  0
  7  8  1  0  0  0  0
  7  9  2  0  0  0  0
  8  3  2  0  0  0  0
  9  6  1  0  0  0  0
 10  8  1  0  0  0  0
 11 16  1  0  0  0  0
 11 13  1  0  0  0  0
 12 17  1  0  0  0  0
 13 18  1  0  0  0  0
 14 12  1  0  0  0  0
 15 17  1  0  0  0  0
 16  1  1  6  0  0  0
 16 14  1  0  0  0  0
 18 15  1  0  0  0  0
 20 21  1  0  0  0  0
 21 19  2  0  0  0  0
 22 21  1  0  0  0  0
 23 25  1  0  0  0  0
 23 20  2  0  0  0  0
 24 25  1  0  0  0  0
 25 22  2  0  0  0  0
M  END
>  <MODEL>
4

>  <REMARK>
 VINA RESULT:      -5.2      4.760      7.946
  Name = 
  3 active torsions:
  status: ('A' for Active; 'I' for Inactive)
    1  A    between atoms: C_6  and  S_20
    2  A    between atoms: C_7  and  C_19
    3  A    between atoms: C_16  and  C_19
                            x       y       z     vdW  Elec       q    Type
                         _______ _______ _______ _____ _____    ______ ____

>  <TORSDO>
F 3

$$$$
=
 OpenBabel11032419213D

 25 27  0  0  1  0  0  0  0  0999 V2000
  181.8050  177.8550  139.2350 C   0  0  1  0  0  3  0  0  0  0  0  0
  183.4180  177.6990  139.3670 S   0  0  0  0  0  0  0  0  0  0  0  0
  180.8300  175.5830  138.6320 C   0  0  0  0  0  0  0  0  0  0  0  0
  181.6360  175.5050  137.4560 N   0  0  0  0  0  1  0  0  0  0  0  0
  180.9260  176.6870  139.5110 C   0  0  0  0  0  0  0  0  0  0  0  0
  180.1530  176.6800  140.6810 C   0  0  0  0  0  3  0  0  0  0  0  0
  179.2270  174.5650  140.0920 N   0  0  0  0  0  0  0  0  0  0  0  0
  179.9610  174.5250  138.9490 C   0  0  0  0  0  0  0  0  0  0  0  0
  179.3060  175.6070  140.9570 C   0  0  0  0  0  3  0  0  0  0  0  0
  179.8340  173.3410  138.0520 C   0  0  0  0  0  1  0  0  0  0  0  0
  179.9230  179.0680  138.0740 C   0  0  0  0  0  2  0  0  0  0  0  0
  181.8300  181.6360  138.4710 C   0  0  0  0  0  2  0  0  0  0  0  0
  180.2270  179.1320  136.7070 O   0  0  0  0  0  0  0  0  0  0  0  0
  182.2270  180.1640  138.3430 C   0  0  0  0  0  2  0  0  0  0  0  0
  180.4780  181.5030  136.3210 C   0  0  0  0  0  2  0  0  0  0  0  0
  181.1930  179.1960  138.9250 C   0  0  2  0  0  3  0  0  0  0  0  0
  180.5280  182.0050  137.7590 C   0  0  0  0  0  2  0  0  0  0  0  0
  179.5740  180.2770  136.2320 C   0  0  0  0  0  2  0  0  0  0  0  0
  186.0300  179.2500  140.6410 O   0  0  0  0  0  0  0  0  0  0  0  0
  183.8170  178.3400  140.9730 C   0  0  0  0  0  0  0  0  0  0  0  0
  185.0310  179.0050  141.3680 C   0  0  0  0  0  0  0  0  0  0  0  0
  184.9350  179.3350  142.7400 N   0  0  0  0  0  0  0  0  0  0  0  0
  183.0400  178.2510  141.9990 N   0  0  0  0  0  0  0  0  0  0  0  0
  183.2170  179.0030  144.4430 C   0  0  0  0  0  1  0  0  0  0  0  0
  183.7630  178.8810  143.0660 C   0  0  0  0  0  0  0  0  0  0  0  0
  1  2  1  1  0  0  0
  1  5  1  0  0  0  0
  2 20  1  0  0  0  0
  3  8  2  0  0  0  0
  3  5  1  0  0  0  0
  4  3  1  0  0  0  0
  5  6  2  0  0  0  0
  6  9  1  0  0  0  0
  7  9  2  0  0  0  0
  8  7  1  0  0  0  0
 10  8  1  0  0  0  0
 11 16  1  0  0  0  0
 13 11  1  0  0  0  0
 14 12  1  0  0  0  0
 14 16  1  0  0  0  0
 15 17  1  0  0  0  0
 16  1  1  6  0  0  0
 17 12  1  0  0  0  0
 18 15  1  0  0  0  0
 18 13  1  0  0  0  0
 19 21  2  0  0  0  0
 20 21  1  0  0  0  0
 20 23  2  0  0  0  0
 21 22  1  0  0  0  0
 22 25  2  0  0  0  0
 23 25  1  0  0  0  0
 25 24  1  0  0  0  0
M  END
>  <MODEL>
5

>  <REMARK>
 VINA RESULT:      -5.1      2.905      5.462
  Name = 
  3 active torsions:
  status: ('A' for Active; 'I' for Inactive)
    1  A    between atoms: C_6  and  S_20
    2  A    between atoms: C_7  and  C_19
    3  A    between atoms: C_16  and  C_19
                            x       y       z     vdW  Elec       q    Type
                         _______ _______ _______ _____ _____    ______ ____

>  <TORSDO>
F 3

$$$$
=
 OpenBabel11032419213D

 25 27  0  0  1  0  0  0  0  0999 V2000
  190.3850  176.0860  137.2570 C   0  0  1  0  0  3  0  0  0  0  0  0
  189.7300  177.5590  137.4650 S   0  0  0  0  0  0  0  0  0  0  0  0
  192.5510  175.9990  135.9230 C   0  0  0  0  0  0  0  0  0  0  0  0
  191.8570  176.2680  134.7040 N   0  0  0  0  0  1  0  0  0  0  0  0
  191.8630  175.9430  137.1580 C   0  0  0  0  0  0  0  0  0  0  0  0
  192.6060  175.7340  138.3290 C   0  0  0  0  0  3  0  0  0  0  0  0
  194.6230  175.6280  137.0650 N   0  0  0  0  0  0  0  0  0  0  0  0
  193.9460  175.8330  135.9050 C   0  0  0  0  0  0  0  0  0  0  0  0
  193.9900  175.5780  138.2640 C   0  0  0  0  0  3  0  0  0  0  0  0
  194.7090  175.8890  134.6260 C   0  0  0  0  0  1  0  0  0  0  0  0
  190.2630  173.6160  136.7580 C   0  0  0  0  0  2  0  0  0  0  0  0
  187.0840  174.1230  136.9050 C   0  0  0  0  0  2  0  0  0  0  0  0
  190.1110  173.4620  135.3730 O   0  0  0  0  0  0  0  0  0  0  0  0
  188.1900  175.1100  136.5280 C   0  0  0  0  0  2  0  0  0  0  0  0
  187.9250  172.4540  135.1800 C   0  0  0  0  0  2  0  0  0  0  0  0
  189.5130  174.8580  137.2570 C   0  0  2  0  0  3  0  0  0  0  0  0
  187.4080  172.6610  136.5990 C   0  0  0  0  0  2  0  0  0  0  0  0
  189.4370  172.2460  135.2040 C   0  0  0  0  0  2  0  0  0  0  0  0
  187.1940  178.6330  139.2730 O   0  0  0  0  0  0  0  0  0  0  0  0
  189.4160  177.6870  139.2070 C   0  0  0  0  0  0  0  0  0  0  0  0
  188.2270  178.1910  139.8420 C   0  0  0  0  0  0  0  0  0  0  0  0
  188.4060  178.1270  141.2450 N   0  0  0  0  0  0  0  0  0  0  0  0
  190.2630  177.3510  140.1190 N   0  0  0  0  0  0  0  0  0  0  0  0
  190.2320  177.3800  142.6820 C   0  0  0  0  0  1  0  0  0  0  0  0
  189.6010  177.6320  141.3610 C   0  0  0  0  0  0  0  0  0  0  0  0
  1  2  1  1  0  0  0
  2 20  1  0  0  0  0
  3  5  1  0  0  0  0
  4  3  1  0  0  0  0
  5  1  1  0  0  0  0
  5  6  2  0  0  0  0
  7  9  2  0  0  0  0
  8  3  2  0  0  0  0
  8  7  1  0  0  0  0
  9  6  1  0  0  0  0
 10  8  1  0  0  0  0
 11 16  1  0  0  0  0
 13 11  1  0  0  0  0
 14 12  1  0  0  0  0
 14 16  1  0  0  0  0
 15 18  1  0  0  0  0
 15 17  1  0  0  0  0
 16  1  1  6  0  0  0
 17 12  1  0  0  0  0
 18 13  1  0  0  0  0
 19 21  2  0  0  0  0
 20 21  1  0  0  0  0
 20 23  2  0  0  0  0
 21 22  1  0  0  0  0
 22 25  2  0  0  0  0
 23 25  1  0  0  0  0
 25 24  1  0  0  0  0
M  END
>  <MODEL>
6

>  <REMARK>
 VINA RESULT:      -5.1      5.778     10.162
  Name = 
  3 active torsions:
  status: ('A' for Active; 'I' for Inactive)
    1  A    between atoms: C_6  and  S_20
    2  A    between atoms: C_7  and  C_19
    3  A    between atoms: C_16  and  C_19
                            x       y       z     vdW  Elec       q    Type
                         _______ _______ _______ _____ _____    ______ ____

>  <TORSDO>
F 3

$$$$
=
 OpenBabel11032419213D

 25 27  0  0  1  0  0  0  0  0999 V2000
  185.1660  178.6370  142.5120 C   0  0  1  0  0  3  0  0  0  0  0  0
  186.1880  179.6830  141.8020 S   0  0  0  0  0  0  0  0  0  0  0  0
  182.6390  178.8740  142.3270 C   0  0  0  0  0  0  0  0  0  0  0  0
  182.6090  179.8140  143.4010 N   0  0  0  0  0  1  0  0  0  0  0  0
  183.8610  178.3290  141.8680 C   0  0  0  0  0  0  0  0  0  0  0  0
  183.8330  177.4560  140.7700 C   0  0  0  0  0  3  0  0  0  0  0  0
  181.4640  177.6660  140.6250 N   0  0  0  0  0  0  0  0  0  0  0  0
  181.4420  178.5200  141.6820 C   0  0  0  0  0  0  0  0  0  0  0  0
  182.6220  177.1340  140.1590 C   0  0  0  0  0  3  0  0  0  0  0  0
  180.1340  179.0750  142.1310 C   0  0  0  0  0  1  0  0  0  0  0  0
  184.6380  178.2220  144.9430 C   0  0  0  0  0  2  0  0  0  0  0  0
  187.6430  177.0600  145.0120 C   0  0  0  0  0  2  0  0  0  0  0  0
  185.1100  179.3150  145.6810 O   0  0  0  0  0  0  0  0  0  0  0  0
  187.0540  178.1250  144.0860 C   0  0  0  0  0  2  0  0  0  0  0  0
  186.8320  178.3310  147.0600 C   0  0  0  0  0  2  0  0  0  0  0  0
  185.5710  177.9100  143.7670 C   0  0  2  0  0  3  0  0  0  0  0  0
  186.9730  176.9720  146.3840 C   0  0  0  0  0  2  0  0  0  0  0  0
  185.3870  178.8120  146.9590 C   0  0  0  0  0  2  0  0  0  0  0  0
  186.3690  178.5000  138.7330 O   0  0  0  0  0  0  0  0  0  0  0  0
  187.3570  178.6730  140.9310 C   0  0  0  0  0  0  0  0  0  0  0  0
  187.2820  178.2380  139.5600 C   0  0  0  0  0  0  0  0  0  0  0  0
  188.4150  177.4380  139.2810 N   0  0  0  0  0  0  0  0  0  0  0  0
  188.4250  178.1830  141.4630 N   0  0  0  0  0  0  0  0  0  0  0  0
  190.3320  176.7020  140.6020 C   0  0  0  0  0  1  0  0  0  0  0  0
  189.0520  177.4330  140.4120 C   0  0  0  0  0  0  0  0  0  0  0  0
  1  2  1  6  0  0  0
  3  4  1  0  0  0  0
  5  3  1  0  0  0  0
  5  1  1  0  0  0  0
  6  5  2  0  0  0  0
  7  8  1  0  0  0  0
  8 10  1  0  0  0  0
  8  3  2  0  0  0  0
  9  7  2  0  0  0  0
  9  6  1  0  0  0  0
 11 13  1  0  0  0  0
 12 17  1  0  0  0  0
 13 18  1  0  0  0  0
 14 12  1  0  0  0  0
 16  1  1  6  0  0  0
 16 14  1  0  0  0  0
 16 11  1  0  0  0  0
 17 15  1  0  0  0  0
 18 15  1  0  0  0  0
 19 21  2  0  0  0  0
 20 23  2  0  0  0  0
 20  2  1  0  0  0  0
 21 20  1  0  0  0  0
 22 21  1  0  0  0  0
 22 25  2  0  0  0  0
 25 24  1  0  0  0  0
 25 23  1  0  0  0  0
M  END
>  <MODEL>
7

>  <REMARK>
 VINA RESULT:      -5.0      2.501      3.521
  Name = 
  3 active torsions:
  status: ('A' for Active; 'I' for Inactive)
    1  A    between atoms: C_6  and  S_20
    2  A    between atoms: C_7  and  C_19
    3  A    between atoms: C_16  and  C_19
                            x       y       z     vdW  Elec       q    Type
                         _______ _______ _______ _____ _____    ______ ____

>  <TORSDO>
F 3

$$$$
=
 OpenBabel11032419213D

 25 27  0  0  1  0  0  0  0  0999 V2000
  182.6560  178.2790  140.1240 C   0  0  1  0  0  3  0  0  0  0  0  0
  182.6490  176.8130  139.4210 S   0  0  0  0  0  0  0  0  0  0  0  0
  183.0920  178.6790  142.5990 C   0  0  0  0  0  0  0  0  0  0  0  0
  181.7110  178.5000  142.9120 N   0  0  0  0  0  1  0  0  0  0  0  0
  183.5640  178.5420  141.2720 C   0  0  0  0  0  0  0  0  0  0  0  0
  184.9400  178.6710  141.0360 C   0  0  0  0  0  3  0  0  0  0  0  0
  185.3320  179.0710  143.3510 N   0  0  0  0  0  0  0  0  0  0  0  0
  184.0080  178.9500  143.6300 C   0  0  0  0  0  0  0  0  0  0  0  0
  185.8130  178.9370  142.0890 C   0  0  0  0  0  3  0  0  0  0  0  0
  183.5520  179.0970  145.0420 C   0  0  0  0  0  1  0  0  0  0  0  0
  180.5340  178.8790  138.8980 C   0  0  0  0  0  2  0  0  0  0  0  0
  182.0230  181.7050  138.4710 C   0  0  0  0  0  2  0  0  0  0  0  0
  180.7400  178.6360  137.5340 O   0  0  0  0  0  0  0  0  0  0  0  0
  182.6430  180.3210  138.6630 C   0  0  0  0  0  2  0  0  0  0  0  0
  180.5800  180.8410  136.5620 C   0  0  0  0  0  2  0  0  0  0  0  0
  181.8170  179.3960  139.5620 C   0  0  2  0  0  3  0  0  0  0  0  0
  180.6370  181.6940  137.8240 C   0  0  0  0  0  2  0  0  0  0  0  0
  179.8830  179.5180  136.8630 C   0  0  0  0  0  2  0  0  0  0  0  0
  182.3450  175.9820  136.2480 O   0  0  0  0  0  0  0  0  0  0  0  0
  183.6880  176.9780  137.9920 C   0  0  0  0  0  0  0  0  0  0  0  0
  183.3940  176.5510  136.6480 C   0  0  0  0  0  0  0  0  0  0  0  0
  184.5040  176.8630  135.8270 N   0  0  0  0  0  0  0  0  0  0  0  0
  184.8690  177.4970  138.0140 N   0  0  0  0  0  0  0  0  0  0  0  0
  186.6700  177.9100  136.2380 C   0  0  0  0  0  1  0  0  0  0  0  0
  185.3350  177.4110  136.6590 C   0  0  0  0  0  0  0  0  0  0  0  0
  1  2  1  6  0  0  0
  1  5  1  0  0  0  0
  3  4  1  0  0  0  0
  3  8  1  0  0  0  0
  5  3  2  0  0  0  0
  6  5  1  0  0  0  0
  6  9  2  0  0  0  0
  7  8  2  0  0  0  0
  8 10  1  0  0  0  0
  9  7  1  0  0  0  0
 11 16  1  0  0  0  0
 12 14  1  0  0  0  0
 13 11  1  0  0  0  0
 14 16  1  0  0  0  0
 15 18  1  0  0  0  0
 15 17  1  0  0  0  0
 16  1  1  6  0  0  0
 17 12  1  0  0  0  0
 18 13  1  0  0  0  0
 19 21  2  0  0  0  0
 20 23  2  0  0  0  0
 20  2  1  0  0  0  0
 21 20  1  0  0  0  0
 22 21  1  0  0  0  0
 22 25  2  0  0  0  0
 24 25  1  0  0  0  0
 25 23  1  0  0  0  0
M  END
>  <MODEL>
8

>  <REMARK>
 VINA RESULT:      -5.0      2.970      5.385
  Name = 
  3 active torsions:
  status: ('A' for Active; 'I' for Inactive)
    1  A    between atoms: C_6  and  S_20
    2  A    between atoms: C_7  and  C_19
    3  A    between atoms: C_16  and  C_19
                            x       y       z     vdW  Elec       q    Type
                         _______ _______ _______ _____ _____    ______ ____

>  <TORSDO>
F 3

$$$$
=
 OpenBabel11032419213D

 25 27  0  0  1  0  0  0  0  0999 V2000
  187.9930  176.4450  137.3280 C   0  0  1  0  0  3  0  0  0  0  0  0
  187.2180  177.8060  136.8940 S   0  0  0  0  0  0  0  0  0  0  0  0
  190.5190  176.4180  137.0210 C   0  0  0  0  0  0  0  0  0  0  0  0
  190.3860  176.3000  135.6040 N   0  0  0  0  0  1  0  0  0  0  0  0
  189.3820  176.5230  137.8560 C   0  0  0  0  0  0  0  0  0  0  0  0
  189.5770  176.6960  139.2330 C   0  0  0  0  0  3  0  0  0  0  0  0
  191.9410  176.6430  138.9360 N   0  0  0  0  0  0  0  0  0  0  0  0
  191.8010  176.4790  137.5940 C   0  0  0  0  0  0  0  0  0  0  0  0
  190.8670  176.7530  139.7580 C   0  0  0  0  0  3  0  0  0  0  0  0
  193.0250  176.3770  136.7490 C   0  0  0  0  0  1  0  0  0  0  0  0
  188.2150  173.9750  136.8610 C   0  0  0  0  0  2  0  0  0  0  0  0
  184.9950  174.0820  136.7750 C   0  0  0  0  0  2  0  0  0  0  0  0
  188.1840  173.7940  135.4720 O   0  0  0  0  0  0  0  0  0  0  0  0
  185.9940  175.1970  136.4610 C   0  0  0  0  0  2  0  0  0  0  0  0
  186.1590  172.5190  135.1400 C   0  0  0  0  0  2  0  0  0  0  0  0
  187.2830  175.1170  137.2850 C   0  0  2  0  0  3  0  0  0  0  0  0
  185.5200  172.6690  136.5160 C   0  0  0  0  0  2  0  0  0  0  0  0
  187.6790  172.5020  135.2750 C   0  0  0  0  0  2  0  0  0  0  0  0
  183.9660  177.8780  137.4170 O   0  0  0  0  0  0  0  0  0  0  0  0
  186.1950  178.2210  138.2840 C   0  0  0  0  0  0  0  0  0  0  0  0
  184.7570  178.1980  138.3430 C   0  0  0  0  0  0  0  0  0  0  0  0
  184.3550  178.6170  139.6350 N   0  0  0  0  0  0  0  0  0  0  0  0
  186.6510  178.6250  139.4200 N   0  0  0  0  0  0  0  0  0  0  0  0
  185.5640  179.3270  141.6330 C   0  0  0  0  0  1  0  0  0  0  0  0
  185.4860  178.8530  140.2260 C   0  0  0  0  0  0  0  0  0  0  0  0
  1  2  1  1  0  0  0
  1  5  1  0  0  0  0
  2 20  1  0  0  0  0
  3  8  2  0  0  0  0
  3  5  1  0  0  0  0
  4  3  1  0  0  0  0
  5  6  2  0  0  0  0
  6  9  1  0  0  0  0
  7  9  2  0  0  0  0
  8  7  1  0  0  0  0
 10  8  1  0  0  0  0
 11 16  1  0  0  0  0
 13 11  1  0  0  0  0
 14 12  1  0  0  0  0
 14 16  1  0  0  0  0
 15 18  1  0  0  0  0
 15 17  1  0  0  0  0
 16  1  1  6  0  0  0
 17 12  1  0  0  0  0
 18 13  1  0  0  0  0
 19 21  2  0  0  0  0
 20 21  1  0  0  0  0
 20 23  2  0  0  0  0
 21 22  1  0  0  0  0
 22 25  2  0  0  0  0
 23 25  1  0  0  0  0
 25 24  1  0  0  0  0
M  END
>  <MODEL>
9

>  <REMARK>
 VINA RESULT:      -4.9      3.701      8.532
  Name = 
  3 active torsions:
  status: ('A' for Active; 'I' for Inactive)
    1  A    between atoms: C_6  and  S_20
    2  A    between atoms: C_7  and  C_19
    3  A    between atoms: C_16  and  C_19
                            x       y       z     vdW  Elec       q    Type
                         _______ _______ _______ _____ _____    ______ ____

>  <TORSDO>
F 3

$$$$
