=
 OpenBabel11032420383D

 45 47  0  0  1  0  0  0  0  0999 V2000
  185.4600  178.8330  140.8080 C   0  0  0  0  0  2  0  0  0  0  0  0
  185.2520  178.3250  145.6130 O   0  0  0  0  0  0  0  0  0  0  0  0
  185.5000  178.5370  143.2810 C   0  0  0  0  0  2  0  0  0  0  0  0
  182.6110  178.7360  140.8480 N   0  0  0  0  0  2  0  0  0  0  0  0
  181.1350  178.6220  143.2670 C   0  0  0  0  0  1  0  0  0  0  0  0
  184.7740  179.2110  142.1160 C   0  0  2  0  0  3  0  0  0  0  0  0
  183.2920  179.1100  144.5660 C   0  0  0  0  0  2  0  0  0  0  0  0
  183.3210  178.6200  139.5750 C   0  0  2  0  0  3  0  0  0  0  0  0
  184.7150  178.6270  144.5610 C   0  0  0  0  0  0  0  0  0  0  0  0
  182.6100  178.8400  143.2540 C   0  0  0  0  0  0  0  0  0  0  0  0
  183.2970  178.8740  142.1000 C   0  0  0  0  0  0  0  0  0  0  0  0
  184.6600  179.3550  139.6170 C   0  0  2  0  0  3  0  0  0  0  0  0
  185.3720  179.1110  138.4080 O   0  0  0  0  0  0  0  0  0  0  0  0
  185.7110  176.8520  138.0440 O   0  0  0  0  0  0  0  0  0  0  0  0
  186.1980  178.0000  138.2290 C   0  0  0  0  0  0  0  0  0  0  0  0
  187.6740  178.1810  138.2690 C   0  0  0  0  0  2  0  0  0  0  0  0
  190.0160  176.7330  138.9910 O   0  0  0  0  0  0  0  0  0  0  0  0
  189.3210  177.2140  139.9240 C   0  0  0  0  0  0  0  0  0  0  0  0
  188.1510  177.9820  139.6300 N   0  0  0  0  0  2  0  0  0  0  0  0
  189.7230  176.9960  141.2810 N   0  0  0  0  0  2  0  0  0  0  0  0
  188.9670  177.4330  142.4520 C   0  0  1  0  0  3  0  0  0  0  0  0
  188.2400  176.2650  143.0950 C   0  0  0  0  0  1  0  0  0  0  0  0
  189.8720  178.1180  143.4670 C   0  0  0  0  0  2  0  0  0  0  0  0
  189.9750  177.3030  144.6790 N   0  0  0  0  0  0  0  0  0  0  0  0
  191.3490  176.8450  144.9290 C   0  0  0  0  0  2  0  0  0  0  0  0
  191.7720  175.6620  144.0620 C   0  0  0  0  0  1  0  0  0  0  0  0
  189.3860  177.9620  145.8550 C   0  0  0  0  0  2  0  0  0  0  0  0
  189.3720  177.0940  147.1160 C   0  0  0  0  0  2  0  0  0  0  0  0
  188.8390  177.8880  148.2940 C   0  0  0  0  0  1  0  0  0  0  0  0
  182.4470  179.0850  138.3970 C   0  0  1  0  0  3  0  0  0  0  0  0
  182.4240  176.6700  137.9580 N   0  0  0  0  0  2  0  0  0  0  0  0
  182.0490  176.5080  135.6010 C   0  0  0  0  0  2  0  0  0  0  0  0
  181.6990  177.9170  137.7430 C   0  0  2  0  0  3  0  0  0  0  0  0
  181.5070  178.1940  135.9470 S   0  0  0  0  0  0  0  0  0  0  0  0
  181.9980  175.7600  136.9140 C   0  0  1  0  0  3  0  0  0  0  0  0
  182.9160  174.5510  136.8850 C   0  0  0  0  0  2  0  0  0  0  0  0
  182.4570  173.5550  135.8310 C   0  0  0  0  0  2  0  0  0  0  0  0
  181.9730  172.3400  136.4660 N   0  0  0  0  0  0  0  0  0  0  0  0
  183.6660  170.6250  136.2190 C   0  0  0  0  0  2  0  0  0  0  0  0
  182.9240  171.4060  136.9980 C   0  0  0  0  0  3  0  0  0  0  0  0
  180.5440  172.0520  136.4040 C   0  0  0  0  0  2  0  0  0  0  0  0
  179.8600  172.4990  137.6870 C   0  0  0  0  0  1  0  0  0  0  0  0
  181.8920  181.4600  138.5960 C   0  0  0  0  0  2  0  0  0  0  0  0
  181.5210  180.2030  138.7850 C   0  0  0  0  0  0  0  0  0  0  0  0
  180.2840  179.9330  139.3600 O   0  0  0  0  0  1  0  0  0  0  0  0
  3  9  1  0  0  0  0
  4 11  1  0  0  0  0
  6  1  1  6  0  0  0
  6  3  1  0  0  0  0
  8 30  1  6  0  0  0
  8 12  1  0  0  0  0
  8  4  1  0  0  0  0
  9  7  1  0  0  0  0
  9  2  2  0  0  0  0
 10  5  1  0  0  0  0
 10  7  1  0  0  0  0
 11  6  1  0  0  0  0
 11 10  2  0  0  0  0
 12 13  1  6  0  0  0
 12  1  1  0  0  0  0
 14 15  2  0  0  0  0
 15 16  1  0  0  0  0
 15 13  1  0  0  0  0
 16 19  1  0  0  0  0
 17 18  2  0  0  0  0
 18 20  1  0  0  0  0
 19 18  1  0  0  0  0
 20 21  1  0  0  0  0
 21 22  1  1  0  0  0
 21 23  1  0  0  0  0
 23 24  1  0  0  0  0
 24 25  1  0  0  0  0
 24 27  1  0  0  0  0
 26 25  1  0  0  0  0
 27 28  1  0  0  0  0
 28 29  1  0  0  0  0
 30 44  1  1  0  0  0
 32 34  1  0  0  0  0
 32 35  1  0  0  0  0
 33 31  1  0  0  0  0
 33 30  1  6  0  0  0
 34 33  1  0  0  0  0
 35 36  1  6  0  0  0
 35 31  1  0  0  0  0
 37 38  1  0  0  0  0
 37 36  1  0  0  0  0
 38 40  1  0  0  0  0
 39 40  2  0  0  0  0
 41 38  1  0  0  0  0
 41 42  1  0  0  0  0
 43 44  2  0  0  0  0
 44 45  1  0  0  0  0
M  END
>  <MODEL>
1

>  <REMARK>
 VINA RESULT:      -6.9      0.000      0.000
  Name = 
  18 active torsions:
  status: ('A' for Active; 'I' for Inactive)
    1  A    between atoms: C_1  and  C_11
    2  A    between atoms: C_1  and  N_14
    3  A    between atoms: C_3  and  C_27
    4  A    between atoms: C_3  and  C_30
    5  A    between atoms: C_3  and  C_33
    6  A    between atoms: C_7  and  C_12
    7  A    between atoms: C_7  and  N_14
    8  A    between atoms: N_10  and  C_18
    9  A    between atoms: C_12  and  N_23
   10  A    between atoms: N_14  and  C_17
   11  A    between atoms: C_15  and  C_24
   12  A    between atoms: C_15  and  C_42
   13  A    between atoms: N_16  and  C_24
   14  A    between atoms: N_16  and  C_26
   15  A    between atoms: N_16  and  C_43
   16  A    between atoms: C_18  and  C_45
   17  A    between atoms: C_38  and  O_41
   18  A    between atoms: O_41  and  C_45
                            x       y       z     vdW  Elec       q    Type
                         _______ _______ _______ _____ _____    ______ ____

>  <TORSDO>
F 18

$$$$
=
 OpenBabel11032420383D

 45 47  0  0  1  0  0  0  0  0999 V2000
  186.3870  178.2520  138.2340 C   0  0  0  0  0  2  0  0  0  0  0  0
  189.9260  176.4980  135.4430 O   0  0  0  0  0  0  0  0  0  0  0  0
  188.3000  177.4570  136.8520 C   0  0  0  0  0  2  0  0  0  0  0  0
  184.5970  176.7170  136.6330 N   0  0  0  0  0  2  0  0  0  0  0  0
  185.5110  174.9680  134.5960 C   0  0  0  0  0  1  0  0  0  0  0  0
  186.9740  177.0530  137.4980 C   0  0  2  0  0  3  0  0  0  0  0  0
  187.9090  175.2790  135.4520 C   0  0  0  0  0  2  0  0  0  0  0  0
  184.0650  177.7270  137.5460 C   0  0  2  0  0  3  0  0  0  0  0  0
  188.7890  176.4210  135.8770 C   0  0  0  0  0  0  0  0  0  0  0  0
  186.4530  175.6390  135.5380 C   0  0  0  0  0  0  0  0  0  0  0  0
  186.0040  176.4790  136.4860 C   0  0  0  0  0  0  0  0  0  0  0  0
  184.9870  177.9280  138.7480 C   0  0  2  0  0  3  0  0  0  0  0  0
  184.4980  179.0050  139.5430 O   0  0  0  0  0  0  0  0  0  0  0  0
  185.8310  179.6820  141.3080 O   0  0  0  0  0  0  0  0  0  0  0  0
  184.7750  179.1230  140.9060 C   0  0  0  0  0  0  0  0  0  0  0  0
  183.8080  178.5700  141.8910 C   0  0  0  0  0  2  0  0  0  0  0  0
  182.3530  178.7270  144.3330 O   0  0  0  0  0  0  0  0  0  0  0  0
  183.6100  178.7100  144.4070 C   0  0  0  0  0  0  0  0  0  0  0  0
  184.4000  178.5960  143.2210 N   0  0  0  0  0  2  0  0  0  0  0  0
  184.2370  178.7890  145.6910 N   0  0  0  0  0  2  0  0  0  0  0  0
  185.6800  178.8540  145.9090 C   0  0  1  0  0  3  0  0  0  0  0  0
  185.9980  179.4970  147.2480 C   0  0  0  0  0  1  0  0  0  0  0  0
  186.3130  177.4730  145.8210 C   0  0  0  0  0  2  0  0  0  0  0  0
  187.7370  177.5910  145.5040 N   0  0  0  0  0  0  0  0  0  0  0  0
  188.5950  177.1460  146.6110 C   0  0  0  0  0  2  0  0  0  0  0  0
  190.0880  177.2020  146.2950 C   0  0  0  0  0  1  0  0  0  0  0  0
  188.0890  176.9400  144.2320 C   0  0  0  0  0  2  0  0  0  0  0  0
  188.6510  177.8940  143.1750 C   0  0  0  0  0  2  0  0  0  0  0  0
  188.3800  177.3550  141.7840 C   0  0  0  0  0  1  0  0  0  0  0  0
  182.6250  177.3970  137.9740 C   0  0  1  0  0  3  0  0  0  0  0  0
  181.7580  178.9490  136.2820 N   0  0  0  0  0  2  0  0  0  0  0  0
  179.3860  178.8780  136.5840 C   0  0  0  0  0  2  0  0  0  0  0  0
  181.6250  177.6050  136.8310 C   0  0  2  0  0  3  0  0  0  0  0  0
  179.9110  177.3650  137.4150 S   0  0  0  0  0  0  0  0  0  0  0  0
  180.4990  179.2570  135.6330 C   0  0  1  0  0  3  0  0  0  0  0  0
  180.4470  180.7370  135.2980 C   0  0  0  0  0  2  0  0  0  0  0  0
  179.7260  181.5080  136.3940 C   0  0  0  0  0  2  0  0  0  0  0  0
  180.6380  182.4480  137.0270 N   0  0  0  0  0  0  0  0  0  0  0  0
  181.4220  184.7400  137.0900 C   0  0  0  0  0  2  0  0  0  0  0  0
  180.8080  183.7500  136.4480 C   0  0  0  0  0  3  0  0  0  0  0  0
  181.4540  181.9740  138.1400 C   0  0  0  0  0  2  0  0  0  0  0  0
  180.5780  181.3010  139.1860 C   0  0  0  0  0  1  0  0  0  0  0  0
  182.2930  175.8980  139.8810 C   0  0  0  0  0  2  0  0  0  0  0  0
  182.5140  176.0260  138.5810 C   0  0  0  0  0  0  0  0  0  0  0  0
  182.6590  174.8890  137.7950 O   0  0  0  0  0  1  0  0  0  0  0  0
  1 12  1  0  0  0  0
  2  9  2  0  0  0  0
  4  8  1  0  0  0  0
  5 10  1  0  0  0  0
  6  3  1  6  0  0  0
  6  1  1  0  0  0  0
  7 10  1  0  0  0  0
  7  9  1  0  0  0  0
  8 30  1  1  0  0  0
  8 12  1  0  0  0  0
  9  3  1  0  0  0  0
 10 11  2  0  0  0  0
 11  4  1  0  0  0  0
 11  6  1  0  0  0  0
 12 13  1  1  0  0  0
 13 15  1  0  0  0  0
 15 14  2  0  0  0  0
 15 16  1  0  0  0  0
 16 19  1  0  0  0  0
 17 18  2  0  0  0  0
 18 20  1  0  0  0  0
 19 18  1  0  0  0  0
 20 21  1  0  0  0  0
 21 22  1  1  0  0  0
 23 21  1  0  0  0  0
 24 23  1  0  0  0  0
 24 25  1  0  0  0  0
 26 25  1  0  0  0  0
 27 24  1  0  0  0  0
 28 27  1  0  0  0  0
 29 28  1  0  0  0  0
 30 44  1  6  0  0  0
 31 33  1  0  0  0  0
 32 34  1  0  0  0  0
 33 34  1  0  0  0  0
 33 30  1  1  0  0  0
 35 36  1  1  0  0  0
 35 31  1  0  0  0  0
 35 32  1  0  0  0  0
 36 37  1  0  0  0  0
 37 38  1  0  0  0  0
 38 41  1  0  0  0  0
 40 38  1  0  0  0  0
 40 39  2  0  0  0  0
 41 42  1  0  0  0  0
 44 43  2  0  0  0  0
 45 44  1  0  0  0  0
M  END
>  <MODEL>
2

>  <REMARK>
 VINA RESULT:      -6.4      2.701      6.761
  Name = 
  18 active torsions:
  status: ('A' for Active; 'I' for Inactive)
    1  A    between atoms: C_1  and  C_11
    2  A    between atoms: C_1  and  N_14
    3  A    between atoms: C_3  and  C_27
    4  A    between atoms: C_3  and  C_30
    5  A    between atoms: C_3  and  C_33
    6  A    between atoms: C_7  and  C_12
    7  A    between atoms: C_7  and  N_14
    8  A    between atoms: N_10  and  C_18
    9  A    between atoms: C_12  and  N_23
   10  A    between atoms: N_14  and  C_17
   11  A    between atoms: C_15  and  C_24
   12  A    between atoms: C_15  and  C_42
   13  A    between atoms: N_16  and  C_24
   14  A    between atoms: N_16  and  C_26
   15  A    between atoms: N_16  and  C_43
   16  A    between atoms: C_18  and  C_45
   17  A    between atoms: C_38  and  O_41
   18  A    between atoms: O_41  and  C_45
                            x       y       z     vdW  Elec       q    Type
                         _______ _______ _______ _____ _____    ______ ____

>  <TORSDO>
F 18

$$$$
=
 OpenBabel11032420383D

 45 47  0  0  1  0  0  0  0  0999 V2000
  189.2030  177.4440  141.3460 C   0  0  0  0  0  2  0  0  0  0  0  0
  192.1240  175.6850  144.7760 O   0  0  0  0  0  0  0  0  0  0  0  0
  190.7890  176.4730  143.0030 C   0  0  0  0  0  2  0  0  0  0  0  0
  187.3430  177.9680  143.4420 N   0  0  0  0  0  2  0  0  0  0  0  0
  187.9710  177.5160  146.1700 C   0  0  0  0  0  1  0  0  0  0  0  0
  189.7700  177.5860  142.7540 C   0  0  2  0  0  3  0  0  0  0  0  0
  190.4200  177.1390  145.5080 C   0  0  0  0  0  2  0  0  0  0  0  0
  186.9070  178.0560  142.0490 C   0  0  2  0  0  3  0  0  0  0  0  0
  191.1730  176.3760  144.4540 C   0  0  0  0  0  0  0  0  0  0  0  0
  188.9990  177.3990  145.0960 C   0  0  0  0  0  0  0  0  0  0  0  0
  188.6800  177.5990  143.8060 C   0  0  0  0  0  0  0  0  0  0  0  0
  188.0650  178.4370  141.1280 C   0  0  2  0  0  3  0  0  0  0  0  0
  187.6280  178.3870  139.7730 O   0  0  0  0  0  0  0  0  0  0  0  0
  189.0760  179.3990  138.2800 O   0  0  0  0  0  0  0  0  0  0  0  0
  188.5130  178.3500  138.6950 C   0  0  0  0  0  0  0  0  0  0  0  0
  188.7840  177.0490  138.0260 C   0  0  0  0  0  2  0  0  0  0  0  0
  187.4880  177.3090  135.5040 O   0  0  0  0  0  0  0  0  0  0  0  0
  186.9100  176.6190  136.3850 C   0  0  0  0  0  0  0  0  0  0  0  0
  187.5240  176.4190  137.6610 N   0  0  0  0  0  2  0  0  0  0  0  0
  185.6420  176.0240  136.0890 N   0  0  0  0  0  2  0  0  0  0  0  0
  184.8360  175.2670  137.0430 C   0  0  1  0  0  3  0  0  0  0  0  0
  183.7980  176.1590  137.7030 C   0  0  0  0  0  1  0  0  0  0  0  0
  184.1620  174.0780  136.3730 C   0  0  0  0  0  2  0  0  0  0  0  0
  184.6030  172.8310  137.0020 N   0  0  0  0  0  0  0  0  0  0  0  0
  184.4320  171.6690  136.1180 C   0  0  0  0  0  2  0  0  0  0  0  0
  183.3160  170.7230  136.5520 C   0  0  0  0  0  1  0  0  0  0  0  0
  185.9690  172.9220  137.5410 C   0  0  0  0  0  2  0  0  0  0  0  0
  187.0450  172.3410  136.6210 C   0  0  0  0  0  2  0  0  0  0  0  0
  188.3970  172.9460  136.9470 C   0  0  0  0  0  1  0  0  0  0  0  0
  185.7090  179.0080  141.8920 C   0  0  1  0  0  3  0  0  0  0  0  0
  184.5180  179.8500  139.9190 N   0  0  0  0  0  2  0  0  0  0  0  0
  182.3350  178.8870  140.0990 C   0  0  0  0  0  2  0  0  0  0  0  0
  184.8460  178.6490  140.6780 C   0  0  2  0  0  3  0  0  0  0  0  0
  183.2980  177.8310  141.2000 S   0  0  0  0  0  0  0  0  0  0  0  0
  183.3210  179.5450  139.1600 C   0  0  1  0  0  3  0  0  0  0  0  0
  182.7460  180.8240  138.5780 C   0  0  0  0  0  2  0  0  0  0  0  0
  181.2250  180.7810  138.5920 C   0  0  0  0  0  2  0  0  0  0  0  0
  180.7000  181.2460  137.3180 N   0  0  0  0  0  0  0  0  0  0  0  0
  180.5960  183.6580  137.5210 C   0  0  0  0  0  2  0  0  0  0  0  0
  179.9990  182.4980  137.2690 C   0  0  0  0  0  3  0  0  0  0  0  0
  180.7780  180.3480  136.1710 C   0  0  0  0  0  2  0  0  0  0  0  0
  180.6950  181.1400  134.8750 C   0  0  0  0  0  1  0  0  0  0  0  0
  184.6700  180.2980  143.6950 C   0  0  0  0  0  2  0  0  0  0  0  0
  184.8970  179.1100  143.1530 C   0  0  0  0  0  0  0  0  0  0  0  0
  184.3980  177.9690  143.7690 O   0  0  0  0  0  1  0  0  0  0  0  0
  3  9  1  0  0  0  0
  4 11  1  0  0  0  0
  6  1  1  6  0  0  0
  6  3  1  0  0  0  0
  6 11  1  0  0  0  0
  8 30  1  1  0  0  0
  8  4  1  0  0  0  0
  9  2  2  0  0  0  0
  9  7  1  0  0  0  0
 10  7  1  0  0  0  0
 10  5  1  0  0  0  0
 11 10  2  0  0  0  0
 12 13  1  6  0  0  0
 12  1  1  0  0  0  0
 12  8  1  0  0  0  0
 14 15  2  0  0  0  0
 15 13  1  0  0  0  0
 16 15  1  0  0  0  0
 17 18  2  0  0  0  0
 18 19  1  0  0  0  0
 19 16  1  0  0  0  0
 20 18  1  0  0  0  0
 20 21  1  0  0  0  0
 21 22  1  6  0  0  0
 23 24  1  0  0  0  0
 23 21  1  0  0  0  0
 24 27  1  0  0  0  0
 25 26  1  0  0  0  0
 25 24  1  0  0  0  0
 28 29  1  0  0  0  0
 28 27  1  0  0  0  0
 30 44  1  1  0  0  0
 31 33  1  0  0  0  0
 32 34  1  0  0  0  0
 33 34  1  0  0  0  0
 33 30  1  1  0  0  0
 35 36  1  1  0  0  0
 35 31  1  0  0  0  0
 35 32  1  0  0  0  0
 36 37  1  0  0  0  0
 38 37  1  0  0  0  0
 40 38  1  0  0  0  0
 40 39  2  0  0  0  0
 41 38  1  0  0  0  0
 42 41  1  0  0  0  0
 44 43  2  0  0  0  0
 44 45  1  0  0  0  0
M  END
>  <MODEL>
3

>  <REMARK>
 VINA RESULT:      -6.4      2.611      7.395
  Name = 
  18 active torsions:
  status: ('A' for Active; 'I' for Inactive)
    1  A    between atoms: C_1  and  C_11
    2  A    between atoms: C_1  and  N_14
    3  A    between atoms: C_3  and  C_27
    4  A    between atoms: C_3  and  C_30
    5  A    between atoms: C_3  and  C_33
    6  A    between atoms: C_7  and  C_12
    7  A    between atoms: C_7  and  N_14
    8  A    between atoms: N_10  and  C_18
    9  A    between atoms: C_12  and  N_23
   10  A    between atoms: N_14  and  C_17
   11  A    between atoms: C_15  and  C_24
   12  A    between atoms: C_15  and  C_42
   13  A    between atoms: N_16  and  C_24
   14  A    between atoms: N_16  and  C_26
   15  A    between atoms: N_16  and  C_43
   16  A    between atoms: C_18  and  C_45
   17  A    between atoms: C_38  and  O_41
   18  A    between atoms: O_41  and  C_45
                            x       y       z     vdW  Elec       q    Type
                         _______ _______ _______ _____ _____    ______ ____

>  <TORSDO>
F 18

$$$$
=
 OpenBabel11032420383D

 45 47  0  0  1  0  0  0  0  0999 V2000
  186.5810  178.0300  144.7220 C   0  0  0  0  0  2  0  0  0  0  0  0
  187.3730  178.5220  149.4670 O   0  0  0  0  0  0  0  0  0  0  0  0
  186.8580  178.3580  147.1750 C   0  0  0  0  0  2  0  0  0  0  0  0
  189.3380  177.3390  144.5080 N   0  0  0  0  0  2  0  0  0  0  0  0
  191.0120  177.0730  146.7820 C   0  0  0  0  0  1  0  0  0  0  0  0
  187.2590  177.4940  145.9780 C   0  0  2  0  0  3  0  0  0  0  0  0
  188.9370  177.2150  148.2830 C   0  0  0  0  0  2  0  0  0  0  0  0
  188.5700  177.6300  143.2990 C   0  0  2  0  0  3  0  0  0  0  0  0
  187.7050  178.0710  148.3840 C   0  0  0  0  0  0  0  0  0  0  0  0
  189.5390  177.2700  146.9080 C   0  0  0  0  0  0  0  0  0  0  0  0
  188.7630  177.4120  145.8200 C   0  0  0  0  0  0  0  0  0  0  0  0
  187.0910  177.2930  143.4860 C   0  0  2  0  0  3  0  0  0  0  0  0
  186.3620  177.7090  142.3360 O   0  0  0  0  0  0  0  0  0  0  0  0
  185.4680  179.7780  141.8140 O   0  0  0  0  0  0  0  0  0  0  0  0
  185.3450  178.6630  142.3900 C   0  0  0  0  0  0  0  0  0  0  0  0
  184.1030  178.3550  143.1500 C   0  0  0  0  0  2  0  0  0  0  0  0
  181.4850  178.9010  144.1250 O   0  0  0  0  0  0  0  0  0  0  0  0
  181.6460  178.8760  142.8770 C   0  0  0  0  0  0  0  0  0  0  0  0
  182.9420  178.6430  142.3210 N   0  0  0  0  0  2  0  0  0  0  0  0
  180.5200  179.1000  142.0210 N   0  0  0  0  0  2  0  0  0  0  0  0
  180.5560  179.0230  140.5630 C   0  0  1  0  0  3  0  0  0  0  0  0
  179.3800  178.2210  140.0330 C   0  0  0  0  0  1  0  0  0  0  0  0
  180.5730  180.4120  139.9390 C   0  0  0  0  0  2  0  0  0  0  0  0
  181.3910  180.4070  138.7250 N   0  0  0  0  0  0  0  0  0  0  0  0
  181.4760  181.7360  138.1040 C   0  0  0  0  0  2  0  0  0  0  0  0
  180.1480  182.4870  138.0690 C   0  0  0  0  0  1  0  0  0  0  0  0
  182.7180  179.8090  138.9400 C   0  0  0  0  0  2  0  0  0  0  0  0
  183.0080  178.5960  138.0530 C   0  0  0  0  0  2  0  0  0  0  0  0
  183.5280  177.4440  138.8910 C   0  0  0  0  0  1  0  0  0  0  0  0
  189.1680  176.9280  142.0680 C   0  0  1  0  0  3  0  0  0  0  0  0
  188.0000  177.9280  140.1550 N   0  0  0  0  0  2  0  0  0  0  0  0
  189.4660  177.5370  138.3060 C   0  0  0  0  0  2  0  0  0  0  0  0
  189.2730  177.8710  140.8640 C   0  0  2  0  0  3  0  0  0  0  0  0
  190.5750  177.3100  139.7110 S   0  0  0  0  0  0  0  0  0  0  0  0
  188.3000  178.3590  138.8040 C   0  0  1  0  0  3  0  0  0  0  0  0
  187.0790  178.1590  137.9230 C   0  0  0  0  0  2  0  0  0  0  0  0
  187.3750  178.5910  136.4940 C   0  0  0  0  0  2  0  0  0  0  0  0
  187.0280  177.5250  135.5680 N   0  0  0  0  0  0  0  0  0  0  0  0
  189.2430  177.4090  134.5940 C   0  0  0  0  0  2  0  0  0  0  0  0
  188.0790  176.8330  134.8760 C   0  0  0  0  0  3  0  0  0  0  0  0
  185.6170  177.3040  135.2680 C   0  0  0  0  0  2  0  0  0  0  0  0
  185.1900  175.9210  135.7360 C   0  0  0  0  0  1  0  0  0  0  0  0
  191.6040  176.9520  142.3110 C   0  0  0  0  0  2  0  0  0  0  0  0
  190.4770  176.2580  142.3780 C   0  0  0  0  0  0  0  0  0  0  0  0
  190.5220  174.9100  142.7160 O   0  0  0  0  0  1  0  0  0  0  0  0
  3  9  1  0  0  0  0
  4 11  1  0  0  0  0
  5 10  1  0  0  0  0
  6  1  1  6  0  0  0
  6  3  1  0  0  0  0
  7  9  1  0  0  0  0
  8 30  1  6  0  0  0
  8 12  1  0  0  0  0
  8  4  1  0  0  0  0
  9  2  2  0  0  0  0
 10  7  1  0  0  0  0
 11  6  1  0  0  0  0
 11 10  2  0  0  0  0
 12 13  1  6  0  0  0
 12  1  1  0  0  0  0
 13 15  1  0  0  0  0
 14 15  2  0  0  0  0
 15 16  1  0  0  0  0
 18 17  2  0  0  0  0
 19 18  1  0  0  0  0
 19 16  1  0  0  0  0
 20 18  1  0  0  0  0
 21 22  1  6  0  0  0
 21 20  1  0  0  0  0
 23 21  1  0  0  0  0
 24 27  1  0  0  0  0
 24 23  1  0  0  0  0
 25 24  1  0  0  0  0
 26 25  1  0  0  0  0
 28 29  1  0  0  0  0
 28 27  1  0  0  0  0
 30 44  1  1  0  0  0
 31 33  1  0  0  0  0
 32 35  1  0  0  0  0
 32 34  1  0  0  0  0
 33 30  1  1  0  0  0
 34 33  1  0  0  0  0
 35 36  1  6  0  0  0
 35 31  1  0  0  0  0
 37 36  1  0  0  0  0
 38 37  1  0  0  0  0
 39 40  2  0  0  0  0
 40 38  1  0  0  0  0
 41 38  1  0  0  0  0
 41 42  1  0  0  0  0
 43 44  2  0  0  0  0
 44 45  1  0  0  0  0
M  END
>  <MODEL>
4

>  <REMARK>
 VINA RESULT:      -6.0      3.253      8.354
  Name = 
  18 active torsions:
  status: ('A' for Active; 'I' for Inactive)
    1  A    between atoms: C_1  and  C_11
    2  A    between atoms: C_1  and  N_14
    3  A    between atoms: C_3  and  C_27
    4  A    between atoms: C_3  and  C_30
    5  A    between atoms: C_3  and  C_33
    6  A    between atoms: C_7  and  C_12
    7  A    between atoms: C_7  and  N_14
    8  A    between atoms: N_10  and  C_18
    9  A    between atoms: C_12  and  N_23
   10  A    between atoms: N_14  and  C_17
   11  A    between atoms: C_15  and  C_24
   12  A    between atoms: C_15  and  C_42
   13  A    between atoms: N_16  and  C_24
   14  A    between atoms: N_16  and  C_26
   15  A    between atoms: N_16  and  C_43
   16  A    between atoms: C_18  and  C_45
   17  A    between atoms: C_38  and  O_41
   18  A    between atoms: O_41  and  C_45
                            x       y       z     vdW  Elec       q    Type
                         _______ _______ _______ _____ _____    ______ ____

>  <TORSDO>
F 18

$$$$
=
 OpenBabel11032420383D

 45 47  0  0  1  0  0  0  0  0999 V2000
  185.0880  178.7630  140.7550 C   0  0  0  0  0  2  0  0  0  0  0  0
  185.8140  178.3050  145.5150 O   0  0  0  0  0  0  0  0  0  0  0  0
  185.6060  178.4910  143.1760 C   0  0  0  0  0  2  0  0  0  0  0  0
  182.3010  178.6910  141.3480 N   0  0  0  0  0  2  0  0  0  0  0  0
  181.3210  178.6140  144.0090 C   0  0  0  0  0  1  0  0  0  0  0  0
  184.6710  179.1600  142.1670 C   0  0  2  0  0  3  0  0  0  0  0  0
  183.6930  179.0960  144.8590 C   0  0  0  0  0  2  0  0  0  0  0  0
  182.7490  178.5560  139.9630 C   0  0  2  0  0  3  0  0  0  0  0  0
  185.0850  178.6010  144.5830 C   0  0  0  0  0  0  0  0  0  0  0  0
  182.7680  178.8190  143.7080 C   0  0  0  0  0  0  0  0  0  0  0  0
  183.2180  178.8350  142.4420 C   0  0  0  0  0  0  0  0  0  0  0  0
  184.0760  179.2800  139.7360 C   0  0  2  0  0  3  0  0  0  0  0  0
  184.5380  179.0170  138.4150 O   0  0  0  0  0  0  0  0  0  0  0  0
  186.8360  178.7530  138.3870 O   0  0  0  0  0  0  0  0  0  0  0  0
  185.6920  178.2780  138.1510 C   0  0  0  0  0  0  0  0  0  0  0  0
  185.5610  176.9120  137.5750 C   0  0  0  0  0  2  0  0  0  0  0  0
  186.6470  176.2760  135.0220 O   0  0  0  0  0  0  0  0  0  0  0  0
  187.3550  176.0260  136.0320 C   0  0  0  0  0  0  0  0  0  0  0  0
  186.8840  176.3540  137.3420 N   0  0  0  0  0  2  0  0  0  0  0  0
  188.6430  175.4260  135.8540 N   0  0  0  0  0  2  0  0  0  0  0  0
  189.5270  175.0180  136.9420 C   0  0  1  0  0  3  0  0  0  0  0  0
  189.7590  173.5170  136.9180 C   0  0  0  0  0  1  0  0  0  0  0  0
  190.8560  175.7590  136.8790 C   0  0  0  0  0  2  0  0  0  0  0  0
  191.2480  176.2040  138.2180 N   0  0  0  0  0  0  0  0  0  0  0  0
  192.6820  176.5110  138.3070 C   0  0  0  0  0  2  0  0  0  0  0  0
  193.4730  176.1310  137.0580 C   0  0  0  0  0  1  0  0  0  0  0  0
  190.4110  177.3090  138.7130 C   0  0  0  0  0  2  0  0  0  0  0  0
  189.7070  177.0130  140.0400 C   0  0  0  0  0  2  0  0  0  0  0  0
  190.6490  177.2610  141.2020 C   0  0  0  0  0  1  0  0  0  0  0  0
  181.6660  179.0160  138.9720 C   0  0  1  0  0  3  0  0  0  0  0  0
  181.8710  176.6330  138.4250 N   0  0  0  0  0  2  0  0  0  0  0  0
  182.2600  176.6060  136.0650 C   0  0  0  0  0  2  0  0  0  0  0  0
  181.2050  177.8770  138.0570 C   0  0  2  0  0  3  0  0  0  0  0  0
  181.5750  178.2580  136.3090 S   0  0  0  0  0  0  0  0  0  0  0  0
  181.8280  175.7800  137.2550 C   0  0  1  0  0  3  0  0  0  0  0  0
  182.7520  174.5920  137.4550 C   0  0  0  0  0  2  0  0  0  0  0  0
  182.3100  173.4180  136.5940 C   0  0  0  0  0  2  0  0  0  0  0  0
  183.3080  172.3620  136.6350 N   0  0  0  0  0  0  0  0  0  0  0  0
  181.7720  170.7590  135.6640 C   0  0  0  0  0  2  0  0  0  0  0  0
  183.0030  171.0910  136.0410 C   0  0  0  0  0  3  0  0  0  0  0  0
  184.5220  172.5910  137.4110 C   0  0  0  0  0  2  0  0  0  0  0  0
  185.7390  172.5930  136.4980 C   0  0  0  0  0  1  0  0  0  0  0  0
  179.4670  178.9700  140.0470 C   0  0  0  0  0  2  0  0  0  0  0  0
  180.5130  179.6880  139.6650 C   0  0  0  0  0  0  0  0  0  0  0  0
  180.5230  181.0590  139.8910 O   0  0  0  0  0  1  0  0  0  0  0  0
  3  9  1  0  0  0  0
  4 11  1  0  0  0  0
  6  1  1  6  0  0  0
  6 11  1  0  0  0  0
  6  3  1  0  0  0  0
  8 30  1  6  0  0  0
  8  4  1  0  0  0  0
  9  7  1  0  0  0  0
  9  2  2  0  0  0  0
 10  5  1  0  0  0  0
 10  7  1  0  0  0  0
 11 10  2  0  0  0  0
 12 13  1  6  0  0  0
 12  8  1  0  0  0  0
 12  1  1  0  0  0  0
 15 14  2  0  0  0  0
 15 13  1  0  0  0  0
 16 15  1  0  0  0  0
 17 18  2  0  0  0  0
 18 19  1  0  0  0  0
 19 16  1  0  0  0  0
 20 18  1  0  0  0  0
 20 21  1  0  0  0  0
 21 22  1  6  0  0  0
 23 21  1  0  0  0  0
 23 24  1  0  0  0  0
 24 25  1  0  0  0  0
 24 27  1  0  0  0  0
 26 25  1  0  0  0  0
 27 28  1  0  0  0  0
 28 29  1  0  0  0  0
 30 44  1  1  0  0  0
 32 34  1  0  0  0  0
 32 35  1  0  0  0  0
 33 31  1  0  0  0  0
 33 30  1  1  0  0  0
 34 33  1  0  0  0  0
 35 36  1  1  0  0  0
 35 31  1  0  0  0  0
 37 38  1  0  0  0  0
 37 36  1  0  0  0  0
 38 41  1  0  0  0  0
 39 40  2  0  0  0  0
 40 38  1  0  0  0  0
 42 41  1  0  0  0  0
 44 45  1  0  0  0  0
 44 43  2  0  0  0  0
M  END
>  <MODEL>
5

>  <REMARK>
 VINA RESULT:      -6.0      2.337      3.713
  Name = 
  18 active torsions:
  status: ('A' for Active; 'I' for Inactive)
    1  A    between atoms: C_1  and  C_11
    2  A    between atoms: C_1  and  N_14
    3  A    between atoms: C_3  and  C_27
    4  A    between atoms: C_3  and  C_30
    5  A    between atoms: C_3  and  C_33
    6  A    between atoms: C_7  and  C_12
    7  A    between atoms: C_7  and  N_14
    8  A    between atoms: N_10  and  C_18
    9  A    between atoms: C_12  and  N_23
   10  A    between atoms: N_14  and  C_17
   11  A    between atoms: C_15  and  C_24
   12  A    between atoms: C_15  and  C_42
   13  A    between atoms: N_16  and  C_24
   14  A    between atoms: N_16  and  C_26
   15  A    between atoms: N_16  and  C_43
   16  A    between atoms: C_18  and  C_45
   17  A    between atoms: C_38  and  O_41
   18  A    between atoms: O_41  and  C_45
                            x       y       z     vdW  Elec       q    Type
                         _______ _______ _______ _____ _____    ______ ____

>  <TORSDO>
F 18

$$$$
=
 OpenBabel11032420383D

 45 47  0  0  1  0  0  0  0  0999 V2000
  186.6210  177.8880  144.5010 C   0  0  0  0  0  2  0  0  0  0  0  0
  188.3990  177.9070  148.9990 O   0  0  0  0  0  0  0  0  0  0  0  0
  187.4050  177.9580  146.8640 C   0  0  0  0  0  2  0  0  0  0  0  0
  189.3050  177.4940  143.6270 N   0  0  0  0  0  2  0  0  0  0  0  0
  191.4510  177.1310  145.4450 C   0  0  0  0  0  1  0  0  0  0  0  0
  187.5930  177.2800  145.5060 C   0  0  2  0  0  3  0  0  0  0  0  0
  189.7510  176.9000  147.3520 C   0  0  0  0  0  2  0  0  0  0  0  0
  188.2720  177.8470  142.6540 C   0  0  2  0  0  3  0  0  0  0  0  0
  188.5150  177.6170  147.8210 C   0  0  0  0  0  0  0  0  0  0  0  0
  190.0310  177.1700  145.9010 C   0  0  0  0  0  0  0  0  0  0  0  0
  189.0280  177.3610  145.0280 C   0  0  0  0  0  0  0  0  0  0  0  0
  186.8970  177.3500  143.1000 C   0  0  2  0  0  3  0  0  0  0  0  0
  185.9060  177.8230  142.1920 O   0  0  0  0  0  0  0  0  0  0  0  0
  185.6810  180.1240  142.1340 O   0  0  0  0  0  0  0  0  0  0  0  0
  185.1850  178.9980  142.4080 C   0  0  0  0  0  0  0  0  0  0  0  0
  183.8130  178.9110  142.9770 C   0  0  0  0  0  2  0  0  0  0  0  0
  181.0360  179.5340  143.0410 O   0  0  0  0  0  0  0  0  0  0  0  0
  181.4720  178.9300  142.0260 C   0  0  0  0  0  0  0  0  0  0  0  0
  182.8630  178.6190  141.9140 N   0  0  0  0  0  2  0  0  0  0  0  0
  180.5630  178.5750  140.9780 N   0  0  0  0  0  2  0  0  0  0  0  0
  180.9250  177.8100  139.7880 C   0  0  1  0  0  3  0  0  0  0  0  0
  180.5020  176.3580  139.9270 C   0  0  0  0  0  1  0  0  0  0  0  0
  180.3140  178.4220  138.5340 C   0  0  0  0  0  2  0  0  0  0  0  0
  181.3500  179.0910  137.7450 N   0  0  0  0  0  0  0  0  0  0  0  0
  182.2020  178.1390  137.0190 C   0  0  0  0  0  2  0  0  0  0  0  0
  181.4570  177.3270  135.9620 C   0  0  0  0  0  1  0  0  0  0  0  0
  180.8030  180.1330  136.8620 C   0  0  0  0  0  2  0  0  0  0  0  0
  180.3790  181.4110  137.5890 C   0  0  0  0  0  2  0  0  0  0  0  0
  181.5550  182.0000  138.3450 C   0  0  0  0  0  1  0  0  0  0  0  0
  188.6330  177.3510  141.2430 C   0  0  1  0  0  3  0  0  0  0  0  0
  186.9400  177.7900  139.5220 N   0  0  0  0  0  2  0  0  0  0  0  0
  188.2160  178.3170  137.5680 C   0  0  0  0  0  2  0  0  0  0  0  0
  188.1450  178.3130  140.1550 C   0  0  2  0  0  3  0  0  0  0  0  0
  189.4310  178.5580  138.8800 S   0  0  0  0  0  0  0  0  0  0  0  0
  186.8540  178.4160  138.2180 C   0  0  1  0  0  3  0  0  0  0  0  0
  185.8020  177.7090  137.3810 C   0  0  0  0  0  2  0  0  0  0  0  0
  186.4340  177.0740  136.1520 C   0  0  0  0  0  2  0  0  0  0  0  0
  186.0340  175.6800  136.0470 N   0  0  0  0  0  0  0  0  0  0  0  0
  184.3870  174.2870  137.1500 C   0  0  0  0  0  2  0  0  0  0  0  0
  184.6820  175.3170  136.3620 C   0  0  0  0  0  3  0  0  0  0  0  0
  187.0660  174.6860  135.7680 C   0  0  0  0  0  2  0  0  0  0  0  0
  188.1570  174.7490  136.8260 C   0  0  0  0  0  1  0  0  0  0  0  0
  190.9870  177.7700  141.7650 C   0  0  0  0  0  2  0  0  0  0  0  0
  190.0980  177.0400  141.1090 C   0  0  0  0  0  0  0  0  0  0  0  0
  190.5310  176.0060  140.2880 O   0  0  0  0  0  1  0  0  0  0  0  0
  3  9  1  0  0  0  0
  4 11  1  0  0  0  0
  5 10  1  0  0  0  0
  6  1  1  6  0  0  0
  6  3  1  0  0  0  0
  7  9  1  0  0  0  0
  8 30  1  6  0  0  0
  8 12  1  0  0  0  0
  8  4  1  0  0  0  0
  9  2  2  0  0  0  0
 10  7  1  0  0  0  0
 11  6  1  0  0  0  0
 11 10  2  0  0  0  0
 12 13  1  6  0  0  0
 12  1  1  0  0  0  0
 13 15  1  0  0  0  0
 14 15  2  0  0  0  0
 15 16  1  0  0  0  0
 18 17  2  0  0  0  0
 19 18  1  0  0  0  0
 19 16  1  0  0  0  0
 20 18  1  0  0  0  0
 21 22  1  1  0  0  0
 21 20  1  0  0  0  0
 23 21  1  0  0  0  0
 24 23  1  0  0  0  0
 25 24  1  0  0  0  0
 26 25  1  0  0  0  0
 27 28  1  0  0  0  0
 27 24  1  0  0  0  0
 28 29  1  0  0  0  0
 30 44  1  1  0  0  0
 31 33  1  0  0  0  0
 32 35  1  0  0  0  0
 32 34  1  0  0  0  0
 33 30  1  1  0  0  0
 34 33  1  0  0  0  0
 35 36  1  6  0  0  0
 35 31  1  0  0  0  0
 37 36  1  0  0  0  0
 38 37  1  0  0  0  0
 38 40  1  0  0  0  0
 40 39  2  0  0  0  0
 41 38  1  0  0  0  0
 41 42  1  0  0  0  0
 44 43  2  0  0  0  0
 45 44  1  0  0  0  0
M  END
>  <MODEL>
6

>  <REMARK>
 VINA RESULT:      -5.9      2.627      8.067
  Name = 
  18 active torsions:
  status: ('A' for Active; 'I' for Inactive)
    1  A    between atoms: C_1  and  C_11
    2  A    between atoms: C_1  and  N_14
    3  A    between atoms: C_3  and  C_27
    4  A    between atoms: C_3  and  C_30
    5  A    between atoms: C_3  and  C_33
    6  A    between atoms: C_7  and  C_12
    7  A    between atoms: C_7  and  N_14
    8  A    between atoms: N_10  and  C_18
    9  A    between atoms: C_12  and  N_23
   10  A    between atoms: N_14  and  C_17
   11  A    between atoms: C_15  and  C_24
   12  A    between atoms: C_15  and  C_42
   13  A    between atoms: N_16  and  C_24
   14  A    between atoms: N_16  and  C_26
   15  A    between atoms: N_16  and  C_43
   16  A    between atoms: C_18  and  C_45
   17  A    between atoms: C_38  and  O_41
   18  A    between atoms: O_41  and  C_45
                            x       y       z     vdW  Elec       q    Type
                         _______ _______ _______ _____ _____    ______ ____

>  <TORSDO>
F 18

$$$$
=
 OpenBabel11032420383D

 45 47  0  0  1  0  0  0  0  0999 V2000
  190.1230  176.4590  143.5420 C   0  0  0  0  0  2  0  0  0  0  0  0
  192.3130  176.3520  147.8520 O   0  0  0  0  0  0  0  0  0  0  0  0
  191.3630  176.3240  145.6980 C   0  0  0  0  0  2  0  0  0  0  0  0
  187.7790  177.2720  144.9450 N   0  0  0  0  0  2  0  0  0  0  0  0
  187.7880  177.7870  147.7340 C   0  0  0  0  0  1  0  0  0  0  0  0
  190.3260  177.1180  144.9020 C   0  0  2  0  0  3  0  0  0  0  0  0
  190.3490  177.6490  147.7170 C   0  0  0  0  0  2  0  0  0  0  0  0
  187.6770  176.8560  143.5470 C   0  0  2  0  0  3  0  0  0  0  0  0
  191.4010  176.7410  147.1430 C   0  0  0  0  0  0  0  0  0  0  0  0
  189.0470  177.5250  146.9780 C   0  0  0  0  0  0  0  0  0  0  0  0
  189.0230  177.2650  145.6600 C   0  0  0  0  0  0  0  0  0  0  0  0
  188.9760  177.1300  142.7910 C   0  0  2  0  0  3  0  0  0  0  0  0
  188.8780  176.5960  141.4740 O   0  0  0  0  0  0  0  0  0  0  0  0
  190.8640  176.2300  140.3460 O   0  0  0  0  0  0  0  0  0  0  0  0
  189.7980  176.8930  140.4680 C   0  0  0  0  0  0  0  0  0  0  0  0
  189.5140  178.0160  139.5350 C   0  0  0  0  0  2  0  0  0  0  0  0
  188.7250  179.4460  137.2030 O   0  0  0  0  0  0  0  0  0  0  0  0
  188.0390  178.4410  137.5280 C   0  0  0  0  0  0  0  0  0  0  0  0
  188.4020  177.6580  138.6670 N   0  0  0  0  0  2  0  0  0  0  0  0
  186.9030  178.0830  136.7330 N   0  0  0  0  0  2  0  0  0  0  0  0
  185.9840  176.9900  137.0420 C   0  0  1  0  0  3  0  0  0  0  0  0
  184.6910  177.5210  137.6370 C   0  0  0  0  0  1  0  0  0  0  0  0
  185.6930  176.1500  135.8070 C   0  0  0  0  0  2  0  0  0  0  0  0
  186.4600  174.9040  135.8530 N   0  0  0  0  0  0  0  0  0  0  0  0
  187.7620  175.0240  135.1830 C   0  0  0  0  0  2  0  0  0  0  0  0
  188.9550  174.8030  136.1100 C   0  0  0  0  0  1  0  0  0  0  0  0
  186.5850  174.3680  137.2180 C   0  0  0  0  0  2  0  0  0  0  0  0
  185.9210  173.0030  137.4170 C   0  0  0  0  0  2  0  0  0  0  0  0
  184.7700  172.8320  136.4450 C   0  0  0  0  0  1  0  0  0  0  0  0
  186.4620  177.4970  142.8560 C   0  0  1  0  0  3  0  0  0  0  0  0
  184.0600  177.8800  143.1810 N   0  0  0  0  0  2  0  0  0  0  0  0
  183.9530  179.9690  144.3420 C   0  0  0  0  0  2  0  0  0  0  0  0
  185.3530  177.8490  143.8540 C   0  0  2  0  0  3  0  0  0  0  0  0
  185.6650  179.4750  144.6250 S   0  0  0  0  0  0  0  0  0  0  0  0
  183.1920  178.7100  143.9930 C   0  0  1  0  0  3  0  0  0  0  0  0
  181.9280  179.0370  143.2180 C   0  0  0  0  0  2  0  0  0  0  0  0
  182.0910  178.6710  141.7500 C   0  0  0  0  0  2  0  0  0  0  0  0
  180.8200  178.8040  141.0560 N   0  0  0  0  0  0  0  0  0  0  0  0
  181.2720  176.8510  139.6950 C   0  0  0  0  0  2  0  0  0  0  0  0
  180.4350  177.7990  140.1070 C   0  0  0  0  0  3  0  0  0  0  0  0
  180.0560  180.0330  141.2470 C   0  0  0  0  0  2  0  0  0  0  0  0
  179.9380  180.7880  139.9310 C   0  0  0  0  0  1  0  0  0  0  0  0
  186.1020  179.0050  140.9620 C   0  0  0  0  0  2  0  0  0  0  0  0
  186.8500  178.6730  142.0030 C   0  0  0  0  0  0  0  0  0  0  0  0
  187.9970  179.4050  142.2850 O   0  0  0  0  0  1  0  0  0  0  0  0
  3  9  1  0  0  0  0
  4 11  1  0  0  0  0
  6  1  1  6  0  0  0
  6 11  1  0  0  0  0
  6  3  1  0  0  0  0
  8 30  1  6  0  0  0
  8  4  1  0  0  0  0
  9  7  1  0  0  0  0
  9  2  2  0  0  0  0
 10  7  1  0  0  0  0
 10  5  1  0  0  0  0
 11 10  2  0  0  0  0
 12 13  1  6  0  0  0
 12  1  1  0  0  0  0
 12  8  1  0  0  0  0
 14 15  2  0  0  0  0
 15 13  1  0  0  0  0
 16 15  1  0  0  0  0
 17 18  2  0  0  0  0
 18 19  1  0  0  0  0
 19 16  1  0  0  0  0
 20 21  1  0  0  0  0
 20 18  1  0  0  0  0
 21 22  1  6  0  0  0
 23 24  1  0  0  0  0
 23 21  1  0  0  0  0
 24 27  1  0  0  0  0
 25 24  1  0  0  0  0
 25 26  1  0  0  0  0
 27 28  1  0  0  0  0
 29 28  1  0  0  0  0
 30 44  1  1  0  0  0
 31 33  1  0  0  0  0
 31 35  1  0  0  0  0
 32 34  1  0  0  0  0
 33 30  1  6  0  0  0
 33 34  1  0  0  0  0
 35 36  1  6  0  0  0
 35 32  1  0  0  0  0
 37 36  1  0  0  0  0
 38 41  1  0  0  0  0
 38 37  1  0  0  0  0
 39 40  2  0  0  0  0
 40 38  1  0  0  0  0
 42 41  1  0  0  0  0
 43 44  2  0  0  0  0
 44 45  1  0  0  0  0
M  END
>  <MODEL>
7

>  <REMARK>
 VINA RESULT:      -5.8      3.066      7.500
  Name = 
  18 active torsions:
  status: ('A' for Active; 'I' for Inactive)
    1  A    between atoms: C_1  and  C_11
    2  A    between atoms: C_1  and  N_14
    3  A    between atoms: C_3  and  C_27
    4  A    between atoms: C_3  and  C_30
    5  A    between atoms: C_3  and  C_33
    6  A    between atoms: C_7  and  C_12
    7  A    between atoms: C_7  and  N_14
    8  A    between atoms: N_10  and  C_18
    9  A    between atoms: C_12  and  N_23
   10  A    between atoms: N_14  and  C_17
   11  A    between atoms: C_15  and  C_24
   12  A    between atoms: C_15  and  C_42
   13  A    between atoms: N_16  and  C_24
   14  A    between atoms: N_16  and  C_26
   15  A    between atoms: N_16  and  C_43
   16  A    between atoms: C_18  and  C_45
   17  A    between atoms: C_38  and  O_41
   18  A    between atoms: O_41  and  C_45
                            x       y       z     vdW  Elec       q    Type
                         _______ _______ _______ _____ _____    ______ ____

>  <TORSDO>
F 18

$$$$
=
 OpenBabel11032420383D

 45 47  0  0  1  0  0  0  0  0999 V2000
  189.0830  177.3550  141.3060 C   0  0  0  0  0  2  0  0  0  0  0  0
  192.0800  175.6420  144.6940 O   0  0  0  0  0  0  0  0  0  0  0  0
  190.7060  176.4060  142.9400 C   0  0  0  0  0  2  0  0  0  0  0  0
  187.2740  177.9170  143.4350 N   0  0  0  0  0  2  0  0  0  0  0  0
  187.9650  177.5070  146.1560 C   0  0  0  0  0  1  0  0  0  0  0  0
  189.6840  177.5180  142.6980 C   0  0  2  0  0  3  0  0  0  0  0  0
  190.3970  177.1130  145.4430 C   0  0  0  0  0  2  0  0  0  0  0  0
  186.8060  177.9840  142.0520 C   0  0  2  0  0  3  0  0  0  0  0  0
  191.1230  176.3310  144.3840 C   0  0  0  0  0  0  0  0  0  0  0  0
  188.9670  177.3700  145.0590 C   0  0  0  0  0  0  0  0  0  0  0  0
  188.6190  177.5510  143.7750 C   0  0  0  0  0  0  0  0  0  0  0  0
  187.9430  178.3480  141.0980 C   0  0  2  0  0  3  0  0  0  0  0  0
  187.4740  178.2770  139.7550 O   0  0  0  0  0  0  0  0  0  0  0  0
  189.0330  179.3760  138.4460 O   0  0  0  0  0  0  0  0  0  0  0  0
  188.3270  178.3520  138.6530 C   0  0  0  0  0  0  0  0  0  0  0  0
  188.3910  177.2040  137.7080 C   0  0  0  0  0  2  0  0  0  0  0  0
  187.6560  176.9810  134.9670 O   0  0  0  0  0  0  0  0  0  0  0  0
  186.7460  176.8370  135.8250 C   0  0  0  0  0  0  0  0  0  0  0  0
  187.0540  176.9010  137.2200 N   0  0  0  0  0  2  0  0  0  0  0  0
  185.4040  176.5910  135.3900 N   0  0  0  0  0  2  0  0  0  0  0  0
  184.2490  176.4820  136.2770 C   0  0  1  0  0  3  0  0  0  0  0  0
  183.1840  177.5000  135.9080 C   0  0  0  0  0  1  0  0  0  0  0  0
  183.6680  175.0750  136.2520 C   0  0  0  0  0  2  0  0  0  0  0  0
  182.3280  175.0740  136.8420 N   0  0  0  0  0  0  0  0  0  0  0  0
  181.4490  174.0660  136.2320 C   0  0  0  0  0  2  0  0  0  0  0  0
  181.7570  172.6360  136.6670 C   0  0  0  0  0  1  0  0  0  0  0  0
  182.3560  174.9710  138.3090 C   0  0  0  0  0  2  0  0  0  0  0  0
  181.1060  175.5240  138.9990 C   0  0  0  0  0  2  0  0  0  0  0  0
  180.4090  176.5260  138.0990 C   0  0  0  0  0  1  0  0  0  0  0  0
  185.6070  178.9370  141.9080 C   0  0  1  0  0  3  0  0  0  0  0  0
  184.5220  179.7810  139.8750 N   0  0  0  0  0  2  0  0  0  0  0  0
  182.2700  178.9930  140.0440 C   0  0  0  0  0  2  0  0  0  0  0  0
  184.7430  178.5920  140.6900 C   0  0  2  0  0  3  0  0  0  0  0  0
  183.1280  177.9150  141.2100 S   0  0  0  0  0  0  0  0  0  0  0  0
  183.3210  179.5340  139.1020 C   0  0  1  0  0  3  0  0  0  0  0  0
  182.8560  180.8270  138.4550 C   0  0  0  0  0  2  0  0  0  0  0  0
  181.3640  180.7730  138.1660 C   0  0  0  0  0  2  0  0  0  0  0  0
  181.0250  181.7110  137.1070 N   0  0  0  0  0  0  0  0  0  0  0  0
  180.6310  184.0240  136.5050 C   0  0  0  0  0  2  0  0  0  0  0  0
  180.8620  183.0990  137.4310 C   0  0  0  0  0  3  0  0  0  0  0  0
  180.7180  181.1750  135.7850 C   0  0  0  0  0  2  0  0  0  0  0  0
  180.1550  179.7670  135.9050 C   0  0  0  0  0  1  0  0  0  0  0  0
  184.6180  180.1960  143.7590 C   0  0  0  0  0  2  0  0  0  0  0  0
  184.7960  179.0230  143.1710 C   0  0  0  0  0  0  0  0  0  0  0  0
  184.2460  177.8800  143.7400 O   0  0  0  0  0  1  0  0  0  0  0  0
  3  9  1  0  0  0  0
  4 11  1  0  0  0  0
  6  1  1  6  0  0  0
  6  3  1  0  0  0  0
  6 11  1  0  0  0  0
  8 30  1  1  0  0  0
  8  4  1  0  0  0  0
  9  2  2  0  0  0  0
  9  7  1  0  0  0  0
 10  7  1  0  0  0  0
 10  5  1  0  0  0  0
 11 10  2  0  0  0  0
 12 13  1  6  0  0  0
 12  1  1  0  0  0  0
 12  8  1  0  0  0  0
 14 15  2  0  0  0  0
 15 13  1  0  0  0  0
 16 15  1  0  0  0  0
 17 18  2  0  0  0  0
 18 19  1  0  0  0  0
 19 16  1  0  0  0  0
 20 18  1  0  0  0  0
 20 21  1  0  0  0  0
 21 22  1  6  0  0  0
 23 21  1  0  0  0  0
 23 24  1  0  0  0  0
 24 27  1  0  0  0  0
 25 26  1  0  0  0  0
 25 24  1  0  0  0  0
 27 28  1  0  0  0  0
 29 28  1  0  0  0  0
 30 44  1  1  0  0  0
 31 33  1  0  0  0  0
 32 34  1  0  0  0  0
 33 34  1  0  0  0  0
 33 30  1  1  0  0  0
 35 36  1  1  0  0  0
 35 31  1  0  0  0  0
 35 32  1  0  0  0  0
 37 36  1  0  0  0  0
 38 40  1  0  0  0  0
 38 37  1  0  0  0  0
 39 40  2  0  0  0  0
 41 42  1  0  0  0  0
 41 38  1  0  0  0  0
 44 45  1  0  0  0  0
 44 43  2  0  0  0  0
M  END
>  <MODEL>
8

>  <REMARK>
 VINA RESULT:      -5.8      2.441      7.610
  Name = 
  18 active torsions:
  status: ('A' for Active; 'I' for Inactive)
    1  A    between atoms: C_1  and  C_11
    2  A    between atoms: C_1  and  N_14
    3  A    between atoms: C_3  and  C_27
    4  A    between atoms: C_3  and  C_30
    5  A    between atoms: C_3  and  C_33
    6  A    between atoms: C_7  and  C_12
    7  A    between atoms: C_7  and  N_14
    8  A    between atoms: N_10  and  C_18
    9  A    between atoms: C_12  and  N_23
   10  A    between atoms: N_14  and  C_17
   11  A    between atoms: C_15  and  C_24
   12  A    between atoms: C_15  and  C_42
   13  A    between atoms: N_16  and  C_24
   14  A    between atoms: N_16  and  C_26
   15  A    between atoms: N_16  and  C_43
   16  A    between atoms: C_18  and  C_45
   17  A    between atoms: C_38  and  O_41
   18  A    between atoms: O_41  and  C_45
                            x       y       z     vdW  Elec       q    Type
                         _______ _______ _______ _____ _____    ______ ____

>  <TORSDO>
F 18

$$$$
=
 OpenBabel11032420383D

 45 47  0  0  1  0  0  0  0  0999 V2000
  184.9740  176.1520  136.8340 C   0  0  0  0  0  2  0  0  0  0  0  0
  182.9320  171.8190  136.1650 O   0  0  0  0  0  0  0  0  0  0  0  0
  183.7870  173.9870  136.5060 C   0  0  0  0  0  2  0  0  0  0  0  0
  187.4160  174.7450  137.2530 N   0  0  0  0  0  2  0  0  0  0  0  0
  187.6150  171.9320  136.9410 C   0  0  0  0  0  1  0  0  0  0  0  0
  185.0790  174.7560  136.2290 C   0  0  2  0  0  3  0  0  0  0  0  0
  185.2720  171.9170  135.8980 C   0  0  0  0  0  2  0  0  0  0  0  0
  187.3320  176.1630  137.5940 C   0  0  2  0  0  3  0  0  0  0  0  0
  183.9280  172.5210  136.1960 C   0  0  0  0  0  0  0  0  0  0  0  0
  186.3820  172.6820  136.5610 C   0  0  0  0  0  0  0  0  0  0  0  0
  186.2990  174.0120  136.7320 C   0  0  0  0  0  0  0  0  0  0  0  0
  186.3070  176.8850  136.7190 C   0  0  2  0  0  3  0  0  0  0  0  0
  186.1650  178.2290  137.1690 O   0  0  0  0  0  0  0  0  0  0  0  0
  185.9960  178.8040  139.4030 O   0  0  0  0  0  0  0  0  0  0  0  0
  185.4270  178.5720  138.3020 C   0  0  0  0  0  0  0  0  0  0  0  0
  183.9450  178.6530  138.2030 C   0  0  0  0  0  2  0  0  0  0  0  0
  182.6250  176.5120  139.5370 O   0  0  0  0  0  0  0  0  0  0  0  0
  182.6910  177.6170  140.1380 C   0  0  0  0  0  0  0  0  0  0  0  0
  183.3710  178.7230  139.5390 N   0  0  0  0  0  2  0  0  0  0  0  0
  182.0930  177.7480  141.4320 N   0  0  0  0  0  2  0  0  0  0  0  0
  182.0340  178.9900  142.1990 C   0  0  1  0  0  3  0  0  0  0  0  0
  180.7550  179.7520  141.8970 C   0  0  0  0  0  1  0  0  0  0  0  0
  182.1500  178.7210  143.6930 C   0  0  0  0  0  2  0  0  0  0  0  0
  183.5580  178.5880  144.0720 N   0  0  0  0  0  0  0  0  0  0  0  0
  184.4580  179.2560  143.1210 C   0  0  0  0  0  2  0  0  0  0  0  0
  185.5490  178.3460  142.5620 C   0  0  0  0  0  1  0  0  0  0  0  0
  183.8110  179.0040  145.4600 C   0  0  0  0  0  2  0  0  0  0  0  0
  185.2940  179.1690  145.8030 C   0  0  0  0  0  2  0  0  0  0  0  0
  185.6640  178.2800  146.9760 C   0  0  0  0  0  1  0  0  0  0  0  0
  188.7120  176.8400  137.5400 C   0  0  1  0  0  3  0  0  0  0  0  0
  189.2360  176.8480  139.9380 N   0  0  0  0  0  2  0  0  0  0  0  0
  191.5710  177.3630  140.0240 C   0  0  0  0  0  2  0  0  0  0  0  0
  189.6470  176.3240  138.6410 C   0  0  2  0  0  3  0  0  0  0  0  0
  191.3730  176.8240  138.3130 S   0  0  0  0  0  0  0  0  0  0  0  0
  190.4030  176.7890  140.7950 C   0  0  1  0  0  3  0  0  0  0  0  0
  190.1460  177.5860  142.0620 C   0  0  0  0  0  2  0  0  0  0  0  0
  191.3630  177.5460  142.9740 C   0  0  0  0  0  2  0  0  0  0  0  0
  190.9830  177.0740  144.2960 N   0  0  0  0  0  0  0  0  0  0  0  0
  188.7900  177.4410  145.2590 C   0  0  0  0  0  2  0  0  0  0  0  0
  190.0430  177.8390  145.0660 C   0  0  0  0  0  3  0  0  0  0  0  0
  191.6880  175.9210  144.8450 C   0  0  0  0  0  2  0  0  0  0  0  0
  191.9870  176.1390  146.3200 C   0  0  0  0  0  1  0  0  0  0  0  0
  189.8830  175.6040  135.7810 C   0  0  0  0  0  2  0  0  0  0  0  0
  189.3370  176.7440  136.1770 C   0  0  0  0  0  0  0  0  0  0  0  0
  189.3660  177.8470  135.3310 O   0  0  0  0  0  1  0  0  0  0  0  0
  2  9  2  0  0  0  0
  4  8  1  0  0  0  0
  6  3  1  1  0  0  0
  6 11  1  0  0  0  0
  6  1  1  0  0  0  0
  7  9  1  0  0  0  0
  7 10  1  0  0  0  0
  8 30  1  6  0  0  0
  9  3  1  0  0  0  0
 10 11  2  0  0  0  0
 10  5  1  0  0  0  0
 11  4  1  0  0  0  0
 12  1  1  0  0  0  0
 12 13  1  1  0  0  0
 12  8  1  0  0  0  0
 13 15  1  0  0  0  0
 15 14  2  0  0  0  0
 16 15  1  0  0  0  0
 16 19  1  0  0  0  0
 17 18  2  0  0  0  0
 18 20  1  0  0  0  0
 19 18  1  0  0  0  0
 20 21  1  0  0  0  0
 21 22  1  1  0  0  0
 21 23  1  0  0  0  0
 23 24  1  0  0  0  0
 24 27  1  0  0  0  0
 25 24  1  0  0  0  0
 26 25  1  0  0  0  0
 27 28  1  0  0  0  0
 28 29  1  0  0  0  0
 30 44  1  6  0  0  0
 31 35  1  0  0  0  0
 32 35  1  0  0  0  0
 33 30  1  6  0  0  0
 33 31  1  0  0  0  0
 34 33  1  0  0  0  0
 34 32  1  0  0  0  0
 35 36  1  1  0  0  0
 36 37  1  0  0  0  0
 37 38  1  0  0  0  0
 38 41  1  0  0  0  0
 38 40  1  0  0  0  0
 40 39  2  0  0  0  0
 41 42  1  0  0  0  0
 43 44  2  0  0  0  0
 45 44  1  0  0  0  0
M  END
>  <MODEL>
9

>  <REMARK>
 VINA RESULT:      -5.7      2.855      8.709
  Name = 
  18 active torsions:
  status: ('A' for Active; 'I' for Inactive)
    1  A    between atoms: C_1  and  C_11
    2  A    between atoms: C_1  and  N_14
    3  A    between atoms: C_3  and  C_27
    4  A    between atoms: C_3  and  C_30
    5  A    between atoms: C_3  and  C_33
    6  A    between atoms: C_7  and  C_12
    7  A    between atoms: C_7  and  N_14
    8  A    between atoms: N_10  and  C_18
    9  A    between atoms: C_12  and  N_23
   10  A    between atoms: N_14  and  C_17
   11  A    between atoms: C_15  and  C_24
   12  A    between atoms: C_15  and  C_42
   13  A    between atoms: N_16  and  C_24
   14  A    between atoms: N_16  and  C_26
   15  A    between atoms: N_16  and  C_43
   16  A    between atoms: C_18  and  C_45
   17  A    between atoms: C_38  and  O_41
   18  A    between atoms: O_41  and  C_45
                            x       y       z     vdW  Elec       q    Type
                         _______ _______ _______ _____ _____    ______ ____

>  <TORSDO>
F 18

$$$$
