=
 OpenBabel11042412263D

 26 28  0  0  1  0  0  0  0  0999 V2000
  190.5370  176.5660  145.2500 N   0  0  0  0  0  2  0  0  0  0  0  0
  191.3770  178.2780  143.8980 O   0  0  0  0  0  0  0  0  0  0  0  0
  190.9300  177.1030  143.9830 C   0  0  0  0  0  0  0  0  0  0  0  0
  189.0190  176.1630  142.2350 S   0  0  0  0  0  0  0  0  0  0  0  0
  190.7910  176.2800  142.7450 C   0  0  1  0  0  3  0  0  0  0  0  0
  191.4940  177.7110  139.6300 N   0  0  0  0  0  0  0  0  0  0  0  0
  191.4450  176.9540  141.6100 C   0  0  0  0  0  0  0  0  0  0  0  0
  189.2730  177.0670  140.6340 C   0  0  2  0  0  3  0  0  0  0  0  0
  190.6940  177.3390  140.6060 N   0  0  0  0  0  0  0  0  0  0  0  0
  192.7430  177.5810  140.0730 N   0  0  0  0  0  0  0  0  0  0  0  0
  192.7470  177.0920  141.3140 N   0  0  0  0  0  0  0  0  0  0  0  0
  187.6260  178.3170  139.4700 C   0  0  0  0  0  1  0  0  0  0  0  0
  188.5110  178.3200  140.6260 N   0  0  0  0  0  0  0  0  0  0  0  0
  187.6260  178.3230  141.7820 C   0  0  0  0  0  1  0  0  0  0  0  0
  190.5220  177.3660  146.4680 C   0  0  1  0  0  3  0  0  0  0  0  0
  186.5040  178.5080  147.5000 C   0  0  0  0  0  3  0  0  0  0  0  0
  188.1360  177.7990  145.8570 C   0  0  0  0  0  3  0  0  0  0  0  0
  186.8270  178.1680  146.1830 C   0  0  0  0  0  0  0  0  0  0  0  0
  189.1250  177.7570  146.8470 C   0  0  0  0  0  0  0  0  0  0  0  0
  188.7960  178.0990  148.1680 C   0  0  0  0  0  3  0  0  0  0  0  0
  187.4880  178.4750  148.4930 C   0  0  0  0  0  3  0  0  0  0  0  0
  185.7810  178.2120  145.1270 C   0  0  0  0  0  1  0  0  0  0  0  0
  191.9760  177.6180  148.3700 O   0  0  0  0  0  1  0  0  0  0  0  0
  191.2720  176.6770  147.6160 C   0  0  2  0  0  3  0  0  0  0  0  0
  192.2000  175.5420  147.1710 C   0  0  0  0  0  2  0  0  0  0  0  0
  193.4200  175.5970  147.8490 O   0  0  0  0  0  1  0  0  0  0  0  0
  2  3  2  0  0  0  0
  3  1  1  0  0  0  0
  4  5  1  0  0  0  0
  5  3  1  1  0  0  0
  6 10  2  0  0  0  0
  6  9  1  0  0  0  0
  7  5  1  0  0  0  0
  8 13  1  1  0  0  0
  8  4  1  0  0  0  0
  9  8  1  0  0  0  0
  9  7  1  0  0  0  0
 10 11  1  0  0  0  0
 11  7  2  0  0  0  0
 12 13  1  0  0  0  0
 13 14  1  0  0  0  0
 15  1  1  6  0  0  0
 15 19  1  0  0  0  0
 15 24  1  0  0  0  0
 16 21  1  0  0  0  0
 17 18  1  0  0  0  0
 17 19  2  0  0  0  0
 18 16  2  0  0  0  0
 19 20  1  0  0  0  0
 20 21  2  0  0  0  0
 22 18  1  0  0  0  0
 24 23  1  6  0  0  0
 25 24  1  0  0  0  0
 25 26  1  0  0  0  0
M  END
>  <MODEL>
1

>  <REMARK>
 VINA RESULT:      -7.2      0.000      0.000
  Name = 
  6 active torsions:
  status: ('A' for Active; 'I' for Inactive)
    1  A    between atoms: C_5  and  C_26
    2  A    between atoms: C_6  and  C_16
    3  A    between atoms: C_6  and  C_18
    4  A    between atoms: N_8  and  C_10
    5  A    between atoms: N_12  and  C_16
    6  A    between atoms: C_15  and  C_16
                            x       y       z     vdW  Elec       q    Type
                         _______ _______ _______ _____ _____    ______ ____

>  <TORSDO>
F 6

$$$$
=
 OpenBabel11042412263D

 26 28  0  0  1  0  0  0  0  0999 V2000
  188.6630  177.9440  141.1800 N   0  0  0  0  0  2  0  0  0  0  0  0
  190.6810  177.5090  140.0840 O   0  0  0  0  0  0  0  0  0  0  0  0
  189.4920  177.9200  140.0140 C   0  0  0  0  0  0  0  0  0  0  0  0
  189.7510  177.4990  137.3040 S   0  0  0  0  0  0  0  0  0  0  0  0
  188.9600  178.4060  138.7060 C   0  0  1  0  0  3  0  0  0  0  0  0
  185.8550  177.2590  137.5700 N   0  0  0  0  0  0  0  0  0  0  0  0
  187.5300  178.0730  138.5840 C   0  0  0  0  0  0  0  0  0  0  0  0
  188.1700  176.7120  136.7350 C   0  0  2  0  0  3  0  0  0  0  0  0
  187.1700  177.2430  137.6340 N   0  0  0  0  0  0  0  0  0  0  0  0
  185.4240  178.0840  138.5220 N   0  0  0  0  0  0  0  0  0  0  0  0
  186.4560  178.6250  139.1710 N   0  0  0  0  0  0  0  0  0  0  0  0
  188.0480  174.6630  135.5450 C   0  0  0  0  0  1  0  0  0  0  0  0
  188.2490  175.2530  136.8610 N   0  0  0  0  0  0  0  0  0  0  0  0
  189.6120  174.9010  137.2320 C   0  0  0  0  0  1  0  0  0  0  0  0
  189.1680  177.6120  142.5060 C   0  0  1  0  0  3  0  0  0  0  0  0
  186.1310  177.9790  145.5320 C   0  0  0  0  0  3  0  0  0  0  0  0
  188.4550  177.7270  144.9010 C   0  0  0  0  0  3  0  0  0  0  0  0
  187.4750  177.8460  145.8910 C   0  0  0  0  0  0  0  0  0  0  0  0
  188.0980  177.7500  143.5480 C   0  0  0  0  0  0  0  0  0  0  0  0
  186.7460  177.8850  143.1920 C   0  0  0  0  0  3  0  0  0  0  0  0
  185.7650  177.9970  144.1820 C   0  0  0  0  0  3  0  0  0  0  0  0
  187.8610  177.8190  147.3270 C   0  0  0  0  0  1  0  0  0  0  0  0
  188.9400  175.2610  142.9730 O   0  0  0  0  0  1  0  0  0  0  0  0
  189.8410  176.2330  142.5350 C   0  0  2  0  0  3  0  0  0  0  0  0
  191.1320  176.1790  143.3590 C   0  0  0  0  0  2  0  0  0  0  0  0
  191.7950  177.4070  143.3320 O   0  0  0  0  0  1  0  0  0  0  0  0
  3  2  2  0  0  0  0
  3  1  1  0  0  0  0
  4  5  1  0  0  0  0
  5  3  1  1  0  0  0
  6  9  1  0  0  0  0
  6 10  2  0  0  0  0
  7  5  1  0  0  0  0
  7 11  2  0  0  0  0
  8 13  1  1  0  0  0
  8  4  1  0  0  0  0
  8  9  1  0  0  0  0
  9  7  1  0  0  0  0
 10 11  1  0  0  0  0
 12 13  1  0  0  0  0
 13 14  1  0  0  0  0
 15  1  1  6  0  0  0
 15 24  1  0  0  0  0
 15 19  1  0  0  0  0
 16 18  1  0  0  0  0
 17 18  2  0  0  0  0
 18 22  1  0  0  0  0
 19 17  1  0  0  0  0
 20 19  2  0  0  0  0
 20 21  1  0  0  0  0
 21 16  2  0  0  0  0
 24 23  1  1  0  0  0
 24 25  1  0  0  0  0
 26 25  1  0  0  0  0
M  END
>  <MODEL>
2

>  <REMARK>
 VINA RESULT:      -7.1      2.838      4.837
  Name = 
  6 active torsions:
  status: ('A' for Active; 'I' for Inactive)
    1  A    between atoms: C_5  and  C_26
    2  A    between atoms: C_6  and  C_16
    3  A    between atoms: C_6  and  C_18
    4  A    between atoms: N_8  and  C_10
    5  A    between atoms: N_12  and  C_16
    6  A    between atoms: C_15  and  C_16
                            x       y       z     vdW  Elec       q    Type
                         _______ _______ _______ _____ _____    ______ ____

>  <TORSDO>
F 6

$$$$
=
 OpenBabel11042412263D

 26 28  0  0  1  0  0  0  0  0999 V2000
  188.5840  177.4880  138.9660 N   0  0  0  0  0  2  0  0  0  0  0  0
  189.0300  179.5780  138.0220 O   0  0  0  0  0  0  0  0  0  0  0  0
  188.3510  178.5170  138.0010 C   0  0  0  0  0  0  0  0  0  0  0  0
  187.6190  176.8760  135.9130 S   0  0  0  0  0  0  0  0  0  0  0  0
  187.2810  178.3510  136.9730 C   0  0  1  0  0  3  0  0  0  0  0  0
  184.2310  176.8890  137.8700 N   0  0  0  0  0  0  0  0  0  0  0  0
  185.9960  178.0370  137.6210 C   0  0  0  0  0  0  0  0  0  0  0  0
  186.1050  175.9560  136.4640 C   0  0  2  0  0  3  0  0  0  0  0  0
  185.4500  176.8710  137.3740 N   0  0  0  0  0  0  0  0  0  0  0  0
  184.0610  178.0730  138.4540 N   0  0  0  0  0  0  0  0  0  0  0  0
  185.1510  178.8270  138.3030 N   0  0  0  0  0  0  0  0  0  0  0  0
  185.6250  173.6430  136.6890 C   0  0  0  0  0  1  0  0  0  0  0  0
  186.4810  174.7220  137.1620 N   0  0  0  0  0  0  0  0  0  0  0  0
  187.8250  174.3520  136.7420 C   0  0  0  0  0  1  0  0  0  0  0  0
  189.5180  177.6500  140.0730 C   0  0  1  0  0  3  0  0  0  0  0  0
  187.5840  176.9420  143.8520 C   0  0  0  0  0  3  0  0  0  0  0  0
  187.6290  178.0020  141.6750 C   0  0  0  0  0  3  0  0  0  0  0  0
  186.9930  177.7770  142.9000 C   0  0  0  0  0  0  0  0  0  0  0  0
  188.8530  177.3850  141.3920 C   0  0  0  0  0  0  0  0  0  0  0  0
  189.4430  176.5460  142.3500 C   0  0  0  0  0  3  0  0  0  0  0  0
  188.8100  176.3270  143.5790 C   0  0  0  0  0  3  0  0  0  0  0  0
  185.6940  178.4370  143.1950 C   0  0  0  0  0  1  0  0  0  0  0  0
  191.9120  177.5300  140.3010 O   0  0  0  0  0  1  0  0  0  0  0  0
  190.7900  176.8140  139.8780 C   0  0  2  0  0  3  0  0  0  0  0  0
  190.9910  176.2970  138.4500 C   0  0  0  0  0  2  0  0  0  0  0  0
  190.9310  174.9030  138.4080 O   0  0  0  0  0  1  0  0  0  0  0  0
  3  2  2  0  0  0  0
  3  1  1  0  0  0  0
  4  8  1  0  0  0  0
  4  5  1  0  0  0  0
  5  7  1  0  0  0  0
  5  3  1  1  0  0  0
  6 10  2  0  0  0  0
  7 11  2  0  0  0  0
  8 13  1  1  0  0  0
  8  9  1  0  0  0  0
  9  7  1  0  0  0  0
  9  6  1  0  0  0  0
 11 10  1  0  0  0  0
 12 13  1  0  0  0  0
 14 13  1  0  0  0  0
 15  1  1  6  0  0  0
 15 19  1  0  0  0  0
 17 18  1  0  0  0  0
 18 22  1  0  0  0  0
 18 16  2  0  0  0  0
 19 17  2  0  0  0  0
 19 20  1  0  0  0  0
 20 21  2  0  0  0  0
 21 16  1  0  0  0  0
 24 15  1  0  0  0  0
 24 23  1  6  0  0  0
 25 24  1  0  0  0  0
 26 25  1  0  0  0  0
M  END
>  <MODEL>
3

>  <REMARK>
 VINA RESULT:      -7.0      4.180      6.600
  Name = 
  6 active torsions:
  status: ('A' for Active; 'I' for Inactive)
    1  A    between atoms: C_5  and  C_26
    2  A    between atoms: C_6  and  C_16
    3  A    between atoms: C_6  and  C_18
    4  A    between atoms: N_8  and  C_10
    5  A    between atoms: N_12  and  C_16
    6  A    between atoms: C_15  and  C_16
                            x       y       z     vdW  Elec       q    Type
                         _______ _______ _______ _____ _____    ______ ____

>  <TORSDO>
F 6

$$$$
=
 OpenBabel11042412263D

 26 28  0  0  1  0  0  0  0  0999 V2000
  184.5140  178.4850  140.2580 N   0  0  0  0  0  2  0  0  0  0  0  0
  184.2380  180.4980  139.1040 O   0  0  0  0  0  0  0  0  0  0  0  0
  183.7370  179.4080  139.4900 C   0  0  0  0  0  0  0  0  0  0  0  0
  181.5000  178.2020  140.5540 S   0  0  0  0  0  0  0  0  0  0  0  0
  182.3150  179.0960  139.1570 C   0  0  1  0  0  3  0  0  0  0  0  0
  179.8820  181.5920  139.4610 N   0  0  0  0  0  0  0  0  0  0  0  0
  181.5380  180.3410  139.0300 C   0  0  0  0  0  0  0  0  0  0  0  0
  180.2770  179.5560  140.8940 C   0  0  2  0  0  3  0  0  0  0  0  0
  180.5670  180.5520  139.8860 N   0  0  0  0  0  0  0  0  0  0  0  0
  180.4760  182.0310  138.3550 N   0  0  0  0  0  0  0  0  0  0  0  0
  181.5170  181.2550  138.0470 N   0  0  0  0  0  0  0  0  0  0  0  0
  179.2200  180.0760  142.9540 C   0  0  0  0  0  1  0  0  0  0  0  0
  180.4870  180.1100  142.2360 N   0  0  0  0  0  0  0  0  0  0  0  0
  181.3640  179.2100  142.9700 C   0  0  0  0  0  1  0  0  0  0  0  0
  185.8590  178.7940  140.7260 C   0  0  1  0  0  3  0  0  0  0  0  0
  186.3160  177.7980  144.8880 C   0  0  0  0  0  3  0  0  0  0  0  0
  185.0400  178.7990  143.0900 C   0  0  0  0  0  3  0  0  0  0  0  0
  185.1790  178.4800  144.4440 C   0  0  0  0  0  0  0  0  0  0  0  0
  186.0300  178.4310  142.1720 C   0  0  0  0  0  0  0  0  0  0  0  0
  187.1700  177.7460  142.6220 C   0  0  0  0  0  3  0  0  0  0  0  0
  187.3130  177.4330  143.9780 C   0  0  0  0  0  3  0  0  0  0  0  0
  184.1250  178.8750  145.4150 C   0  0  0  0  0  1  0  0  0  0  0  0
  188.1160  178.9120  139.8970 O   0  0  0  0  0  1  0  0  0  0  0  0
  186.9360  178.1680  139.8310 C   0  0  2  0  0  3  0  0  0  0  0  0
  186.5070  177.9690  138.3740 C   0  0  0  0  0  2  0  0  0  0  0  0
  187.1120  178.9120  137.5400 O   0  0  0  0  0  1  0  0  0  0  0  0
  2  3  2  0  0  0  0
  3  1  1  0  0  0  0
  4  8  1  0  0  0  0
  5  3  1  1  0  0  0
  5  4  1  0  0  0  0
  6  9  1  0  0  0  0
  7  5  1  0  0  0  0
  7  9  1  0  0  0  0
  8 13  1  1  0  0  0
  9  8  1  0  0  0  0
 10  6  2  0  0  0  0
 11 10  1  0  0  0  0
 11  7  2  0  0  0  0
 13 12  1  0  0  0  0
 13 14  1  0  0  0  0
 15  1  1  6  0  0  0
 15 19  1  0  0  0  0
 17 18  2  0  0  0  0
 18 16  1  0  0  0  0
 18 22  1  0  0  0  0
 19 20  2  0  0  0  0
 19 17  1  0  0  0  0
 20 21  1  0  0  0  0
 21 16  2  0  0  0  0
 24 23  1  6  0  0  0
 24 15  1  0  0  0  0
 25 24  1  0  0  0  0
 26 25  1  0  0  0  0
M  END
>  <MODEL>
4

>  <REMARK>
 VINA RESULT:      -6.9      5.739      8.748
  Name = 
  6 active torsions:
  status: ('A' for Active; 'I' for Inactive)
    1  A    between atoms: C_5  and  C_26
    2  A    between atoms: C_6  and  C_16
    3  A    between atoms: C_6  and  C_18
    4  A    between atoms: N_8  and  C_10
    5  A    between atoms: N_12  and  C_16
    6  A    between atoms: C_15  and  C_16
                            x       y       z     vdW  Elec       q    Type
                         _______ _______ _______ _____ _____    ______ ____

>  <TORSDO>
F 6

$$$$
=
 OpenBabel11042412263D

 26 28  0  0  1  0  0  0  0  0999 V2000
  189.3180  176.8420  144.8750 N   0  0  0  0  0  2  0  0  0  0  0  0
  190.6610  178.4470  143.8350 O   0  0  0  0  0  0  0  0  0  0  0  0
  190.1420  177.2990  143.7990 C   0  0  0  0  0  0  0  0  0  0  0  0
  188.8330  176.2690  141.6050 S   0  0  0  0  0  0  0  0  0  0  0  0
  190.3750  176.4260  142.6100 C   0  0  1  0  0  3  0  0  0  0  0  0
  191.9690  177.7410  139.7860 N   0  0  0  0  0  0  0  0  0  0  0  0
  191.3360  177.0630  141.6930 C   0  0  0  0  0  0  0  0  0  0  0  0
  189.5500  177.1110  140.1140 C   0  0  2  0  0  3  0  0  0  0  0  0
  190.9150  177.3980  140.4960 N   0  0  0  0  0  0  0  0  0  0  0  0
  193.0310  177.6440  140.5830 N   0  0  0  0  0  0  0  0  0  0  0  0
  192.6670  177.2050  141.7890 N   0  0  0  0  0  0  0  0  0  0  0  0
  188.0520  178.1700  138.6090 C   0  0  0  0  0  1  0  0  0  0  0  0
  188.8250  178.3540  139.8290 N   0  0  0  0  0  0  0  0  0  0  0  0
  187.8370  178.5560  140.8790 C   0  0  0  0  0  1  0  0  0  0  0  0
  188.9450  177.6980  145.9940 C   0  0  1  0  0  3  0  0  0  0  0  0
  184.7360  178.5880  145.9120 C   0  0  0  0  0  3  0  0  0  0  0  0
  186.8040  178.0790  144.7590 C   0  0  0  0  0  3  0  0  0  0  0  0
  185.4360  178.3670  144.7220 C   0  0  0  0  0  0  0  0  0  0  0  0
  187.4760  178.0000  145.9840 C   0  0  0  0  0  0  0  0  0  0  0  0
  186.7690  178.2220  147.1760 C   0  0  0  0  0  3  0  0  0  0  0  0
  185.4020  178.5170  147.1400 C   0  0  0  0  0  3  0  0  0  0  0  0
  184.7280  178.4520  143.4180 C   0  0  0  0  0  1  0  0  0  0  0  0
  189.5570  178.1480  148.2790 O   0  0  0  0  0  1  0  0  0  0  0  0
  189.4190  177.1260  147.3360 C   0  0  2  0  0  3  0  0  0  0  0  0
  190.7060  176.2990  147.2500 C   0  0  0  0  0  2  0  0  0  0  0  0
  191.8070  177.0360  147.6910 O   0  0  0  0  0  1  0  0  0  0  0  0
  3  2  2  0  0  0  0
  3  1  1  0  0  0  0
  4  5  1  0  0  0  0
  5  3  1  1  0  0  0
  6  9  1  0  0  0  0
  6 10  2  0  0  0  0
  7 11  2  0  0  0  0
  7  5  1  0  0  0  0
  8 13  1  1  0  0  0
  8  9  1  0  0  0  0
  8  4  1  0  0  0  0
  9  7  1  0  0  0  0
 10 11  1  0  0  0  0
 12 13  1  0  0  0  0
 13 14  1  0  0  0  0
 15  1  1  6  0  0  0
 15 24  1  0  0  0  0
 16 21  1  0  0  0  0
 17 19  2  0  0  0  0
 18 17  1  0  0  0  0
 18 16  2  0  0  0  0
 19 15  1  0  0  0  0
 19 20  1  0  0  0  0
 21 20  2  0  0  0  0
 22 18  1  0  0  0  0
 24 23  1  1  0  0  0
 25 24  1  0  0  0  0
 25 26  1  0  0  0  0
M  END
>  <MODEL>
5

>  <REMARK>
 VINA RESULT:      -6.8      1.000      1.511
  Name = 
  6 active torsions:
  status: ('A' for Active; 'I' for Inactive)
    1  A    between atoms: C_5  and  C_26
    2  A    between atoms: C_6  and  C_16
    3  A    between atoms: C_6  and  C_18
    4  A    between atoms: N_8  and  C_10
    5  A    between atoms: N_12  and  C_16
    6  A    between atoms: C_15  and  C_16
                            x       y       z     vdW  Elec       q    Type
                         _______ _______ _______ _____ _____    ______ ____

>  <TORSDO>
F 6

$$$$
=
 OpenBabel11042412263D

 26 28  0  0  1  0  0  0  0  0999 V2000
  187.5960  177.9800  143.0180 N   0  0  0  0  0  2  0  0  0  0  0  0
  188.6800  176.1220  142.1060 O   0  0  0  0  0  0  0  0  0  0  0  0
  188.4530  177.3600  142.0550 C   0  0  0  0  0  0  0  0  0  0  0  0
  190.7710  177.5030  140.5750 S   0  0  0  0  0  0  0  0  0  0  0  0
  189.1050  178.1830  140.9930 C   0  0  1  0  0  3  0  0  0  0  0  0
  188.1850  177.7320  137.6480 N   0  0  0  0  0  0  0  0  0  0  0  0
  188.3500  178.0770  139.7330 C   0  0  0  0  0  0  0  0  0  0  0  0
  190.3140  177.0740  138.8280 C   0  0  2  0  0  3  0  0  0  0  0  0
  188.9460  177.5270  138.7020 N   0  0  0  0  0  0  0  0  0  0  0  0
  187.1010  178.3810  138.0640 N   0  0  0  0  0  0  0  0  0  0  0  0
  187.1800  178.6280  139.3720 N   0  0  0  0  0  0  0  0  0  0  0  0
  189.4550  175.2570  137.5670 C   0  0  0  0  0  1  0  0  0  0  0  0
  190.3950  175.6250  138.6170 N   0  0  0  0  0  0  0  0  0  0  0  0
  191.7100  175.3150  138.0770 C   0  0  0  0  0  1  0  0  0  0  0  0
  187.0410  177.2550  144.1540 C   0  0  1  0  0  3  0  0  0  0  0  0
  189.7390  177.3340  147.5050 C   0  0  0  0  0  3  0  0  0  0  0  0
  189.3400  177.1030  145.1280 C   0  0  0  0  0  3  0  0  0  0  0  0
  190.2250  177.1280  146.2110 C   0  0  0  0  0  0  0  0  0  0  0  0
  187.9690  177.2950  145.3320 C   0  0  0  0  0  0  0  0  0  0  0  0
  187.4860  177.5030  146.6340 C   0  0  0  0  0  3  0  0  0  0  0  0
  188.3700  177.5200  147.7180 C   0  0  0  0  0  3  0  0  0  0  0  0
  191.6800  176.9210  145.9880 C   0  0  0  0  0  1  0  0  0  0  0  0
  184.8650  177.8900  143.3430 O   0  0  0  0  0  1  0  0  0  0  0  0
  185.6250  177.7320  144.5040 C   0  0  2  0  0  3  0  0  0  0  0  0
  185.5820  179.0070  145.3520 C   0  0  0  0  0  2  0  0  0  0  0  0
  184.4760  179.0030  146.2060 O   0  0  0  0  0  1  0  0  0  0  0  0
  3  2  2  0  0  0  0
  3  1  1  0  0  0  0
  4  5  1  0  0  0  0
  5  3  1  1  0  0  0
  6 10  2  0  0  0  0
  6  9  1  0  0  0  0
  7  5  1  0  0  0  0
  8 13  1  1  0  0  0
  8  4  1  0  0  0  0
  9  8  1  0  0  0  0
  9  7  1  0  0  0  0
 10 11  1  0  0  0  0
 11  7  2  0  0  0  0
 12 13  1  0  0  0  0
 14 13  1  0  0  0  0
 15  1  1  6  0  0  0
 15 24  1  0  0  0  0
 15 19  1  0  0  0  0
 16 21  1  0  0  0  0
 17 19  2  0  0  0  0
 17 18  1  0  0  0  0
 18 16  2  0  0  0  0
 19 20  1  0  0  0  0
 20 21  2  0  0  0  0
 22 18  1  0  0  0  0
 24 23  1  6  0  0  0
 24 25  1  0  0  0  0
 25 26  1  0  0  0  0
M  END
>  <MODEL>
6

>  <REMARK>
 VINA RESULT:      -6.6      2.956      4.830
  Name = 
  6 active torsions:
  status: ('A' for Active; 'I' for Inactive)
    1  A    between atoms: C_5  and  C_26
    2  A    between atoms: C_6  and  C_16
    3  A    between atoms: C_6  and  C_18
    4  A    between atoms: N_8  and  C_10
    5  A    between atoms: N_12  and  C_16
    6  A    between atoms: C_15  and  C_16
                            x       y       z     vdW  Elec       q    Type
                         _______ _______ _______ _____ _____    ______ ____

>  <TORSDO>
F 6

$$$$
=
 OpenBabel11042412263D

 26 28  0  0  1  0  0  0  0  0999 V2000
  186.0730  177.9620  143.2880 N   0  0  0  0  0  2  0  0  0  0  0  0
  188.0960  178.5380  142.2710 O   0  0  0  0  0  0  0  0  0  0  0  0
  187.4610  177.7470  143.0180 C   0  0  0  0  0  0  0  0  0  0  0  0
  189.5950  176.0700  142.5430 S   0  0  0  0  0  0  0  0  0  0  0  0
  188.1650  176.5670  143.6030 C   0  0  1  0  0  3  0  0  0  0  0  0
  190.4080  177.0290  146.2480 N   0  0  0  0  0  0  0  0  0  0  0  0
  188.7840  176.9310  144.8890 C   0  0  0  0  0  0  0  0  0  0  0  0
  190.8690  176.4510  143.8380 C   0  0  2  0  0  3  0  0  0  0  0  0
  190.0910  176.8810  144.9790 N   0  0  0  0  0  0  0  0  0  0  0  0
  189.2730  177.2060  146.9200 N   0  0  0  0  0  0  0  0  0  0  0  0
  188.2280  177.1350  146.0940 N   0  0  0  0  0  0  0  0  0  0  0  0
  191.7560  177.5450  141.9280 C   0  0  0  0  0  1  0  0  0  0  0  0
  191.7530  177.5300  143.3840 N   0  0  0  0  0  0  0  0  0  0  0  0
  191.1600  178.8000  143.7770 C   0  0  0  0  0  1  0  0  0  0  0  0
  185.3030  179.0150  142.6390 C   0  0  1  0  0  3  0  0  0  0  0  0
  183.7950  177.6870  138.8340 C   0  0  0  0  0  3  0  0  0  0  0  0
  183.6130  177.8080  141.2460 C   0  0  0  0  0  3  0  0  0  0  0  0
  183.1150  177.3720  140.0140 C   0  0  0  0  0  0  0  0  0  0  0  0
  184.7860  178.5680  141.3030 C   0  0  0  0  0  0  0  0  0  0  0  0
  185.4650  178.8830  140.1160 C   0  0  0  0  0  3  0  0  0  0  0  0
  184.9710  178.4420  138.8840 C   0  0  0  0  0  3  0  0  0  0  0  0
  181.8690  176.5620  139.9590 C   0  0  0  0  0  1  0  0  0  0  0  0
  184.6160  180.7230  144.1900 O   0  0  0  0  0  1  0  0  0  0  0  0
  184.1930  179.5580  143.5480 C   0  0  2  0  0  3  0  0  0  0  0  0
  183.6630  178.5450  144.5680 C   0  0  0  0  0  2  0  0  0  0  0  0
  183.9070  178.9750  145.8740 O   0  0  0  0  0  1  0  0  0  0  0  0
  2  3  2  0  0  0  0
  3  1  1  0  0  0  0
  4  5  1  0  0  0  0
  4  8  1  0  0  0  0
  5  3  1  6  0  0  0
  5  7  1  0  0  0  0
  6 10  2  0  0  0  0
  7  9  1  0  0  0  0
  7 11  2  0  0  0  0
  8 13  1  6  0  0  0
  8  9  1  0  0  0  0
  9  6  1  0  0  0  0
 11 10  1  0  0  0  0
 12 13  1  0  0  0  0
 13 14  1  0  0  0  0
 15  1  1  1  0  0  0
 15 24  1  0  0  0  0
 16 21  2  0  0  0  0
 16 18  1  0  0  0  0
 17 19  1  0  0  0  0
 18 17  2  0  0  0  0
 19 15  1  0  0  0  0
 20 19  2  0  0  0  0
 21 20  1  0  0  0  0
 22 18  1  0  0  0  0
 24 23  1  1  0  0  0
 24 25  1  0  0  0  0
 25 26  1  0  0  0  0
M  END
>  <MODEL>
7

>  <REMARK>
 VINA RESULT:      -6.5      3.409      6.683
  Name = 
  6 active torsions:
  status: ('A' for Active; 'I' for Inactive)
    1  A    between atoms: C_5  and  C_26
    2  A    between atoms: C_6  and  C_16
    3  A    between atoms: C_6  and  C_18
    4  A    between atoms: N_8  and  C_10
    5  A    between atoms: N_12  and  C_16
    6  A    between atoms: C_15  and  C_16
                            x       y       z     vdW  Elec       q    Type
                         _______ _______ _______ _____ _____    ______ ____

>  <TORSDO>
F 6

$$$$
=
 OpenBabel11042412263D

 26 28  0  0  1  0  0  0  0  0999 V2000
  189.3000  176.8860  139.8470 N   0  0  0  0  0  2  0  0  0  0  0  0
  189.2610  178.6300  141.4020 O   0  0  0  0  0  0  0  0  0  0  0  0
  189.0720  177.4080  141.1590 C   0  0  0  0  0  0  0  0  0  0  0  0
  190.0840  175.8480  143.1920 S   0  0  0  0  0  0  0  0  0  0  0  0
  188.6280  176.5020  142.2600 C   0  0  1  0  0  3  0  0  0  0  0  0
  187.4470  177.8720  145.2560 N   0  0  0  0  0  0  0  0  0  0  0  0
  187.8710  177.2620  143.2700 C   0  0  0  0  0  0  0  0  0  0  0  0
  189.6190  176.6810  144.7830 C   0  0  2  0  0  3  0  0  0  0  0  0
  188.3720  177.3480  144.4790 N   0  0  0  0  0  0  0  0  0  0  0  0
  186.3920  178.1360  144.4890 N   0  0  0  0  0  0  0  0  0  0  0  0
  186.6210  177.7500  143.2330 N   0  0  0  0  0  0  0  0  0  0  0  0
  191.5050  177.0550  146.1740 C   0  0  0  0  0  1  0  0  0  0  0  0
  190.6420  177.6590  145.1680 N   0  0  0  0  0  0  0  0  0  0  0  0
  191.5040  177.8930  144.0190 C   0  0  0  0  0  1  0  0  0  0  0  0
  189.8610  177.6910  138.7710 C   0  0  1  0  0  3  0  0  0  0  0  0
  192.9090  175.5300  136.6370 C   0  0  0  0  0  3  0  0  0  0  0  0
  190.6840  176.4800  136.7430 C   0  0  0  0  0  3  0  0  0  0  0  0
  191.6690  175.7770  136.0420 C   0  0  0  0  0  0  0  0  0  0  0  0
  190.9380  176.9480  138.0370 C   0  0  0  0  0  0  0  0  0  0  0  0
  192.1860  176.6990  138.6310 C   0  0  0  0  0  3  0  0  0  0  0  0
  193.1680  175.9890  137.9320 C   0  0  0  0  0  3  0  0  0  0  0  0
  191.3920  175.2800  134.6680 C   0  0  0  0  0  1  0  0  0  0  0  0
  188.7970  179.6270  137.8110 O   0  0  0  0  0  1  0  0  0  0  0  0
  188.7740  178.2300  137.8310 C   0  0  2  0  0  3  0  0  0  0  0  0
  187.3630  177.7210  138.1420 C   0  0  0  0  0  2  0  0  0  0  0  0
  186.6030  178.7050  138.7780 O   0  0  0  0  0  1  0  0  0  0  0  0
  1  3  1  0  0  0  0
  3  2  2  0  0  0  0
  4  8  1  0  0  0  0
  5  3  1  6  0  0  0
  5  4  1  0  0  0  0
  5  7  1  0  0  0  0
  7  9  1  0  0  0  0
  8 13  1  6  0  0  0
  9  8  1  0  0  0  0
  9  6  1  0  0  0  0
 10  6  2  0  0  0  0
 11  7  2  0  0  0  0
 11 10  1  0  0  0  0
 13 12  1  0  0  0  0
 14 13  1  0  0  0  0
 15  1  1  1  0  0  0
 16 21  1  0  0  0  0
 17 19  2  0  0  0  0
 18 16  2  0  0  0  0
 18 17  1  0  0  0  0
 19 20  1  0  0  0  0
 19 15  1  0  0  0  0
 21 20  2  0  0  0  0
 22 18  1  0  0  0  0
 24 23  1  1  0  0  0
 24 25  1  0  0  0  0
 24 15  1  0  0  0  0
 25 26  1  0  0  0  0
M  END
>  <MODEL>
8

>  <REMARK>
 VINA RESULT:      -6.5      3.594      8.287
  Name = 
  6 active torsions:
  status: ('A' for Active; 'I' for Inactive)
    1  A    between atoms: C_5  and  C_26
    2  A    between atoms: C_6  and  C_16
    3  A    between atoms: C_6  and  C_18
    4  A    between atoms: N_8  and  C_10
    5  A    between atoms: N_12  and  C_16
    6  A    between atoms: C_15  and  C_16
                            x       y       z     vdW  Elec       q    Type
                         _______ _______ _______ _____ _____    ______ ____

>  <TORSDO>
F 6

$$$$
=
 OpenBabel11042412263D

 26 28  0  0  1  0  0  0  0  0999 V2000
  189.6240  176.8740  141.4540 N   0  0  0  0  0  2  0  0  0  0  0  0
  189.8050  178.3630  139.6620 O   0  0  0  0  0  0  0  0  0  0  0  0
  189.7130  177.1700  140.0580 C   0  0  0  0  0  0  0  0  0  0  0  0
  188.1690  176.2060  137.9910 S   0  0  0  0  0  0  0  0  0  0  0  0
  189.6730  176.0660  139.0530 C   0  0  1  0  0  3  0  0  0  0  0  0
  191.6240  176.2930  136.1570 N   0  0  0  0  0  0  0  0  0  0  0  0
  190.7930  176.2010  138.1050 C   0  0  0  0  0  0  0  0  0  0  0  0
  189.1260  176.5020  136.4280 C   0  0  2  0  0  3  0  0  0  0  0  0
  190.5090  176.4240  136.8450 N   0  0  0  0  0  0  0  0  0  0  0  0
  192.5940  176.0250  137.0270 N   0  0  0  0  0  0  0  0  0  0  0  0
  192.1010  175.9450  138.2640 N   0  0  0  0  0  0  0  0  0  0  0  0
  188.1760  177.6730  134.5970 C   0  0  0  0  0  1  0  0  0  0  0  0
  188.8270  177.8330  135.8890 N   0  0  0  0  0  0  0  0  0  0  0  0
  187.8290  178.4580  136.7440 C   0  0  0  0  0  1  0  0  0  0  0  0
  189.5210  177.9140  142.4700 C   0  0  1  0  0  3  0  0  0  0  0  0
  185.6570  177.8810  144.3630 C   0  0  0  0  0  3  0  0  0  0  0  0
  187.0390  178.2160  142.4030 C   0  0  0  0  0  3  0  0  0  0  0  0
  185.7790  178.2070  143.0090 C   0  0  0  0  0  0  0  0  0  0  0  0
  188.1800  177.8890  143.1430 C   0  0  0  0  0  0  0  0  0  0  0  0
  188.0530  177.5610  144.5020 C   0  0  0  0  0  3  0  0  0  0  0  0
  186.7940  177.5590  145.1110 C   0  0  0  0  0  3  0  0  0  0  0  0
  184.5700  178.5580  142.2180 C   0  0  0  0  0  1  0  0  0  0  0  0
  191.2680  179.1170  143.6100 O   0  0  0  0  0  1  0  0  0  0  0  0
  190.6830  177.8560  143.4700 C   0  0  2  0  0  3  0  0  0  0  0  0
  191.7460  176.8040  143.1400 C   0  0  0  0  0  2  0  0  0  0  0  0
  191.6680  175.7200  144.0180 O   0  0  0  0  0  1  0  0  0  0  0  0
  2  3  2  0  0  0  0
  3  1  1  0  0  0  0
  4  5  1  0  0  0  0
  5  3  1  1  0  0  0
  6  9  1  0  0  0  0
  6 10  2  0  0  0  0
  7 11  2  0  0  0  0
  7  5  1  0  0  0  0
  8 13  1  1  0  0  0
  8  9  1  0  0  0  0
  8  4  1  0  0  0  0
  9  7  1  0  0  0  0
 10 11  1  0  0  0  0
 12 13  1  0  0  0  0
 13 14  1  0  0  0  0
 15  1  1  6  0  0  0
 15 19  1  0  0  0  0
 15 24  1  0  0  0  0
 16 21  1  0  0  0  0
 17 18  1  0  0  0  0
 17 19  2  0  0  0  0
 18 16  2  0  0  0  0
 19 20  1  0  0  0  0
 20 21  2  0  0  0  0
 22 18  1  0  0  0  0
 24 23  1  6  0  0  0
 25 24  1  0  0  0  0
 25 26  1  0  0  0  0
M  END
>  <MODEL>
9

>  <REMARK>
 VINA RESULT:      -6.5      2.808      4.051
  Name = 
  6 active torsions:
  status: ('A' for Active; 'I' for Inactive)
    1  A    between atoms: C_5  and  C_26
    2  A    between atoms: C_6  and  C_16
    3  A    between atoms: C_6  and  C_18
    4  A    between atoms: N_8  and  C_10
    5  A    between atoms: N_12  and  C_16
    6  A    between atoms: C_15  and  C_16
                            x       y       z     vdW  Elec       q    Type
                         _______ _______ _______ _____ _____    ______ ____

>  <TORSDO>
F 6

$$$$
