=
 OpenBabel11042412383D

 43 49  0  0  1  0  0  0  0  0999 V2000
  194.8930  174.5600  135.6890 C   0  0  0  0  0  2  0  0  0  0  0  0
  190.2890  177.0910  139.6320 C   0  0  1  0  0  3  0  0  0  0  0  0
  190.4100  176.0220  137.4700 C   0  0  0  0  0  0  0  0  0  0  0  0
  191.1940  176.5960  138.5570 C   0  0  0  0  0  0  0  0  0  0  0  0
  193.9480  174.7350  137.9950 C   0  0  0  0  0  3  0  0  0  0  0  0
  194.6190  174.0280  137.0790 C   0  0  0  0  0  0  0  0  0  0  0  0
  188.8680  176.8530  139.1110 C   0  0  2  0  0  3  0  0  0  0  0  0
  194.5140  176.0410  135.4870 C   0  0  0  0  0  2  0  0  0  0  0  0
  193.5400  176.1520  137.7230 C   0  0  1  0  0  3  0  0  0  0  0  0
  192.1410  175.5920  135.7700 N   0  0  0  0  0  2  0  0  0  0  0  0
  193.2450  176.4130  136.2540 C   0  0  2  0  0  3  0  0  0  0  0  0
  190.8070  175.5590  136.2820 C   0  0  0  0  0  3  0  0  0  0  0  0
  192.5210  176.6790  138.6760 C   0  0  0  0  0  3  0  0  0  0  0  0
  195.0240  172.7370  137.3920 O   0  0  0  0  0  1  0  0  0  0  0  0
  188.9740  176.0190  137.8300 C   0  0  0  0  0  2  0  0  0  0  0  0
  188.1730  178.1860  138.8270 C   0  0  2  0  0  3  0  0  0  0  0  0
  189.0670  179.0980  138.2600 O   0  0  0  0  0  1  0  0  0  0  0  0
  187.5950  178.7510  140.0450 N   0  0  0  0  0  2  0  0  0  0  0  0
  185.7770  178.7350  141.7260 C   0  0  0  0  0  3  0  0  0  0  0  0
  183.4900  178.6350  140.9790 C   0  0  0  0  0  0  0  0  0  0  0  0
  185.2460  178.6500  139.3790 C   0  0  0  0  0  3  0  0  0  0  0  0
  183.9220  178.6090  139.6880 N   0  0  0  0  0  0  0  0  0  0  0  0
  184.4140  178.6920  142.0240 C   0  0  0  0  0  3  0  0  0  0  0  0
  186.2050  178.7150  140.3930 C   0  0  0  0  0  0  0  0  0  0  0  0
  182.0350  178.5540  141.2760 C   0  0  0  0  0  2  0  0  0  0  0  0
  179.1830  177.8060  141.3450 C   0  0  0  0  0  2  0  0  0  0  0  0
  179.9290  178.4430  140.1970 C   0  0  1  0  0  3  0  0  0  0  0  0
  181.3300  178.0050  140.1260 N   0  0  0  0  0  0  0  0  0  0  0  0
  180.3000  177.0770  140.6270 C   0  0  1  0  0  0  0  0  0  0  0  0
  179.3000  174.9580  140.1080 O   0  0  0  0  0  1  0  0  0  0  0  0
  180.9460  175.7620  138.6010 C   0  0  0  0  0  1  0  0  0  0  0  0
  179.8090  176.1270  139.5370 C   0  0  2  0  0  3  0  0  0  0  0  0
  190.4780  176.3170  140.8530 N   0  0  0  0  0  2  0  0  0  0  0  0
  189.6360  177.2100  144.3970 C   0  0  0  0  0  0  0  0  0  0  0  0
  191.6070  177.7510  142.4700 C   0  0  0  0  0  3  0  0  0  0  0  0
  191.6910  178.3320  143.7380 C   0  0  0  0  0  3  0  0  0  0  0  0
  190.7100  178.0640  144.6960 C   0  0  0  0  0  3  0  0  0  0  0  0
  189.5640  176.6330  143.1240 C   0  0  0  0  0  3  0  0  0  0  0  0
  190.5440  176.9020  142.1570 C   0  0  0  0  0  0  0  0  0  0  0  0
  188.6200  176.9070  145.3200 O   0  0  0  0  0  0  0  0  0  0  0  0
  188.6610  177.0440  146.7180 C   0  0  0  0  0  3  0  0  0  0  0  0
  188.0100  177.9360  148.8280 N   0  0  0  0  0  1  0  0  0  0  0  0
  187.8910  177.8740  147.4130 C   0  0  0  0  0  3  0  0  0  0  0  0
  1  6  1  0  0  0  0
  2 33  1  1  0  0  0
  3 15  1  0  0  0  0
  3  4  1  0  0  0  0
  4 13  2  0  0  0  0
  4  2  1  0  0  0  0
  6 14  1  0  0  0  0
  6  5  2  0  0  0  0
  7 16  1  6  0  0  0
  7  2  1  0  0  0  0
  8  1  1  0  0  0  0
  9  5  1  6  0  0  0
  9 13  1  0  0  0  0
 10 11  1  0  0  0  0
 10 12  1  0  0  0  0
 11  8  1  6  0  0  0
 11  9  1  0  0  0  0
 12  3  2  0  0  0  0
 15  7  1  0  0  0  0
 16 17  1  1  0  0  0
 16 18  1  0  0  0  0
 18 24  1  0  0  0  0
 19 23  1  0  0  0  0
 20 25  1  0  0  0  0
 20 23  2  0  0  0  0
 21 22  2  0  0  0  0
 21 24  1  0  0  0  0
 22 20  1  0  0  0  0
 24 19  2  0  0  0  0
 27 29  1  0  0  0  0
 27 26  1  1  0  0  0
 28 27  1  0  0  0  0
 28 29  1  0  0  0  0
 28 25  1  0  0  0  0
 29 32  1  6  0  0  0
 29 26  1  0  0  0  0
 32 31  1  6  0  0  0
 32 30  1  0  0  0  0
 33 39  1  0  0  0  0
 34 37  1  0  0  0  0
 34 40  1  0  0  0  0
 35 36  1  0  0  0  0
 36 37  2  0  0  0  0
 38 34  2  0  0  0  0
 39 35  2  0  0  0  0
 39 38  1  0  0  0  0
 40 41  1  0  0  0  0
 41 43  2  0  0  0  0
 43 42  1  0  0  0  0
M  END
>  <MODEL>
1

>  <REMARK>
 VINA RESULT:      -8.2      0.000      0.000
  Name = 
  10 active torsions:
  status: ('A' for Active; 'I' for Inactive)
    1  A    between atoms: C_3  and  N_15
    2  A    between atoms: C_3  and  C_21
    3  A    between atoms: C_7  and  O_14
    4  A    between atoms: C_8  and  C_40
    5  A    between atoms: N_9  and  C_12
    6  A    between atoms: N_9  and  C_41
    7  A    between atoms: C_11  and  O_14
    8  A    between atoms: N_15  and  C_36
    9  A    between atoms: C_22  and  C_43
   10  A    between atoms: N_28  and  C_43
                            x       y       z     vdW  Elec       q    Type
                         _______ _______ _______ _____ _____    ______ ____

>  <TORSDO>
F 10

$$$$
=
 OpenBabel11042412383D

 43 49  0  0  1  0  0  0  0  0999 V2000
  179.6550  173.4910  135.4280 C   0  0  0  0  0  2  0  0  0  0  0  0
  184.3630  177.3810  137.8470 C   0  0  1  0  0  3  0  0  0  0  0  0
  182.3360  176.3200  138.6230 C   0  0  0  0  0  0  0  0  0  0  0  0
  183.1480  176.6170  137.4480 C   0  0  0  0  0  0  0  0  0  0  0  0
  182.0970  173.9690  135.6460 C   0  0  0  0  0  3  0  0  0  0  0  0
  181.1100  173.0800  135.4860 C   0  0  0  0  0  0  0  0  0  0  0  0
  184.2240  177.6090  139.3560 C   0  0  2  0  0  3  0  0  0  0  0  0
  179.4240  175.0140  135.3700 C   0  0  0  0  0  2  0  0  0  0  0  0
  181.8110  175.4410  135.6520 C   0  0  1  0  0  3  0  0  0  0  0  0
  180.3110  175.3510  137.6080 N   0  0  0  0  0  2  0  0  0  0  0  0
  180.4410  175.7760  136.2190 C   0  0  2  0  0  3  0  0  0  0  0  0
  181.1320  175.7500  138.7080 C   0  0  0  0  0  3  0  0  0  0  0  0
  182.9340  176.2700  136.1770 C   0  0  0  0  0  3  0  0  0  0  0  0
  181.4260  171.7290  135.4330 O   0  0  0  0  0  1  0  0  0  0  0  0
  183.0330  176.7790  139.8460 C   0  0  0  0  0  2  0  0  0  0  0  0
  184.0040  179.0930  139.6540 C   0  0  2  0  0  3  0  0  0  0  0  0
  184.5960  179.8870  138.6670 O   0  0  0  0  0  1  0  0  0  0  0  0
  184.5360  179.4550  140.9660 N   0  0  0  0  0  2  0  0  0  0  0  0
  186.8910  178.7060  141.1240 C   0  0  0  0  0  3  0  0  0  0  0  0
  187.5820  177.4030  143.0280 C   0  0  0  0  0  0  0  0  0  0  0  0
  185.3250  178.1280  142.8610 C   0  0  0  0  0  3  0  0  0  0  0  0
  186.3140  177.4640  143.5190 N   0  0  0  0  0  0  0  0  0  0  0  0
  187.8910  178.0200  141.8140 C   0  0  0  0  0  3  0  0  0  0  0  0
  185.5930  178.7650  141.6470 C   0  0  0  0  0  0  0  0  0  0  0  0
  188.6250  176.6390  143.7610 C   0  0  0  0  0  2  0  0  0  0  0  0
  191.3220  177.6360  144.4220 C   0  0  0  0  0  2  0  0  0  0  0  0
  190.0030  178.2940  144.7510 C   0  0  1  0  0  3  0  0  0  0  0  0
  188.9380  177.3150  145.0130 N   0  0  0  0  0  0  0  0  0  0  0  0
  190.3310  176.9900  145.3680 C   0  0  1  0  0  0  0  0  0  0  0  0
  191.8070  176.6290  147.2260 O   0  0  0  0  0  1  0  0  0  0  0  0
  189.4890  176.7560  147.7110 C   0  0  0  0  0  1  0  0  0  0  0  0
  190.6240  177.2650  146.8410 C   0  0  2  0  0  3  0  0  0  0  0  0
  185.5640  176.5910  137.5990 N   0  0  0  0  0  2  0  0  0  0  0  0
  189.2890  177.0290  137.6010 C   0  0  0  0  0  0  0  0  0  0  0  0
  186.9740  178.4460  136.8780 C   0  0  0  0  0  3  0  0  0  0  0  0
  188.2320  179.0240  136.6940 C   0  0  0  0  0  3  0  0  0  0  0  0
  189.3830  178.3200  137.0550 C   0  0  0  0  0  3  0  0  0  0  0  0
  188.0230  176.4600  137.7780 C   0  0  0  0  0  3  0  0  0  0  0  0
  186.8620  177.1640  137.4210 C   0  0  0  0  0  0  0  0  0  0  0  0
  190.4120  176.2760  137.9840 O   0  0  0  0  0  0  0  0  0  0  0  0
  191.3320  176.5650  139.0070 C   0  0  0  0  0  3  0  0  0  0  0  0
  192.0490  177.4960  141.0780 N   0  0  0  0  0  1  0  0  0  0  0  0
  191.0430  177.2590  140.1010 C   0  0  0  0  0  3  0  0  0  0  0  0
  1  6  1  0  0  0  0
  2 33  1  1  0  0  0
  2  7  1  0  0  0  0
  3 12  2  0  0  0  0
  3 15  1  0  0  0  0
  4  2  1  0  0  0  0
  4  3  1  0  0  0  0
  6  5  2  0  0  0  0
  7 16  1  6  0  0  0
  7 15  1  0  0  0  0
  8  1  1  0  0  0  0
  9  5  1  1  0  0  0
  9 13  1  0  0  0  0
  9 11  1  0  0  0  0
 10 12  1  0  0  0  0
 11  8  1  6  0  0  0
 11 10  1  0  0  0  0
 13  4  2  0  0  0  0
 14  6  1  0  0  0  0
 16 17  1  6  0  0  0
 16 18  1  0  0  0  0
 18 24  1  0  0  0  0
 19 24  2  0  0  0  0
 19 23  1  0  0  0  0
 20 22  1  0  0  0  0
 20 25  1  0  0  0  0
 21 22  2  0  0  0  0
 23 20  2  0  0  0  0
 24 21  1  0  0  0  0
 25 28  1  0  0  0  0
 26 29  1  0  0  0  0
 27 26  1  6  0  0  0
 27 28  1  0  0  0  0
 27 29  1  0  0  0  0
 28 29  1  0  0  0  0
 29 32  1  1  0  0  0
 32 30  1  0  0  0  0
 32 31  1  1  0  0  0
 34 38  1  0  0  0  0
 34 40  1  0  0  0  0
 35 39  1  0  0  0  0
 36 35  2  0  0  0  0
 36 37  1  0  0  0  0
 37 34  2  0  0  0  0
 39 33  1  0  0  0  0
 39 38  2  0  0  0  0
 40 41  1  0  0  0  0
 41 43  2  0  0  0  0
 43 42  1  0  0  0  0
M  END
>  <MODEL>
2

>  <REMARK>
 VINA RESULT:      -7.8      2.886      9.217
  Name = 
  10 active torsions:
  status: ('A' for Active; 'I' for Inactive)
    1  A    between atoms: C_3  and  N_15
    2  A    between atoms: C_3  and  C_21
    3  A    between atoms: C_7  and  O_14
    4  A    between atoms: C_8  and  C_40
    5  A    between atoms: N_9  and  C_12
    6  A    between atoms: N_9  and  C_41
    7  A    between atoms: C_11  and  O_14
    8  A    between atoms: N_15  and  C_36
    9  A    between atoms: C_22  and  C_43
   10  A    between atoms: N_28  and  C_43
                            x       y       z     vdW  Elec       q    Type
                         _______ _______ _______ _____ _____    ______ ____

>  <TORSDO>
F 10

$$$$
=
 OpenBabel11042412383D

 43 49  0  0  1  0  0  0  0  0999 V2000
  189.8550  178.2680  144.7770 C   0  0  0  0  0  2  0  0  0  0  0  0
  190.2440  176.4710  138.4700 C   0  0  1  0  0  3  0  0  0  0  0  0
  188.9540  178.0000  139.8240 C   0  0  0  0  0  0  0  0  0  0  0  0
  189.9200  176.9070  139.8580 C   0  0  0  0  0  0  0  0  0  0  0  0
  191.3070  177.7830  142.8020 C   0  0  0  0  0  3  0  0  0  0  0  0
  191.1090  178.4450  143.9480 C   0  0  0  0  0  0  0  0  0  0  0  0
  189.3540  177.3220  137.5570 C   0  0  2  0  0  3  0  0  0  0  0  0
  188.9300  177.1300  144.2990 C   0  0  0  0  0  2  0  0  0  0  0  0
  190.3390  176.7330  142.3460 C   0  0  1  0  0  3  0  0  0  0  0  0
  188.4140  178.2700  142.2140 N   0  0  0  0  0  2  0  0  0  0  0  0
  188.9090  177.0170  142.7750 C   0  0  2  0  0  3  0  0  0  0  0  0
  188.3240  178.6130  140.8290 C   0  0  0  0  0  3  0  0  0  0  0  0
  190.5050  176.3430  140.9160 C   0  0  0  0  0  3  0  0  0  0  0  0
  192.0570  179.3720  144.3600 O   0  0  0  0  0  1  0  0  0  0  0  0
  188.6860  178.3950  138.4240 C   0  0  0  0  0  2  0  0  0  0  0  0
  188.2990  176.4490  136.8760 C   0  0  2  0  0  3  0  0  0  0  0  0
  188.8330  175.8180  135.7490 O   0  0  0  0  0  1  0  0  0  0  0  0
  187.1270  177.2350  136.4950 N   0  0  0  0  0  2  0  0  0  0  0  0
  185.1040  178.0150  137.6930 C   0  0  0  0  0  3  0  0  0  0  0  0
  183.2230  176.5280  137.9070 C   0  0  0  0  0  0  0  0  0  0  0  0
  185.1710  175.7940  136.7620 C   0  0  0  0  0  3  0  0  0  0  0  0
  183.9110  175.5720  137.2250 N   0  0  0  0  0  0  0  0  0  0  0  0
  183.8120  177.7680  138.1590 C   0  0  0  0  0  3  0  0  0  0  0  0
  185.7970  177.0230  136.9860 C   0  0  0  0  0  0  0  0  0  0  0  0
  181.8600  176.2340  138.4250 C   0  0  0  0  0  2  0  0  0  0  0  0
  179.4000  177.2790  139.6730 C   0  0  0  0  0  2  0  0  0  0  0  0
  180.4100  176.3450  140.2960 C   0  0  1  0  0  3  0  0  0  0  0  0
  181.7790  176.6080  139.8300 N   0  0  0  0  0  0  0  0  0  0  0  0
  180.8220  177.7230  139.9480 C   0  0  1  0  0  0  0  0  0  0  0  0
  180.4120  179.7480  141.1690 O   0  0  0  0  0  1  0  0  0  0  0  0
  182.4510  178.6240  141.6160 C   0  0  0  0  0  1  0  0  0  0  0  0
  180.9820  178.4770  141.2670 C   0  0  2  0  0  3  0  0  0  0  0  0
  191.6400  176.7540  138.1620 N   0  0  0  0  0  2  0  0  0  0  0  0
  194.7600  174.6870  137.8990 C   0  0  0  0  0  0  0  0  0  0  0  0
  192.2000  174.8440  136.7520 C   0  0  0  0  0  3  0  0  0  0  0  0
  193.0960  173.8580  136.3300 C   0  0  0  0  0  3  0  0  0  0  0  0
  194.3690  173.7810  136.8990 C   0  0  0  0  0  3  0  0  0  0  0  0
  193.8530  175.6690  138.3140 C   0  0  0  0  0  3  0  0  0  0  0  0
  192.5740  175.7530  137.7440 C   0  0  0  0  0  0  0  0  0  0  0  0
  196.0280  174.6580  138.5050 O   0  0  0  0  0  0  0  0  0  0  0  0
  196.3420  174.9060  139.8520 C   0  0  0  0  0  3  0  0  0  0  0  0
  197.7580  175.4820  141.6780 N   0  0  0  0  0  1  0  0  0  0  0  0
  197.5460  175.2520  140.2910 C   0  0  0  0  0  3  0  0  0  0  0  0
  2 33  1  6  0  0  0
  2  4  1  0  0  0  0
  3  4  1  0  0  0  0
  3 12  2  0  0  0  0
  4 13  2  0  0  0  0
  5  6  2  0  0  0  0
  6 14  1  0  0  0  0
  6  1  1  0  0  0  0
  7 16  1  1  0  0  0
  7 15  1  0  0  0  0
  7  2  1  0  0  0  0
  8  1  1  0  0  0  0
  9 13  1  6  0  0  0
  9 11  1  0  0  0  0
  9  5  1  0  0  0  0
 10 11  1  0  0  0  0
 11  8  1  1  0  0  0
 12 10  1  0  0  0  0
 15  3  1  0  0  0  0
 16 17  1  6  0  0  0
 18 16  1  0  0  0  0
 18 24  1  0  0  0  0
 19 23  1  0  0  0  0
 20 23  2  0  0  0  0
 20 25  1  0  0  0  0
 21 24  1  0  0  0  0
 21 22  2  0  0  0  0
 22 20  1  0  0  0  0
 24 19  2  0  0  0  0
 25 28  1  0  0  0  0
 26 29  1  0  0  0  0
 27 26  1  6  0  0  0
 28 29  1  0  0  0  0
 28 27  1  0  0  0  0
 29 27  1  0  0  0  0
 29 32  1  1  0  0  0
 30 32  1  0  0  0  0
 32 31  1  6  0  0  0
 34 38  1  0  0  0  0
 34 40  1  0  0  0  0
 35 39  1  0  0  0  0
 36 35  2  0  0  0  0
 36 37  1  0  0  0  0
 37 34  2  0  0  0  0
 39 33  1  0  0  0  0
 39 38  2  0  0  0  0
 40 41  1  0  0  0  0
 41 43  2  0  0  0  0
 43 42  1  0  0  0  0
M  END
>  <MODEL>
3

>  <REMARK>
 VINA RESULT:      -7.8      2.468      6.419
  Name = 
  10 active torsions:
  status: ('A' for Active; 'I' for Inactive)
    1  A    between atoms: C_3  and  N_15
    2  A    between atoms: C_3  and  C_21
    3  A    between atoms: C_7  and  O_14
    4  A    between atoms: C_8  and  C_40
    5  A    between atoms: N_9  and  C_12
    6  A    between atoms: N_9  and  C_41
    7  A    between atoms: C_11  and  O_14
    8  A    between atoms: N_15  and  C_36
    9  A    between atoms: C_22  and  C_43
   10  A    between atoms: N_28  and  C_43
                            x       y       z     vdW  Elec       q    Type
                         _______ _______ _______ _____ _____    ______ ____

>  <TORSDO>
F 10

$$$$
=
 OpenBabel11042412383D

 43 49  0  0  1  0  0  0  0  0999 V2000
  190.5090  176.4450  146.9780 C   0  0  0  0  0  2  0  0  0  0  0  0
  189.0040  178.9630  141.1010 C   0  0  1  0  0  3  0  0  0  0  0  0
  189.3770  176.7860  142.0780 C   0  0  0  0  0  0  0  0  0  0  0  0
  189.4650  178.2230  142.3090 C   0  0  0  0  0  0  0  0  0  0  0  0
  189.1140  178.0420  145.6570 C   0  0  0  0  0  3  0  0  0  0  0  0
  189.2530  177.2510  146.7280 C   0  0  0  0  0  0  0  0  0  0  0  0
  188.6850  177.8850  140.0600 C   0  0  2  0  0  3  0  0  0  0  0  0
  191.6720  176.7600  146.0160 C   0  0  0  0  0  2  0  0  0  0  0  0
  190.2570  178.2610  144.7110 C   0  0  1  0  0  3  0  0  0  0  0  0
  190.4710  175.8820  144.0930 N   0  0  0  0  0  2  0  0  0  0  0  0
  191.1750  177.0540  144.6010 C   0  0  2  0  0  3  0  0  0  0  0  0
  189.7760  175.7710  142.8490 C   0  0  0  0  0  3  0  0  0  0  0  0
  189.8530  178.8690  143.4110 C   0  0  0  0  0  3  0  0  0  0  0  0
  188.1870  177.1190  147.6060 O   0  0  0  0  0  1  0  0  0  0  0  0
  188.7580  176.5230  140.7600 C   0  0  0  0  0  2  0  0  0  0  0  0
  189.6840  177.9480  138.9020 C   0  0  2  0  0  3  0  0  0  0  0  0
  189.0560  178.3830  137.7320 O   0  0  0  0  0  1  0  0  0  0  0  0
  190.3120  176.6480  138.6740 N   0  0  0  0  0  2  0  0  0  0  0  0
  191.4380  176.0260  136.5580 C   0  0  0  0  0  3  0  0  0  0  0  0
  193.8440  176.0230  136.4670 C   0  0  0  0  0  0  0  0  0  0  0  0
  192.7490  176.6160  138.4910 C   0  0  0  0  0  3  0  0  0  0  0  0
  193.8850  176.4090  137.7720 N   0  0  0  0  0  0  0  0  0  0  0  0
  192.6150  175.8180  135.8380 C   0  0  0  0  0  3  0  0  0  0  0  0
  191.4970  176.4290  137.8980 C   0  0  0  0  0  0  0  0  0  0  0  0
  195.1090  175.7740  135.7270 C   0  0  0  0  0  2  0  0  0  0  0  0
  196.2970  173.0990  135.3570 C   0  0  0  0  0  2  0  0  0  0  0  0
  196.9950  174.3440  135.8500 C   0  0  1  0  0  3  0  0  0  0  0  0
  196.1050  175.2150  136.6310 N   0  0  0  0  0  0  0  0  0  0  0  0
  195.9130  173.7540  136.6680 C   0  0  1  0  0  0  0  0  0  0  0  0
  195.8270  172.0400  138.3460 O   0  0  0  0  0  1  0  0  0  0  0  0
  196.7150  174.1380  139.0050 C   0  0  0  0  0  1  0  0  0  0  0  0
  196.5830  173.1210  137.8860 C   0  0  2  0  0  3  0  0  0  0  0  0
  187.7860  179.7080  141.3950 N   0  0  0  0  0  2  0  0  0  0  0  0
  184.6290  178.3630  142.9100 C   0  0  0  0  0  0  0  0  0  0  0  0
  185.8440  178.6260  140.3910 C   0  0  0  0  0  3  0  0  0  0  0  0
  184.5870  178.0260  140.5010 C   0  0  0  0  0  3  0  0  0  0  0  0
  183.9840  177.8940  141.7540 C   0  0  0  0  0  3  0  0  0  0  0  0
  185.8870  178.9640  142.7860 C   0  0  0  0  0  3  0  0  0  0  0  0
  186.5000  179.0960  141.5310 C   0  0  0  0  0  0  0  0  0  0  0  0
  184.0710  178.2550  144.1960 O   0  0  0  0  0  0  0  0  0  0  0  0
  184.4350  178.9650  145.3520 C   0  0  0  0  0  3  0  0  0  0  0  0
  185.6770  179.3780  147.3420 N   0  0  0  0  0  1  0  0  0  0  0  0
  185.3850  178.5850  146.1980 C   0  0  0  0  0  3  0  0  0  0  0  0
  2 33  1  1  0  0  0
  2  4  1  0  0  0  0
  3  4  1  0  0  0  0
  3 12  2  0  0  0  0
  4 13  2  0  0  0  0
  5  6  2  0  0  0  0
  6  1  1  0  0  0  0
  6 14  1  0  0  0  0
  7 16  1  6  0  0  0
  7 15  1  0  0  0  0
  7  2  1  0  0  0  0
  8  1  1  0  0  0  0
  9 13  1  6  0  0  0
  9  5  1  0  0  0  0
 10 11  1  0  0  0  0
 11  9  1  0  0  0  0
 11  8  1  1  0  0  0
 12 10  1  0  0  0  0
 15  3  1  0  0  0  0
 16 17  1  6  0  0  0
 18 16  1  0  0  0  0
 19 24  1  0  0  0  0
 20 22  2  0  0  0  0
 22 21  1  0  0  0  0
 23 20  1  0  0  0  0
 23 19  2  0  0  0  0
 24 21  2  0  0  0  0
 24 18  1  0  0  0  0
 25 20  1  0  0  0  0
 25 28  1  0  0  0  0
 26 29  1  0  0  0  0
 27 26  1  6  0  0  0
 27 28  1  0  0  0  0
 27 29  1  0  0  0  0
 28 29  1  0  0  0  0
 29 32  1  1  0  0  0
 32 30  1  0  0  0  0
 32 31  1  1  0  0  0
 33 39  1  0  0  0  0
 34 40  1  0  0  0  0
 35 36  2  0  0  0  0
 35 39  1  0  0  0  0
 36 37  1  0  0  0  0
 37 34  2  0  0  0  0
 38 34  1  0  0  0  0
 39 38  2  0  0  0  0
 40 41  1  0  0  0  0
 41 43  2  0  0  0  0
 43 42  1  0  0  0  0
M  END
>  <MODEL>
4

>  <REMARK>
 VINA RESULT:      -7.6      2.648      9.749
  Name = 
  10 active torsions:
  status: ('A' for Active; 'I' for Inactive)
    1  A    between atoms: C_3  and  N_15
    2  A    between atoms: C_3  and  C_21
    3  A    between atoms: C_7  and  O_14
    4  A    between atoms: C_8  and  C_40
    5  A    between atoms: N_9  and  C_12
    6  A    between atoms: N_9  and  C_41
    7  A    between atoms: C_11  and  O_14
    8  A    between atoms: N_15  and  C_36
    9  A    between atoms: C_22  and  C_43
   10  A    between atoms: N_28  and  C_43
                            x       y       z     vdW  Elec       q    Type
                         _______ _______ _______ _____ _____    ______ ____

>  <TORSDO>
F 10

$$$$
=
 OpenBabel11042412383D

 43 49  0  0  1  0  0  0  0  0999 V2000
  194.6480  173.6090  136.5120 C   0  0  0  0  0  2  0  0  0  0  0  0
  188.4740  175.7620  137.1460 C   0  0  1  0  0  3  0  0  0  0  0  0
  190.5710  176.5620  136.2530 C   0  0  0  0  0  0  0  0  0  0  0  0
  189.9370  175.5050  137.0330 C   0  0  0  0  0  0  0  0  0  0  0  0
  192.2080  173.1310  136.2750 C   0  0  0  0  0  3  0  0  0  0  0  0
  193.4660  172.9120  135.8760 C   0  0  0  0  0  0  0  0  0  0  0  0
  188.2400  177.1020  136.4400 C   0  0  2  0  0  3  0  0  0  0  0  0
  194.3020  174.4300  137.7710 C   0  0  0  0  0  2  0  0  0  0  0  0
  191.9200  173.9950  137.4660 C   0  0  1  0  0  3  0  0  0  0  0  0
  192.9600  176.0170  136.5100 N   0  0  0  0  0  2  0  0  0  0  0  0
  192.9380  175.1090  137.6510 C   0  0  2  0  0  3  0  0  0  0  0  0
  191.8630  176.7760  135.9960 C   0  0  0  0  0  3  0  0  0  0  0  0
  190.4940  174.4180  137.5720 C   0  0  0  0  0  3  0  0  0  0  0  0
  193.6900  172.0630  134.8010 O   0  0  0  0  0  1  0  0  0  0  0  0
  189.5430  177.4930  135.7350 C   0  0  0  0  0  2  0  0  0  0  0  0
  187.8340  178.1750  137.4530 C   0  0  2  0  0  3  0  0  0  0  0  0
  187.4340  179.3430  136.7990 O   0  0  0  0  0  1  0  0  0  0  0  0
  188.9280  178.4720  138.3760 N   0  0  0  0  0  2  0  0  0  0  0  0
  190.1230  177.2040  140.1350 C   0  0  0  0  0  3  0  0  0  0  0  0
  189.1560  177.0550  142.3350 C   0  0  0  0  0  0  0  0  0  0  0  0
  188.0210  178.2670  140.6350 C   0  0  0  0  0  3  0  0  0  0  0  0
  188.1000  177.8020  141.9120 N   0  0  0  0  0  0  0  0  0  0  0  0
  190.1870  176.7370  141.4480 C   0  0  0  0  0  3  0  0  0  0  0  0
  189.0330  177.9780  139.7170 C   0  0  0  0  0  0  0  0  0  0  0  0
  189.1880  176.5380  143.7280 C   0  0  0  0  0  2  0  0  0  0  0  0
  190.3710  177.1860  146.3520 C   0  0  0  0  0  2  0  0  0  0  0  0
  189.7250  178.1470  145.3830 C   0  0  1  0  0  3  0  0  0  0  0  0
  188.6220  177.5300  144.6320 N   0  0  0  0  0  0  0  0  0  0  0  0
  188.8980  177.0950  146.0130 C   0  0  1  0  0  0  0  0  0  0  0  0
  187.9200  177.0530  148.2040 O   0  0  0  0  0  1  0  0  0  0  0  0
  186.5940  177.9600  146.4590 C   0  0  0  0  0  1  0  0  0  0  0  0
  187.9930  177.7970  147.0240 C   0  0  2  0  0  3  0  0  0  0  0  0
  187.7210  174.7260  136.4510 N   0  0  0  0  0  2  0  0  0  0  0  0
  184.0520  174.8730  137.2170 C   0  0  0  0  0  0  0  0  0  0  0  0
  186.1410  172.9980  137.1360 C   0  0  0  0  0  3  0  0  0  0  0  0
  184.8530  172.5940  137.4950 C   0  0  0  0  0  3  0  0  0  0  0  0
  183.8150  173.5260  137.5370 C   0  0  0  0  0  3  0  0  0  0  0  0
  185.3460  175.2660  136.8570 C   0  0  0  0  0  3  0  0  0  0  0  0
  186.3940  174.3340  136.8170 C   0  0  0  0  0  0  0  0  0  0  0  0
  183.0460  175.8550  137.2440 O   0  0  0  0  0  0  0  0  0  0  0  0
  181.9830  175.9700  138.1570 C   0  0  0  0  0  3  0  0  0  0  0  0
  180.9000  176.7230  140.1400 N   0  0  0  0  0  1  0  0  0  0  0  0
  182.0350  176.6700  139.2840 C   0  0  0  0  0  3  0  0  0  0  0  0
  1  8  1  0  0  0  0
  2 33  1  6  0  0  0
  3  4  1  0  0  0  0
  4  2  1  0  0  0  0
  4 13  2  0  0  0  0
  6  5  2  0  0  0  0
  6  1  1  0  0  0  0
  7  2  1  0  0  0  0
  7 16  1  1  0  0  0
  9  5  1  6  0  0  0
  9 13  1  0  0  0  0
  9 11  1  0  0  0  0
 10 11  1  0  0  0  0
 11  8  1  6  0  0  0
 12  3  2  0  0  0  0
 12 10  1  0  0  0  0
 14  6  1  0  0  0  0
 15  3  1  0  0  0  0
 15  7  1  0  0  0  0
 16 17  1  6  0  0  0
 16 18  1  0  0  0  0
 18 24  1  0  0  0  0
 19 23  1  0  0  0  0
 20 25  1  0  0  0  0
 21 22  2  0  0  0  0
 22 20  1  0  0  0  0
 23 20  2  0  0  0  0
 24 19  2  0  0  0  0
 24 21  1  0  0  0  0
 25 28  1  0  0  0  0
 27 29  1  0  0  0  0
 27 26  1  6  0  0  0
 28 27  1  0  0  0  0
 28 29  1  0  0  0  0
 29 26  1  0  0  0  0
 29 32  1  1  0  0  0
 32 31  1  6  0  0  0
 32 30  1  0  0  0  0
 33 39  1  0  0  0  0
 34 40  1  0  0  0  0
 34 37  1  0  0  0  0
 35 36  1  0  0  0  0
 36 37  2  0  0  0  0
 38 34  2  0  0  0  0
 39 38  1  0  0  0  0
 39 35  2  0  0  0  0
 40 41  1  0  0  0  0
 41 43  2  0  0  0  0
 43 42  1  0  0  0  0
M  END
>  <MODEL>
5

>  <REMARK>
 VINA RESULT:      -7.6      2.406      7.011
  Name = 
  10 active torsions:
  status: ('A' for Active; 'I' for Inactive)
    1  A    between atoms: C_3  and  N_15
    2  A    between atoms: C_3  and  C_21
    3  A    between atoms: C_7  and  O_14
    4  A    between atoms: C_8  and  C_40
    5  A    between atoms: N_9  and  C_12
    6  A    between atoms: N_9  and  C_41
    7  A    between atoms: C_11  and  O_14
    8  A    between atoms: N_15  and  C_36
    9  A    between atoms: C_22  and  C_43
   10  A    between atoms: N_28  and  C_43
                            x       y       z     vdW  Elec       q    Type
                         _______ _______ _______ _____ _____    ______ ____

>  <TORSDO>
F 10

$$$$
=
 OpenBabel11042412383D

 43 49  0  0  1  0  0  0  0  0999 V2000
  190.6280  176.3430  147.0110 C   0  0  0  0  0  2  0  0  0  0  0  0
  188.7420  179.0010  141.3080 C   0  0  1  0  0  3  0  0  0  0  0  0
  189.3220  176.8190  142.1660 C   0  0  0  0  0  0  0  0  0  0  0  0
  189.2990  178.2460  142.4660 C   0  0  0  0  0  0  0  0  0  0  0  0
  189.0670  177.8780  145.8080 C   0  0  0  0  0  3  0  0  0  0  0  0
  189.3030  177.0520  146.8340 C   0  0  0  0  0  0  0  0  0  0  0  0
  188.4810  177.9510  140.2230 C   0  0  2  0  0  3  0  0  0  0  0  0
  191.7310  176.7990  146.0350 C   0  0  0  0  0  2  0  0  0  0  0  0
  190.1580  178.2360  144.8440 C   0  0  1  0  0  3  0  0  0  0  0  0
  190.5480  175.9160  144.1030 N   0  0  0  0  0  2  0  0  0  0  0  0
  191.1690  177.1170  144.6500 C   0  0  2  0  0  3  0  0  0  0  0  0
  189.8270  175.8060  142.8740 C   0  0  0  0  0  3  0  0  0  0  0  0
  189.6660  178.8700  143.5870 C   0  0  0  0  0  3  0  0  0  0  0  0
  188.2790  176.7890  147.7330 O   0  0  0  0  0  1  0  0  0  0  0  0
  188.6870  176.5690  140.8530 C   0  0  0  0  0  2  0  0  0  0  0  0
  189.4360  178.1520  139.0450 C   0  0  2  0  0  3  0  0  0  0  0  0
  188.8550  178.9710  138.0740 O   0  0  0  0  0  1  0  0  0  0  0  0
  189.8190  176.8730  138.4500 N   0  0  0  0  0  2  0  0  0  0  0  0
  191.0550  176.2420  136.3990 C   0  0  0  0  0  3  0  0  0  0  0  0
  193.4600  176.1560  136.4590 C   0  0  0  0  0  0  0  0  0  0  0  0
  192.2600  176.7580  138.4190 C   0  0  0  0  0  3  0  0  0  0  0  0
  193.4320  176.5210  137.7700 N   0  0  0  0  0  0  0  0  0  0  0  0
  192.2670  176.0040  135.7500 C   0  0  0  0  0  3  0  0  0  0  0  0
  191.0430  176.6240  137.7460 C   0  0  0  0  0  0  0  0  0  0  0  0
  194.7610  175.8730  135.7950 C   0  0  0  0  0  2  0  0  0  0  0  0
  195.8090  173.1160  135.7860 C   0  0  0  0  0  2  0  0  0  0  0  0
  196.5670  174.3760  136.1280 C   0  0  1  0  0  3  0  0  0  0  0  0
  195.7170  175.3830  136.7790 N   0  0  0  0  0  0  0  0  0  0  0  0
  195.4480  173.9510  136.9970 C   0  0  1  0  0  0  0  0  0  0  0  0
  195.4270  172.2800  138.7200 O   0  0  0  0  0  1  0  0  0  0  0  0
  195.9530  174.4950  139.3850 C   0  0  0  0  0  1  0  0  0  0  0  0
  196.0720  173.4450  138.2960 C   0  0  2  0  0  3  0  0  0  0  0  0
  187.4760  179.6270  141.6710 N   0  0  0  0  0  2  0  0  0  0  0  0
  184.4070  178.4190  139.8850 C   0  0  0  0  0  0  0  0  0  0  0  0
  185.4890  178.4650  142.4760 C   0  0  0  0  0  3  0  0  0  0  0  0
  184.2420  177.8780  142.2500 C   0  0  0  0  0  3  0  0  0  0  0  0
  183.7030  177.8560  140.9620 C   0  0  0  0  0  3  0  0  0  0  0  0
  185.6560  179.0040  140.1240 C   0  0  0  0  0  3  0  0  0  0  0  0
  186.2010  179.0320  141.4170 C   0  0  0  0  0  0  0  0  0  0  0  0
  183.9130  178.4280  138.5690 O   0  0  0  0  0  0  0  0  0  0  0  0
  183.8820  177.3600  137.6560 C   0  0  0  0  0  3  0  0  0  0  0  0
  184.8140  175.6200  136.3230 N   0  0  0  0  0  1  0  0  0  0  0  0
  184.9540  176.6870  137.2520 C   0  0  0  0  0  3  0  0  0  0  0  0
  2 33  1  1  0  0  0
  2  4  1  0  0  0  0
  3  4  1  0  0  0  0
  3 12  2  0  0  0  0
  4 13  2  0  0  0  0
  5  6  2  0  0  0  0
  6  1  1  0  0  0  0
  6 14  1  0  0  0  0
  7 16  1  6  0  0  0
  7 15  1  0  0  0  0
  7  2  1  0  0  0  0
  8  1  1  0  0  0  0
  9 13  1  6  0  0  0
  9  5  1  0  0  0  0
 10 11  1  0  0  0  0
 11  9  1  0  0  0  0
 11  8  1  1  0  0  0
 12 10  1  0  0  0  0
 15  3  1  0  0  0  0
 16 17  1  6  0  0  0
 18 16  1  0  0  0  0
 19 24  1  0  0  0  0
 20 22  2  0  0  0  0
 22 21  1  0  0  0  0
 23 19  2  0  0  0  0
 23 20  1  0  0  0  0
 24 21  2  0  0  0  0
 24 18  1  0  0  0  0
 25 20  1  0  0  0  0
 25 28  1  0  0  0  0
 26 29  1  0  0  0  0
 27 26  1  6  0  0  0
 27 28  1  0  0  0  0
 27 29  1  0  0  0  0
 28 29  1  0  0  0  0
 29 32  1  1  0  0  0
 32 30  1  0  0  0  0
 32 31  1  1  0  0  0
 34 38  2  0  0  0  0
 34 37  1  0  0  0  0
 36 35  1  0  0  0  0
 37 36  2  0  0  0  0
 38 39  1  0  0  0  0
 39 33  1  0  0  0  0
 39 35  2  0  0  0  0
 40 34  1  0  0  0  0
 41 40  1  0  0  0  0
 42 43  1  0  0  0  0
 43 41  2  0  0  0  0
M  END
>  <MODEL>
6

>  <REMARK>
 VINA RESULT:      -7.5      2.489     10.061
  Name = 
  10 active torsions:
  status: ('A' for Active; 'I' for Inactive)
    1  A    between atoms: C_3  and  N_15
    2  A    between atoms: C_3  and  C_21
    3  A    between atoms: C_7  and  O_14
    4  A    between atoms: C_8  and  C_40
    5  A    between atoms: N_9  and  C_12
    6  A    between atoms: N_9  and  C_41
    7  A    between atoms: C_11  and  O_14
    8  A    between atoms: N_15  and  C_36
    9  A    between atoms: C_22  and  C_43
   10  A    between atoms: N_28  and  C_43
                            x       y       z     vdW  Elec       q    Type
                         _______ _______ _______ _____ _____    ______ ____

>  <TORSDO>
F 10

$$$$
=
 OpenBabel11042412383D

 43 49  0  0  1  0  0  0  0  0999 V2000
  195.2600  174.4360  135.8080 C   0  0  0  0  0  2  0  0  0  0  0  0
  190.1680  177.1210  138.9720 C   0  0  1  0  0  3  0  0  0  0  0  0
  190.5980  176.0430  136.8540 C   0  0  0  0  0  0  0  0  0  0  0  0
  191.2170  176.5950  138.0540 C   0  0  0  0  0  0  0  0  0  0  0  0
  193.9660  174.6470  137.9340 C   0  0  0  0  0  3  0  0  0  0  0  0
  194.7510  173.9160  137.1350 C   0  0  0  0  0  0  0  0  0  0  0  0
  188.8420  176.9260  138.2310 C   0  0  2  0  0  3  0  0  0  0  0  0
  194.9640  175.9270  135.5510 C   0  0  0  0  0  2  0  0  0  0  0  0
  193.6510  176.0750  137.6030 C   0  0  1  0  0  3  0  0  0  0  0  0
  192.5640  175.5540  135.4510 N   0  0  0  0  0  2  0  0  0  0  0  0
  193.6020  176.3410  136.1070 C   0  0  2  0  0  3  0  0  0  0  0  0
  191.1650  175.5640  135.7440 C   0  0  0  0  0  3  0  0  0  0  0  0
  192.5100  176.6360  138.3830 C   0  0  0  0  0  3  0  0  0  0  0  0
  195.0600  172.6150  137.5050 O   0  0  0  0  0  1  0  0  0  0  0  0
  189.1240  176.0850  136.9810 C   0  0  0  0  0  2  0  0  0  0  0  0
  188.2430  178.2800  137.8430 C   0  0  2  0  0  3  0  0  0  0  0  0
  189.1040  179.3210  138.2010 O   0  0  0  0  0  1  0  0  0  0  0  0
  186.9360  178.4790  138.4680 N   0  0  0  0  0  2  0  0  0  0  0  0
  185.6350  177.1660  136.8210 C   0  0  0  0  0  3  0  0  0  0  0  0
  183.2780  176.8330  137.1860 C   0  0  0  0  0  0  0  0  0  0  0  0
  184.5410  178.0920  138.7560 C   0  0  0  0  0  3  0  0  0  0  0  0
  183.3620  177.5600  138.3340 N   0  0  0  0  0  0  0  0  0  0  0  0
  184.4160  176.6280  136.4040 C   0  0  0  0  0  3  0  0  0  0  0  0
  185.7060  177.9060  138.0080 C   0  0  0  0  0  0  0  0  0  0  0  0
  181.9640  176.2970  136.7420 C   0  0  0  0  0  2  0  0  0  0  0  0
  180.4910  173.7770  137.1690 C   0  0  0  0  0  2  0  0  0  0  0  0
  180.8960  174.3810  135.8450 C   0  0  1  0  0  3  0  0  0  0  0  0
  182.1710  175.1070  135.9270 N   0  0  0  0  0  0  0  0  0  0  0  0
  181.9480  173.9280  136.7810 C   0  0  1  0  0  0  0  0  0  0  0  0
  182.6840  171.6750  137.1570 O   0  0  0  0  0  1  0  0  0  0  0  0
  183.9230  172.9580  135.5940 C   0  0  0  0  0  1  0  0  0  0  0  0
  182.5540  172.6630  136.1780 C   0  0  2  0  0  3  0  0  0  0  0  0
  190.1360  176.3450  140.2060 N   0  0  0  0  0  2  0  0  0  0  0  0
  189.4550  177.5360  143.6970 C   0  0  0  0  0  0  0  0  0  0  0  0
  191.5730  177.4240  141.8550 C   0  0  0  0  0  3  0  0  0  0  0  0
  191.7740  177.9860  143.1180 C   0  0  0  0  0  3  0  0  0  0  0  0
  190.7210  178.0430  144.0330 C   0  0  0  0  0  3  0  0  0  0  0  0
  189.2660  176.9740  142.4290 C   0  0  0  0  0  3  0  0  0  0  0  0
  190.3200  176.9170  141.5040 C   0  0  0  0  0  0  0  0  0  0  0  0
  188.3590  177.5690  144.5760 O   0  0  0  0  0  0  0  0  0  0  0  0
  188.3810  177.7430  145.9700 C   0  0  0  0  0  3  0  0  0  0  0  0
  187.4380  177.8930  148.1520 N   0  0  0  0  0  1  0  0  0  0  0  0
  187.3060  177.7050  146.7480 C   0  0  0  0  0  3  0  0  0  0  0  0
  1  6  1  0  0  0  0
  2 33  1  1  0  0  0
  3 15  1  0  0  0  0
  3  4  1  0  0  0  0
  4 13  2  0  0  0  0
  4  2  1  0  0  0  0
  6 14  1  0  0  0  0
  6  5  2  0  0  0  0
  7 16  1  6  0  0  0
  7  2  1  0  0  0  0
  8  1  1  0  0  0  0
  9  5  1  6  0  0  0
  9 13  1  0  0  0  0
 10 12  1  0  0  0  0
 10 11  1  0  0  0  0
 11  8  1  6  0  0  0
 11  9  1  0  0  0  0
 12  3  2  0  0  0  0
 15  7  1  0  0  0  0
 16 17  1  1  0  0  0
 16 18  1  0  0  0  0
 19 24  1  0  0  0  0
 20 22  2  0  0  0  0
 22 21  1  0  0  0  0
 23 19  2  0  0  0  0
 23 20  1  0  0  0  0
 24 18  1  0  0  0  0
 24 21  2  0  0  0  0
 25 20  1  0  0  0  0
 27 28  1  0  0  0  0
 27 29  1  0  0  0  0
 27 26  1  1  0  0  0
 28 25  1  0  0  0  0
 28 29  1  0  0  0  0
 29 32  1  6  0  0  0
 29 26  1  0  0  0  0
 32 31  1  1  0  0  0
 32 30  1  0  0  0  0
 33 39  1  0  0  0  0
 34 37  1  0  0  0  0
 34 40  1  0  0  0  0
 35 36  1  0  0  0  0
 36 37  2  0  0  0  0
 38 34  2  0  0  0  0
 39 35  2  0  0  0  0
 39 38  1  0  0  0  0
 40 41  1  0  0  0  0
 41 43  2  0  0  0  0
 43 42  1  0  0  0  0
M  END
>  <MODEL>
7

>  <REMARK>
 VINA RESULT:      -7.5      2.114      2.836
  Name = 
  10 active torsions:
  status: ('A' for Active; 'I' for Inactive)
    1  A    between atoms: C_3  and  N_15
    2  A    between atoms: C_3  and  C_21
    3  A    between atoms: C_7  and  O_14
    4  A    between atoms: C_8  and  C_40
    5  A    between atoms: N_9  and  C_12
    6  A    between atoms: N_9  and  C_41
    7  A    between atoms: C_11  and  O_14
    8  A    between atoms: N_15  and  C_36
    9  A    between atoms: C_22  and  C_43
   10  A    between atoms: N_28  and  C_43
                            x       y       z     vdW  Elec       q    Type
                         _______ _______ _______ _____ _____    ______ ____

>  <TORSDO>
F 10

$$$$
=
 OpenBabel11042412383D

 43 49  0  0  1  0  0  0  0  0999 V2000
  189.6320  178.2140  144.5020 C   0  0  0  0  0  2  0  0  0  0  0  0
  190.4030  176.5920  138.1840 C   0  0  1  0  0  3  0  0  0  0  0  0
  189.0550  178.1070  139.4960 C   0  0  0  0  0  0  0  0  0  0  0  0
  189.9960  176.9950  139.5600 C   0  0  0  0  0  0  0  0  0  0  0  0
  191.2010  177.7570  142.6140 C   0  0  0  0  0  3  0  0  0  0  0  0
  190.9400  178.3890  143.7640 C   0  0  0  0  0  0  0  0  0  0  0  0
  189.5920  177.4870  137.2400 C   0  0  2  0  0  3  0  0  0  0  0  0
  188.7190  177.1100  143.9310 C   0  0  0  0  0  2  0  0  0  0  0  0
  190.2470  176.7400  142.0630 C   0  0  1  0  0  3  0  0  0  0  0  0
  188.3640  178.3200  141.8520 N   0  0  0  0  0  2  0  0  0  0  0  0
  188.7960  177.0420  142.4060 C   0  0  2  0  0  3  0  0  0  0  0  0
  188.3720  178.7050  140.4750 C   0  0  0  0  0  3  0  0  0  0  0  0
  190.4990  176.3880  140.6360 C   0  0  0  0  0  3  0  0  0  0  0  0
  191.8760  179.2840  144.2650 O   0  0  0  0  0  1  0  0  0  0  0  0
  188.8880  178.5480  138.0930 C   0  0  0  0  0  2  0  0  0  0  0  0
  188.5680  176.6550  136.4650 C   0  0  2  0  0  3  0  0  0  0  0  0
  189.0830  176.2700  135.2250 O   0  0  0  0  0  1  0  0  0  0  0  0
  187.3200  177.3930  136.2770 N   0  0  0  0  0  2  0  0  0  0  0  0
  185.4080  177.9050  137.7640 C   0  0  0  0  0  3  0  0  0  0  0  0
  183.6230  176.3010  137.9720 C   0  0  0  0  0  0  0  0  0  0  0  0
  185.4660  175.8250  136.5500 C   0  0  0  0  0  3  0  0  0  0  0  0
  184.2730  175.4780  137.1050 N   0  0  0  0  0  0  0  0  0  0  0  0
  184.1850  177.5310  138.3230 C   0  0  0  0  0  3  0  0  0  0  0  0
  186.0610  177.0490  136.8680 C   0  0  0  0  0  0  0  0  0  0  0  0
  182.3380  175.8700  138.5820 C   0  0  0  0  0  2  0  0  0  0  0  0
  179.7600  174.5670  139.1820 C   0  0  0  0  0  2  0  0  0  0  0  0
  180.0770  175.4570  138.0040 C   0  0  1  0  0  3  0  0  0  0  0  0
  181.4680  175.3160  137.5530 N   0  0  0  0  0  0  0  0  0  0  0  0
  180.7670  174.1540  138.1290 C   0  0  1  0  0  0  0  0  0  0  0  0
  180.2980  171.9070  137.4310 O   0  0  0  0  0  1  0  0  0  0  0  0
  180.9200  173.4450  135.7370 C   0  0  0  0  0  1  0  0  0  0  0  0
  180.1850  173.2460  137.0490 C   0  0  2  0  0  3  0  0  0  0  0  0
  191.8220  176.8540  137.9760 N   0  0  0  0  0  2  0  0  0  0  0  0
  194.6540  174.4520  137.4450 C   0  0  0  0  0  0  0  0  0  0  0  0
  192.5060  175.5680  136.0200 C   0  0  0  0  0  3  0  0  0  0  0  0
  193.3640  174.6610  135.3940 C   0  0  0  0  0  3  0  0  0  0  0  0
  194.4330  174.1070  136.1020 C   0  0  0  0  0  3  0  0  0  0  0  0
  193.7870  175.3610  138.0620 C   0  0  0  0  0  3  0  0  0  0  0  0
  192.7140  175.9240  137.3550 C   0  0  0  0  0  0  0  0  0  0  0  0
  195.7140  173.9290  138.2060 O   0  0  0  0  0  0  0  0  0  0  0  0
  196.1530  174.3510  139.4720 C   0  0  0  0  0  3  0  0  0  0  0  0
  197.6870  175.2910  141.0330 N   0  0  0  0  0  1  0  0  0  0  0  0
  197.3400  174.8950  139.7110 C   0  0  0  0  0  3  0  0  0  0  0  0
  2 33  1  1  0  0  0
  2  4  1  0  0  0  0
  3  4  1  0  0  0  0
  3 12  2  0  0  0  0
  4 13  2  0  0  0  0
  5  6  2  0  0  0  0
  6 14  1  0  0  0  0
  6  1  1  0  0  0  0
  7 16  1  1  0  0  0
  7 15  1  0  0  0  0
  7  2  1  0  0  0  0
  8  1  1  0  0  0  0
  9 13  1  6  0  0  0
  9 11  1  0  0  0  0
  9  5  1  0  0  0  0
 10 11  1  0  0  0  0
 11  8  1  1  0  0  0
 12 10  1  0  0  0  0
 15  3  1  0  0  0  0
 16 17  1  6  0  0  0
 18 16  1  0  0  0  0
 18 24  1  0  0  0  0
 19 23  1  0  0  0  0
 20 23  2  0  0  0  0
 20 25  1  0  0  0  0
 21 24  1  0  0  0  0
 21 22  2  0  0  0  0
 22 20  1  0  0  0  0
 24 19  2  0  0  0  0
 27 29  1  0  0  0  0
 27 26  1  1  0  0  0
 28 27  1  0  0  0  0
 28 29  1  0  0  0  0
 28 25  1  0  0  0  0
 29 32  1  6  0  0  0
 29 26  1  0  0  0  0
 32 31  1  6  0  0  0
 32 30  1  0  0  0  0
 34 38  1  0  0  0  0
 34 40  1  0  0  0  0
 35 39  1  0  0  0  0
 36 35  2  0  0  0  0
 36 37  1  0  0  0  0
 37 34  2  0  0  0  0
 39 33  1  0  0  0  0
 39 38  2  0  0  0  0
 40 41  1  0  0  0  0
 41 43  2  0  0  0  0
 43 42  1  0  0  0  0
M  END
>  <MODEL>
8

>  <REMARK>
 VINA RESULT:      -7.4      2.606      6.567
  Name = 
  10 active torsions:
  status: ('A' for Active; 'I' for Inactive)
    1  A    between atoms: C_3  and  N_15
    2  A    between atoms: C_3  and  C_21
    3  A    between atoms: C_7  and  O_14
    4  A    between atoms: C_8  and  C_40
    5  A    between atoms: N_9  and  C_12
    6  A    between atoms: N_9  and  C_41
    7  A    between atoms: C_11  and  O_14
    8  A    between atoms: N_15  and  C_36
    9  A    between atoms: C_22  and  C_43
   10  A    between atoms: N_28  and  C_43
                            x       y       z     vdW  Elec       q    Type
                         _______ _______ _______ _____ _____    ______ ____

>  <TORSDO>
F 10

$$$$
=
 OpenBabel11042412383D

 43 49  0  0  1  0  0  0  0  0999 V2000
  192.4920  176.3120  137.2490 C   0  0  0  0  0  2  0  0  0  0  0  0
  185.9230  176.2780  137.2820 C   0  0  1  0  0  3  0  0  0  0  0  0
  187.7090  177.9050  137.2660 C   0  0  0  0  0  0  0  0  0  0  0  0
  187.3930  176.4870  137.4060 C   0  0  0  0  0  0  0  0  0  0  0  0
  190.3780  175.3730  136.3050 C   0  0  0  0  0  3  0  0  0  0  0  0
  191.6680  175.6880  136.1430 C   0  0  0  0  0  0  0  0  0  0  0  0
  185.3230  177.6800  137.1250 C   0  0  2  0  0  3  0  0  0  0  0  0
  191.7830  176.3710  138.6170 C   0  0  0  0  0  2  0  0  0  0  0  0
  189.7150  175.5140  137.6430 C   0  0  1  0  0  3  0  0  0  0  0  0
  190.1110  177.9430  137.8140 N   0  0  0  0  0  2  0  0  0  0  0  0
  190.2880  176.6530  138.4710 C   0  0  2  0  0  3  0  0  0  0  0  0
  188.8760  178.5370  137.4080 C   0  0  0  0  0  3  0  0  0  0  0  0
  188.2260  175.4600  137.5860 C   0  0  0  0  0  3  0  0  0  0  0  0
  192.2560  175.4920  134.9010 O   0  0  0  0  0  1  0  0  0  0  0  0
  186.4820  178.6650  136.9390 C   0  0  0  0  0  2  0  0  0  0  0  0
  184.4970  178.0490  138.3590 C   0  0  2  0  0  3  0  0  0  0  0  0
  183.2770  178.6180  137.9830 O   0  0  0  0  0  1  0  0  0  0  0  0
  185.2270  178.9690  139.2290 N   0  0  0  0  0  2  0  0  0  0  0  0
  184.7450  178.5340  141.6190 C   0  0  0  0  0  3  0  0  0  0  0  0
  186.5750  178.1110  143.1260 C   0  0  0  0  0  0  0  0  0  0  0  0
  187.0200  178.5310  140.8300 C   0  0  0  0  0  3  0  0  0  0  0  0
  187.4480  178.2580  142.0920 N   0  0  0  0  0  0  0  0  0  0  0  0
  185.2030  178.2530  142.9060 C   0  0  0  0  0  3  0  0  0  0  0  0
  185.6560  178.6750  140.5650 C   0  0  0  0  0  0  0  0  0  0  0  0
  187.0850  177.8450  144.4970 C   0  0  0  0  0  2  0  0  0  0  0  0
  189.5120  178.0900  146.1560 C   0  0  0  0  0  2  0  0  0  0  0  0
  188.7990  176.8160  145.7680 C   0  0  1  0  0  3  0  0  0  0  0  0
  188.1900  176.8980  144.4340 N   0  0  0  0  0  0  0  0  0  0  0  0
  189.4350  177.6350  144.7130 C   0  0  1  0  0  0  0  0  0  0  0  0
  191.6890  177.7550  143.8980 O   0  0  0  0  0  1  0  0  0  0  0  0
  190.3350  176.0060  143.0440 C   0  0  0  0  0  1  0  0  0  0  0  0
  190.6700  176.8660  144.2480 C   0  0  2  0  0  3  0  0  0  0  0  0
  185.6190  175.5000  136.0870 N   0  0  0  0  0  2  0  0  0  0  0  0
  182.8950  172.9220  136.0500 C   0  0  0  0  0  0  0  0  0  0  0  0
  185.6940  173.0670  136.2410 C   0  0  0  0  0  3  0  0  0  0  0  0
  185.0550  171.8250  136.2710 C   0  0  0  0  0  3  0  0  0  0  0  0
  183.6630  171.7530  136.1770 C   0  0  0  0  0  3  0  0  0  0  0  0
  183.5470  174.1600  136.0200 C   0  0  0  0  0  3  0  0  0  0  0  0
  184.9440  174.2390  136.1170 C   0  0  0  0  0  0  0  0  0  0  0  0
  181.4930  172.9100  135.9540 O   0  0  0  0  0  0  0  0  0  0  0  0
  180.5790  173.7380  136.6280 C   0  0  0  0  0  3  0  0  0  0  0  0
  179.4860  174.6630  138.5310 N   0  0  0  0  0  1  0  0  0  0  0  0
  180.4430  173.7870  137.9480 C   0  0  0  0  0  3  0  0  0  0  0  0
  1  8  1  0  0  0  0
  2 33  1  6  0  0  0
  2  4  1  0  0  0  0
  3  4  1  0  0  0  0
  3 12  2  0  0  0  0
  4 13  2  0  0  0  0
  6  5  2  0  0  0  0
  6  1  1  0  0  0  0
  7  2  1  0  0  0  0
  7 16  1  1  0  0  0
  9  5  1  6  0  0  0
  9 11  1  0  0  0  0
 10 11  1  0  0  0  0
 11  8  1  6  0  0  0
 12 10  1  0  0  0  0
 13  9  1  0  0  0  0
 14  6  1  0  0  0  0
 15  7  1  0  0  0  0
 15  3  1  0  0  0  0
 16 17  1  6  0  0  0
 16 18  1  0  0  0  0
 18 24  1  0  0  0  0
 19 23  1  0  0  0  0
 20 25  1  0  0  0  0
 21 22  2  0  0  0  0
 22 20  1  0  0  0  0
 23 20  2  0  0  0  0
 24 21  1  0  0  0  0
 24 19  2  0  0  0  0
 27 26  1  1  0  0  0
 28 25  1  0  0  0  0
 28 29  1  0  0  0  0
 28 27  1  0  0  0  0
 29 32  1  6  0  0  0
 29 27  1  0  0  0  0
 29 26  1  0  0  0  0
 30 32  1  0  0  0  0
 32 31  1  6  0  0  0
 33 39  1  0  0  0  0
 34 37  1  0  0  0  0
 35 36  1  0  0  0  0
 37 36  2  0  0  0  0
 38 34  2  0  0  0  0
 38 39  1  0  0  0  0
 39 35  2  0  0  0  0
 40 34  1  0  0  0  0
 40 41  1  0  0  0  0
 41 43  2  0  0  0  0
 43 42  1  0  0  0  0
M  END
>  <MODEL>
9

>  <REMARK>
 VINA RESULT:      -7.4      2.995      7.830
  Name = 
  10 active torsions:
  status: ('A' for Active; 'I' for Inactive)
    1  A    between atoms: C_3  and  N_15
    2  A    between atoms: C_3  and  C_21
    3  A    between atoms: C_7  and  O_14
    4  A    between atoms: C_8  and  C_40
    5  A    between atoms: N_9  and  C_12
    6  A    between atoms: N_9  and  C_41
    7  A    between atoms: C_11  and  O_14
    8  A    between atoms: N_15  and  C_36
    9  A    between atoms: C_22  and  C_43
   10  A    between atoms: N_28  and  C_43
                            x       y       z     vdW  Elec       q    Type
                         _______ _______ _______ _____ _____    ______ ____

>  <TORSDO>
F 10

$$$$
