=
 OpenBabel11032420093D

 28 30  0  0  1  0  0  0  0  0999 V2000
  190.9770  176.9740  143.7180 S   0  0  0  0  0  0  0  0  0  0  0  0
  189.6540  177.2430  142.7080 C   0  0  0  0  0  0  0  0  0  0  0  0
  190.0590  177.1250  145.1180 C   0  0  0  0  0  0  0  0  0  0  0  0
  188.5220  177.4580  143.4160 N   0  0  0  0  0  0  0  0  0  0  0  0
  188.7450  177.4060  144.7550 C   0  0  0  0  0  0  0  0  0  0  0  0
  189.0120  178.2740  140.5180 N   0  0  0  0  0  2  0  0  0  0  0  0
  190.3560  176.3680  140.6280 O   0  0  0  0  0  0  0  0  0  0  0  0
  189.7040  177.2540  141.2430 C   0  0  0  0  0  0  0  0  0  0  0  0
  189.0640  178.3810  139.0670 C   0  0  0  0  0  2  0  0  0  0  0  0
  187.7150  178.4300  138.5180 N   0  0  0  0  0  2  0  0  0  0  0  0
  187.1480  177.3720  137.7410 C   0  0  0  0  0  0  0  0  0  0  0  0
  185.2570  176.4720  136.4920 C   0  0  2  0  0  3  0  0  0  0  0  0
  187.9580  176.1560  137.3880 C   0  0  0  0  0  2  0  0  0  0  0  0
  183.8320  176.5170  136.7700 N   0  0  0  0  0  1  0  0  0  0  0  0
  185.8230  175.0820  136.7420 C   0  0  0  0  0  0  0  0  0  0  0  0
  185.9240  177.4840  137.3190 N   0  0  0  0  0  0  0  0  0  0  0  0
  187.0740  174.9610  137.1910 C   0  0  0  0  0  3  0  0  0  0  0  0
  184.6920  172.9980  137.4820 C   0  0  0  0  0  1  0  0  0  0  0  0
  185.1100  173.9080  136.4750 O   0  0  0  0  0  0  0  0  0  0  0  0
  187.6420  177.5960  145.7390 C   0  0  0  0  0  2  0  0  0  0  0  0
  186.4250  177.2140  145.1600 O   0  0  0  0  0  0  0  0  0  0  0  0
  185.0460  179.0810  144.1720 C   0  0  0  0  0  1  0  0  0  0  0  0
  184.7330  178.2790  146.6500 C   0  0  0  0  0  2  0  0  0  0  0  0
  185.5370  178.2790  145.3650 C   0  0  0  0  0  0  0  0  0  0  0  0
  185.9710  179.1550  146.5160 C   0  0  0  0  0  2  0  0  0  0  0  0
  190.5970  177.0440  146.5050 C   0  0  0  0  0  2  0  0  0  0  0  0
  191.9840  176.9110  146.4640 O   0  0  0  0  0  0  0  0  0  0  0  0
  192.2880  176.1770  147.5600 N   0  0  0  0  0  1  0  0  0  0  0  0
  1  3  1  0  0  0  0
  2  4  2  0  0  0  0
  2  1  1  0  0  0  0
  3 26  1  0  0  0  0
  4  5  1  0  0  0  0
  5  3  2  0  0  0  0
  5 20  1  0  0  0  0
  6  8  1  0  0  0  0
  7  8  2  0  0  0  0
  8  2  1  0  0  0  0
  9  6  1  0  0  0  0
 10  9  1  0  0  0  0
 11 10  1  0  0  0  0
 12 15  1  0  0  0  0
 12 14  1  1  0  0  0
 12 16  1  0  0  0  0
 13 11  1  0  0  0  0
 15 17  2  0  0  0  0
 16 11  2  0  0  0  0
 17 13  1  0  0  0  0
 19 15  1  0  0  0  0
 19 18  1  0  0  0  0
 21 24  1  0  0  0  0
 21 20  1  0  0  0  0
 22 24  1  0  0  0  0
 24 25  1  0  0  0  0
 24 23  1  0  0  0  0
 25 23  1  0  0  0  0
 27 26  1  0  0  0  0
 27 28  1  0  0  0  0
M  END
>  <MODEL>
1

>  <REMARK>
 VINA RESULT:      -7.1      0.000      0.000
  Name = 
  9 active torsions:
  status: ('A' for Active; 'I' for Inactive)
    1  A    between atoms: N_2  and  C_22
    2  A    between atoms: O_4  and  C_13
    3  A    between atoms: O_4  and  C_15
    4  A    between atoms: O_9  and  C_17
    5  A    between atoms: C_10  and  C_25
    6  A    between atoms: N_12  and  C_22
    7  A    between atoms: C_13  and  C_24
    8  A    between atoms: C_14  and  C_17
    9  A    between atoms: C_19  and  O_28
                            x       y       z     vdW  Elec       q    Type
                         _______ _______ _______ _____ _____    ______ ____

>  <TORSDO>
F 9

$$$$
=
 OpenBabel11032420093D

 28 30  0  0  1  0  0  0  0  0999 V2000
  183.8200  178.7180  142.6030 S   0  0  0  0  0  0  0  0  0  0  0  0
  185.1080  178.7520  143.6910 C   0  0  0  0  0  0  0  0  0  0  0  0
  184.8300  178.6830  141.2610 C   0  0  0  0  0  0  0  0  0  0  0  0
  186.3000  178.7480  143.0510 N   0  0  0  0  0  0  0  0  0  0  0  0
  186.1500  178.7240  141.7010 C   0  0  0  0  0  0  0  0  0  0  0  0
  186.1270  178.5730  145.9710 N   0  0  0  0  0  2  0  0  0  0  0  0
  183.8530  179.0120  145.6760 O   0  0  0  0  0  0  0  0  0  0  0  0
  184.9770  178.7890  145.1500 C   0  0  0  0  0  0  0  0  0  0  0  0
  186.0830  178.6520  147.4240 C   0  0  0  0  0  2  0  0  0  0  0  0
  187.3610  178.2370  147.9890 N   0  0  0  0  0  2  0  0  0  0  0  0
  188.3870  177.6040  147.2200 C   0  0  0  0  0  0  0  0  0  0  0  0
  190.6160  176.6210  147.1090 C   0  0  2  0  0  3  0  0  0  0  0  0
  188.1690  177.2690  145.7710 C   0  0  0  0  0  2  0  0  0  0  0  0
  191.8640  177.0350  147.7270 N   0  0  0  0  0  1  0  0  0  0  0  0
  190.6150  176.9220  145.6180 C   0  0  0  0  0  0  0  0  0  0  0  0
  189.5110  177.2970  147.7970 N   0  0  0  0  0  0  0  0  0  0  0  0
  189.4670  177.2530  145.0220 C   0  0  0  0  0  3  0  0  0  0  0  0
  191.8110  177.2540  143.4660 C   0  0  0  0  0  1  0  0  0  0  0  0
  191.7580  176.8190  144.8170 O   0  0  0  0  0  0  0  0  0  0  0  0
  187.3250  178.6970  140.7850 C   0  0  0  0  0  2  0  0  0  0  0  0
  188.1620  177.6260  141.1250 O   0  0  0  0  0  0  0  0  0  0  0  0
  190.3350  176.7540  140.1860 C   0  0  0  0  0  1  0  0  0  0  0  0
  188.2670  177.2730  138.6580 C   0  0  0  0  0  2  0  0  0  0  0  0
  188.9620  177.3780  140.0010 C   0  0  0  0  0  0  0  0  0  0  0  0
  188.9820  178.5570  139.0560 C   0  0  0  0  0  2  0  0  0  0  0  0
  184.3680  178.6860  139.8440 C   0  0  0  0  0  2  0  0  0  0  0  0
  184.8580  179.8160  139.1930 O   0  0  0  0  0  0  0  0  0  0  0  0
  183.7620  180.5770  138.9630 N   0  0  0  0  0  1  0  0  0  0  0  0
  1  2  1  0  0  0  0
  2  8  1  0  0  0  0
  3  5  2  0  0  0  0
  3  1  1  0  0  0  0
  4  2  2  0  0  0  0
  5  4  1  0  0  0  0
  6  9  1  0  0  0  0
  8  7  2  0  0  0  0
  8  6  1  0  0  0  0
  9 10  1  0  0  0  0
 11 16  2  0  0  0  0
 11 10  1  0  0  0  0
 12 14  1  1  0  0  0
 12 16  1  0  0  0  0
 13 11  1  0  0  0  0
 15 12  1  0  0  0  0
 17 15  2  0  0  0  0
 17 13  1  0  0  0  0
 18 19  1  0  0  0  0
 19 15  1  0  0  0  0
 20 21  1  0  0  0  0
 20  5  1  0  0  0  0
 23 25  1  0  0  0  0
 23 24  1  0  0  0  0
 24 22  1  0  0  0  0
 24 21  1  0  0  0  0
 25 24  1  0  0  0  0
 26  3  1  0  0  0  0
 27 26  1  0  0  0  0
 28 27  1  0  0  0  0
M  END
>  <MODEL>
2

>  <REMARK>
 VINA RESULT:      -7.1      3.199      8.719
  Name = 
  9 active torsions:
  status: ('A' for Active; 'I' for Inactive)
    1  A    between atoms: N_2  and  C_22
    2  A    between atoms: O_4  and  C_13
    3  A    between atoms: O_4  and  C_15
    4  A    between atoms: O_9  and  C_17
    5  A    between atoms: C_10  and  C_25
    6  A    between atoms: N_12  and  C_22
    7  A    between atoms: C_13  and  C_24
    8  A    between atoms: C_14  and  C_17
    9  A    between atoms: C_19  and  O_28
                            x       y       z     vdW  Elec       q    Type
                         _______ _______ _______ _____ _____    ______ ____

>  <TORSDO>
F 9

$$$$
=
 OpenBabel11032420093D

 28 30  0  0  1  0  0  0  0  0999 V2000
  189.0520  177.5550  141.4290 S   0  0  0  0  0  0  0  0  0  0  0  0
  187.7130  178.3660  140.8020 C   0  0  0  0  0  0  0  0  0  0  0  0
  189.8740  177.5830  139.9630 C   0  0  0  0  0  0  0  0  0  0  0  0
  187.8730  178.6520  139.4900 N   0  0  0  0  0  0  0  0  0  0  0  0
  189.0660  178.2070  139.0170 C   0  0  0  0  0  0  0  0  0  0  0  0
  186.3350  178.2080  142.8870 N   0  0  0  0  0  2  0  0  0  0  0  0
  185.6450  179.4800  141.0550 O   0  0  0  0  0  0  0  0  0  0  0  0
  186.5130  178.7220  141.5650 C   0  0  0  0  0  0  0  0  0  0  0  0
  185.1980  178.5640  143.7240 C   0  0  0  0  0  2  0  0  0  0  0  0
  185.5990  178.6040  145.1240 N   0  0  0  0  0  2  0  0  0  0  0  0
  186.7760  177.9610  145.6210 C   0  0  0  0  0  0  0  0  0  0  0  0
  188.2410  177.4330  147.4960 C   0  0  2  0  0  3  0  0  0  0  0  0
  187.6440  177.1370  144.7120 C   0  0  0  0  0  2  0  0  0  0  0  0
  188.6820  178.2530  148.6120 N   0  0  0  0  0  1  0  0  0  0  0  0
  189.3640  177.2260  146.4900 C   0  0  0  0  0  0  0  0  0  0  0  0
  187.0760  178.0760  146.8800 N   0  0  0  0  0  0  0  0  0  0  0  0
  189.0640  177.1230  145.1930 C   0  0  0  0  0  3  0  0  0  0  0  0
  191.6640  176.3830  146.0830 C   0  0  0  0  0  1  0  0  0  0  0  0
  190.7060  177.0840  146.8610 O   0  0  0  0  0  0  0  0  0  0  0  0
  189.4740  178.4220  137.6000 C   0  0  0  0  0  2  0  0  0  0  0  0
  188.3590  178.8090  136.8440 O   0  0  0  0  0  0  0  0  0  0  0  0
  189.3020  177.3640  135.0040 C   0  0  0  0  0  1  0  0  0  0  0  0
  186.9870  176.8550  136.1260 C   0  0  0  0  0  2  0  0  0  0  0  0
  188.1520  177.7970  135.8970 C   0  0  0  0  0  0  0  0  0  0  0  0
  186.8660  178.0010  135.1310 C   0  0  0  0  0  2  0  0  0  0  0  0
  191.2100  176.9700  139.7220 C   0  0  0  0  0  2  0  0  0  0  0  0
  192.1860  177.6820  140.4180 O   0  0  0  0  0  0  0  0  0  0  0  0
  193.3480  177.3500  139.8080 N   0  0  0  0  0  1  0  0  0  0  0  0
  2  1  1  0  0  0  0
  2  8  1  0  0  0  0
  3  1  1  0  0  0  0
  4  2  2  0  0  0  0
  5  4  1  0  0  0  0
  5  3  2  0  0  0  0
  6  9  1  0  0  0  0
  7  8  2  0  0  0  0
  8  6  1  0  0  0  0
  9 10  1  0  0  0  0
 10 11  1  0  0  0  0
 11 16  2  0  0  0  0
 12 14  1  1  0  0  0
 13 17  1  0  0  0  0
 13 11  1  0  0  0  0
 15 19  1  0  0  0  0
 15 12  1  0  0  0  0
 16 12  1  0  0  0  0
 17 15  2  0  0  0  0
 18 19  1  0  0  0  0
 20  5  1  0  0  0  0
 21 20  1  0  0  0  0
 22 24  1  0  0  0  0
 24 23  1  0  0  0  0
 24 21  1  0  0  0  0
 25 24  1  0  0  0  0
 25 23  1  0  0  0  0
 26  3  1  0  0  0  0
 26 27  1  0  0  0  0
 28 27  1  0  0  0  0
M  END
>  <MODEL>
3

>  <REMARK>
 VINA RESULT:      -7.0      2.681      8.361
  Name = 
  9 active torsions:
  status: ('A' for Active; 'I' for Inactive)
    1  A    between atoms: N_2  and  C_22
    2  A    between atoms: O_4  and  C_13
    3  A    between atoms: O_4  and  C_15
    4  A    between atoms: O_9  and  C_17
    5  A    between atoms: C_10  and  C_25
    6  A    between atoms: N_12  and  C_22
    7  A    between atoms: C_13  and  C_24
    8  A    between atoms: C_14  and  C_17
    9  A    between atoms: C_19  and  O_28
                            x       y       z     vdW  Elec       q    Type
                         _______ _______ _______ _____ _____    ______ ____

>  <TORSDO>
F 9

$$$$
=
 OpenBabel11032420093D

 28 30  0  0  1  0  0  0  0  0999 V2000
  191.1580  177.0960  144.2130 S   0  0  0  0  0  0  0  0  0  0  0  0
  189.9140  177.5020  143.1490 C   0  0  0  0  0  0  0  0  0  0  0  0
  190.1490  177.1340  145.5560 C   0  0  0  0  0  0  0  0  0  0  0  0
  188.7410  177.6770  143.7980 N   0  0  0  0  0  0  0  0  0  0  0  0
  188.8700  177.4870  145.1370 C   0  0  0  0  0  0  0  0  0  0  0  0
  188.9510  178.0880  140.9130 N   0  0  0  0  0  2  0  0  0  0  0  0
  191.1740  177.4120  141.1510 O   0  0  0  0  0  0  0  0  0  0  0  0
  190.0650  177.6560  141.6990 C   0  0  0  0  0  0  0  0  0  0  0  0
  189.0430  178.3190  139.4790 C   0  0  0  0  0  2  0  0  0  0  0  0
  188.5230  177.1690  138.7500 N   0  0  0  0  0  2  0  0  0  0  0  0
  189.3450  176.3030  137.9640 C   0  0  0  0  0  0  0  0  0  0  0  0
  189.5480  174.3470  136.5220 C   0  0  2  0  0  3  0  0  0  0  0  0
  190.8120  176.5800  137.7920 C   0  0  0  0  0  2  0  0  0  0  0  0
  188.9140  173.0420  136.6020 N   0  0  0  0  0  1  0  0  0  0  0  0
  191.0140  174.2710  136.9240 C   0  0  0  0  0  0  0  0  0  0  0  0
  188.8030  175.2790  137.3740 N   0  0  0  0  0  0  0  0  0  0  0  0
  191.5730  175.3130  137.5440 C   0  0  0  0  0  3  0  0  0  0  0  0
  193.2420  173.2620  136.4910 C   0  0  0  0  0  1  0  0  0  0  0  0
  191.8310  173.1740  136.6290 O   0  0  0  0  0  0  0  0  0  0  0  0
  187.7060  177.6090  146.0590 C   0  0  0  0  0  2  0  0  0  0  0  0
  186.5480  177.1490  145.4180 O   0  0  0  0  0  0  0  0  0  0  0  0
  185.2130  178.8970  144.1820 C   0  0  0  0  0  1  0  0  0  0  0  0
  184.7170  178.2770  146.6820 C   0  0  0  0  0  2  0  0  0  0  0  0
  185.6230  178.2020  145.4690 C   0  0  0  0  0  0  0  0  0  0  0  0
  185.9430  179.1750  146.5790 C   0  0  0  0  0  2  0  0  0  0  0  0
  190.5880  176.9000  146.9610 C   0  0  0  0  0  2  0  0  0  0  0  0
  191.9800  176.8420  147.0140 O   0  0  0  0  0  0  0  0  0  0  0  0
  192.2460  175.6990  147.6890 N   0  0  0  0  0  1  0  0  0  0  0  0
  1  3  1  0  0  0  0
  2  4  2  0  0  0  0
  2  1  1  0  0  0  0
  3 26  1  0  0  0  0
  4  5  1  0  0  0  0
  5  3  2  0  0  0  0
  5 20  1  0  0  0  0
  6  8  1  0  0  0  0
  7  8  2  0  0  0  0
  8  2  1  0  0  0  0
  9  6  1  0  0  0  0
 10  9  1  0  0  0  0
 11 10  1  0  0  0  0
 12 14  1  1  0  0  0
 12 15  1  0  0  0  0
 12 16  1  0  0  0  0
 13 11  1  0  0  0  0
 15 17  2  0  0  0  0
 16 11  2  0  0  0  0
 17 13  1  0  0  0  0
 18 19  1  0  0  0  0
 19 15  1  0  0  0  0
 21 24  1  0  0  0  0
 21 20  1  0  0  0  0
 22 24  1  0  0  0  0
 24 25  1  0  0  0  0
 24 23  1  0  0  0  0
 25 23  1  0  0  0  0
 26 27  1  0  0  0  0
 27 28  1  0  0  0  0
M  END
>  <MODEL>
4

>  <REMARK>
 VINA RESULT:      -6.9      2.416      3.071
  Name = 
  9 active torsions:
  status: ('A' for Active; 'I' for Inactive)
    1  A    between atoms: N_2  and  C_22
    2  A    between atoms: O_4  and  C_13
    3  A    between atoms: O_4  and  C_15
    4  A    between atoms: O_9  and  C_17
    5  A    between atoms: C_10  and  C_25
    6  A    between atoms: N_12  and  C_22
    7  A    between atoms: C_13  and  C_24
    8  A    between atoms: C_14  and  C_17
    9  A    between atoms: C_19  and  O_28
                            x       y       z     vdW  Elec       q    Type
                         _______ _______ _______ _____ _____    ______ ____

>  <TORSDO>
F 9

$$$$
=
 OpenBabel11032420093D

 28 30  0  0  1  0  0  0  0  0999 V2000
  185.2440  178.6040  143.3560 S   0  0  0  0  0  0  0  0  0  0  0  0
  186.5300  178.3460  142.2970 C   0  0  0  0  0  0  0  0  0  0  0  0
  186.0990  178.0320  144.6850 C   0  0  0  0  0  0  0  0  0  0  0  0
  187.6020  177.8210  142.9330 N   0  0  0  0  0  0  0  0  0  0  0  0
  187.3620  177.6330  144.2570 C   0  0  0  0  0  0  0  0  0  0  0  0
  187.5570  178.1500  140.0220 N   0  0  0  0  0  2  0  0  0  0  0  0
  185.5690  179.3240  140.3720 O   0  0  0  0  0  0  0  0  0  0  0  0
  186.5090  178.6420  140.8620 C   0  0  0  0  0  0  0  0  0  0  0  0
  187.5710  178.3540  138.5800 C   0  0  0  0  0  2  0  0  0  0  0  0
  187.7680  177.0830  137.8950 N   0  0  0  0  0  2  0  0  0  0  0  0
  189.0590  176.5300  137.6270 C   0  0  0  0  0  0  0  0  0  0  0  0
  190.4140  174.7320  136.6920 C   0  0  2  0  0  3  0  0  0  0  0  0
  190.3090  177.2830  137.9880 C   0  0  0  0  0  2  0  0  0  0  0  0
  190.2270  173.2910  136.7240 N   0  0  0  0  0  1  0  0  0  0  0  0
  191.5330  175.1610  137.6300 C   0  0  0  0  0  0  0  0  0  0  0  0
  189.1420  175.3740  137.0400 N   0  0  0  0  0  0  0  0  0  0  0  0
  191.4460  176.3410  138.2480 C   0  0  0  0  0  3  0  0  0  0  0  0
  193.9780  174.7890  137.3990 C   0  0  0  0  0  1  0  0  0  0  0  0
  192.6870  174.3980  137.8430 O   0  0  0  0  0  0  0  0  0  0  0  0
  188.4030  177.0800  145.1690 C   0  0  0  0  0  2  0  0  0  0  0  0
  189.0070  178.1250  145.8810 O   0  0  0  0  0  0  0  0  0  0  0  0
  190.7380  176.7080  147.0480 C   0  0  0  0  0  1  0  0  0  0  0  0
  189.0510  178.2190  148.3730 C   0  0  0  0  0  2  0  0  0  0  0  0
  189.4840  177.5660  147.0750 C   0  0  0  0  0  0  0  0  0  0  0  0
  188.3720  176.9450  147.8860 C   0  0  0  0  0  2  0  0  0  0  0  0
  185.5510  177.9110  146.0660 C   0  0  0  0  0  2  0  0  0  0  0  0
  184.9690  179.1190  146.4470 O   0  0  0  0  0  0  0  0  0  0  0  0
  185.8430  179.6520  147.3330 N   0  0  0  0  0  1  0  0  0  0  0  0
  1  3  1  0  0  0  0
  2  4  2  0  0  0  0
  2  1  1  0  0  0  0
  3 26  1  0  0  0  0
  4  5  1  0  0  0  0
  5  3  2  0  0  0  0
  5 20  1  0  0  0  0
  6  8  1  0  0  0  0
  7  8  2  0  0  0  0
  8  2  1  0  0  0  0
  9  6  1  0  0  0  0
 10  9  1  0  0  0  0
 11 10  1  0  0  0  0
 11 13  1  0  0  0  0
 12 14  1  1  0  0  0
 12 16  1  0  0  0  0
 12 15  1  0  0  0  0
 13 17  1  0  0  0  0
 15 19  1  0  0  0  0
 15 17  2  0  0  0  0
 16 11  2  0  0  0  0
 18 19  1  0  0  0  0
 20 21  1  0  0  0  0
 21 24  1  0  0  0  0
 22 24  1  0  0  0  0
 24 25  1  0  0  0  0
 24 23  1  0  0  0  0
 25 23  1  0  0  0  0
 26 27  1  0  0  0  0
 27 28  1  0  0  0  0
M  END
>  <MODEL>
5

>  <REMARK>
 VINA RESULT:      -6.9      3.231      4.901
  Name = 
  9 active torsions:
  status: ('A' for Active; 'I' for Inactive)
    1  A    between atoms: N_2  and  C_22
    2  A    between atoms: O_4  and  C_13
    3  A    between atoms: O_4  and  C_15
    4  A    between atoms: O_9  and  C_17
    5  A    between atoms: C_10  and  C_25
    6  A    between atoms: N_12  and  C_22
    7  A    between atoms: C_13  and  C_24
    8  A    between atoms: C_14  and  C_17
    9  A    between atoms: C_19  and  O_28
                            x       y       z     vdW  Elec       q    Type
                         _______ _______ _______ _____ _____    ______ ____

>  <TORSDO>
F 9

$$$$
=
 OpenBabel11032420093D

 28 30  0  0  1  0  0  0  0  0999 V2000
  184.7600  178.6780  140.1350 S   0  0  0  0  0  0  0  0  0  0  0  0
  185.2610  178.6190  141.7440 C   0  0  0  0  0  0  0  0  0  0  0  0
  186.3120  178.4230  139.5430 C   0  0  0  0  0  0  0  0  0  0  0  0
  186.5950  178.4200  141.8430 N   0  0  0  0  0  0  0  0  0  0  0  0
  187.1840  178.3230  140.6230 C   0  0  0  0  0  0  0  0  0  0  0  0
  184.9200  178.6560  144.2240 N   0  0  0  0  0  2  0  0  0  0  0  0
  183.1520  179.0030  142.7380 O   0  0  0  0  0  0  0  0  0  0  0  0
  184.3800  178.7700  142.9050 C   0  0  0  0  0  0  0  0  0  0  0  0
  184.1170  178.8510  145.4230 C   0  0  0  0  0  2  0  0  0  0  0  0
  184.9660  178.8190  146.6060 N   0  0  0  0  0  2  0  0  0  0  0  0
  186.2560  178.2040  146.6280 C   0  0  0  0  0  0  0  0  0  0  0  0
  188.2820  177.6270  147.8560 C   0  0  2  0  0  3  0  0  0  0  0  0
  186.7860  177.4840  145.4190 C   0  0  0  0  0  2  0  0  0  0  0  0
  189.0550  178.3930  148.8200 N   0  0  0  0  0  1  0  0  0  0  0  0
  189.0030  177.5410  146.5190 C   0  0  0  0  0  0  0  0  0  0  0  0
  186.9620  178.2510  147.7180 N   0  0  0  0  0  0  0  0  0  0  0  0
  188.2850  177.5080  145.3940 C   0  0  0  0  0  3  0  0  0  0  0  0
  191.1510  176.3730  146.9560 C   0  0  0  0  0  1  0  0  0  0  0  0
  190.3940  177.4410  146.4060 O   0  0  0  0  0  0  0  0  0  0  0  0
  188.6480  178.0850  140.4790 C   0  0  0  0  0  2  0  0  0  0  0  0
  189.2710  178.2190  141.7270 O   0  0  0  0  0  0  0  0  0  0  0  0
  191.0740  177.1280  140.3400 C   0  0  0  0  0  1  0  0  0  0  0  0
  191.2430  177.3060  142.9510 C   0  0  0  0  0  2  0  0  0  0  0  0
  190.4240  177.4230  141.6810 C   0  0  0  0  0  0  0  0  0  0  0  0
  190.2890  176.1910  142.5450 C   0  0  0  0  0  2  0  0  0  0  0  0
  186.6810  178.3900  138.1000 C   0  0  0  0  0  2  0  0  0  0  0  0
  186.6640  177.0730  137.6410 O   0  0  0  0  0  0  0  0  0  0  0  0
  186.5470  177.1840  136.2970 N   0  0  0  0  0  1  0  0  0  0  0  0
  1  2  1  0  0  0  0
  2  4  2  0  0  0  0
  2  8  1  0  0  0  0
  3  1  1  0  0  0  0
  3  5  2  0  0  0  0
  5  4  1  0  0  0  0
  6  9  1  0  0  0  0
  7  8  2  0  0  0  0
  8  6  1  0  0  0  0
  9 10  1  0  0  0  0
 10 11  1  0  0  0  0
 11 16  2  0  0  0  0
 12 14  1  1  0  0  0
 13 11  1  0  0  0  0
 15 12  1  0  0  0  0
 16 12  1  0  0  0  0
 17 13  1  0  0  0  0
 17 15  2  0  0  0  0
 19 15  1  0  0  0  0
 19 18  1  0  0  0  0
 20  5  1  0  0  0  0
 20 21  1  0  0  0  0
 22 24  1  0  0  0  0
 24 21  1  0  0  0  0
 24 25  1  0  0  0  0
 24 23  1  0  0  0  0
 25 23  1  0  0  0  0
 26  3  1  0  0  0  0
 27 26  1  0  0  0  0
 28 27  1  0  0  0  0
M  END
>  <MODEL>
6

>  <REMARK>
 VINA RESULT:      -6.8      2.910      8.570
  Name = 
  9 active torsions:
  status: ('A' for Active; 'I' for Inactive)
    1  A    between atoms: N_2  and  C_22
    2  A    between atoms: O_4  and  C_13
    3  A    between atoms: O_4  and  C_15
    4  A    between atoms: O_9  and  C_17
    5  A    between atoms: C_10  and  C_25
    6  A    between atoms: N_12  and  C_22
    7  A    between atoms: C_13  and  C_24
    8  A    between atoms: C_14  and  C_17
    9  A    between atoms: C_19  and  O_28
                            x       y       z     vdW  Elec       q    Type
                         _______ _______ _______ _____ _____    ______ ____

>  <TORSDO>
F 9

$$$$
=
 OpenBabel11032420093D

 28 30  0  0  1  0  0  0  0  0999 V2000
  186.3170  178.2490  142.9100 S   0  0  0  0  0  0  0  0  0  0  0  0
  186.9270  178.4430  141.3500 C   0  0  0  0  0  0  0  0  0  0  0  0
  184.7370  178.5680  142.4330 C   0  0  0  0  0  0  0  0  0  0  0  0
  185.9510  178.7570  140.4680 N   0  0  0  0  0  0  0  0  0  0  0  0
  184.7350  178.8400  141.0690 C   0  0  0  0  0  0  0  0  0  0  0  0
  189.2290  177.5830  141.8320 N   0  0  0  0  0  2  0  0  0  0  0  0
  188.7570  178.8040  139.8990 O   0  0  0  0  0  0  0  0  0  0  0  0
  188.3370  178.2990  140.9750 C   0  0  0  0  0  0  0  0  0  0  0  0
  190.6270  177.3510  141.4970 C   0  0  0  0  0  2  0  0  0  0  0  0
  191.3220  176.7500  142.6280 N   0  0  0  0  0  2  0  0  0  0  0  0
  191.0350  177.0810  143.9890 C   0  0  0  0  0  0  0  0  0  0  0  0
  191.4840  176.7570  146.3630 C   0  0  2  0  0  3  0  0  0  0  0  0
  190.0230  178.1400  144.3260 C   0  0  0  0  0  2  0  0  0  0  0  0
  191.7590  175.5460  147.1170 N   0  0  0  0  0  1  0  0  0  0  0  0
  190.0800  177.2710  146.6430 C   0  0  0  0  0  0  0  0  0  0  0  0
  191.6800  176.4710  144.9380 N   0  0  0  0  0  0  0  0  0  0  0  0
  189.4050  177.8850  145.6680 C   0  0  0  0  0  3  0  0  0  0  0  0
  188.3870  178.0040  148.3070 C   0  0  0  0  0  1  0  0  0  0  0  0
  189.4690  177.1800  147.8990 O   0  0  0  0  0  0  0  0  0  0  0  0
  183.5020  179.1580  140.2940 C   0  0  0  0  0  2  0  0  0  0  0  0
  183.3990  178.2910  139.1980 O   0  0  0  0  0  0  0  0  0  0  0  0
  181.2710  177.9180  140.5020 C   0  0  0  0  0  1  0  0  0  0  0  0
  181.7930  176.6160  138.2850 C   0  0  0  0  0  2  0  0  0  0  0  0
  182.2550  177.5110  139.4180 C   0  0  0  0  0  0  0  0  0  0  0  0
  182.5800  176.0360  139.4520 C   0  0  0  0  0  2  0  0  0  0  0  0
  183.5630  178.6190  143.3490 C   0  0  0  0  0  2  0  0  0  0  0  0
  183.7370  179.6420  144.2800 O   0  0  0  0  0  0  0  0  0  0  0  0
  183.8000  179.0060  145.4740 N   0  0  0  0  0  1  0  0  0  0  0  0
  2  1  1  0  0  0  0
  3  1  1  0  0  0  0
  3 26  1  0  0  0  0
  4  5  1  0  0  0  0
  4  2  2  0  0  0  0
  5  3  2  0  0  0  0
  7  8  2  0  0  0  0
  8  2  1  0  0  0  0
  8  6  1  0  0  0  0
  9  6  1  0  0  0  0
  9 10  1  0  0  0  0
 10 11  1  0  0  0  0
 11 13  1  0  0  0  0
 11 16  2  0  0  0  0
 12 15  1  0  0  0  0
 12 14  1  1  0  0  0
 13 17  1  0  0  0  0
 15 19  1  0  0  0  0
 16 12  1  0  0  0  0
 17 15  2  0  0  0  0
 19 18  1  0  0  0  0
 20  5  1  0  0  0  0
 21 24  1  0  0  0  0
 21 20  1  0  0  0  0
 23 24  1  0  0  0  0
 23 25  1  0  0  0  0
 24 25  1  0  0  0  0
 24 22  1  0  0  0  0
 26 27  1  0  0  0  0
 27 28  1  0  0  0  0
M  END
>  <MODEL>
7

>  <REMARK>
 VINA RESULT:      -6.8      3.213      7.929
  Name = 
  9 active torsions:
  status: ('A' for Active; 'I' for Inactive)
    1  A    between atoms: N_2  and  C_22
    2  A    between atoms: O_4  and  C_13
    3  A    between atoms: O_4  and  C_15
    4  A    between atoms: O_9  and  C_17
    5  A    between atoms: C_10  and  C_25
    6  A    between atoms: N_12  and  C_22
    7  A    between atoms: C_13  and  C_24
    8  A    between atoms: C_14  and  C_17
    9  A    between atoms: C_19  and  O_28
                            x       y       z     vdW  Elec       q    Type
                         _______ _______ _______ _____ _____    ______ ____

>  <TORSDO>
F 9

$$$$
=
 OpenBabel11032420093D

 28 30  0  0  1  0  0  0  0  0999 V2000
  186.3040  178.3360  142.4190 S   0  0  0  0  0  0  0  0  0  0  0  0
  187.8440  177.9270  141.8680 C   0  0  0  0  0  0  0  0  0  0  0  0
  186.6480  177.8880  144.0020 C   0  0  0  0  0  0  0  0  0  0  0  0
  188.6190  177.4440  142.8660 N   0  0  0  0  0  0  0  0  0  0  0  0
  187.9530  177.4080  144.0500 C   0  0  0  0  0  0  0  0  0  0  0  0
  189.6110  177.6060  140.1230 N   0  0  0  0  0  2  0  0  0  0  0  0
  187.5500  178.5790  139.6150 O   0  0  0  0  0  0  0  0  0  0  0  0
  188.3050  178.0630  140.4830 C   0  0  0  0  0  0  0  0  0  0  0  0
  190.1140  177.6560  138.7570 C   0  0  0  0  0  2  0  0  0  0  0  0
  191.5540  177.4340  138.7440 N   0  0  0  0  0  2  0  0  0  0  0  0
  192.1510  176.2010  138.3340 C   0  0  0  0  0  0  0  0  0  0  0  0
  194.1600  174.8740  137.9460 C   0  0  2  0  0  3  0  0  0  0  0  0
  191.3000  175.0230  137.9490 C   0  0  0  0  0  2  0  0  0  0  0  0
  195.4420  175.2440  137.3720 N   0  0  0  0  0  1  0  0  0  0  0  0
  193.3470  174.0280  136.9760 C   0  0  0  0  0  0  0  0  0  0  0  0
  193.4470  176.1000  138.3200 N   0  0  0  0  0  0  0  0  0  0  0  0
  192.0170  174.1390  136.9740 C   0  0  0  0  0  3  0  0  0  0  0  0
  193.1900  172.0590  135.4700 C   0  0  0  0  0  1  0  0  0  0  0  0
  193.9240  173.0920  136.1110 O   0  0  0  0  0  0  0  0  0  0  0  0
  188.6090  176.9290  145.3000 C   0  0  0  0  0  2  0  0  0  0  0  0
  189.2210  178.0070  145.9520 O   0  0  0  0  0  0  0  0  0  0  0  0
  190.8680  176.7450  147.3870 C   0  0  0  0  0  1  0  0  0  0  0  0
  188.9870  178.2510  148.4230 C   0  0  0  0  0  2  0  0  0  0  0  0
  189.5860  177.5440  147.2240 C   0  0  0  0  0  0  0  0  0  0  0  0
  188.4170  176.9210  147.9500 C   0  0  0  0  0  2  0  0  0  0  0  0
  185.6790  177.9350  145.1320 C   0  0  0  0  0  2  0  0  0  0  0  0
  185.4640  179.2590  145.5120 O   0  0  0  0  0  0  0  0  0  0  0  0
  185.6760  179.2670  146.8490 N   0  0  0  0  0  1  0  0  0  0  0  0
  1  3  1  0  0  0  0
  2  1  1  0  0  0  0
  2  4  2  0  0  0  0
  3  5  2  0  0  0  0
  3 26  1  0  0  0  0
  4  5  1  0  0  0  0
  5 20  1  0  0  0  0
  6  8  1  0  0  0  0
  7  8  2  0  0  0  0
  8  2  1  0  0  0  0
  9  6  1  0  0  0  0
 10  9  1  0  0  0  0
 11 10  1  0  0  0  0
 12 14  1  6  0  0  0
 12 16  1  0  0  0  0
 13 11  1  0  0  0  0
 15 12  1  0  0  0  0
 16 11  2  0  0  0  0
 17 15  2  0  0  0  0
 17 13  1  0  0  0  0
 18 19  1  0  0  0  0
 19 15  1  0  0  0  0
 20 21  1  0  0  0  0
 21 24  1  0  0  0  0
 24 22  1  0  0  0  0
 24 25  1  0  0  0  0
 24 23  1  0  0  0  0
 25 23  1  0  0  0  0
 26 27  1  0  0  0  0
 27 28  1  0  0  0  0
M  END
>  <MODEL>
8

>  <REMARK>
 VINA RESULT:      -6.7      3.865      5.616
  Name = 
  9 active torsions:
  status: ('A' for Active; 'I' for Inactive)
    1  A    between atoms: N_2  and  C_22
    2  A    between atoms: O_4  and  C_13
    3  A    between atoms: O_4  and  C_15
    4  A    between atoms: O_9  and  C_17
    5  A    between atoms: C_10  and  C_25
    6  A    between atoms: N_12  and  C_22
    7  A    between atoms: C_13  and  C_24
    8  A    between atoms: C_14  and  C_17
    9  A    between atoms: C_19  and  O_28
                            x       y       z     vdW  Elec       q    Type
                         _______ _______ _______ _____ _____    ______ ____

>  <TORSDO>
F 9

$$$$
=
 OpenBabel11032420093D

 28 30  0  0  1  0  0  0  0  0999 V2000
  190.9300  176.8180  143.6200 S   0  0  0  0  0  0  0  0  0  0  0  0
  189.6260  177.3480  142.6920 C   0  0  0  0  0  0  0  0  0  0  0  0
  190.1030  177.0200  145.0690 C   0  0  0  0  0  0  0  0  0  0  0  0
  188.5700  177.6890  143.4660 N   0  0  0  0  0  0  0  0  0  0  0  0
  188.8360  177.5200  144.7870 C   0  0  0  0  0  0  0  0  0  0  0  0
  190.6520  176.8070  140.4730 N   0  0  0  0  0  2  0  0  0  0  0  0
  188.7020  178.0800  140.6440 O   0  0  0  0  0  0  0  0  0  0  0  0
  189.6180  177.4430  141.2300 C   0  0  0  0  0  0  0  0  0  0  0  0
  190.6760  176.8100  139.0170 C   0  0  0  0  0  2  0  0  0  0  0  0
  191.0030  175.4800  138.5180 N   0  0  0  0  0  2  0  0  0  0  0  0
  192.0270  175.2370  137.5500 C   0  0  0  0  0  0  0  0  0  0  0  0
  193.2830  173.6590  136.1810 C   0  0  2  0  0  3  0  0  0  0  0  0
  192.7920  176.3770  136.9370 C   0  0  0  0  0  2  0  0  0  0  0  0
  193.7950  172.3350  136.4920 N   0  0  0  0  0  1  0  0  0  0  0  0
  194.4060  174.6840  136.1260 C   0  0  0  0  0  0  0  0  0  0  0  0
  192.2760  174.0150  137.1860 N   0  0  0  0  0  0  0  0  0  0  0  0
  194.1620  175.9380  136.5140 C   0  0  0  0  0  3  0  0  0  0  0  0
  196.8760  174.9430  136.1760 C   0  0  0  0  0  1  0  0  0  0  0  0
  195.6840  174.3920  135.6360 O   0  0  0  0  0  0  0  0  0  0  0  0
  187.8150  177.8140  145.8330 C   0  0  0  0  0  2  0  0  0  0  0  0
  186.6080  177.1830  145.5020 O   0  0  0  0  0  0  0  0  0  0  0  0
  184.9400  178.7050  144.3780 C   0  0  0  0  0  1  0  0  0  0  0  0
  184.8940  178.2550  146.9620 C   0  0  0  0  0  2  0  0  0  0  0  0
  185.6060  178.1550  145.6280 C   0  0  0  0  0  0  0  0  0  0  0  0
  185.9980  179.2410  146.6030 C   0  0  0  0  0  2  0  0  0  0  0  0
  190.6770  176.7710  146.4220 C   0  0  0  0  0  2  0  0  0  0  0  0
  192.0600  176.6270  146.3260 O   0  0  0  0  0  0  0  0  0  0  0  0
  192.4240  176.0600  147.5000 N   0  0  0  0  0  1  0  0  0  0  0  0
  1  3  1  0  0  0  0
  2  4  2  0  0  0  0
  2  1  1  0  0  0  0
  3 26  1  0  0  0  0
  4  5  1  0  0  0  0
  5  3  2  0  0  0  0
  5 20  1  0  0  0  0
  6  8  1  0  0  0  0
  7  8  2  0  0  0  0
  8  2  1  0  0  0  0
  9  6  1  0  0  0  0
 10  9  1  0  0  0  0
 11 10  1  0  0  0  0
 12 14  1  1  0  0  0
 12 16  1  0  0  0  0
 13 11  1  0  0  0  0
 15 12  1  0  0  0  0
 15 17  2  0  0  0  0
 16 11  2  0  0  0  0
 17 13  1  0  0  0  0
 19 15  1  0  0  0  0
 19 18  1  0  0  0  0
 21 24  1  0  0  0  0
 21 20  1  0  0  0  0
 22 24  1  0  0  0  0
 24 25  1  0  0  0  0
 24 23  1  0  0  0  0
 25 23  1  0  0  0  0
 27 26  1  0  0  0  0
 27 28  1  0  0  0  0
M  END
>  <MODEL>
9

>  <REMARK>
 VINA RESULT:      -6.7      3.986      5.079
  Name = 
  9 active torsions:
  status: ('A' for Active; 'I' for Inactive)
    1  A    between atoms: N_2  and  C_22
    2  A    between atoms: O_4  and  C_13
    3  A    between atoms: O_4  and  C_15
    4  A    between atoms: O_9  and  C_17
    5  A    between atoms: C_10  and  C_25
    6  A    between atoms: N_12  and  C_22
    7  A    between atoms: C_13  and  C_24
    8  A    between atoms: C_14  and  C_17
    9  A    between atoms: C_19  and  O_28
                            x       y       z     vdW  Elec       q    Type
                         _______ _______ _______ _____ _____    ______ ____

>  <TORSDO>
F 9

$$$$
