=
 OpenBabel11042411273D

 55 63  0  0  1  0  0  0  0  0999 V2000
  182.3810  177.6430  139.9580 C   0  0  2  0  0  0  0  0  0  0  0  0
  181.8920  174.6100  135.7140 C   0  0  0  0  0  3  0  0  0  0  0  0
  185.4630  174.3000  134.9550 N   0  0  0  0  0  0  0  0  0  0  0  0
  185.7900  175.5660  134.6040 C   0  0  0  0  0  3  0  0  0  0  0  0
  183.1920  174.9560  135.3220 C   0  0  0  0  0  0  0  0  0  0  0  0
  183.5530  176.2670  134.9750 C   0  0  0  0  0  0  0  0  0  0  0  0
  184.1830  173.9540  135.2560 C   0  0  0  0  0  0  0  0  0  0  0  0
  183.4300  178.1710  138.9440 C   0  0  2  0  0  3  0  0  0  0  0  0
  180.9110  177.6170  139.4580 C   0  0  0  0  0  2  0  0  0  0  0  0
  184.6510  179.1970  140.9480 C   0  0  2  0  0  3  0  0  0  0  0  0
  183.6900  178.6550  141.8320 O   0  0  0  0  0  0  0  0  0  0  0  0
  181.5740  173.2890  136.0390 C   0  0  0  0  0  3  0  0  0  0  0  0
  180.3730  177.8980  135.6560 C   0  0  0  0  0  2  0  0  0  0  0  0
  181.5630  177.9910  142.1930 F   0  0  0  0  0  0  0  0  0  0  0  0
  181.3790  177.4700  134.5940 C   0  0  0  0  0  2  0  0  0  0  0  0
  183.5070  177.3150  137.6700 C   0  0  0  0  0  2  0  0  0  0  0  0
  181.0520  177.5490  136.9680 C   0  0  1  0  0  3  0  0  0  0  0  0
  182.4120  178.5220  141.2370 C   0  0  2  0  0  3  0  0  0  0  0  0
  184.8370  176.5430  134.6250 N   0  0  0  0  0  0  0  0  0  0  0  0
  183.8590  172.6320  135.5740 C   0  0  0  0  0  3  0  0  0  0  0  0
  185.9190  178.0200  139.1300 C   0  0  0  0  0  2  0  0  0  0  0  0
  182.5080  177.8530  136.6360 C   0  0  2  0  0  3  0  0  0  0  0  0
  184.7400  178.3680  139.6740 C   0  0  0  0  0  0  0  0  0  0  0  0
  182.6680  177.3700  135.2780 N   0  0  0  0  0  0  0  0  0  0  0  0
  182.5540  172.2940  135.9530 C   0  0  0  0  0  3  0  0  0  0  0  0
  180.5870  178.3840  138.1680 C   0  0  1  0  0  3  0  0  0  0  0  0
  182.7440  176.3420  140.2980 O   0  0  0  0  0  1  0  0  0  0  0  0
  185.9620  179.2370  141.7430 C   0  0  0  0  0  2  0  0  0  0  0  0
  187.3390  177.2960  142.1570 O   0  0  0  0  0  1  0  0  0  0  0  0
  186.2400  178.0110  142.6280 C   0  0  1  0  0  3  0  0  0  0  0  0
  185.5750  179.1380  144.7430 C   0  0  0  0  0  3  0  0  0  0  0  0
  186.3200  178.2170  144.1270 C   0  0  0  0  0  0  0  0  0  0  0  0
  187.4050  177.5350  144.9650 C   0  0  1  0  0  0  0  0  0  0  0  0
  189.2460  177.6780  144.3890 C   0  0  1  0  0  3  0  0  0  0  0  0
  185.7370  179.3420  146.2170 C   0  0  0  0  0  2  0  0  0  0  0  0
  188.7840  178.1470  146.7330 C   0  0  0  0  0  2  0  0  0  0  0  0
  186.7930  176.9670  146.2620 C   0  0  2  0  0  3  0  0  0  0  0  0
  185.7730  177.9560  146.8990 C   0  0  0  0  0  2  0  0  0  0  0  0
  187.9840  176.9290  147.1720 C   0  0  0  0  0  2  0  0  0  0  0  0
  188.2500  176.6880  144.2080 O   0  0  0  0  0  0  0  0  0  0  0  0
  188.4580  178.4830  145.3340 N   0  0  2  0  0  0  0  0  0  0  0  0
  191.6410  177.2410  143.8480 C   0  0  0  0  0  1  0  0  0  0  0  0
  190.5890  177.1350  144.9510 C   0  0  0  0  0  2  0  0  0  0  0  0
  179.1610  178.7610  138.1060 N   0  0  0  0  0  2  0  0  0  0  0  0
  179.0120  180.2140  138.0880 C   0  0  0  0  0  2  0  0  0  0  0  0
  180.3240  180.9030  138.4530 C   0  0  2  0  0  3  0  0  0  0  0  0
  180.1480  181.6510  139.6170 O   0  0  0  0  0  1  0  0  0  0  0  0
  180.5690  183.3110  137.6270 C   0  0  0  0  0  2  0  0  0  0  0  0
  180.5030  183.7630  135.1420 C   0  0  0  0  0  2  0  0  0  0  0  0
  181.1220  184.1770  136.4890 C   0  0  1  0  0  3  0  0  0  0  0  0
  180.8320  181.8130  137.3190 C   0  0  2  0  0  3  0  0  0  0  0  0
  180.8570  182.2980  134.8340 C   0  0  0  0  0  2  0  0  0  0  0  0
  180.2680  181.3980  135.9360 C   0  0  0  0  0  2  0  0  0  0  0  0
  179.4850  185.5190  137.1320 C   0  0  0  0  0  1  0  0  0  0  0  0
  180.8170  185.5150  136.7100 O   0  0  0  0  0  0  0  0  0  0  0  0
  1 27  1  1  0  0  0
  1 18  1  0  0  0  0
  2 12  1  0  0  0  0
  3  7  1  0  0  0  0
  4 19  1  0  0  0  0
  4  3  2  0  0  0  0
  5  2  2  0  0  0  0
  6 24  1  0  0  0  0
  6  5  1  0  0  0  0
  7  5  1  0  0  0  0
  7 20  2  0  0  0  0
  8 16  1  6  0  0  0
  8 23  1  0  0  0  0
  8  1  1  0  0  0  0
  9  1  1  0  0  0  0
 10 28  1  1  0  0  0
 10 11  1  0  0  0  0
 15 24  1  0  0  0  0
 15 13  1  0  0  0  0
 17 13  1  6  0  0  0
 17 26  1  0  0  0  0
 18 11  1  0  0  0  0
 18 14  1  1  0  0  0
 19  6  2  0  0  0  0
 20 25  1  0  0  0  0
 21 23  2  0  0  0  0
 22 17  1  0  0  0  0
 22 16  1  1  0  0  0
 23 10  1  0  0  0  0
 24 22  1  0  0  0  0
 25 12  2  0  0  0  0
 26 44  1  6  0  0  0
 26  9  1  0  0  0  0
 28 30  1  0  0  0  0
 30 29  1  6  0  0  0
 30 32  1  0  0  0  0
 31 35  1  0  0  0  0
 32 31  2  0  0  0  0
 33 32  1  6  0  0  0
 33 41  1  0  0  0  0
 33 37  1  0  0  0  0
 34 43  1  1  0  0  0
 34 41  1  0  0  0  0
 35 38  1  0  0  0  0
 36 39  1  0  0  0  0
 37 38  1  1  0  0  0
 37 39  1  0  0  0  0
 40 34  1  0  0  0  0
 40 33  1  0  0  0  0
 41 36  1  1  0  0  0
 42 43  1  0  0  0  0
 45 44  1  0  0  0  0
 45 46  1  0  0  0  0
 46 47  1  1  0  0  0
 49 50  1  0  0  0  0
 50 55  1  1  0  0  0
 50 48  1  0  0  0  0
 51 48  1  0  0  0  0
 51 46  1  1  0  0  0
 52 49  1  0  0  0  0
 52 53  1  0  0  0  0
 53 51  1  0  0  0  0
 55 54  1  0  0  0  0
M  END
>  <MODEL>
1

>  <REMARK>
 VINA RESULT:      -8.3      0.000      0.000
  Name = 
  9 active torsions:
  status: ('A' for Active; 'I' for Inactive)
    1  A    between atoms: C_5  and  C_36
    2  A    between atoms: C_7  and  C_44
    3  A    between atoms: O_18  and  C_24
    4  A    between atoms: C_19  and  C_32
    5  A    between atoms: C_22  and  C_28
    6  A    between atoms: C_22  and  C_31
    7  A    between atoms: C_28  and  N_42
    8  A    between atoms: C_32  and  C_36
    9  A    between atoms: N_42  and  C_54
                            x       y       z     vdW  Elec       q    Type
                         _______ _______ _______ _____ _____    ______ ____

>  <TORSDO>
F 9

$$$$
=
 OpenBabel11042411273D

 55 63  0  0  1  0  0  0  0  0999 V2000
  182.7260  177.7820  140.1700 C   0  0  2  0  0  0  0  0  0  0  0  0
  181.9780  174.5110  136.1450 C   0  0  0  0  0  3  0  0  0  0  0  0
  185.4890  174.1930  135.1510 N   0  0  0  0  0  0  0  0  0  0  0  0
  185.7740  175.4400  134.7080 C   0  0  0  0  0  3  0  0  0  0  0  0
  183.2420  174.8470  135.6430 C   0  0  0  0  0  0  0  0  0  0  0  0
  183.5600  176.1390  135.1990 C   0  0  0  0  0  0  0  0  0  0  0  0
  184.2390  173.8520  135.5620 C   0  0  0  0  0  0  0  0  0  0  0  0
  183.6930  178.2620  139.0560 C   0  0  2  0  0  3  0  0  0  0  0  0
  181.2260  177.7140  139.7780 C   0  0  0  0  0  2  0  0  0  0  0  0
  185.0410  179.4090  140.9070 C   0  0  2  0  0  3  0  0  0  0  0  0
  184.1520  178.9090  141.8860 O   0  0  0  0  0  0  0  0  0  0  0  0
  181.7010  173.2080  136.5650 C   0  0  0  0  0  3  0  0  0  0  0  0
  180.4150  177.7770  136.0150 C   0  0  0  0  0  2  0  0  0  0  0  0
  182.0650  178.2470  142.4350 F   0  0  0  0  0  0  0  0  0  0  0  0
  181.3480  177.2990  134.9090 C   0  0  0  0  0  2  0  0  0  0  0  0
  183.6910  177.3370  137.8290 C   0  0  0  0  0  2  0  0  0  0  0  0
  181.1900  177.5080  137.2920 C   0  0  1  0  0  3  0  0  0  0  0  0
  182.8370  178.7320  141.3930 C   0  0  2  0  0  3  0  0  0  0  0  0
  184.8110  176.4070  134.7440 N   0  0  0  0  0  0  0  0  0  0  0  0
  183.9560  172.5470  135.9750 C   0  0  0  0  0  3  0  0  0  0  0  0
  186.1910  178.1450  139.0710 C   0  0  0  0  0  2  0  0  0  0  0  0
  182.6140  177.8070  136.8410 C   0  0  2  0  0  3  0  0  0  0  0  0
  185.0500  178.5120  139.6780 C   0  0  0  0  0  0  0  0  0  0  0  0
  182.6840  177.2490  135.5040 N   0  0  0  0  0  0  0  0  0  0  0  0
  182.6850  172.2190  136.4640 C   0  0  0  0  0  3  0  0  0  0  0  0
  180.8010  178.4040  138.4750 C   0  0  1  0  0  3  0  0  0  0  0  0
  183.1300  176.5050  140.5550 O   0  0  0  0  0  1  0  0  0  0  0  0
  186.4040  179.5070  141.6030 C   0  0  0  0  0  2  0  0  0  0  0  0
  185.8050  177.3360  142.4780 O   0  0  0  0  0  1  0  0  0  0  0  0
  186.7300  178.3710  142.5870 C   0  0  1  0  0  3  0  0  0  0  0  0
  188.6410  177.1140  141.6100 C   0  0  0  0  0  3  0  0  0  0  0  0
  188.1490  177.8400  142.6170 C   0  0  0  0  0  0  0  0  0  0  0  0
  189.0020  177.9280  143.8850 C   0  0  1  0  0  0  0  0  0  0  0  0
  188.2480  177.3010  145.5530 C   0  0  1  0  0  3  0  0  0  0  0  0
  190.0280  176.5620  141.7170 C   0  0  0  0  0  2  0  0  0  0  0  0
  190.4900  176.5320  144.9980 C   0  0  0  0  0  2  0  0  0  0  0  0
  190.4330  178.3810  143.5300 C   0  0  2  0  0  3  0  0  0  0  0  0
  190.9570  177.6800  142.2430 C   0  0  0  0  0  2  0  0  0  0  0  0
  191.2240  177.8260  144.6770 C   0  0  0  0  0  2  0  0  0  0  0  0
  188.3490  178.5820  144.9570 O   0  0  0  0  0  0  0  0  0  0  0  0
  189.0870  176.6270  144.5520 N   0  0  2  0  0  0  0  0  0  0  0  0
  187.6960  177.7720  147.9380 C   0  0  0  0  0  1  0  0  0  0  0  0
  188.7820  177.2330  147.0110 C   0  0  0  0  0  2  0  0  0  0  0  0
  179.3690  178.7650  138.4940 N   0  0  0  0  0  2  0  0  0  0  0  0
  179.1870  180.1750  138.1650 C   0  0  0  0  0  2  0  0  0  0  0  0
  180.4540  180.9740  138.4610 C   0  0  2  0  0  3  0  0  0  0  0  0
  180.3360  181.5870  139.7080 O   0  0  0  0  0  1  0  0  0  0  0  0
  179.9430  183.3450  137.6500 C   0  0  0  0  0  2  0  0  0  0  0  0
  179.9750  183.8220  135.1690 C   0  0  0  0  0  2  0  0  0  0  0  0
  180.2770  184.3820  136.5710 C   0  0  1  0  0  3  0  0  0  0  0  0
  180.7310  182.0360  137.3810 C   0  0  2  0  0  3  0  0  0  0  0  0
  180.8370  182.5750  134.9090 C   0  0  0  0  0  2  0  0  0  0  0  0
  180.4840  181.4960  135.9490 C   0  0  0  0  0  2  0  0  0  0  0  0
  179.4590  185.7160  138.1340 C   0  0  0  0  0  1  0  0  0  0  0  0
  179.5130  185.5290  136.7510 O   0  0  0  0  0  0  0  0  0  0  0  0
  1 27  1  1  0  0  0
  1 18  1  0  0  0  0
  2 12  1  0  0  0  0
  3  7  1  0  0  0  0
  4 19  1  0  0  0  0
  4  3  2  0  0  0  0
  5  2  2  0  0  0  0
  6 24  1  0  0  0  0
  6  5  1  0  0  0  0
  7  5  1  0  0  0  0
  7 20  2  0  0  0  0
  8 16  1  6  0  0  0
  8 23  1  0  0  0  0
  8  1  1  0  0  0  0
  9  1  1  0  0  0  0
 10 28  1  1  0  0  0
 10 11  1  0  0  0  0
 15 24  1  0  0  0  0
 15 13  1  0  0  0  0
 17 13  1  6  0  0  0
 17 26  1  0  0  0  0
 18 11  1  0  0  0  0
 18 14  1  1  0  0  0
 19  6  2  0  0  0  0
 20 25  1  0  0  0  0
 21 23  2  0  0  0  0
 22 17  1  0  0  0  0
 22 16  1  1  0  0  0
 23 10  1  0  0  0  0
 24 22  1  0  0  0  0
 25 12  2  0  0  0  0
 26 44  1  1  0  0  0
 26  9  1  0  0  0  0
 28 30  1  0  0  0  0
 30 29  1  6  0  0  0
 30 32  1  0  0  0  0
 31 35  1  0  0  0  0
 31 32  2  0  0  0  0
 33 32  1  6  0  0  0
 33 41  1  0  0  0  0
 33 40  1  0  0  0  0
 34 43  1  1  0  0  0
 35 38  1  0  0  0  0
 37 38  1  6  0  0  0
 37 33  1  0  0  0  0
 37 39  1  0  0  0  0
 39 36  1  0  0  0  0
 40 34  1  0  0  0  0
 41 36  1  1  0  0  0
 41 34  1  0  0  0  0
 43 42  1  0  0  0  0
 45 46  1  0  0  0  0
 45 44  1  0  0  0  0
 46 47  1  1  0  0  0
 49 50  1  0  0  0  0
 50 55  1  1  0  0  0
 50 48  1  0  0  0  0
 51 48  1  0  0  0  0
 51 46  1  1  0  0  0
 52 49  1  0  0  0  0
 52 53  1  0  0  0  0
 53 51  1  0  0  0  0
 55 54  1  0  0  0  0
M  END
>  <MODEL>
2

>  <REMARK>
 VINA RESULT:      -7.8      0.965      2.088
  Name = 
  9 active torsions:
  status: ('A' for Active; 'I' for Inactive)
    1  A    between atoms: C_5  and  C_36
    2  A    between atoms: C_7  and  C_44
    3  A    between atoms: O_18  and  C_24
    4  A    between atoms: C_19  and  C_32
    5  A    between atoms: C_22  and  C_28
    6  A    between atoms: C_22  and  C_31
    7  A    between atoms: C_28  and  N_42
    8  A    between atoms: C_32  and  C_36
    9  A    between atoms: N_42  and  C_54
                            x       y       z     vdW  Elec       q    Type
                         _______ _______ _______ _____ _____    ______ ____

>  <TORSDO>
F 9

$$$$
=
 OpenBabel11042411273D

 55 63  0  0  1  0  0  0  0  0999 V2000
  188.3880  177.3590  140.4090 C   0  0  2  0  0  0  0  0  0  0  0  0
  188.8430  174.8670  135.8210 C   0  0  0  0  0  3  0  0  0  0  0  0
  192.3770  173.9580  136.1390 N   0  0  0  0  0  0  0  0  0  0  0  0
  192.9880  175.1650  136.0910 C   0  0  0  0  0  3  0  0  0  0  0  0
  190.2360  174.9950  135.8950 C   0  0  0  0  0  0  0  0  0  0  0  0
  190.8830  176.2400  135.8670 C   0  0  0  0  0  0  0  0  0  0  0  0
  191.0320  173.8340  135.9870 C   0  0  0  0  0  0  0  0  0  0  0  0
  189.7750  177.7680  139.8470 C   0  0  2  0  0  3  0  0  0  0  0  0
  187.1730  177.6560  139.4900 C   0  0  0  0  0  2  0  0  0  0  0  0
  190.4250  178.3590  142.2520 C   0  0  2  0  0  3  0  0  0  0  0  0
  189.1590  177.9310  142.7170 O   0  0  0  0  0  0  0  0  0  0  0  0
  188.2410  173.6070  135.8400 C   0  0  0  0  0  3  0  0  0  0  0  0
  187.9390  178.3760  135.7860 C   0  0  0  0  0  2  0  0  0  0  0  0
  186.9550  177.6520  142.3180 F   0  0  0  0  0  0  0  0  0  0  0  0
  189.1570  177.8620  135.0270 C   0  0  0  0  0  2  0  0  0  0  0  0
  190.1290  177.0310  138.5460 C   0  0  0  0  0  2  0  0  0  0  0  0
  188.0970  177.7870  137.1760 C   0  0  1  0  0  3  0  0  0  0  0  0
  188.1370  178.0970  141.7510 C   0  0  2  0  0  3  0  0  0  0  0  0
  192.2370  176.2980  135.9660 N   0  0  0  0  0  0  0  0  0  0  0  0
  190.4270  172.5740  135.9970 C   0  0  0  0  0  3  0  0  0  0  0  0
  192.0180  177.1320  140.7520 C   0  0  0  0  0  2  0  0  0  0  0  0
  189.6110  177.8390  137.3480 C   0  0  2  0  0  3  0  0  0  0  0  0
  190.7940  177.6470  140.9590 C   0  0  0  0  0  0  0  0  0  0  0  0
  190.1260  177.4590  136.0460 N   0  0  0  0  0  0  0  0  0  0  0  0
  189.0340  172.4570  135.9100 C   0  0  0  0  0  3  0  0  0  0  0  0
  187.4020  178.5830  138.2890 C   0  0  1  0  0  3  0  0  0  0  0  0
  188.4200  175.9860  140.6500 O   0  0  0  0  0  1  0  0  0  0  0  0
  191.3990  178.0790  143.4030 C   0  0  0  0  0  2  0  0  0  0  0  0
  192.1280  175.7900  143.6590 O   0  0  0  0  0  1  0  0  0  0  0  0
  191.2110  176.7310  144.1200 C   0  0  1  0  0  3  0  0  0  0  0  0
  191.9260  175.9450  146.3680 C   0  0  0  0  0  3  0  0  0  0  0  0
  191.1380  176.7330  145.6330 C   0  0  0  0  0  0  0  0  0  0  0  0
  190.0200  177.4730  146.3730 C   0  0  1  0  0  0  0  0  0  0  0  0
  188.1890  177.1630  145.8310 C   0  0  1  0  0  3  0  0  0  0  0  0
  191.7700  175.9410  147.8570 C   0  0  0  0  0  2  0  0  0  0  0  0
  188.6680  177.0490  148.2150 C   0  0  0  0  0  2  0  0  0  0  0  0
  190.6010  178.2460  147.5750 C   0  0  2  0  0  3  0  0  0  0  0  0
  191.6660  177.4060  148.3390 C   0  0  0  0  0  2  0  0  0  0  0  0
  189.4080  178.3530  148.4760 C   0  0  0  0  0  2  0  0  0  0  0  0
  189.1370  178.1640  145.5080 O   0  0  0  0  0  0  0  0  0  0  0  0
  189.0130  176.5370  146.8750 N   0  0  2  0  0  0  0  0  0  0  0  0
  185.9670  178.0140  145.0870 C   0  0  0  0  0  1  0  0  0  0  0  0
  186.8200  177.7140  146.3170 C   0  0  0  0  0  2  0  0  0  0  0  0
  186.1460  179.2280  137.8540 N   0  0  0  0  0  2  0  0  0  0  0  0
  184.9940  178.4000  138.1970 C   0  0  0  0  0  2  0  0  0  0  0  0
  183.8530  179.2520  138.7470 C   0  0  2  0  0  3  0  0  0  0  0  0
  184.3070  180.5520  138.9650 O   0  0  0  0  0  1  0  0  0  0  0  0
  181.7950  179.0750  140.2570 C   0  0  0  0  0  2  0  0  0  0  0  0
  182.1240  178.8660  142.7530 C   0  0  0  0  0  2  0  0  0  0  0  0
  181.2610  178.4480  141.5500 C   0  0  1  0  0  3  0  0  0  0  0  0
  183.2800  178.6730  140.0550 C   0  0  2  0  0  3  0  0  0  0  0  0
  183.5690  178.3770  142.5540 C   0  0  0  0  0  2  0  0  0  0  0  0
  184.1500  179.0320  141.2870 C   0  0  0  0  0  2  0  0  0  0  0  0
  180.0860  180.1330  142.3690 C   0  0  0  0  0  1  0  0  0  0  0  0
  179.9580  178.8700  141.7870 O   0  0  0  0  0  0  0  0  0  0  0  0
  1 27  1  1  0  0  0
  1 18  1  0  0  0  0
  2 12  2  0  0  0  0
  2  5  1  0  0  0  0
  4  3  1  0  0  0  0
  5  7  1  0  0  0  0
  6  5  2  0  0  0  0
  6 19  1  0  0  0  0
  6 24  1  0  0  0  0
  7 20  1  0  0  0  0
  7  3  2  0  0  0  0
  8 16  1  6  0  0  0
  8  1  1  0  0  0  0
  8 23  1  0  0  0  0
  9  1  1  0  0  0  0
 10 11  1  0  0  0  0
 10 28  1  1  0  0  0
 12 25  1  0  0  0  0
 15 13  1  0  0  0  0
 15 24  1  0  0  0  0
 17 13  1  6  0  0  0
 17 22  1  0  0  0  0
 17 26  1  0  0  0  0
 18 14  1  1  0  0  0
 18 11  1  0  0  0  0
 19  4  2  0  0  0  0
 21 23  2  0  0  0  0
 22 16  1  1  0  0  0
 23 10  1  0  0  0  0
 24 22  1  0  0  0  0
 25 20  2  0  0  0  0
 26 44  1  6  0  0  0
 26  9  1  0  0  0  0
 28 30  1  0  0  0  0
 30 29  1  1  0  0  0
 30 32  1  0  0  0  0
 31 35  1  0  0  0  0
 32 31  2  0  0  0  0
 32 33  1  0  0  0  0
 33 40  1  6  0  0  0
 33 41  1  0  0  0  0
 33 37  1  0  0  0  0
 34 43  1  1  0  0  0
 34 41  1  0  0  0  0
 35 38  1  0  0  0  0
 36 39  1  0  0  0  0
 37 38  1  1  0  0  0
 37 39  1  0  0  0  0
 40 34  1  0  0  0  0
 41 36  1  1  0  0  0
 42 43  1  0  0  0  0
 44 45  1  0  0  0  0
 45 46  1  0  0  0  0
 46 47  1  1  0  0  0
 48 50  1  0  0  0  0
 50 55  1  1  0  0  0
 50 49  1  0  0  0  0
 51 46  1  6  0  0  0
 51 48  1  0  0  0  0
 51 53  1  0  0  0  0
 52 49  1  0  0  0  0
 53 52  1  0  0  0  0
 55 54  1  0  0  0  0
M  END
>  <MODEL>
3

>  <REMARK>
 VINA RESULT:      -7.4      3.884      6.250
  Name = 
  9 active torsions:
  status: ('A' for Active; 'I' for Inactive)
    1  A    between atoms: C_5  and  C_36
    2  A    between atoms: C_7  and  C_44
    3  A    between atoms: O_18  and  C_24
    4  A    between atoms: C_19  and  C_32
    5  A    between atoms: C_22  and  C_28
    6  A    between atoms: C_22  and  C_31
    7  A    between atoms: C_28  and  N_42
    8  A    between atoms: C_32  and  C_36
    9  A    between atoms: N_42  and  C_54
                            x       y       z     vdW  Elec       q    Type
                         _______ _______ _______ _____ _____    ______ ____

>  <TORSDO>
F 9

$$$$
=
 OpenBabel11042411273D

 55 63  0  0  1  0  0  0  0  0999 V2000
  182.3670  177.9220  140.1860 C   0  0  2  0  0  0  0  0  0  0  0  0
  181.5710  175.0340  135.8860 C   0  0  0  0  0  3  0  0  0  0  0  0
  185.0860  174.6530  134.9290 N   0  0  0  0  0  0  0  0  0  0  0  0
  185.4300  175.9210  134.5980 C   0  0  0  0  0  3  0  0  0  0  0  0
  182.8570  175.3570  135.4360 C   0  0  0  0  0  0  0  0  0  0  0  0
  183.2360  176.6680  135.1080 C   0  0  0  0  0  0  0  0  0  0  0  0
  183.8150  174.3320  135.2880 C   0  0  0  0  0  0  0  0  0  0  0  0
  183.3760  178.4530  139.1330 C   0  0  2  0  0  3  0  0  0  0  0  0
  180.8740  177.9500  139.7640 C   0  0  0  0  0  2  0  0  0  0  0  0
  184.7290  179.3840  141.0970 C   0  0  2  0  0  3  0  0  0  0  0  0
  183.8010  178.8410  142.0150 O   0  0  0  0  0  0  0  0  0  0  0  0
  181.2340  173.7130  136.1890 C   0  0  0  0  0  3  0  0  0  0  0  0
  180.1440  178.3610  136.0060 C   0  0  0  0  0  2  0  0  0  0  0  0
  181.6790  178.2220  142.4700 F   0  0  0  0  0  0  0  0  0  0  0  0
  181.0800  177.9390  134.8800 C   0  0  0  0  0  2  0  0  0  0  0  0
  183.3620  177.6340  137.8320 C   0  0  0  0  0  2  0  0  0  0  0  0
  180.8810  177.9540  137.2690 C   0  0  1  0  0  3  0  0  0  0  0  0
  182.4910  178.7600  141.4860 C   0  0  2  0  0  3  0  0  0  0  0  0
  184.5070  176.9200  134.6990 N   0  0  0  0  0  0  0  0  0  0  0  0
  183.4710  173.0100  135.5840 C   0  0  0  0  0  3  0  0  0  0  0  0
  185.8660  178.2300  139.1810 C   0  0  0  0  0  2  0  0  0  0  0  0
  182.3250  178.2300  136.8690 C   0  0  2  0  0  3  0  0  0  0  0  0
  184.7280  178.5930  139.7970 C   0  0  0  0  0  0  0  0  0  0  0  0
  182.4000  177.7840  135.4910 N   0  0  0  0  0  0  0  0  0  0  0  0
  182.1780  172.6960  136.0220 C   0  0  0  0  0  3  0  0  0  0  0  0
  180.5040  178.7640  138.5170 C   0  0  1  0  0  3  0  0  0  0  0  0
  182.7110  176.6010  140.4680 O   0  0  0  0  0  1  0  0  0  0  0  0
  186.0810  179.3650  141.8220 C   0  0  0  0  0  2  0  0  0  0  0  0
  185.3940  177.2810  142.8330 O   0  0  0  0  0  1  0  0  0  0  0  0
  186.1740  178.4180  143.0300 C   0  0  1  0  0  3  0  0  0  0  0  0
  188.0360  178.5930  144.6690 C   0  0  0  0  0  3  0  0  0  0  0  0
  187.5520  178.0560  143.5470 C   0  0  0  0  0  0  0  0  0  0  0  0
  188.5260  177.2310  142.7000 C   0  0  1  0  0  0  0  0  0  0  0  0
  188.8560  177.7780  140.8740 C   0  0  1  0  0  3  0  0  0  0  0  0
  189.4270  178.2480  145.1020 C   0  0  0  0  0  2  0  0  0  0  0  0
  190.8050  177.2840  142.2470 C   0  0  0  0  0  2  0  0  0  0  0  0
  189.2070  176.1580  143.5730 C   0  0  2  0  0  3  0  0  0  0  0  0
  189.6140  176.7200  144.9660 C   0  0  0  0  0  2  0  0  0  0  0  0
  190.4790  175.9110  142.8180 C   0  0  0  0  0  2  0  0  0  0  0  0
  187.9840  176.8260  141.4570 O   0  0  0  0  0  0  0  0  0  0  0  0
  189.5690  178.0810  142.1230 N   0  0  2  0  0  0  0  0  0  0  0  0
  189.7570  178.2320  138.5940 C   0  0  0  0  0  1  0  0  0  0  0  0
  189.7440  177.2130  139.7310 C   0  0  0  0  0  2  0  0  0  0  0  0
  179.0870  179.1810  138.5420 N   0  0  0  0  0  2  0  0  0  0  0  0
  178.9450  180.5570  138.0740 C   0  0  0  0  0  2  0  0  0  0  0  0
  179.9880  181.4650  138.7220 C   0  0  2  0  0  3  0  0  0  0  0  0
  179.4720  181.9920  139.9060 O   0  0  0  0  0  1  0  0  0  0  0  0
  179.5750  183.8900  138.0200 C   0  0  0  0  0  2  0  0  0  0  0  0
  180.0020  184.5560  135.6210 C   0  0  0  0  0  2  0  0  0  0  0  0
  180.0630  185.0070  137.0910 C   0  0  1  0  0  3  0  0  0  0  0  0
  180.4190  182.6080  137.7850 C   0  0  2  0  0  3  0  0  0  0  0  0
  180.9160  183.3370  135.4110 C   0  0  0  0  0  2  0  0  0  0  0  0
  180.4170  182.1790  136.2960 C   0  0  0  0  0  2  0  0  0  0  0  0
  179.0390  186.2550  138.6040 C   0  0  0  0  0  1  0  0  0  0  0  0
  179.2610  186.1340  137.2300 O   0  0  0  0  0  0  0  0  0  0  0  0
  1 27  1  1  0  0  0
  1 18  1  0  0  0  0
  2 12  1  0  0  0  0
  3  7  1  0  0  0  0
  4 19  1  0  0  0  0
  4  3  2  0  0  0  0
  5  2  2  0  0  0  0
  6  5  1  0  0  0  0
  6 24  1  0  0  0  0
  7  5  1  0  0  0  0
  7 20  2  0  0  0  0
  8 16  1  6  0  0  0
  8 23  1  0  0  0  0
  8  1  1  0  0  0  0
  9  1  1  0  0  0  0
 10 28  1  1  0  0  0
 10 11  1  0  0  0  0
 15 24  1  0  0  0  0
 15 13  1  0  0  0  0
 17 13  1  6  0  0  0
 17 26  1  0  0  0  0
 18 11  1  0  0  0  0
 18 14  1  1  0  0  0
 19  6  2  0  0  0  0
 20 25  1  0  0  0  0
 21 23  2  0  0  0  0
 22 17  1  0  0  0  0
 22 16  1  1  0  0  0
 23 10  1  0  0  0  0
 24 22  1  0  0  0  0
 25 12  2  0  0  0  0
 26 44  1  6  0  0  0
 26  9  1  0  0  0  0
 28 30  1  0  0  0  0
 30 29  1  6  0  0  0
 30 32  1  0  0  0  0
 31 35  1  0  0  0  0
 32 31  2  0  0  0  0
 33 40  1  6  0  0  0
 33 32  1  0  0  0  0
 33 37  1  0  0  0  0
 34 43  1  6  0  0  0
 34 40  1  0  0  0  0
 34 41  1  0  0  0  0
 36 39  1  0  0  0  0
 37 39  1  6  0  0  0
 37 38  1  0  0  0  0
 38 35  1  0  0  0  0
 41 36  1  6  0  0  0
 41 33  1  0  0  0  0
 42 43  1  0  0  0  0
 45 44  1  0  0  0  0
 45 46  1  0  0  0  0
 46 47  1  1  0  0  0
 49 50  1  0  0  0  0
 50 55  1  6  0  0  0
 50 48  1  0  0  0  0
 51 48  1  0  0  0  0
 51 46  1  1  0  0  0
 52 49  1  0  0  0  0
 52 53  1  0  0  0  0
 53 51  1  0  0  0  0
 55 54  1  0  0  0  0
M  END
>  <MODEL>
4

>  <REMARK>
 VINA RESULT:      -7.1      1.322      2.062
  Name = 
  9 active torsions:
  status: ('A' for Active; 'I' for Inactive)
    1  A    between atoms: C_5  and  C_36
    2  A    between atoms: C_7  and  C_44
    3  A    between atoms: O_18  and  C_24
    4  A    between atoms: C_19  and  C_32
    5  A    between atoms: C_22  and  C_28
    6  A    between atoms: C_22  and  C_31
    7  A    between atoms: C_28  and  N_42
    8  A    between atoms: C_32  and  C_36
    9  A    between atoms: N_42  and  C_54
                            x       y       z     vdW  Elec       q    Type
                         _______ _______ _______ _____ _____    ______ ____

>  <TORSDO>
F 9

$$$$
=
 OpenBabel11042411273D

 55 63  0  0  1  0  0  0  0  0999 V2000
  188.5160  177.2180  140.2010 C   0  0  2  0  0  0  0  0  0  0  0  0
  189.2130  174.8100  135.5990 C   0  0  0  0  0  3  0  0  0  0  0  0
  192.7680  174.0340  136.0190 N   0  0  0  0  0  0  0  0  0  0  0  0
  193.3320  175.2650  136.0050 C   0  0  0  0  0  3  0  0  0  0  0  0
  190.5970  174.9910  135.7190 C   0  0  0  0  0  0  0  0  0  0  0  0
  191.1950  176.2600  135.7280 C   0  0  0  0  0  0  0  0  0  0  0  0
  191.4340  173.8600  135.8210 C   0  0  0  0  0  0  0  0  0  0  0  0
  189.9030  177.6880  139.6890 C   0  0  2  0  0  3  0  0  0  0  0  0
  187.3190  177.4810  139.2470 C   0  0  0  0  0  2  0  0  0  0  0  0
  190.4530  178.2710  142.1210 C   0  0  2  0  0  3  0  0  0  0  0  0
  189.1910  177.7880  142.5390 O   0  0  0  0  0  0  0  0  0  0  0  0
  188.6610  173.5270  135.5830 C   0  0  0  0  0  3  0  0  0  0  0  0
  188.1730  178.2800  135.5790 C   0  0  0  0  0  2  0  0  0  0  0  0
  187.0140  177.4290  142.0660 F   0  0  0  0  0  0  0  0  0  0  0  0
  189.4340  177.8250  134.8530 C   0  0  0  0  0  2  0  0  0  0  0  0
  190.3260  176.9840  138.3900 C   0  0  0  0  0  2  0  0  0  0  0  0
  188.3110  177.6790  136.9660 C   0  0  1  0  0  3  0  0  0  0  0  0
  188.1940  177.9270  141.5440 C   0  0  2  0  0  3  0  0  0  0  0  0
  192.5420  176.3690  135.8700 N   0  0  0  0  0  0  0  0  0  0  0  0
  190.8790  172.5780  135.7960 C   0  0  0  0  0  3  0  0  0  0  0  0
  192.1390  177.1290  140.6570 C   0  0  0  0  0  2  0  0  0  0  0  0
  189.8140  177.7880  137.1860 C   0  0  2  0  0  3  0  0  0  0  0  0
  190.8900  177.5920  140.8310 C   0  0  0  0  0  0  0  0  0  0  0  0
  190.3850  177.4460  135.8970 N   0  0  0  0  0  0  0  0  0  0  0  0
  189.4950  172.4070  135.6640 C   0  0  0  0  0  3  0  0  0  0  0  0
  187.5500  178.4320  138.0660 C   0  0  1  0  0  3  0  0  0  0  0  0
  188.5950  175.8450  140.4250 O   0  0  0  0  0  1  0  0  0  0  0  0
  191.4010  178.0130  143.2990 C   0  0  0  0  0  2  0  0  0  0  0  0
  192.1130  175.7240  143.5930 O   0  0  0  0  0  1  0  0  0  0  0  0
  191.1990  176.6780  144.0340 C   0  0  1  0  0  3  0  0  0  0  0  0
  191.8850  175.9110  146.2980 C   0  0  0  0  0  3  0  0  0  0  0  0
  191.1160  176.7020  145.5460 C   0  0  0  0  0  0  0  0  0  0  0  0
  190.0060  177.4730  146.2670 C   0  0  1  0  0  0  0  0  0  0  0  0
  188.1740  177.1860  145.7170 C   0  0  1  0  0  3  0  0  0  0  0  0
  191.7200  175.9310  147.7860 C   0  0  0  0  0  2  0  0  0  0  0  0
  188.6350  177.0980  148.1060 C   0  0  0  0  0  2  0  0  0  0  0  0
  190.5930  178.2520  147.4630 C   0  0  2  0  0  3  0  0  0  0  0  0
  191.6370  177.4050  148.2460 C   0  0  0  0  0  2  0  0  0  0  0  0
  189.3950  178.3930  148.3540 C   0  0  0  0  0  2  0  0  0  0  0  0
  189.1410  178.1660  145.3870 O   0  0  0  0  0  0  0  0  0  0  0  0
  188.9800  176.5610  146.7760 N   0  0  2  0  0  0  0  0  0  0  0  0
  185.8990  177.8780  144.9660 C   0  0  0  0  0  1  0  0  0  0  0  0
  186.8110  177.7680  146.1860 C   0  0  0  0  0  2  0  0  0  0  0  0
  186.2840  179.0340  137.5990 N   0  0  0  0  0  2  0  0  0  0  0  0
  185.1460  178.2000  137.9760 C   0  0  0  0  0  2  0  0  0  0  0  0
  184.1490  178.9870  138.8220 C   0  0  2  0  0  3  0  0  0  0  0  0
  184.8400  179.7770  139.7400 O   0  0  0  0  0  1  0  0  0  0  0  0
  182.6860  176.8940  138.6610 C   0  0  0  0  0  2  0  0  0  0  0  0
  180.5530  176.7870  140.0110 C   0  0  0  0  0  2  0  0  0  0  0  0
  181.7410  175.9830  139.4530 C   0  0  1  0  0  3  0  0  0  0  0  0
  183.1670  178.0610  139.5650 C   0  0  2  0  0  3  0  0  0  0  0  0
  181.0650  177.8780  140.9660 C   0  0  0  0  0  2  0  0  0  0  0  0
  181.9790  178.8400  140.1840 C   0  0  0  0  0  2  0  0  0  0  0  0
  180.0460  174.5780  139.2410 C   0  0  0  0  0  1  0  0  0  0  0  0
  181.2360  174.9820  138.6310 O   0  0  0  0  0  0  0  0  0  0  0  0
  1 27  1  1  0  0  0
  1 18  1  0  0  0  0
  2  5  1  0  0  0  0
  4  3  1  0  0  0  0
  5  6  2  0  0  0  0
  5  7  1  0  0  0  0
  6 19  1  0  0  0  0
  6 24  1  0  0  0  0
  7  3  2  0  0  0  0
  8 16  1  6  0  0  0
  8  1  1  0  0  0  0
  8 23  1  0  0  0  0
  9  1  1  0  0  0  0
 10 11  1  0  0  0  0
 10 28  1  1  0  0  0
 12  2  2  0  0  0  0
 12 25  1  0  0  0  0
 15 13  1  0  0  0  0
 15 24  1  0  0  0  0
 17 13  1  6  0  0  0
 17 22  1  0  0  0  0
 17 26  1  0  0  0  0
 18 14  1  1  0  0  0
 18 11  1  0  0  0  0
 19  4  2  0  0  0  0
 20  7  1  0  0  0  0
 21 23  2  0  0  0  0
 22 16  1  1  0  0  0
 23 10  1  0  0  0  0
 24 22  1  0  0  0  0
 25 20  2  0  0  0  0
 26 44  1  6  0  0  0
 26  9  1  0  0  0  0
 28 30  1  0  0  0  0
 30 29  1  1  0  0  0
 30 32  1  0  0  0  0
 31 35  1  0  0  0  0
 32 33  1  0  0  0  0
 32 31  2  0  0  0  0
 33 40  1  6  0  0  0
 33 41  1  0  0  0  0
 33 37  1  0  0  0  0
 34 43  1  1  0  0  0
 34 41  1  0  0  0  0
 35 38  1  0  0  0  0
 36 39  1  0  0  0  0
 37 38  1  1  0  0  0
 37 39  1  0  0  0  0
 40 34  1  0  0  0  0
 41 36  1  1  0  0  0
 42 43  1  0  0  0  0
 44 45  1  0  0  0  0
 45 46  1  0  0  0  0
 46 47  1  1  0  0  0
 48 50  1  0  0  0  0
 48 51  1  0  0  0  0
 49 52  1  0  0  0  0
 50 55  1  6  0  0  0
 50 49  1  0  0  0  0
 51 46  1  6  0  0  0
 51 53  1  0  0  0  0
 53 52  1  0  0  0  0
 55 54  1  0  0  0  0
M  END
>  <MODEL>
5

>  <REMARK>
 VINA RESULT:      -6.8      3.773      6.516
  Name = 
  9 active torsions:
  status: ('A' for Active; 'I' for Inactive)
    1  A    between atoms: C_5  and  C_36
    2  A    between atoms: C_7  and  C_44
    3  A    between atoms: O_18  and  C_24
    4  A    between atoms: C_19  and  C_32
    5  A    between atoms: C_22  and  C_28
    6  A    between atoms: C_22  and  C_31
    7  A    between atoms: C_28  and  N_42
    8  A    between atoms: C_32  and  C_36
    9  A    between atoms: N_42  and  C_54
                            x       y       z     vdW  Elec       q    Type
                         _______ _______ _______ _____ _____    ______ ____

>  <TORSDO>
F 9

$$$$
=
 OpenBabel11042411273D

 55 63  0  0  1  0  0  0  0  0999 V2000
  187.3660  173.3640  136.6760 C   0  0  2  0  0  0  0  0  0  0  0  0
  189.5720  177.1240  139.5840 C   0  0  0  0  0  3  0  0  0  0  0  0
  186.5050  178.3280  141.1850 N   0  0  0  0  0  0  0  0  0  0  0  0
  185.8290  178.8640  140.1400 C   0  0  0  0  0  3  0  0  0  0  0  0
  188.3180  177.7290  139.7450 C   0  0  0  0  0  0  0  0  0  0  0  0
  187.5960  178.2700  138.6710 C   0  0  0  0  0  0  0  0  0  0  0  0
  187.7550  177.8160  141.0360 C   0  0  0  0  0  0  0  0  0  0  0  0
  186.3880  174.5670  136.6160 C   0  0  2  0  0  3  0  0  0  0  0  0
  188.8180  173.6510  136.2090 C   0  0  0  0  0  2  0  0  0  0  0  0
  184.5690  172.8820  135.9750 C   0  0  2  0  0  3  0  0  0  0  0  0
  185.4930  171.8170  136.0870 O   0  0  0  0  0  0  0  0  0  0  0  0
  190.2610  176.6090  140.6840 C   0  0  0  0  0  3  0  0  0  0  0  0
  189.8640  177.3490  135.9800 C   0  0  0  0  0  2  0  0  0  0  0  0
  187.6250  171.0930  135.9300 F   0  0  0  0  0  0  0  0  0  0  0  0
  189.2600  178.4830  136.7990 C   0  0  0  0  0  2  0  0  0  0  0  0
  186.8240  175.7320  137.5170 C   0  0  0  0  0  2  0  0  0  0  0  0
  189.1330  176.1120  136.4690 C   0  0  1  0  0  3  0  0  0  0  0  0
  186.8210  172.2110  135.7920 C   0  0  2  0  0  3  0  0  0  0  0  0
  186.3740  178.8230  138.8900 N   0  0  0  0  0  0  0  0  0  0  0  0
  188.4520  177.3060  142.1350 C   0  0  0  0  0  3  0  0  0  0  0  0
  184.1060  174.7100  137.6290 C   0  0  0  0  0  2  0  0  0  0  0  0
  187.7400  176.6740  136.7220 C   0  0  2  0  0  3  0  0  0  0  0  0
  184.9850  174.0520  136.8540 C   0  0  0  0  0  0  0  0  0  0  0  0
  187.9870  177.9770  137.3100 N   0  0  0  0  0  0  0  0  0  0  0  0
  189.7100  176.7150  141.9640 C   0  0  0  0  0  3  0  0  0  0  0  0
  189.0750  174.9620  135.4540 C   0  0  1  0  0  3  0  0  0  0  0  0
  187.4170  172.9300  138.0000 O   0  0  0  0  0  1  0  0  0  0  0  0
  183.2090  172.2850  136.3550 C   0  0  0  0  0  2  0  0  0  0  0  0
  181.4090  172.3390  134.7450 O   0  0  0  0  0  1  0  0  0  0  0  0
  181.9800  173.0310  135.8100 C   0  0  1  0  0  3  0  0  0  0  0  0
  180.0040  172.6420  137.2690 C   0  0  0  0  0  3  0  0  0  0  0  0
  180.9250  173.4850  136.7980 C   0  0  0  0  0  0  0  0  0  0  0  0
  180.7400  174.9680  137.1350 C   0  0  1  0  0  0  0  0  0  0  0  0
  180.5720  176.2320  135.6800 C   0  0  1  0  0  3  0  0  0  0  0  0
  178.9480  173.1570  138.1960 C   0  0  0  0  0  2  0  0  0  0  0  0
  178.9340  176.3910  137.4730 C   0  0  0  0  0  2  0  0  0  0  0  0
  180.5560  175.1470  138.6560 C   0  0  2  0  0  3  0  0  0  0  0  0
  179.6270  174.0530  139.2570 C   0  0  0  0  0  2  0  0  0  0  0  0
  179.8010  176.4410  138.7230 C   0  0  0  0  0  2  0  0  0  0  0  0
  181.6650  175.8130  136.4770 O   0  0  0  0  0  0  0  0  0  0  0  0
  179.5580  175.5140  136.4650 N   0  0  2  0  0  0  0  0  0  0  0  0
  181.4900  178.3500  134.7360 C   0  0  0  0  0  1  0  0  0  0  0  0
  180.3830  177.7730  135.6170 C   0  0  0  0  0  2  0  0  0  0  0  0
  190.2750  174.8700  134.5990 N   0  0  0  0  0  2  0  0  0  0  0  0
  190.9480  173.5880  134.7890 C   0  0  0  0  0  2  0  0  0  0  0  0
  192.4560  173.7280  134.5940 C   0  0  2  0  0  3  0  0  0  0  0  0
  193.0450  172.4640  134.6150 O   0  0  0  0  0  1  0  0  0  0  0  0
  194.6460  174.5610  135.6200 C   0  0  0  0  0  2  0  0  0  0  0  0
  194.7080  175.1180  138.0830 C   0  0  0  0  0  2  0  0  0  0  0  0
  195.2370  175.4900  136.6860 C   0  0  1  0  0  3  0  0  0  0  0  0
  193.0960  174.6210  135.6730 C   0  0  2  0  0  3  0  0  0  0  0  0
  193.1780  175.2710  138.1200 C   0  0  0  0  0  2  0  0  0  0  0  0
  192.5540  174.3090  137.0910 C   0  0  0  0  0  2  0  0  0  0  0  0
  196.8760  174.0240  136.9190 C   0  0  0  0  0  1  0  0  0  0  0  0
  196.6220  175.3810  136.7070 O   0  0  0  0  0  0  0  0  0  0  0  0
  1 27  1  1  0  0  0
  2  5  2  0  0  0  0
  2 12  1  0  0  0  0
  4  3  2  0  0  0  0
  5  7  1  0  0  0  0
  6 19  2  0  0  0  0
  6  5  1  0  0  0  0
  7  3  1  0  0  0  0
  7 20  2  0  0  0  0
  8  1  1  0  0  0  0
  8 23  1  0  0  0  0
  8 16  1  1  0  0  0
  9  1  1  0  0  0  0
 10 11  1  0  0  0  0
 10 28  1  1  0  0  0
 10 23  1  0  0  0  0
 12 25  2  0  0  0  0
 13 15  1  0  0  0  0
 15 24  1  0  0  0  0
 17 13  1  6  0  0  0
 17 22  1  0  0  0  0
 18 14  1  1  0  0  0
 18 11  1  0  0  0  0
 18  1  1  0  0  0  0
 19  4  1  0  0  0  0
 22 24  1  0  0  0  0
 22 16  1  1  0  0  0
 23 21  2  0  0  0  0
 24  6  1  0  0  0  0
 25 20  1  0  0  0  0
 26 44  1  1  0  0  0
 26  9  1  0  0  0  0
 26 17  1  0  0  0  0
 30 29  1  6  0  0  0
 30 28  1  0  0  0  0
 30 32  1  0  0  0  0
 31 35  1  0  0  0  0
 32 33  1  0  0  0  0
 32 31  2  0  0  0  0
 33 40  1  6  0  0  0
 33 37  1  0  0  0  0
 34 43  1  1  0  0  0
 34 41  1  0  0  0  0
 34 40  1  0  0  0  0
 35 38  1  0  0  0  0
 36 39  1  0  0  0  0
 37 39  1  6  0  0  0
 37 38  1  0  0  0  0
 41 33  1  0  0  0  0
 41 36  1  1  0  0  0
 42 43  1  0  0  0  0
 44 45  1  0  0  0  0
 46 47  1  1  0  0  0
 46 45  1  0  0  0  0
 48 51  1  0  0  0  0
 48 50  1  0  0  0  0
 49 52  1  0  0  0  0
 50 55  1  1  0  0  0
 50 49  1  0  0  0  0
 51 46  1  6  0  0  0
 51 53  1  0  0  0  0
 53 52  1  0  0  0  0
 55 54  1  0  0  0  0
M  END
>  <MODEL>
6

>  <REMARK>
 VINA RESULT:      -6.5      4.970     11.171
  Name = 
  9 active torsions:
  status: ('A' for Active; 'I' for Inactive)
    1  A    between atoms: C_5  and  C_36
    2  A    between atoms: C_7  and  C_44
    3  A    between atoms: O_18  and  C_24
    4  A    between atoms: C_19  and  C_32
    5  A    between atoms: C_22  and  C_28
    6  A    between atoms: C_22  and  C_31
    7  A    between atoms: C_28  and  N_42
    8  A    between atoms: C_32  and  C_36
    9  A    between atoms: N_42  and  C_54
                            x       y       z     vdW  Elec       q    Type
                         _______ _______ _______ _____ _____    ______ ____

>  <TORSDO>
F 9

$$$$
=
 OpenBabel11042411273D

 55 63  0  0  1  0  0  0  0  0999 V2000
  183.9000  177.9610  138.4260 C   0  0  2  0  0  0  0  0  0  0  0  0
  179.5700  175.1880  137.4170 C   0  0  0  0  0  3  0  0  0  0  0  0
  181.2310  172.2090  136.0810 N   0  0  0  0  0  0  0  0  0  0  0  0
  181.7770  172.6780  134.9340 C   0  0  0  0  0  3  0  0  0  0  0  0
  180.3040  174.3630  136.5560 C   0  0  0  0  0  0  0  0  0  0  0  0
  180.8940  174.8370  135.3750 C   0  0  0  0  0  0  0  0  0  0  0  0
  180.4520  172.9950  136.8700 C   0  0  0  0  0  0  0  0  0  0  0  0
  184.1620  177.2550  137.0690 C   0  0  2  0  0  3  0  0  0  0  0  0
  182.6360  178.8600  138.4860 C   0  0  0  0  0  2  0  0  0  0  0  0
  186.6590  177.5930  137.5300 C   0  0  2  0  0  3  0  0  0  0  0  0
  186.3640  178.1910  138.7770 O   0  0  0  0  0  0  0  0  0  0  0  0
  178.9890  174.6710  138.5770 C   0  0  0  0  0  3  0  0  0  0  0  0
  180.0180  178.3520  135.7090 C   0  0  0  0  0  2  0  0  0  0  0  0
  184.9430  179.4010  140.0450 F   0  0  0  0  0  0  0  0  0  0  0  0
  179.8000  177.0560  134.9360 C   0  0  0  0  0  2  0  0  0  0  0  0
  183.0300  176.2970  136.6700 C   0  0  0  0  0  2  0  0  0  0  0  0
  181.1240  178.0120  136.6910 C   0  0  1  0  0  3  0  0  0  0  0  0
  185.1160  178.8580  138.7840 C   0  0  2  0  0  3  0  0  0  0  0  0
  181.6140  173.9900  134.5940 N   0  0  0  0  0  0  0  0  0  0  0  0
  179.8620  172.4790  138.0280 C   0  0  0  0  0  3  0  0  0  0  0  0
  185.8000  175.4220  136.6130 C   0  0  0  0  0  2  0  0  0  0  0  0
  181.9780  177.0650  135.8570 C   0  0  2  0  0  3  0  0  0  0  0  0
  185.5460  176.6440  137.1100 C   0  0  0  0  0  0  0  0  0  0  0  0
  181.0090  176.2590  135.1380 N   0  0  0  0  0  0  0  0  0  0  0  0
  179.1190  173.3110  138.8750 C   0  0  0  0  0  3  0  0  0  0  0  0
  181.9550  179.2160  137.1570 C   0  0  1  0  0  3  0  0  0  0  0  0
  183.7710  176.9700  139.3970 O   0  0  0  0  0  1  0  0  0  0  0  0
  188.0140  176.9010  137.7170 C   0  0  0  0  0  2  0  0  0  0  0  0
  188.8100  179.1250  138.2220 O   0  0  0  0  0  1  0  0  0  0  0  0
  189.2220  177.8380  137.8850 C   0  0  1  0  0  3  0  0  0  0  0  0
  191.3590  176.6310  138.2830 C   0  0  0  0  0  3  0  0  0  0  0  0
  190.3640  177.3770  138.7680 C   0  0  0  0  0  0  0  0  0  0  0  0
  190.3180  177.5650  140.2870 C   0  0  1  0  0  0  0  0  0  0  0  0
  188.7420  176.9800  141.2440 C   0  0  1  0  0  3  0  0  0  0  0  0
  192.4310  176.1520  139.2120 C   0  0  0  0  0  2  0  0  0  0  0  0
  190.8970  176.2950  142.1450 C   0  0  0  0  0  2  0  0  0  0  0  0
  191.6830  178.0700  140.8000 C   0  0  2  0  0  3  0  0  0  0  0  0
  192.8670  177.3360  140.1050 C   0  0  0  0  0  2  0  0  0  0  0  0
  191.6650  177.6070  142.2260 C   0  0  0  0  0  2  0  0  0  0  0  0
  189.1550  178.2360  140.7350 O   0  0  0  0  0  0  0  0  0  0  0  0
  190.0150  176.3020  140.9620 N   0  0  2  0  0  0  0  0  0  0  0  0
  186.8840  177.4970  142.8250 C   0  0  0  0  0  1  0  0  0  0  0  0
  188.3280  177.0040  142.7410 C   0  0  0  0  0  2  0  0  0  0  0  0
  181.1730  180.4640  137.2660 N   0  0  0  0  0  2  0  0  0  0  0  0
  179.7800  180.1740  137.5950 C   0  0  0  0  0  2  0  0  0  0  0  0
  179.3600  180.8910  138.8760 C   0  0  2  0  0  3  0  0  0  0  0  0
  180.4050  181.7030  139.3170 O   0  0  0  0  0  1  0  0  0  0  0  0
  179.4700  180.3690  141.3780 C   0  0  0  0  0  2  0  0  0  0  0  0
  179.5210  177.9550  142.1210 C   0  0  0  0  0  2  0  0  0  0  0  0
  179.0220  179.3720  142.4530 C   0  0  1  0  0  3  0  0  0  0  0  0
  178.9640  179.9010  139.9870 C   0  0  2  0  0  3  0  0  0  0  0  0
  178.9310  177.4950  140.7770 C   0  0  0  0  0  2  0  0  0  0  0  0
  179.4080  178.4510  139.6680 C   0  0  0  0  0  2  0  0  0  0  0  0
  180.1960  178.5900  144.1570 C   0  0  0  0  0  1  0  0  0  0  0  0
  179.5410  179.7330  143.6910 O   0  0  0  0  0  0  0  0  0  0  0  0
  1  9  1  0  0  0  0
  1 18  1  0  0  0  0
  1 27  1  1  0  0  0
  2 12  1  0  0  0  0
  3  7  1  0  0  0  0
  4  3  2  0  0  0  0
  5  7  1  0  0  0  0
  5  2  2  0  0  0  0
  6  5  1  0  0  0  0
  7 20  2  0  0  0  0
  8 16  1  1  0  0  0
  8 23  1  0  0  0  0
  8  1  1  0  0  0  0
 10 28  1  1  0  0  0
 10 11  1  0  0  0  0
 11 18  1  0  0  0  0
 12 25  2  0  0  0  0
 15 24  1  0  0  0  0
 15 13  1  0  0  0  0
 17 13  1  6  0  0  0
 17 26  1  0  0  0  0
 18 14  1  1  0  0  0
 19  4  1  0  0  0  0
 19  6  2  0  0  0  0
 20 25  1  0  0  0  0
 21 23  2  0  0  0  0
 22 16  1  1  0  0  0
 22 17  1  0  0  0  0
 23 10  1  0  0  0  0
 24  6  1  0  0  0  0
 24 22  1  0  0  0  0
 26 44  1  1  0  0  0
 26  9  1  0  0  0  0
 28 30  1  0  0  0  0
 30 29  1  1  0  0  0
 30 32  1  0  0  0  0
 31 32  2  0  0  0  0
 31 35  1  0  0  0  0
 33 32  1  6  0  0  0
 33 40  1  0  0  0  0
 33 37  1  0  0  0  0
 33 41  1  0  0  0  0
 34 43  1  1  0  0  0
 35 38  1  0  0  0  0
 36 39  1  0  0  0  0
 37 38  1  6  0  0  0
 37 39  1  0  0  0  0
 40 34  1  0  0  0  0
 41 34  1  0  0  0  0
 41 36  1  1  0  0  0
 43 42  1  0  0  0  0
 44 45  1  0  0  0  0
 45 46  1  0  0  0  0
 46 47  1  1  0  0  0
 48 50  1  0  0  0  0
 49 50  1  0  0  0  0
 50 55  1  1  0  0  0
 51 46  1  6  0  0  0
 51 48  1  0  0  0  0
 52 49  1  0  0  0  0
 53 51  1  0  0  0  0
 53 52  1  0  0  0  0
 55 54  1  0  0  0  0
M  END
>  <MODEL>
7

>  <REMARK>
 VINA RESULT:      -6.5      2.853      5.041
  Name = 
  9 active torsions:
  status: ('A' for Active; 'I' for Inactive)
    1  A    between atoms: C_5  and  C_36
    2  A    between atoms: C_7  and  C_44
    3  A    between atoms: O_18  and  C_24
    4  A    between atoms: C_19  and  C_32
    5  A    between atoms: C_22  and  C_28
    6  A    between atoms: C_22  and  C_31
    7  A    between atoms: C_28  and  N_42
    8  A    between atoms: C_32  and  C_36
    9  A    between atoms: N_42  and  C_54
                            x       y       z     vdW  Elec       q    Type
                         _______ _______ _______ _____ _____    ______ ____

>  <TORSDO>
F 9

$$$$
=
 OpenBabel11042411273D

 55 63  0  0  1  0  0  0  0  0999 V2000
  183.1320  177.6680  139.8660 C   0  0  2  0  0  0  0  0  0  0  0  0
  184.7210  174.5000  136.0060 C   0  0  0  0  0  3  0  0  0  0  0  0
  188.2680  174.4060  136.9180 N   0  0  0  0  0  0  0  0  0  0  0  0
  188.6570  175.6810  136.6810 C   0  0  0  0  0  3  0  0  0  0  0  0
  186.0410  174.9210  136.2110 C   0  0  0  0  0  0  0  0  0  0  0  0
  186.4560  176.2430  135.9900 C   0  0  0  0  0  0  0  0  0  0  0  0
  187.0050  173.9850  136.6410 C   0  0  0  0  0  0  0  0  0  0  0  0
  184.4950  178.2370  139.3920 C   0  0  2  0  0  3  0  0  0  0  0  0
  182.0400  177.5330  138.7700 C   0  0  0  0  0  2  0  0  0  0  0  0
  184.6510  179.3930  141.6720 C   0  0  2  0  0  3  0  0  0  0  0  0
  183.4240  178.8120  142.0690 O   0  0  0  0  0  0  0  0  0  0  0  0
  184.3550  173.1700  136.2260 C   0  0  0  0  0  3  0  0  0  0  0  0
  183.2310  177.6790  135.1120 C   0  0  0  0  0  2  0  0  0  0  0  0
  181.3920  178.0190  141.4890 F   0  0  0  0  0  0  0  0  0  0  0  0
  184.6230  177.2900  134.6270 C   0  0  0  0  0  2  0  0  0  0  0  0
  185.1700  177.3560  138.3300 C   0  0  0  0  0  2  0  0  0  0  0  0
  183.2730  177.4090  136.6050 C   0  0  1  0  0  3  0  0  0  0  0  0
  182.5510  178.5800  140.9790 C   0  0  2  0  0  3  0  0  0  0  0  0
  187.7470  176.5930  136.2290 N   0  0  0  0  0  0  0  0  0  0  0  0
  186.6370  172.6530  136.8520 C   0  0  0  0  0  3  0  0  0  0  0  0
  186.6480  178.2550  140.6650 C   0  0  0  0  0  2  0  0  0  0  0  0
  184.7090  177.8000  136.9340 C   0  0  2  0  0  3  0  0  0  0  0  0
  185.3350  178.5390  140.6140 C   0  0  0  0  0  0  0  0  0  0  0  0
  185.4780  177.2930  135.8140 N   0  0  0  0  0  0  0  0  0  0  0  0
  185.3160  172.2400  136.6330 C   0  0  0  0  0  3  0  0  0  0  0  0
  182.2850  178.2430  137.4320 C   0  0  1  0  0  3  0  0  0  0  0  0
  183.3670  176.4020  140.3980 O   0  0  0  0  0  1  0  0  0  0  0  0
  185.4700  179.5400  142.9610 C   0  0  0  0  0  2  0  0  0  0  0  0
  185.3940  177.1570  143.3530 O   0  0  0  0  0  1  0  0  0  0  0  0
  185.3170  178.3980  143.9800 C   0  0  1  0  0  3  0  0  0  0  0  0
  185.9470  179.3260  146.1990 C   0  0  0  0  0  3  0  0  0  0  0  0
  186.1740  178.4380  145.2280 C   0  0  0  0  0  0  0  0  0  0  0  0
  187.4580  177.6100  145.3360 C   0  0  1  0  0  0  0  0  0  0  0  0
  188.7470  177.7130  143.8970 C   0  0  1  0  0  3  0  0  0  0  0  0
  186.8620  179.3620  147.3840 C   0  0  0  0  0  2  0  0  0  0  0  0
  189.6020  177.9530  146.1640 C   0  0  0  0  0  2  0  0  0  0  0  0
  187.5420  176.9410  146.7230 C   0  0  2  0  0  3  0  0  0  0  0  0
  187.1000  177.9100  147.8590 C   0  0  0  0  0  2  0  0  0  0  0  0
  189.0200  176.7400  146.8770 C   0  0  0  0  0  2  0  0  0  0  0  0
  187.7030  176.8040  144.1980 O   0  0  0  0  0  0  0  0  0  0  0  0
  188.6420  178.4540  145.1630 N   0  0  2  0  0  0  0  0  0  0  0  0
  190.2030  176.6650  142.1660 C   0  0  0  0  0  1  0  0  0  0  0  0
  190.1250  177.0400  143.6440 C   0  0  0  0  0  2  0  0  0  0  0  0
  181.0190  178.5240  136.7270 N   0  0  0  0  0  2  0  0  0  0  0  0
  180.7970  179.9630  136.6180 C   0  0  0  0  0  2  0  0  0  0  0  0
  179.3170  180.2730  136.4030 C   0  0  2  0  0  3  0  0  0  0  0  0
  179.0230  180.2100  135.0420 O   0  0  0  0  0  1  0  0  0  0  0  0
  179.3710  182.7990  136.0010 C   0  0  0  0  0  2  0  0  0  0  0  0
  179.5130  184.3510  137.9900 C   0  0  0  0  0  2  0  0  0  0  0  0
  178.9360  184.1520  136.5770 C   0  0  1  0  0  3  0  0  0  0  0  0
  178.9320  181.6580  136.9570 C   0  0  2  0  0  3  0  0  0  0  0  0
  178.9880  183.2490  138.9270 C   0  0  0  0  0  2  0  0  0  0  0  0
  179.4550  181.8790  138.4000 C   0  0  0  0  0  2  0  0  0  0  0  0
  180.5940  184.7180  135.2260 C   0  0  0  0  0  1  0  0  0  0  0  0
  179.3980  185.1880  135.7740 O   0  0  0  0  0  0  0  0  0  0  0  0
  1 27  1  1  0  0  0
  1 18  1  0  0  0  0
  2  5  2  0  0  0  0
  2 12  1  0  0  0  0
  4  3  2  0  0  0  0
  5  7  1  0  0  0  0
  6  5  1  0  0  0  0
  6 19  2  0  0  0  0
  7 20  2  0  0  0  0
  7  3  1  0  0  0  0
  8 16  1  6  0  0  0
  8  1  1  0  0  0  0
  8 23  1  0  0  0  0
  9  1  1  0  0  0  0
 10 11  1  0  0  0  0
 10 28  1  1  0  0  0
 12 25  2  0  0  0  0
 15 13  1  0  0  0  0
 15 24  1  0  0  0  0
 17 13  1  6  0  0  0
 17 22  1  0  0  0  0
 17 26  1  0  0  0  0
 18 14  1  1  0  0  0
 18 11  1  0  0  0  0
 19  4  1  0  0  0  0
 22 16  1  1  0  0  0
 23 21  2  0  0  0  0
 23 10  1  0  0  0  0
 24  6  1  0  0  0  0
 24 22  1  0  0  0  0
 25 20  1  0  0  0  0
 26 44  1  6  0  0  0
 26  9  1  0  0  0  0
 28 30  1  0  0  0  0
 30 29  1  6  0  0  0
 30 32  1  0  0  0  0
 31 35  1  0  0  0  0
 32 33  1  0  0  0  0
 32 31  2  0  0  0  0
 33 40  1  6  0  0  0
 33 37  1  0  0  0  0
 34 43  1  1  0  0  0
 34 40  1  0  0  0  0
 34 41  1  0  0  0  0
 35 38  1  0  0  0  0
 36 39  1  0  0  0  0
 37 39  1  1  0  0  0
 37 38  1  0  0  0  0
 41 33  1  0  0  0  0
 41 36  1  1  0  0  0
 42 43  1  0  0  0  0
 45 44  1  0  0  0  0
 46 47  1  6  0  0  0
 46 45  1  0  0  0  0
 48 50  1  0  0  0  0
 48 51  1  0  0  0  0
 49 52  1  0  0  0  0
 50 55  1  6  0  0  0
 50 49  1  0  0  0  0
 51 46  1  6  0  0  0
 51 53  1  0  0  0  0
 53 52  1  0  0  0  0
 54 55  1  0  0  0  0
M  END
>  <MODEL>
8

>  <REMARK>
 VINA RESULT:      -6.5      1.725      2.256
  Name = 
  9 active torsions:
  status: ('A' for Active; 'I' for Inactive)
    1  A    between atoms: C_5  and  C_36
    2  A    between atoms: C_7  and  C_44
    3  A    between atoms: O_18  and  C_24
    4  A    between atoms: C_19  and  C_32
    5  A    between atoms: C_22  and  C_28
    6  A    between atoms: C_22  and  C_31
    7  A    between atoms: C_28  and  N_42
    8  A    between atoms: C_32  and  C_36
    9  A    between atoms: N_42  and  C_54
                            x       y       z     vdW  Elec       q    Type
                         _______ _______ _______ _____ _____    ______ ____

>  <TORSDO>
F 9

$$$$
=
 OpenBabel11042411273D

 55 63  0  0  1  0  0  0  0  0999 V2000
  184.2760  177.9140  140.2530 C   0  0  2  0  0  0  0  0  0  0  0  0
  179.4470  175.8920  140.4900 C   0  0  0  0  0  3  0  0  0  0  0  0
  178.9840  175.3790  136.8930 N   0  0  0  0  0  0  0  0  0  0  0  0
  178.9490  176.6500  136.4260 C   0  0  0  0  0  3  0  0  0  0  0  0
  179.2660  176.1760  139.1310 C   0  0  0  0  0  0  0  0  0  0  0  0
  179.2480  177.4860  138.6280 C   0  0  0  0  0  0  0  0  0  0  0  0
  179.0790  175.1120  138.2230 C   0  0  0  0  0  0  0  0  0  0  0  0
  183.5050  178.5290  139.0550 C   0  0  2  0  0  3  0  0  0  0  0  0
  183.6430  178.1440  141.6520 C   0  0  0  0  0  2  0  0  0  0  0  0
  185.7910  178.9860  137.9940 C   0  0  2  0  0  3  0  0  0  0  0  0
  186.4410  178.3740  139.0910 O   0  0  0  0  0  0  0  0  0  0  0  0
  179.4460  174.5730  140.9490 C   0  0  0  0  0  3  0  0  0  0  0  0
  179.9590  179.2600  141.7230 C   0  0  0  0  0  2  0  0  0  0  0  0
  186.4440  177.8740  141.2920 F   0  0  0  0  0  0  0  0  0  0  0  0
  178.9310  178.9600  140.6390 C   0  0  0  0  0  2  0  0  0  0  0  0
  182.0900  177.9520  138.9000 C   0  0  0  0  0  2  0  0  0  0  0  0
  181.2230  178.5780  141.2300 C   0  0  1  0  0  3  0  0  0  0  0  0
  185.7120  178.5010  140.2990 C   0  0  2  0  0  3  0  0  0  0  0  0
  179.0910  177.6940  137.2940 N   0  0  0  0  0  0  0  0  0  0  0  0
  179.0710  173.7940  138.6870 C   0  0  0  0  0  3  0  0  0  0  0  0
  183.8910  178.0870  136.6240 C   0  0  0  0  0  2  0  0  0  0  0  0
  181.1060  178.7930  139.7260 C   0  0  2  0  0  3  0  0  0  0  0  0
  184.3820  178.4340  137.8250 C   0  0  0  0  0  0  0  0  0  0  0  0
  179.6970  178.5870  139.4500 N   0  0  0  0  0  0  0  0  0  0  0  0
  179.2400  173.5220  140.0500 C   0  0  0  0  0  3  0  0  0  0  0  0
  182.5260  179.1900  141.7620 C   0  0  1  0  0  3  0  0  0  0  0  0
  184.3580  176.5390  140.0370 O   0  0  0  0  0  1  0  0  0  0  0  0
  186.6980  178.7250  136.7850 C   0  0  0  0  0  2  0  0  0  0  0  0
  188.4970  178.3130  138.3440 O   0  0  0  0  0  1  0  0  0  0  0  0
  188.0070  177.9760  137.0850 C   0  0  1  0  0  3  0  0  0  0  0  0
  187.0000  175.7050  137.2060 C   0  0  0  0  0  3  0  0  0  0  0  0
  188.0360  176.4770  136.8670 C   0  0  0  0  0  0  0  0  0  0  0  0
  189.3240  175.7600  136.4520 C   0  0  1  0  0  0  0  0  0  0  0  0
  190.9390  176.1030  137.4590 C   0  0  1  0  0  3  0  0  0  0  0  0
  187.1050  174.2220  137.0270 C   0  0  0  0  0  2  0  0  0  0  0  0
  190.3880  173.7730  137.0190 C   0  0  0  0  0  2  0  0  0  0  0  0
  189.0220  174.7280  135.3450 C   0  0  2  0  0  3  0  0  0  0  0  0
  187.7090  173.9430  135.6310 C   0  0  0  0  0  2  0  0  0  0  0  0
  190.1520  173.7580  135.5150 C   0  0  0  0  0  2  0  0  0  0  0  0
  190.4170  176.6380  136.2560 O   0  0  0  0  0  0  0  0  0  0  0  0
  189.9200  175.0520  137.5860 N   0  0  2  0  0  0  0  0  0  0  0  0
  193.2550  176.3680  138.3430 C   0  0  0  0  0  1  0  0  0  0  0  0
  192.4020  175.5890  137.3450 C   0  0  0  0  0  2  0  0  0  0  0  0
  182.4110  179.7180  143.1360 N   0  0  0  0  0  2  0  0  0  0  0  0
  183.0390  178.8110  144.0920 C   0  0  0  0  0  2  0  0  0  0  0  0
  184.2000  179.4930  144.8120 C   0  0  2  0  0  3  0  0  0  0  0  0
  184.7890  180.4270  143.9610 O   0  0  0  0  0  1  0  0  0  0  0  0
  185.9810  178.9680  146.5720 C   0  0  0  0  0  2  0  0  0  0  0  0
  187.9990  177.6060  145.8990 C   0  0  0  0  0  2  0  0  0  0  0  0
  186.9960  177.9130  147.0260 C   0  0  1  0  0  3  0  0  0  0  0  0
  185.2580  178.4790  145.2880 C   0  0  2  0  0  3  0  0  0  0  0  0
  187.2540  177.0460  144.6750 C   0  0  0  0  0  2  0  0  0  0  0  0
  186.2600  178.1070  144.1660 C   0  0  0  0  0  2  0  0  0  0  0  0
  188.9240  177.6810  148.0850 C   0  0  0  0  0  1  0  0  0  0  0  0
  187.7120  178.3740  148.1240 O   0  0  0  0  0  0  0  0  0  0  0  0
  1 27  1  6  0  0  0
  1 18  1  0  0  0  0
  1  9  1  0  0  0  0
  2 12  1  0  0  0  0
  3  7  1  0  0  0  0
  4  3  2  0  0  0  0
  4 19  1  0  0  0  0
  5  2  2  0  0  0  0
  6  5  1  0  0  0  0
  6 24  1  0  0  0  0
  7 20  2  0  0  0  0
  7  5  1  0  0  0  0
  8 16  1  6  0  0  0
  8  1  1  0  0  0  0
  9 26  1  0  0  0  0
 10 28  1  6  0  0  0
 10 11  1  0  0  0  0
 11 18  1  0  0  0  0
 15 13  1  0  0  0  0
 17 13  1  1  0  0  0
 17 26  1  0  0  0  0
 18 14  1  1  0  0  0
 19  6  2  0  0  0  0
 20 25  1  0  0  0  0
 21 23  2  0  0  0  0
 22 16  1  6  0  0  0
 22 17  1  0  0  0  0
 23 10  1  0  0  0  0
 23  8  1  0  0  0  0
 24 22  1  0  0  0  0
 24 15  1  0  0  0  0
 25 12  2  0  0  0  0
 26 44  1  1  0  0  0
 28 30  1  0  0  0  0
 30 29  1  1  0  0  0
 32 30  1  0  0  0  0
 32 31  2  0  0  0  0
 33 40  1  6  0  0  0
 33 32  1  0  0  0  0
 33 41  1  0  0  0  0
 34 43  1  6  0  0  0
 34 41  1  0  0  0  0
 35 31  1  0  0  0  0
 37 39  1  1  0  0  0
 37 38  1  0  0  0  0
 37 33  1  0  0  0  0
 38 35  1  0  0  0  0
 39 36  1  0  0  0  0
 40 34  1  0  0  0  0
 41 36  1  6  0  0  0
 43 42  1  0  0  0  0
 44 45  1  0  0  0  0
 45 46  1  0  0  0  0
 46 47  1  6  0  0  0
 48 50  1  0  0  0  0
 49 50  1  0  0  0  0
 50 55  1  1  0  0  0
 51 46  1  6  0  0  0
 51 48  1  0  0  0  0
 52 49  1  0  0  0  0
 53 52  1  0  0  0  0
 53 51  1  0  0  0  0
 54 55  1  0  0  0  0
M  END
>  <MODEL>
9

>  <REMARK>
 VINA RESULT:      -6.3      3.680      7.911
  Name = 
  9 active torsions:
  status: ('A' for Active; 'I' for Inactive)
    1  A    between atoms: C_5  and  C_36
    2  A    between atoms: C_7  and  C_44
    3  A    between atoms: O_18  and  C_24
    4  A    between atoms: C_19  and  C_32
    5  A    between atoms: C_22  and  C_28
    6  A    between atoms: C_22  and  C_31
    7  A    between atoms: C_28  and  N_42
    8  A    between atoms: C_32  and  C_36
    9  A    between atoms: N_42  and  C_54
                            x       y       z     vdW  Elec       q    Type
                         _______ _______ _______ _____ _____    ______ ____

>  <TORSDO>
F 9

$$$$
