=
 OpenBabel11032421103D

 50 57  0  0  1  0  0  0  0  0999 V2000
  191.3480  175.9720  143.5580 C   0  0  0  0  0  2  0  0  0  0  0  0
  191.7370  177.0910  142.5930 C   0  0  0  0  0  2  0  0  0  0  0  0
  189.1820  176.1250  141.0820 O   0  0  0  0  0  0  0  0  0  0  0  0
  189.7000  178.3730  143.1030 C   0  0  0  0  0  2  0  0  0  0  0  0
  189.8860  177.1630  140.9520 C   0  0  0  0  0  0  0  0  0  0  0  0
  190.5260  177.7280  142.0920 N   0  0  0  0  0  0  0  0  0  0  0  0
  189.3770  177.4100  144.2250 C   0  0  0  0  0  0  0  0  0  0  0  0
  190.1730  176.3450  144.4330 C   0  0  0  0  0  3  0  0  0  0  0  0
  186.8520  177.7990  144.6340 C   0  0  0  0  0  0  0  0  0  0  0  0
  188.3940  177.8640  146.4830 C   0  0  0  0  0  0  0  0  0  0  0  0
  186.0930  178.2910  146.8920 N   0  0  0  0  0  0  0  0  0  0  0  0
  189.5120  177.8230  147.1680 O   0  0  0  0  0  0  0  0  0  0  0  0
  187.8590  178.2980  148.5980 C   0  0  0  0  0  3  0  0  0  0  0  0
  188.2000  177.6750  145.1050 C   0  0  0  0  0  0  0  0  0  0  0  0
  185.8270  178.1250  145.5660 C   0  0  0  0  0  3  0  0  0  0  0  0
  187.3680  178.1490  147.3230 C   0  0  0  0  0  0  0  0  0  0  0  0
  189.2310  178.0740  148.4350 C   0  0  0  0  0  3  0  0  0  0  0  0
  186.7940  178.8400  142.2930 C   0  0  0  0  0  2  0  0  0  0  0  0
  185.3690  178.4180  142.6140 C   0  0  1  0  0  0  0  0  0  0  0  0
  186.5280  177.5970  143.1580 C   0  0  2  0  0  3  0  0  0  0  0  0
  184.6930  179.2180  143.5470 O   0  0  0  0  0  1  0  0  0  0  0  0
  184.5740  177.7600  141.4890 C   0  0  0  0  0  2  0  0  0  0  0  0
  180.1440  178.3070  141.8100 C   0  0  0  0  0  0  0  0  0  0  0  0
  179.0840  178.8320  139.6450 C   0  0  0  0  0  1  0  0  0  0  0  0
  181.4330  178.0560  139.8370 C   0  0  0  0  0  2  0  0  0  0  0  0
  181.5230  178.6850  142.1870 C   0  0  0  0  0  2  0  0  0  0  0  0
  184.1230  179.6900  140.1590 O   0  0  0  0  0  0  0  0  0  0  0  0
  179.1890  178.3870  142.5700 O   0  0  0  0  0  0  0  0  0  0  0  0
  180.0190  177.8930  140.3830 C   0  0  1  0  0  3  0  0  0  0  0  0
  182.2420  178.5660  140.9350 N   0  0  0  0  0  0  0  0  0  0  0  0
  183.6520  178.7340  140.8310 C   0  0  0  0  0  0  0  0  0  0  0  0
  190.1210  177.7570  139.5960 C   0  0  1  0  0  3  0  0  0  0  0  0
  191.0510  176.9240  138.8590 N   0  0  0  0  0  1  0  0  0  0  0  0
  188.8270  177.8790  138.8050 C   0  0  0  0  0  2  0  0  0  0  0  0
  188.9920  178.8150  137.6160 C   0  0  0  0  0  2  0  0  0  0  0  0
  187.7990  178.7070  136.6810 C   0  0  0  0  0  2  0  0  0  0  0  0
  186.6540  178.0050  137.3980 C   0  0  0  0  0  2  0  0  0  0  0  0
  186.4350  176.7190  136.8720 O   0  0  0  0  0  0  0  0  0  0  0  0
  183.0380  177.5270  136.1610 C   0  0  0  0  0  2  0  0  0  0  0  0
  185.2910  175.2680  134.7780 O   0  0  0  0  0  1  0  0  0  0  0  0
  182.1910  175.1950  137.5240 C   0  0  2  0  0  3  0  0  0  0  0  0
  182.0430  175.2720  136.1200 O   0  0  0  0  0  0  0  0  0  0  0  0
  183.0470  176.1140  135.5660 C   0  0  2  0  0  3  0  0  0  0  0  0
  184.7240  174.9310  137.1930 C   0  0  1  0  0  0  0  0  0  0  0  0
  183.4660  174.4450  137.9310 C   0  0  0  0  0  2  0  0  0  0  0  0
  180.9850  174.5050  138.1340 C   0  0  0  0  0  1  0  0  0  0  0  0
  184.0610  177.5170  137.2920 C   0  0  0  0  0  2  0  0  0  0  0  0
  184.4380  175.5580  135.8430 C   0  0  1  0  0  0  0  0  0  0  0  0
  185.0540  176.4130  136.9430 C   0  0  1  0  0  0  0  0  0  0  0  0
  185.8070  174.0500  137.1630 O   0  0  0  0  0  1  0  0  0  0  0  0
  1  8  1  0  0  0  0
  2  1  1  0  0  0  0
  4  7  1  0  0  0  0
  5  3  2  0  0  0  0
  5  6  1  0  0  0  0
  6  2  1  0  0  0  0
  6  4  1  0  0  0  0
  7  8  2  0  0  0  0
  7 14  1  0  0  0  0
  9 14  2  0  0  0  0
  9 15  1  0  0  0  0
 10 12  1  0  0  0  0
 10 16  2  0  0  0  0
 11 16  1  0  0  0  0
 12 17  1  0  0  0  0
 14 10  1  0  0  0  0
 15 11  2  0  0  0  0
 16 13  1  0  0  0  0
 17 13  2  0  0  0  0
 18 19  1  0  0  0  0
 18 20  1  0  0  0  0
 19 20  1  0  0  0  0
 19 21  1  1  0  0  0
 20  9  1  1  0  0  0
 22 19  1  0  0  0  0
 23 26  1  0  0  0  0
 23 28  2  0  0  0  0
 25 29  1  0  0  0  0
 25 30  1  0  0  0  0
 27 31  2  0  0  0  0
 29 24  1  6  0  0  0
 29 23  1  0  0  0  0
 30 26  1  0  0  0  0
 31 30  1  0  0  0  0
 31 22  1  0  0  0  0
 32 33  1  6  0  0  0
 32  5  1  0  0  0  0
 34 32  1  0  0  0  0
 35 34  1  0  0  0  0
 36 37  1  0  0  0  0
 36 35  1  0  0  0  0
 38 37  1  0  0  0  0
 39 47  1  0  0  0  0
 41 45  1  0  0  0  0
 41 46  1  1  0  0  0
 42 41  1  0  0  0  0
 43 48  1  0  0  0  0
 43 42  1  0  0  0  0
 43 39  1  1  0  0  0
 44 50  1  1  0  0  0
 44 45  1  0  0  0  0
 48 40  1  6  0  0  0
 48 49  1  0  0  0  0
 48 44  1  0  0  0  0
 49 38  1  6  0  0  0
 49 44  1  0  0  0  0
 49 47  1  0  0  0  0
M  END
>  <MODEL>
1

>  <REMARK>
 VINA RESULT:      -8.9      0.000      0.000
  Name = 
  11 active torsions:
  status: ('A' for Active; 'I' for Inactive)
    1  A    between atoms: C_1  and  C_25
    2  A    between atoms: C_3  and  C_43
    3  A    between atoms: C_3  and  C_44
    4  A    between atoms: C_9  and  C_33
    5  A    between atoms: C_12  and  C_28
    6  A    between atoms: C_12  and  C_34
    7  A    between atoms: C_24  and  C_49
    8  A    between atoms: C_28  and  C_43
    9  A    between atoms: C_33  and  C_48
   10  A    between atoms: C_34  and  O_36
   11  A    between atoms: O_36  and  C_40
                            x       y       z     vdW  Elec       q    Type
                         _______ _______ _______ _____ _____    ______ ____

>  <TORSDO>
F 11

$$$$
=
 OpenBabel11032421103D

 50 57  0  0  1  0  0  0  0  0999 V2000
  190.3010  175.6280  142.8330 C   0  0  0  0  0  2  0  0  0  0  0  0
  190.9890  176.7730  142.0930 C   0  0  0  0  0  2  0  0  0  0  0  0
  188.3500  176.7420  140.4260 O   0  0  0  0  0  0  0  0  0  0  0  0
  189.2950  178.3970  142.8290 C   0  0  0  0  0  2  0  0  0  0  0  0
  189.2860  177.5850  140.4910 C   0  0  0  0  0  0  0  0  0  0  0  0
  189.9900  177.7640  141.7170 N   0  0  0  0  0  0  0  0  0  0  0  0
  188.7010  177.3570  143.7530 C   0  0  0  0  0  0  0  0  0  0  0  0
  189.2100  176.1110  143.7610 C   0  0  0  0  0  3  0  0  0  0  0  0
  186.2390  177.9910  144.2330 C   0  0  0  0  0  0  0  0  0  0  0  0
  187.8330  177.9080  146.0360 C   0  0  0  0  0  0  0  0  0  0  0  0
  185.5980  178.5590  146.5090 N   0  0  0  0  0  0  0  0  0  0  0  0
  188.9610  177.7600  146.6890 O   0  0  0  0  0  0  0  0  0  0  0  0
  187.4050  178.3960  148.1640 C   0  0  0  0  0  3  0  0  0  0  0  0
  187.5810  177.7370  144.6650 C   0  0  0  0  0  0  0  0  0  0  0  0
  185.2780  178.4180  145.1930 C   0  0  0  0  0  3  0  0  0  0  0  0
  186.8650  178.2940  146.9050 C   0  0  0  0  0  0  0  0  0  0  0  0
  188.7440  178.0390  147.9620 C   0  0  0  0  0  3  0  0  0  0  0  0
  186.1490  179.0560  141.9040 C   0  0  0  0  0  2  0  0  0  0  0  0
  184.7180  178.7010  142.2720 C   0  0  1  0  0  0  0  0  0  0  0  0
  185.8540  177.8190  142.7680 C   0  0  2  0  0  3  0  0  0  0  0  0
  184.1150  179.5230  143.2350 O   0  0  0  0  0  1  0  0  0  0  0  0
  183.8520  178.0930  141.1710 C   0  0  0  0  0  2  0  0  0  0  0  0
  183.1960  176.6120  137.0000 C   0  0  0  0  0  0  0  0  0  0  0  0
  185.0400  177.2050  135.4720 C   0  0  0  0  0  1  0  0  0  0  0  0
  185.1980  177.4710  137.9330 C   0  0  0  0  0  2  0  0  0  0  0  0
  182.7750  177.4190  138.1650 C   0  0  0  0  0  2  0  0  0  0  0  0
  184.4860  179.9330  139.7890 O   0  0  0  0  0  0  0  0  0  0  0  0
  182.4120  176.0740  136.2310 O   0  0  0  0  0  0  0  0  0  0  0  0
  184.6750  176.5870  136.8070 C   0  0  1  0  0  3  0  0  0  0  0  0
  184.0290  177.9570  138.6520 N   0  0  0  0  0  0  0  0  0  0  0  0
  184.1310  178.7250  139.8470 C   0  0  0  0  0  0  0  0  0  0  0  0
  189.7180  178.3370  139.2690 C   0  0  1  0  0  3  0  0  0  0  0  0
  190.8930  177.7030  138.7030 N   0  0  0  0  0  1  0  0  0  0  0  0
  188.6180  178.3780  138.2180 C   0  0  0  0  0  2  0  0  0  0  0  0
  189.1910  178.6150  136.8280 C   0  0  0  0  0  2  0  0  0  0  0  0
  188.7310  177.5320  135.8680 C   0  0  0  0  0  2  0  0  0  0  0  0
  189.9440  176.8750  135.2240 C   0  0  0  0  0  2  0  0  0  0  0  0
  189.8690  175.4730  135.3060 O   0  0  0  0  0  0  0  0  0  0  0  0
  193.1580  175.9360  136.5970 C   0  0  0  0  0  2  0  0  0  0  0  0
  190.2520  174.5540  137.9140 O   0  0  0  0  0  1  0  0  0  0  0  0
  193.7350  173.2060  136.1250 C   0  0  2  0  0  3  0  0  0  0  0  0
  193.6230  173.6720  137.4550 O   0  0  0  0  0  0  0  0  0  0  0  0
  192.7330  174.7810  137.5120 C   0  0  2  0  0  3  0  0  0  0  0  0
  191.1890  173.4350  135.8810 C   0  0  1  0  0  0  0  0  0  0  0  0
  192.4330  172.5690  135.6230 C   0  0  0  0  0  2  0  0  0  0  0  0
  194.8610  172.1930  136.0260 C   0  0  0  0  0  1  0  0  0  0  0  0
  192.3940  175.7450  135.2920 C   0  0  0  0  0  2  0  0  0  0  0  0
  191.3370  174.3840  137.0540 C   0  0  1  0  0  0  0  0  0  0  0  0
  191.1400  174.9560  135.6560 C   0  0  1  0  0  0  0  0  0  0  0  0
  189.9580  172.7750  135.8680 O   0  0  0  0  0  1  0  0  0  0  0  0
  1  8  1  0  0  0  0
  2  1  1  0  0  0  0
  3  5  2  0  0  0  0
  4  7  1  0  0  0  0
  5  6  1  0  0  0  0
  6  2  1  0  0  0  0
  6  4  1  0  0  0  0
  7  8  2  0  0  0  0
  7 14  1  0  0  0  0
  9 14  2  0  0  0  0
  9 15  1  0  0  0  0
 10 12  1  0  0  0  0
 10 16  2  0  0  0  0
 11 16  1  0  0  0  0
 12 17  1  0  0  0  0
 14 10  1  0  0  0  0
 15 11  2  0  0  0  0
 16 13  1  0  0  0  0
 17 13  2  0  0  0  0
 18 19  1  0  0  0  0
 18 20  1  0  0  0  0
 19 20  1  0  0  0  0
 19 21  1  1  0  0  0
 20  9  1  1  0  0  0
 22 19  1  0  0  0  0
 23 26  1  0  0  0  0
 25 30  1  0  0  0  0
 26 30  1  0  0  0  0
 27 31  2  0  0  0  0
 28 23  2  0  0  0  0
 29 24  1  6  0  0  0
 29 23  1  0  0  0  0
 29 25  1  0  0  0  0
 30 31  1  0  0  0  0
 31 22  1  0  0  0  0
 32 33  1  6  0  0  0
 32  5  1  0  0  0  0
 34 32  1  0  0  0  0
 35 34  1  0  0  0  0
 36 35  1  0  0  0  0
 37 38  1  0  0  0  0
 37 36  1  0  0  0  0
 41 46  1  1  0  0  0
 41 42  1  0  0  0  0
 42 43  1  0  0  0  0
 43 39  1  6  0  0  0
 44 50  1  6  0  0  0
 44 48  1  0  0  0  0
 45 44  1  0  0  0  0
 45 41  1  0  0  0  0
 47 49  1  0  0  0  0
 47 39  1  0  0  0  0
 48 43  1  0  0  0  0
 48 40  1  1  0  0  0
 49 38  1  6  0  0  0
 49 44  1  0  0  0  0
 49 48  1  0  0  0  0
M  END
>  <MODEL>
2

>  <REMARK>
 VINA RESULT:      -8.8      2.979      5.152
  Name = 
  11 active torsions:
  status: ('A' for Active; 'I' for Inactive)
    1  A    between atoms: C_1  and  C_25
    2  A    between atoms: C_3  and  C_43
    3  A    between atoms: C_3  and  C_44
    4  A    between atoms: C_9  and  C_33
    5  A    between atoms: C_12  and  C_28
    6  A    between atoms: C_12  and  C_34
    7  A    between atoms: C_24  and  C_49
    8  A    between atoms: C_28  and  C_43
    9  A    between atoms: C_33  and  C_48
   10  A    between atoms: C_34  and  O_36
   11  A    between atoms: O_36  and  C_40
                            x       y       z     vdW  Elec       q    Type
                         _______ _______ _______ _____ _____    ______ ____

>  <TORSDO>
F 11

$$$$
=
 OpenBabel11032421103D

 50 57  0  0  1  0  0  0  0  0999 V2000
  191.2380  175.7880  143.8270 C   0  0  0  0  0  2  0  0  0  0  0  0
  191.7770  176.8640  142.8860 C   0  0  0  0  0  2  0  0  0  0  0  0
  189.3260  176.0030  141.1540 O   0  0  0  0  0  0  0  0  0  0  0  0
  189.7750  178.2620  143.1790 C   0  0  0  0  0  2  0  0  0  0  0  0
  190.0960  176.9990  141.0750 C   0  0  0  0  0  0  0  0  0  0  0  0
  190.6560  177.5540  142.2620 N   0  0  0  0  0  0  0  0  0  0  0  0
  189.2950  177.3420  144.2800 C   0  0  0  0  0  0  0  0  0  0  0  0
  190.0090  176.2410  144.5810 C   0  0  0  0  0  3  0  0  0  0  0  0
  186.7650  177.8560  144.4430 C   0  0  0  0  0  0  0  0  0  0  0  0
  188.1340  177.9140  146.4240 C   0  0  0  0  0  0  0  0  0  0  0  0
  185.8280  178.4560  146.6060 N   0  0  0  0  0  0  0  0  0  0  0  0
  189.1810  177.8460  147.2100 O   0  0  0  0  0  0  0  0  0  0  0  0
  187.4300  178.4410  148.4670 C   0  0  0  0  0  3  0  0  0  0  0  0
  188.0570  177.6890  145.0400 C   0  0  0  0  0  0  0  0  0  0  0  0
  185.6760  178.2580  145.2670 C   0  0  0  0  0  3  0  0  0  0  0  0
  187.0500  178.2720  147.1580 C   0  0  0  0  0  0  0  0  0  0  0  0
  188.7990  178.1510  148.4380 C   0  0  0  0  0  3  0  0  0  0  0  0
  187.0240  178.7980  142.0740 C   0  0  0  0  0  2  0  0  0  0  0  0
  185.5430  178.5130  142.2660 C   0  0  1  0  0  0  0  0  0  0  0  0
  186.5670  177.6200  142.9500 C   0  0  2  0  0  3  0  0  0  0  0  0
  184.8540  179.4060  143.1000 O   0  0  0  0  0  1  0  0  0  0  0  0
  184.8040  177.8780  141.0910 C   0  0  0  0  0  2  0  0  0  0  0  0
  185.4590  176.6970  136.8250 C   0  0  0  0  0  0  0  0  0  0  0  0
  187.0200  178.1990  135.6440 C   0  0  0  0  0  1  0  0  0  0  0  0
  186.7070  178.2530  138.1040 C   0  0  0  0  0  2  0  0  0  0  0  0
  184.5650  177.1100  137.9280 C   0  0  0  0  0  2  0  0  0  0  0  0
  184.7140  179.9390  139.8910 O   0  0  0  0  0  0  0  0  0  0  0  0
  185.1160  175.9490  135.9200 O   0  0  0  0  0  0  0  0  0  0  0  0
  186.7990  177.3490  136.8800 C   0  0  1  0  0  3  0  0  0  0  0  0
  185.3610  178.0940  138.6340 N   0  0  0  0  0  0  0  0  0  0  0  0
  184.9420  178.7010  139.8520 C   0  0  0  0  0  0  0  0  0  0  0  0
  190.4900  177.5510  139.7390 C   0  0  1  0  0  3  0  0  0  0  0  0
  191.9350  177.5380  139.6190 N   0  0  0  0  0  1  0  0  0  0  0  0
  189.8880  176.7420  138.5990 C   0  0  0  0  0  2  0  0  0  0  0  0
  190.8060  176.7310  137.3840 C   0  0  0  0  0  2  0  0  0  0  0  0
  190.6300  175.4470  136.5920 C   0  0  0  0  0  2  0  0  0  0  0  0
  191.4660  174.3420  137.2210 C   0  0  0  0  0  2  0  0  0  0  0  0
  192.6300  174.8600  137.8180 O   0  0  0  0  0  0  0  0  0  0  0  0
  194.3170  173.0500  135.2540 C   0  0  0  0  0  2  0  0  0  0  0  0
  194.6780  176.2610  136.5370 O   0  0  0  0  0  1  0  0  0  0  0  0
  196.4800  172.5620  137.0120 C   0  0  2  0  0  3  0  0  0  0  0  0
  196.6630  173.4290  135.9100 O   0  0  0  0  0  0  0  0  0  0  0  0
  195.4310  174.0540  135.5690 C   0  0  2  0  0  3  0  0  0  0  0  0
  195.0570  174.3770  138.1410 C   0  0  1  0  0  0  0  0  0  0  0  0
  196.1690  173.3280  138.3040 C   0  0  0  0  0  2  0  0  0  0  0  0
  197.7250  171.7170  137.2160 C   0  0  0  0  0  1  0  0  0  0  0  0
  193.5410  172.8560  136.5520 C   0  0  0  0  0  2  0  0  0  0  0  0
  194.9100  174.8990  136.7250 C   0  0  1  0  0  0  0  0  0  0  0  0
  193.7550  174.1340  137.3580 C   0  0  1  0  0  0  0  0  0  0  0  0
  195.0130  175.3910  139.1000 O   0  0  0  0  0  1  0  0  0  0  0  0
  1  8  1  0  0  0  0
  2  1  1  0  0  0  0
  4  7  1  0  0  0  0
  5  3  2  0  0  0  0
  5  6  1  0  0  0  0
  6  2  1  0  0  0  0
  6  4  1  0  0  0  0
  7  8  2  0  0  0  0
  7 14  1  0  0  0  0
  9 14  2  0  0  0  0
  9 15  1  0  0  0  0
 10 16  2  0  0  0  0
 10 12  1  0  0  0  0
 11 16  1  0  0  0  0
 12 17  1  0  0  0  0
 14 10  1  0  0  0  0
 15 11  2  0  0  0  0
 16 13  1  0  0  0  0
 17 13  2  0  0  0  0
 18 19  1  0  0  0  0
 18 20  1  0  0  0  0
 19 20  1  0  0  0  0
 19 21  1  1  0  0  0
 20  9  1  1  0  0  0
 22 19  1  0  0  0  0
 23 29  1  0  0  0  0
 23 26  1  0  0  0  0
 25 30  1  0  0  0  0
 26 30  1  0  0  0  0
 28 23  2  0  0  0  0
 29 24  1  6  0  0  0
 29 25  1  0  0  0  0
 30 31  1  0  0  0  0
 31 27  2  0  0  0  0
 31 22  1  0  0  0  0
 32 33  1  6  0  0  0
 32  5  1  0  0  0  0
 34 32  1  0  0  0  0
 35 34  1  0  0  0  0
 36 37  1  0  0  0  0
 36 35  1  0  0  0  0
 37 38  1  0  0  0  0
 39 47  1  0  0  0  0
 41 46  1  1  0  0  0
 41 45  1  0  0  0  0
 42 41  1  0  0  0  0
 43 39  1  1  0  0  0
 43 42  1  0  0  0  0
 43 48  1  0  0  0  0
 44 45  1  0  0  0  0
 44 50  1  1  0  0  0
 47 49  1  0  0  0  0
 48 40  1  6  0  0  0
 48 49  1  0  0  0  0
 48 44  1  0  0  0  0
 49 38  1  1  0  0  0
 49 44  1  0  0  0  0
M  END
>  <MODEL>
3

>  <REMARK>
 VINA RESULT:      -8.7      3.910      6.710
  Name = 
  11 active torsions:
  status: ('A' for Active; 'I' for Inactive)
    1  A    between atoms: C_1  and  C_25
    2  A    between atoms: C_3  and  C_43
    3  A    between atoms: C_3  and  C_44
    4  A    between atoms: C_9  and  C_33
    5  A    between atoms: C_12  and  C_28
    6  A    between atoms: C_12  and  C_34
    7  A    between atoms: C_24  and  C_49
    8  A    between atoms: C_28  and  C_43
    9  A    between atoms: C_33  and  C_48
   10  A    between atoms: C_34  and  O_36
   11  A    between atoms: O_36  and  C_40
                            x       y       z     vdW  Elec       q    Type
                         _______ _______ _______ _____ _____    ______ ____

>  <TORSDO>
F 11

$$$$
=
 OpenBabel11032421103D

 50 57  0  0  1  0  0  0  0  0999 V2000
  187.7300  178.8630  136.8370 C   0  0  0  0  0  2  0  0  0  0  0  0
  186.6810  177.8660  137.3280 C   0  0  0  0  0  2  0  0  0  0  0  0
  188.0120  176.0290  135.1830 O   0  0  0  0  0  0  0  0  0  0  0  0
  188.3990  176.3420  138.2100 C   0  0  0  0  0  2  0  0  0  0  0  0
  187.2050  175.7720  136.1180 C   0  0  0  0  0  0  0  0  0  0  0  0
  187.2580  176.5290  137.3240 N   0  0  0  0  0  0  0  0  0  0  0  0
  189.4600  177.3870  137.9450 C   0  0  0  0  0  0  0  0  0  0  0  0
  189.1150  178.5460  137.3530 C   0  0  0  0  0  3  0  0  0  0  0  0
  191.3890  177.4580  139.6680 C   0  0  0  0  0  0  0  0  0  0  0  0
  191.7780  176.5730  137.4620 C   0  0  0  0  0  0  0  0  0  0  0  0
  193.5920  176.6800  138.9920 N   0  0  0  0  0  0  0  0  0  0  0  0
  191.5740  176.2000  136.2210 O   0  0  0  0  0  0  0  0  0  0  0  0
  193.7270  175.8240  136.6940 C   0  0  0  0  0  3  0  0  0  0  0  0
  190.8680  177.1310  138.3740 C   0  0  0  0  0  0  0  0  0  0  0  0
  192.7690  177.2290  139.9290 C   0  0  0  0  0  3  0  0  0  0  0  0
  193.0790  176.3570  137.7830 C   0  0  0  0  0  0  0  0  0  0  0  0
  192.7140  175.7440  135.7320 C   0  0  0  0  0  3  0  0  0  0  0  0
  191.0620  177.9610  142.1590 C   0  0  0  0  0  2  0  0  0  0  0  0
  189.9050  177.0680  141.7430 C   0  0  1  0  0  0  0  0  0  0  0  0
  190.4820  178.0530  140.7380 C   0  0  2  0  0  3  0  0  0  0  0  0
  190.2230  175.7180  141.5300 O   0  0  0  0  0  1  0  0  0  0  0  0
  188.5260  177.4250  142.2900 C   0  0  0  0  0  2  0  0  0  0  0  0
  186.8810  178.4410  146.3260 C   0  0  0  0  0  0  0  0  0  0  0  0
  187.8650  177.0790  148.1330 C   0  0  0  0  0  1  0  0  0  0  0  0
  188.7860  177.1230  145.8290 C   0  0  0  0  0  2  0  0  0  0  0  0
  186.6930  177.9830  144.9330 C   0  0  0  0  0  2  0  0  0  0  0  0
  188.1460  175.3060  143.3200 O   0  0  0  0  0  0  0  0  0  0  0  0
  186.0480  179.0900  146.9430 O   0  0  0  0  0  0  0  0  0  0  0  0
  188.1560  177.9620  146.9340 C   0  0  1  0  0  3  0  0  0  0  0  0
  187.8530  177.1440  144.7120 N   0  0  0  0  0  0  0  0  0  0  0  0
  188.1580  176.5580  143.4510 C   0  0  0  0  0  0  0  0  0  0  0  0
  186.1390  174.7350  135.9380 C   0  0  1  0  0  3  0  0  0  0  0  0
  185.7360  174.2270  137.2350 N   0  0  0  0  0  1  0  0  0  0  0  0
  184.9200  175.3010  135.2240 C   0  0  0  0  0  2  0  0  0  0  0  0
  183.9010  175.8430  136.2160 C   0  0  0  0  0  2  0  0  0  0  0  0
  183.4240  177.2220  135.7930 C   0  0  0  0  0  2  0  0  0  0  0  0
  182.1650  177.5840  136.5690 C   0  0  0  0  0  2  0  0  0  0  0  0
  182.3170  178.8080  137.2440 O   0  0  0  0  0  0  0  0  0  0  0  0
  183.0690  176.9750  140.2060 C   0  0  0  0  0  2  0  0  0  0  0  0
  184.1150  180.0560  138.9790 O   0  0  0  0  0  1  0  0  0  0  0  0
  181.3210  178.6360  141.6870 C   0  0  2  0  0  3  0  0  0  0  0  0
  182.7150  178.7180  141.9120 O   0  0  0  0  0  0  0  0  0  0  0  0
  183.4240  178.3720  140.7280 C   0  0  2  0  0  3  0  0  0  0  0  0
  181.6650  179.8160  139.4320 C   0  0  1  0  0  0  0  0  0  0  0  0
  180.8280  179.7180  140.7180 C   0  0  0  0  0  2  0  0  0  0  0  0
  180.5780  178.7630  143.0040 C   0  0  0  0  0  1  0  0  0  0  0  0
  181.9770  177.1770  139.1610 C   0  0  0  0  0  2  0  0  0  0  0  0
  183.0930  179.3330  139.5940 C   0  0  1  0  0  0  0  0  0  0  0  0
  182.1630  178.5980  138.6360 C   0  0  1  0  0  0  0  0  0  0  0  0
  181.5760  181.0150  138.7220 O   0  0  0  0  0  1  0  0  0  0  0  0
  1  2  1  0  0  0  0
  1  8  1  0  0  0  0
  3  5  2  0  0  0  0
  5  6  1  0  0  0  0
  6  2  1  0  0  0  0
  6  4  1  0  0  0  0
  7  4  1  0  0  0  0
  7 14  1  0  0  0  0
  8  7  2  0  0  0  0
  9 15  1  0  0  0  0
 10 16  2  0  0  0  0
 10 14  1  0  0  0  0
 11 15  2  0  0  0  0
 12 10  1  0  0  0  0
 13 16  1  0  0  0  0
 14  9  2  0  0  0  0
 16 11  1  0  0  0  0
 17 12  1  0  0  0  0
 17 13  2  0  0  0  0
 19 21  1  6  0  0  0
 19 18  1  0  0  0  0
 19 22  1  0  0  0  0
 20  9  1  6  0  0  0
 20 19  1  0  0  0  0
 20 18  1  0  0  0  0
 22 31  1  0  0  0  0
 23 29  1  0  0  0  0
 23 28  2  0  0  0  0
 25 29  1  0  0  0  0
 26 23  1  0  0  0  0
 27 31  2  0  0  0  0
 29 24  1  1  0  0  0
 30 26  1  0  0  0  0
 30 25  1  0  0  0  0
 31 30  1  0  0  0  0
 32  5  1  0  0  0  0
 32 33  1  1  0  0  0
 34 32  1  0  0  0  0
 34 35  1  0  0  0  0
 36 35  1  0  0  0  0
 36 37  1  0  0  0  0
 37 38  1  0  0  0  0
 41 42  1  0  0  0  0
 41 46  1  1  0  0  0
 43 39  1  6  0  0  0
 43 42  1  0  0  0  0
 44 50  1  6  0  0  0
 44 48  1  0  0  0  0
 44 45  1  0  0  0  0
 45 41  1  0  0  0  0
 47 39  1  0  0  0  0
 48 40  1  6  0  0  0
 48 43  1  0  0  0  0
 49 38  1  6  0  0  0
 49 47  1  0  0  0  0
 49 44  1  0  0  0  0
 49 48  1  0  0  0  0
M  END
>  <MODEL>
4

>  <REMARK>
 VINA RESULT:      -8.7      2.406      7.423
  Name = 
  11 active torsions:
  status: ('A' for Active; 'I' for Inactive)
    1  A    between atoms: C_1  and  C_25
    2  A    between atoms: C_3  and  C_43
    3  A    between atoms: C_3  and  C_44
    4  A    between atoms: C_9  and  C_33
    5  A    between atoms: C_12  and  C_28
    6  A    between atoms: C_12  and  C_34
    7  A    between atoms: C_24  and  C_49
    8  A    between atoms: C_28  and  C_43
    9  A    between atoms: C_33  and  C_48
   10  A    between atoms: C_34  and  O_36
   11  A    between atoms: O_36  and  C_40
                            x       y       z     vdW  Elec       q    Type
                         _______ _______ _______ _____ _____    ______ ____

>  <TORSDO>
F 11

$$$$
=
 OpenBabel11032421103D

 50 57  0  0  1  0  0  0  0  0999 V2000
  190.4500  175.6280  142.9410 C   0  0  0  0  0  2  0  0  0  0  0  0
  191.1030  176.7710  142.1650 C   0  0  0  0  0  2  0  0  0  0  0  0
  188.4350  176.6590  140.5490 O   0  0  0  0  0  0  0  0  0  0  0  0
  189.3940  178.3790  142.9010 C   0  0  0  0  0  2  0  0  0  0  0  0
  189.3560  177.5200  140.5800 C   0  0  0  0  0  0  0  0  0  0  0  0
  190.0790  177.7360  141.7890 N   0  0  0  0  0  0  0  0  0  0  0  0
  188.8350  177.3470  143.8560 C   0  0  0  0  0  0  0  0  0  0  0  0
  189.3670  176.1100  143.8790 C   0  0  0  0  0  3  0  0  0  0  0  0
  186.3850  178.0070  144.3610 C   0  0  0  0  0  0  0  0  0  0  0  0
  187.9870  177.8670  146.1540 C   0  0  0  0  0  0  0  0  0  0  0  0
  185.7640  178.5400  146.6510 N   0  0  0  0  0  0  0  0  0  0  0  0
  189.1160  177.6900  146.7970 O   0  0  0  0  0  0  0  0  0  0  0  0
  187.5780  178.3200  148.2930 C   0  0  0  0  0  3  0  0  0  0  0  0
  187.7260  177.7260  144.7810 C   0  0  0  0  0  0  0  0  0  0  0  0
  185.4360  178.4280  145.3340 C   0  0  0  0  0  3  0  0  0  0  0  0
  187.0290  178.2500  147.0350 C   0  0  0  0  0  0  0  0  0  0  0  0
  188.9100  177.9480  148.0770 C   0  0  0  0  0  3  0  0  0  0  0  0
  186.1540  179.1670  142.0880 C   0  0  0  0  0  2  0  0  0  0  0  0
  184.7690  178.6630  142.4590 C   0  0  1  0  0  0  0  0  0  0  0  0
  185.9900  177.8680  142.8950 C   0  0  2  0  0  3  0  0  0  0  0  0
  184.1110  179.3800  143.4690 O   0  0  0  0  0  1  0  0  0  0  0  0
  183.9430  178.0290  141.3430 C   0  0  0  0  0  2  0  0  0  0  0  0
  180.1880  179.2010  139.2080 C   0  0  0  0  0  0  0  0  0  0  0  0
  180.5170  179.4940  136.7810 C   0  0  0  0  0  1  0  0  0  0  0  0
  182.2250  178.4570  138.2520 C   0  0  0  0  0  2  0  0  0  0  0  0
  181.2220  179.4520  140.2350 C   0  0  0  0  0  2  0  0  0  0  0  0
  184.6330  179.7530  139.8430 O   0  0  0  0  0  0  0  0  0  0  0  0
  179.0170  179.5310  139.3320 O   0  0  0  0  0  0  0  0  0  0  0  0
  180.7320  178.5760  137.9680 C   0  0  1  0  0  3  0  0  0  0  0  0
  182.4400  179.0320  139.5720 N   0  0  0  0  0  0  0  0  0  0  0  0
  183.7040  178.9930  140.2260 C   0  0  0  0  0  0  0  0  0  0  0  0
  189.7520  178.2550  139.3350 C   0  0  1  0  0  3  0  0  0  0  0  0
  190.8120  177.5290  138.6630 N   0  0  0  0  0  1  0  0  0  0  0  0
  188.5770  178.4160  138.3820 C   0  0  0  0  0  2  0  0  0  0  0  0
  188.9690  178.0570  136.9560 C   0  0  0  0  0  2  0  0  0  0  0  0
  187.7340  177.7790  136.1160 C   0  0  0  0  0  2  0  0  0  0  0  0
  187.5780  176.2770  135.9240 C   0  0  0  0  0  2  0  0  0  0  0  0
  186.3830  175.9690  135.2500 O   0  0  0  0  0  0  0  0  0  0  0  0
  186.7670  173.0250  137.2200 C   0  0  0  0  0  2  0  0  0  0  0  0
  184.6340  175.7640  137.4170 O   0  0  0  0  0  1  0  0  0  0  0  0
  184.4970  171.8850  135.9720 C   0  0  2  0  0  3  0  0  0  0  0  0
  184.4280  172.2560  137.3340 O   0  0  0  0  0  0  0  0  0  0  0  0
  185.3140  173.3390  137.5930 C   0  0  2  0  0  3  0  0  0  0  0  0
  184.4660  174.3750  135.3420 C   0  0  1  0  0  0  0  0  0  0  0  0
  183.9230  172.9660  135.0480 C   0  0  0  0  0  2  0  0  0  0  0  0
  183.7460  170.5850  135.7520 C   0  0  0  0  0  1  0  0  0  0  0  0
  186.9670  173.5620  135.8070 C   0  0  0  0  0  2  0  0  0  0  0  0
  184.9320  174.5640  136.7720 C   0  0  1  0  0  0  0  0  0  0  0  0
  185.9440  174.6810  135.6390 C   0  0  1  0  0  0  0  0  0  0  0  0
  183.7010  175.4460  134.8750 O   0  0  0  0  0  1  0  0  0  0  0  0
  1  8  1  0  0  0  0
  2  1  1  0  0  0  0
  3  5  2  0  0  0  0
  4  7  1  0  0  0  0
  5  6  1  0  0  0  0
  6  2  1  0  0  0  0
  6  4  1  0  0  0  0
  7  8  2  0  0  0  0
  7 14  1  0  0  0  0
  9 14  2  0  0  0  0
  9 15  1  0  0  0  0
 10 12  1  0  0  0  0
 10 16  2  0  0  0  0
 11 16  1  0  0  0  0
 12 17  1  0  0  0  0
 14 10  1  0  0  0  0
 15 11  2  0  0  0  0
 16 13  1  0  0  0  0
 17 13  2  0  0  0  0
 18 19  1  0  0  0  0
 18 20  1  0  0  0  0
 19 20  1  0  0  0  0
 19 21  1  1  0  0  0
 20  9  1  1  0  0  0
 22 19  1  0  0  0  0
 23 28  2  0  0  0  0
 23 26  1  0  0  0  0
 25 30  1  0  0  0  0
 27 31  2  0  0  0  0
 29 24  1  6  0  0  0
 29 25  1  0  0  0  0
 29 23  1  0  0  0  0
 30 31  1  0  0  0  0
 30 26  1  0  0  0  0
 31 22  1  0  0  0  0
 32 33  1  6  0  0  0
 32  5  1  0  0  0  0
 34 32  1  0  0  0  0
 35 34  1  0  0  0  0
 36 35  1  0  0  0  0
 37 36  1  0  0  0  0
 38 37  1  0  0  0  0
 41 46  1  1  0  0  0
 41 42  1  0  0  0  0
 42 43  1  0  0  0  0
 43 39  1  6  0  0  0
 44 50  1  6  0  0  0
 44 49  1  0  0  0  0
 44 48  1  0  0  0  0
 45 44  1  0  0  0  0
 45 41  1  0  0  0  0
 47 39  1  0  0  0  0
 48 40  1  1  0  0  0
 48 43  1  0  0  0  0
 49 38  1  6  0  0  0
 49 47  1  0  0  0  0
 49 48  1  0  0  0  0
M  END
>  <MODEL>
5

>  <REMARK>
 VINA RESULT:      -8.4      1.634      2.255
  Name = 
  11 active torsions:
  status: ('A' for Active; 'I' for Inactive)
    1  A    between atoms: C_1  and  C_25
    2  A    between atoms: C_3  and  C_43
    3  A    between atoms: C_3  and  C_44
    4  A    between atoms: C_9  and  C_33
    5  A    between atoms: C_12  and  C_28
    6  A    between atoms: C_12  and  C_34
    7  A    between atoms: C_24  and  C_49
    8  A    between atoms: C_28  and  C_43
    9  A    between atoms: C_33  and  C_48
   10  A    between atoms: C_34  and  O_36
   11  A    between atoms: O_36  and  C_40
                            x       y       z     vdW  Elec       q    Type
                         _______ _______ _______ _____ _____    ______ ____

>  <TORSDO>
F 11

$$$$
=
 OpenBabel11032421103D

 50 57  0  0  1  0  0  0  0  0999 V2000
  188.0680  178.9850  136.9410 C   0  0  0  0  0  2  0  0  0  0  0  0
  186.9490  178.0380  137.3730 C   0  0  0  0  0  2  0  0  0  0  0  0
  188.2890  176.1490  135.2800 O   0  0  0  0  0  0  0  0  0  0  0  0
  188.5450  176.4270  138.3240 C   0  0  0  0  0  2  0  0  0  0  0  0
  187.4270  175.9270  136.1730 C   0  0  0  0  0  0  0  0  0  0  0  0
  187.4590  176.6740  137.3860 N   0  0  0  0  0  0  0  0  0  0  0  0
  189.6680  177.4200  138.1180 C   0  0  0  0  0  0  0  0  0  0  0  0
  189.4090  178.5970  137.5200 C   0  0  0  0  0  3  0  0  0  0  0  0
  191.5450  177.4680  139.8990 C   0  0  0  0  0  0  0  0  0  0  0  0
  191.9320  176.4070  137.7720 C   0  0  0  0  0  0  0  0  0  0  0  0
  193.7020  176.4870  139.3530 N   0  0  0  0  0  0  0  0  0  0  0  0
  191.7380  175.9660  136.5520 O   0  0  0  0  0  0  0  0  0  0  0  0
  193.8420  175.4680  137.1230 C   0  0  0  0  0  3  0  0  0  0  0  0
  191.0390  177.0920  138.6120 C   0  0  0  0  0  0  0  0  0  0  0  0
  192.8950  177.1580  140.2220 C   0  0  0  0  0  3  0  0  0  0  0  0
  193.2030  176.1200  138.1510 C   0  0  0  0  0  0  0  0  0  0  0  0
  192.8550  175.3960  136.1330 C   0  0  0  0  0  3  0  0  0  0  0  0
  190.9810  177.8830  142.3640 C   0  0  0  0  0  2  0  0  0  0  0  0
  189.7220  177.3250  141.7200 C   0  0  1  0  0  0  0  0  0  0  0  0
  190.6530  178.2000  140.8950 C   0  0  2  0  0  3  0  0  0  0  0  0
  189.7460  175.9540  141.4240 O   0  0  0  0  0  1  0  0  0  0  0  0
  188.3980  177.9720  142.1180 C   0  0  0  0  0  2  0  0  0  0  0  0
  184.8100  178.9370  144.6120 C   0  0  0  0  0  0  0  0  0  0  0  0
  185.0690  178.2530  146.9680 C   0  0  0  0  0  1  0  0  0  0  0  0
  186.9590  178.2770  145.3610 C   0  0  0  0  0  2  0  0  0  0  0  0
  185.4370  178.2510  143.4620 C   0  0  0  0  0  2  0  0  0  0  0  0
  188.0610  176.0160  143.4420 O   0  0  0  0  0  0  0  0  0  0  0  0
  183.6590  179.3490  144.6080 O   0  0  0  0  0  0  0  0  0  0  0  0
  185.6960  179.0030  145.8090 C   0  0  1  0  0  3  0  0  0  0  0  0
  186.7140  177.8270  143.9990 N   0  0  0  0  0  0  0  0  0  0  0  0
  187.7210  177.2050  143.2060 C   0  0  0  0  0  0  0  0  0  0  0  0
  186.3210  174.9450  135.9350 C   0  0  1  0  0  3  0  0  0  0  0  0
  186.8850  173.6250  135.7290 N   0  0  0  0  0  1  0  0  0  0  0  0
  185.3510  174.8960  137.1060 C   0  0  0  0  0  2  0  0  0  0  0  0
  184.0410  175.5950  136.7700 C   0  0  0  0  0  2  0  0  0  0  0  0
  182.9790  175.2680  137.8060 C   0  0  0  0  0  2  0  0  0  0  0  0
  183.0450  176.2830  138.9380 C   0  0  0  0  0  2  0  0  0  0  0  0
  183.4240  177.5520  138.4660 O   0  0  0  0  0  0  0  0  0  0  0  0
  180.0460  178.2340  139.3720 C   0  0  0  0  0  2  0  0  0  0  0  0
  183.0770  178.5720  141.0420 O   0  0  0  0  0  1  0  0  0  0  0  0
  180.4740  180.9940  138.9180 C   0  0  2  0  0  3  0  0  0  0  0  0
  180.2720  180.5300  140.2380 O   0  0  0  0  0  0  0  0  0  0  0  0
  180.7260  179.1870  140.3610 C   0  0  2  0  0  3  0  0  0  0  0  0
  182.8070  179.9200  138.9510 C   0  0  1  0  0  0  0  0  0  0  0  0
  181.9630  181.1520  138.5830 C   0  0  0  0  0  2  0  0  0  0  0  0
  179.7720  182.3260  138.7250 C   0  0  0  0  0  1  0  0  0  0  0  0
  180.9730  178.1440  138.1650 C   0  0  0  0  0  2  0  0  0  0  0  0
  182.2170  179.0880  140.0720 C   0  0  1  0  0  0  0  0  0  0  0  0
  182.3690  178.4700  138.6880 C   0  0  1  0  0  0  0  0  0  0  0  0
  184.1800  180.1280  139.0940 O   0  0  0  0  0  1  0  0  0  0  0  0
  1  2  1  0  0  0  0
  1  8  1  0  0  0  0
  2  6  1  0  0  0  0
  3  5  2  0  0  0  0
  5  6  1  0  0  0  0
  6  4  1  0  0  0  0
  7  4  1  0  0  0  0
  7 14  1  0  0  0  0
  8  7  2  0  0  0  0
  9 15  1  0  0  0  0
 10 16  2  0  0  0  0
 10 14  1  0  0  0  0
 11 15  2  0  0  0  0
 12 10  1  0  0  0  0
 13 16  1  0  0  0  0
 14  9  2  0  0  0  0
 16 11  1  0  0  0  0
 17 12  1  0  0  0  0
 17 13  2  0  0  0  0
 19 21  1  6  0  0  0
 19 22  1  0  0  0  0
 19 18  1  0  0  0  0
 20  9  1  6  0  0  0
 20 19  1  0  0  0  0
 20 18  1  0  0  0  0
 22 31  1  0  0  0  0
 23 29  1  0  0  0  0
 25 29  1  0  0  0  0
 26 30  1  0  0  0  0
 26 23  1  0  0  0  0
 28 23  2  0  0  0  0
 29 24  1  1  0  0  0
 30 25  1  0  0  0  0
 31 27  2  0  0  0  0
 31 30  1  0  0  0  0
 32 33  1  1  0  0  0
 32  5  1  0  0  0  0
 32 34  1  0  0  0  0
 35 34  1  0  0  0  0
 35 36  1  0  0  0  0
 36 37  1  0  0  0  0
 38 37  1  0  0  0  0
 41 46  1  1  0  0  0
 41 42  1  0  0  0  0
 42 43  1  0  0  0  0
 43 39  1  6  0  0  0
 44 50  1  1  0  0  0
 44 48  1  0  0  0  0
 45 41  1  0  0  0  0
 45 44  1  0  0  0  0
 47 49  1  0  0  0  0
 47 39  1  0  0  0  0
 48 43  1  0  0  0  0
 48 40  1  1  0  0  0
 49 38  1  6  0  0  0
 49 44  1  0  0  0  0
 49 48  1  0  0  0  0
M  END
>  <MODEL>
6

>  <REMARK>
 VINA RESULT:      -8.3      2.469      6.997
  Name = 
  11 active torsions:
  status: ('A' for Active; 'I' for Inactive)
    1  A    between atoms: C_1  and  C_25
    2  A    between atoms: C_3  and  C_43
    3  A    between atoms: C_3  and  C_44
    4  A    between atoms: C_9  and  C_33
    5  A    between atoms: C_12  and  C_28
    6  A    between atoms: C_12  and  C_34
    7  A    between atoms: C_24  and  C_49
    8  A    between atoms: C_28  and  C_43
    9  A    between atoms: C_33  and  C_48
   10  A    between atoms: C_34  and  O_36
   11  A    between atoms: O_36  and  C_40
                            x       y       z     vdW  Elec       q    Type
                         _______ _______ _______ _____ _____    ______ ____

>  <TORSDO>
F 11

$$$$
=
 OpenBabel11032421103D

 50 57  0  0  1  0  0  0  0  0999 V2000
  188.3230  173.0260  136.5580 C   0  0  0  0  0  2  0  0  0  0  0  0
  187.7490  173.8450  135.4030 C   0  0  0  0  0  2  0  0  0  0  0  0
  186.9030  175.7630  137.7160 O   0  0  0  0  0  0  0  0  0  0  0  0
  189.3090  175.7020  135.8150 C   0  0  0  0  0  2  0  0  0  0  0  0
  186.9310  175.9250  136.4660 C   0  0  0  0  0  0  0  0  0  0  0  0
  187.9270  175.2620  135.6910 N   0  0  0  0  0  0  0  0  0  0  0  0
  190.0550  174.8510  136.8190 C   0  0  0  0  0  0  0  0  0  0  0  0
  189.6020  173.6160  137.1070 C   0  0  0  0  0  3  0  0  0  0  0  0
  191.3200  176.2800  138.5660 C   0  0  0  0  0  0  0  0  0  0  0  0
  192.5500  175.0300  136.9160 C   0  0  0  0  0  0  0  0  0  0  0  0
  193.7480  176.3810  138.4600 N   0  0  0  0  0  0  0  0  0  0  0  0
  192.8180  174.2460  135.8990 O   0  0  0  0  0  0  0  0  0  0  0  0
  194.7630  175.0160  136.6890 C   0  0  0  0  0  3  0  0  0  0  0  0
  191.3000  175.3810  137.4510 C   0  0  0  0  0  0  0  0  0  0  0  0
  192.5730  176.7700  139.0300 C   0  0  0  0  0  3  0  0  0  0  0  0
  193.7130  175.5140  137.4220 C   0  0  0  0  0  0  0  0  0  0  0  0
  194.1290  174.2110  135.7350 C   0  0  0  0  0  3  0  0  0  0  0  0
  189.8350  178.2380  139.2930 C   0  0  0  0  0  2  0  0  0  0  0  0
  190.1640  177.4530  140.5530 C   0  0  1  0  0  0  0  0  0  0  0  0
  190.0190  176.7130  139.2320 C   0  0  2  0  0  3  0  0  0  0  0  0
  191.4730  177.5960  141.0350 O   0  0  0  0  0  1  0  0  0  0  0  0
  189.0270  177.2400  141.5490 C   0  0  0  0  0  2  0  0  0  0  0  0
  187.9580  177.4830  145.8880 C   0  0  0  0  0  0  0  0  0  0  0  0
  189.8910  177.1010  147.3740 C   0  0  0  0  0  1  0  0  0  0  0  0
  190.1260  177.4600  144.9300 C   0  0  0  0  0  2  0  0  0  0  0  0
  187.7930  176.8780  144.5490 C   0  0  0  0  0  2  0  0  0  0  0  0
  190.1640  175.3890  142.5380 O   0  0  0  0  0  0  0  0  0  0  0  0
  187.0500  177.5870  146.7000 O   0  0  0  0  0  0  0  0  0  0  0  0
  189.3660  177.8790  146.1830 C   0  0  1  0  0  3  0  0  0  0  0  0
  189.1500  176.8420  144.0440 N   0  0  0  0  0  0  0  0  0  0  0  0
  189.4740  176.4270  142.7210 C   0  0  0  0  0  0  0  0  0  0  0  0
  185.8780  176.7420  135.7810 C   0  0  1  0  0  3  0  0  0  0  0  0
  186.4400  177.3570  134.5940 N   0  0  0  0  0  1  0  0  0  0  0  0
  184.6810  175.8910  135.3820 C   0  0  0  0  0  2  0  0  0  0  0  0
  183.4980  176.1310  136.3110 C   0  0  0  0  0  2  0  0  0  0  0  0
  183.5490  175.1840  137.4970 C   0  0  0  0  0  2  0  0  0  0  0  0
  182.9780  175.8770  138.7260 C   0  0  0  0  0  2  0  0  0  0  0  0
  183.5580  177.1450  138.9130 O   0  0  0  0  0  0  0  0  0  0  0  0
  180.2500  178.0010  139.9220 C   0  0  0  0  0  2  0  0  0  0  0  0
  183.3750  178.4370  141.3810 O   0  0  0  0  0  1  0  0  0  0  0  0
  180.7040  180.6880  139.1560 C   0  0  2  0  0  3  0  0  0  0  0  0
  180.5670  180.3700  140.5260 O   0  0  0  0  0  0  0  0  0  0  0  0
  181.0020  179.0360  140.7660 C   0  0  2  0  0  3  0  0  0  0  0  0
  183.0140  179.5660  139.1770 C   0  0  1  0  0  0  0  0  0  0  0  0
  182.1740  180.7720  138.7260 C   0  0  0  0  0  2  0  0  0  0  0  0
  180.0170  182.0080  138.8610 C   0  0  0  0  0  1  0  0  0  0  0  0
  181.1060  177.7630  138.6830 C   0  0  0  0  0  2  0  0  0  0  0  0
  182.4730  178.8700  140.4100 C   0  0  1  0  0  0  0  0  0  0  0  0
  182.5350  178.1070  139.0930 C   0  0  1  0  0  0  0  0  0  0  0  0
  184.3970  179.7530  139.2230 O   0  0  0  0  0  1  0  0  0  0  0  0
  1  8  1  0  0  0  0
  2  6  1  0  0  0  0
  2  1  1  0  0  0  0
  4  7  1  0  0  0  0
  5  3  2  0  0  0  0
  6  4  1  0  0  0  0
  6  5  1  0  0  0  0
  7  8  2  0  0  0  0
  7 14  1  0  0  0  0
  9 15  1  0  0  0  0
 10 16  2  0  0  0  0
 10 14  1  0  0  0  0
 11 15  2  0  0  0  0
 12 10  1  0  0  0  0
 13 16  1  0  0  0  0
 14  9  2  0  0  0  0
 16 11  1  0  0  0  0
 17 12  1  0  0  0  0
 17 13  2  0  0  0  0
 18 19  1  0  0  0  0
 19 21  1  1  0  0  0
 19 22  1  0  0  0  0
 20  9  1  6  0  0  0
 20 18  1  0  0  0  0
 20 19  1  0  0  0  0
 22 31  1  0  0  0  0
 23 29  1  0  0  0  0
 23 28  2  0  0  0  0
 25 29  1  0  0  0  0
 26 23  1  0  0  0  0
 27 31  2  0  0  0  0
 29 24  1  1  0  0  0
 30 26  1  0  0  0  0
 30 25  1  0  0  0  0
 31 30  1  0  0  0  0
 32 33  1  6  0  0  0
 32  5  1  0  0  0  0
 34 32  1  0  0  0  0
 34 35  1  0  0  0  0
 35 36  1  0  0  0  0
 36 37  1  0  0  0  0
 37 38  1  0  0  0  0
 41 46  1  1  0  0  0
 41 42  1  0  0  0  0
 42 43  1  0  0  0  0
 43 39  1  6  0  0  0
 44 50  1  6  0  0  0
 44 48  1  0  0  0  0
 45 41  1  0  0  0  0
 45 44  1  0  0  0  0
 47 49  1  0  0  0  0
 47 39  1  0  0  0  0
 48 43  1  0  0  0  0
 48 40  1  1  0  0  0
 49 38  1  6  0  0  0
 49 44  1  0  0  0  0
 49 48  1  0  0  0  0
M  END
>  <MODEL>
7

>  <REMARK>
 VINA RESULT:      -8.1      3.001      7.949
  Name = 
  11 active torsions:
  status: ('A' for Active; 'I' for Inactive)
    1  A    between atoms: C_1  and  C_25
    2  A    between atoms: C_3  and  C_43
    3  A    between atoms: C_3  and  C_44
    4  A    between atoms: C_9  and  C_33
    5  A    between atoms: C_12  and  C_28
    6  A    between atoms: C_12  and  C_34
    7  A    between atoms: C_24  and  C_49
    8  A    between atoms: C_28  and  C_43
    9  A    between atoms: C_33  and  C_48
   10  A    between atoms: C_34  and  O_36
   11  A    between atoms: O_36  and  C_40
                            x       y       z     vdW  Elec       q    Type
                         _______ _______ _______ _____ _____    ______ ____

>  <TORSDO>
F 11

$$$$
=
 OpenBabel11032421103D

 50 57  0  0  1  0  0  0  0  0999 V2000
  191.3510  175.7200  143.9960 C   0  0  0  0  0  2  0  0  0  0  0  0
  191.9740  176.7920  143.1030 C   0  0  0  0  0  2  0  0  0  0  0  0
  189.6200  176.0060  141.2090 O   0  0  0  0  0  0  0  0  0  0  0  0
  189.9910  178.2350  143.2840 C   0  0  0  0  0  2  0  0  0  0  0  0
  190.4160  176.9850  141.1900 C   0  0  0  0  0  0  0  0  0  0  0  0
  190.9120  177.5140  142.4170 N   0  0  0  0  0  0  0  0  0  0  0  0
  189.4200  177.3170  144.3420 C   0  0  0  0  0  0  0  0  0  0  0  0
  190.0870  176.1960  144.6750 C   0  0  0  0  0  3  0  0  0  0  0  0
  186.8910  177.8630  144.3510 C   0  0  0  0  0  0  0  0  0  0  0  0
  188.1420  177.9220  146.4080 C   0  0  0  0  0  0  0  0  0  0  0  0
  185.8370  178.4940  146.4500 N   0  0  0  0  0  0  0  0  0  0  0  0
  189.1410  177.8490  147.2550 O   0  0  0  0  0  0  0  0  0  0  0  0
  187.3270  178.4770  148.4020 C   0  0  0  0  0  3  0  0  0  0  0  0
  188.1440  177.6850  145.0240 C   0  0  0  0  0  0  0  0  0  0  0  0
  185.7610  178.2860  145.1060 C   0  0  0  0  0  3  0  0  0  0  0  0
  187.0220  178.3010  147.0740 C   0  0  0  0  0  0  0  0  0  0  0  0
  188.6910  178.1700  148.4560 C   0  0  0  0  0  3  0  0  0  0  0  0
  187.3060  178.7780  141.9930 C   0  0  0  0  0  2  0  0  0  0  0  0
  185.8120  178.5190  142.1000 C   0  0  1  0  0  0  0  0  0  0  0  0
  186.7780  177.6160  142.8510 C   0  0  2  0  0  3  0  0  0  0  0  0
  185.0900  179.4310  142.8840 O   0  0  0  0  0  1  0  0  0  0  0  0
  185.1330  177.8850  140.8890 C   0  0  0  0  0  2  0  0  0  0  0  0
  180.7130  178.3730  140.3950 C   0  0  0  0  0  0  0  0  0  0  0  0
  180.0700  179.0180  138.1020 C   0  0  0  0  0  1  0  0  0  0  0  0
  182.3550  178.2510  138.6910 C   0  0  0  0  0  2  0  0  0  0  0  0
  181.9870  178.7410  141.0470 C   0  0  0  0  0  2  0  0  0  0  0  0
  184.9030  179.8860  139.6090 O   0  0  0  0  0  0  0  0  0  0  0  0
  179.6300  178.4000  140.9630 O   0  0  0  0  0  0  0  0  0  0  0  0
  180.8670  178.0450  138.9480 C   0  0  1  0  0  3  0  0  0  0  0  0
  182.9320  178.7020  139.9490 N   0  0  0  0  0  0  0  0  0  0  0  0
  184.3320  178.8880  140.1240 C   0  0  0  0  0  0  0  0  0  0  0  0
  190.9080  177.5390  139.8880 C   0  0  1  0  0  3  0  0  0  0  0  0
  192.3120  177.8810  140.0090 N   0  0  0  0  0  1  0  0  0  0  0  0
  190.7340  176.5410  138.7520 C   0  0  0  0  0  2  0  0  0  0  0  0
  192.0490  175.8520  138.4160 C   0  0  0  0  0  2  0  0  0  0  0  0
  192.3600  175.9870  136.9350 C   0  0  0  0  0  2  0  0  0  0  0  0
  193.8680  175.9600  136.7280 C   0  0  0  0  0  2  0  0  0  0  0  0
  194.5190  175.3160  137.7960 O   0  0  0  0  0  0  0  0  0  0  0  0
  197.6330  175.2000  136.0680 C   0  0  0  0  0  2  0  0  0  0  0  0
  196.7650  175.0410  139.4320 O   0  0  0  0  0  1  0  0  0  0  0  0
  197.7170  172.3900  136.3950 C   0  0  2  0  0  3  0  0  0  0  0  0
  198.6400  173.1990  137.0970 O   0  0  0  0  0  0  0  0  0  0  0  0
  198.0750  174.4810  137.3480 C   0  0  2  0  0  3  0  0  0  0  0  0
  195.8650  173.2220  137.9670 C   0  0  1  0  0  0  0  0  0  0  0  0
  196.5030  172.0180  137.2540 C   0  0  0  0  0  2  0  0  0  0  0  0
  198.4020  171.1230  135.9160 C   0  0  0  0  0  1  0  0  0  0  0  0
  196.1510  174.8880  135.8980 C   0  0  0  0  0  2  0  0  0  0  0  0
  196.8260  174.3680  138.2110 C   0  0  1  0  0  0  0  0  0  0  0  0
  195.6260  174.5870  137.2990 C   0  0  1  0  0  0  0  0  0  0  0  0
  195.0670  172.9370  139.0770 O   0  0  0  0  0  1  0  0  0  0  0  0
  1  8  1  0  0  0  0
  2  1  1  0  0  0  0
  4  7  1  0  0  0  0
  5  3  2  0  0  0  0
  5  6  1  0  0  0  0
  6  2  1  0  0  0  0
  6  4  1  0  0  0  0
  7  8  2  0  0  0  0
  7 14  1  0  0  0  0
  9 14  2  0  0  0  0
  9 15  1  0  0  0  0
 10 16  2  0  0  0  0
 10 12  1  0  0  0  0
 11 16  1  0  0  0  0
 12 17  1  0  0  0  0
 13 17  2  0  0  0  0
 14 10  1  0  0  0  0
 15 11  2  0  0  0  0
 16 13  1  0  0  0  0
 18 19  1  0  0  0  0
 18 20  1  0  0  0  0
 19 20  1  0  0  0  0
 19 21  1  1  0  0  0
 20  9  1  1  0  0  0
 22 19  1  0  0  0  0
 23 28  2  0  0  0  0
 23 26  1  0  0  0  0
 25 29  1  0  0  0  0
 25 30  1  0  0  0  0
 27 31  2  0  0  0  0
 29 24  1  6  0  0  0
 29 23  1  0  0  0  0
 30 31  1  0  0  0  0
 30 26  1  0  0  0  0
 31 22  1  0  0  0  0
 32 33  1  1  0  0  0
 32  5  1  0  0  0  0
 34 32  1  0  0  0  0
 35 34  1  0  0  0  0
 36 35  1  0  0  0  0
 37 36  1  0  0  0  0
 37 38  1  0  0  0  0
 41 46  1  1  0  0  0
 41 42  1  0  0  0  0
 41 45  1  0  0  0  0
 42 43  1  0  0  0  0
 43 39  1  6  0  0  0
 43 48  1  0  0  0  0
 44 48  1  0  0  0  0
 44 50  1  1  0  0  0
 45 44  1  0  0  0  0
 47 39  1  0  0  0  0
 47 49  1  0  0  0  0
 48 40  1  1  0  0  0
 49 38  1  1  0  0  0
 49 44  1  0  0  0  0
 49 48  1  0  0  0  0
M  END
>  <MODEL>
8

>  <REMARK>
 VINA RESULT:      -8.1      4.470      7.051
  Name = 
  11 active torsions:
  status: ('A' for Active; 'I' for Inactive)
    1  A    between atoms: C_1  and  C_25
    2  A    between atoms: C_3  and  C_43
    3  A    between atoms: C_3  and  C_44
    4  A    between atoms: C_9  and  C_33
    5  A    between atoms: C_12  and  C_28
    6  A    between atoms: C_12  and  C_34
    7  A    between atoms: C_24  and  C_49
    8  A    between atoms: C_28  and  C_43
    9  A    between atoms: C_33  and  C_48
   10  A    between atoms: C_34  and  O_36
   11  A    between atoms: O_36  and  C_40
                            x       y       z     vdW  Elec       q    Type
                         _______ _______ _______ _____ _____    ______ ____

>  <TORSDO>
F 11

$$$$
=
 OpenBabel11032421103D

 50 57  0  0  1  0  0  0  0  0999 V2000
  191.5700  177.5950  141.1880 C   0  0  0  0  0  2  0  0  0  0  0  0
  190.7540  176.6570  142.0770 C   0  0  0  0  0  2  0  0  0  0  0  0
  188.6430  178.9480  141.8600 O   0  0  0  0  0  0  0  0  0  0  0  0
  189.0540  176.3210  140.3310 C   0  0  0  0  0  2  0  0  0  0  0  0
  188.5480  177.7610  142.2790 C   0  0  0  0  0  0  0  0  0  0  0  0
  189.3510  176.7400  141.6930 N   0  0  0  0  0  0  0  0  0  0  0  0
  189.9280  177.0590  139.3400 C   0  0  0  0  0  0  0  0  0  0  0  0
  191.0920  177.5940  139.7540 C   0  0  0  0  0  3  0  0  0  0  0  0
  190.3570  176.8790  136.7950 C   0  0  0  0  0  0  0  0  0  0  0  0
  188.1980  177.5740  137.6050 C   0  0  0  0  0  0  0  0  0  0  0  0
  188.5690  177.4850  135.2610 N   0  0  0  0  0  0  0  0  0  0  0  0
  187.2260  177.9020  138.4230 O   0  0  0  0  0  0  0  0  0  0  0  0
  186.4670  178.1590  136.3360 C   0  0  0  0  0  3  0  0  0  0  0  0
  189.5020  177.1530  137.9120 C   0  0  0  0  0  0  0  0  0  0  0  0
  189.8500  177.0750  135.4790 C   0  0  0  0  0  3  0  0  0  0  0  0
  187.7680  177.7180  136.3260 C   0  0  0  0  0  0  0  0  0  0  0  0
  186.1760  178.2530  137.7020 C   0  0  0  0  0  3  0  0  0  0  0  0
  192.3780  175.6510  135.8100 C   0  0  0  0  0  2  0  0  0  0  0  0
  191.9800  174.8910  137.0650 C   0  0  1  0  0  0  0  0  0  0  0  0
  191.7860  176.3990  137.0160 C   0  0  2  0  0  3  0  0  0  0  0  0
  190.8140  174.1190  136.9660 O   0  0  0  0  0  1  0  0  0  0  0  0
  193.1130  174.4080  137.9680 C   0  0  0  0  0  2  0  0  0  0  0  0
  197.5580  174.8570  137.7140 C   0  0  0  0  0  0  0  0  0  0  0  0
  198.4260  174.5180  135.4290 C   0  0  0  0  0  1  0  0  0  0  0  0
  196.0070  174.7640  135.9240 C   0  0  0  0  0  2  0  0  0  0  0  0
  196.3560  174.1950  138.2650 C   0  0  0  0  0  2  0  0  0  0  0  0
  193.8080  172.5890  136.5890 O   0  0  0  0  0  0  0  0  0  0  0  0
  198.5950  175.0100  138.3430 O   0  0  0  0  0  0  0  0  0  0  0  0
  197.4070  175.2490  136.2820 C   0  0  1  0  0  3  0  0  0  0  0  0
  195.4760  174.1200  137.1160 N   0  0  0  0  0  0  0  0  0  0  0  0
  194.1370  173.6430  137.1950 C   0  0  0  0  0  0  0  0  0  0  0  0
  187.6600  177.4340  143.4410 C   0  0  1  0  0  3  0  0  0  0  0  0
  188.3000  177.8580  144.6710 N   0  0  0  0  0  1  0  0  0  0  0  0
  186.3060  178.1190  143.3220 C   0  0  0  0  0  2  0  0  0  0  0  0
  185.6410  178.2670  144.6830 C   0  0  0  0  0  2  0  0  0  0  0  0
  184.3330  179.0310  144.5580 C   0  0  0  0  0  2  0  0  0  0  0  0
  183.6290  178.6260  143.2710 C   0  0  0  0  0  2  0  0  0  0  0  0
  182.2580  178.9360  143.3190 O   0  0  0  0  0  0  0  0  0  0  0  0
  181.7570  177.1600  140.2710 C   0  0  0  0  0  2  0  0  0  0  0  0
  179.7200  177.8130  143.0120 O   0  0  0  0  0  1  0  0  0  0  0  0
  180.3220  179.3590  139.2170 C   0  0  2  0  0  3  0  0  0  0  0  0
  179.6350  178.1600  139.5150 O   0  0  0  0  0  0  0  0  0  0  0  0
  180.2880  177.4720  140.5760 C   0  0  2  0  0  3  0  0  0  0  0  0
  180.5360  179.8060  141.7370 C   0  0  1  0  0  0  0  0  0  0  0  0
  180.2110  180.3860  140.3510 C   0  0  0  0  0  2  0  0  0  0  0  0
  179.7750  179.9620  137.9360 C   0  0  0  0  0  1  0  0  0  0  0  0
  182.5680  178.2980  140.8810 C   0  0  0  0  0  2  0  0  0  0  0  0
  180.3000  178.3130  141.8460 C   0  0  1  0  0  0  0  0  0  0  0  0
  181.7130  178.8550  142.0150 C   0  0  1  0  0  0  0  0  0  0  0  0
  180.0490  180.5140  142.8370 O   0  0  0  0  0  1  0  0  0  0  0  0
  1  2  1  0  0  0  0
  3  5  2  0  0  0  0
  4  6  1  0  0  0  0
  5 32  1  0  0  0  0
  6  2  1  0  0  0  0
  6  5  1  0  0  0  0
  7  8  2  0  0  0  0
  7  4  1  0  0  0  0
  8  1  1  0  0  0  0
  9 14  1  0  0  0  0
 10 14  2  0  0  0  0
 10 12  1  0  0  0  0
 11 15  1  0  0  0  0
 11 16  2  0  0  0  0
 13 17  2  0  0  0  0
 14  7  1  0  0  0  0
 15  9  2  0  0  0  0
 16 13  1  0  0  0  0
 16 10  1  0  0  0  0
 17 12  1  0  0  0  0
 18 20  1  0  0  0  0
 18 19  1  0  0  0  0
 19 21  1  6  0  0  0
 19 22  1  0  0  0  0
 20  9  1  6  0  0  0
 20 19  1  0  0  0  0
 23 26  1  0  0  0  0
 23 28  2  0  0  0  0
 25 29  1  0  0  0  0
 25 30  1  0  0  0  0
 27 31  2  0  0  0  0
 29 24  1  6  0  0  0
 29 23  1  0  0  0  0
 30 31  1  0  0  0  0
 30 26  1  0  0  0  0
 31 22  1  0  0  0  0
 32 33  1  1  0  0  0
 34 32  1  0  0  0  0
 34 35  1  0  0  0  0
 36 35  1  0  0  0  0
 37 38  1  0  0  0  0
 37 36  1  0  0  0  0
 39 47  1  0  0  0  0
 41 46  1  6  0  0  0
 41 42  1  0  0  0  0
 41 45  1  0  0  0  0
 42 43  1  0  0  0  0
 43 39  1  6  0  0  0
 43 48  1  0  0  0  0
 44 48  1  0  0  0  0
 44 49  1  0  0  0  0
 44 50  1  1  0  0  0
 45 44  1  0  0  0  0
 47 49  1  0  0  0  0
 48 49  1  0  0  0  0
 48 40  1  1  0  0  0
 49 38  1  1  0  0  0
M  END
>  <MODEL>
9

>  <REMARK>
 VINA RESULT:      -7.7      3.949      9.871
  Name = 
  11 active torsions:
  status: ('A' for Active; 'I' for Inactive)
    1  A    between atoms: C_1  and  C_25
    2  A    between atoms: C_3  and  C_43
    3  A    between atoms: C_3  and  C_44
    4  A    between atoms: C_9  and  C_33
    5  A    between atoms: C_12  and  C_28
    6  A    between atoms: C_12  and  C_34
    7  A    between atoms: C_24  and  C_49
    8  A    between atoms: C_28  and  C_43
    9  A    between atoms: C_33  and  C_48
   10  A    between atoms: C_34  and  O_36
   11  A    between atoms: O_36  and  C_40
                            x       y       z     vdW  Elec       q    Type
                         _______ _______ _______ _____ _____    ______ ____

>  <TORSDO>
F 11

$$$$
