=
 OpenBabel11032419173D

 30 32  0  0  1  0  0  0  0  0999 V2000
  189.0190  177.4300  144.7670 C   0  0  0  0  0  0  0  0  0  0  0  0
  187.7920  177.6670  144.1290 C   0  0  0  0  0  3  0  0  0  0  0  0
  189.1010  177.5170  146.1590 C   0  0  0  0  0  3  0  0  0  0  0  0
  187.9700  177.8440  146.9100 C   0  0  0  0  0  0  0  0  0  0  0  0
  186.7510  178.0860  146.2710 C   0  0  0  0  0  3  0  0  0  0  0  0
  186.6470  178.0000  144.8730 C   0  0  0  0  0  0  0  0  0  0  0  0
  185.2380  178.1150  142.8040 C   0  0  0  0  0  3  0  0  0  0  0  0
  184.0230  178.3600  142.1460 C   0  0  0  0  0  0  0  0  0  0  0  0
  183.0180  178.9030  144.2890 C   0  0  0  0  0  3  0  0  0  0  0  0
  184.2330  178.6610  144.9280 C   0  0  0  0  0  3  0  0  0  0  0  0
  182.8920  178.7560  142.9040 C   0  0  0  0  0  0  0  0  0  0  0  0
  185.3570  178.2610  144.1940 C   0  0  0  0  0  0  0  0  0  0  0  0
  180.4090  178.6150  142.8540 C   0  0  0  0  0  2  0  0  0  0  0  0
  181.5560  179.0330  142.3360 C   0  0  0  0  0  3  0  0  0  0  0  0
  183.9400  178.1990  140.7260 N   0  0  0  0  0  2  0  0  0  0  0  0
  184.8400  178.8630  139.7950 C   0  0  0  0  0  1  0  0  0  0  0  0
  190.2410  177.0710  143.9850 C   0  0  1  0  0  3  0  0  0  0  0  0
  191.2740  176.7080  144.8510 O   0  0  0  0  0  1  0  0  0  0  0  0
  189.9560  175.9530  143.0230 C   0  0  0  0  0  3  0  0  0  0  0  0
  190.2140  176.0230  141.7620 N   0  0  0  0  0  0  0  0  0  0  0  0
  190.7860  177.1940  141.1440 C   0  0  0  0  0  2  0  0  0  0  0  0
  189.1200  177.7780  137.2700 N   0  0  0  0  0  0  0  0  0  0  0  0
  189.0020  178.1250  139.6310 C   0  0  0  0  0  0  0  0  0  0  0  0
  188.4810  178.3060  138.3490 C   0  0  0  0  0  3  0  0  0  0  0  0
  190.2740  177.0690  137.4040 C   0  0  0  0  0  3  0  0  0  0  0  0
  188.3430  178.6700  140.7270 O   0  0  0  0  0  1  0  0  0  0  0  0
  190.1870  177.3940  139.7920 C   0  0  0  0  0  0  0  0  0  0  0  0
  190.8300  176.8660  138.6680 C   0  0  0  0  0  3  0  0  0  0  0  0
  188.1290  177.9970  149.4940 N   0  0  0  0  0  0  0  0  0  0  0  0
  188.0550  177.9280  148.3410 C   0  0  0  0  0  0  0  0  0  0  0  0
  1  3  1  0  0  0  0
  2  1  2  0  0  0  0
  2  6  1  0  0  0  0
  3  4  2  0  0  0  0
  4 30  1  0  0  0  0
  5  4  1  0  0  0  0
  6  5  2  0  0  0  0
  7 12  1  0  0  0  0
  8  7  2  0  0  0  0
  8 11  1  0  0  0  0
  9 10  1  0  0  0  0
 11  9  2  0  0  0  0
 12  6  1  0  0  0  0
 12 10  2  0  0  0  0
 14 13  2  0  0  0  0
 14 11  1  0  0  0  0
 15  8  1  0  0  0  0
 16 15  1  0  0  0  0
 17  1  1  0  0  0  0
 17 18  1  1  0  0  0
 19 17  1  0  0  0  0
 20 19  2  0  0  0  0
 21 20  1  0  0  0  0
 22 25  2  0  0  0  0
 22 24  1  0  0  0  0
 23 27  1  0  0  0  0
 23 26  1  0  0  0  0
 24 23  2  0  0  0  0
 25 28  1  0  0  0  0
 27 21  1  0  0  0  0
 28 27  2  0  0  0  0
 30 29  3  0  0  0  0
M  END
>  <MODEL>
1

>  <REMARK>
 VINA RESULT:      -9.1      0.000      0.000
  Name = 
  8 active torsions:
  status: ('A' for Active; 'I' for Inactive)
    1  A    between atoms: C_1  and  N_16
    2  A    between atoms: C_1  and  C_25
    3  A    between atoms: N_4  and  C_9
    4  A    between atoms: C_6  and  C_10
    5  A    between atoms: C_8  and  C_10
    6  A    between atoms: C_13  and  C_22
    7  A    between atoms: C_20  and  C_30
    8  A    between atoms: C_26  and  C_29
                            x       y       z     vdW  Elec       q    Type
                         _______ _______ _______ _____ _____    ______ ____

>  <TORSDO>
F 8

$$$$
=
 OpenBabel11032419173D

 30 32  0  0  1  0  0  0  0  0999 V2000
  188.9650  177.6600  144.5640 C   0  0  0  0  0  0  0  0  0  0  0  0
  187.7320  177.8670  143.9280 C   0  0  0  0  0  3  0  0  0  0  0  0
  189.0300  177.6580  145.9590 C   0  0  0  0  0  3  0  0  0  0  0  0
  187.8760  177.8690  146.7170 C   0  0  0  0  0  0  0  0  0  0  0  0
  186.6510  178.0820  146.0800 C   0  0  0  0  0  3  0  0  0  0  0  0
  186.5630  178.0840  144.6780 C   0  0  0  0  0  0  0  0  0  0  0  0
  185.1480  178.1710  142.6130 C   0  0  0  0  0  3  0  0  0  0  0  0
  183.9250  178.3880  141.9580 C   0  0  0  0  0  0  0  0  0  0  0  0
  182.9110  178.8950  144.1050 C   0  0  0  0  0  3  0  0  0  0  0  0
  184.1330  178.6820  144.7410 C   0  0  0  0  0  3  0  0  0  0  0  0
  182.7870  178.7510  142.7190 C   0  0  0  0  0  0  0  0  0  0  0  0
  185.2650  178.3140  144.0030 C   0  0  0  0  0  0  0  0  0  0  0  0
  180.4030  179.4550  142.8390 C   0  0  0  0  0  2  0  0  0  0  0  0
  181.4430  178.9960  142.1550 C   0  0  0  0  0  3  0  0  0  0  0  0
  183.8440  178.2300  140.5370 N   0  0  0  0  0  2  0  0  0  0  0  0
  184.1380  179.3030  139.5990 C   0  0  0  0  0  1  0  0  0  0  0  0
  190.2130  177.4250  143.7740 C   0  0  1  0  0  3  0  0  0  0  0  0
  191.3300  177.5180  144.6050 O   0  0  0  0  0  1  0  0  0  0  0  0
  190.1790  176.0820  143.1000 C   0  0  0  0  0  3  0  0  0  0  0  0
  190.4490  175.9120  141.8510 N   0  0  0  0  0  0  0  0  0  0  0  0
  190.7920  177.0000  140.9690 C   0  0  0  0  0  2  0  0  0  0  0  0
  187.7460  177.4370  138.0270 N   0  0  0  0  0  0  0  0  0  0  0  0
  189.7830  176.4110  138.7400 C   0  0  0  0  0  0  0  0  0  0  0  0
  188.7680  176.5700  137.7940 C   0  0  0  0  0  3  0  0  0  0  0  0
  187.6800  178.1660  139.1750 C   0  0  0  0  0  3  0  0  0  0  0  0
  190.8220  175.5200  138.4930 O   0  0  0  0  0  1  0  0  0  0  0  0
  189.7370  177.1550  139.9260 C   0  0  0  0  0  0  0  0  0  0  0  0
  188.6740  178.0360  140.1470 C   0  0  0  0  0  3  0  0  0  0  0  0
  188.0000  177.8510  149.3070 N   0  0  0  0  0  0  0  0  0  0  0  0
  187.9450  177.8610  148.1510 C   0  0  0  0  0  0  0  0  0  0  0  0
  1  3  1  0  0  0  0
  2  1  2  0  0  0  0
  2  6  1  0  0  0  0
  3  4  2  0  0  0  0
  4 30  1  0  0  0  0
  5  4  1  0  0  0  0
  6  5  2  0  0  0  0
  7 12  1  0  0  0  0
  8  7  2  0  0  0  0
  8 11  1  0  0  0  0
  9 10  1  0  0  0  0
 11  9  2  0  0  0  0
 12  6  1  0  0  0  0
 12 10  2  0  0  0  0
 14 11  1  0  0  0  0
 14 13  2  0  0  0  0
 15  8  1  0  0  0  0
 16 15  1  0  0  0  0
 17  1  1  0  0  0  0
 17 18  1  1  0  0  0
 19 17  1  0  0  0  0
 20 19  2  0  0  0  0
 21 20  1  0  0  0  0
 22 25  1  0  0  0  0
 23 27  2  0  0  0  0
 24 22  2  0  0  0  0
 24 23  1  0  0  0  0
 25 28  2  0  0  0  0
 26 23  1  0  0  0  0
 27 28  1  0  0  0  0
 27 21  1  0  0  0  0
 30 29  3  0  0  0  0
M  END
>  <MODEL>
2

>  <REMARK>
 VINA RESULT:      -9.1      1.049      1.346
  Name = 
  8 active torsions:
  status: ('A' for Active; 'I' for Inactive)
    1  A    between atoms: C_1  and  N_16
    2  A    between atoms: C_1  and  C_25
    3  A    between atoms: N_4  and  C_9
    4  A    between atoms: C_6  and  C_10
    5  A    between atoms: C_8  and  C_10
    6  A    between atoms: C_13  and  C_22
    7  A    between atoms: C_20  and  C_30
    8  A    between atoms: C_26  and  C_29
                            x       y       z     vdW  Elec       q    Type
                         _______ _______ _______ _____ _____    ______ ____

>  <TORSDO>
F 8

$$$$
=
 OpenBabel11032419173D

 30 32  0  0  1  0  0  0  0  0999 V2000
  182.9710  178.5550  141.3960 C   0  0  0  0  0  0  0  0  0  0  0  0
  184.0730  178.4000  142.2510 C   0  0  0  0  0  3  0  0  0  0  0  0
  181.7060  178.7900  141.9380 C   0  0  0  0  0  3  0  0  0  0  0  0
  181.5360  178.8620  143.3230 C   0  0  0  0  0  0  0  0  0  0  0  0
  182.6350  178.7000  144.1710 C   0  0  0  0  0  3  0  0  0  0  0  0
  183.9170  178.4670  143.6460 C   0  0  0  0  0  0  0  0  0  0  0  0
  186.2890  177.7750  144.0560 C   0  0  0  0  0  3  0  0  0  0  0  0
  187.4010  177.6000  144.8950 C   0  0  0  0  0  0  0  0  0  0  0  0
  186.0900  178.4690  146.7450 C   0  0  0  0  0  3  0  0  0  0  0  0
  184.9930  178.6320  145.9000 C   0  0  0  0  0  3  0  0  0  0  0  0
  187.2990  177.9580  146.2620 C   0  0  0  0  0  0  0  0  0  0  0  0
  185.0810  178.2900  144.5450 C   0  0  0  0  0  0  0  0  0  0  0  0
  188.3160  178.1920  148.5210 C   0  0  0  0  0  2  0  0  0  0  0  0
  188.3960  177.8350  147.2460 C   0  0  0  0  0  3  0  0  0  0  0  0
  188.6190  177.0720  144.3580 N   0  0  0  0  0  2  0  0  0  0  0  0
  188.6680  176.2270  143.1740 C   0  0  0  0  0  1  0  0  0  0  0  0
  183.1290  178.4890  139.9110 C   0  0  1  0  0  3  0  0  0  0  0  0
  181.8760  178.5100  139.2950 O   0  0  0  0  0  1  0  0  0  0  0  0
  183.9720  179.6270  139.4070 C   0  0  0  0  0  3  0  0  0  0  0  0
  185.0420  179.4580  138.7100 N   0  0  0  0  0  0  0  0  0  0  0  0
  185.5500  178.1550  138.3580 C   0  0  0  0  0  2  0  0  0  0  0  0
  189.7910  178.1600  138.7330 N   0  0  0  0  0  0  0  0  0  0  0  0
  187.8500  178.2430  137.3410 C   0  0  0  0  0  0  0  0  0  0  0  0
  189.2390  178.2480  137.4930 C   0  0  0  0  0  3  0  0  0  0  0  0
  189.0190  178.0680  139.8500 C   0  0  0  0  0  3  0  0  0  0  0  0
  187.2960  178.3350  136.0690 O   0  0  0  0  0  1  0  0  0  0  0  0
  187.0370  178.1450  138.4780 C   0  0  0  0  0  0  0  0  0  0  0  0
  187.6270  178.0620  139.7430 C   0  0  0  0  0  3  0  0  0  0  0  0
  179.1880  179.3050  144.3280 N   0  0  0  0  0  0  0  0  0  0  0  0
  180.2360  179.1090  143.8770 C   0  0  0  0  0  0  0  0  0  0  0  0
  1  3  2  0  0  0  0
  1  2  1  0  0  0  0
  2  6  2  0  0  0  0
  3  4  1  0  0  0  0
  4 30  1  0  0  0  0
  4  5  2  0  0  0  0
  6  5  1  0  0  0  0
  6 12  1  0  0  0  0
  7 12  2  0  0  0  0
  7  8  1  0  0  0  0
  8 11  2  0  0  0  0
 10  9  2  0  0  0  0
 11  9  1  0  0  0  0
 11 14  1  0  0  0  0
 12 10  1  0  0  0  0
 14 13  2  0  0  0  0
 15  8  1  0  0  0  0
 16 15  1  0  0  0  0
 17 18  1  6  0  0  0
 17  1  1  0  0  0  0
 19 17  1  0  0  0  0
 20 19  2  0  0  0  0
 21 27  1  0  0  0  0
 21 20  1  0  0  0  0
 22 25  1  0  0  0  0
 23 24  1  0  0  0  0
 23 27  2  0  0  0  0
 24 22  2  0  0  0  0
 26 23  1  0  0  0  0
 27 28  1  0  0  0  0
 28 25  2  0  0  0  0
 30 29  3  0  0  0  0
M  END
>  <MODEL>
3

>  <REMARK>
 VINA RESULT:      -8.8      2.602      6.140
  Name = 
  8 active torsions:
  status: ('A' for Active; 'I' for Inactive)
    1  A    between atoms: C_1  and  N_16
    2  A    between atoms: C_1  and  C_25
    3  A    between atoms: N_4  and  C_9
    4  A    between atoms: C_6  and  C_10
    5  A    between atoms: C_8  and  C_10
    6  A    between atoms: C_13  and  C_22
    7  A    between atoms: C_20  and  C_30
    8  A    between atoms: C_26  and  C_29
                            x       y       z     vdW  Elec       q    Type
                         _______ _______ _______ _____ _____    ______ ____

>  <TORSDO>
F 8

$$$$
=
 OpenBabel11032419173D

 30 32  0  0  1  0  0  0  0  0999 V2000
  187.5830  177.7460  145.6120 C   0  0  0  0  0  0  0  0  0  0  0  0
  187.7280  177.8420  144.2200 C   0  0  0  0  0  3  0  0  0  0  0  0
  188.6850  177.3990  146.3970 C   0  0  0  0  0  3  0  0  0  0  0  0
  189.9210  177.1410  145.7990 C   0  0  0  0  0  0  0  0  0  0  0  0
  190.0590  177.2320  144.4110 C   0  0  0  0  0  3  0  0  0  0  0  0
  188.9640  177.5830  143.6050 C   0  0  0  0  0  0  0  0  0  0  0  0
  190.2860  177.2480  141.5030 C   0  0  0  0  0  3  0  0  0  0  0  0
  190.4400  177.3300  140.1100 C   0  0  0  0  0  0  0  0  0  0  0  0
  188.2070  178.2720  139.9600 C   0  0  0  0  0  3  0  0  0  0  0  0
  188.0710  178.1890  141.3460 C   0  0  0  0  0  3  0  0  0  0  0  0
  189.3780  177.8460  139.3260 C   0  0  0  0  0  0  0  0  0  0  0  0
  189.1080  177.6740  142.1330 C   0  0  0  0  0  0  0  0  0  0  0  0
  188.9810  179.0310  137.1740 C   0  0  0  0  0  2  0  0  0  0  0  0
  189.4070  177.9740  137.8540 C   0  0  0  0  0  3  0  0  0  0  0  0
  191.6570  176.8840  139.5030 N   0  0  0  0  0  2  0  0  0  0  0  0
  192.9710  177.3590  139.9110 C   0  0  0  0  0  1  0  0  0  0  0  0
  186.2730  178.0230  146.2750 C   0  0  1  0  0  3  0  0  0  0  0  0
  186.4070  177.9250  147.6610 O   0  0  0  0  0  1  0  0  0  0  0  0
  185.7570  179.3840  145.9000 C   0  0  0  0  0  3  0  0  0  0  0  0
  184.6380  179.5710  145.2890 N   0  0  0  0  0  0  0  0  0  0  0  0
  183.7760  178.4880  144.8840 C   0  0  0  0  0  2  0  0  0  0  0  0
  183.0190  178.7950  140.7060 N   0  0  0  0  0  0  0  0  0  0  0  0
  182.1940  178.7880  142.9490 C   0  0  0  0  0  0  0  0  0  0  0  0
  181.9750  178.8910  141.5740 C   0  0  0  0  0  3  0  0  0  0  0  0
  184.2930  178.6020  141.1440 C   0  0  0  0  0  3  0  0  0  0  0  0
  181.1220  178.8890  143.8280 O   0  0  0  0  0  1  0  0  0  0  0  0
  183.4980  178.5840  143.4220 C   0  0  0  0  0  0  0  0  0  0  0  0
  184.5560  178.4950  142.5120 C   0  0  0  0  0  3  0  0  0  0  0  0
  191.9690  176.5070  147.2570 N   0  0  0  0  0  0  0  0  0  0  0  0
  191.0530  176.7900  146.6080 C   0  0  0  0  0  0  0  0  0  0  0  0
  1 17  1  0  0  0  0
  1  3  1  0  0  0  0
  2  1  2  0  0  0  0
  4  3  2  0  0  0  0
  4 30  1  0  0  0  0
  5  4  1  0  0  0  0
  6  2  1  0  0  0  0
  6  5  2  0  0  0  0
  7 12  1  0  0  0  0
  8  7  2  0  0  0  0
  9 10  1  0  0  0  0
 10 12  2  0  0  0  0
 11  9  2  0  0  0  0
 11  8  1  0  0  0  0
 12  6  1  0  0  0  0
 13 14  2  0  0  0  0
 14 11  1  0  0  0  0
 15 16  1  0  0  0  0
 15  8  1  0  0  0  0
 17 18  1  1  0  0  0
 19 17  1  0  0  0  0
 20 19  2  0  0  0  0
 21 20  1  0  0  0  0
 22 25  2  0  0  0  0
 22 24  1  0  0  0  0
 23 27  1  0  0  0  0
 23 26  1  0  0  0  0
 24 23  2  0  0  0  0
 25 28  1  0  0  0  0
 27 21  1  0  0  0  0
 28 27  2  0  0  0  0
 30 29  3  0  0  0  0
M  END
>  <MODEL>
4

>  <REMARK>
 VINA RESULT:      -8.7      2.475      6.359
  Name = 
  8 active torsions:
  status: ('A' for Active; 'I' for Inactive)
    1  A    between atoms: C_1  and  N_16
    2  A    between atoms: C_1  and  C_25
    3  A    between atoms: N_4  and  C_9
    4  A    between atoms: C_6  and  C_10
    5  A    between atoms: C_8  and  C_10
    6  A    between atoms: C_13  and  C_22
    7  A    between atoms: C_20  and  C_30
    8  A    between atoms: C_26  and  C_29
                            x       y       z     vdW  Elec       q    Type
                         _______ _______ _______ _____ _____    ______ ____

>  <TORSDO>
F 8

$$$$
=
 OpenBabel11032419173D

 30 32  0  0  1  0  0  0  0  0999 V2000
  187.3310  177.7590  145.3910 C   0  0  0  0  0  0  0  0  0  0  0  0
  187.5780  177.7450  144.0090 C   0  0  0  0  0  3  0  0  0  0  0  0
  188.3760  177.4980  146.2800 C   0  0  0  0  0  3  0  0  0  0  0  0
  189.6560  177.2170  145.7980 C   0  0  0  0  0  0  0  0  0  0  0  0
  189.8960  177.1960  144.4210 C   0  0  0  0  0  3  0  0  0  0  0  0
  188.8600  177.4600  143.5100 C   0  0  0  0  0  0  0  0  0  0  0  0
  188.2160  178.0390  141.1590 C   0  0  0  0  0  3  0  0  0  0  0  0
  188.4400  178.0220  139.7740 C   0  0  0  0  0  0  0  0  0  0  0  0
  190.4890  176.7790  140.1620 C   0  0  0  0  0  3  0  0  0  0  0  0
  190.2510  176.8000  141.5360 C   0  0  0  0  0  3  0  0  0  0  0  0
  189.6000  177.3840  139.2680 C   0  0  0  0  0  0  0  0  0  0  0  0
  189.1120  177.4340  142.0510 C   0  0  0  0  0  0  0  0  0  0  0  0
  189.6500  176.2980  137.0300 C   0  0  0  0  0  2  0  0  0  0  0  0
  189.9580  177.3050  137.8370 C   0  0  0  0  0  3  0  0  0  0  0  0
  187.5010  178.6520  138.8950 N   0  0  0  0  0  2  0  0  0  0  0  0
  186.4470  177.9270  138.2030 C   0  0  0  0  0  1  0  0  0  0  0  0
  185.9710  178.0650  145.9310 C   0  0  1  0  0  3  0  0  0  0  0  0
  185.9660  177.9300  147.3200 O   0  0  0  0  0  1  0  0  0  0  0  0
  185.5370  179.4510  145.5450 C   0  0  0  0  0  3  0  0  0  0  0  0
  184.3990  179.7080  144.9970 N   0  0  0  0  0  0  0  0  0  0  0  0
  183.4330  178.6840  144.6820 C   0  0  0  0  0  2  0  0  0  0  0  0
  182.7930  178.6210  140.4740 N   0  0  0  0  0  0  0  0  0  0  0  0
  181.9210  178.9000  142.6810 C   0  0  0  0  0  0  0  0  0  0  0  0
  181.7410  178.8790  141.2970 C   0  0  0  0  0  3  0  0  0  0  0  0
  184.0390  178.3820  140.9660 C   0  0  0  0  0  3  0  0  0  0  0  0
  180.8400  179.1670  143.5140 O   0  0  0  0  0  1  0  0  0  0  0  0
  183.1960  178.6520  143.2100 C   0  0  0  0  0  0  0  0  0  0  0  0
  184.2630  178.3950  142.3450 C   0  0  0  0  0  3  0  0  0  0  0  0
  191.5960  176.7380  147.4500 N   0  0  0  0  0  0  0  0  0  0  0  0
  190.7290  176.9540  146.7140 C   0  0  0  0  0  0  0  0  0  0  0  0
  1 17  1  0  0  0  0
  1  3  1  0  0  0  0
  2  1  2  0  0  0  0
  4  3  2  0  0  0  0
  4 30  1  0  0  0  0
  5  4  1  0  0  0  0
  6  2  1  0  0  0  0
  6  5  2  0  0  0  0
  7 12  1  0  0  0  0
  8  7  2  0  0  0  0
  9 10  1  0  0  0  0
 10 12  2  0  0  0  0
 11  8  1  0  0  0  0
 11  9  2  0  0  0  0
 12  6  1  0  0  0  0
 13 14  2  0  0  0  0
 14 11  1  0  0  0  0
 15  8  1  0  0  0  0
 16 15  1  0  0  0  0
 17 18  1  1  0  0  0
 19 17  1  0  0  0  0
 20 19  2  0  0  0  0
 21 20  1  0  0  0  0
 22 25  2  0  0  0  0
 22 24  1  0  0  0  0
 23 27  1  0  0  0  0
 23 26  1  0  0  0  0
 24 23  2  0  0  0  0
 25 28  1  0  0  0  0
 27 21  1  0  0  0  0
 28 27  2  0  0  0  0
 30 29  3  0  0  0  0
M  END
>  <MODEL>
5

>  <REMARK>
 VINA RESULT:      -8.5      2.413      6.249
  Name = 
  8 active torsions:
  status: ('A' for Active; 'I' for Inactive)
    1  A    between atoms: C_1  and  N_16
    2  A    between atoms: C_1  and  C_25
    3  A    between atoms: N_4  and  C_9
    4  A    between atoms: C_6  and  C_10
    5  A    between atoms: C_8  and  C_10
    6  A    between atoms: C_13  and  C_22
    7  A    between atoms: C_20  and  C_30
    8  A    between atoms: C_26  and  C_29
                            x       y       z     vdW  Elec       q    Type
                         _______ _______ _______ _____ _____    ______ ____

>  <TORSDO>
F 8

$$$$
=
 OpenBabel11032419173D

 30 32  0  0  1  0  0  0  0  0999 V2000
  188.8080  177.2800  143.4130 C   0  0  0  0  0  0  0  0  0  0  0  0
  187.4690  177.6150  143.1580 C   0  0  0  0  0  3  0  0  0  0  0  0
  189.2740  177.2580  144.7290 C   0  0  0  0  0  3  0  0  0  0  0  0
  188.4160  177.5740  145.7850 C   0  0  0  0  0  0  0  0  0  0  0  0
  187.0850  177.9130  145.5260 C   0  0  0  0  0  3  0  0  0  0  0  0
  186.5960  177.9380  144.2100 C   0  0  0  0  0  0  0  0  0  0  0  0
  184.6860  178.2860  142.6250 C   0  0  0  0  0  3  0  0  0  0  0  0
  183.3540  178.6300  142.3480 C   0  0  0  0  0  0  0  0  0  0  0  0
  183.0020  179.0120  144.7200 C   0  0  0  0  0  3  0  0  0  0  0  0
  184.3290  178.6730  144.9790 C   0  0  0  0  0  3  0  0  0  0  0  0
  182.4970  178.9950  143.4160 C   0  0  0  0  0  0  0  0  0  0  0  0
  185.1860  178.3020  143.9350 C   0  0  0  0  0  0  0  0  0  0  0  0
  180.0500  178.5430  143.4430 C   0  0  0  0  0  2  0  0  0  0  0  0
  181.0750  179.3660  143.2610 C   0  0  0  0  0  3  0  0  0  0  0  0
  182.8800  178.6010  140.9970 N   0  0  0  0  0  2  0  0  0  0  0  0
  182.7790  177.3780  140.2150 C   0  0  0  0  0  1  0  0  0  0  0  0
  189.7430  176.9310  142.3000 C   0  0  1  0  0  3  0  0  0  0  0  0
  190.2040  175.6220  142.4550 O   0  0  0  0  0  1  0  0  0  0  0  0
  189.0750  177.0900  140.9640 C   0  0  0  0  0  3  0  0  0  0  0  0
  189.7250  177.1660  139.8540 N   0  0  0  0  0  0  0  0  0  0  0  0
  191.1650  177.1270  139.7860 C   0  0  0  0  0  2  0  0  0  0  0  0
  192.3530  175.8010  135.9190 N   0  0  0  0  0  0  0  0  0  0  0  0
  192.9460  176.4460  138.1420 C   0  0  0  0  0  0  0  0  0  0  0  0
  193.3070  176.0060  136.8660 C   0  0  0  0  0  3  0  0  0  0  0  0
  191.0340  176.0120  136.1790 C   0  0  0  0  0  3  0  0  0  0  0  0
  193.9280  176.6510  139.1040 O   0  0  0  0  0  1  0  0  0  0  0  0
  191.5930  176.6740  138.4300 C   0  0  0  0  0  0  0  0  0  0  0  0
  190.6300  176.4510  137.4420 C   0  0  0  0  0  3  0  0  0  0  0  0
  189.2790  177.5230  148.2290 N   0  0  0  0  0  0  0  0  0  0  0  0
  188.8960  177.5450  147.1370 C   0  0  0  0  0  0  0  0  0  0  0  0
  1  3  1  0  0  0  0
  2  1  2  0  0  0  0
  2  6  1  0  0  0  0
  3  4  2  0  0  0  0
  4 30  1  0  0  0  0
  5  4  1  0  0  0  0
  6  5  2  0  0  0  0
  7 12  1  0  0  0  0
  8  7  2  0  0  0  0
  8 11  1  0  0  0  0
  9 10  1  0  0  0  0
 11  9  2  0  0  0  0
 12  6  1  0  0  0  0
 12 10  2  0  0  0  0
 14 11  1  0  0  0  0
 14 13  2  0  0  0  0
 15  8  1  0  0  0  0
 16 15  1  0  0  0  0
 17 18  1  1  0  0  0
 17  1  1  0  0  0  0
 19 17  1  0  0  0  0
 20 19  2  0  0  0  0
 21 20  1  0  0  0  0
 22 25  2  0  0  0  0
 22 24  1  0  0  0  0
 23 27  1  0  0  0  0
 23 26  1  0  0  0  0
 24 23  2  0  0  0  0
 25 28  1  0  0  0  0
 27 21  1  0  0  0  0
 28 27  2  0  0  0  0
 30 29  3  0  0  0  0
M  END
>  <MODEL>
6

>  <REMARK>
 VINA RESULT:      -8.5      1.929      2.338
  Name = 
  8 active torsions:
  status: ('A' for Active; 'I' for Inactive)
    1  A    between atoms: C_1  and  N_16
    2  A    between atoms: C_1  and  C_25
    3  A    between atoms: N_4  and  C_9
    4  A    between atoms: C_6  and  C_10
    5  A    between atoms: C_8  and  C_10
    6  A    between atoms: C_13  and  C_22
    7  A    between atoms: C_20  and  C_30
    8  A    between atoms: C_26  and  C_29
                            x       y       z     vdW  Elec       q    Type
                         _______ _______ _______ _____ _____    ______ ____

>  <TORSDO>
F 8

$$$$
=
 OpenBabel11032419173D

 30 32  0  0  1  0  0  0  0  0999 V2000
  189.1660  177.9330  139.8530 C   0  0  0  0  0  0  0  0  0  0  0  0
  188.7950  177.8360  141.2030 C   0  0  0  0  0  3  0  0  0  0  0  0
  190.4990  177.7270  139.4880 C   0  0  0  0  0  3  0  0  0  0  0  0
  191.4570  177.4350  140.4620 C   0  0  0  0  0  0  0  0  0  0  0  0
  191.0840  177.3470  141.8060 C   0  0  0  0  0  3  0  0  0  0  0  0
  189.7480  177.5470  142.1930 C   0  0  0  0  0  0  0  0  0  0  0  0
  188.0090  177.5820  143.9960 C   0  0  0  0  0  3  0  0  0  0  0  0
  187.6190  177.5020  145.3420 C   0  0  0  0  0  0  0  0  0  0  0  0
  189.9440  177.1640  145.9530 C   0  0  0  0  0  3  0  0  0  0  0  0
  190.3170  177.2510  144.6120 C   0  0  0  0  0  3  0  0  0  0  0  0
  188.6040  177.2840  146.3360 C   0  0  0  0  0  0  0  0  0  0  0  0
  189.3540  177.4580  143.6170 C   0  0  0  0  0  0  0  0  0  0  0  0
  188.3950  178.1680  148.6530 C   0  0  0  0  0  2  0  0  0  0  0  0
  188.3260  177.1690  147.7830 C   0  0  0  0  0  3  0  0  0  0  0  0
  186.2360  177.6330  145.6880 N   0  0  0  0  0  2  0  0  0  0  0  0
  185.5910  178.9160  145.9220 C   0  0  0  0  0  1  0  0  0  0  0  0
  188.1570  178.2370  138.7920 C   0  0  1  0  0  3  0  0  0  0  0  0
  188.6590  179.2020  137.9170 O   0  0  0  0  0  1  0  0  0  0  0  0
  187.7820  176.9960  138.0330 C   0  0  0  0  0  3  0  0  0  0  0  0
  186.6770  176.8740  137.3810 N   0  0  0  0  0  0  0  0  0  0  0  0
  185.6790  177.9130  137.3310 C   0  0  0  0  0  2  0  0  0  0  0  0
  182.4510  176.9520  139.9340 N   0  0  0  0  0  0  0  0  0  0  0  0
  184.2190  178.4350  139.3140 C   0  0  0  0  0  0  0  0  0  0  0  0
  183.1520  178.0980  140.1490 C   0  0  0  0  0  3  0  0  0  0  0  0
  182.7600  176.1100  138.9100 C   0  0  0  0  0  3  0  0  0  0  0  0
  184.9280  179.6090  139.5400 O   0  0  0  0  0  1  0  0  0  0  0  0
  184.5580  177.5790  138.2560 C   0  0  0  0  0  0  0  0  0  0  0  0
  183.8190  176.4100  138.0510 C   0  0  0  0  0  3  0  0  0  0  0  0
  193.9260  177.0450  139.7740 N   0  0  0  0  0  0  0  0  0  0  0  0
  192.8250  177.2200  140.0840 C   0  0  0  0  0  0  0  0  0  0  0  0
  1  2  1  0  0  0  0
  2  6  2  0  0  0  0
  3  1  2  0  0  0  0
  3  4  1  0  0  0  0
  4  5  2  0  0  0  0
  5  6  1  0  0  0  0
  6 12  1  0  0  0  0
  7  8  1  0  0  0  0
  8 15  1  0  0  0  0
  8 11  2  0  0  0  0
  9 11  1  0  0  0  0
 10  9  2  0  0  0  0
 11 14  1  0  0  0  0
 12  7  2  0  0  0  0
 12 10  1  0  0  0  0
 14 13  2  0  0  0  0
 15 16  1  0  0  0  0
 17 18  1  6  0  0  0
 17  1  1  0  0  0  0
 19 17  1  0  0  0  0
 20 19  2  0  0  0  0
 21 20  1  0  0  0  0
 21 27  1  0  0  0  0
 22 24  1  0  0  0  0
 23 26  1  0  0  0  0
 23 24  2  0  0  0  0
 25 22  2  0  0  0  0
 27 23  1  0  0  0  0
 28 27  2  0  0  0  0
 28 25  1  0  0  0  0
 29 30  3  0  0  0  0
 30  4  1  0  0  0  0
M  END
>  <MODEL>
7

>  <REMARK>
 VINA RESULT:      -8.3      2.564      6.603
  Name = 
  8 active torsions:
  status: ('A' for Active; 'I' for Inactive)
    1  A    between atoms: C_1  and  N_16
    2  A    between atoms: C_1  and  C_25
    3  A    between atoms: N_4  and  C_9
    4  A    between atoms: C_6  and  C_10
    5  A    between atoms: C_8  and  C_10
    6  A    between atoms: C_13  and  C_22
    7  A    between atoms: C_20  and  C_30
    8  A    between atoms: C_26  and  C_29
                            x       y       z     vdW  Elec       q    Type
                         _______ _______ _______ _____ _____    ______ ____

>  <TORSDO>
F 8

$$$$
=
 OpenBabel11032419173D

 30 32  0  0  1  0  0  0  0  0999 V2000
  189.1770  177.4810  144.5240 C   0  0  0  0  0  0  0  0  0  0  0  0
  188.0080  177.6980  143.7780 C   0  0  0  0  0  3  0  0  0  0  0  0
  189.1220  177.5220  145.9190 C   0  0  0  0  0  3  0  0  0  0  0  0
  187.9140  177.7850  146.5680 C   0  0  0  0  0  0  0  0  0  0  0  0
  186.7530  178.0070  145.8210 C   0  0  0  0  0  3  0  0  0  0  0  0
  186.7860  177.9670  144.4180 C   0  0  0  0  0  0  0  0  0  0  0  0
  184.3410  178.4900  144.2640 C   0  0  0  0  0  3  0  0  0  0  0  0
  183.1670  178.7190  143.5280 C   0  0  0  0  0  0  0  0  0  0  0  0
  184.4320  178.3830  141.4830 C   0  0  0  0  0  3  0  0  0  0  0  0
  185.5890  178.1530  142.2270 C   0  0  0  0  0  3  0  0  0  0  0  0
  183.2170  178.6680  142.1130 C   0  0  0  0  0  0  0  0  0  0  0  0
  185.5570  178.2070  143.6270 C   0  0  0  0  0  0  0  0  0  0  0  0
  181.6020  178.0340  140.3290 C   0  0  0  0  0  2  0  0  0  0  0  0
  182.0590  178.9010  141.2240 C   0  0  0  0  0  3  0  0  0  0  0  0
  181.9450  179.0060  144.2150 N   0  0  0  0  0  2  0  0  0  0  0  0
  180.7060  178.2820  143.9730 C   0  0  0  0  0  1  0  0  0  0  0  0
  190.4800  177.1910  143.8520 C   0  0  1  0  0  3  0  0  0  0  0  0
  191.4820  177.0140  144.8070 O   0  0  0  0  0  1  0  0  0  0  0  0
  190.3770  175.9720  142.9790 C   0  0  0  0  0  3  0  0  0  0  0  0
  190.5500  176.0020  141.7020 N   0  0  0  0  0  0  0  0  0  0  0  0
  190.8410  177.2150  140.9790 C   0  0  0  0  0  2  0  0  0  0  0  0
  187.9600  177.7340  137.8890 N   0  0  0  0  0  0  0  0  0  0  0  0
  190.0690  176.8730  138.6080 C   0  0  0  0  0  0  0  0  0  0  0  0
  189.1050  177.0530  137.6140 C   0  0  0  0  0  3  0  0  0  0  0  0
  187.7190  178.2520  139.1240 C   0  0  0  0  0  3  0  0  0  0  0  0
  191.2360  176.1740  138.3180 O   0  0  0  0  0  1  0  0  0  0  0  0
  189.8440  177.4020  139.8860 C   0  0  0  0  0  0  0  0  0  0  0  0
  188.6570  178.0930  140.1470 C   0  0  0  0  0  3  0  0  0  0  0  0
  187.8210  177.8500  149.1580 N   0  0  0  0  0  0  0  0  0  0  0  0
  187.8600  177.8210  148.0020 C   0  0  0  0  0  0  0  0  0  0  0  0
  1  3  1  0  0  0  0
  2  6  1  0  0  0  0
  2  1  2  0  0  0  0
  3  4  2  0  0  0  0
  4 30  1  0  0  0  0
  5  4  1  0  0  0  0
  6  5  2  0  0  0  0
  8 15  1  0  0  0  0
  8  7  2  0  0  0  0
  9 11  2  0  0  0  0
  9 10  1  0  0  0  0
 10 12  2  0  0  0  0
 11  8  1  0  0  0  0
 12  7  1  0  0  0  0
 12  6  1  0  0  0  0
 13 14  2  0  0  0  0
 14 11  1  0  0  0  0
 16 15  1  0  0  0  0
 17  1  1  0  0  0  0
 17 18  1  1  0  0  0
 19 17  1  0  0  0  0
 20 19  2  0  0  0  0
 21 20  1  0  0  0  0
 22 25  1  0  0  0  0
 23 27  2  0  0  0  0
 24 22  2  0  0  0  0
 24 23  1  0  0  0  0
 25 28  2  0  0  0  0
 26 23  1  0  0  0  0
 27 28  1  0  0  0  0
 27 21  1  0  0  0  0
 30 29  3  0  0  0  0
M  END
>  <MODEL>
8

>  <REMARK>
 VINA RESULT:      -8.3      1.361      2.141
  Name = 
  8 active torsions:
  status: ('A' for Active; 'I' for Inactive)
    1  A    between atoms: C_1  and  N_16
    2  A    between atoms: C_1  and  C_25
    3  A    between atoms: N_4  and  C_9
    4  A    between atoms: C_6  and  C_10
    5  A    between atoms: C_8  and  C_10
    6  A    between atoms: C_13  and  C_22
    7  A    between atoms: C_20  and  C_30
    8  A    between atoms: C_26  and  C_29
                            x       y       z     vdW  Elec       q    Type
                         _______ _______ _______ _____ _____    ______ ____

>  <TORSDO>
F 8

$$$$
=
 OpenBabel11032419173D

 30 32  0  0  1  0  0  0  0  0999 V2000
  189.0870  177.4540  141.7320 C   0  0  0  0  0  0  0  0  0  0  0  0
  187.8340  177.6540  142.3310 C   0  0  0  0  0  3  0  0  0  0  0  0
  189.2890  177.8500  140.4080 C   0  0  0  0  0  3  0  0  0  0  0  0
  188.2480  178.4340  139.6820 C   0  0  0  0  0  0  0  0  0  0  0  0
  187.0000  178.6250  140.2810 C   0  0  0  0  0  3  0  0  0  0  0  0
  186.7780  178.2370  141.6120 C   0  0  0  0  0  0  0  0  0  0  0  0
  185.3440  178.6240  143.6300 C   0  0  0  0  0  3  0  0  0  0  0  0
  184.0960  178.8110  144.2460 C   0  0  0  0  0  0  0  0  0  0  0  0
  183.0400  178.6230  142.0680 C   0  0  0  0  0  3  0  0  0  0  0  0
  184.2860  178.4330  141.4710 C   0  0  0  0  0  3  0  0  0  0  0  0
  182.9250  178.8150  143.4480 C   0  0  0  0  0  0  0  0  0  0  0  0
  185.4530  178.4350  142.2450 C   0  0  0  0  0  0  0  0  0  0  0  0
  180.4440  178.8480  143.2650 C   0  0  0  0  0  2  0  0  0  0  0  0
  181.5560  179.0130  143.9690 C   0  0  0  0  0  3  0  0  0  0  0  0
  184.0260  179.0020  145.6630 N   0  0  0  0  0  2  0  0  0  0  0  0
  184.8840  178.3000  146.6050 C   0  0  0  0  0  1  0  0  0  0  0  0
  190.2180  176.8380  142.4910 C   0  0  1  0  0  3  0  0  0  0  0  0
  190.9390  175.9770  141.6610 O   0  0  0  0  0  1  0  0  0  0  0  0
  191.1270  177.8930  143.0540 C   0  0  0  0  0  3  0  0  0  0  0  0
  191.6430  177.8240  144.2340 N   0  0  0  0  0  0  0  0  0  0  0  0
  191.3830  176.7320  145.1400 C   0  0  0  0  0  2  0  0  0  0  0  0
  188.4830  177.9600  148.0040 N   0  0  0  0  0  0  0  0  0  0  0  0
  190.7170  177.2740  147.5060 C   0  0  0  0  0  0  0  0  0  0  0  0
  189.7470  177.6840  148.4230 C   0  0  0  0  0  3  0  0  0  0  0  0
  188.1270  177.8500  146.6950 C   0  0  0  0  0  3  0  0  0  0  0  0
  192.0070  176.9960  147.9440 O   0  0  0  0  0  1  0  0  0  0  0  0
  190.3710  177.1500  146.1530 C   0  0  0  0  0  0  0  0  0  0  0  0
  189.0670  177.4450  145.7440 C   0  0  0  0  0  3  0  0  0  0  0  0
  188.6280  179.1800  137.2280 N   0  0  0  0  0  0  0  0  0  0  0  0
  188.4600  178.8450  138.3230 C   0  0  0  0  0  0  0  0  0  0  0  0
  1  2  1  0  0  0  0
  1 17  1  0  0  0  0
  3  1  2  0  0  0  0
  4  5  2  0  0  0  0
  4  3  1  0  0  0  0
  5  6  1  0  0  0  0
  6 12  1  0  0  0  0
  6  2  2  0  0  0  0
  7  8  1  0  0  0  0
  8 15  1  0  0  0  0
  9 11  1  0  0  0  0
 10  9  2  0  0  0  0
 10 12  1  0  0  0  0
 11 14  1  0  0  0  0
 11  8  2  0  0  0  0
 12  7  2  0  0  0  0
 13 14  2  0  0  0  0
 15 16  1  0  0  0  0
 17 18  1  6  0  0  0
 17 19  1  0  0  0  0
 19 20  2  0  0  0  0
 20 21  1  0  0  0  0
 21 27  1  0  0  0  0
 22 24  1  0  0  0  0
 23 26  1  0  0  0  0
 23 24  2  0  0  0  0
 25 22  2  0  0  0  0
 27 23  1  0  0  0  0
 28 27  2  0  0  0  0
 28 25  1  0  0  0  0
 29 30  3  0  0  0  0
 30  4  1  0  0  0  0
M  END
>  <MODEL>
9

>  <REMARK>
 VINA RESULT:      -8.1      1.909      6.014
  Name = 
  8 active torsions:
  status: ('A' for Active; 'I' for Inactive)
    1  A    between atoms: C_1  and  N_16
    2  A    between atoms: C_1  and  C_25
    3  A    between atoms: N_4  and  C_9
    4  A    between atoms: C_6  and  C_10
    5  A    between atoms: C_8  and  C_10
    6  A    between atoms: C_13  and  C_22
    7  A    between atoms: C_20  and  C_30
    8  A    between atoms: C_26  and  C_29
                            x       y       z     vdW  Elec       q    Type
                         _______ _______ _______ _____ _____    ______ ____

>  <TORSDO>
F 8

$$$$
