=
 OpenBabel11042413093D

 32 35  0  0  1  0  0  0  0  0999 V2000
  188.9960  177.1650  144.8640 C   0  0  0  0  0  0  0  0  0  0  0  0
  189.9450  176.8760  144.0370 N   0  0  0  0  0  0  0  0  0  0  0  0
  189.3650  177.7030  146.2140 C   0  0  0  0  0  2  0  0  0  0  0  0
  187.4500  178.2400  147.6800 C   0  0  0  0  0  2  0  0  0  0  0  0
  188.4320  177.1590  147.2810 C   0  0  0  0  0  3  0  0  0  0  0  0
  188.6370  177.9340  148.5680 C   0  0  0  0  0  2  0  0  0  0  0  0
  189.7280  176.3620  142.7030 C   0  0  0  0  0  2  0  0  0  0  0  0
  190.4010  176.9110  139.4070 C   0  0  0  0  0  3  0  0  0  0  0  0
  190.9920  176.9500  140.6930 N   0  0  0  0  0  2  0  0  0  0  0  0
  189.1510  177.3240  139.4590 C   0  0  0  0  0  0  0  0  0  0  0  0
  190.0120  177.4340  141.6550 C   0  0  1  0  0  3  0  0  0  0  0  0
  188.7470  177.6980  140.8400 C   0  0  0  0  0  2  0  0  0  0  0  0
  187.3890  178.3750  136.4220 O   0  0  0  0  0  0  0  0  0  0  0  0
  188.2570  177.3970  138.3420 N   0  0  0  0  0  2  0  0  0  0  0  0
  188.9750  179.6010  137.5260 O   0  0  0  0  0  1  0  0  0  0  0  0
  188.1880  178.4630  137.3900 C   0  0  0  0  0  0  0  0  0  0  0  0
  187.5440  177.0020  144.4860 C   0  0  0  0  0  2  0  0  0  0  0  0
  187.0490  178.1520  143.8670 O   0  0  0  0  0  0  0  0  0  0  0  0
  185.7400  178.2700  144.3330 C   0  0  0  0  0  2  0  0  0  0  0  0
  184.8070  178.4120  143.1750 C   0  0  0  0  0  0  0  0  0  0  0  0
  180.5480  179.2460  143.5080 O   0  0  0  0  0  1  0  0  0  0  0  0
  180.2980  179.3730  138.6920 N   0  0  0  0  0  1  0  0  0  0  0  0
  183.1990  178.7430  140.9330 C   0  0  0  0  0  0  0  0  0  0  0  0
  184.5240  178.4760  140.8070 N   0  0  0  0  0  0  0  0  0  0  0  0
  185.3270  178.3150  141.8860 C   0  0  0  0  0  3  0  0  0  0  0  0
  181.0700  179.1910  139.8730 C   0  0  0  0  0  0  0  0  0  0  0  0
  180.4660  179.2990  141.1240 C   0  0  0  0  0  3  0  0  0  0  0  0
  183.4340  178.6730  143.3570 C   0  0  0  0  0  0  0  0  0  0  0  0
  182.4320  178.9150  139.7790 C   0  0  0  0  0  3  0  0  0  0  0  0
  182.9030  178.7770  144.7550 C   0  0  0  0  0  1  0  0  0  0  0  0
  182.6010  178.8440  142.2200 C   0  0  0  0  0  0  0  0  0  0  0  0
  181.2110  179.1250  142.2940 C   0  0  0  0  0  0  0  0  0  0  0  0
  1  3  1  0  0  0  0
  2  1  2  0  0  0  0
  3  5  1  0  0  0  0
  4  6  1  0  0  0  0
  5  4  1  0  0  0  0
  5  6  1  0  0  0  0
  7  2  1  0  0  0  0
  8 10  2  0  0  0  0
  8  9  1  0  0  0  0
  9 11  1  0  0  0  0
 10 12  1  0  0  0  0
 11  7  1  1  0  0  0
 12 11  1  0  0  0  0
 13 16  2  0  0  0  0
 14 10  1  0  0  0  0
 16 15  1  0  0  0  0
 16 14  1  0  0  0  0
 17  1  1  0  0  0  0
 18 19  1  0  0  0  0
 18 17  1  0  0  0  0
 20 28  1  0  0  0  0
 20 19  1  0  0  0  0
 22 26  1  0  0  0  0
 23 31  1  0  0  0  0
 24 23  2  0  0  0  0
 24 25  1  0  0  0  0
 25 20  2  0  0  0  0
 26 27  1  0  0  0  0
 27 32  2  0  0  0  0
 28 30  1  0  0  0  0
 29 26  2  0  0  0  0
 29 23  1  0  0  0  0
 31 32  1  0  0  0  0
 31 28  2  0  0  0  0
 32 21  1  0  0  0  0
M  END
>  <MODEL>
1

>  <REMARK>
 VINA RESULT:      -8.2      0.000      0.000
  Name = 
  9 active torsions:
  status: ('A' for Active; 'I' for Inactive)
    1  A    between atoms: C_1  and  C_19
    2  A    between atoms: C_3  and  C_15
    3  A    between atoms: C_3  and  C_29
    4  A    between atoms: C_11  and  C_15
    5  A    between atoms: C_12  and  N_16
    6  A    between atoms: N_14  and  C_21
    7  A    between atoms: C_19  and  O_25
    8  A    between atoms: C_21  and  C_23
    9  A    between atoms: O_25  and  C_29
                            x       y       z     vdW  Elec       q    Type
                         _______ _______ _______ _____ _____    ______ ____

>  <TORSDO>
F 9

$$$$
=
 OpenBabel11042413093D

 32 35  0  0  1  0  0  0  0  0999 V2000
  183.8560  177.8290  139.0790 C   0  0  0  0  0  0  0  0  0  0  0  0
  184.6390  177.5300  138.0960 N   0  0  0  0  0  0  0  0  0  0  0  0
  182.9280  176.7730  139.5990 C   0  0  0  0  0  2  0  0  0  0  0  0
  180.5470  177.3430  139.9320 C   0  0  0  0  0  2  0  0  0  0  0  0
  181.5710  176.8710  138.9220 C   0  0  0  0  0  3  0  0  0  0  0  0
  180.6200  175.8770  139.5600 C   0  0  0  0  0  2  0  0  0  0  0  0
  185.5880  178.4490  137.5090 C   0  0  0  0  0  2  0  0  0  0  0  0
  188.9670  178.8880  137.4320 C   0  0  0  0  0  3  0  0  0  0  0  0
  187.8460  178.6730  136.5950 N   0  0  0  0  0  0  0  0  0  0  0  0
  188.8490  178.2000  138.5500 C   0  0  0  0  0  0  0  0  0  0  0  0
  186.9250  177.7590  137.2550 C   0  0  1  0  0  3  0  0  0  0  0  0
  187.5850  177.4190  138.5900 C   0  0  0  0  0  3  0  0  0  0  0  0
  191.5230  177.2920  140.8880 O   0  0  0  0  0  1  0  0  0  0  0  0
  189.7970  178.2000  139.6240 N   0  0  0  0  0  2  0  0  0  0  0  0
  190.6800  175.9380  139.2460 O   0  0  0  0  0  0  0  0  0  0  0  0
  190.7030  177.1390  139.9450 C   0  0  0  0  0  0  0  0  0  0  0  0
  183.8850  179.1940  139.7230 C   0  0  0  0  0  2  0  0  0  0  0  0
  184.9400  179.3030  140.6330 O   0  0  0  0  0  0  0  0  0  0  0  0
  184.3910  178.9270  141.8580 C   0  0  0  0  0  2  0  0  0  0  0  0
  185.4850  178.5510  142.8030 C   0  0  0  0  0  0  0  0  0  0  0  0
  185.1340  178.5790  147.1420 O   0  0  0  0  0  1  0  0  0  0  0  0
  189.6340  176.8600  147.4160 N   0  0  0  0  0  1  0  0  0  0  0  0
  187.5730  177.7390  144.4470 C   0  0  0  0  0  0  0  0  0  0  0  0
  187.7060  177.7300  143.0960 N   0  0  0  0  0  0  0  0  0  0  0  0
  186.7000  178.1190  142.2760 C   0  0  0  0  0  3  0  0  0  0  0  0
  188.5400  177.3060  146.6230 C   0  0  0  0  0  0  0  0  0  0  0  0
  187.3620  177.7300  147.2350 C   0  0  0  0  0  3  0  0  0  0  0  0
  185.3040  178.5930  144.2010 C   0  0  0  0  0  0  0  0  0  0  0  0
  188.6440  177.3100  145.2340 C   0  0  0  0  0  3  0  0  0  0  0  0
  183.9860  179.0590  144.7400 C   0  0  0  0  0  1  0  0  0  0  0  0
  186.3640  178.1810  145.0520 C   0  0  0  0  0  0  0  0  0  0  0  0
  186.2790  178.1700  146.4690 C   0  0  0  0  0  0  0  0  0  0  0  0
  1  3  1  0  0  0  0
  1 17  1  0  0  0  0
  2  1  2  0  0  0  0
  5  6  1  0  0  0  0
  5  3  1  0  0  0  0
  5  4  1  0  0  0  0
  6  4  1  0  0  0  0
  7  2  1  0  0  0  0
  8 10  1  0  0  0  0
  9 11  1  0  0  0  0
  9  8  2  0  0  0  0
 10 12  2  0  0  0  0
 10 14  1  0  0  0  0
 11  7  1  1  0  0  0
 11 12  1  0  0  0  0
 14 16  1  0  0  0  0
 15 16  2  0  0  0  0
 16 13  1  0  0  0  0
 17 18  1  0  0  0  0
 18 19  1  0  0  0  0
 19 20  1  0  0  0  0
 20 28  1  0  0  0  0
 23 31  1  0  0  0  0
 23 29  1  0  0  0  0
 24 23  2  0  0  0  0
 25 20  2  0  0  0  0
 25 24  1  0  0  0  0
 26 27  1  0  0  0  0
 26 22  1  0  0  0  0
 28 30  1  0  0  0  0
 28 31  2  0  0  0  0
 29 26  2  0  0  0  0
 31 32  1  0  0  0  0
 32 21  1  0  0  0  0
 32 27  2  0  0  0  0
M  END
>  <MODEL>
2

>  <REMARK>
 VINA RESULT:      -8.2      2.434      6.716
  Name = 
  9 active torsions:
  status: ('A' for Active; 'I' for Inactive)
    1  A    between atoms: C_1  and  C_19
    2  A    between atoms: C_3  and  C_15
    3  A    between atoms: C_3  and  C_29
    4  A    between atoms: C_11  and  C_15
    5  A    between atoms: C_12  and  N_16
    6  A    between atoms: N_14  and  C_21
    7  A    between atoms: C_19  and  O_25
    8  A    between atoms: C_21  and  C_23
    9  A    between atoms: O_25  and  C_29
                            x       y       z     vdW  Elec       q    Type
                         _______ _______ _______ _____ _____    ______ ____

>  <TORSDO>
F 9

$$$$
=
 OpenBabel11042413093D

 32 35  0  0  1  0  0  0  0  0999 V2000
  184.0580  179.0070  139.6830 C   0  0  0  0  0  0  0  0  0  0  0  0
  184.9680  179.0150  138.7670 N   0  0  0  0  0  0  0  0  0  0  0  0
  182.7740  179.7340  139.4190 C   0  0  0  0  0  2  0  0  0  0  0  0
  180.3370  179.4290  139.1430 C   0  0  0  0  0  2  0  0  0  0  0  0
  181.5820  178.8760  139.8040 C   0  0  0  0  0  3  0  0  0  0  0  0
  180.6020  179.7100  140.6070 C   0  0  0  0  0  2  0  0  0  0  0  0
  186.2440  178.3440  138.8870 C   0  0  0  0  0  2  0  0  0  0  0  0
  189.1690  178.4530  137.1420 C   0  0  0  0  0  3  0  0  0  0  0  0
  187.9300  179.1220  137.2960 N   0  0  0  0  0  2  0  0  0  0  0  0
  189.0060  177.1490  137.2380 C   0  0  0  0  0  0  0  0  0  0  0  0
  186.8800  178.1380  137.5160 C   0  0  1  0  0  3  0  0  0  0  0  0
  187.5860  176.7830  137.4800 C   0  0  0  0  0  2  0  0  0  0  0  0
  191.6500  174.7340  138.0230 O   0  0  0  0  0  0  0  0  0  0  0  0
  190.0530  176.1760  137.1450 N   0  0  0  0  0  2  0  0  0  0  0  0
  190.5790  176.0690  139.5430 O   0  0  0  0  0  1  0  0  0  0  0  0
  190.7880  175.6250  138.2430 C   0  0  0  0  0  0  0  0  0  0  0  0
  184.2510  178.2610  140.9810 C   0  0  0  0  0  2  0  0  0  0  0  0
  184.8240  179.0810  141.9560 O   0  0  0  0  0  0  0  0  0  0  0  0
  184.7440  178.3390  143.1340 C   0  0  0  0  0  2  0  0  0  0  0  0
  186.1190  178.0800  143.6570 C   0  0  0  0  0  0  0  0  0  0  0  0
  187.1950  178.0020  147.8740 O   0  0  0  0  0  1  0  0  0  0  0  0
  191.6950  176.8160  146.6000 N   0  0  0  0  0  1  0  0  0  0  0  0
  188.7010  177.4930  144.5000 C   0  0  0  0  0  0  0  0  0  0  0  0
  188.3880  177.5190  143.1790 N   0  0  0  0  0  0  0  0  0  0  0  0
  187.1350  177.7990  142.7460 C   0  0  0  0  0  3  0  0  0  0  0  0
  190.3620  177.1440  146.2250 C   0  0  0  0  0  0  0  0  0  0  0  0
  189.4090  177.4180  147.2030 C   0  0  0  0  0  3  0  0  0  0  0  0
  186.3980  178.0800  145.0390 C   0  0  0  0  0  0  0  0  0  0  0  0
  190.0080  177.1800  144.8780 C   0  0  0  0  0  3  0  0  0  0  0  0
  185.2850  178.3800  145.9960 C   0  0  0  0  0  1  0  0  0  0  0  0
  187.7140  177.7820  145.4820 C   0  0  0  0  0  0  0  0  0  0  0  0
  188.0950  177.7400  146.8490 C   0  0  0  0  0  0  0  0  0  0  0  0
  1 17  1  0  0  0  0
  2  7  1  0  0  0  0
  2  1  2  0  0  0  0
  3  1  1  0  0  0  0
  3  5  1  0  0  0  0
  4  5  1  0  0  0  0
  4  6  1  0  0  0  0
  5  6  1  0  0  0  0
  8 10  2  0  0  0  0
  8  9  1  0  0  0  0
  9 11  1  0  0  0  0
 10 12  1  0  0  0  0
 11  7  1  1  0  0  0
 12 11  1  0  0  0  0
 13 16  2  0  0  0  0
 14 10  1  0  0  0  0
 14 16  1  0  0  0  0
 16 15  1  0  0  0  0
 17 18  1  0  0  0  0
 18 19  1  0  0  0  0
 19 20  1  0  0  0  0
 20 28  1  0  0  0  0
 23 29  1  0  0  0  0
 23 31  1  0  0  0  0
 24 23  2  0  0  0  0
 25 24  1  0  0  0  0
 25 20  2  0  0  0  0
 26 22  1  0  0  0  0
 26 27  1  0  0  0  0
 28 31  2  0  0  0  0
 28 30  1  0  0  0  0
 29 26  2  0  0  0  0
 31 32  1  0  0  0  0
 32 27  2  0  0  0  0
 32 21  1  0  0  0  0
M  END
>  <MODEL>
3

>  <REMARK>
 VINA RESULT:      -8.1      2.385      7.051
  Name = 
  9 active torsions:
  status: ('A' for Active; 'I' for Inactive)
    1  A    between atoms: C_1  and  C_19
    2  A    between atoms: C_3  and  C_15
    3  A    between atoms: C_3  and  C_29
    4  A    between atoms: C_11  and  C_15
    5  A    between atoms: C_12  and  N_16
    6  A    between atoms: N_14  and  C_21
    7  A    between atoms: C_19  and  O_25
    8  A    between atoms: C_21  and  C_23
    9  A    between atoms: O_25  and  C_29
                            x       y       z     vdW  Elec       q    Type
                         _______ _______ _______ _____ _____    ______ ____

>  <TORSDO>
F 9

$$$$
=
 OpenBabel11042413093D

 32 35  0  0  1  0  0  0  0  0999 V2000
  191.0040  176.5720  138.2950 C   0  0  0  0  0  0  0  0  0  0  0  0
  190.2830  177.0200  137.3220 N   0  0  0  0  0  0  0  0  0  0  0  0
  191.9470  175.4390  138.0220 C   0  0  0  0  0  2  0  0  0  0  0  0
  193.9710  175.7230  136.6330 C   0  0  0  0  0  2  0  0  0  0  0  0
  193.3850  175.9280  138.0150 C   0  0  0  0  0  3  0  0  0  0  0  0
  194.3110  174.7570  137.7490 C   0  0  0  0  0  2  0  0  0  0  0  0
  189.3450  178.1140  137.4450 C   0  0  0  0  0  2  0  0  0  0  0  0
  186.3050  176.5750  137.3830 C   0  0  0  0  0  3  0  0  0  0  0  0
  187.6060  176.5080  136.8300 N   0  0  0  0  0  0  0  0  0  0  0  0
  185.9260  177.8290  137.5240 C   0  0  0  0  0  0  0  0  0  0  0  0
  188.1000  177.8580  136.6020 C   0  0  1  0  0  3  0  0  0  0  0  0
  186.9720  178.7800  137.0660 C   0  0  0  0  0  3  0  0  0  0  0  0
  183.3300  179.3460  139.6220 O   0  0  0  0  0  0  0  0  0  0  0  0
  184.6710  178.2580  138.0680 N   0  0  0  0  0  2  0  0  0  0  0  0
  185.5640  179.2820  140.1150 O   0  0  0  0  0  1  0  0  0  0  0  0
  184.4880  178.9840  139.2870 C   0  0  0  0  0  0  0  0  0  0  0  0
  190.9360  177.1840  139.6730 C   0  0  0  0  0  2  0  0  0  0  0  0
  190.3080  176.3250  140.5790 O   0  0  0  0  0  0  0  0  0  0  0  0
  190.7160  176.7740  141.8340 C   0  0  0  0  0  2  0  0  0  0  0  0
  189.5170  177.0620  142.6780 C   0  0  0  0  0  0  0  0  0  0  0  0
  189.5340  177.2650  147.0250 O   0  0  0  0  0  1  0  0  0  0  0  0
  184.8620  178.4620  146.8870 N   0  0  0  0  0  1  0  0  0  0  0  0
  187.2310  177.6980  144.1230 C   0  0  0  0  0  0  0  0  0  0  0  0
  187.2030  177.6320  142.7680 N   0  0  0  0  0  0  0  0  0  0  0  0
  188.3060  177.3280  142.0430 C   0  0  0  0  0  3  0  0  0  0  0  0
  186.0570  178.1110  146.1990 C   0  0  0  0  0  0  0  0  0  0  0  0
  187.2240  177.8530  146.9150 C   0  0  0  0  0  3  0  0  0  0  0  0
  189.5940  177.1020  144.0840 C   0  0  0  0  0  0  0  0  0  0  0  0
  186.0610  178.0340  144.8080 C   0  0  0  0  0  3  0  0  0  0  0  0
  190.9100  176.8160  144.7400 C   0  0  0  0  0  1  0  0  0  0  0  0
  188.4320  177.4260  144.8350 C   0  0  0  0  0  0  0  0  0  0  0  0
  188.4060  177.5090  146.2520 C   0  0  0  0  0  0  0  0  0  0  0  0
  1 17  1  0  0  0  0
  2  7  1  0  0  0  0
  2  1  2  0  0  0  0
  3  1  1  0  0  0  0
  4  6  1  0  0  0  0
  4  5  1  0  0  0  0
  5  3  1  0  0  0  0
  6  5  1  0  0  0  0
  8 10  1  0  0  0  0
  9  8  2  0  0  0  0
 10 14  1  0  0  0  0
 11  9  1  0  0  0  0
 11 12  1  0  0  0  0
 11  7  1  1  0  0  0
 12 10  2  0  0  0  0
 14 16  1  0  0  0  0
 16 13  2  0  0  0  0
 16 15  1  0  0  0  0
 17 18  1  0  0  0  0
 18 19  1  0  0  0  0
 19 20  1  0  0  0  0
 20 28  1  0  0  0  0
 23 29  1  0  0  0  0
 23 31  1  0  0  0  0
 24 23  2  0  0  0  0
 25 20  2  0  0  0  0
 25 24  1  0  0  0  0
 26 22  1  0  0  0  0
 26 27  1  0  0  0  0
 28 30  1  0  0  0  0
 28 31  2  0  0  0  0
 29 26  2  0  0  0  0
 31 32  1  0  0  0  0
 32 27  2  0  0  0  0
 32 21  1  0  0  0  0
M  END
>  <MODEL>
4

>  <REMARK>
 VINA RESULT:      -8.0      2.803      7.054
  Name = 
  9 active torsions:
  status: ('A' for Active; 'I' for Inactive)
    1  A    between atoms: C_1  and  C_19
    2  A    between atoms: C_3  and  C_15
    3  A    between atoms: C_3  and  C_29
    4  A    between atoms: C_11  and  C_15
    5  A    between atoms: C_12  and  N_16
    6  A    between atoms: N_14  and  C_21
    7  A    between atoms: C_19  and  O_25
    8  A    between atoms: C_21  and  C_23
    9  A    between atoms: O_25  and  C_29
                            x       y       z     vdW  Elec       q    Type
                         _______ _______ _______ _____ _____    ______ ____

>  <TORSDO>
F 9

$$$$
=
 OpenBabel11042413093D

 32 35  0  0  1  0  0  0  0  0999 V2000
  190.5120  176.7140  138.2470 C   0  0  0  0  0  0  0  0  0  0  0  0
  191.4050  176.2550  137.4340 N   0  0  0  0  0  0  0  0  0  0  0  0
  189.0860  176.7590  137.7880 C   0  0  0  0  0  2  0  0  0  0  0  0
  186.9650  178.0000  138.0540 C   0  0  0  0  0  2  0  0  0  0  0  0
  188.4740  178.1210  138.0710 C   0  0  0  0  0  3  0  0  0  0  0  0
  187.6890  178.5800  136.8570 C   0  0  0  0  0  2  0  0  0  0  0  0
  192.8110  176.1460  137.7540 C   0  0  0  0  0  2  0  0  0  0  0  0
  194.8330  174.1270  135.8960 C   0  0  0  0  0  3  0  0  0  0  0  0
  193.4720  174.4220  136.1490 N   0  0  0  0  0  0  0  0  0  0  0  0
  195.5370  174.1980  137.0080 C   0  0  0  0  0  0  0  0  0  0  0  0
  193.3000  174.7140  137.5650 C   0  0  1  0  0  3  0  0  0  0  0  0
  194.6940  174.5660  138.1760 C   0  0  0  0  0  3  0  0  0  0  0  0
  199.1800  174.5940  136.9420 O   0  0  0  0  0  1  0  0  0  0  0  0
  196.9480  173.9730  137.1090 N   0  0  0  0  0  2  0  0  0  0  0  0
  197.6650  176.1330  136.1830 O   0  0  0  0  0  0  0  0  0  0  0  0
  197.9750  174.9030  136.7520 C   0  0  0  0  0  0  0  0  0  0  0  0
  190.8730  177.1680  139.6400 C   0  0  0  0  0  2  0  0  0  0  0  0
  190.2680  176.3610  140.6080 O   0  0  0  0  0  0  0  0  0  0  0  0
  190.6840  176.8980  141.8260 C   0  0  0  0  0  2  0  0  0  0  0  0
  189.4930  177.1720  142.6860 C   0  0  0  0  0  0  0  0  0  0  0  0
  189.5040  177.0880  147.0370 O   0  0  0  0  0  1  0  0  0  0  0  0
  184.8780  178.4600  146.9740 N   0  0  0  0  0  1  0  0  0  0  0  0
  187.2270  177.7940  144.1680 C   0  0  0  0  0  0  0  0  0  0  0  0
  187.2010  177.8190  142.8110 N   0  0  0  0  0  0  0  0  0  0  0  0
  188.2950  177.5230  142.0690 C   0  0  0  0  0  3  0  0  0  0  0  0
  186.0620  178.1120  146.2650 C   0  0  0  0  0  0  0  0  0  0  0  0
  187.2170  177.7660  146.9640 C   0  0  0  0  0  3  0  0  0  0  0  0
  189.5670  177.1170  144.0920 C   0  0  0  0  0  0  0  0  0  0  0  0
  186.0680  178.1260  144.8720 C   0  0  0  0  0  3  0  0  0  0  0  0
  190.8700  176.7420  144.7290 C   0  0  0  0  0  1  0  0  0  0  0  0
  188.4150  177.4320  144.8620 C   0  0  0  0  0  0  0  0  0  0  0  0
  188.3880  177.4230  146.2810 C   0  0  0  0  0  0  0  0  0  0  0  0
  1 17  1  0  0  0  0
  2  7  1  0  0  0  0
  2  1  2  0  0  0  0
  3  5  1  0  0  0  0
  3  1  1  0  0  0  0
  4  5  1  0  0  0  0
  6  4  1  0  0  0  0
  6  5  1  0  0  0  0
  8  9  2  0  0  0  0
  8 10  1  0  0  0  0
  9 11  1  0  0  0  0
 10 14  1  0  0  0  0
 10 12  2  0  0  0  0
 11  7  1  6  0  0  0
 11 12  1  0  0  0  0
 15 16  2  0  0  0  0
 16 13  1  0  0  0  0
 16 14  1  0  0  0  0
 17 18  1  0  0  0  0
 18 19  1  0  0  0  0
 19 20  1  0  0  0  0
 20 28  1  0  0  0  0
 23 31  1  0  0  0  0
 23 29  1  0  0  0  0
 24 23  2  0  0  0  0
 25 20  2  0  0  0  0
 25 24  1  0  0  0  0
 26 27  1  0  0  0  0
 26 22  1  0  0  0  0
 28 30  1  0  0  0  0
 28 31  2  0  0  0  0
 29 26  2  0  0  0  0
 31 32  1  0  0  0  0
 32 27  2  0  0  0  0
 32 21  1  0  0  0  0
M  END
>  <MODEL>
5

>  <REMARK>
 VINA RESULT:      -7.9      4.432      7.775
  Name = 
  9 active torsions:
  status: ('A' for Active; 'I' for Inactive)
    1  A    between atoms: C_1  and  C_19
    2  A    between atoms: C_3  and  C_15
    3  A    between atoms: C_3  and  C_29
    4  A    between atoms: C_11  and  C_15
    5  A    between atoms: C_12  and  N_16
    6  A    between atoms: N_14  and  C_21
    7  A    between atoms: C_19  and  O_25
    8  A    between atoms: C_21  and  C_23
    9  A    between atoms: O_25  and  C_29
                            x       y       z     vdW  Elec       q    Type
                         _______ _______ _______ _____ _____    ______ ____

>  <TORSDO>
F 9

$$$$
=
 OpenBabel11042413093D

 32 35  0  0  1  0  0  0  0  0999 V2000
  181.5110  178.8610  140.7920 C   0  0  0  0  0  0  0  0  0  0  0  0
  180.7220  179.2320  139.8400 N   0  0  0  0  0  0  0  0  0  0  0  0
  181.1370  179.2020  142.2030 C   0  0  0  0  0  2  0  0  0  0  0  0
  179.2200  179.1830  143.7630 C   0  0  0  0  0  2  0  0  0  0  0  0
  179.8900  178.4430  142.6250 C   0  0  0  0  0  3  0  0  0  0  0  0
  180.0590  177.9550  144.0510 C   0  0  0  0  0  2  0  0  0  0  0  0
  180.9570  178.9590  138.4390 C   0  0  0  0  0  2  0  0  0  0  0  0
  180.4390  181.5270  136.2600 C   0  0  0  0  0  3  0  0  0  0  0  0
  181.1110  180.2880  136.3920 N   0  0  0  0  0  0  0  0  0  0  0  0
  180.4640  182.1920  137.3980 C   0  0  0  0  0  0  0  0  0  0  0  0
  181.6080  180.1560  137.7540 C   0  0  1  0  0  3  0  0  0  0  0  0
  181.1810  181.4420  138.4630 C   0  0  0  0  0  3  0  0  0  0  0  0
  179.8740  185.7950  137.7230 O   0  0  0  0  0  1  0  0  0  0  0  0
  179.8650  183.4740  137.6210 N   0  0  0  0  0  2  0  0  0  0  0  0
  181.9050  184.8130  137.3340 O   0  0  0  0  0  0  0  0  0  0  0  0
  180.5350  184.7370  137.5580 C   0  0  0  0  0  0  0  0  0  0  0  0
  182.7690  178.0740  140.5120 C   0  0  0  0  0  2  0  0  0  0  0  0
  183.4790  177.8200  141.6880 O   0  0  0  0  0  0  0  0  0  0  0  0
  184.3280  178.9180  141.8330 C   0  0  0  0  0  2  0  0  0  0  0  0
  185.4090  178.5890  142.8100 C   0  0  0  0  0  0  0  0  0  0  0  0
  184.9380  178.6290  147.1370 O   0  0  0  0  0  1  0  0  0  0  0  0
  189.4900  177.0850  147.5460 N   0  0  0  0  0  1  0  0  0  0  0  0
  187.4800  177.8680  144.5160 C   0  0  0  0  0  0  0  0  0  0  0  0
  187.6500  177.8560  143.1690 N   0  0  0  0  0  0  0  0  0  0  0  0
  186.6530  178.2000  142.3190 C   0  0  0  0  0  3  0  0  0  0  0  0
  188.4020  177.4850  146.7210 C   0  0  0  0  0  0  0  0  0  0  0  0
  187.1930  177.8670  147.2970 C   0  0  0  0  0  3  0  0  0  0  0  0
  185.1880  178.6330  144.2010 C   0  0  0  0  0  0  0  0  0  0  0  0
  188.5450  177.4850  145.3350 C   0  0  0  0  0  3  0  0  0  0  0  0
  183.8390  179.0510  144.7010 C   0  0  0  0  0  1  0  0  0  0  0  0
  186.2390  178.2660  145.0840 C   0  0  0  0  0  0  0  0  0  0  0  0
  186.1150  178.2600  146.4990 C   0  0  0  0  0  0  0  0  0  0  0  0
  1  3  1  0  0  0  0
  2  1  2  0  0  0  0
  3  5  1  0  0  0  0
  4  6  1  0  0  0  0
  5  4  1  0  0  0  0
  5  6  1  0  0  0  0
  7  2  1  0  0  0  0
  8  9  2  0  0  0  0
  8 10  1  0  0  0  0
  9 11  1  0  0  0  0
 10 14  1  0  0  0  0
 10 12  2  0  0  0  0
 11  7  1  1  0  0  0
 11 12  1  0  0  0  0
 15 16  2  0  0  0  0
 16 14  1  0  0  0  0
 16 13  1  0  0  0  0
 17  1  1  0  0  0  0
 17 18  1  0  0  0  0
 18 19  1  0  0  0  0
 19 20  1  0  0  0  0
 20 28  1  0  0  0  0
 23 31  1  0  0  0  0
 23 29  1  0  0  0  0
 24 23  2  0  0  0  0
 25 20  2  0  0  0  0
 25 24  1  0  0  0  0
 26 27  1  0  0  0  0
 26 22  1  0  0  0  0
 28 30  1  0  0  0  0
 28 31  2  0  0  0  0
 29 26  2  0  0  0  0
 31 32  1  0  0  0  0
 32 21  1  0  0  0  0
 32 27  2  0  0  0  0
M  END
>  <MODEL>
6

>  <REMARK>
 VINA RESULT:      -7.8      3.242      8.327
  Name = 
  9 active torsions:
  status: ('A' for Active; 'I' for Inactive)
    1  A    between atoms: C_1  and  C_19
    2  A    between atoms: C_3  and  C_15
    3  A    between atoms: C_3  and  C_29
    4  A    between atoms: C_11  and  C_15
    5  A    between atoms: C_12  and  N_16
    6  A    between atoms: N_14  and  C_21
    7  A    between atoms: C_19  and  O_25
    8  A    between atoms: C_21  and  C_23
    9  A    between atoms: O_25  and  C_29
                            x       y       z     vdW  Elec       q    Type
                         _______ _______ _______ _____ _____    ______ ____

>  <TORSDO>
F 9

$$$$
=
 OpenBabel11042413093D

 32 35  0  0  1  0  0  0  0  0999 V2000
  187.5360  177.3500  144.8690 C   0  0  0  0  0  0  0  0  0  0  0  0
  188.6050  176.8550  144.3420 N   0  0  0  0  0  0  0  0  0  0  0  0
  187.5990  177.8400  146.2850 C   0  0  0  0  0  2  0  0  0  0  0  0
  189.2860  176.7390  147.7160 C   0  0  0  0  0  2  0  0  0  0  0  0
  189.0370  177.8950  146.7690 C   0  0  0  0  0  3  0  0  0  0  0  0
  189.0530  178.1300  148.2670 C   0  0  0  0  0  2  0  0  0  0  0  0
  188.6850  176.3580  142.9860 C   0  0  0  0  0  2  0  0  0  0  0  0
  189.9110  176.8910  139.8510 C   0  0  0  0  0  3  0  0  0  0  0  0
  190.2690  176.3820  141.1230 N   0  0  0  0  0  2  0  0  0  0  0  0
  189.1330  177.9480  139.9780 C   0  0  0  0  0  0  0  0  0  0  0  0
  189.6510  177.1990  142.1570 C   0  0  1  0  0  3  0  0  0  0  0  0
  188.8710  178.2760  141.4040 C   0  0  0  0  0  2  0  0  0  0  0  0
  187.1710  179.0070  137.0680 O   0  0  0  0  0  0  0  0  0  0  0  0
  188.5770  178.6990  138.8930 N   0  0  0  0  0  2  0  0  0  0  0  0
  187.1870  176.9000  137.9610 O   0  0  0  0  0  1  0  0  0  0  0  0
  187.6180  178.2210  137.9430 C   0  0  0  0  0  0  0  0  0  0  0  0
  186.2530  177.4710  144.0840 C   0  0  0  0  0  2  0  0  0  0  0  0
  185.3150  178.2550  144.7620 O   0  0  0  0  0  0  0  0  0  0  0  0
  185.0880  179.3430  143.9200 C   0  0  0  0  0  2  0  0  0  0  0  0
  183.8650  179.0940  143.0990 C   0  0  0  0  0  0  0  0  0  0  0  0
  183.8550  178.4840  138.7890 O   0  0  0  0  0  1  0  0  0  0  0  0
  179.0900  177.7600  139.0050 N   0  0  0  0  0  1  0  0  0  0  0  0
  181.5260  178.5480  141.7020 C   0  0  0  0  0  0  0  0  0  0  0  0
  181.5060  178.7430  143.0450 N   0  0  0  0  0  0  0  0  0  0  0  0
  182.6350  179.0070  143.7470 C   0  0  0  0  0  3  0  0  0  0  0  0
  180.3140  178.0570  139.6660 C   0  0  0  0  0  0  0  0  0  0  0  0
  181.4990  178.1330  138.9380 C   0  0  0  0  0  3  0  0  0  0  0  0
  183.9350  178.9150  141.7020 C   0  0  0  0  0  0  0  0  0  0  0  0
  180.3280  178.2640  141.0440 C   0  0  0  0  0  3  0  0  0  0  0  0
  185.2720  179.0100  141.0330 C   0  0  0  0  0  1  0  0  0  0  0  0
  182.7460  178.6360  140.9770 C   0  0  0  0  0  0  0  0  0  0  0  0
  182.7100  178.4230  139.5730 C   0  0  0  0  0  0  0  0  0  0  0  0
  1  3  1  0  0  0  0
  2  1  2  0  0  0  0
  3  5  1  0  0  0  0
  4  6  1  0  0  0  0
  5  4  1  0  0  0  0
  5  6  1  0  0  0  0
  7  2  1  0  0  0  0
  8 10  2  0  0  0  0
  8  9  1  0  0  0  0
  9 11  1  0  0  0  0
 10 12  1  0  0  0  0
 11  7  1  6  0  0  0
 12 11  1  0  0  0  0
 13 16  2  0  0  0  0
 14 10  1  0  0  0  0
 16 15  1  0  0  0  0
 16 14  1  0  0  0  0
 17 18  1  0  0  0  0
 17  1  1  0  0  0  0
 19 18  1  0  0  0  0
 20 25  1  0  0  0  0
 20 19  1  0  0  0  0
 21 32  1  0  0  0  0
 22 26  1  0  0  0  0
 23 24  1  0  0  0  0
 24 25  2  0  0  0  0
 26 29  2  0  0  0  0
 27 32  2  0  0  0  0
 27 26  1  0  0  0  0
 28 20  2  0  0  0  0
 29 23  1  0  0  0  0
 30 28  1  0  0  0  0
 31 28  1  0  0  0  0
 31 23  2  0  0  0  0
 32 31  1  0  0  0  0
M  END
>  <MODEL>
7

>  <REMARK>
 VINA RESULT:      -7.8      1.566      2.226
  Name = 
  9 active torsions:
  status: ('A' for Active; 'I' for Inactive)
    1  A    between atoms: C_1  and  C_19
    2  A    between atoms: C_3  and  C_15
    3  A    between atoms: C_3  and  C_29
    4  A    between atoms: C_11  and  C_15
    5  A    between atoms: C_12  and  N_16
    6  A    between atoms: N_14  and  C_21
    7  A    between atoms: C_19  and  O_25
    8  A    between atoms: C_21  and  C_23
    9  A    between atoms: O_25  and  C_29
                            x       y       z     vdW  Elec       q    Type
                         _______ _______ _______ _____ _____    ______ ____

>  <TORSDO>
F 9

$$$$
=
 OpenBabel11042413093D

 32 35  0  0  1  0  0  0  0  0999 V2000
  185.1200  178.9160  140.6950 C   0  0  0  0  0  0  0  0  0  0  0  0
  185.5980  178.4100  139.6070 N   0  0  0  0  0  0  0  0  0  0  0  0
  183.6310  178.9950  140.8510 C   0  0  0  0  0  2  0  0  0  0  0  0
  182.0310  178.1300  139.1770 C   0  0  0  0  0  2  0  0  0  0  0  0
  182.9680  177.7430  140.3030 C   0  0  0  0  0  3  0  0  0  0  0  0
  181.4740  177.8180  140.5500 C   0  0  0  0  0  2  0  0  0  0  0  0
  187.0110  178.2640  139.3340 C   0  0  0  0  0  2  0  0  0  0  0  0
  189.4250  178.1990  136.9290 C   0  0  0  0  0  3  0  0  0  0  0  0
  188.3930  179.0100  137.4590 N   0  0  0  0  0  2  0  0  0  0  0  0
  189.0630  176.9310  136.9280 C   0  0  0  0  0  0  0  0  0  0  0  0
  187.2660  178.1680  137.8330 C   0  0  1  0  0  3  0  0  0  0  0  0
  187.6960  176.7440  137.4800 C   0  0  0  0  0  2  0  0  0  0  0  0
  191.3160  174.0440  136.7710 O   0  0  0  0  0  0  0  0  0  0  0  0
  189.8730  175.8410  136.4730 N   0  0  0  0  0  2  0  0  0  0  0  0
  190.8290  175.2450  138.6570 O   0  0  0  0  0  1  0  0  0  0  0  0
  190.6940  175.0050  137.2950 C   0  0  0  0  0  0  0  0  0  0  0  0
  186.0230  179.3920  141.8070 C   0  0  0  0  0  2  0  0  0  0  0  0
  185.5960  178.9110  143.0470 O   0  0  0  0  0  0  0  0  0  0  0  0
  186.0090  177.5790  143.0720 C   0  0  0  0  0  2  0  0  0  0  0  0
  187.0580  177.4000  144.1210 C   0  0  0  0  0  0  0  0  0  0  0  0
  191.2610  176.6090  143.3120 O   0  0  0  0  0  1  0  0  0  0  0  0
  192.0990  176.7610  148.0610 N   0  0  0  0  0  1  0  0  0  0  0  0
  188.9270  177.1780  146.1650 C   0  0  0  0  0  0  0  0  0  0  0  0
  187.6190  177.4180  146.4390 N   0  0  0  0  0  0  0  0  0  0  0  0
  186.6920  177.5330  145.4580 C   0  0  0  0  0  3  0  0  0  0  0  0
  191.1820  176.8440  146.9770 C   0  0  0  0  0  0  0  0  0  0  0  0
  191.6340  176.6900  145.6680 C   0  0  0  0  0  3  0  0  0  0  0  0
  188.4020  177.1360  143.7860 C   0  0  0  0  0  0  0  0  0  0  0  0
  189.8330  177.0870  147.2240 C   0  0  0  0  0  3  0  0  0  0  0  0
  188.7680  177.0010  142.3390 C   0  0  0  0  0  1  0  0  0  0  0  0
  189.3670  177.0200  144.8220 C   0  0  0  0  0  0  0  0  0  0  0  0
  190.7450  176.7710  144.5920 C   0  0  0  0  0  0  0  0  0  0  0  0
  1  3  1  0  0  0  0
  1 17  1  0  0  0  0
  2  1  2  0  0  0  0
  4  5  1  0  0  0  0
  4  6  1  0  0  0  0
  5  6  1  0  0  0  0
  5  3  1  0  0  0  0
  7  2  1  0  0  0  0
  8  9  1  0  0  0  0
  9 11  1  0  0  0  0
 10  8  2  0  0  0  0
 10 12  1  0  0  0  0
 11  7  1  1  0  0  0
 12 11  1  0  0  0  0
 13 16  2  0  0  0  0
 14 10  1  0  0  0  0
 14 16  1  0  0  0  0
 16 15  1  0  0  0  0
 17 18  1  0  0  0  0
 18 19  1  0  0  0  0
 19 20  1  0  0  0  0
 20 25  1  0  0  0  0
 21 32  1  0  0  0  0
 23 24  1  0  0  0  0
 23 29  1  0  0  0  0
 25 24  2  0  0  0  0
 26 29  2  0  0  0  0
 26 22  1  0  0  0  0
 27 26  1  0  0  0  0
 28 20  2  0  0  0  0
 28 31  1  0  0  0  0
 30 28  1  0  0  0  0
 31 23  2  0  0  0  0
 32 31  1  0  0  0  0
 32 27  2  0  0  0  0
M  END
>  <MODEL>
8

>  <REMARK>
 VINA RESULT:      -7.8      2.632      7.440
  Name = 
  9 active torsions:
  status: ('A' for Active; 'I' for Inactive)
    1  A    between atoms: C_1  and  C_19
    2  A    between atoms: C_3  and  C_15
    3  A    between atoms: C_3  and  C_29
    4  A    between atoms: C_11  and  C_15
    5  A    between atoms: C_12  and  N_16
    6  A    between atoms: N_14  and  C_21
    7  A    between atoms: C_19  and  O_25
    8  A    between atoms: C_21  and  C_23
    9  A    between atoms: O_25  and  C_29
                            x       y       z     vdW  Elec       q    Type
                         _______ _______ _______ _____ _____    ______ ____

>  <TORSDO>
F 9

$$$$
=
 OpenBabel11042413093D

 32 35  0  0  1  0  0  0  0  0999 V2000
  182.5550  178.6130  141.7310 C   0  0  0  0  0  0  0  0  0  0  0  0
  181.3210  178.8430  141.4270 N   0  0  0  0  0  0  0  0  0  0  0  0
  183.4480  178.0190  140.6830 C   0  0  0  0  0  2  0  0  0  0  0  0
  183.8860  179.5780  138.8160 C   0  0  0  0  0  2  0  0  0  0  0  0
  184.4080  179.0650  140.1420 C   0  0  0  0  0  3  0  0  0  0  0  0
  185.0120  178.5670  138.8440 C   0  0  0  0  0  2  0  0  0  0  0  0
  180.3570  179.4220  142.3370 C   0  0  0  0  0  2  0  0  0  0  0  0
  179.0560  181.8730  140.3590 C   0  0  0  0  0  3  0  0  0  0  0  0
  178.9830  181.3300  141.6640 N   0  0  0  0  0  2  0  0  0  0  0  0
  179.2140  180.9160  139.4670 C   0  0  0  0  0  0  0  0  0  0  0  0
  179.1110  179.8820  141.5870 C   0  0  1  0  0  3  0  0  0  0  0  0
  179.2690  179.5720  140.0990 C   0  0  0  0  0  2  0  0  0  0  0  0
  180.4820  181.7160  136.1220 O   0  0  0  0  0  0  0  0  0  0  0  0
  179.3400  181.1160  138.0540 N   0  0  0  0  0  2  0  0  0  0  0  0
  181.5950  182.0920  138.0870 O   0  0  0  0  0  1  0  0  0  0  0  0
  180.4860  181.6430  137.3790 C   0  0  0  0  0  0  0  0  0  0  0  0
  183.1100  178.9580  143.0910 C   0  0  0  0  0  2  0  0  0  0  0  0
  184.2510  178.2040  143.3790 O   0  0  0  0  0  0  0  0  0  0  0  0
  184.6880  178.6810  144.6140 C   0  0  0  0  0  2  0  0  0  0  0  0
  186.0980  178.2460  144.8480 C   0  0  0  0  0  0  0  0  0  0  0  0
  188.0100  178.0270  148.7520 O   0  0  0  0  0  1  0  0  0  0  0  0
  191.9610  176.2750  146.6070 N   0  0  0  0  0  1  0  0  0  0  0  0
  188.7040  177.3330  145.1540 C   0  0  0  0  0  0  0  0  0  0  0  0
  188.1290  177.4010  143.9260 N   0  0  0  0  0  0  0  0  0  0  0  0
  186.8590  177.8390  143.7550 C   0  0  0  0  0  3  0  0  0  0  0  0
  190.6310  176.7710  146.5070 C   0  0  0  0  0  0  0  0  0  0  0  0
  189.9450  177.1640  147.6540 C   0  0  0  0  0  3  0  0  0  0  0  0
  186.6570  178.2090  146.1420 C   0  0  0  0  0  0  0  0  0  0  0  0
  190.0120  176.8550  145.2620 C   0  0  0  0  0  3  0  0  0  0  0  0
  185.8140  178.6490  147.3010 C   0  0  0  0  0  1  0  0  0  0  0  0
  187.9880  177.7440  146.3120 C   0  0  0  0  0  0  0  0  0  0  0  0
  188.6370  177.6520  147.5710 C   0  0  0  0  0  0  0  0  0  0  0  0
  1 17  1  0  0  0  0
  2  1  2  0  0  0  0
  2  7  1  0  0  0  0
  3  1  1  0  0  0  0
  4  6  1  0  0  0  0
  4  5  1  0  0  0  0
  5  3  1  0  0  0  0
  6  5  1  0  0  0  0
  8  9  1  0  0  0  0
 10 12  1  0  0  0  0
 10  8  2  0  0  0  0
 11  9  1  0  0  0  0
 11  7  1  1  0  0  0
 12 11  1  0  0  0  0
 13 16  2  0  0  0  0
 14 10  1  0  0  0  0
 16 14  1  0  0  0  0
 16 15  1  0  0  0  0
 17 18  1  0  0  0  0
 18 19  1  0  0  0  0
 19 20  1  0  0  0  0
 20 28  1  0  0  0  0
 23 29  1  0  0  0  0
 23 31  1  0  0  0  0
 24 23  2  0  0  0  0
 25 24  1  0  0  0  0
 25 20  2  0  0  0  0
 26 22  1  0  0  0  0
 26 27  1  0  0  0  0
 28 31  2  0  0  0  0
 28 30  1  0  0  0  0
 29 26  2  0  0  0  0
 31 32  1  0  0  0  0
 32 27  2  0  0  0  0
 32 21  1  0  0  0  0
M  END
>  <MODEL>
9

>  <REMARK>
 VINA RESULT:      -7.7      3.174      8.756
  Name = 
  9 active torsions:
  status: ('A' for Active; 'I' for Inactive)
    1  A    between atoms: C_1  and  C_19
    2  A    between atoms: C_3  and  C_15
    3  A    between atoms: C_3  and  C_29
    4  A    between atoms: C_11  and  C_15
    5  A    between atoms: C_12  and  N_16
    6  A    between atoms: N_14  and  C_21
    7  A    between atoms: C_19  and  O_25
    8  A    between atoms: C_21  and  C_23
    9  A    between atoms: O_25  and  C_29
                            x       y       z     vdW  Elec       q    Type
                         _______ _______ _______ _____ _____    ______ ____

>  <TORSDO>
F 9

$$$$
