=
 OpenBabel11042412133D

 37 42  0  0  1  0  0  0  0  0999 V2000
  188.3080  176.7980  135.4500 N   0  0  0  0  0  2  0  0  0  0  0  0
  187.7600  177.4790  137.7010 C   0  0  1  0  0  0  0  0  0  0  0  0
  187.6510  175.9690  137.5990 C   0  0  0  0  0  2  0  0  0  0  0  0
  187.7060  175.6570  136.1160 C   0  0  0  0  0  2  0  0  0  0  0  0
  187.9460  177.9480  136.2640 C   0  0  0  0  0  2  0  0  0  0  0  0
  184.5290  178.9920  142.0730 C   0  0  0  0  0  3  0  0  0  0  0  0
  181.9100  178.3950  141.0230 C   0  0  0  0  0  0  0  0  0  0  0  0
  182.1090  178.4900  142.5210 C   0  0  1  0  0  3  0  0  0  0  0  0
  184.4580  178.5220  138.5060 C   0  0  0  0  0  0  0  0  0  0  0  0
  183.5390  178.7780  142.9640 C   0  0  0  0  0  0  0  0  0  0  0  0
  185.1210  178.9160  139.5880 C   0  0  0  0  0  0  0  0  0  0  0  0
  186.4710  178.0150  138.2820 C   0  0  0  0  0  0  0  0  0  0  0  0
  185.2690  177.9070  137.6340 N   0  0  0  0  0  0  0  0  0  0  0  0
  184.2440  178.9490  140.6300 C   0  0  0  0  0  0  0  0  0  0  0  0
  186.4090  178.5850  139.5240 N   0  0  0  0  0  2  0  0  0  0  0  0
  183.0270  178.6120  140.1480 N   0  0  0  0  0  0  0  0  0  0  0  0
  183.1370  178.2820  138.8300 C   0  0  0  0  0  3  0  0  0  0  0  0
  180.7770  178.0990  140.5670 O   0  0  0  0  0  0  0  0  0  0  0  0
  181.2080  179.4830  143.0960 N   0  0  0  0  0  1  0  0  0  0  0  0
  183.8030  178.7880  144.3440 O   0  0  0  0  0  0  0  0  0  0  0  0
  185.0920  178.5740  144.8960 C   0  0  0  0  0  1  0  0  0  0  0  0
  189.2710  179.1010  138.5520 O   0  0  0  0  0  0  0  0  0  0  0  0
  188.9770  177.9160  138.4990 C   0  0  0  0  0  0  0  0  0  0  0  0
  189.9080  176.8770  139.1020 C   0  0  2  0  0  3  0  0  0  0  0  0
  189.8650  176.7760  140.6300 C   0  0  1  0  0  3  0  0  0  0  0  0
  191.0190  177.4830  139.9440 C   0  0  0  0  0  2  0  0  0  0  0  0
  188.9970  177.7700  141.2600 N   0  0  0  0  0  2  0  0  0  0  0  0
  188.2370  177.0590  142.2740 C   0  0  0  0  0  2  0  0  0  0  0  0
  189.1850  176.5350  143.3430 C   0  0  0  0  0  2  0  0  0  0  0  0
  191.9890  176.8070  143.1900 O   0  0  0  0  0  0  0  0  0  0  0  0
  191.8330  179.1270  144.1840 O   0  0  0  0  0  0  0  0  0  0  0  0
  191.3320  177.7100  144.1970 S   0  0  0  0  0  0  0  0  0  0  0  0
  189.6080  177.6300  144.2050 N   0  0  0  0  0  0  0  0  0  0  0  0
  189.5940  177.1270  145.5890 C   0  0  1  0  0  3  0  0  0  0  0  0
  191.1110  177.0540  145.8100 C   0  0  0  0  0  2  0  0  0  0  0  0
  188.0530  177.4260  147.1600 C   0  0  0  0  0  1  0  0  0  0  0  0
  189.0480  178.1030  146.4240 O   0  0  0  0  0  0  0  0  0  0  0  0
  1  4  1  0  0  0  0
  1  5  1  0  0  0  0
  2 12  1  0  0  0  0
  2 23  1  1  0  0  0
  3  2  1  0  0  0  0
  4  3  1  0  0  0  0
  5  2  1  0  0  0  0
  6 10  2  0  0  0  0
  7  8  1  0  0  0  0
  8 10  1  0  0  0  0
  8 19  1  6  0  0  0
  9 17  2  0  0  0  0
  9 11  1  0  0  0  0
 10 20  1  0  0  0  0
 11 14  2  0  0  0  0
 12 15  1  0  0  0  0
 13 12  2  0  0  0  0
 13  9  1  0  0  0  0
 14  6  1  0  0  0  0
 15 11  1  0  0  0  0
 16 14  1  0  0  0  0
 16  7  1  0  0  0  0
 17 16  1  0  0  0  0
 18  7  2  0  0  0  0
 20 21  1  0  0  0  0
 23 22  2  0  0  0  0
 24 23  1  1  0  0  0
 24 26  1  0  0  0  0
 24 25  1  0  0  0  0
 25 27  1  1  0  0  0
 26 25  1  0  0  0  0
 27 28  1  0  0  0  0
 28 29  1  0  0  0  0
 29 33  1  0  0  0  0
 30 32  2  0  0  0  0
 31 32  2  0  0  0  0
 32 33  1  0  0  0  0
 32 35  1  0  0  0  0
 33 34  1  0  0  0  0
 34 35  1  0  0  0  0
 34 37  1  1  0  0  0
 37 36  1  0  0  0  0
M  END
>  <MODEL>
1

>  <REMARK>
 VINA RESULT:      -7.8      0.000      0.000
  Name = 
  9 active torsions:
  status: ('A' for Active; 'I' for Inactive)
    1  A    between atoms: C_6  and  C_35
    2  A    between atoms: C_7  and  N_14
    3  A    between atoms: C_7  and  C_22
    4  A    between atoms: C_8  and  C_18
    5  A    between atoms: C_8  and  C_35
    6  A    between atoms: C_9  and  N_33
    7  A    between atoms: C_13  and  O_17
    8  A    between atoms: C_20  and  O_28
    9  A    between atoms: C_22  and  N_33
                            x       y       z     vdW  Elec       q    Type
                         _______ _______ _______ _____ _____    ______ ____

>  <TORSDO>
F 9

$$$$
=
 OpenBabel11042412133D

 37 42  0  0  1  0  0  0  0  0999 V2000
  192.0720  178.0940  144.7930 N   0  0  0  0  0  2  0  0  0  0  0  0
  190.1640  177.6210  143.3920 C   0  0  1  0  0  0  0  0  0  0  0  0
  190.5550  179.0770  143.2210 C   0  0  0  0  0  2  0  0  0  0  0  0
  191.5400  179.3660  144.3380 C   0  0  0  0  0  2  0  0  0  0  0  0
  191.0070  177.1310  144.5620 C   0  0  0  0  0  2  0  0  0  0  0  0
  184.7240  178.1450  141.9860 C   0  0  0  0  0  3  0  0  0  0  0  0
  183.6000  178.9420  144.5210 C   0  0  0  0  0  0  0  0  0  0  0  0
  182.8480  179.2460  143.2420 C   0  0  1  0  0  3  0  0  0  0  0  0
  186.8980  177.5650  144.7950 C   0  0  0  0  0  0  0  0  0  0  0  0
  183.5490  178.8090  141.9610 C   0  0  0  0  0  0  0  0  0  0  0  0
  186.6260  177.3730  143.5090 C   0  0  0  0  0  0  0  0  0  0  0  0
  188.6900  177.5550  143.7240 C   0  0  0  0  0  0  0  0  0  0  0  0
  188.2130  177.7180  144.9980 N   0  0  0  0  0  0  0  0  0  0  0  0
  185.3630  177.8260  143.2730 C   0  0  0  0  0  0  0  0  0  0  0  0
  187.7290  177.3960  142.7630 N   0  0  0  0  0  2  0  0  0  0  0  0
  184.8580  178.2530  144.4510 N   0  0  0  0  0  0  0  0  0  0  0  0
  185.8150  178.1570  145.4170 C   0  0  0  0  0  3  0  0  0  0  0  0
  183.1280  179.3210  145.6210 O   0  0  0  0  0  0  0  0  0  0  0  0
  181.5070  178.6720  143.2870 N   0  0  0  0  0  1  0  0  0  0  0  0
  182.9420  179.1450  140.7390 O   0  0  0  0  0  0  0  0  0  0  0  0
  183.6450  179.2150  139.5090 C   0  0  0  0  0  1  0  0  0  0  0  0
  190.3540  175.5710  142.2070 O   0  0  0  0  0  0  0  0  0  0  0  0
  190.5170  176.7820  142.1750 C   0  0  0  0  0  0  0  0  0  0  0  0
  191.2080  177.4220  140.9820 C   0  0  2  0  0  3  0  0  0  0  0  0
  190.3110  177.6610  139.7630 C   0  0  1  0  0  3  0  0  0  0  0  0
  191.2920  176.5030  139.7740 C   0  0  0  0  0  2  0  0  0  0  0  0
  188.9530  177.1420  139.9230 N   0  0  0  0  0  2  0  0  0  0  0  0
  188.0770  178.0910  139.2600 C   0  0  0  0  0  2  0  0  0  0  0  0
  187.9050  177.6890  137.8020 C   0  0  0  0  0  2  0  0  0  0  0  0
  190.0830  176.6910  136.3130 O   0  0  0  0  0  0  0  0  0  0  0  0
  189.6410  174.3640  137.1990 O   0  0  0  0  0  0  0  0  0  0  0  0
  189.0620  175.6530  136.6900 S   0  0  0  0  0  0  0  0  0  0  0  0
  187.7930  176.2400  137.7010 N   0  0  0  0  0  0  0  0  0  0  0  0
  186.7800  175.9500  136.6720 C   0  0  1  0  0  3  0  0  0  0  0  0
  187.7220  175.4340  135.5770 C   0  0  0  0  0  2  0  0  0  0  0  0
  184.6530  175.4150  137.0200 C   0  0  0  0  0  1  0  0  0  0  0  0
  185.9650  174.9070  137.1150 O   0  0  0  0  0  0  0  0  0  0  0  0
  2 23  1  6  0  0  0
  2 12  1  0  0  0  0
  2  5  1  0  0  0  0
  3  2  1  0  0  0  0
  3  4  1  0  0  0  0
  4  1  1  0  0  0  0
  5  1  1  0  0  0  0
  6 14  1  0  0  0  0
  7 18  2  0  0  0  0
  8 19  1  1  0  0  0
  8  7  1  0  0  0  0
  9 13  1  0  0  0  0
  9 17  2  0  0  0  0
 10  6  2  0  0  0  0
 10  8  1  0  0  0  0
 11  9  1  0  0  0  0
 12 13  2  0  0  0  0
 14 11  2  0  0  0  0
 14 16  1  0  0  0  0
 15 11  1  0  0  0  0
 15 12  1  0  0  0  0
 16  7  1  0  0  0  0
 16 17  1  0  0  0  0
 20 10  1  0  0  0  0
 21 20  1  0  0  0  0
 23 22  2  0  0  0  0
 24 23  1  1  0  0  0
 25 26  1  0  0  0  0
 25 27  1  1  0  0  0
 25 24  1  0  0  0  0
 26 24  1  0  0  0  0
 28 27  1  0  0  0  0
 29 28  1  0  0  0  0
 30 32  2  0  0  0  0
 32 31  2  0  0  0  0
 32 33  1  0  0  0  0
 33 29  1  0  0  0  0
 34 37  1  1  0  0  0
 34 33  1  0  0  0  0
 35 34  1  0  0  0  0
 35 32  1  0  0  0  0
 36 37  1  0  0  0  0
M  END
>  <MODEL>
2

>  <REMARK>
 VINA RESULT:      -7.3      2.562      6.356
  Name = 
  9 active torsions:
  status: ('A' for Active; 'I' for Inactive)
    1  A    between atoms: C_6  and  C_35
    2  A    between atoms: C_7  and  N_14
    3  A    between atoms: C_7  and  C_22
    4  A    between atoms: C_8  and  C_18
    5  A    between atoms: C_8  and  C_35
    6  A    between atoms: C_9  and  N_33
    7  A    between atoms: C_13  and  O_17
    8  A    between atoms: C_20  and  O_28
    9  A    between atoms: C_22  and  N_33
                            x       y       z     vdW  Elec       q    Type
                         _______ _______ _______ _____ _____    ______ ____

>  <TORSDO>
F 9

$$$$
=
 OpenBabel11042412133D

 37 42  0  0  1  0  0  0  0  0999 V2000
  187.9500  179.1480  137.0360 N   0  0  0  0  0  2  0  0  0  0  0  0
  189.1930  177.3280  138.0220 C   0  0  1  0  0  0  0  0  0  0  0  0
  187.7280  176.9410  137.9420 C   0  0  0  0  0  2  0  0  0  0  0  0
  186.9880  178.2230  137.6070 C   0  0  0  0  0  2  0  0  0  0  0  0
  189.2210  178.8060  137.6550 C   0  0  0  0  0  2  0  0  0  0  0  0
  188.2390  176.8040  143.5590 C   0  0  0  0  0  3  0  0  0  0  0  0
  190.6960  177.8820  144.6200 C   0  0  0  0  0  0  0  0  0  0  0  0
  189.4610  177.8370  145.4960 C   0  0  1  0  0  3  0  0  0  0  0  0
  190.8870  177.0630  141.1360 C   0  0  0  0  0  0  0  0  0  0  0  0
  188.2130  177.2780  144.8230 C   0  0  0  0  0  0  0  0  0  0  0  0
  189.6840  176.6030  141.4610 C   0  0  0  0  0  0  0  0  0  0  0  0
  189.6690  177.1140  139.4410 C   0  0  0  0  0  0  0  0  0  0  0  0
  190.9350  177.4370  139.8500 N   0  0  0  0  0  0  0  0  0  0  0  0
  189.4950  176.8200  142.7930 C   0  0  0  0  0  0  0  0  0  0  0  0
  188.8440  176.6470  140.4280 N   0  0  0  0  0  2  0  0  0  0  0  0
  190.6260  177.3790  143.2770 N   0  0  0  0  0  0  0  0  0  0  0  0
  191.4980  177.5990  142.2530 C   0  0  0  0  0  3  0  0  0  0  0  0
  191.7550  178.3850  145.0700 O   0  0  0  0  0  0  0  0  0  0  0  0
  189.7300  177.0960  146.7240 N   0  0  0  0  0  1  0  0  0  0  0  0
  187.0150  177.2950  145.5560 O   0  0  0  0  0  0  0  0  0  0  0  0
  186.3820  178.4860  145.9950 C   0  0  0  0  0  1  0  0  0  0  0  0
  190.9140  177.1710  136.3930 O   0  0  0  0  0  0  0  0  0  0  0  0
  190.0430  176.5770  137.0110 C   0  0  0  0  0  0  0  0  0  0  0  0
  189.7170  175.1350  136.6600 C   0  0  2  0  0  3  0  0  0  0  0  0
  190.6860  174.0930  137.2260 C   0  0  1  0  0  3  0  0  0  0  0  0
  190.7560  174.4850  135.7620 C   0  0  0  0  0  2  0  0  0  0  0  0
  191.8250  174.6750  137.9350 N   0  0  0  0  0  2  0  0  0  0  0  0
  193.0140  174.1810  137.2650 C   0  0  0  0  0  2  0  0  0  0  0  0
  194.1180  175.2250  137.3550 C   0  0  0  0  0  2  0  0  0  0  0  0
  196.3120  176.1220  135.8250 O   0  0  0  0  0  0  0  0  0  0  0  0
  197.9060  175.3450  137.6290 O   0  0  0  0  0  0  0  0  0  0  0  0
  196.6550  175.0690  136.8440 S   0  0  0  0  0  0  0  0  0  0  0  0
  195.3380  174.6090  137.8590 N   0  0  0  0  0  0  0  0  0  0  0  0
  195.3720  173.2270  137.3510 C   0  0  1  0  0  3  0  0  0  0  0  0
  196.5000  173.4000  136.3250 C   0  0  0  0  0  2  0  0  0  0  0  0
  195.2900  171.1090  138.0130 C   0  0  0  0  0  1  0  0  0  0  0  0
  195.7970  172.3750  138.3720 O   0  0  0  0  0  0  0  0  0  0  0  0
  1  4  1  0  0  0  0
  1  5  1  0  0  0  0
  2 23  1  6  0  0  0
  2 12  1  0  0  0  0
  3  2  1  0  0  0  0
  4  3  1  0  0  0  0
  5  2  1  0  0  0  0
  6 10  2  0  0  0  0
  7 18  2  0  0  0  0
  7  8  1  0  0  0  0
  8 19  1  1  0  0  0
  9 11  1  0  0  0  0
  9 17  2  0  0  0  0
 10  8  1  0  0  0  0
 10 20  1  0  0  0  0
 11 14  2  0  0  0  0
 12 13  2  0  0  0  0
 12 15  1  0  0  0  0
 13  9  1  0  0  0  0
 14 16  1  0  0  0  0
 14  6  1  0  0  0  0
 15 11  1  0  0  0  0
 16  7  1  0  0  0  0
 17 16  1  0  0  0  0
 20 21  1  0  0  0  0
 22 23  2  0  0  0  0
 24 23  1  1  0  0  0
 24 25  1  0  0  0  0
 25 27  1  1  0  0  0
 26 24  1  0  0  0  0
 26 25  1  0  0  0  0
 28 29  1  0  0  0  0
 28 27  1  0  0  0  0
 29 33  1  0  0  0  0
 30 32  2  0  0  0  0
 32 31  2  0  0  0  0
 32 33  1  0  0  0  0
 34 33  1  0  0  0  0
 34 37  1  1  0  0  0
 35 32  1  0  0  0  0
 35 34  1  0  0  0  0
 36 37  1  0  0  0  0
M  END
>  <MODEL>
3

>  <REMARK>
 VINA RESULT:      -7.2      4.246      7.222
  Name = 
  9 active torsions:
  status: ('A' for Active; 'I' for Inactive)
    1  A    between atoms: C_6  and  C_35
    2  A    between atoms: C_7  and  N_14
    3  A    between atoms: C_7  and  C_22
    4  A    between atoms: C_8  and  C_18
    5  A    between atoms: C_8  and  C_35
    6  A    between atoms: C_9  and  N_33
    7  A    between atoms: C_13  and  O_17
    8  A    between atoms: C_20  and  O_28
    9  A    between atoms: C_22  and  N_33
                            x       y       z     vdW  Elec       q    Type
                         _______ _______ _______ _____ _____    ______ ____

>  <TORSDO>
F 9

$$$$
=
 OpenBabel11042412133D

 37 42  0  0  1  0  0  0  0  0999 V2000
  192.1460  175.4280  145.9370 N   0  0  0  0  0  2  0  0  0  0  0  0
  190.6290  177.1160  145.1150 C   0  0  1  0  0  0  0  0  0  0  0  0
  191.1030  177.5090  146.5010 C   0  0  0  0  0  2  0  0  0  0  0  0
  191.7910  176.2770  147.0590 C   0  0  0  0  0  2  0  0  0  0  0  0
  191.1370  175.6930  144.9230 C   0  0  0  0  0  2  0  0  0  0  0  0
  185.7170  178.1530  142.5360 C   0  0  0  0  0  3  0  0  0  0  0  0
  184.0920  178.9220  144.7920 C   0  0  0  0  0  0  0  0  0  0  0  0
  183.6820  179.3460  143.3970 C   0  0  1  0  0  3  0  0  0  0  0  0
  187.1300  177.2650  145.7250 C   0  0  0  0  0  0  0  0  0  0  0  0
  184.6300  178.9120  142.2860 C   0  0  0  0  0  0  0  0  0  0  0  0
  187.1530  177.1560  144.4010 C   0  0  0  0  0  0  0  0  0  0  0  0
  189.1170  177.1570  145.0950 C   0  0  0  0  0  0  0  0  0  0  0  0
  188.3690  177.2990  146.2330 N   0  0  0  0  0  0  0  0  0  0  0  0
  186.0150  177.7230  143.9120 C   0  0  0  0  0  0  0  0  0  0  0  0
  188.3980  177.1230  143.9310 N   0  0  0  0  0  2  0  0  0  0  0  0
  185.2800  178.1350  144.9680 N   0  0  0  0  0  0  0  0  0  0  0  0
  185.9760  177.9160  146.1190 C   0  0  0  0  0  3  0  0  0  0  0  0
  183.4030  179.2870  145.7770 O   0  0  0  0  0  0  0  0  0  0  0  0
  182.3300  178.8840  143.0960 N   0  0  0  0  0  1  0  0  0  0  0  0
  184.3500  179.3530  140.9810 O   0  0  0  0  0  0  0  0  0  0  0  0
  185.0020  178.8480  139.8270 C   0  0  0  0  0  1  0  0  0  0  0  0
  191.1370  179.2000  144.0950 O   0  0  0  0  0  0  0  0  0  0  0  0
  191.2420  177.9840  144.0280 C   0  0  0  0  0  0  0  0  0  0  0  0
  191.8500  177.3430  142.7910 C   0  0  2  0  0  3  0  0  0  0  0  0
  191.0370  177.5160  141.5040 C   0  0  1  0  0  3  0  0  0  0  0  0
  191.0240  176.1910  142.2440 C   0  0  0  0  0  2  0  0  0  0  0  0
  189.7570  178.1920  141.7050 N   0  0  0  0  0  2  0  0  0  0  0  0
  188.9660  177.9210  140.5170 C   0  0  0  0  0  2  0  0  0  0  0  0
  189.8900  177.7560  139.3200 C   0  0  0  0  0  2  0  0  0  0  0  0
  192.1820  176.4130  138.3710 O   0  0  0  0  0  0  0  0  0  0  0  0
  190.7940  174.3550  137.8870 O   0  0  0  0  0  0  0  0  0  0  0  0
  190.8820  175.8540  137.8630 S   0  0  0  0  0  0  0  0  0  0  0  0
  189.4780  176.5980  138.5370 N   0  0  0  0  0  0  0  0  0  0  0  0
  189.0530  177.0930  137.2160 C   0  0  1  0  0  3  0  0  0  0  0  0
  190.2420  176.5750  136.3960 C   0  0  0  0  0  2  0  0  0  0  0  0
  186.9630  177.4470  136.5530 C   0  0  0  0  0  1  0  0  0  0  0  0
  187.8920  176.4220  136.8290 O   0  0  0  0  0  0  0  0  0  0  0  0
  1  4  1  0  0  0  0
  2 23  1  6  0  0  0
  2  3  1  0  0  0  0
  3  4  1  0  0  0  0
  5  2  1  0  0  0  0
  5  1  1  0  0  0  0
  6 14  1  0  0  0  0
  7 16  1  0  0  0  0
  7 18  2  0  0  0  0
  8 19  1  6  0  0  0
  8  7  1  0  0  0  0
  9 17  2  0  0  0  0
  9 13  1  0  0  0  0
 10  6  2  0  0  0  0
 10  8  1  0  0  0  0
 11  9  1  0  0  0  0
 12  2  1  0  0  0  0
 12 13  2  0  0  0  0
 14 11  2  0  0  0  0
 14 16  1  0  0  0  0
 15 11  1  0  0  0  0
 15 12  1  0  0  0  0
 16 17  1  0  0  0  0
 20 10  1  0  0  0  0
 21 20  1  0  0  0  0
 23 22  2  0  0  0  0
 24 23  1  1  0  0  0
 25 27  1  1  0  0  0
 25 26  1  0  0  0  0
 25 24  1  0  0  0  0
 26 24  1  0  0  0  0
 28 27  1  0  0  0  0
 29 28  1  0  0  0  0
 32 31  2  0  0  0  0
 32 30  2  0  0  0  0
 32 33  1  0  0  0  0
 33 29  1  0  0  0  0
 34 37  1  6  0  0  0
 34 33  1  0  0  0  0
 35 34  1  0  0  0  0
 35 32  1  0  0  0  0
 36 37  1  0  0  0  0
M  END
>  <MODEL>
4

>  <REMARK>
 VINA RESULT:      -7.0      2.450      6.631
  Name = 
  9 active torsions:
  status: ('A' for Active; 'I' for Inactive)
    1  A    between atoms: C_6  and  C_35
    2  A    between atoms: C_7  and  N_14
    3  A    between atoms: C_7  and  C_22
    4  A    between atoms: C_8  and  C_18
    5  A    between atoms: C_8  and  C_35
    6  A    between atoms: C_9  and  N_33
    7  A    between atoms: C_13  and  O_17
    8  A    between atoms: C_20  and  O_28
    9  A    between atoms: C_22  and  N_33
                            x       y       z     vdW  Elec       q    Type
                         _______ _______ _______ _____ _____    ______ ____

>  <TORSDO>
F 9

$$$$
=
 OpenBabel11042412133D

 37 42  0  0  1  0  0  0  0  0999 V2000
  183.3030  180.1890  143.8980 N   0  0  0  0  0  2  0  0  0  0  0  0
  184.6850  178.7730  142.5140 C   0  0  1  0  0  0  0  0  0  0  0  0
  183.5190  177.9610  143.0450 C   0  0  0  0  0  2  0  0  0  0  0  0
  182.8870  178.8170  144.1260 C   0  0  0  0  0  2  0  0  0  0  0  0
  184.6140  180.0910  143.2750 C   0  0  0  0  0  2  0  0  0  0  0  0
  188.7180  177.1220  146.0990 C   0  0  0  0  0  3  0  0  0  0  0  0
  190.9810  176.9790  144.3150 C   0  0  0  0  0  0  0  0  0  0  0  0
  191.2130  177.1170  145.8050 C   0  0  1  0  0  3  0  0  0  0  0  0
  187.8300  177.1190  142.6120 C   0  0  0  0  0  0  0  0  0  0  0  0
  189.9480  177.2160  146.6480 C   0  0  0  0  0  0  0  0  0  0  0  0
  187.4520  177.0220  143.8810 C   0  0  0  0  0  0  0  0  0  0  0  0
  185.9670  178.0360  142.8290 C   0  0  0  0  0  0  0  0  0  0  0  0
  186.9260  177.7880  141.8830 N   0  0  0  0  0  0  0  0  0  0  0  0
  188.5730  176.9210  144.6480 C   0  0  0  0  0  0  0  0  0  0  0  0
  186.2840  177.6250  144.0950 N   0  0  0  0  0  2  0  0  0  0  0  0
  189.6360  176.9120  143.8140 N   0  0  0  0  0  0  0  0  0  0  0  0
  189.2090  177.0930  142.5330 C   0  0  0  0  0  3  0  0  0  0  0  0
  191.9650  176.9520  143.5350 O   0  0  0  0  0  0  0  0  0  0  0  0
  192.0470  176.0250  146.2970 N   0  0  0  0  0  1  0  0  0  0  0  0
  190.1000  177.4370  148.0280 O   0  0  0  0  0  0  0  0  0  0  0  0
  189.2930  178.3360  148.7700 C   0  0  0  0  0  1  0  0  0  0  0  0
  185.3580  179.8150  140.4880 O   0  0  0  0  0  0  0  0  0  0  0  0
  184.5470  179.0790  141.0320 C   0  0  0  0  0  0  0  0  0  0  0  0
  183.3270  178.5980  140.2630 C   0  0  2  0  0  3  0  0  0  0  0  0
  183.6330  177.7360  139.0340 C   0  0  1  0  0  3  0  0  0  0  0  0
  183.2260  179.1890  138.8670 C   0  0  0  0  0  2  0  0  0  0  0  0
  185.0610  177.6010  138.7530 N   0  0  0  0  0  2  0  0  0  0  0  0
  185.2110  177.7920  137.3210 C   0  0  0  0  0  2  0  0  0  0  0  0
  186.6260  178.2620  137.0170 C   0  0  0  0  0  2  0  0  0  0  0  0
  188.9500  179.7970  137.4680 O   0  0  0  0  0  0  0  0  0  0  0  0
  189.6530  178.2160  139.3130 O   0  0  0  0  0  0  0  0  0  0  0  0
  189.0430  178.3750  137.9500 S   0  0  0  0  0  0  0  0  0  0  0  0
  187.5820  177.4720  137.7830 N   0  0  0  0  0  0  0  0  0  0  0  0
  188.2190  176.5300  136.8470 C   0  0  1  0  0  3  0  0  0  0  0  0
  189.6030  177.1900  136.7830 C   0  0  0  0  0  2  0  0  0  0  0  0
  187.6850  174.3930  136.5710 C   0  0  0  0  0  1  0  0  0  0  0  0
  188.3260  175.2800  137.4590 O   0  0  0  0  0  0  0  0  0  0  0  0
  1  4  1  0  0  0  0
  2 23  1  6  0  0  0
  2 12  1  0  0  0  0
  2  3  1  0  0  0  0
  2  5  1  0  0  0  0
  3  4  1  0  0  0  0
  5  1  1  0  0  0  0
  6 10  2  0  0  0  0
  7  8  1  0  0  0  0
  8 19  1  1  0  0  0
  8 10  1  0  0  0  0
  9 11  1  0  0  0  0
 10 20  1  0  0  0  0
 11 15  1  0  0  0  0
 11 14  2  0  0  0  0
 12 15  1  0  0  0  0
 13  9  1  0  0  0  0
 13 12  2  0  0  0  0
 14  6  1  0  0  0  0
 16  7  1  0  0  0  0
 16 14  1  0  0  0  0
 17  9  2  0  0  0  0
 17 16  1  0  0  0  0
 18  7  2  0  0  0  0
 20 21  1  0  0  0  0
 22 23  2  0  0  0  0
 24 23  1  1  0  0  0
 25 27  1  1  0  0  0
 25 24  1  0  0  0  0
 26 25  1  0  0  0  0
 26 24  1  0  0  0  0
 28 27  1  0  0  0  0
 29 28  1  0  0  0  0
 29 33  1  0  0  0  0
 30 32  2  0  0  0  0
 32 31  2  0  0  0  0
 33 32  1  0  0  0  0
 34 37  1  1  0  0  0
 34 33  1  0  0  0  0
 35 34  1  0  0  0  0
 35 32  1  0  0  0  0
 36 37  1  0  0  0  0
M  END
>  <MODEL>
5

>  <REMARK>
 VINA RESULT:      -7.0      2.203      7.579
  Name = 
  9 active torsions:
  status: ('A' for Active; 'I' for Inactive)
    1  A    between atoms: C_6  and  C_35
    2  A    between atoms: C_7  and  N_14
    3  A    between atoms: C_7  and  C_22
    4  A    between atoms: C_8  and  C_18
    5  A    between atoms: C_8  and  C_35
    6  A    between atoms: C_9  and  N_33
    7  A    between atoms: C_13  and  O_17
    8  A    between atoms: C_20  and  O_28
    9  A    between atoms: C_22  and  N_33
                            x       y       z     vdW  Elec       q    Type
                         _______ _______ _______ _____ _____    ______ ____

>  <TORSDO>
F 9

$$$$
=
 OpenBabel11042412133D

 37 42  0  0  1  0  0  0  0  0999 V2000
  187.6900  177.1340  147.0590 N   0  0  0  0  0  2  0  0  0  0  0  0
  187.6580  177.5010  144.6730 C   0  0  1  0  0  0  0  0  0  0  0  0
  188.4740  178.5970  145.3320 C   0  0  0  0  0  2  0  0  0  0  0  0
  188.1940  178.4730  146.8180 C   0  0  0  0  0  2  0  0  0  0  0  0
  187.0070  176.7570  145.8310 C   0  0  0  0  0  2  0  0  0  0  0  0
  182.3100  178.8190  143.4470 C   0  0  0  0  0  3  0  0  0  0  0  0
  182.4210  178.8360  140.5640 C   0  0  0  0  0  0  0  0  0  0  0  0
  181.0870  178.6600  141.2580 C   0  0  1  0  0  3  0  0  0  0  0  0
  185.6510  178.9360  142.1140 C   0  0  0  0  0  0  0  0  0  0  0  0
  181.1510  178.6350  142.7810 C   0  0  0  0  0  0  0  0  0  0  0  0
  184.8410  179.0390  143.1610 C   0  0  0  0  0  0  0  0  0  0  0  0
  186.6150  178.1450  143.7890 C   0  0  0  0  0  0  0  0  0  0  0  0
  186.8050  178.3410  142.4460 N   0  0  0  0  0  0  0  0  0  0  0  0
  183.5580  179.0520  142.7020 C   0  0  0  0  0  0  0  0  0  0  0  0
  185.3830  178.5140  144.2580 N   0  0  0  0  0  2  0  0  0  0  0  0
  183.6100  179.0010  141.3520 N   0  0  0  0  0  0  0  0  0  0  0  0
  184.9060  178.8690  140.9520 C   0  0  0  0  0  3  0  0  0  0  0  0
  182.4740  178.8080  139.3090 O   0  0  0  0  0  0  0  0  0  0  0  0
  180.1430  179.6850  140.8250 N   0  0  0  0  0  1  0  0  0  0  0  0
  179.9580  178.3830  143.4790 O   0  0  0  0  0  0  0  0  0  0  0  0
  179.3510  179.3190  144.3560 C   0  0  0  0  0  1  0  0  0  0  0  0
  188.0020  175.6580  143.2140 O   0  0  0  0  0  0  0  0  0  0  0  0
  188.5280  176.5140  143.9110 C   0  0  0  0  0  0  0  0  0  0  0  0
  190.0320  176.4940  144.1300 C   0  0  2  0  0  3  0  0  0  0  0  0
  190.8560  177.1780  143.0350 C   0  0  1  0  0  3  0  0  0  0  0  0
  190.7770  175.6640  143.0980 C   0  0  0  0  0  2  0  0  0  0  0  0
  190.0550  177.6550  141.9090 N   0  0  0  0  0  2  0  0  0  0  0  0
  190.8800  177.4860  140.7250 C   0  0  0  0  0  2  0  0  0  0  0  0
  190.0840  176.7570  139.6530 C   0  0  0  0  0  2  0  0  0  0  0  0
  187.8250  178.4030  139.2700 O   0  0  0  0  0  0  0  0  0  0  0  0
  189.0610  179.7120  137.4950 O   0  0  0  0  0  0  0  0  0  0  0  0
  188.7720  178.3690  138.1030 S   0  0  0  0  0  0  0  0  0  0  0  0
  190.2110  177.4590  138.3830 N   0  0  0  0  0  0  0  0  0  0  0  0
  189.8660  176.5020  137.3180 C   0  0  1  0  0  3  0  0  0  0  0  0
  188.5100  177.1000  136.9190 C   0  0  0  0  0  2  0  0  0  0  0  0
  191.4150  175.3980  136.1720 C   0  0  0  0  0  1  0  0  0  0  0  0
  190.7680  176.6480  136.2630 O   0  0  0  0  0  0  0  0  0  0  0  0
  2 23  1  6  0  0  0
  2  3  1  0  0  0  0
  2  5  1  0  0  0  0
  3  4  1  0  0  0  0
  4  1  1  0  0  0  0
  5  1  1  0  0  0  0
  7  8  1  0  0  0  0
  7 16  1  0  0  0  0
  8 19  1  1  0  0  0
  8 10  1  0  0  0  0
  9 13  1  0  0  0  0
  9 11  1  0  0  0  0
 10  6  2  0  0  0  0
 10 20  1  0  0  0  0
 11 15  1  0  0  0  0
 12 15  1  0  0  0  0
 12  2  1  0  0  0  0
 13 12  2  0  0  0  0
 14 11  2  0  0  0  0
 14  6  1  0  0  0  0
 16 14  1  0  0  0  0
 17 16  1  0  0  0  0
 17  9  2  0  0  0  0
 18  7  2  0  0  0  0
 20 21  1  0  0  0  0
 22 23  2  0  0  0  0
 24 23  1  6  0  0  0
 25 27  1  6  0  0  0
 25 26  1  0  0  0  0
 25 24  1  0  0  0  0
 26 24  1  0  0  0  0
 28 27  1  0  0  0  0
 29 28  1  0  0  0  0
 31 32  2  0  0  0  0
 32 33  1  0  0  0  0
 32 30  2  0  0  0  0
 33 29  1  0  0  0  0
 34 37  1  6  0  0  0
 34 33  1  0  0  0  0
 35 34  1  0  0  0  0
 35 32  1  0  0  0  0
 36 37  1  0  0  0  0
M  END
>  <MODEL>
6

>  <REMARK>
 VINA RESULT:      -6.9      2.520      6.085
  Name = 
  9 active torsions:
  status: ('A' for Active; 'I' for Inactive)
    1  A    between atoms: C_6  and  C_35
    2  A    between atoms: C_7  and  N_14
    3  A    between atoms: C_7  and  C_22
    4  A    between atoms: C_8  and  C_18
    5  A    between atoms: C_8  and  C_35
    6  A    between atoms: C_9  and  N_33
    7  A    between atoms: C_13  and  O_17
    8  A    between atoms: C_20  and  O_28
    9  A    between atoms: C_22  and  N_33
                            x       y       z     vdW  Elec       q    Type
                         _______ _______ _______ _____ _____    ______ ____

>  <TORSDO>
F 9

$$$$
=
 OpenBabel11042412133D

 37 42  0  0  1  0  0  0  0  0999 V2000
  181.1630  179.2180  138.3170 N   0  0  0  0  0  2  0  0  0  0  0  0
  183.3740  178.5830  139.0500 C   0  0  1  0  0  0  0  0  0  0  0  0
  183.2780  180.0960  139.0200 C   0  0  0  0  0  2  0  0  0  0  0  0
  181.9950  180.4070  138.2720 C   0  0  0  0  0  2  0  0  0  0  0  0
  182.0950  178.1030  138.3760 C   0  0  0  0  0  2  0  0  0  0  0  0
  186.7530  174.6370  136.8460 C   0  0  0  0  0  3  0  0  0  0  0  0
  189.2890  176.0080  136.9340 C   0  0  0  0  0  0  0  0  0  0  0  0
  189.2610  174.4970  136.8520 C   0  0  1  0  0  3  0  0  0  0  0  0
  186.4760  178.1880  137.3600 C   0  0  0  0  0  0  0  0  0  0  0  0
  187.8680  173.8770  136.8440 C   0  0  0  0  0  0  0  0  0  0  0  0
  185.8870  177.0300  137.0850 C   0  0  0  0  0  0  0  0  0  0  0  0
  184.5910  178.1630  138.2580 C   0  0  0  0  0  0  0  0  0  0  0  0
  185.7020  178.9560  138.1390 N   0  0  0  0  0  0  0  0  0  0  0  0
  186.8610  176.1040  136.8590 C   0  0  0  0  0  0  0  0  0  0  0  0
  184.6920  176.9350  137.6640 N   0  0  0  0  0  2  0  0  0  0  0  0
  188.0520  176.7360  136.9580 N   0  0  0  0  0  0  0  0  0  0  0  0
  187.8490  178.0320  137.3280 C   0  0  0  0  0  3  0  0  0  0  0  0
  190.3930  176.6030  137.0090 O   0  0  0  0  0  0  0  0  0  0  0  0
  190.0120  174.0320  135.6900 N   0  0  0  0  0  1  0  0  0  0  0  0
  187.7790  172.4750  136.8600 O   0  0  0  0  0  0  0  0  0  0  0  0
  187.0790  171.7230  135.8820 C   0  0  0  0  0  1  0  0  0  0  0  0
  183.1590  176.8490  140.6600 O   0  0  0  0  0  0  0  0  0  0  0  0
  183.3920  178.0340  140.4670 C   0  0  0  0  0  0  0  0  0  0  0  0
  183.5480  178.9760  141.6490 C   0  0  2  0  0  3  0  0  0  0  0  0
  184.9930  179.2400  142.0820 C   0  0  1  0  0  3  0  0  0  0  0  0
  184.1140  178.3000  142.8860 C   0  0  0  0  0  2  0  0  0  0  0  0
  185.9800  178.4590  141.3390 N   0  0  0  0  0  2  0  0  0  0  0  0
  187.0670  178.1930  142.2660 C   0  0  0  0  0  2  0  0  0  0  0  0
  188.3590  177.9920  141.4880 C   0  0  0  0  0  2  0  0  0  0  0  0
  190.3940  176.3830  140.3790 O   0  0  0  0  0  0  0  0  0  0  0  0
  192.0710  177.3600  142.0000 O   0  0  0  0  0  0  0  0  0  0  0  0
  190.6730  176.8580  141.7780 S   0  0  0  0  0  0  0  0  0  0  0  0
  189.4860  177.9390  142.4110 N   0  0  0  0  0  0  0  0  0  0  0  0
  189.1290  176.9910  143.4810 C   0  0  1  0  0  3  0  0  0  0  0  0
  190.0710  175.8470  143.0810 C   0  0  0  0  0  2  0  0  0  0  0  0
  188.3910  177.4080  145.5330 C   0  0  0  0  0  1  0  0  0  0  0  0
  189.5310  177.5170  144.7090 O   0  0  0  0  0  0  0  0  0  0  0  0
  1  5  1  0  0  0  0
  2 23  1  1  0  0  0
  3  2  1  0  0  0  0
  4  1  1  0  0  0  0
  4  3  1  0  0  0  0
  5  2  1  0  0  0  0
  6 14  1  0  0  0  0
  7 16  1  0  0  0  0
  7 18  2  0  0  0  0
  8 19  1  6  0  0  0
  8  7  1  0  0  0  0
  9 13  1  0  0  0  0
 10  6  2  0  0  0  0
 10  8  1  0  0  0  0
 10 20  1  0  0  0  0
 11  9  1  0  0  0  0
 11 15  1  0  0  0  0
 12  2  1  0  0  0  0
 13 12  2  0  0  0  0
 14 16  1  0  0  0  0
 14 11  2  0  0  0  0
 15 12  1  0  0  0  0
 16 17  1  0  0  0  0
 17  9  2  0  0  0  0
 21 20  1  0  0  0  0
 23 22  2  0  0  0  0
 24 23  1  6  0  0  0
 24 25  1  0  0  0  0
 24 26  1  0  0  0  0
 25 27  1  6  0  0  0
 25 26  1  0  0  0  0
 27 28  1  0  0  0  0
 29 28  1  0  0  0  0
 29 33  1  0  0  0  0
 30 32  2  0  0  0  0
 32 31  2  0  0  0  0
 32 33  1  0  0  0  0
 32 35  1  0  0  0  0
 33 34  1  0  0  0  0
 34 37  1  1  0  0  0
 35 34  1  0  0  0  0
 37 36  1  0  0  0  0
M  END
>  <MODEL>
7

>  <REMARK>
 VINA RESULT:      -6.8      2.168      6.278
  Name = 
  9 active torsions:
  status: ('A' for Active; 'I' for Inactive)
    1  A    between atoms: C_6  and  C_35
    2  A    between atoms: C_7  and  N_14
    3  A    between atoms: C_7  and  C_22
    4  A    between atoms: C_8  and  C_18
    5  A    between atoms: C_8  and  C_35
    6  A    between atoms: C_9  and  N_33
    7  A    between atoms: C_13  and  O_17
    8  A    between atoms: C_20  and  O_28
    9  A    between atoms: C_22  and  N_33
                            x       y       z     vdW  Elec       q    Type
                         _______ _______ _______ _____ _____    ______ ____

>  <TORSDO>
F 9

$$$$
=
 OpenBabel11042412133D

 37 42  0  0  1  0  0  0  0  0999 V2000
  191.1780  174.2790  137.4980 N   0  0  0  0  0  2  0  0  0  0  0  0
  190.4280  176.4780  138.1520 C   0  0  1  0  0  0  0  0  0  0  0  0
  191.9450  176.4530  138.1470 C   0  0  0  0  0  2  0  0  0  0  0  0
  192.3260  174.9900  138.0310 C   0  0  0  0  0  2  0  0  0  0  0  0
  190.0190  175.0230  137.9640 C   0  0  0  0  0  2  0  0  0  0  0  0
  191.1600  177.3520  143.6790 C   0  0  0  0  0  3  0  0  0  0  0  0
  188.4270  177.2350  144.5960 C   0  0  0  0  0  0  0  0  0  0  0  0
  189.5550  176.9990  145.5780 C   0  0  1  0  0  3  0  0  0  0  0  0
  188.7230  177.6390  141.0470 C   0  0  0  0  0  0  0  0  0  0  0  0
  190.9550  177.0520  144.9790 C   0  0  0  0  0  0  0  0  0  0  0  0
  189.9870  177.7360  141.4400 C   0  0  0  0  0  0  0  0  0  0  0  0
  189.9610  177.0020  139.4910 C   0  0  0  0  0  0  0  0  0  0  0  0
  188.6350  177.1450  139.8050 N   0  0  0  0  0  0  0  0  0  0  0  0
  190.0150  177.6350  142.7990 C   0  0  0  0  0  0  0  0  0  0  0  0
  190.8290  177.3060  140.5030 N   0  0  0  0  0  2  0  0  0  0  0  0
  188.7370  177.5220  143.2230 N   0  0  0  0  0  0  0  0  0  0  0  0
  187.9040  177.4630  142.1460 C   0  0  0  0  0  3  0  0  0  0  0  0
  187.2370  177.1490  144.9880 O   0  0  0  0  0  0  0  0  0  0  0  0
  189.4640  177.9310  146.6970 N   0  0  0  0  0  1  0  0  0  0  0  0
  192.0370  176.7510  145.8230 O   0  0  0  0  0  0  0  0  0  0  0  0
  192.0560  175.6410  146.7060 C   0  0  0  0  0  1  0  0  0  0  0  0
  190.1810  176.9930  135.8460 O   0  0  0  0  0  0  0  0  0  0  0  0
  189.8610  177.2790  136.9910 C   0  0  0  0  0  0  0  0  0  0  0  0
  189.0240  178.5190  137.2560 C   0  0  2  0  0  3  0  0  0  0  0  0
  187.5090  178.3150  137.1530 C   0  0  1  0  0  3  0  0  0  0  0  0
  188.2650  179.0040  136.0320 C   0  0  0  0  0  2  0  0  0  0  0  0
  187.1270  176.9720  136.7200 N   0  0  0  0  0  2  0  0  0  0  0  0
  185.7780  176.7560  137.2140 C   0  0  0  0  0  2  0  0  0  0  0  0
  185.4230  177.8490  138.2110 C   0  0  0  0  0  2  0  0  0  0  0  0
  184.7680  179.7530  140.1870 O   0  0  0  0  0  0  0  0  0  0  0  0
  182.5250  180.1450  139.0860 O   0  0  0  0  0  0  0  0  0  0  0  0
  183.5800  179.1530  139.4860 S   0  0  0  0  0  0  0  0  0  0  0  0
  183.9840  178.0800  138.1970 N   0  0  0  0  0  0  0  0  0  0  0  0
  183.3530  176.9430  138.8870 C   0  0  1  0  0  3  0  0  0  0  0  0
  182.9330  177.6720  140.1710 C   0  0  0  0  0  2  0  0  0  0  0  0
  182.4050  175.1790  137.9260 C   0  0  0  0  0  1  0  0  0  0  0  0
  182.2150  176.5530  138.1790 O   0  0  0  0  0  0  0  0  0  0  0  0
  1  5  1  0  0  0  0
  1  4  1  0  0  0  0
  2 23  1  6  0  0  0
  2 12  1  0  0  0  0
  3  2  1  0  0  0  0
  4  3  1  0  0  0  0
  5  2  1  0  0  0  0
  6 10  2  0  0  0  0
  7 18  2  0  0  0  0
  7  8  1  0  0  0  0
  8 19  1  1  0  0  0
  9 11  1  0  0  0  0
  9 17  2  0  0  0  0
 10  8  1  0  0  0  0
 10 20  1  0  0  0  0
 11 14  2  0  0  0  0
 12 13  2  0  0  0  0
 12 15  1  0  0  0  0
 13  9  1  0  0  0  0
 14 16  1  0  0  0  0
 14  6  1  0  0  0  0
 15 11  1  0  0  0  0
 16  7  1  0  0  0  0
 17 16  1  0  0  0  0
 20 21  1  0  0  0  0
 22 23  2  0  0  0  0
 24 23  1  6  0  0  0
 25 27  1  6  0  0  0
 25 24  1  0  0  0  0
 26 25  1  0  0  0  0
 26 24  1  0  0  0  0
 27 28  1  0  0  0  0
 28 29  1  0  0  0  0
 31 32  2  0  0  0  0
 32 35  1  0  0  0  0
 32 30  2  0  0  0  0
 33 29  1  0  0  0  0
 33 34  1  0  0  0  0
 33 32  1  0  0  0  0
 34 37  1  6  0  0  0
 34 35  1  0  0  0  0
 36 37  1  0  0  0  0
M  END
>  <MODEL>
8

>  <REMARK>
 VINA RESULT:      -6.8      2.723      6.881
  Name = 
  9 active torsions:
  status: ('A' for Active; 'I' for Inactive)
    1  A    between atoms: C_6  and  C_35
    2  A    between atoms: C_7  and  N_14
    3  A    between atoms: C_7  and  C_22
    4  A    between atoms: C_8  and  C_18
    5  A    between atoms: C_8  and  C_35
    6  A    between atoms: C_9  and  N_33
    7  A    between atoms: C_13  and  O_17
    8  A    between atoms: C_20  and  O_28
    9  A    between atoms: C_22  and  N_33
                            x       y       z     vdW  Elec       q    Type
                         _______ _______ _______ _____ _____    ______ ____

>  <TORSDO>
F 9

$$$$
=
 OpenBabel11042412133D

 37 42  0  0  1  0  0  0  0  0999 V2000
  191.9250  175.4840  143.9840 N   0  0  0  0  0  2  0  0  0  0  0  0
  190.1850  176.9820  143.2380 C   0  0  1  0  0  0  0  0  0  0  0  0
  191.0100  177.6740  144.3070 C   0  0  0  0  0  2  0  0  0  0  0  0
  191.8640  176.5860  144.9280 C   0  0  0  0  0  2  0  0  0  0  0  0
  190.6680  175.5380  143.2550 C   0  0  0  0  0  2  0  0  0  0  0  0
  184.7700  178.0000  142.0200 C   0  0  0  0  0  3  0  0  0  0  0  0
  183.8300  178.9660  144.5700 C   0  0  0  0  0  0  0  0  0  0  0  0
  183.0600  179.3100  143.3120 C   0  0  1  0  0  3  0  0  0  0  0  0
  186.9870  177.2800  144.7620 C   0  0  0  0  0  0  0  0  0  0  0  0
  183.6650  178.7750  142.0200 C   0  0  0  0  0  0  0  0  0  0  0  0
  186.6470  177.0840  143.4930 C   0  0  0  0  0  0  0  0  0  0  0  0
  188.7260  177.0690  143.6260 C   0  0  0  0  0  0  0  0  0  0  0  0
  188.3180  177.3090  144.9110 N   0  0  0  0  0  0  0  0  0  0  0  0
  185.4250  177.6520  143.2910 C   0  0  0  0  0  0  0  0  0  0  0  0
  187.7170  176.9810  142.7060 N   0  0  0  0  0  2  0  0  0  0  0  0
  185.0120  178.1560  144.4740 N   0  0  0  0  0  0  0  0  0  0  0  0
  185.9930  177.9910  145.4060 C   0  0  0  0  0  3  0  0  0  0  0  0
  183.4400  179.4160  145.6760 O   0  0  0  0  0  0  0  0  0  0  0  0
  181.6730  178.8720  143.4230 N   0  0  0  0  0  1  0  0  0  0  0  0
  183.0450  179.1380  140.8120 O   0  0  0  0  0  0  0  0  0  0  0  0
  183.7530  179.3380  139.5990 C   0  0  0  0  0  1  0  0  0  0  0  0
  191.5230  178.0730  141.6070 O   0  0  0  0  0  0  0  0  0  0  0  0
  190.4460  177.5490  141.8520 C   0  0  0  0  0  0  0  0  0  0  0  0
  189.3290  177.5980  140.8240 C   0  0  2  0  0  3  0  0  0  0  0  0
  189.5550  176.7380  139.5770 C   0  0  1  0  0  3  0  0  0  0  0  0
  189.7470  178.2420  139.5130 C   0  0  0  0  0  2  0  0  0  0  0  0
  190.8620  176.0840  139.5440 N   0  0  0  0  0  2  0  0  0  0  0  0
  191.5510  176.6160  138.3810 C   0  0  0  0  0  2  0  0  0  0  0  0
  192.4200  175.5290  137.7660 C   0  0  0  0  0  2  0  0  0  0  0  0
  192.8420  176.1440  135.0450 O   0  0  0  0  0  0  0  0  0  0  0  0
  194.8670  177.5290  135.6570 O   0  0  0  0  0  0  0  0  0  0  0  0
  194.0640  176.2850  135.9090 S   0  0  0  0  0  0  0  0  0  0  0  0
  193.7790  176.0250  137.5910 N   0  0  0  0  0  0  0  0  0  0  0  0
  194.6760  174.8580  137.6080 C   0  0  1  0  0  3  0  0  0  0  0  0
  195.0440  174.8430  136.1190 C   0  0  0  0  0  2  0  0  0  0  0  0
  195.9830  174.0480  139.2110 C   0  0  0  0  0  1  0  0  0  0  0  0
  195.8090  175.1630  138.3650 O   0  0  0  0  0  0  0  0  0  0  0  0
  1  4  1  0  0  0  0
  2 23  1  6  0  0  0
  2  5  1  0  0  0  0
  2 12  1  0  0  0  0
  2  3  1  0  0  0  0
  3  4  1  0  0  0  0
  5  1  1  0  0  0  0
  6 10  2  0  0  0  0
  6 14  1  0  0  0  0
  7 18  2  0  0  0  0
  8 19  1  1  0  0  0
  8  7  1  0  0  0  0
  9 13  1  0  0  0  0
  9 17  2  0  0  0  0
 10  8  1  0  0  0  0
 11  9  1  0  0  0  0
 12 13  2  0  0  0  0
 14 11  2  0  0  0  0
 14 16  1  0  0  0  0
 15 11  1  0  0  0  0
 15 12  1  0  0  0  0
 16  7  1  0  0  0  0
 16 17  1  0  0  0  0
 20 10  1  0  0  0  0
 21 20  1  0  0  0  0
 22 23  2  0  0  0  0
 24 23  1  1  0  0  0
 25 27  1  1  0  0  0
 25 24  1  0  0  0  0
 26 25  1  0  0  0  0
 26 24  1  0  0  0  0
 28 27  1  0  0  0  0
 29 28  1  0  0  0  0
 30 32  2  0  0  0  0
 31 32  2  0  0  0  0
 32 35  1  0  0  0  0
 32 33  1  0  0  0  0
 33 34  1  0  0  0  0
 33 29  1  0  0  0  0
 34 37  1  1  0  0  0
 35 34  1  0  0  0  0
 37 36  1  0  0  0  0
M  END
>  <MODEL>
9

>  <REMARK>
 VINA RESULT:      -6.7      3.433      6.534
  Name = 
  9 active torsions:
  status: ('A' for Active; 'I' for Inactive)
    1  A    between atoms: C_6  and  C_35
    2  A    between atoms: C_7  and  N_14
    3  A    between atoms: C_7  and  C_22
    4  A    between atoms: C_8  and  C_18
    5  A    between atoms: C_8  and  C_35
    6  A    between atoms: C_9  and  N_33
    7  A    between atoms: C_13  and  O_17
    8  A    between atoms: C_20  and  O_28
    9  A    between atoms: C_22  and  N_33
                            x       y       z     vdW  Elec       q    Type
                         _______ _______ _______ _____ _____    ______ ____

>  <TORSDO>
F 9

$$$$
