=
 OpenBabel11032420403D

 45 49  0  0  1  0  0  0  0  0999 V2000
  182.9960  177.4510  140.5510 C   0  0  0  0  0  3  0  0  0  0  0  0
  184.3840  177.8950  138.6040 C   0  0  0  0  0  0  0  0  0  0  0  0
  184.8540  178.9720  140.7360 C   0  0  0  0  0  3  0  0  0  0  0  0
  183.2910  177.2230  139.2010 C   0  0  0  0  0  0  0  0  0  0  0  0
  183.7590  178.3360  141.3180 C   0  0  0  0  0  0  0  0  0  0  0  0
  185.1650  178.7550  139.3940 C   0  0  0  0  0  3  0  0  0  0  0  0
  181.8150  175.3210  139.3770 O   0  0  0  0  0  1  0  0  0  0  0  0
  182.4520  176.1930  138.4890 C   0  0  1  0  0  3  0  0  0  0  0  0
  180.8760  177.8880  137.8780 O   0  0  0  0  0  0  0  0  0  0  0  0
  181.4680  176.8250  137.5500 C   0  0  0  0  0  0  0  0  0  0  0  0
  181.1980  176.2460  136.2740 N   0  0  0  0  0  2  0  0  0  0  0  0
  182.9950  175.1740  135.2580 O   0  0  0  0  0  1  0  0  0  0  0  0
  181.7540  174.9690  135.8620 C   0  0  0  0  0  2  0  0  0  0  0  0
  183.4650  178.5590  142.7000 N   0  0  0  0  0  2  0  0  0  0  0  0
  184.1520  179.5480  143.5250 C   0  0  0  0  0  2  0  0  0  0  0  0
  187.5060  177.7090  145.9890 C   0  0  0  0  0  0  0  0  0  0  0  0
  189.4880  176.7760  144.1450 C   0  0  0  0  0  3  0  0  0  0  0  0
  188.7730  177.5050  146.3590 C   0  0  0  0  0  2  0  0  0  0  0  0
  185.4120  178.4970  146.9500 N   0  0  0  0  0  0  0  0  0  0  0  0
  185.0430  178.8760  144.5180 C   0  0  0  0  0  0  0  0  0  0  0  0
  187.1430  177.4890  144.5720 C   0  0  0  0  0  0  0  0  0  0  0  0
  186.5590  177.9450  147.0300 N   0  0  0  0  0  2  0  0  0  0  0  0
  184.7590  179.0590  145.8070 C   0  0  0  0  0  3  0  0  0  0  0  0
  186.0820  178.0030  143.9700 C   0  0  0  0  0  3  0  0  0  0  0  0
  188.0520  176.6470  143.7230 C   0  0  0  0  0  2  0  0  0  0  0  0
  189.8180  177.1310  145.3880 C   0  0  0  0  0  0  0  0  0  0  0  0
  191.2520  177.1790  145.7830 C   0  0  0  0  0  2  0  0  0  0  0  0
  191.5180  176.2780  146.9790 C   0  0  0  0  0  3  0  0  0  0  0  0
  192.4400  175.2920  146.6300 O   0  0  0  0  0  1  0  0  0  0  0  0
  192.0350  177.0430  148.0210 O   0  0  0  0  0  1  0  0  0  0  0  0
  184.7160  177.6770  137.1530 C   0  0  0  0  0  2  0  0  0  0  0  0
  186.0530  176.4680  136.8470 S   0  0  0  0  0  0  0  0  0  0  0  0
  187.5620  177.8720  135.1850 O   0  0  0  0  0  0  0  0  0  0  0  0
  187.3020  177.6710  136.3610 C   0  0  0  0  0  0  0  0  0  0  0  0
  189.0600  178.0660  139.8350 C   0  0  0  0  0  2  0  0  0  0  0  0
  191.2160  176.9960  139.4230 O   0  0  0  0  0  0  0  0  0  0  0  0
  190.2400  176.5700  137.2200 C   0  0  1  0  0  3  0  0  0  0  0  0
  188.0650  178.3880  137.4320 C   0  0  2  0  0  3  0  0  0  0  0  0
  189.5190  177.9040  137.5150 C   0  0  1  0  0  3  0  0  0  0  0  0
  188.4870  177.4860  138.5590 C   0  0  1  0  0  3  0  0  0  0  0  0
  190.8860  175.9770  138.5030 C   0  0  0  0  0  2  0  0  0  0  0  0
  190.1430  177.0910  140.3360 C   0  0  0  0  0  2  0  0  0  0  0  0
  189.3860  174.1800  137.0010 C   0  0  0  0  0  1  0  0  0  0  0  0
  190.2440  175.3880  135.0170 C   0  0  0  0  0  1  0  0  0  0  0  0
  189.5160  175.5410  136.3360 C   0  0  0  0  0  3  0  0  0  0  0  0
  1  5  1  0  0  0  0
  2  4  1  0  0  0  0
  2  6  2  0  0  0  0
  3  5  2  0  0  0  0
  4  1  2  0  0  0  0
  5 14  1  0  0  0  0
  6  3  1  0  0  0  0
  8  4  1  0  0  0  0
  8  7  1  1  0  0  0
 10  9  2  0  0  0  0
 10  8  1  0  0  0  0
 11 10  1  0  0  0  0
 12 13  1  0  0  0  0
 13 11  1  0  0  0  0
 14 15  1  0  0  0  0
 15 20  1  0  0  0  0
 16 18  1  0  0  0  0
 16 22  1  0  0  0  0
 17 26  2  0  0  0  0
 19 22  1  0  0  0  0
 20 23  1  0  0  0  0
 21 16  2  0  0  0  0
 23 19  2  0  0  0  0
 24 20  2  0  0  0  0
 24 21  1  0  0  0  0
 25 17  1  0  0  0  0
 25 21  1  0  0  0  0
 26 27  1  0  0  0  0
 26 18  1  0  0  0  0
 27 28  1  0  0  0  0
 28 30  1  0  0  0  0
 29 28  1  0  0  0  0
 31  2  1  0  0  0  0
 32 31  1  0  0  0  0
 33 34  2  0  0  0  0
 34 32  1  0  0  0  0
 35 42  1  0  0  0  0
 36 42  1  0  0  0  0
 37 45  1  1  0  0  0
 37 39  1  0  0  0  0
 37 41  1  0  0  0  0
 38 34  1  6  0  0  0
 38 39  1  0  0  0  0
 38 40  1  0  0  0  0
 39 40  1  0  0  0  0
 40 35  1  0  0  0  0
 41 36  1  0  0  0  0
 44 45  1  0  0  0  0
 45 43  1  0  0  0  0
M  END
>  <MODEL>
1

>  <REMARK>
 VINA RESULT:      -8.9      0.000      0.000
  Name = 
  13 active torsions:
  status: ('A' for Active; 'I' for Inactive)
    1  A    between atoms: C_1  and  N_15
    2  A    between atoms: C_1  and  C_26
    3  A    between atoms: C_4  and  C_10
    4  A    between atoms: C_9  and  C_28
    5  A    between atoms: C_10  and  C_44
    6  A    between atoms: C_12  and  C_37
    7  A    between atoms: N_15  and  C_29
    8  A    between atoms: C_16  and  C_33
    9  A    between atoms: N_18  and  C_42
   10  A    between atoms: C_21  and  C_35
   11  A    between atoms: C_24  and  C_33
   12  A    between atoms: C_28  and  S_39
   13  A    between atoms: C_35  and  S_39
                            x       y       z     vdW  Elec       q    Type
                         _______ _______ _______ _____ _____    ______ ____

>  <TORSDO>
F 13

$$$$
=
 OpenBabel11032420403D

 45 49  0  0  1  0  0  0  0  0999 V2000
  182.8040  177.9920  140.9600 C   0  0  0  0  0  3  0  0  0  0  0  0
  184.2130  178.0540  138.9800 C   0  0  0  0  0  0  0  0  0  0  0  0
  185.0200  178.9250  141.1050 C   0  0  0  0  0  3  0  0  0  0  0  0
  182.9900  177.7090  139.6020 C   0  0  0  0  0  0  0  0  0  0  0  0
  183.8040  178.6150  141.7120 C   0  0  0  0  0  0  0  0  0  0  0  0
  185.2240  178.6470  139.7540 C   0  0  0  0  0  3  0  0  0  0  0  0
  181.8640  175.6060  139.2290 O   0  0  0  0  0  1  0  0  0  0  0  0
  181.8770  176.9670  138.9060 C   0  0  1  0  0  3  0  0  0  0  0  0
  179.7460  177.0820  139.9890 O   0  0  0  0  0  0  0  0  0  0  0  0
  180.5410  177.5980  139.1600 C   0  0  0  0  0  0  0  0  0  0  0  0
  180.1560  178.7940  138.4810 N   0  0  0  0  0  2  0  0  0  0  0  0
  181.7710  180.3920  137.9820 O   0  0  0  0  0  1  0  0  0  0  0  0
  180.9660  179.3930  137.4340 C   0  0  0  0  0  2  0  0  0  0  0  0
  183.6190  178.8940  143.1030 N   0  0  0  0  0  2  0  0  0  0  0  0
  184.4860  179.7770  143.8760 C   0  0  0  0  0  2  0  0  0  0  0  0
  187.7880  177.5810  146.1060 C   0  0  0  0  0  0  0  0  0  0  0  0
  189.6710  176.6820  144.1460 C   0  0  0  0  0  3  0  0  0  0  0  0
  189.0500  177.2830  146.4260 C   0  0  0  0  0  2  0  0  0  0  0  0
  185.7640  178.4080  147.1790 N   0  0  0  0  0  0  0  0  0  0  0  0
  185.3610  178.9860  144.7920 C   0  0  0  0  0  0  0  0  0  0  0  0
  187.3810  177.4870  144.6870 C   0  0  0  0  0  0  0  0  0  0  0  0
  186.8800  177.7910  147.1880 N   0  0  0  0  0  2  0  0  0  0  0  0
  185.1170  179.0880  146.0980 C   0  0  0  0  0  3  0  0  0  0  0  0
  186.3360  178.1020  144.1540 C   0  0  0  0  0  3  0  0  0  0  0  0
  188.2210  176.6630  143.7550 C   0  0  0  0  0  2  0  0  0  0  0  0
  190.0490  176.9250  145.4020 C   0  0  0  0  0  0  0  0  0  0  0  0
  191.4920  176.8670  145.7610 C   0  0  0  0  0  2  0  0  0  0  0  0
  191.6970  176.1410  147.0810 C   0  0  0  0  0  3  0  0  0  0  0  0
  192.6560  175.1410  146.9260 O   0  0  0  0  0  1  0  0  0  0  0  0
  192.1320  177.0510  148.0400 O   0  0  0  0  0  1  0  0  0  0  0  0
  184.4350  177.7710  137.5190 C   0  0  0  0  0  2  0  0  0  0  0  0
  185.2080  176.1520  137.1610 S   0  0  0  0  0  0  0  0  0  0  0  0
  186.5850  177.9700  135.8170 O   0  0  0  0  0  0  0  0  0  0  0  0
  186.5290  176.7870  136.1150 C   0  0  0  0  0  0  0  0  0  0  0  0
  189.9930  175.6890  134.6630 C   0  0  0  0  0  2  0  0  0  0  0  0
  191.3370  175.4860  136.6910 O   0  0  0  0  0  0  0  0  0  0  0  0
  189.2810  176.2620  137.7670 C   0  0  1  0  0  3  0  0  0  0  0  0
  187.5360  175.8250  135.5660 C   0  0  2  0  0  3  0  0  0  0  0  0
  188.6290  175.4980  136.5920 C   0  0  1  0  0  3  0  0  0  0  0  0
  188.9050  176.4290  135.4130 C   0  0  1  0  0  3  0  0  0  0  0  0
  190.7980  176.4920  137.5230 C   0  0  0  0  0  2  0  0  0  0  0  0
  191.3270  175.9910  135.3720 C   0  0  0  0  0  2  0  0  0  0  0  0
  189.0400  178.7990  137.7710 C   0  0  0  0  0  1  0  0  0  0  0  0
  188.6540  177.5020  139.8450 C   0  0  0  0  0  1  0  0  0  0  0  0
  188.5340  177.4800  138.3360 C   0  0  0  0  0  3  0  0  0  0  0  0
  1  5  1  0  0  0  0
  2  4  1  0  0  0  0
  2  6  2  0  0  0  0
  3  5  2  0  0  0  0
  4  1  2  0  0  0  0
  5 14  1  0  0  0  0
  6  3  1  0  0  0  0
  8 10  1  0  0  0  0
  8  7  1  1  0  0  0
  8  4  1  0  0  0  0
 10  9  2  0  0  0  0
 11 10  1  0  0  0  0
 13 12  1  0  0  0  0
 13 11  1  0  0  0  0
 14 15  1  0  0  0  0
 15 20  1  0  0  0  0
 16 18  1  0  0  0  0
 16 22  1  0  0  0  0
 17 26  2  0  0  0  0
 19 22  1  0  0  0  0
 20 23  1  0  0  0  0
 21 16  2  0  0  0  0
 23 19  2  0  0  0  0
 24 21  1  0  0  0  0
 24 20  2  0  0  0  0
 25 17  1  0  0  0  0
 25 21  1  0  0  0  0
 26 27  1  0  0  0  0
 26 18  1  0  0  0  0
 27 28  1  0  0  0  0
 28 30  1  0  0  0  0
 29 28  1  0  0  0  0
 31  2  1  0  0  0  0
 32 31  1  0  0  0  0
 33 34  2  0  0  0  0
 34 32  1  0  0  0  0
 35 42  1  0  0  0  0
 35 40  1  0  0  0  0
 36 41  1  0  0  0  0
 37 45  1  6  0  0  0
 38 34  1  1  0  0  0
 38 39  1  0  0  0  0
 39 37  1  0  0  0  0
 40 38  1  0  0  0  0
 40 39  1  0  0  0  0
 41 37  1  0  0  0  0
 42 36  1  0  0  0  0
 43 45  1  0  0  0  0
 45 44  1  0  0  0  0
M  END
>  <MODEL>
2

>  <REMARK>
 VINA RESULT:      -8.2      1.342      2.375
  Name = 
  13 active torsions:
  status: ('A' for Active; 'I' for Inactive)
    1  A    between atoms: C_1  and  N_15
    2  A    between atoms: C_1  and  C_26
    3  A    between atoms: C_4  and  C_10
    4  A    between atoms: C_9  and  C_28
    5  A    between atoms: C_10  and  C_44
    6  A    between atoms: C_12  and  C_37
    7  A    between atoms: N_15  and  C_29
    8  A    between atoms: C_16  and  C_33
    9  A    between atoms: N_18  and  C_42
   10  A    between atoms: C_21  and  C_35
   11  A    between atoms: C_24  and  C_33
   12  A    between atoms: C_28  and  S_39
   13  A    between atoms: C_35  and  S_39
                            x       y       z     vdW  Elec       q    Type
                         _______ _______ _______ _____ _____    ______ ____

>  <TORSDO>
F 13

$$$$
=
 OpenBabel11032420403D

 45 49  0  0  1  0  0  0  0  0999 V2000
  182.8960  178.8700  140.9730 C   0  0  0  0  0  3  0  0  0  0  0  0
  184.2360  178.5590  142.9780 C   0  0  0  0  0  0  0  0  0  0  0  0
  185.2980  178.9790  140.8280 C   0  0  0  0  0  3  0  0  0  0  0  0
  182.9690  178.6360  142.3510 C   0  0  0  0  0  0  0  0  0  0  0  0
  184.0530  179.0230  140.2030 C   0  0  0  0  0  0  0  0  0  0  0  0
  185.3900  178.7510  142.2010 C   0  0  0  0  0  3  0  0  0  0  0  0
  181.7730  179.0210  144.4130 O   0  0  0  0  0  1  0  0  0  0  0  0
  181.6610  178.5620  143.0970 C   0  0  1  0  0  3  0  0  0  0  0  0
  180.4190  180.5180  142.4950 O   0  0  0  0  0  0  0  0  0  0  0  0
  180.5610  179.2730  142.3660 C   0  0  0  0  0  0  0  0  0  0  0  0
  179.6720  178.5580  141.5070 N   0  0  0  0  0  2  0  0  0  0  0  0
  180.2060  176.7580  140.1350 O   0  0  0  0  0  1  0  0  0  0  0  0
  179.6990  177.1110  141.3850 C   0  0  0  0  0  2  0  0  0  0  0  0
  183.9770  179.2740  138.7970 N   0  0  0  0  0  2  0  0  0  0  0  0
  183.6890  178.2440  137.8040 C   0  0  0  0  0  2  0  0  0  0  0  0
  187.7850  176.2820  137.5380 C   0  0  0  0  0  0  0  0  0  0  0  0
  189.7190  178.2770  138.2280 C   0  0  0  0  0  3  0  0  0  0  0  0
  189.0100  175.9600  137.9630 C   0  0  0  0  0  2  0  0  0  0  0  0
  185.7220  175.1770  136.8630 N   0  0  0  0  0  0  0  0  0  0  0  0
  184.9130  177.4410  137.5090 C   0  0  0  0  0  0  0  0  0  0  0  0
  187.4160  177.7130  137.4750 C   0  0  1  0  0  3  0  0  0  0  0  0
  186.9890  175.2250  137.0020 N   0  0  0  0  0  0  0  0  0  0  0  0
  184.7370  176.1510  137.2270 C   0  0  0  0  0  3  0  0  0  0  0  0
  186.1770  178.1780  137.4650 C   0  0  0  0  0  3  0  0  0  0  0  0
  188.5160  178.7350  137.4530 C   0  0  0  0  0  2  0  0  0  0  0  0
  189.9690  176.9810  138.4220 C   0  0  0  0  0  0  0  0  0  0  0  0
  191.2080  176.5700  139.1370 C   0  0  0  0  0  2  0  0  0  0  0  0
  192.3600  176.3790  138.1620 C   0  0  0  0  0  3  0  0  0  0  0  0
  193.5520  176.7970  138.7540 O   0  0  0  0  0  1  0  0  0  0  0  0
  192.4590  175.0300  137.8310 O   0  0  0  0  0  1  0  0  0  0  0  0
  184.3440  178.2980  144.4560 C   0  0  0  0  0  2  0  0  0  0  0  0
  185.6480  179.2540  145.3100 S   0  0  0  0  0  0  0  0  0  0  0  0
  186.5790  176.7910  145.0340 O   0  0  0  0  0  0  0  0  0  0  0  0
  186.7710  177.8710  145.5700 C   0  0  0  0  0  0  0  0  0  0  0  0
  190.0830  176.8500  147.3900 C   0  0  0  0  0  2  0  0  0  0  0  0
  191.7600  177.3730  145.6930 O   0  0  0  0  0  0  0  0  0  0  0  0
  189.7910  177.9670  144.3670 C   0  0  1  0  0  3  0  0  0  0  0  0
  187.9250  178.0490  146.5090 C   0  0  2  0  0  3  0  0  0  0  0  0
  189.2290  178.3420  145.7570 C   0  0  1  0  0  3  0  0  0  0  0  0
  188.9650  176.9710  146.3740 C   0  0  1  0  0  3  0  0  0  0  0  0
  191.0760  177.1020  144.4870 C   0  0  0  0  0  2  0  0  0  0  0  0
  191.3460  176.4000  146.6300 C   0  0  0  0  0  2  0  0  0  0  0  0
  189.0400  176.0490  142.8670 C   0  0  0  0  0  1  0  0  0  0  0  0
  188.8710  178.3920  142.0810 C   0  0  0  0  0  1  0  0  0  0  0  0
  188.7980  177.4890  143.2950 C   0  0  0  0  0  3  0  0  0  0  0  0
  1  4  1  0  0  0  0
  2 31  1  0  0  0  0
  3  6  2  0  0  0  0
  4  2  2  0  0  0  0
  4  8  1  0  0  0  0
  5  3  1  0  0  0  0
  5  1  2  0  0  0  0
  6  2  1  0  0  0  0
  8  7  1  1  0  0  0
 10  9  2  0  0  0  0
 10  8  1  0  0  0  0
 11 10  1  0  0  0  0
 12 13  1  0  0  0  0
 13 11  1  0  0  0  0
 14  5  1  0  0  0  0
 15 14  1  0  0  0  0
 16 18  1  0  0  0  0
 17 26  2  0  0  0  0
 18 26  1  0  0  0  0
 19 22  1  0  0  0  0
 19 23  2  0  0  0  0
 20 15  1  0  0  0  0
 21 25  1  1  0  0  0
 21 16  1  0  0  0  0
 22 16  2  0  0  0  0
 23 20  1  0  0  0  0
 24 21  1  0  0  0  0
 24 20  2  0  0  0  0
 25 17  1  0  0  0  0
 26 27  1  0  0  0  0
 28 29  1  0  0  0  0
 28 27  1  0  0  0  0
 30 28  1  0  0  0  0
 31 32  1  0  0  0  0
 32 34  1  0  0  0  0
 33 34  2  0  0  0  0
 36 42  1  0  0  0  0
 37 45  1  6  0  0  0
 37 41  1  0  0  0  0
 37 39  1  0  0  0  0
 38 34  1  6  0  0  0
 39 40  1  0  0  0  0
 39 38  1  0  0  0  0
 40 38  1  0  0  0  0
 40 35  1  0  0  0  0
 41 36  1  0  0  0  0
 42 35  1  0  0  0  0
 43 45  1  0  0  0  0
 44 45  1  0  0  0  0
M  END
>  <MODEL>
3

>  <REMARK>
 VINA RESULT:      -8.0      3.130      7.088
  Name = 
  13 active torsions:
  status: ('A' for Active; 'I' for Inactive)
    1  A    between atoms: C_1  and  N_15
    2  A    between atoms: C_1  and  C_26
    3  A    between atoms: C_4  and  C_10
    4  A    between atoms: C_9  and  C_28
    5  A    between atoms: C_10  and  C_44
    6  A    between atoms: C_12  and  C_37
    7  A    between atoms: N_15  and  C_29
    8  A    between atoms: C_16  and  C_33
    9  A    between atoms: N_18  and  C_42
   10  A    between atoms: C_21  and  C_35
   11  A    between atoms: C_24  and  C_33
   12  A    between atoms: C_28  and  S_39
   13  A    between atoms: C_35  and  S_39
                            x       y       z     vdW  Elec       q    Type
                         _______ _______ _______ _____ _____    ______ ____

>  <TORSDO>
F 13

$$$$
=
 OpenBabel11032420403D

 45 49  0  0  1  0  0  0  0  0999 V2000
  184.6270  179.0750  142.8990 C   0  0  0  0  0  3  0  0  0  0  0  0
  182.5660  178.6500  141.6810 C   0  0  0  0  0  0  0  0  0  0  0  0
  182.5430  178.9400  144.0980 C   0  0  0  0  0  3  0  0  0  0  0  0
  183.9670  178.8470  141.6850 C   0  0  0  0  0  0  0  0  0  0  0  0
  183.9270  179.1040  144.1080 C   0  0  0  0  0  0  0  0  0  0  0  0
  181.8680  178.7170  142.8980 C   0  0  0  0  0  3  0  0  0  0  0  0
  184.5300  180.0490  139.6680 O   0  0  0  0  0  1  0  0  0  0  0  0
  184.8060  178.9120  140.4340 C   0  0  1  0  0  3  0  0  0  0  0  0
  186.7070  179.1390  141.8720 O   0  0  0  0  0  0  0  0  0  0  0  0
  186.2710  178.8060  140.7380 C   0  0  0  0  0  0  0  0  0  0  0  0
  187.1870  178.3160  139.7590 N   0  0  0  0  0  2  0  0  0  0  0  0
  187.2620  179.0030  137.5380 O   0  0  0  0  0  1  0  0  0  0  0  0
  186.7860  178.0120  138.3970 C   0  0  0  0  0  2  0  0  0  0  0  0
  184.6000  179.3480  145.3470 N   0  0  0  0  0  2  0  0  0  0  0  0
  184.9340  178.3010  146.3080 C   0  0  0  0  0  2  0  0  0  0  0  0
  189.2600  177.4620  145.1790 C   0  0  0  0  0  0  0  0  0  0  0  0
  189.2790  176.7280  142.4110 C   0  0  0  0  0  3  0  0  0  0  0  0
  190.3630  177.5570  144.4310 C   0  0  0  0  0  2  0  0  0  0  0  0
  188.5340  177.9290  147.4560 N   0  0  0  0  0  0  0  0  0  0  0  0
  186.3800  177.9390  146.2100 C   0  0  0  0  0  0  0  0  0  0  0  0
  188.0090  177.0090  144.5320 C   0  0  0  0  0  0  0  0  0  0  0  0
  189.4180  177.6280  146.5880 N   0  0  0  0  0  2  0  0  0  0  0  0
  187.1440  178.2130  147.2660 C   0  0  0  0  0  3  0  0  0  0  0  0
  186.7900  177.2300  144.9980 C   0  0  0  0  0  3  0  0  0  0  0  0
  188.1050  176.2700  143.2280 C   0  0  0  0  0  2  0  0  0  0  0  0
  190.3480  177.2850  142.9820 C   0  0  0  0  0  0  0  0  0  0  0  0
  191.5180  177.6610  142.1430 C   0  0  0  0  0  2  0  0  0  0  0  0
  191.3410  177.1770  140.7120 C   0  0  0  0  0  3  0  0  0  0  0  0
  190.4620  178.0220  140.0350 O   0  0  0  0  0  1  0  0  0  0  0  0
  192.5760  177.1880  140.0700 O   0  0  0  0  0  1  0  0  0  0  0  0
  181.8330  178.3930  140.3920 C   0  0  0  0  0  2  0  0  0  0  0  0
  180.4110  177.2520  140.5340 S   0  0  0  0  0  0  0  0  0  0  0  0
  180.1160  175.7490  138.3760 O   0  0  0  0  0  0  0  0  0  0  0  0
  180.9150  176.1380  139.2130 C   0  0  0  0  0  0  0  0  0  0  0  0
  184.0480  174.3580  137.6860 C   0  0  0  0  0  2  0  0  0  0  0  0
  184.9320  176.0920  136.2100 O   0  0  0  0  0  0  0  0  0  0  0  0
  182.9630  177.3240  136.9820 C   0  0  1  0  0  3  0  0  0  0  0  0
  182.3290  175.6470  139.1870 C   0  0  2  0  0  3  0  0  0  0  0  0
  183.2110  176.4990  138.2650 C   0  0  1  0  0  3  0  0  0  0  0  0
  182.7420  175.1080  137.8450 C   0  0  1  0  0  3  0  0  0  0  0  0
  183.7630  176.7550  135.7770 C   0  0  0  0  0  2  0  0  0  0  0  0
  184.6170  174.7180  136.3000 C   0  0  0  0  0  2  0  0  0  0  0  0
  181.0960  177.3260  135.2480 C   0  0  0  0  0  1  0  0  0  0  0  0
  181.3440  179.2220  136.8210 C   0  0  0  0  0  1  0  0  0  0  0  0
  181.5160  177.7270  136.6540 C   0  0  0  0  0  3  0  0  0  0  0  0
  1  5  1  0  0  0  0
  2  4  1  0  0  0  0
  2  6  2  0  0  0  0
  3  5  2  0  0  0  0
  4  1  2  0  0  0  0
  5 14  1  0  0  0  0
  6  3  1  0  0  0  0
  8  7  1  1  0  0  0
  8 10  1  0  0  0  0
  8  4  1  0  0  0  0
 10  9  2  0  0  0  0
 11 10  1  0  0  0  0
 12 13  1  0  0  0  0
 13 11  1  0  0  0  0
 14 15  1  0  0  0  0
 16 22  1  0  0  0  0
 17 26  2  0  0  0  0
 17 25  1  0  0  0  0
 18 16  1  0  0  0  0
 20 15  1  0  0  0  0
 20 23  1  0  0  0  0
 21 24  1  0  0  0  0
 21 16  2  0  0  0  0
 22 19  1  0  0  0  0
 23 19  2  0  0  0  0
 24 20  2  0  0  0  0
 25 21  1  0  0  0  0
 26 18  1  0  0  0  0
 27 26  1  0  0  0  0
 28 27  1  0  0  0  0
 29 28  1  0  0  0  0
 30 28  1  0  0  0  0
 31 32  1  0  0  0  0
 31  2  1  0  0  0  0
 33 34  2  0  0  0  0
 34 32  1  0  0  0  0
 35 40  1  0  0  0  0
 36 42  1  0  0  0  0
 37 45  1  6  0  0  0
 37 39  1  0  0  0  0
 38 34  1  6  0  0  0
 39 38  1  0  0  0  0
 40 39  1  0  0  0  0
 40 38  1  0  0  0  0
 41 36  1  0  0  0  0
 41 37  1  0  0  0  0
 42 35  1  0  0  0  0
 43 45  1  0  0  0  0
 45 44  1  0  0  0  0
M  END
>  <MODEL>
4

>  <REMARK>
 VINA RESULT:      -8.0      3.020      5.604
  Name = 
  13 active torsions:
  status: ('A' for Active; 'I' for Inactive)
    1  A    between atoms: C_1  and  N_15
    2  A    between atoms: C_1  and  C_26
    3  A    between atoms: C_4  and  C_10
    4  A    between atoms: C_9  and  C_28
    5  A    between atoms: C_10  and  C_44
    6  A    between atoms: C_12  and  C_37
    7  A    between atoms: N_15  and  C_29
    8  A    between atoms: C_16  and  C_33
    9  A    between atoms: N_18  and  C_42
   10  A    between atoms: C_21  and  C_35
   11  A    between atoms: C_24  and  C_33
   12  A    between atoms: C_28  and  S_39
   13  A    between atoms: C_35  and  S_39
                            x       y       z     vdW  Elec       q    Type
                         _______ _______ _______ _____ _____    ______ ____

>  <TORSDO>
F 13

$$$$
=
 OpenBabel11032420403D

 45 49  0  0  1  0  0  0  0  0999 V2000
  181.9200  178.6440  141.8430 C   0  0  0  0  0  3  0  0  0  0  0  0
  182.7820  178.1220  139.6310 C   0  0  0  0  0  0  0  0  0  0  0  0
  184.2850  178.3100  141.5370 C   0  0  0  0  0  3  0  0  0  0  0  0
  181.6880  178.4030  140.4840 C   0  0  0  0  0  0  0  0  0  0  0  0
  183.2130  178.6190  142.3720 C   0  0  0  0  0  0  0  0  0  0  0  0
  184.0730  178.0640  140.1810 C   0  0  0  0  0  3  0  0  0  0  0  0
  179.7510  177.0790  139.9180 O   0  0  0  0  0  1  0  0  0  0  0  0
  180.2490  178.3800  140.0350 C   0  0  1  0  0  3  0  0  0  0  0  0
  178.9310  178.7470  141.9990 O   0  0  0  0  0  0  0  0  0  0  0  0
  179.3750  179.2190  140.9190 C   0  0  0  0  0  0  0  0  0  0  0  0
  179.0460  180.5610  140.5600 N   0  0  0  0  0  2  0  0  0  0  0  0
  180.7150  181.6730  139.3810 O   0  0  0  0  0  1  0  0  0  0  0  0
  179.4270  181.1450  139.2850 C   0  0  0  0  0  2  0  0  0  0  0  0
  183.4480  178.8540  143.7640 N   0  0  0  0  0  2  0  0  0  0  0  0
  184.5030  179.7250  144.2720 C   0  0  0  0  0  2  0  0  0  0  0  0
  187.9100  177.6420  146.4520 C   0  0  0  0  0  0  0  0  0  0  0  0
  189.7670  176.7590  144.4590 C   0  0  0  0  0  3  0  0  0  0  0  0
  189.1860  177.3780  146.7450 C   0  0  0  0  0  2  0  0  0  0  0  0
  185.8930  178.4360  147.5630 N   0  0  0  0  0  0  0  0  0  0  0  0
  185.4180  178.9690  145.1780 C   0  0  0  0  0  0  0  0  0  0  0  0
  187.4710  177.5170  145.0450 C   0  0  0  0  0  0  0  0  0  0  0  0
  187.0240  177.8460  147.5530 N   0  0  0  0  0  2  0  0  0  0  0  0
  185.2040  179.0850  146.4880 C   0  0  0  0  0  3  0  0  0  0  0  0
  186.3990  178.0980  144.5290 C   0  0  0  0  0  3  0  0  0  0  0  0
  188.3080  176.6990  144.1040 C   0  0  0  0  0  2  0  0  0  0  0  0
  190.1690  177.0300  145.7020 C   0  0  0  0  0  0  0  0  0  0  0  0
  191.6210  177.0110  146.0260 C   0  0  0  0  0  2  0  0  0  0  0  0
  191.8960  176.1510  147.2500 C   0  0  0  0  0  3  0  0  0  0  0  0
  192.9100  175.2370  146.9660 O   0  0  0  0  0  1  0  0  0  0  0  0
  192.2950  176.9700  148.3030 O   0  0  0  0  0  1  0  0  0  0  0  0
  182.5630  177.8700  138.1630 C   0  0  0  0  0  2  0  0  0  0  0  0
  182.7140  176.1190  137.6570 S   0  0  0  0  0  0  0  0  0  0  0  0
  183.1450  175.9540  135.0500 O   0  0  0  0  0  0  0  0  0  0  0  0
  183.5530  176.4350  136.0950 C   0  0  0  0  0  0  0  0  0  0  0  0
  186.9430  177.7620  137.5330 C   0  0  0  0  0  2  0  0  0  0  0  0
  188.4790  175.9670  136.9140 O   0  0  0  0  0  0  0  0  0  0  0  0
  186.4380  174.9350  136.0410 C   0  0  1  0  0  3  0  0  0  0  0  0
  184.8040  177.2590  136.1050 C   0  0  2  0  0  3  0  0  0  0  0  0
  186.0460  176.4110  135.8040 C   0  0  1  0  0  3  0  0  0  0  0  0
  185.7430  176.8920  137.2210 C   0  0  1  0  0  3  0  0  0  0  0  0
  187.6610  174.8180  136.9930 C   0  0  0  0  0  2  0  0  0  0  0  0
  188.0870  176.8250  137.9650 C   0  0  0  0  0  2  0  0  0  0  0  0
  185.5400  173.1280  137.5970 C   0  0  0  0  0  1  0  0  0  0  0  0
  185.1630  172.9770  135.1540 C   0  0  0  0  0  1  0  0  0  0  0  0
  185.3120  173.9280  136.3230 C   0  0  0  0  0  3  0  0  0  0  0  0
  1  5  1  0  0  0  0
  2  6  2  0  0  0  0
  2  4  1  0  0  0  0
  3  5  2  0  0  0  0
  4  1  2  0  0  0  0
  5 14  1  0  0  0  0
  6  3  1  0  0  0  0
  8  7  1  1  0  0  0
  8  4  1  0  0  0  0
  8 10  1  0  0  0  0
 10  9  2  0  0  0  0
 11 10  1  0  0  0  0
 13 12  1  0  0  0  0
 13 11  1  0  0  0  0
 14 15  1  0  0  0  0
 15 20  1  0  0  0  0
 16 18  1  0  0  0  0
 16 22  1  0  0  0  0
 17 26  2  0  0  0  0
 20 23  1  0  0  0  0
 21 16  2  0  0  0  0
 22 19  1  0  0  0  0
 23 19  2  0  0  0  0
 24 21  1  0  0  0  0
 24 20  2  0  0  0  0
 25 17  1  0  0  0  0
 25 21  1  0  0  0  0
 26 27  1  0  0  0  0
 26 18  1  0  0  0  0
 27 28  1  0  0  0  0
 28 30  1  0  0  0  0
 29 28  1  0  0  0  0
 31  2  1  0  0  0  0
 32 31  1  0  0  0  0
 33 34  2  0  0  0  0
 34 32  1  0  0  0  0
 35 42  1  0  0  0  0
 36 41  1  0  0  0  0
 36 42  1  0  0  0  0
 37 45  1  1  0  0  0
 37 41  1  0  0  0  0
 38 34  1  1  0  0  0
 38 40  1  0  0  0  0
 39 37  1  0  0  0  0
 39 38  1  0  0  0  0
 39 40  1  0  0  0  0
 40 35  1  0  0  0  0
 44 45  1  0  0  0  0
 45 43  1  0  0  0  0
M  END
>  <MODEL>
5

>  <REMARK>
 VINA RESULT:      -7.6      2.282      3.274
  Name = 
  13 active torsions:
  status: ('A' for Active; 'I' for Inactive)
    1  A    between atoms: C_1  and  N_15
    2  A    between atoms: C_1  and  C_26
    3  A    between atoms: C_4  and  C_10
    4  A    between atoms: C_9  and  C_28
    5  A    between atoms: C_10  and  C_44
    6  A    between atoms: C_12  and  C_37
    7  A    between atoms: N_15  and  C_29
    8  A    between atoms: C_16  and  C_33
    9  A    between atoms: N_18  and  C_42
   10  A    between atoms: C_21  and  C_35
   11  A    between atoms: C_24  and  C_33
   12  A    between atoms: C_28  and  S_39
   13  A    between atoms: C_35  and  S_39
                            x       y       z     vdW  Elec       q    Type
                         _______ _______ _______ _____ _____    ______ ____

>  <TORSDO>
F 13

$$$$
=
 OpenBabel11032420403D

 45 49  0  0  1  0  0  0  0  0999 V2000
  188.5590  177.8120  140.8180 C   0  0  0  0  0  3  0  0  0  0  0  0
  190.2470  176.9430  139.2980 C   0  0  0  0  0  0  0  0  0  0  0  0
  190.6300  176.9570  141.7020 C   0  0  0  0  0  3  0  0  0  0  0  0
  188.9720  177.5180  139.5120 C   0  0  0  0  0  0  0  0  0  0  0  0
  189.3880  177.5530  141.9130 C   0  0  0  0  0  0  0  0  0  0  0  0
  191.0560  176.6550  140.4090 C   0  0  0  0  0  3  0  0  0  0  0  0
  186.7540  178.2530  138.9030 O   0  0  0  0  0  1  0  0  0  0  0  0
  187.9700  177.7670  138.4130 C   0  0  1  0  0  3  0  0  0  0  0  0
  189.0570  179.7620  137.6600 O   0  0  0  0  0  0  0  0  0  0  0  0
  188.5230  178.6660  137.3470 C   0  0  0  0  0  0  0  0  0  0  0  0
  188.4670  178.2880  135.9710 N   0  0  0  0  0  2  0  0  0  0  0  0
  188.7110  176.1360  135.1230 O   0  0  0  0  0  1  0  0  0  0  0  0
  187.7760  177.0940  135.5160 C   0  0  0  0  0  2  0  0  0  0  0  0
  188.9610  177.8420  143.2480 N   0  0  0  0  0  2  0  0  0  0  0  0
  188.0850  176.9720  144.0250 C   0  0  0  0  0  2  0  0  0  0  0  0
  183.9880  178.7930  144.7970 C   0  0  0  0  0  0  0  0  0  0  0  0
  182.6110  178.8580  142.2880 C   0  0  0  0  0  3  0  0  0  0  0  0
  182.6560  178.8670  144.7250 C   0  0  0  0  0  2  0  0  0  0  0  0
  185.7340  178.6530  146.4890 N   0  0  0  0  0  0  0  0  0  0  0  0
  186.8750  177.7180  144.4840 C   0  0  0  0  0  0  0  0  0  0  0  0
  184.7560  178.6920  143.5370 C   0  0  0  0  0  0  0  0  0  0  0  0
  184.5780  179.0020  146.0800 N   0  0  0  0  0  2  0  0  0  0  0  0
  186.7560  177.9300  145.7940 C   0  0  0  0  0  3  0  0  0  0  0  0
  185.9910  178.2270  143.4350 C   0  0  0  0  0  3  0  0  0  0  0  0
  184.0910  179.1140  142.2590 C   0  0  0  0  0  2  0  0  0  0  0  0
  181.9400  178.7900  143.4390 C   0  0  0  0  0  0  0  0  0  0  0  0
  180.4630  178.6040  143.4200 C   0  0  0  0  0  2  0  0  0  0  0  0
  179.9790  178.2340  142.0260 C   0  0  0  0  0  3  0  0  0  0  0  0
  179.3690  176.9810  142.0560 O   0  0  0  0  0  1  0  0  0  0  0  0
  179.0570  179.1850  141.5960 O   0  0  0  0  0  1  0  0  0  0  0  0
  190.7190  176.6280  137.9040 C   0  0  0  0  0  2  0  0  0  0  0  0
  192.5230  176.3710  137.7470 S   0  0  0  0  0  0  0  0  0  0  0  0
  193.0100  176.0000  135.1720 O   0  0  0  0  0  0  0  0  0  0  0  0
  192.4670  175.5270  136.1580 C   0  0  0  0  0  0  0  0  0  0  0  0
  191.5790  172.0020  134.7080 C   0  0  0  0  0  2  0  0  0  0  0  0
  193.2000  170.5750  135.8500 O   0  0  0  0  0  0  0  0  0  0  0  0
  193.9590  172.7060  136.7840 C   0  0  1  0  0  3  0  0  0  0  0  0
  191.6900  174.2510  136.0480 C   0  0  2  0  0  3  0  0  0  0  0  0
  192.4630  173.0630  136.6350 C   0  0  1  0  0  3  0  0  0  0  0  0
  192.3290  173.2500  135.1250 C   0  0  1  0  0  3  0  0  0  0  0  0
  194.3200  171.4240  135.9830 C   0  0  0  0  0  2  0  0  0  0  0  0
  192.6100  170.8620  134.5980 C   0  0  0  0  0  2  0  0  0  0  0  0
  196.1070  173.5260  135.6860 C   0  0  0  0  0  1  0  0  0  0  0  0
  195.5780  174.1520  138.0230 C   0  0  0  0  0  1  0  0  0  0  0  0
  194.9860  173.8440  136.6640 C   0  0  0  0  0  3  0  0  0  0  0  0
  1  5  1  0  0  0  0
  2  4  1  0  0  0  0
  2  6  2  0  0  0  0
  3  5  2  0  0  0  0
  4  1  2  0  0  0  0
  5 14  1  0  0  0  0
  6  3  1  0  0  0  0
  8  7  1  1  0  0  0
  8  4  1  0  0  0  0
 10  9  2  0  0  0  0
 10  8  1  0  0  0  0
 11 10  1  0  0  0  0
 12 13  1  0  0  0  0
 13 11  1  0  0  0  0
 14 15  1  0  0  0  0
 15 20  1  0  0  0  0
 16 22  1  0  0  0  0
 17 26  2  0  0  0  0
 18 16  1  0  0  0  0
 20 23  1  0  0  0  0
 21 16  2  0  0  0  0
 22 19  1  0  0  0  0
 23 19  2  0  0  0  0
 24 21  1  0  0  0  0
 24 20  2  0  0  0  0
 25 17  1  0  0  0  0
 25 21  1  0  0  0  0
 26 18  1  0  0  0  0
 27 26  1  0  0  0  0
 28 29  1  0  0  0  0
 28 27  1  0  0  0  0
 30 28  1  0  0  0  0
 31  2  1  0  0  0  0
 32 31  1  0  0  0  0
 33 34  2  0  0  0  0
 34 32  1  0  0  0  0
 35 40  1  0  0  0  0
 36 41  1  0  0  0  0
 37 45  1  6  0  0  0
 38 34  1  6  0  0  0
 38 39  1  0  0  0  0
 39 37  1  0  0  0  0
 40 38  1  0  0  0  0
 40 39  1  0  0  0  0
 41 37  1  0  0  0  0
 42 35  1  0  0  0  0
 42 36  1  0  0  0  0
 43 45  1  0  0  0  0
 45 44  1  0  0  0  0
M  END
>  <MODEL>
6

>  <REMARK>
 VINA RESULT:      -7.5      3.749      6.921
  Name = 
  13 active torsions:
  status: ('A' for Active; 'I' for Inactive)
    1  A    between atoms: C_1  and  N_15
    2  A    between atoms: C_1  and  C_26
    3  A    between atoms: C_4  and  C_10
    4  A    between atoms: C_9  and  C_28
    5  A    between atoms: C_10  and  C_44
    6  A    between atoms: C_12  and  C_37
    7  A    between atoms: N_15  and  C_29
    8  A    between atoms: C_16  and  C_33
    9  A    between atoms: N_18  and  C_42
   10  A    between atoms: C_21  and  C_35
   11  A    between atoms: C_24  and  C_33
   12  A    between atoms: C_28  and  S_39
   13  A    between atoms: C_35  and  S_39
                            x       y       z     vdW  Elec       q    Type
                         _______ _______ _______ _____ _____    ______ ____

>  <TORSDO>
F 13

$$$$
=
 OpenBabel11032420403D

 45 49  0  0  1  0  0  0  0  0999 V2000
  188.7270  176.6780  136.8150 C   0  0  0  0  0  3  0  0  0  0  0  0
  190.0640  176.9950  138.8210 C   0  0  0  0  0  0  0  0  0  0  0  0
  188.2470  178.5240  138.2860 C   0  0  0  0  0  3  0  0  0  0  0  0
  189.7690  176.2580  137.6500 C   0  0  0  0  0  0  0  0  0  0  0  0
  187.9750  177.8170  137.1150 C   0  0  0  0  0  0  0  0  0  0  0  0
  189.2790  178.1170  139.1310 C   0  0  0  0  0  3  0  0  0  0  0  0
  189.5860  173.8870  137.2340 O   0  0  0  0  0  1  0  0  0  0  0  0
  190.4640  174.9740  137.2720 C   0  0  1  0  0  3  0  0  0  0  0  0
  190.6060  175.0720  134.8850 O   0  0  0  0  0  0  0  0  0  0  0  0
  191.2200  175.1060  135.9830 C   0  0  0  0  0  0  0  0  0  0  0  0
  192.6370  175.2870  135.9820 N   0  0  0  0  0  2  0  0  0  0  0  0
  193.9350  176.5020  137.4820 O   0  0  0  0  0  1  0  0  0  0  0  0
  193.4320  175.2320  137.1960 C   0  0  0  0  0  2  0  0  0  0  0  0
  186.9020  178.2400  136.2680 N   0  0  0  0  0  2  0  0  0  0  0  0
  185.8540  177.3480  135.7810 C   0  0  0  0  0  2  0  0  0  0  0  0
  182.8600  176.8130  139.1640 C   0  0  0  0  0  0  0  0  0  0  0  0
  182.5760  179.3580  140.4450 C   0  0  0  0  0  3  0  0  0  0  0  0
  181.7860  177.1170  139.8980 C   0  0  0  0  0  2  0  0  0  0  0  0
  183.7060  174.9690  137.8170 N   0  0  0  0  0  0  0  0  0  0  0  0
  184.9770  176.9050  136.9060 C   0  0  0  0  0  0  0  0  0  0  0  0
  183.9000  177.8480  138.9770 C   0  0  1  0  0  3  0  0  0  0  0  0
  183.0070  175.4490  138.7700 N   0  0  0  0  0  0  0  0  0  0  0  0
  184.5150  175.6570  136.8560 C   0  0  0  0  0  3  0  0  0  0  0  0
  184.7920  177.8600  137.9990 C   0  0  0  0  0  3  0  0  0  0  0  0
  183.9440  179.0000  139.9390 C   0  0  0  0  0  2  0  0  0  0  0  0
  181.5870  178.4630  140.4670 C   0  0  0  0  0  0  0  0  0  0  0  0
  180.2660  178.8400  141.0410 C   0  0  0  0  0  2  0  0  0  0  0  0
  180.3860  179.1550  142.5240 C   0  0  0  0  0  3  0  0  0  0  0  0
  179.8890  180.4330  142.7760 O   0  0  0  0  0  1  0  0  0  0  0  0
  179.6490  178.2230  143.2490 O   0  0  0  0  0  1  0  0  0  0  0  0
  191.1860  176.5710  139.7300 C   0  0  0  0  0  2  0  0  0  0  0  0
  191.2950  177.5050  141.2980 S   0  0  0  0  0  0  0  0  0  0  0  0
  190.3530  175.3940  142.5880 O   0  0  0  0  0  0  0  0  0  0  0  0
  190.0870  176.5210  142.2010 C   0  0  0  0  0  0  0  0  0  0  0  0
  186.6210  176.8870  143.9820 C   0  0  0  0  0  2  0  0  0  0  0  0
  187.1960  178.2840  145.9010 O   0  0  0  0  0  0  0  0  0  0  0  0
  189.4560  178.0820  144.9840 C   0  0  1  0  0  3  0  0  0  0  0  0
  188.7200  177.0890  142.4250 C   0  0  2  0  0  3  0  0  0  0  0  0
  188.6810  178.0130  143.6490 C   0  0  1  0  0  3  0  0  0  0  0  0
  188.0830  176.6090  143.7000 C   0  0  1  0  0  3  0  0  0  0  0  0
  188.5130  177.8710  146.2010 C   0  0  0  0  0  2  0  0  0  0  0  0
  186.4850  177.1320  145.4970 C   0  0  0  0  0  2  0  0  0  0  0  0
  191.0440  176.7380  146.4550 C   0  0  0  0  0  1  0  0  0  0  0  0
  191.9360  178.2630  144.7200 C   0  0  0  0  0  1  0  0  0  0  0  0
  190.7960  177.3330  145.0780 C   0  0  0  0  0  3  0  0  0  0  0  0
  1  5  2  0  0  0  0
  1  4  1  0  0  0  0
  2  6  1  0  0  0  0
  2 31  1  0  0  0  0
  3  6  2  0  0  0  0
  4  2  2  0  0  0  0
  5  3  1  0  0  0  0
  8  7  1  6  0  0  0
  8  4  1  0  0  0  0
  9 10  2  0  0  0  0
 10  8  1  0  0  0  0
 11 10  1  0  0  0  0
 11 13  1  0  0  0  0
 13 12  1  0  0  0  0
 14  5  1  0  0  0  0
 15 14  1  0  0  0  0
 15 20  1  0  0  0  0
 16 18  1  0  0  0  0
 17 26  2  0  0  0  0
 18 26  1  0  0  0  0
 19 22  1  0  0  0  0
 20 24  2  0  0  0  0
 21 24  1  6  0  0  0
 21 16  1  0  0  0  0
 21 25  1  0  0  0  0
 22 16  2  0  0  0  0
 23 20  1  0  0  0  0
 23 19  2  0  0  0  0
 25 17  1  0  0  0  0
 26 27  1  0  0  0  0
 27 28  1  0  0  0  0
 28 29  1  0  0  0  0
 28 30  1  0  0  0  0
 31 32  1  0  0  0  0
 32 34  1  0  0  0  0
 34 33  2  0  0  0  0
 35 42  1  0  0  0  0
 36 41  1  0  0  0  0
 37 45  1  6  0  0  0
 37 41  1  0  0  0  0
 38 34  1  1  0  0  0
 38 39  1  0  0  0  0
 38 40  1  0  0  0  0
 39 40  1  0  0  0  0
 39 37  1  0  0  0  0
 40 35  1  0  0  0  0
 42 36  1  0  0  0  0
 44 45  1  0  0  0  0
 45 43  1  0  0  0  0
M  END
>  <MODEL>
7

>  <REMARK>
 VINA RESULT:      -7.5      3.374      8.635
  Name = 
  13 active torsions:
  status: ('A' for Active; 'I' for Inactive)
    1  A    between atoms: C_1  and  N_15
    2  A    between atoms: C_1  and  C_26
    3  A    between atoms: C_4  and  C_10
    4  A    between atoms: C_9  and  C_28
    5  A    between atoms: C_10  and  C_44
    6  A    between atoms: C_12  and  C_37
    7  A    between atoms: N_15  and  C_29
    8  A    between atoms: C_16  and  C_33
    9  A    between atoms: N_18  and  C_42
   10  A    between atoms: C_21  and  C_35
   11  A    between atoms: C_24  and  C_33
   12  A    between atoms: C_28  and  S_39
   13  A    between atoms: C_35  and  S_39
                            x       y       z     vdW  Elec       q    Type
                         _______ _______ _______ _____ _____    ______ ____

>  <TORSDO>
F 13

$$$$
=
 OpenBabel11032420403D

 45 49  0  0  1  0  0  0  0  0999 V2000
  185.2910  178.2740  138.0990 C   0  0  0  0  0  3  0  0  0  0  0  0
  186.9570  178.3350  139.8690 C   0  0  0  0  0  0  0  0  0  0  0  0
  187.5260  177.4960  137.6560 C   0  0  0  0  0  3  0  0  0  0  0  0
  185.6390  178.5860  139.4190 C   0  0  0  0  0  0  0  0  0  0  0  0
  186.2200  177.7130  137.2200 C   0  0  0  0  0  0  0  0  0  0  0  0
  187.8920  177.8040  138.9650 C   0  0  0  0  0  3  0  0  0  0  0  0
  183.7770  180.1200  139.5070 O   0  0  0  0  0  1  0  0  0  0  0  0
  184.5820  179.2580  140.2580 C   0  0  1  0  0  3  0  0  0  0  0  0
  183.0670  177.4090  140.3920 O   0  0  0  0  0  0  0  0  0  0  0  0
  183.7530  178.2630  141.0140 C   0  0  0  0  0  0  0  0  0  0  0  0
  183.7390  178.2570  142.4420 N   0  0  0  0  0  2  0  0  0  0  0  0
  184.1710  179.0420  144.5880 O   0  0  0  0  0  1  0  0  0  0  0  0
  184.4150  179.2700  143.2340 C   0  0  0  0  0  2  0  0  0  0  0  0
  185.8670  177.4040  135.8680 N   0  0  0  0  0  2  0  0  0  0  0  0
  185.4820  176.0710  135.4140 C   0  0  0  0  0  2  0  0  0  0  0  0
  189.3310  173.8180  136.3120 C   0  0  0  0  0  0  0  0  0  0  0  0
  191.5010  175.5500  135.6110 C   0  0  0  0  0  3  0  0  0  0  0  0
  190.5560  173.6560  136.8210 C   0  0  0  0  0  2  0  0  0  0  0  0
  187.1180  172.8170  136.4870 N   0  0  0  0  0  0  0  0  0  0  0  0
  186.5920  175.0980  135.6430 C   0  0  0  0  0  0  0  0  0  0  0  0
  189.0940  174.9590  135.4010 C   0  0  0  0  0  0  0  0  0  0  0  0
  188.3910  172.7690  136.5430 N   0  0  0  0  0  2  0  0  0  0  0  0
  186.2690  173.9350  136.2050 C   0  0  0  0  0  3  0  0  0  0  0  0
  187.9090  175.4850  135.1350 C   0  0  0  0  0  3  0  0  0  0  0  0
  190.2780  175.6070  134.7420 C   0  0  0  0  0  2  0  0  0  0  0  0
  191.6460  174.6100  136.5470 C   0  0  0  0  0  0  0  0  0  0  0  0
  192.9040  174.5480  137.3390 C   0  0  0  0  0  2  0  0  0  0  0  0
  193.6400  175.8790  137.2980 C   0  0  0  0  0  3  0  0  0  0  0  0
  193.8510  176.3410  138.5960 O   0  0  0  0  0  1  0  0  0  0  0  0
  194.8680  175.7020  136.6660 O   0  0  0  0  0  1  0  0  0  0  0  0
  187.3550  178.6510  141.2850 C   0  0  0  0  0  2  0  0  0  0  0  0
  188.9680  177.9600  141.7990 S   0  0  0  0  0  0  0  0  0  0  0  0
  188.4270  175.7900  143.2150 O   0  0  0  0  0  0  0  0  0  0  0  0
  188.3430  177.0080  143.1930 C   0  0  0  0  0  0  0  0  0  0  0  0
  187.0190  177.5060  146.8430 C   0  0  0  0  0  2  0  0  0  0  0  0
  189.0450  178.2120  148.0110 O   0  0  0  0  0  0  0  0  0  0  0  0
  190.0680  177.8560  145.8160 C   0  0  1  0  0  3  0  0  0  0  0  0
  187.6600  177.7340  144.3110 C   0  0  2  0  0  3  0  0  0  0  0  0
  188.6670  178.2880  145.3280 C   0  0  1  0  0  3  0  0  0  0  0  0
  187.8250  177.0530  145.6430 C   0  0  1  0  0  3  0  0  0  0  0  0
  190.0590  177.5030  147.3290 C   0  0  0  0  0  2  0  0  0  0  0  0
  187.9220  177.3580  148.0830 C   0  0  0  0  0  2  0  0  0  0  0  0
  191.7210  175.9190  145.7500 C   0  0  0  0  0  1  0  0  0  0  0  0
  191.7520  177.6500  143.9800 C   0  0  0  0  0  1  0  0  0  0  0  0
  190.8670  176.8800  144.9380 C   0  0  0  0  0  3  0  0  0  0  0  0
  1  4  1  0  0  0  0
  2 31  1  0  0  0  0
  3  6  2  0  0  0  0
  4  2  2  0  0  0  0
  4  8  1  0  0  0  0
  5  3  1  0  0  0  0
  5  1  2  0  0  0  0
  6  2  1  0  0  0  0
  8  7  1  6  0  0  0
  8 10  1  0  0  0  0
  9 10  2  0  0  0  0
 10 11  1  0  0  0  0
 11 13  1  0  0  0  0
 13 12  1  0  0  0  0
 14  5  1  0  0  0  0
 15 20  1  0  0  0  0
 15 14  1  0  0  0  0
 16 22  1  0  0  0  0
 16 18  1  0  0  0  0
 17 26  2  0  0  0  0
 19 22  1  0  0  0  0
 20 23  1  0  0  0  0
 21 16  2  0  0  0  0
 23 19  2  0  0  0  0
 24 21  1  0  0  0  0
 24 20  2  0  0  0  0
 25 21  1  0  0  0  0
 25 17  1  0  0  0  0
 26 18  1  0  0  0  0
 26 27  1  0  0  0  0
 28 27  1  0  0  0  0
 28 29  1  0  0  0  0
 30 28  1  0  0  0  0
 31 32  1  0  0  0  0
 32 34  1  0  0  0  0
 34 33  2  0  0  0  0
 35 42  1  0  0  0  0
 36 42  1  0  0  0  0
 37 45  1  6  0  0  0
 37 41  1  0  0  0  0
 38 34  1  6  0  0  0
 38 39  1  0  0  0  0
 38 40  1  0  0  0  0
 39 40  1  0  0  0  0
 39 37  1  0  0  0  0
 40 35  1  0  0  0  0
 41 36  1  0  0  0  0
 44 45  1  0  0  0  0
 45 43  1  0  0  0  0
M  END
>  <MODEL>
8

>  <REMARK>
 VINA RESULT:      -7.4      2.950      8.172
  Name = 
  13 active torsions:
  status: ('A' for Active; 'I' for Inactive)
    1  A    between atoms: C_1  and  N_15
    2  A    between atoms: C_1  and  C_26
    3  A    between atoms: C_4  and  C_10
    4  A    between atoms: C_9  and  C_28
    5  A    between atoms: C_10  and  C_44
    6  A    between atoms: C_12  and  C_37
    7  A    between atoms: N_15  and  C_29
    8  A    between atoms: C_16  and  C_33
    9  A    between atoms: N_18  and  C_42
   10  A    between atoms: C_21  and  C_35
   11  A    between atoms: C_24  and  C_33
   12  A    between atoms: C_28  and  S_39
   13  A    between atoms: C_35  and  S_39
                            x       y       z     vdW  Elec       q    Type
                         _______ _______ _______ _____ _____    ______ ____

>  <TORSDO>
F 13

$$$$
=
 OpenBabel11032420403D

 45 49  0  0  1  0  0  0  0  0999 V2000
  182.3430  179.0880  140.7410 C   0  0  0  0  0  3  0  0  0  0  0  0
  182.0370  178.9650  138.3320 C   0  0  0  0  0  0  0  0  0  0  0  0
  184.2150  178.5310  139.3310 C   0  0  0  0  0  3  0  0  0  0  0  0
  181.5050  179.1870  139.6240 C   0  0  0  0  0  0  0  0  0  0  0  0
  183.6990  178.7800  140.6010 C   0  0  0  0  0  0  0  0  0  0  0  0
  183.3940  178.6210  138.2070 C   0  0  0  0  0  3  0  0  0  0  0  0
  179.4060  178.3460  140.4720 O   0  0  0  0  0  1  0  0  0  0  0  0
  180.0450  179.4480  139.8930 C   0  0  1  0  0  3  0  0  0  0  0  0
  179.8650  180.6200  141.9730 O   0  0  0  0  0  0  0  0  0  0  0  0
  179.8410  180.6860  140.7160 C   0  0  0  0  0  0  0  0  0  0  0  0
  179.6330  181.9530  140.0900 N   0  0  0  0  0  2  0  0  0  0  0  0
  180.7390  182.3080  138.0750 O   0  0  0  0  0  1  0  0  0  0  0  0
  179.4860  182.1000  138.6530 C   0  0  0  0  0  2  0  0  0  0  0  0
  184.5540  178.6680  141.7440 N   0  0  0  0  0  2  0  0  0  0  0  0
  184.2730  179.2970  143.0310 C   0  0  0  0  0  2  0  0  0  0  0  0
  187.5520  177.6850  145.7410 C   0  0  0  0  0  0  0  0  0  0  0  0
  189.6110  176.6470  144.0430 C   0  0  0  0  0  3  0  0  0  0  0  0
  188.8070  177.5260  146.1700 C   0  0  0  0  0  2  0  0  0  0  0  0
  185.4160  178.5140  146.5660 N   0  0  0  0  0  0  0  0  0  0  0  0
  185.1330  178.7110  144.1020 C   0  0  0  0  0  0  0  0  0  0  0  0
  187.2440  177.3580  144.3320 C   0  0  0  0  0  0  0  0  0  0  0  0
  186.5650  177.9850  146.7280 N   0  0  0  0  0  2  0  0  0  0  0  0
  184.8000  178.9830  145.3620 C   0  0  0  0  0  3  0  0  0  0  0  0
  186.2010  177.8140  143.6560 C   0  0  0  0  0  3  0  0  0  0  0  0
  188.1930  176.4700  143.5800 C   0  0  0  0  0  2  0  0  0  0  0  0
  189.8900  177.0960  145.2680 C   0  0  0  0  0  0  0  0  0  0  0  0
  191.3080  177.1910  145.7100 C   0  0  0  0  0  2  0  0  0  0  0  0
  191.5580  176.3220  146.9330 C   0  0  0  0  0  3  0  0  0  0  0  0
  192.4900  175.3330  146.6260 O   0  0  0  0  0  1  0  0  0  0  0  0
  192.0520  177.1160  147.9640 O   0  0  0  0  0  1  0  0  0  0  0  0
  181.1610  179.0750  137.1130 C   0  0  0  0  0  2  0  0  0  0  0  0
  181.4080  177.7570  135.8700 S   0  0  0  0  0  0  0  0  0  0  0  0
  178.9790  177.4210  136.8670 O   0  0  0  0  0  0  0  0  0  0  0  0
  179.8180  176.9500  136.1150 C   0  0  0  0  0  0  0  0  0  0  0  0
  180.7510  173.4660  134.5940 C   0  0  0  0  0  2  0  0  0  0  0  0
  180.8070  172.0560  136.5870 O   0  0  0  0  0  0  0  0  0  0  0  0
  180.3200  174.1670  137.7230 C   0  0  1  0  0  3  0  0  0  0  0  0
  179.5570  175.6490  135.4200 C   0  0  2  0  0  3  0  0  0  0  0  0
  179.5830  174.4670  136.3980 C   0  0  1  0  0  3  0  0  0  0  0  0
  180.7430  174.7230  135.4390 C   0  0  1  0  0  3  0  0  0  0  0  0
  181.2680  172.9450  137.5830 C   0  0  0  0  0  2  0  0  0  0  0  0
  181.4930  172.3800  135.3950 C   0  0  0  0  0  2  0  0  0  0  0  0
  182.4390  175.3470  138.5030 C   0  0  0  0  0  1  0  0  0  0  0  0
  180.4120  175.3490  139.9240 C   0  0  0  0  0  1  0  0  0  0  0  0
  180.9190  175.3530  138.4970 C   0  0  0  0  0  3  0  0  0  0  0  0
  2  4  1  0  0  0  0
  3  5  2  0  0  0  0
  4  8  1  0  0  0  0
  4  1  2  0  0  0  0
  5  1  1  0  0  0  0
  5 14  1  0  0  0  0
  6  2  2  0  0  0  0
  6  3  1  0  0  0  0
  8  7  1  1  0  0  0
  8 10  1  0  0  0  0
 10  9  2  0  0  0  0
 11 10  1  0  0  0  0
 12 13  1  0  0  0  0
 13 11  1  0  0  0  0
 14 15  1  0  0  0  0
 15 20  1  0  0  0  0
 16 18  1  0  0  0  0
 16 22  1  0  0  0  0
 17 26  2  0  0  0  0
 19 22  1  0  0  0  0
 20 23  1  0  0  0  0
 21 16  2  0  0  0  0
 23 19  2  0  0  0  0
 24 20  2  0  0  0  0
 24 21  1  0  0  0  0
 25 17  1  0  0  0  0
 25 21  1  0  0  0  0
 26 27  1  0  0  0  0
 26 18  1  0  0  0  0
 27 28  1  0  0  0  0
 28 30  1  0  0  0  0
 29 28  1  0  0  0  0
 31  2  1  0  0  0  0
 32 34  1  0  0  0  0
 32 31  1  0  0  0  0
 34 33  2  0  0  0  0
 35 42  1  0  0  0  0
 35 40  1  0  0  0  0
 36 41  1  0  0  0  0
 37 45  1  6  0  0  0
 38 40  1  0  0  0  0
 38 34  1  1  0  0  0
 38 39  1  0  0  0  0
 39 37  1  0  0  0  0
 40 39  1  0  0  0  0
 41 37  1  0  0  0  0
 42 36  1  0  0  0  0
 45 43  1  0  0  0  0
 45 44  1  0  0  0  0
M  END
>  <MODEL>
9

>  <REMARK>
 VINA RESULT:      -7.4      3.712      5.919
  Name = 
  13 active torsions:
  status: ('A' for Active; 'I' for Inactive)
    1  A    between atoms: C_1  and  N_15
    2  A    between atoms: C_1  and  C_26
    3  A    between atoms: C_4  and  C_10
    4  A    between atoms: C_9  and  C_28
    5  A    between atoms: C_10  and  C_44
    6  A    between atoms: C_12  and  C_37
    7  A    between atoms: N_15  and  C_29
    8  A    between atoms: C_16  and  C_33
    9  A    between atoms: N_18  and  C_42
   10  A    between atoms: C_21  and  C_35
   11  A    between atoms: C_24  and  C_33
   12  A    between atoms: C_28  and  S_39
   13  A    between atoms: C_35  and  S_39
                            x       y       z     vdW  Elec       q    Type
                         _______ _______ _______ _____ _____    ______ ____

>  <TORSDO>
F 13

$$$$
