=
 OpenBabel11042411063D

 39 43  0  0  1  0  0  0  0  0999 V2000
  187.0810  178.2670  142.0560 C   0  0  0  0  0  3  0  0  0  0  0  0
  184.8020  178.4440  142.8470 C   0  0  0  0  0  0  0  0  0  0  0  0
  186.6660  178.5260  140.7420 C   0  0  0  0  0  0  0  0  0  0  0  0
  186.1580  178.2250  143.1020 C   0  0  0  0  0  3  0  0  0  0  0  0
  185.2970  178.7380  140.4830 C   0  0  0  0  0  0  0  0  0  0  0  0
  184.3730  178.6940  141.5420 C   0  0  0  0  0  3  0  0  0  0  0  0
  184.0590  180.2440  139.0100 N   0  0  0  0  0  0  0  0  0  0  0  0
  183.8640  177.9530  138.6110 C   0  0  0  0  0  3  0  0  0  0  0  0
  182.7420  178.5760  138.3070 C   0  0  0  0  0  0  0  0  0  0  0  0
  182.8740  179.9970  138.5610 C   0  0  0  0  0  3  0  0  0  0  0  0
  184.8260  179.0030  139.0800 C   0  0  2  0  0  3  0  0  0  0  0  0
  181.5720  177.9200  137.8200 N   0  0  0  0  0  2  0  0  0  0  0  0
  180.3540  177.8370  138.6100 C   0  0  0  0  0  2  0  0  0  0  0  0
  180.6090  177.0600  139.8910 C   0  0  0  0  0  2  0  0  0  0  0  0
  180.1850  177.8380  141.0920 C   0  0  0  0  0  0  0  0  0  0  0  0
  180.6060  179.1520  141.2660 O   0  0  0  0  0  0  0  0  0  0  0  0
  179.4650  177.2920  141.9680 O   0  0  0  0  0  1  0  0  0  0  0  0
  187.6030  178.5710  139.6510 N   0  0  0  0  0  2  0  0  0  0  0  0
  190.5420  175.7610  138.6530 N   0  0  0  0  0  0  0  0  0  0  0  0
  190.7360  176.5740  139.7240 C   0  0  0  0  0  3  0  0  0  0  0  0
  189.7610  177.5120  140.0580 C   0  0  0  0  0  3  0  0  0  0  0  0
  188.6030  177.6040  139.2890 C   0  0  0  0  0  0  0  0  0  0  0  0
  188.4560  176.7410  138.1970 C   0  0  0  0  0  3  0  0  0  0  0  0
  189.4340  175.8420  137.9120 N   0  0  0  0  0  0  0  0  0  0  0  0
  183.8140  178.3870  143.9590 C   0  0  0  0  0  2  0  0  0  0  0  0
  184.1830  179.3900  145.0340 C   0  0  0  0  0  2  0  0  0  0  0  0
  184.4510  178.6640  146.3360 C   0  0  0  0  0  2  0  0  0  0  0  0
  186.8500  177.9760  146.7480 C   0  0  0  0  0  0  0  0  0  0  0  0
  185.8020  178.9490  146.7950 N   0  0  0  0  0  2  0  0  0  0  0  0
  186.6410  176.8360  146.2530 O   0  0  0  0  0  0  0  0  0  0  0  0
  188.3240  177.8320  148.7570 C   0  0  0  0  0  1  0  0  0  0  0  0
  188.2010  178.2900  147.3110 C   0  0  1  0  0  3  0  0  0  0  0  0
  190.7140  178.4160  144.5020 C   0  0  2  0  0  3  0  0  0  0  0  0
  189.3070  178.0110  144.9790 C   0  0  0  0  0  2  0  0  0  0  0  0
  189.3070  177.7410  146.4550 C   0  0  0  0  0  0  0  0  0  0  0  0
  191.3480  177.3080  143.7950 C   0  0  0  0  0  2  0  0  0  0  0  0
  190.3240  177.0400  146.9690 C   0  0  0  0  0  3  0  0  0  0  0  0
  191.3910  176.5650  146.0300 C   0  0  0  0  0  2  0  0  0  0  0  0
  191.8290  177.6520  145.1440 N   0  0  2  0  0  0  0  0  0  0  0  0
  1  4  1  0  0  0  0
  2  4  2  0  0  0  0
  2 25  1  0  0  0  0
  3  1  2  0  0  0  0
  5  3  1  0  0  0  0
  5  6  2  0  0  0  0
  6  2  1  0  0  0  0
  7 11  1  0  0  0  0
  8 11  1  0  0  0  0
  9 10  1  0  0  0  0
  9  8  2  0  0  0  0
 10  7  2  0  0  0  0
 11  5  1  1  0  0  0
 12  9  1  0  0  0  0
 12 13  1  0  0  0  0
 13 14  1  0  0  0  0
 14 15  1  0  0  0  0
 15 16  2  0  0  0  0
 15 17  1  0  0  0  0
 18  3  1  0  0  0  0
 19 20  1  0  0  0  0
 20 21  2  0  0  0  0
 22 18  1  0  0  0  0
 22 21  1  0  0  0  0
 23 22  2  0  0  0  0
 24 23  1  0  0  0  0
 24 19  2  0  0  0  0
 25 26  1  0  0  0  0
 26 27  1  0  0  0  0
 27 29  1  0  0  0  0
 28 29  1  0  0  0  0
 28 32  1  0  0  0  0
 30 28  2  0  0  0  0
 32 31  1  1  0  0  0
 33 36  1  6  0  0  0
 33 34  1  0  0  0  0
 33 39  1  0  0  0  0
 34 35  1  0  0  0  0
 35 37  2  0  0  0  0
 35 32  1  0  0  0  0
 38 37  1  0  0  0  0
 39 36  1  6  0  0  0
 39 38  1  0  0  0  0
M  END
>  <MODEL>
1

>  <REMARK>
 VINA RESULT:      -8.7      0.000      0.000
  Name = 
  13 active torsions:
  status: ('A' for Active; 'I' for Inactive)
    1  A    between atoms: C_6  and  C_33
    2  A    between atoms: C_7  and  C_31
    3  A    between atoms: C_8  and  C_22
    4  A    between atoms: C_11  and  N_35
    5  A    between atoms: C_13  and  C_31
    6  A    between atoms: N_15  and  C_16
    7  A    between atoms: N_15  and  C_21
    8  A    between atoms: C_18  and  N_25
    9  A    between atoms: C_18  and  C_34
   10  A    between atoms: C_20  and  C_23
   11  A    between atoms: C_22  and  C_34
   12  A    between atoms: C_29  and  C_33
   13  A    between atoms: C_29  and  N_35
                            x       y       z     vdW  Elec       q    Type
                         _______ _______ _______ _____ _____    ______ ____

>  <TORSDO>
F 13

$$$$
=
 OpenBabel11042411063D

 39 43  0  0  1  0  0  0  0  0999 V2000
  186.9570  178.3600  141.9090 C   0  0  0  0  0  3  0  0  0  0  0  0
  184.6720  178.5790  142.6670 C   0  0  0  0  0  0  0  0  0  0  0  0
  186.5580  178.5700  140.5810 C   0  0  0  0  0  0  0  0  0  0  0  0
  186.0230  178.3630  142.9450 C   0  0  0  0  0  3  0  0  0  0  0  0
  185.1930  178.7790  140.2990 C   0  0  0  0  0  0  0  0  0  0  0  0
  184.2580  178.7800  141.3490 C   0  0  0  0  0  3  0  0  0  0  0  0
  183.3980  179.5670  138.8420 N   0  0  0  0  0  0  0  0  0  0  0  0
  184.6020  177.6940  138.1430 C   0  0  0  0  0  3  0  0  0  0  0  0
  183.3470  177.6180  137.7430 C   0  0  0  0  0  0  0  0  0  0  0  0
  182.6080  178.7840  138.1850 C   0  0  0  0  0  3  0  0  0  0  0  0
  184.7390  178.9920  138.8820 C   0  0  2  0  0  3  0  0  0  0  0  0
  182.8120  176.5220  137.0020 N   0  0  0  0  0  2  0  0  0  0  0  0
  183.6420  175.4060  136.5750 C   0  0  0  0  0  2  0  0  0  0  0  0
  183.6230  174.3060  137.6230 C   0  0  0  0  0  2  0  0  0  0  0  0
  184.5960  173.2240  137.2940 C   0  0  0  0  0  0  0  0  0  0  0  0
  185.6260  172.9110  138.1730 O   0  0  0  0  0  1  0  0  0  0  0  0
  184.5020  172.6100  136.1990 O   0  0  0  0  0  0  0  0  0  0  0  0
  187.5080  178.5680  139.4990 N   0  0  0  0  0  2  0  0  0  0  0  0
  190.5940  175.8320  138.7830 N   0  0  0  0  0  0  0  0  0  0  0  0
  190.6710  176.6540  139.8620 C   0  0  0  0  0  3  0  0  0  0  0  0
  189.6470  177.5680  140.1030 C   0  0  0  0  0  3  0  0  0  0  0  0
  188.5600  177.6270  139.2330 C   0  0  0  0  0  0  0  0  0  0  0  0
  188.5330  176.7570  138.1380 C   0  0  0  0  0  3  0  0  0  0  0  0
  189.5560  175.8820  137.9460 N   0  0  0  0  0  0  0  0  0  0  0  0
  183.6710  178.5700  143.7690 C   0  0  0  0  0  2  0  0  0  0  0  0
  184.1200  179.4930  144.8860 C   0  0  0  0  0  2  0  0  0  0  0  0
  184.3470  178.6880  146.1490 C   0  0  0  0  0  2  0  0  0  0  0  0
  186.7290  177.9810  146.6260 C   0  0  0  0  0  0  0  0  0  0  0  0
  185.6790  178.9530  146.6720 N   0  0  0  0  0  2  0  0  0  0  0  0
  186.5390  176.8630  146.0760 O   0  0  0  0  0  0  0  0  0  0  0  0
  188.1110  177.7760  148.6930 C   0  0  0  0  0  1  0  0  0  0  0  0
  188.0560  178.2690  147.2550 C   0  0  1  0  0  3  0  0  0  0  0  0
  190.6280  178.4030  144.5010 C   0  0  2  0  0  3  0  0  0  0  0  0
  189.2210  177.9720  144.9550 C   0  0  0  0  0  2  0  0  0  0  0  0
  189.1940  177.7320  146.4350 C   0  0  0  0  0  0  0  0  0  0  0  0
  191.3050  177.2970  143.8300 C   0  0  0  0  0  2  0  0  0  0  0  0
  190.2160  177.0660  146.9860 C   0  0  0  0  0  3  0  0  0  0  0  0
  191.3150  176.5990  146.0810 C   0  0  0  0  0  2  0  0  0  0  0  0
  191.7470  177.6790  145.1820 N   0  0  2  0  0  0  0  0  0  0  0  0
  1  4  1  0  0  0  0
  2  4  2  0  0  0  0
  2 25  1  0  0  0  0
  3  1  2  0  0  0  0
  5  3  1  0  0  0  0
  5  6  2  0  0  0  0
  6  2  1  0  0  0  0
  7 11  1  0  0  0  0
  8 11  1  0  0  0  0
  9  8  2  0  0  0  0
  9 10  1  0  0  0  0
 10  7  2  0  0  0  0
 11  5  1  1  0  0  0
 12  9  1  0  0  0  0
 13 12  1  0  0  0  0
 13 14  1  0  0  0  0
 15 14  1  0  0  0  0
 15 16  1  0  0  0  0
 17 15  2  0  0  0  0
 18  3  1  0  0  0  0
 19 20  1  0  0  0  0
 20 21  2  0  0  0  0
 22 18  1  0  0  0  0
 22 21  1  0  0  0  0
 23 22  2  0  0  0  0
 24 23  1  0  0  0  0
 24 19  2  0  0  0  0
 25 26  1  0  0  0  0
 26 27  1  0  0  0  0
 27 29  1  0  0  0  0
 28 29  1  0  0  0  0
 28 32  1  0  0  0  0
 30 28  2  0  0  0  0
 32 31  1  1  0  0  0
 33 36  1  6  0  0  0
 33 34  1  0  0  0  0
 33 39  1  0  0  0  0
 34 35  1  0  0  0  0
 35 37  2  0  0  0  0
 35 32  1  0  0  0  0
 38 37  1  0  0  0  0
 39 36  1  6  0  0  0
 39 38  1  0  0  0  0
M  END
>  <MODEL>
2

>  <REMARK>
 VINA RESULT:      -8.4      2.319      2.593
  Name = 
  13 active torsions:
  status: ('A' for Active; 'I' for Inactive)
    1  A    between atoms: C_6  and  C_33
    2  A    between atoms: C_7  and  C_31
    3  A    between atoms: C_8  and  C_22
    4  A    between atoms: C_11  and  N_35
    5  A    between atoms: C_13  and  C_31
    6  A    between atoms: N_15  and  C_16
    7  A    between atoms: N_15  and  C_21
    8  A    between atoms: C_18  and  N_25
    9  A    between atoms: C_18  and  C_34
   10  A    between atoms: C_20  and  C_23
   11  A    between atoms: C_22  and  C_34
   12  A    between atoms: C_29  and  C_33
   13  A    between atoms: C_29  and  N_35
                            x       y       z     vdW  Elec       q    Type
                         _______ _______ _______ _____ _____    ______ ____

>  <TORSDO>
F 13

$$$$
=
 OpenBabel11042411063D

 39 43  0  0  1  0  0  0  0  0999 V2000
  183.8830  178.8150  145.5970 C   0  0  0  0  0  3  0  0  0  0  0  0
  186.1710  178.0520  145.4280 C   0  0  0  0  0  0  0  0  0  0  0  0
  183.8830  179.1790  144.2430 C   0  0  0  0  0  0  0  0  0  0  0  0
  185.0170  178.2560  146.1880 C   0  0  0  0  0  3  0  0  0  0  0  0
  185.0500  178.9810  143.4790 C   0  0  0  0  0  0  0  0  0  0  0  0
  186.1890  178.4180  144.0810 C   0  0  0  0  0  3  0  0  0  0  0  0
  184.3970  178.3850  141.2020 N   0  0  0  0  0  0  0  0  0  0  0  0
  186.4780  179.4000  141.4890 C   0  0  0  0  0  3  0  0  0  0  0  0
  186.5110  178.5450  140.4850 C   0  0  0  0  0  0  0  0  0  0  0  0
  185.2140  177.9190  140.3170 C   0  0  0  0  0  3  0  0  0  0  0  0
  185.0790  179.3760  142.0280 C   0  0  2  0  0  3  0  0  0  0  0  0
  187.6750  178.2770  139.7050 N   0  0  0  0  0  2  0  0  0  0  0  0
  187.6350  178.2430  138.2510 C   0  0  0  0  0  2  0  0  0  0  0  0
  188.9450  178.7560  137.6770 C   0  0  0  0  0  2  0  0  0  0  0  0
  189.6680  177.6860  136.9300 C   0  0  0  0  0  0  0  0  0  0  0  0
  190.6060  176.8870  137.5750 O   0  0  0  0  0  1  0  0  0  0  0  0
  189.4480  177.5230  135.7020 O   0  0  0  0  0  0  0  0  0  0  0  0
  182.7230  179.7580  143.6180 N   0  0  0  0  0  2  0  0  0  0  0  0
  179.2010  177.8650  142.3790 N   0  0  0  0  0  0  0  0  0  0  0  0
  180.0540  178.3610  141.4440 C   0  0  0  0  0  3  0  0  0  0  0  0
  181.2260  178.9930  141.8530 C   0  0  0  0  0  3  0  0  0  0  0  0
  181.5060  179.1100  143.2130 C   0  0  0  0  0  0  0  0  0  0  0  0
  180.5920  178.5820  144.1310 C   0  0  0  0  0  3  0  0  0  0  0  0
  179.4630  177.9720  143.6840 N   0  0  0  0  0  0  0  0  0  0  0  0
  187.3870  177.4690  146.0590 C   0  0  0  0  0  2  0  0  0  0  0  0
  187.4230  177.8140  147.5350 C   0  0  0  0  0  2  0  0  0  0  0  0
  188.6950  177.2700  148.1530 C   0  0  0  0  0  2  0  0  0  0  0  0
  191.0140  176.9150  147.2050 C   0  0  0  0  0  0  0  0  0  0  0  0
  189.5910  176.7980  147.1080 N   0  0  0  0  0  2  0  0  0  0  0  0
  191.5440  177.3960  148.2420 O   0  0  0  0  0  0  0  0  0  0  0  0
  192.1990  175.0050  146.1210 C   0  0  0  0  0  1  0  0  0  0  0  0
  191.8890  176.4940  146.0660 C   0  0  1  0  0  3  0  0  0  0  0  0
  189.8370  175.9770  142.9460 C   0  0  2  0  0  3  0  0  0  0  0  0
  191.2100  175.8860  143.6360 C   0  0  0  0  0  2  0  0  0  0  0  0
  191.3150  176.8980  144.7380 C   0  0  0  0  0  0  0  0  0  0  0  0
  189.9630  176.6390  141.6510 C   0  0  0  0  0  2  0  0  0  0  0  0
  190.8550  178.1340  144.5080 C   0  0  0  0  0  3  0  0  0  0  0  0
  190.2750  178.4230  143.1570 C   0  0  0  0  0  2  0  0  0  0  0  0
  189.3270  177.3720  142.7590 N   0  0  2  0  0  0  0  0  0  0  0  0
  1  4  1  0  0  0  0
  2 25  1  0  0  0  0
  2  4  2  0  0  0  0
  3  1  2  0  0  0  0
  5  6  2  0  0  0  0
  5  3  1  0  0  0  0
  6  2  1  0  0  0  0
  7 11  1  0  0  0  0
  8 11  1  0  0  0  0
  9  8  2  0  0  0  0
 10  9  1  0  0  0  0
 10  7  2  0  0  0  0
 11  5  1  1  0  0  0
 12  9  1  0  0  0  0
 13 12  1  0  0  0  0
 14 13  1  0  0  0  0
 15 16  1  0  0  0  0
 15 14  1  0  0  0  0
 17 15  2  0  0  0  0
 18  3  1  0  0  0  0
 19 24  1  0  0  0  0
 20 21  1  0  0  0  0
 20 19  2  0  0  0  0
 21 22  2  0  0  0  0
 22 18  1  0  0  0  0
 22 23  1  0  0  0  0
 24 23  2  0  0  0  0
 25 26  1  0  0  0  0
 26 27  1  0  0  0  0
 28 30  2  0  0  0  0
 29 28  1  0  0  0  0
 29 27  1  0  0  0  0
 32 31  1  6  0  0  0
 32 28  1  0  0  0  0
 33 36  1  6  0  0  0
 33 34  1  0  0  0  0
 34 35  1  0  0  0  0
 35 32  1  0  0  0  0
 37 35  2  0  0  0  0
 38 37  1  0  0  0  0
 39 36  1  6  0  0  0
 39 33  1  0  0  0  0
 39 38  1  0  0  0  0
M  END
>  <MODEL>
3

>  <REMARK>
 VINA RESULT:      -8.2      3.357      6.441
  Name = 
  13 active torsions:
  status: ('A' for Active; 'I' for Inactive)
    1  A    between atoms: C_6  and  C_33
    2  A    between atoms: C_7  and  C_31
    3  A    between atoms: C_8  and  C_22
    4  A    between atoms: C_11  and  N_35
    5  A    between atoms: C_13  and  C_31
    6  A    between atoms: N_15  and  C_16
    7  A    between atoms: N_15  and  C_21
    8  A    between atoms: C_18  and  N_25
    9  A    between atoms: C_18  and  C_34
   10  A    between atoms: C_20  and  C_23
   11  A    between atoms: C_22  and  C_34
   12  A    between atoms: C_29  and  C_33
   13  A    between atoms: C_29  and  N_35
                            x       y       z     vdW  Elec       q    Type
                         _______ _______ _______ _____ _____    ______ ____

>  <TORSDO>
F 13

$$$$
=
 OpenBabel11042411063D

 39 43  0  0  1  0  0  0  0  0999 V2000
  184.8840  178.8630  141.9530 C   0  0  0  0  0  3  0  0  0  0  0  0
  186.7350  177.8120  143.0990 C   0  0  0  0  0  0  0  0  0  0  0  0
  185.6290  178.9280  140.7660 C   0  0  0  0  0  0  0  0  0  0  0  0
  185.4300  178.3100  143.1110 C   0  0  0  0  0  3  0  0  0  0  0  0
  186.9480  178.4340  140.7570 C   0  0  0  0  0  0  0  0  0  0  0  0
  187.4920  177.8780  141.9280 C   0  0  0  0  0  3  0  0  0  0  0  0
  187.2680  177.5800  138.4900 N   0  0  0  0  0  0  0  0  0  0  0  0
  189.1830  178.0530  139.7380 C   0  0  0  0  0  3  0  0  0  0  0  0
  189.3950  177.0350  138.9270 C   0  0  0  0  0  0  0  0  0  0  0  0
  188.1990  176.7480  138.1600 C   0  0  0  0  0  3  0  0  0  0  0  0
  187.7720  178.5050  139.5010 C   0  0  2  0  0  3  0  0  0  0  0  0
  190.6270  176.3200  138.8520 N   0  0  0  0  0  2  0  0  0  0  0  0
  191.5100  176.4310  137.7010 C   0  0  0  0  0  2  0  0  0  0  0  0
  192.9580  176.5130  138.1570 C   0  0  0  0  0  2  0  0  0  0  0  0
  193.7360  175.3190  137.7120 C   0  0  0  0  0  0  0  0  0  0  0  0
  193.1260  174.0740  137.6210 O   0  0  0  0  0  1  0  0  0  0  0  0
  194.9610  175.4360  137.4450 O   0  0  0  0  0  0  0  0  0  0  0  0
  185.0820  179.4970  139.5630 N   0  0  0  0  0  2  0  0  0  0  0  0
  181.5020  178.5010  137.6350 N   0  0  0  0  0  0  0  0  0  0  0  0
  182.5180  177.5980  137.6600 C   0  0  0  0  0  3  0  0  0  0  0  0
  183.7120  177.9270  138.2990 C   0  0  0  0  0  3  0  0  0  0  0  0
  183.8480  179.1760  138.9010 C   0  0  0  0  0  0  0  0  0  0  0  0
  182.7700  180.0660  138.8440 C   0  0  0  0  0  3  0  0  0  0  0  0
  181.6250  179.6990  138.2100 N   0  0  0  0  0  0  0  0  0  0  0  0
  187.3250  177.2340  144.3380 C   0  0  0  0  0  2  0  0  0  0  0  0
  186.4490  177.5590  145.5320 C   0  0  0  0  0  2  0  0  0  0  0  0
  187.2780  177.5070  146.7990 C   0  0  0  0  0  2  0  0  0  0  0  0
  189.7400  177.3640  147.3620 C   0  0  0  0  0  0  0  0  0  0  0  0
  188.6410  177.1060  146.4830 N   0  0  0  0  0  2  0  0  0  0  0  0
  189.5470  177.9130  148.4800 O   0  0  0  0  0  0  0  0  0  0  0  0
  191.4780  175.5750  147.3220 C   0  0  0  0  0  1  0  0  0  0  0  0
  191.1360  177.0110  146.9550 C   0  0  1  0  0  3  0  0  0  0  0  0
  190.8170  176.3430  143.2570 C   0  0  2  0  0  3  0  0  0  0  0  0
  191.6230  176.1510  144.5550 C   0  0  0  0  0  2  0  0  0  0  0  0
  191.3830  177.2910  145.5000 C   0  0  0  0  0  0  0  0  0  0  0  0
  191.6940  176.7730  142.1730 C   0  0  0  0  0  2  0  0  0  0  0  0
  191.3640  178.5320  145.0000 C   0  0  0  0  0  3  0  0  0  0  0  0
  191.5930  178.6980  143.5290 C   0  0  0  0  0  2  0  0  0  0  0  0
  190.7670  177.7540  142.7620 N   0  0  2  0  0  0  0  0  0  0  0  0
  1  4  1  0  0  0  0
  2  4  2  0  0  0  0
  2 25  1  0  0  0  0
  3  1  2  0  0  0  0
  5  3  1  0  0  0  0
  5  6  2  0  0  0  0
  6  2  1  0  0  0  0
  7 11  1  0  0  0  0
  9  8  2  0  0  0  0
 10  7  2  0  0  0  0
 10  9  1  0  0  0  0
 11  8  1  0  0  0  0
 11  5  1  1  0  0  0
 12  9  1  0  0  0  0
 13 14  1  0  0  0  0
 13 12  1  0  0  0  0
 15 14  1  0  0  0  0
 16 15  1  0  0  0  0
 17 15  2  0  0  0  0
 18  3  1  0  0  0  0
 19 20  2  0  0  0  0
 19 24  1  0  0  0  0
 20 21  1  0  0  0  0
 21 22  2  0  0  0  0
 22 18  1  0  0  0  0
 23 22  1  0  0  0  0
 24 23  2  0  0  0  0
 25 26  1  0  0  0  0
 26 27  1  0  0  0  0
 28 30  2  0  0  0  0
 29 27  1  0  0  0  0
 29 28  1  0  0  0  0
 32 31  1  6  0  0  0
 32 28  1  0  0  0  0
 33 36  1  6  0  0  0
 33 34  1  0  0  0  0
 34 35  1  0  0  0  0
 35 32  1  0  0  0  0
 37 35  2  0  0  0  0
 38 37  1  0  0  0  0
 39 36  1  6  0  0  0
 39 33  1  0  0  0  0
 39 38  1  0  0  0  0
M  END
>  <MODEL>
4

>  <REMARK>
 VINA RESULT:      -8.2      3.161      6.593
  Name = 
  13 active torsions:
  status: ('A' for Active; 'I' for Inactive)
    1  A    between atoms: C_6  and  C_33
    2  A    between atoms: C_7  and  C_31
    3  A    between atoms: C_8  and  C_22
    4  A    between atoms: C_11  and  N_35
    5  A    between atoms: C_13  and  C_31
    6  A    between atoms: N_15  and  C_16
    7  A    between atoms: N_15  and  C_21
    8  A    between atoms: C_18  and  N_25
    9  A    between atoms: C_18  and  C_34
   10  A    between atoms: C_20  and  C_23
   11  A    between atoms: C_22  and  C_34
   12  A    between atoms: C_29  and  C_33
   13  A    between atoms: C_29  and  N_35
                            x       y       z     vdW  Elec       q    Type
                         _______ _______ _______ _____ _____    ______ ____

>  <TORSDO>
F 13

$$$$
=
 OpenBabel11042411063D

 39 43  0  0  1  0  0  0  0  0999 V2000
  187.7290  178.5030  140.6750 C   0  0  0  0  0  3  0  0  0  0  0  0
  189.5820  177.3450  141.7090 C   0  0  0  0  0  0  0  0  0  0  0  0
  188.1670  178.1090  139.4020 C   0  0  0  0  0  0  0  0  0  0  0  0
  188.4300  178.1260  141.8210 C   0  0  0  0  0  3  0  0  0  0  0  0
  189.3350  177.3290  139.2890 C   0  0  0  0  0  0  0  0  0  0  0  0
  190.0360  176.9530  140.4480 C   0  0  0  0  0  3  0  0  0  0  0  0
  189.2360  175.6370  137.5290 N   0  0  0  0  0  0  0  0  0  0  0  0
  191.3060  176.6280  137.9480 C   0  0  0  0  0  3  0  0  0  0  0  0
  191.4580  175.3740  137.5680 C   0  0  0  0  0  0  0  0  0  0  0  0
  190.1660  174.7680  137.3140 C   0  0  0  0  0  3  0  0  0  0  0  0
  189.8320  176.9060  137.9340 C   0  0  2  0  0  3  0  0  0  0  0  0
  192.7230  174.7240  137.4540 N   0  0  0  0  0  2  0  0  0  0  0  0
  193.9270  175.4480  137.0770 C   0  0  0  0  0  2  0  0  0  0  0  0
  195.1420  174.5430  137.1960 C   0  0  0  0  0  2  0  0  0  0  0  0
  195.4210  174.1900  138.6190 C   0  0  0  0  0  0  0  0  0  0  0  0
  195.3330  172.8710  139.0480 O   0  0  0  0  0  0  0  0  0  0  0  0
  195.7090  175.0970  139.4430 O   0  0  0  0  0  1  0  0  0  0  0  0
  187.4580  178.4910  138.2090 N   0  0  0  0  0  2  0  0  0  0  0  0
  183.7060  177.1940  136.8800 N   0  0  0  0  0  0  0  0  0  0  0  0
  183.7880  177.9490  138.0080 C   0  0  0  0  0  3  0  0  0  0  0  0
  185.0350  178.3810  138.4550 C   0  0  0  0  0  3  0  0  0  0  0  0
  186.1800  178.0310  137.7410 C   0  0  0  0  0  0  0  0  0  0  0  0
  186.0360  177.2520  136.5870 C   0  0  0  0  0  3  0  0  0  0  0  0
  184.7970  176.8570  136.1910 N   0  0  0  0  0  0  0  0  0  0  0  0
  190.3390  176.9520  142.9290 C   0  0  0  0  0  2  0  0  0  0  0  0
  191.0060  178.1690  143.5420 C   0  0  0  0  0  2  0  0  0  0  0  0
  191.2450  177.9280  145.0180 C   0  0  0  0  0  2  0  0  0  0  0  0
  189.6710  177.1700  146.8480 C   0  0  0  0  0  0  0  0  0  0  0  0
  189.9880  178.0260  145.7460 N   0  0  0  0  0  2  0  0  0  0  0  0
  190.5080  176.3220  147.2590 O   0  0  0  0  0  0  0  0  0  0  0  0
  188.3270  178.2670  148.6420 C   0  0  0  0  0  1  0  0  0  0  0  0
  188.3300  177.2510  147.5090 C   0  0  1  0  0  3  0  0  0  0  0  0
  185.6000  179.3110  145.9200 C   0  0  2  0  0  3  0  0  0  0  0  0
  185.9960  178.2430  146.9570 C   0  0  0  0  0  2  0  0  0  0  0  0
  187.2310  177.5140  146.5190 C   0  0  0  0  0  0  0  0  0  0  0  0
  184.4530  178.8580  145.1390 C   0  0  0  0  0  2  0  0  0  0  0  0
  187.3270  177.1470  145.2350 C   0  0  0  0  0  3  0  0  0  0  0  0
  186.1860  177.4850  144.3250 C   0  0  0  0  0  2  0  0  0  0  0  0
  185.7780  178.8870  144.4960 N   0  0  2  0  0  0  0  0  0  0  0  0
  1  4  1  0  0  0  0
  2  4  2  0  0  0  0
  2 25  1  0  0  0  0
  3  1  2  0  0  0  0
  5  3  1  0  0  0  0
  5  6  2  0  0  0  0
  6  2  1  0  0  0  0
  7 11  1  0  0  0  0
  9  8  2  0  0  0  0
 10  7  2  0  0  0  0
 10  9  1  0  0  0  0
 11  8  1  0  0  0  0
 11  5  1  1  0  0  0
 12  9  1  0  0  0  0
 13 14  1  0  0  0  0
 13 12  1  0  0  0  0
 14 15  1  0  0  0  0
 15 16  2  0  0  0  0
 15 17  1  0  0  0  0
 18  3  1  0  0  0  0
 19 20  1  0  0  0  0
 20 21  2  0  0  0  0
 22 18  1  0  0  0  0
 22 21  1  0  0  0  0
 23 22  2  0  0  0  0
 24 23  1  0  0  0  0
 24 19  2  0  0  0  0
 25 26  1  0  0  0  0
 26 27  1  0  0  0  0
 27 29  1  0  0  0  0
 28 30  2  0  0  0  0
 28 32  1  0  0  0  0
 29 28  1  0  0  0  0
 32 31  1  1  0  0  0
 33 36  1  6  0  0  0
 33 34  1  0  0  0  0
 35 34  1  0  0  0  0
 35 32  1  0  0  0  0
 37 35  2  0  0  0  0
 38 37  1  0  0  0  0
 39 38  1  1  0  0  0
 39 36  1  0  0  0  0
 39 33  1  0  0  0  0
M  END
>  <MODEL>
5

>  <REMARK>
 VINA RESULT:      -8.1      3.446      7.661
  Name = 
  13 active torsions:
  status: ('A' for Active; 'I' for Inactive)
    1  A    between atoms: C_6  and  C_33
    2  A    between atoms: C_7  and  C_31
    3  A    between atoms: C_8  and  C_22
    4  A    between atoms: C_11  and  N_35
    5  A    between atoms: C_13  and  C_31
    6  A    between atoms: N_15  and  C_16
    7  A    between atoms: N_15  and  C_21
    8  A    between atoms: C_18  and  N_25
    9  A    between atoms: C_18  and  C_34
   10  A    between atoms: C_20  and  C_23
   11  A    between atoms: C_22  and  C_34
   12  A    between atoms: C_29  and  C_33
   13  A    between atoms: C_29  and  N_35
                            x       y       z     vdW  Elec       q    Type
                         _______ _______ _______ _____ _____    ______ ____

>  <TORSDO>
F 13

$$$$
=
 OpenBabel11042411063D

 39 43  0  0  1  0  0  0  0  0999 V2000
  188.3510  178.0490  140.8440 C   0  0  0  0  0  3  0  0  0  0  0  0
  189.8800  176.5330  141.9450 C   0  0  0  0  0  0  0  0  0  0  0  0
  189.0770  177.9450  139.6490 C   0  0  0  0  0  0  0  0  0  0  0  0
  188.7480  177.3500  141.9850 C   0  0  0  0  0  3  0  0  0  0  0  0
  190.2240  177.1280  139.6110 C   0  0  0  0  0  0  0  0  0  0  0  0
  190.6170  176.4270  140.7640 C   0  0  0  0  0  3  0  0  0  0  0  0
  190.7120  175.7720  137.6370 N   0  0  0  0  0  0  0  0  0  0  0  0
  192.4950  176.9070  138.6280 C   0  0  0  0  0  3  0  0  0  0  0  0
  192.9010  175.7660  138.1050 C   0  0  0  0  0  0  0  0  0  0  0  0
  191.7860  175.0690  137.4960 C   0  0  0  0  0  3  0  0  0  0  0  0
  191.0260  177.0110  138.3440 C   0  0  2  0  0  3  0  0  0  0  0  0
  194.2470  175.2960  138.1650 N   0  0  0  0  0  2  0  0  0  0  0  0
  194.5970  173.9250  137.8310 C   0  0  0  0  0  2  0  0  0  0  0  0
  195.7530  173.4520  138.6970 C   0  0  0  0  0  2  0  0  0  0  0  0
  196.6920  174.5700  139.0090 C   0  0  0  0  0  0  0  0  0  0  0  0
  196.6170  175.2340  140.2280 O   0  0  0  0  0  1  0  0  0  0  0  0
  197.5390  174.9320  138.1510 O   0  0  0  0  0  0  0  0  0  0  0  0
  188.6830  178.6610  138.4640 N   0  0  0  0  0  2  0  0  0  0  0  0
  186.0470  177.4440  135.4470 N   0  0  0  0  0  0  0  0  0  0  0  0
  185.5970  177.5370  136.7270 C   0  0  0  0  0  3  0  0  0  0  0  0
  186.4720  177.9390  137.7340 C   0  0  0  0  0  3  0  0  0  0  0  0
  187.7950  178.2390  137.4160 C   0  0  0  0  0  0  0  0  0  0  0  0
  188.2030  178.1260  136.0820 C   0  0  0  0  0  3  0  0  0  0  0  0
  187.3130  177.7310  135.1350 N   0  0  0  0  0  0  0  0  0  0  0  0
  190.3130  175.7960  143.1640 C   0  0  0  0  0  2  0  0  0  0  0  0
  191.6870  176.2700  143.5960 C   0  0  0  0  0  2  0  0  0  0  0  0
  191.5930  176.9250  144.9590 C   0  0  0  0  0  2  0  0  0  0  0  0
  189.4020  177.6200  146.0150 C   0  0  0  0  0  0  0  0  0  0  0  0
  190.3120  176.6080  145.5730 N   0  0  0  0  0  2  0  0  0  0  0  0
  189.6670  178.8390  145.8370 O   0  0  0  0  0  0  0  0  0  0  0  0
  188.0810  177.8320  148.1220 C   0  0  0  0  0  1  0  0  0  0  0  0
  188.1360  177.2450  146.7200 C   0  0  1  0  0  3  0  0  0  0  0  0
  185.1650  179.3800  145.8090 C   0  0  2  0  0  3  0  0  0  0  0  0
  185.7180  178.1830  146.6030 C   0  0  0  0  0  2  0  0  0  0  0  0
  186.9180  177.6030  145.9160 C   0  0  0  0  0  0  0  0  0  0  0  0
  183.9500  178.9970  145.0960 C   0  0  0  0  0  2  0  0  0  0  0  0
  186.8750  177.4530  144.5860 C   0  0  0  0  0  3  0  0  0  0  0  0
  185.6220  177.8700  143.8770 C   0  0  0  0  0  2  0  0  0  0  0  0
  185.1870  179.2020  144.3230 N   0  0  2  0  0  0  0  0  0  0  0  0
  1  4  1  0  0  0  0
  2  4  2  0  0  0  0
  2 25  1  0  0  0  0
  3  1  2  0  0  0  0
  5  3  1  0  0  0  0
  5  6  2  0  0  0  0
  6  2  1  0  0  0  0
  7 11  1  0  0  0  0
  9 12  1  0  0  0  0
  9  8  2  0  0  0  0
 10  7  2  0  0  0  0
 10  9  1  0  0  0  0
 11  8  1  0  0  0  0
 11  5  1  1  0  0  0
 13 12  1  0  0  0  0
 13 14  1  0  0  0  0
 14 15  1  0  0  0  0
 15 16  1  0  0  0  0
 17 15  2  0  0  0  0
 18  3  1  0  0  0  0
 19 20  1  0  0  0  0
 20 21  2  0  0  0  0
 22 21  1  0  0  0  0
 22 18  1  0  0  0  0
 23 22  2  0  0  0  0
 24 19  2  0  0  0  0
 24 23  1  0  0  0  0
 25 26  1  0  0  0  0
 26 27  1  0  0  0  0
 27 29  1  0  0  0  0
 28 32  1  0  0  0  0
 29 28  1  0  0  0  0
 30 28  2  0  0  0  0
 32 31  1  1  0  0  0
 33 36  1  1  0  0  0
 33 34  1  0  0  0  0
 35 34  1  0  0  0  0
 35 32  1  0  0  0  0
 37 35  2  0  0  0  0
 38 37  1  0  0  0  0
 39 38  1  1  0  0  0
 39 36  1  0  0  0  0
 39 33  1  0  0  0  0
M  END
>  <MODEL>
6

>  <REMARK>
 VINA RESULT:      -8.0      3.855      8.192
  Name = 
  13 active torsions:
  status: ('A' for Active; 'I' for Inactive)
    1  A    between atoms: C_6  and  C_33
    2  A    between atoms: C_7  and  C_31
    3  A    between atoms: C_8  and  C_22
    4  A    between atoms: C_11  and  N_35
    5  A    between atoms: C_13  and  C_31
    6  A    between atoms: N_15  and  C_16
    7  A    between atoms: N_15  and  C_21
    8  A    between atoms: C_18  and  N_25
    9  A    between atoms: C_18  and  C_34
   10  A    between atoms: C_20  and  C_23
   11  A    between atoms: C_22  and  C_34
   12  A    between atoms: C_29  and  C_33
   13  A    between atoms: C_29  and  N_35
                            x       y       z     vdW  Elec       q    Type
                         _______ _______ _______ _____ _____    ______ ____

>  <TORSDO>
F 13

$$$$
=
 OpenBabel11042411063D

 39 43  0  0  1  0  0  0  0  0999 V2000
  181.4760  178.9100  143.3640 C   0  0  0  0  0  3  0  0  0  0  0  0
  183.8830  178.6810  143.4200 C   0  0  0  0  0  0  0  0  0  0  0  0
  181.4810  178.8300  141.9640 C   0  0  0  0  0  0  0  0  0  0  0  0
  182.6670  178.8380  144.0890 C   0  0  0  0  0  3  0  0  0  0  0  0
  182.7090  178.6820  141.2890 C   0  0  0  0  0  0  0  0  0  0  0  0
  183.9040  178.6100  142.0260 C   0  0  0  0  0  3  0  0  0  0  0  0
  182.8180  177.2220  139.3330 N   0  0  0  0  0  0  0  0  0  0  0  0
  183.9780  179.2450  139.2280 C   0  0  0  0  0  3  0  0  0  0  0  0
  184.6070  178.3110  138.5410 C   0  0  0  0  0  0  0  0  0  0  0  0
  183.8800  177.0590  138.6160 C   0  0  0  0  0  3  0  0  0  0  0  0
  182.7410  178.6080  139.7870 C   0  0  2  0  0  3  0  0  0  0  0  0
  185.8380  178.5220  137.8520 N   0  0  0  0  0  2  0  0  0  0  0  0
  186.6010  177.4190  137.2890 C   0  0  0  0  0  2  0  0  0  0  0  0
  187.9020  177.2360  138.0540 C   0  0  0  0  0  2  0  0  0  0  0  0
  188.7080  178.4910  138.0640 C   0  0  0  0  0  0  0  0  0  0  0  0
  189.1040  179.0840  136.8710 O   0  0  0  0  0  0  0  0  0  0  0  0
  189.0560  179.0020  139.1610 O   0  0  0  0  0  1  0  0  0  0  0  0
  180.2630  178.9060  141.2010 N   0  0  0  0  0  2  0  0  0  0  0  0
  179.3000  181.4150  137.9910 N   0  0  0  0  0  0  0  0  0  0  0  0
  179.2230  180.0670  137.8290 C   0  0  0  0  0  3  0  0  0  0  0  0
  179.5440  179.2290  138.8940 C   0  0  0  0  0  3  0  0  0  0  0  0
  179.9430  179.7840  140.1090 C   0  0  0  0  0  0  0  0  0  0  0  0
  180.0050  181.1770  140.2190 C   0  0  0  0  0  3  0  0  0  0  0  0
  179.6800  181.9530  139.1520 N   0  0  0  0  0  0  0  0  0  0  0  0
  185.1550  178.6170  144.1900 C   0  0  0  0  0  2  0  0  0  0  0  0
  184.9110  179.0130  145.6330 C   0  0  0  0  0  2  0  0  0  0  0  0
  185.8050  178.1960  146.5420 C   0  0  0  0  0  2  0  0  0  0  0  0
  188.2380  177.5190  146.6900 C   0  0  0  0  0  0  0  0  0  0  0  0
  187.1790  178.2510  146.0660 N   0  0  0  0  0  2  0  0  0  0  0  0
  187.9970  176.7510  147.6600 O   0  0  0  0  0  0  0  0  0  0  0  0
  190.5970  176.7550  146.9720 C   0  0  0  0  0  1  0  0  0  0  0  0
  189.6500  177.6760  146.2180 C   0  0  1  0  0  3  0  0  0  0  0  0
  191.5250  177.1660  142.9870 C   0  0  2  0  0  3  0  0  0  0  0  0
  190.9010  178.1500  143.9940 C   0  0  0  0  0  2  0  0  0  0  0  0
  189.7660  177.5020  144.7300 C   0  0  0  0  0  0  0  0  0  0  0  0
  191.1090  177.4990  141.6280 C   0  0  0  0  0  2  0  0  0  0  0  0
  188.9040  176.7530  144.0320 C   0  0  0  0  0  3  0  0  0  0  0  0
  189.1290  176.6210  142.5560 C   0  0  0  0  0  2  0  0  0  0  0  0
  190.5350  176.3030  142.2680 N   0  0  2  0  0  0  0  0  0  0  0  0
  1  4  1  0  0  0  0
  2  4  2  0  0  0  0
  2 25  1  0  0  0  0
  3  1  2  0  0  0  0
  5  3  1  0  0  0  0
  5  6  2  0  0  0  0
  6  2  1  0  0  0  0
  7 11  1  0  0  0  0
  8 11  1  0  0  0  0
  9 10  1  0  0  0  0
  9  8  2  0  0  0  0
 10  7  2  0  0  0  0
 11  5  1  1  0  0  0
 12  9  1  0  0  0  0
 13 12  1  0  0  0  0
 13 14  1  0  0  0  0
 14 15  1  0  0  0  0
 15 17  1  0  0  0  0
 16 15  2  0  0  0  0
 18  3  1  0  0  0  0
 19 24  1  0  0  0  0
 20 19  2  0  0  0  0
 20 21  1  0  0  0  0
 21 22  2  0  0  0  0
 22 23  1  0  0  0  0
 22 18  1  0  0  0  0
 24 23  2  0  0  0  0
 25 26  1  0  0  0  0
 26 27  1  0  0  0  0
 28 30  2  0  0  0  0
 29 27  1  0  0  0  0
 29 28  1  0  0  0  0
 32 28  1  0  0  0  0
 32 31  1  1  0  0  0
 33 36  1  6  0  0  0
 33 34  1  0  0  0  0
 34 35  1  0  0  0  0
 35 32  1  0  0  0  0
 37 35  2  0  0  0  0
 38 37  1  0  0  0  0
 39 36  1  6  0  0  0
 39 38  1  0  0  0  0
 39 33  1  0  0  0  0
M  END
>  <MODEL>
7

>  <REMARK>
 VINA RESULT:      -7.8      2.844      5.933
  Name = 
  13 active torsions:
  status: ('A' for Active; 'I' for Inactive)
    1  A    between atoms: C_6  and  C_33
    2  A    between atoms: C_7  and  C_31
    3  A    between atoms: C_8  and  C_22
    4  A    between atoms: C_11  and  N_35
    5  A    between atoms: C_13  and  C_31
    6  A    between atoms: N_15  and  C_16
    7  A    between atoms: N_15  and  C_21
    8  A    between atoms: C_18  and  N_25
    9  A    between atoms: C_18  and  C_34
   10  A    between atoms: C_20  and  C_23
   11  A    between atoms: C_22  and  C_34
   12  A    between atoms: C_29  and  C_33
   13  A    between atoms: C_29  and  N_35
                            x       y       z     vdW  Elec       q    Type
                         _______ _______ _______ _____ _____    ______ ____

>  <TORSDO>
F 13

$$$$
=
 OpenBabel11042411063D

 39 43  0  0  1  0  0  0  0  0999 V2000
  185.8430  179.0000  141.4340 C   0  0  0  0  0  3  0  0  0  0  0  0
  184.2050  178.7320  143.1920 C   0  0  0  0  0  0  0  0  0  0  0  0
  184.8410  178.9030  140.4580 C   0  0  0  0  0  0  0  0  0  0  0  0
  185.5300  178.9150  142.7910 C   0  0  0  0  0  3  0  0  0  0  0  0
  183.5050  178.7090  140.8630 C   0  0  0  0  0  0  0  0  0  0  0  0
  183.1980  178.6240  142.2320 C   0  0  0  0  0  3  0  0  0  0  0  0
  181.2980  179.4740  140.1470 N   0  0  0  0  0  0  0  0  0  0  0  0
  181.8040  177.2180  139.8350 C   0  0  0  0  0  3  0  0  0  0  0  0
  180.5190  177.3770  140.0880 C   0  0  0  0  0  0  0  0  0  0  0  0
  180.2170  178.7810  140.2830 C   0  0  0  0  0  3  0  0  0  0  0  0
  182.4150  178.5870  139.8340 C   0  0  2  0  0  3  0  0  0  0  0  0
  179.5850  176.3020  140.1760 N   0  0  0  0  0  2  0  0  0  0  0  0
  180.0130  174.9120  140.1840 C   0  0  0  0  0  2  0  0  0  0  0  0
  179.1390  174.0870  139.2540 C   0  0  0  0  0  2  0  0  0  0  0  0
  179.9180  173.5710  138.0910 C   0  0  0  0  0  0  0  0  0  0  0  0
  180.7390  174.4220  137.3590 O   0  0  0  0  0  0  0  0  0  0  0  0
  179.8100  172.3630  137.7530 O   0  0  0  0  0  1  0  0  0  0  0  0
  185.1460  178.9860  139.0540 N   0  0  0  0  0  2  0  0  0  0  0  0
  187.0630  176.1850  136.6040 N   0  0  0  0  0  0  0  0  0  0  0  0
  185.7090  176.2880  136.5630 C   0  0  0  0  0  3  0  0  0  0  0  0
  185.0660  177.2180  137.3780 C   0  0  0  0  0  3  0  0  0  0  0  0
  185.8220  178.0270  138.2260 C   0  0  0  0  0  0  0  0  0  0  0  0
  187.2130  177.8770  138.2260 C   0  0  0  0  0  3  0  0  0  0  0  0
  187.7930  176.9570  137.4120 N   0  0  0  0  0  0  0  0  0  0  0  0
  183.8710  178.6270  144.6390 C   0  0  0  0  0  2  0  0  0  0  0  0
  184.8960  179.3790  145.4660 C   0  0  0  0  0  2  0  0  0  0  0  0
  185.5900  178.4180  146.4090 C   0  0  0  0  0  2  0  0  0  0  0  0
  188.0070  177.8800  146.9280 C   0  0  0  0  0  0  0  0  0  0  0  0
  186.9760  178.2390  146.0030 N   0  0  0  0  0  2  0  0  0  0  0  0
  187.7300  177.6570  148.1370 O   0  0  0  0  0  0  0  0  0  0  0  0
  190.2060  176.7530  147.2750 C   0  0  0  0  0  1  0  0  0  0  0  0
  189.4320  177.7920  146.4780 C   0  0  1  0  0  3  0  0  0  0  0  0
  191.2920  177.2030  143.2520 C   0  0  2  0  0  3  0  0  0  0  0  0
  190.6460  178.2090  144.2220 C   0  0  0  0  0  2  0  0  0  0  0  0
  189.5400  177.5580  144.9980 C   0  0  0  0  0  0  0  0  0  0  0  0
  190.8530  177.4640  141.8850 C   0  0  0  0  0  2  0  0  0  0  0  0
  188.6960  176.7530  144.3420 C   0  0  0  0  0  3  0  0  0  0  0  0
  188.9110  176.5640  142.8710 C   0  0  0  0  0  2  0  0  0  0  0  0
  190.3240  176.2790  142.5820 N   0  0  2  0  0  0  0  0  0  0  0  0
  1  4  1  0  0  0  0
  2 25  1  0  0  0  0
  3  5  1  0  0  0  0
  3  1  2  0  0  0  0
  4  2  2  0  0  0  0
  5  6  2  0  0  0  0
  6  2  1  0  0  0  0
  7 10  2  0  0  0  0
  8  9  2  0  0  0  0
  9 12  1  0  0  0  0
  9 10  1  0  0  0  0
 11  8  1  0  0  0  0
 11  7  1  0  0  0  0
 11  5  1  1  0  0  0
 12 13  1  0  0  0  0
 14 13  1  0  0  0  0
 15 14  1  0  0  0  0
 16 15  2  0  0  0  0
 17 15  1  0  0  0  0
 18  3  1  0  0  0  0
 19 24  1  0  0  0  0
 20 19  2  0  0  0  0
 20 21  1  0  0  0  0
 21 22  2  0  0  0  0
 22 23  1  0  0  0  0
 22 18  1  0  0  0  0
 24 23  2  0  0  0  0
 25 26  1  0  0  0  0
 26 27  1  0  0  0  0
 28 30  2  0  0  0  0
 29 27  1  0  0  0  0
 29 28  1  0  0  0  0
 32 28  1  0  0  0  0
 32 31  1  1  0  0  0
 33 36  1  6  0  0  0
 33 34  1  0  0  0  0
 34 35  1  0  0  0  0
 35 32  1  0  0  0  0
 37 35  2  0  0  0  0
 38 37  1  0  0  0  0
 39 36  1  6  0  0  0
 39 38  1  0  0  0  0
 39 33  1  0  0  0  0
M  END
>  <MODEL>
8

>  <REMARK>
 VINA RESULT:      -7.7      2.300      3.086
  Name = 
  13 active torsions:
  status: ('A' for Active; 'I' for Inactive)
    1  A    between atoms: C_6  and  C_33
    2  A    between atoms: C_7  and  C_31
    3  A    between atoms: C_8  and  C_22
    4  A    between atoms: C_11  and  N_35
    5  A    between atoms: C_13  and  C_31
    6  A    between atoms: N_15  and  C_16
    7  A    between atoms: N_15  and  C_21
    8  A    between atoms: C_18  and  N_25
    9  A    between atoms: C_18  and  C_34
   10  A    between atoms: C_20  and  C_23
   11  A    between atoms: C_22  and  C_34
   12  A    between atoms: C_29  and  C_33
   13  A    between atoms: C_29  and  N_35
                            x       y       z     vdW  Elec       q    Type
                         _______ _______ _______ _____ _____    ______ ____

>  <TORSDO>
F 13

$$$$
=
 OpenBabel11042411063D

 39 43  0  0  1  0  0  0  0  0999 V2000
  185.2450  178.9130  141.1490 C   0  0  0  0  0  3  0  0  0  0  0  0
  187.6220  178.4700  141.1100 C   0  0  0  0  0  0  0  0  0  0  0  0
  185.1600  178.6900  139.7670 C   0  0  0  0  0  0  0  0  0  0  0  0
  186.4660  178.8060  141.8170 C   0  0  0  0  0  3  0  0  0  0  0  0
  186.3290  178.3600  139.0520 C   0  0  0  0  0  0  0  0  0  0  0  0
  187.5540  178.2540  139.7320 C   0  0  0  0  0  3  0  0  0  0  0  0
  186.1050  176.7100  137.2640 N   0  0  0  0  0  0  0  0  0  0  0  0
  187.5520  178.5030  136.8940 C   0  0  0  0  0  3  0  0  0  0  0  0
  187.9920  177.4170  136.2890 C   0  0  0  0  0  0  0  0  0  0  0  0
  187.0880  176.3090  136.5280 C   0  0  0  0  0  3  0  0  0  0  0  0
  186.2650  178.1300  137.5670 C   0  0  2  0  0  3  0  0  0  0  0  0
  189.2010  177.3600  135.5330 N   0  0  0  0  0  2  0  0  0  0  0  0
  190.2390  176.3820  135.8180 C   0  0  0  0  0  2  0  0  0  0  0  0
  190.9370  176.7220  137.1250 C   0  0  0  0  0  2  0  0  0  0  0  0
  191.5860  175.5190  137.7240 C   0  0  0  0  0  0  0  0  0  0  0  0
  192.9500  175.5150  137.9930 O   0  0  0  0  0  1  0  0  0  0  0  0
  190.8990  174.4920  137.9610 O   0  0  0  0  0  0  0  0  0  0  0  0
  183.9110  178.7990  139.0620 N   0  0  0  0  0  2  0  0  0  0  0  0
  180.4140  176.5780  139.6680 N   0  0  0  0  0  0  0  0  0  0  0  0
  181.5900  175.9260  139.4650 C   0  0  0  0  0  3  0  0  0  0  0  0
  182.7560  176.6620  139.2610 C   0  0  0  0  0  3  0  0  0  0  0  0
  182.6990  178.0540  139.2650 C   0  0  0  0  0  0  0  0  0  0  0  0
  181.4620  178.6720  139.4780 C   0  0  0  0  0  3  0  0  0  0  0  0
  180.3530  177.9110  139.6740 N   0  0  0  0  0  0  0  0  0  0  0  0
  188.9270  178.3680  141.8180 C   0  0  0  0  0  2  0  0  0  0  0  0
  189.8380  177.3960  141.0930 C   0  0  0  0  0  2  0  0  0  0  0  0
  191.0060  177.0310  141.9860 C   0  0  0  0  0  2  0  0  0  0  0  0
  190.9040  177.2410  144.5050 C   0  0  0  0  0  0  0  0  0  0  0  0
  190.5190  176.5970  143.2870 N   0  0  0  0  0  2  0  0  0  0  0  0
  191.6530  178.2550  144.4810 O   0  0  0  0  0  0  0  0  0  0  0  0
  191.5590  176.7390  146.8600 C   0  0  0  0  0  1  0  0  0  0  0  0
  190.4450  176.7040  145.8240 C   0  0  1  0  0  3  0  0  0  0  0  0
  186.7620  177.5150  145.7960 C   0  0  2  0  0  3  0  0  0  0  0  0
  188.1830  177.8750  145.3230 C   0  0  0  0  0  2  0  0  0  0  0  0
  189.2050  177.3980  146.3120 C   0  0  0  0  0  0  0  0  0  0  0  0
  186.0850  178.6990  146.3140 C   0  0  0  0  0  2  0  0  0  0  0  0
  188.9570  177.5800  147.6150 C   0  0  0  0  0  3  0  0  0  0  0  0
  187.6760  178.2570  147.9950 C   0  0  0  0  0  2  0  0  0  0  0  0
  186.5400  177.6720  147.2670 N   0  0  2  0  0  0  0  0  0  0  0  0
  1  4  1  0  0  0  0
  2  4  2  0  0  0  0
  2 25  1  0  0  0  0
  3  1  2  0  0  0  0
  5  6  2  0  0  0  0
  5  3  1  0  0  0  0
  6  2  1  0  0  0  0
  7 11  1  0  0  0  0
  8 11  1  0  0  0  0
  9 10  1  0  0  0  0
  9  8  2  0  0  0  0
 10  7  2  0  0  0  0
 11  5  1  1  0  0  0
 12 13  1  0  0  0  0
 12  9  1  0  0  0  0
 13 14  1  0  0  0  0
 14 15  1  0  0  0  0
 15 17  2  0  0  0  0
 15 16  1  0  0  0  0
 18 22  1  0  0  0  0
 18  3  1  0  0  0  0
 19 24  1  0  0  0  0
 20 19  2  0  0  0  0
 21 22  2  0  0  0  0
 21 20  1  0  0  0  0
 22 23  1  0  0  0  0
 23 24  2  0  0  0  0
 26 25  1  0  0  0  0
 26 27  1  0  0  0  0
 27 29  1  0  0  0  0
 28 32  1  0  0  0  0
 29 28  1  0  0  0  0
 30 28  2  0  0  0  0
 32 35  1  0  0  0  0
 32 31  1  1  0  0  0
 33 34  1  1  0  0  0
 33 36  1  0  0  0  0
 33 39  1  0  0  0  0
 34 35  1  0  0  0  0
 35 37  2  0  0  0  0
 37 38  1  0  0  0  0
 39 36  1  6  0  0  0
 39 38  1  0  0  0  0
M  END
>  <MODEL>
9

>  <REMARK>
 VINA RESULT:      -7.7      3.328      6.639
  Name = 
  13 active torsions:
  status: ('A' for Active; 'I' for Inactive)
    1  A    between atoms: C_6  and  C_33
    2  A    between atoms: C_7  and  C_31
    3  A    between atoms: C_8  and  C_22
    4  A    between atoms: C_11  and  N_35
    5  A    between atoms: C_13  and  C_31
    6  A    between atoms: N_15  and  C_16
    7  A    between atoms: N_15  and  C_21
    8  A    between atoms: C_18  and  N_25
    9  A    between atoms: C_18  and  C_34
   10  A    between atoms: C_20  and  C_23
   11  A    between atoms: C_22  and  C_34
   12  A    between atoms: C_29  and  C_33
   13  A    between atoms: C_29  and  N_35
                            x       y       z     vdW  Elec       q    Type
                         _______ _______ _______ _____ _____    ______ ____

>  <TORSDO>
F 13

$$$$
