=
 OpenBabel11032419173D

 30 32  0  0  1  0  0  0  0  0999 V2000
  188.4830  177.5060  141.8080 C   0  0  0  0  0  3  0  0  0  0  0  0
  189.7600  177.1380  141.6680 C   0  0  0  0  0  0  0  0  0  0  0  0
  190.4020  176.3940  142.7180 N   0  0  0  0  0  0  0  0  0  0  0  0
  190.1000  175.0850  142.9030 O   0  0  0  0  0  1  0  0  0  0  0  0
  190.9830  176.7620  146.7390 C   0  0  0  0  0  2  0  0  0  0  0  0
  191.8230  176.0910  144.7220 C   0  0  0  0  0  2  0  0  0  0  0  0
  189.6430  177.0910  146.0520 C   0  0  0  0  0  2  0  0  0  0  0  0
  192.1120  176.8150  145.8910 O   0  0  0  0  0  0  0  0  0  0  0  0
  189.6720  178.3330  145.1550 C   0  0  0  0  0  2  0  0  0  0  0  0
  190.8220  178.3950  144.1350 C   0  0  0  0  0  2  0  0  0  0  0  0
  191.3540  177.0460  143.6150 C   0  0  2  0  0  3  0  0  0  0  0  0
  190.5080  177.4590  140.4080 C   0  0  0  0  0  2  0  0  0  0  0  0
  190.6780  176.2520  139.6180 N   0  0  0  0  0  2  0  0  0  0  0  0
  190.4820  176.6310  138.2310 C   0  0  0  0  0  2  0  0  0  0  0  0
  189.1280  177.1250  138.0440 N   0  0  0  0  0  0  0  0  0  0  0  0
  186.9660  176.4820  137.0060 C   0  0  0  0  0  2  0  0  0  0  0  0
  186.7420  177.8920  137.3200 N   0  0  0  0  0  2  0  0  0  0  0  0
  187.7860  178.6970  136.6830 C   0  0  0  0  0  2  0  0  0  0  0  0
  188.3460  176.0140  137.4980 C   0  0  0  0  0  2  0  0  0  0  0  0
  189.1930  178.1920  137.0440 C   0  0  0  0  0  2  0  0  0  0  0  0
  187.7270  178.2640  140.7640 C   0  0  0  0  0  2  0  0  0  0  0  0
  186.6270  179.0870  141.4070 C   0  0  0  0  0  2  0  0  0  0  0  0
  185.6580  178.2110  142.0490 N   0  0  0  0  0  2  0  0  0  0  0  0
  184.8320  178.3520  146.1980 C   0  0  0  0  0  0  0  0  0  0  0  0
  184.1800  178.8500  143.9200 C   0  0  0  0  0  3  0  0  0  0  0  0
  183.9150  178.8920  145.2920 C   0  0  0  0  0  3  0  0  0  0  0  0
  184.5770  178.3930  147.5270 F   0  0  0  0  0  0  0  0  0  0  0  0
  186.0150  177.7700  145.7310 C   0  0  0  0  0  3  0  0  0  0  0  0
  186.2800  177.7280  144.3590 C   0  0  0  0  0  3  0  0  0  0  0  0
  185.3660  178.2670  143.4480 C   0  0  0  0  0  0  0  0  0  0  0  0
  2  1  2  0  0  0  0
  2  3  1  0  0  0  0
  3  4  1  0  0  0  0
  6  8  1  0  0  0  0
  7  5  1  0  0  0  0
  8  5  1  0  0  0  0
  9  7  1  0  0  0  0
 10  9  1  0  0  0  0
 11  3  1  1  0  0  0
 11 10  1  0  0  0  0
 11  6  1  0  0  0  0
 12  2  1  0  0  0  0
 13 12  1  0  0  0  0
 14 13  1  0  0  0  0
 15 14  1  0  0  0  0
 16 17  1  0  0  0  0
 16 19  1  0  0  0  0
 18 20  1  0  0  0  0
 18 17  1  0  0  0  0
 19 15  1  0  0  0  0
 20 15  1  0  0  0  0
 21 22  1  0  0  0  0
 21  1  1  0  0  0  0
 22 23  1  0  0  0  0
 23 30  1  0  0  0  0
 24 27  1  0  0  0  0
 25 26  1  0  0  0  0
 26 24  2  0  0  0  0
 28 24  1  0  0  0  0
 29 28  2  0  0  0  0
 30 25  2  0  0  0  0
 30 29  1  0  0  0  0
M  END
>  <MODEL>
1

>  <REMARK>
 VINA RESULT:      -8.0      0.000      0.000
  Name = 
  10 active torsions:
  status: ('A' for Active; 'I' for Inactive)
    1  A    between atoms: N_1  and  C_17
    2  A    between atoms: C_2  and  C_19
    3  A    between atoms: C_2  and  N_30
    4  A    between atoms: N_9  and  C_19
    5  A    between atoms: N_9  and  C_27
    6  A    between atoms: N_12  and  C_18
    7  A    between atoms: N_12  and  C_25
    8  A    between atoms: C_14  and  C_16
    9  A    between atoms: C_14  and  C_18
   10  A    between atoms: C_17  and  N_30
                            x       y       z     vdW  Elec       q    Type
                         _______ _______ _______ _____ _____    ______ ____

>  <TORSDO>
F 10

$$$$
=
 OpenBabel11032419173D

 30 32  0  0  1  0  0  0  0  0999 V2000
  188.6090  177.2980  141.8340 C   0  0  0  0  0  3  0  0  0  0  0  0
  189.9070  176.9920  141.7400 C   0  0  0  0  0  0  0  0  0  0  0  0
  190.5380  176.2500  142.7960 N   0  0  0  0  0  0  0  0  0  0  0  0
  190.2560  174.9340  142.9630 O   0  0  0  0  0  1  0  0  0  0  0  0
  190.8910  176.7840  146.8260 C   0  0  0  0  0  2  0  0  0  0  0  0
  191.8240  175.9930  144.8950 C   0  0  0  0  0  2  0  0  0  0  0  0
  189.6060  177.1260  146.0430 C   0  0  0  0  0  2  0  0  0  0  0  0
  192.0700  176.7600  146.0470 O   0  0  0  0  0  0  0  0  0  0  0  0
  189.7350  178.3230  145.0960 C   0  0  0  0  0  2  0  0  0  0  0  0
  190.9460  178.2990  144.1470 C   0  0  0  0  0  2  0  0  0  0  0  0
  191.4580  176.9110  143.7210 C   0  0  2  0  0  3  0  0  0  0  0  0
  190.6900  177.3810  140.5210 C   0  0  0  0  0  2  0  0  0  0  0  0
  190.6820  176.2900  139.5640 N   0  0  0  0  0  2  0  0  0  0  0  0
  190.6300  176.8920  138.2440 C   0  0  0  0  0  2  0  0  0  0  0  0
  191.5090  176.1700  137.3400 N   0  0  0  0  0  0  0  0  0  0  0  0
  192.2850  173.8660  136.8350 C   0  0  0  0  0  2  0  0  0  0  0  0
  193.2170  174.6760  136.0510 N   0  0  0  0  0  2  0  0  0  0  0  0
  193.8900  175.6270  136.9390 C   0  0  0  0  0  2  0  0  0  0  0  0
  191.2360  174.7450  137.5360 C   0  0  0  0  0  2  0  0  0  0  0  0
  192.8840  176.4490  137.7600 C   0  0  0  0  0  2  0  0  0  0  0  0
  187.8620  178.0480  140.7780 C   0  0  0  0  0  2  0  0  0  0  0  0
  186.8810  179.0130  141.4150 C   0  0  0  0  0  2  0  0  0  0  0  0
  185.7650  178.2810  141.9940 N   0  0  0  0  0  2  0  0  0  0  0  0
  184.8380  178.3550  146.1230 C   0  0  0  0  0  0  0  0  0  0  0  0
  186.3430  177.7340  144.3310 C   0  0  0  0  0  3  0  0  0  0  0  0
  186.0290  177.7630  145.6930 C   0  0  0  0  0  3  0  0  0  0  0  0
  184.5330  178.3830  147.4420 F   0  0  0  0  0  0  0  0  0  0  0  0
  183.9610  178.9180  145.1910 C   0  0  0  0  0  3  0  0  0  0  0  0
  184.2750  178.8880  143.8290 C   0  0  0  0  0  3  0  0  0  0  0  0
  185.4650  178.2970  143.3920 C   0  0  0  0  0  0  0  0  0  0  0  0
  2  1  2  0  0  0  0
  2  3  1  0  0  0  0
  3  4  1  0  0  0  0
  6  8  1  0  0  0  0
  7  5  1  0  0  0  0
  8  5  1  0  0  0  0
  9  7  1  0  0  0  0
 10  9  1  0  0  0  0
 11  3  1  1  0  0  0
 11 10  1  0  0  0  0
 11  6  1  0  0  0  0
 12  2  1  0  0  0  0
 13 12  1  0  0  0  0
 14 13  1  0  0  0  0
 15 19  1  0  0  0  0
 15 20  1  0  0  0  0
 15 14  1  0  0  0  0
 16 19  1  0  0  0  0
 17 16  1  0  0  0  0
 17 18  1  0  0  0  0
 18 20  1  0  0  0  0
 21 22  1  0  0  0  0
 21  1  1  0  0  0  0
 22 23  1  0  0  0  0
 23 30  1  0  0  0  0
 24 27  1  0  0  0  0
 25 26  2  0  0  0  0
 26 24  1  0  0  0  0
 28 24  2  0  0  0  0
 29 28  1  0  0  0  0
 30 29  2  0  0  0  0
 30 25  1  0  0  0  0
M  END
>  <MODEL>
2

>  <REMARK>
 VINA RESULT:      -7.8      1.525      2.544
  Name = 
  10 active torsions:
  status: ('A' for Active; 'I' for Inactive)
    1  A    between atoms: N_1  and  C_17
    2  A    between atoms: C_2  and  C_19
    3  A    between atoms: C_2  and  N_30
    4  A    between atoms: N_9  and  C_19
    5  A    between atoms: N_9  and  C_27
    6  A    between atoms: N_12  and  C_18
    7  A    between atoms: N_12  and  C_25
    8  A    between atoms: C_14  and  C_16
    9  A    between atoms: C_14  and  C_18
   10  A    between atoms: C_17  and  N_30
                            x       y       z     vdW  Elec       q    Type
                         _______ _______ _______ _____ _____    ______ ____

>  <TORSDO>
F 10

$$$$
=
 OpenBabel11032419173D

 30 32  0  0  1  0  0  0  0  0999 V2000
  188.8240  177.6190  141.7230 C   0  0  0  0  0  3  0  0  0  0  0  0
  190.0690  177.1360  141.6820 C   0  0  0  0  0  0  0  0  0  0  0  0
  190.5890  176.4180  142.8130 N   0  0  0  0  0  0  0  0  0  0  0  0
  190.2850  175.1070  142.9810 O   0  0  0  0  0  1  0  0  0  0  0  0
  190.7340  176.7610  146.8760 C   0  0  0  0  0  2  0  0  0  0  0  0
  191.8050  176.1490  144.9520 C   0  0  0  0  0  2  0  0  0  0  0  0
  189.4590  177.0430  146.0550 C   0  0  0  0  0  2  0  0  0  0  0  0
  191.9420  176.8710  146.1500 O   0  0  0  0  0  0  0  0  0  0  0  0
  189.5300  178.2960  145.1760 C   0  0  0  0  0  2  0  0  0  0  0  0
  190.7760  178.4170  144.2810 C   0  0  0  0  0  2  0  0  0  0  0  0
  191.4140  177.0970  143.8100 C   0  0  2  0  0  3  0  0  0  0  0  0
  190.9060  177.3030  140.4480 C   0  0  0  0  0  2  0  0  0  0  0  0
  190.5750  176.2660  139.4870 N   0  0  0  0  0  2  0  0  0  0  0  0
  191.0250  176.7380  138.1900 C   0  0  0  0  0  2  0  0  0  0  0  0
  189.9140  176.7340  137.2540 N   0  0  0  0  0  0  0  0  0  0  0  0
  188.1020  178.2050  136.4040 C   0  0  0  0  0  2  0  0  0  0  0  0
  187.7040  176.9000  135.8750 N   0  0  0  0  0  2  0  0  0  0  0  0
  187.5820  175.9500  136.9830 C   0  0  0  0  0  2  0  0  0  0  0  0
  189.4410  178.1160  137.1560 C   0  0  0  0  0  2  0  0  0  0  0  0
  188.8540  175.9140  137.8450 C   0  0  0  0  0  2  0  0  0  0  0  0
  188.1920  178.3620  140.5890 C   0  0  0  0  0  2  0  0  0  0  0  0
  186.7590  178.7210  140.9330 C   0  0  0  0  0  2  0  0  0  0  0  0
  186.4610  178.3290  142.3030 N   0  0  0  0  0  2  0  0  0  0  0  0
  182.6170  178.8080  144.0090 C   0  0  0  0  0  0  0  0  0  0  0  0
  185.0170  178.6350  144.2820 C   0  0  0  0  0  3  0  0  0  0  0  0
  183.7440  178.7930  144.8370 C   0  0  0  0  0  3  0  0  0  0  0  0
  181.3840  178.9600  144.5470 F   0  0  0  0  0  0  0  0  0  0  0  0
  182.7650  178.6650  142.6260 C   0  0  0  0  0  3  0  0  0  0  0  0
  184.0380  178.5060  142.0710 C   0  0  0  0  0  3  0  0  0  0  0  0
  185.1690  178.4910  142.8940 C   0  0  0  0  0  0  0  0  0  0  0  0
  2  1  2  0  0  0  0
  2  3  1  0  0  0  0
  3  4  1  0  0  0  0
  6  8  1  0  0  0  0
  7  5  1  0  0  0  0
  8  5  1  0  0  0  0
  9  7  1  0  0  0  0
 10  9  1  0  0  0  0
 11  3  1  6  0  0  0
 11 10  1  0  0  0  0
 11  6  1  0  0  0  0
 12  2  1  0  0  0  0
 13 12  1  0  0  0  0
 14 13  1  0  0  0  0
 15 20  1  0  0  0  0
 15 14  1  0  0  0  0
 16 19  1  0  0  0  0
 17 16  1  0  0  0  0
 17 18  1  0  0  0  0
 18 20  1  0  0  0  0
 19 15  1  0  0  0  0
 21 22  1  0  0  0  0
 21  1  1  0  0  0  0
 22 23  1  0  0  0  0
 23 30  1  0  0  0  0
 24 27  1  0  0  0  0
 24 26  1  0  0  0  0
 25 26  2  0  0  0  0
 28 24  2  0  0  0  0
 29 28  1  0  0  0  0
 29 30  2  0  0  0  0
 30 25  1  0  0  0  0
M  END
>  <MODEL>
3

>  <REMARK>
 VINA RESULT:      -7.6      1.157      1.776
  Name = 
  10 active torsions:
  status: ('A' for Active; 'I' for Inactive)
    1  A    between atoms: N_1  and  C_17
    2  A    between atoms: C_2  and  C_19
    3  A    between atoms: C_2  and  N_30
    4  A    between atoms: N_9  and  C_19
    5  A    between atoms: N_9  and  C_27
    6  A    between atoms: N_12  and  C_18
    7  A    between atoms: N_12  and  C_25
    8  A    between atoms: C_14  and  C_16
    9  A    between atoms: C_14  and  C_18
   10  A    between atoms: C_17  and  N_30
                            x       y       z     vdW  Elec       q    Type
                         _______ _______ _______ _____ _____    ______ ____

>  <TORSDO>
F 10

$$$$
=
 OpenBabel11032419173D

 30 32  0  0  1  0  0  0  0  0999 V2000
  186.7480  178.0110  142.4670 C   0  0  0  0  0  3  0  0  0  0  0  0
  187.9590  177.8120  141.9360 C   0  0  0  0  0  0  0  0  0  0  0  0
  188.8380  176.8380  142.5210 N   0  0  0  0  0  0  0  0  0  0  0  0
  188.3450  175.6490  142.9470 O   0  0  0  0  0  1  0  0  0  0  0  0
  191.6590  176.4180  145.4400 C   0  0  0  0  0  2  0  0  0  0  0  0
  191.0060  175.9350  143.3030 C   0  0  0  0  0  2  0  0  0  0  0  0
  190.3030  177.1140  145.6770 C   0  0  0  0  0  2  0  0  0  0  0  0
  192.0790  176.3850  144.0910 O   0  0  0  0  0  0  0  0  0  0  0  0
  190.1400  178.4560  144.9550 C   0  0  0  0  0  2  0  0  0  0  0  0
  190.4820  178.4550  143.4550 C   0  0  0  0  0  2  0  0  0  0  0  0
  190.2590  177.1320  142.6990 C   0  0  2  0  0  3  0  0  0  0  0  0
  188.3820  178.5680  140.7110 C   0  0  0  0  0  2  0  0  0  0  0  0
  188.4370  177.6670  139.5740 N   0  0  0  0  0  2  0  0  0  0  0  0
  189.8170  177.6450  139.1240 C   0  0  0  0  0  2  0  0  0  0  0  0
  190.1790  176.2980  138.7180 N   0  0  0  0  0  0  0  0  0  0  0  0
  191.9780  175.0570  137.5380 C   0  0  0  0  0  2  0  0  0  0  0  0
  190.9230  174.0470  137.6270 N   0  0  0  0  0  2  0  0  0  0  0  0
  189.7030  174.5710  137.0100 C   0  0  0  0  0  2  0  0  0  0  0  0
  191.5630  176.3580  138.2440 C   0  0  0  0  0  2  0  0  0  0  0  0
  189.3110  175.9380  137.5950 C   0  0  0  0  0  2  0  0  0  0  0  0
  185.7580  178.9870  141.9160 C   0  0  0  0  0  2  0  0  0  0  0  0
  184.7940  179.4240  143.0010 C   0  0  0  0  0  2  0  0  0  0  0  0
  184.6800  178.3860  144.0150 N   0  0  0  0  0  2  0  0  0  0  0  0
  187.0000  178.3310  147.5540 C   0  0  0  0  0  0  0  0  0  0  0  0
  185.3510  179.4190  146.1550 C   0  0  0  0  0  3  0  0  0  0  0  0
  186.1210  179.3930  147.3210 C   0  0  0  0  0  3  0  0  0  0  0  0
  187.7470  178.3060  148.6830 F   0  0  0  0  0  0  0  0  0  0  0  0
  187.1090  177.2960  146.6200 C   0  0  0  0  0  3  0  0  0  0  0  0
  186.3390  177.3230  145.4540 C   0  0  0  0  0  3  0  0  0  0  0  0
  185.4580  178.3820  145.2150 C   0  0  0  0  0  0  0  0  0  0  0  0
  2  1  2  0  0  0  0
  2  3  1  0  0  0  0
  3  4  1  0  0  0  0
  5  7  1  0  0  0  0
  6  8  1  0  0  0  0
  8  5  1  0  0  0  0
  9  7  1  0  0  0  0
 10  9  1  0  0  0  0
 11  3  1  1  0  0  0
 11  6  1  0  0  0  0
 11 10  1  0  0  0  0
 12  2  1  0  0  0  0
 13 12  1  0  0  0  0
 14 13  1  0  0  0  0
 15 14  1  0  0  0  0
 16 17  1  0  0  0  0
 16 19  1  0  0  0  0
 18 20  1  0  0  0  0
 18 17  1  0  0  0  0
 19 15  1  0  0  0  0
 20 15  1  0  0  0  0
 21  1  1  0  0  0  0
 21 22  1  0  0  0  0
 22 23  1  0  0  0  0
 23 30  1  0  0  0  0
 24 27  1  0  0  0  0
 25 26  2  0  0  0  0
 26 24  1  0  0  0  0
 28 24  2  0  0  0  0
 29 28  1  0  0  0  0
 30 29  2  0  0  0  0
 30 25  1  0  0  0  0
M  END
>  <MODEL>
4

>  <REMARK>
 VINA RESULT:      -7.3      1.643      2.563
  Name = 
  10 active torsions:
  status: ('A' for Active; 'I' for Inactive)
    1  A    between atoms: N_1  and  C_17
    2  A    between atoms: C_2  and  C_19
    3  A    between atoms: C_2  and  N_30
    4  A    between atoms: N_9  and  C_19
    5  A    between atoms: N_9  and  C_27
    6  A    between atoms: N_12  and  C_18
    7  A    between atoms: N_12  and  C_25
    8  A    between atoms: C_14  and  C_16
    9  A    between atoms: C_14  and  C_18
   10  A    between atoms: C_17  and  N_30
                            x       y       z     vdW  Elec       q    Type
                         _______ _______ _______ _____ _____    ______ ____

>  <TORSDO>
F 10

$$$$
=
 OpenBabel11032419173D

 30 32  0  0  1  0  0  0  0  0999 V2000
  190.0940  176.8090  140.7370 C   0  0  0  0  0  3  0  0  0  0  0  0
  189.3010  177.8100  140.3430 C   0  0  0  0  0  0  0  0  0  0  0  0
  189.1390  178.0760  138.9400 N   0  0  0  0  0  0  0  0  0  0  0  0
  189.0220  179.3550  138.5030 O   0  0  0  0  0  1  0  0  0  0  0  0
  188.0120  177.5470  135.0550 C   0  0  0  0  0  2  0  0  0  0  0  0
  189.6650  177.3770  136.6250 C   0  0  0  0  0  2  0  0  0  0  0  0
  187.1070  178.2180  136.1070 C   0  0  0  0  0  2  0  0  0  0  0  0
  189.0070  176.6950  135.5870 O   0  0  0  0  0  0  0  0  0  0  0  0
  186.5820  177.2740  137.1940 C   0  0  0  0  0  2  0  0  0  0  0  0
  187.6390  176.3960  137.8850 C   0  0  0  0  0  2  0  0  0  0  0  0
  189.0620  176.9780  137.9790 C   0  0  2  0  0  3  0  0  0  0  0  0
  188.5490  178.6240  141.3550 C   0  0  0  0  0  2  0  0  0  0  0  0
  187.3060  177.9550  141.6950 N   0  0  0  0  0  2  0  0  0  0  0  0
  186.2300  178.8060  141.2190 C   0  0  0  0  0  2  0  0  0  0  0  0
  185.3580  179.1600  142.3260 N   0  0  0  0  0  0  0  0  0  0  0  0
  184.8310  178.4880  144.6580 C   0  0  0  0  0  2  0  0  0  0  0  0
  183.7250  179.3930  144.3480 N   0  0  0  0  0  2  0  0  0  0  0  0
  183.0360  178.9160  143.1470 C   0  0  0  0  0  2  0  0  0  0  0  0
  185.8290  178.4080  143.4900 C   0  0  0  0  0  2  0  0  0  0  0  0
  184.0120  178.6990  141.9790 C   0  0  0  0  0  2  0  0  0  0  0  0
  190.3090  176.4450  142.1720 C   0  0  0  0  0  2  0  0  0  0  0  0
  191.6060  177.0470  142.6760 C   0  0  0  0  0  2  0  0  0  0  0  0
  191.3330  177.9940  143.7480 N   0  0  0  0  0  2  0  0  0  0  0  0
  189.0660  177.0060  147.1830 C   0  0  0  0  0  0  0  0  0  0  0  0
  191.1680  176.9560  145.9820 C   0  0  0  0  0  3  0  0  0  0  0  0
  190.4120  176.6350  147.1130 C   0  0  0  0  0  3  0  0  0  0  0  0
  188.3330  176.6930  148.2780 F   0  0  0  0  0  0  0  0  0  0  0  0
  188.4770  177.6990  146.1210 C   0  0  0  0  0  3  0  0  0  0  0  0
  189.2330  178.0200  144.9900 C   0  0  0  0  0  3  0  0  0  0  0  0
  190.5800  177.6520  144.9140 C   0  0  0  0  0  0  0  0  0  0  0  0
  1 21  1  0  0  0  0
  2  1  2  0  0  0  0
  2 12  1  0  0  0  0
  3  2  1  0  0  0  0
  4  3  1  0  0  0  0
  5  8  1  0  0  0  0
  5  7  1  0  0  0  0
  6 11  1  0  0  0  0
  7  9  1  0  0  0  0
  8  6  1  0  0  0  0
  9 10  1  0  0  0  0
 10 11  1  0  0  0  0
 11  3  1  1  0  0  0
 12 13  1  0  0  0  0
 14 13  1  0  0  0  0
 14 15  1  0  0  0  0
 15 19  1  0  0  0  0
 17 16  1  0  0  0  0
 18 17  1  0  0  0  0
 19 16  1  0  0  0  0
 20 15  1  0  0  0  0
 20 18  1  0  0  0  0
 21 22  1  0  0  0  0
 22 23  1  0  0  0  0
 23 30  1  0  0  0  0
 24 27  1  0  0  0  0
 25 26  2  0  0  0  0
 26 24  1  0  0  0  0
 28 24  2  0  0  0  0
 29 28  1  0  0  0  0
 30 29  2  0  0  0  0
 30 25  1  0  0  0  0
M  END
>  <MODEL>
5

>  <REMARK>
 VINA RESULT:      -7.3      2.424      6.638
  Name = 
  10 active torsions:
  status: ('A' for Active; 'I' for Inactive)
    1  A    between atoms: N_1  and  C_17
    2  A    between atoms: C_2  and  C_19
    3  A    between atoms: C_2  and  N_30
    4  A    between atoms: N_9  and  C_19
    5  A    between atoms: N_9  and  C_27
    6  A    between atoms: N_12  and  C_18
    7  A    between atoms: N_12  and  C_25
    8  A    between atoms: C_14  and  C_16
    9  A    between atoms: C_14  and  C_18
   10  A    between atoms: C_17  and  N_30
                            x       y       z     vdW  Elec       q    Type
                         _______ _______ _______ _____ _____    ______ ____

>  <TORSDO>
F 10

$$$$
=
 OpenBabel11032419173D

 30 32  0  0  1  0  0  0  0  0999 V2000
  190.2100  177.4260  140.6610 C   0  0  0  0  0  3  0  0  0  0  0  0
  189.2260  178.1250  140.0870 C   0  0  0  0  0  0  0  0  0  0  0  0
  189.1200  178.1530  138.6540 N   0  0  0  0  0  0  0  0  0  0  0  0
  189.0120  179.3400  138.0060 O   0  0  0  0  0  1  0  0  0  0  0  0
  188.3700  177.0030  134.8120 C   0  0  0  0  0  2  0  0  0  0  0  0
  189.8440  177.0540  136.5580 C   0  0  0  0  0  2  0  0  0  0  0  0
  187.3950  177.8710  135.6340 C   0  0  0  0  0  2  0  0  0  0  0  0
  189.2640  176.2260  135.5820 O   0  0  0  0  0  0  0  0  0  0  0  0
  186.7190  177.1410  136.7990 C   0  0  0  0  0  2  0  0  0  0  0  0
  187.6580  176.3620  137.7370 C   0  0  0  0  0  2  0  0  0  0  0  0
  189.0890  176.9100  137.8860 C   0  0  2  0  0  3  0  0  0  0  0  0
  188.2120  178.8400  140.9310 C   0  0  0  0  0  2  0  0  0  0  0  0
  186.8810  178.6060  140.4000 N   0  0  0  0  0  2  0  0  0  0  0  0
  185.9430  179.0110  141.4310 C   0  0  0  0  0  2  0  0  0  0  0  0
  184.6490  179.2930  140.8350 N   0  0  0  0  0  0  0  0  0  0  0  0
  182.3070  178.4690  140.8280 C   0  0  0  0  0  2  0  0  0  0  0  0
  182.3030  179.3970  139.6980 N   0  0  0  0  0  2  0  0  0  0  0  0
  183.3470  179.0030  138.7500 C   0  0  0  0  0  2  0  0  0  0  0  0
  183.6700  178.4640  141.5390 C   0  0  0  0  0  2  0  0  0  0  0  0
  184.7150  178.8610  139.4370 C   0  0  0  0  0  2  0  0  0  0  0  0
  190.3900  177.3220  142.1430 C   0  0  0  0  0  2  0  0  0  0  0  0
  189.8320  176.0050  142.6470 C   0  0  0  0  0  2  0  0  0  0  0  0
  188.4560  176.1820  143.0870 N   0  0  0  0  0  2  0  0  0  0  0  0
  187.4770  178.0140  146.7750 C   0  0  0  0  0  0  0  0  0  0  0  0
  186.8010  177.2410  144.5820 C   0  0  0  0  0  3  0  0  0  0  0  0
  186.4860  177.8440  145.8030 C   0  0  0  0  0  3  0  0  0  0  0  0
  187.1730  178.5990  147.9580 F   0  0  0  0  0  0  0  0  0  0  0  0
  188.7820  177.5790  146.5250 C   0  0  0  0  0  3  0  0  0  0  0  0
  189.0970  176.9750  145.3040 C   0  0  0  0  0  3  0  0  0  0  0  0
  188.1100  176.8030  144.3280 C   0  0  0  0  0  0  0  0  0  0  0  0
  1 21  1  0  0  0  0
  2  1  2  0  0  0  0
  2 12  1  0  0  0  0
  3  2  1  0  0  0  0
  4  3  1  0  0  0  0
  5  8  1  0  0  0  0
  5  7  1  0  0  0  0
  6 11  1  0  0  0  0
  7  9  1  0  0  0  0
  8  6  1  0  0  0  0
  9 10  1  0  0  0  0
 10 11  1  0  0  0  0
 11  3  1  6  0  0  0
 13 12  1  0  0  0  0
 13 14  1  0  0  0  0
 15 14  1  0  0  0  0
 15 19  1  0  0  0  0
 16 19  1  0  0  0  0
 17 16  1  0  0  0  0
 18 20  1  0  0  0  0
 18 17  1  0  0  0  0
 20 15  1  0  0  0  0
 21 22  1  0  0  0  0
 22 23  1  0  0  0  0
 23 30  1  0  0  0  0
 24 27  1  0  0  0  0
 25 26  1  0  0  0  0
 26 24  2  0  0  0  0
 28 24  1  0  0  0  0
 29 28  2  0  0  0  0
 30 25  2  0  0  0  0
 30 29  1  0  0  0  0
M  END
>  <MODEL>
6

>  <REMARK>
 VINA RESULT:      -7.2      2.659      5.942
  Name = 
  10 active torsions:
  status: ('A' for Active; 'I' for Inactive)
    1  A    between atoms: N_1  and  C_17
    2  A    between atoms: C_2  and  C_19
    3  A    between atoms: C_2  and  N_30
    4  A    between atoms: N_9  and  C_19
    5  A    between atoms: N_9  and  C_27
    6  A    between atoms: N_12  and  C_18
    7  A    between atoms: N_12  and  C_25
    8  A    between atoms: C_14  and  C_16
    9  A    between atoms: C_14  and  C_18
   10  A    between atoms: C_17  and  N_30
                            x       y       z     vdW  Elec       q    Type
                         _______ _______ _______ _____ _____    ______ ____

>  <TORSDO>
F 10

$$$$
=
 OpenBabel11032419173D

 30 32  0  0  1  0  0  0  0  0999 V2000
  184.5610  179.5220  143.1160 C   0  0  0  0  0  3  0  0  0  0  0  0
  185.1000  178.8580  142.0890 C   0  0  0  0  0  0  0  0  0  0  0  0
  184.4290  178.8530  140.8180 N   0  0  0  0  0  0  0  0  0  0  0  0
  184.7120  179.8080  139.8990 O   0  0  0  0  0  1  0  0  0  0  0  0
  181.5340  178.2380  138.0090 C   0  0  0  0  0  2  0  0  0  0  0  0
  183.4250  177.4630  139.0330 C   0  0  0  0  0  2  0  0  0  0  0  0
  181.6540  179.5450  138.8180 C   0  0  0  0  0  2  0  0  0  0  0  0
  182.1300  177.1090  138.6160 O   0  0  0  0  0  0  0  0  0  0  0  0
  181.3200  179.4070  140.3070 C   0  0  0  0  0  2  0  0  0  0  0  0
  182.0240  178.2570  141.0480 C   0  0  0  0  0  2  0  0  0  0  0  0
  183.4110  177.8470  140.5190 C   0  0  2  0  0  3  0  0  0  0  0  0
  186.4180  178.1590  142.2460 C   0  0  0  0  0  2  0  0  0  0  0  0
  187.4600  178.9240  141.5860 N   0  0  0  0  0  2  0  0  0  0  0  0
  188.0630  178.0440  140.6010 C   0  0  0  0  0  2  0  0  0  0  0  0
  187.8810  178.5990  139.2700 N   0  0  0  0  0  0  0  0  0  0  0  0
  186.9800  177.9980  137.0360 C   0  0  0  0  0  2  0  0  0  0  0  0
  187.6990  179.2390  136.7470 N   0  0  0  0  0  2  0  0  0  0  0  0
  189.0940  179.0940  137.1700 C   0  0  0  0  0  2  0  0  0  0  0  0
  187.0290  177.6630  138.5360 C   0  0  0  0  0  2  0  0  0  0  0  0
  189.1990  178.6370  138.6340 C   0  0  0  0  0  2  0  0  0  0  0  0
  185.1950  179.6000  144.4690 C   0  0  0  0  0  2  0  0  0  0  0  0
  185.0260  178.2840  145.2030 C   0  0  0  0  0  2  0  0  0  0  0  0
  185.6250  178.3710  146.5270 N   0  0  0  0  0  2  0  0  0  0  0  0
  189.6690  177.3510  147.2510 C   0  0  0  0  0  0  0  0  0  0  0  0
  187.5680  178.2560  148.0460 C   0  0  0  0  0  3  0  0  0  0  0  0
  188.9040  177.9160  148.2760 C   0  0  0  0  0  3  0  0  0  0  0  0
  190.9630  177.0220  147.4740 F   0  0  0  0  0  0  0  0  0  0  0  0
  189.0960  177.1260  145.9960 C   0  0  0  0  0  3  0  0  0  0  0  0
  187.7600  177.4670  145.7650 C   0  0  0  0  0  3  0  0  0  0  0  0
  186.9900  178.0320  146.7860 C   0  0  0  0  0  0  0  0  0  0  0  0
  1 21  1  0  0  0  0
  2 12  1  0  0  0  0
  2  1  2  0  0  0  0
  3  2  1  0  0  0  0
  4  3  1  0  0  0  0
  5  8  1  0  0  0  0
  5  7  1  0  0  0  0
  6 11  1  0  0  0  0
  7  9  1  0  0  0  0
  8  6  1  0  0  0  0
  9 10  1  0  0  0  0
 11  3  1  6  0  0  0
 11 10  1  0  0  0  0
 13 12  1  0  0  0  0
 14 13  1  0  0  0  0
 15 14  1  0  0  0  0
 16 19  1  0  0  0  0
 17 16  1  0  0  0  0
 17 18  1  0  0  0  0
 18 20  1  0  0  0  0
 19 15  1  0  0  0  0
 20 15  1  0  0  0  0
 21 22  1  0  0  0  0
 22 23  1  0  0  0  0
 23 30  1  0  0  0  0
 24 27  1  0  0  0  0
 24 26  1  0  0  0  0
 25 26  2  0  0  0  0
 28 24  2  0  0  0  0
 29 28  1  0  0  0  0
 29 30  2  0  0  0  0
 30 25  1  0  0  0  0
M  END
>  <MODEL>
7

>  <REMARK>
 VINA RESULT:      -7.1      3.620      6.454
  Name = 
  10 active torsions:
  status: ('A' for Active; 'I' for Inactive)
    1  A    between atoms: N_1  and  C_17
    2  A    between atoms: C_2  and  C_19
    3  A    between atoms: C_2  and  N_30
    4  A    between atoms: N_9  and  C_19
    5  A    between atoms: N_9  and  C_27
    6  A    between atoms: N_12  and  C_18
    7  A    between atoms: N_12  and  C_25
    8  A    between atoms: C_14  and  C_16
    9  A    between atoms: C_14  and  C_18
   10  A    between atoms: C_17  and  N_30
                            x       y       z     vdW  Elec       q    Type
                         _______ _______ _______ _____ _____    ______ ____

>  <TORSDO>
F 10

$$$$
=
 OpenBabel11032419173D

 30 32  0  0  1  0  0  0  0  0999 V2000
  183.3590  178.8170  143.3060 C   0  0  0  0  0  3  0  0  0  0  0  0
  183.7870  178.6700  142.0480 C   0  0  0  0  0  0  0  0  0  0  0  0
  182.9550  177.9970  141.0900 N   0  0  0  0  0  0  0  0  0  0  0  0
  183.4850  177.0430  140.2850 O   0  0  0  0  0  1  0  0  0  0  0  0
  180.1000  177.8880  138.1770 C   0  0  0  0  0  2  0  0  0  0  0  0
  180.7480  177.2350  140.2700 C   0  0  0  0  0  2  0  0  0  0  0  0
  181.4800  178.5450  137.9750 C   0  0  0  0  0  2  0  0  0  0  0  0
  179.6880  177.7800  139.5250 O   0  0  0  0  0  0  0  0  0  0  0  0
  181.7020  179.8270  138.7840 C   0  0  0  0  0  2  0  0  0  0  0  0
  181.3700  179.7380  140.2840 C   0  0  0  0  0  2  0  0  0  0  0  0
  181.5460  178.3580  140.9460 C   0  0  2  0  0  3  0  0  0  0  0  0
  185.1090  179.2420  141.6270 C   0  0  0  0  0  2  0  0  0  0  0  0
  186.1720  178.3080  141.9520 N   0  0  0  0  0  2  0  0  0  0  0  0
  187.2920  178.6320  141.0860 C   0  0  0  0  0  2  0  0  0  0  0  0
  188.3560  177.6620  141.2750 N   0  0  0  0  0  0  0  0  0  0  0  0
  190.5000  177.3630  142.4930 C   0  0  0  0  0  2  0  0  0  0  0  0
  190.5220  176.2350  141.5630 N   0  0  0  0  0  2  0  0  0  0  0  0
  190.3820  176.7370  140.1940 C   0  0  0  0  0  2  0  0  0  0  0  0
  189.1900  178.1600  142.3700 C   0  0  0  0  0  2  0  0  0  0  0  0
  189.1510  177.6470  140.0460 C   0  0  0  0  0  2  0  0  0  0  0  0
  184.1460  179.5180  144.3670 C   0  0  0  0  0  2  0  0  0  0  0  0
  184.2830  178.6320  145.5900 C   0  0  0  0  0  2  0  0  0  0  0  0
  185.3460  179.1300  146.4500 N   0  0  0  0  0  2  0  0  0  0  0  0
  189.0060  177.0910  147.0560 C   0  0  0  0  0  0  0  0  0  0  0  0
  187.2390  177.8140  145.5660 C   0  0  0  0  0  3  0  0  0  0  0  0
  188.4480  177.1430  145.7750 C   0  0  0  0  0  3  0  0  0  0  0  0
  190.1760  176.4400  147.2590 F   0  0  0  0  0  0  0  0  0  0  0  0
  188.3550  177.7100  148.1270 C   0  0  0  0  0  3  0  0  0  0  0  0
  187.1460  178.3810  147.9180 C   0  0  0  0  0  3  0  0  0  0  0  0
  186.5830  178.4370  146.6390 C   0  0  0  0  0  0  0  0  0  0  0  0
  1 21  1  0  0  0  0
  2  1  2  0  0  0  0
  3  2  1  0  0  0  0
  4  3  1  0  0  0  0
  5  8  1  0  0  0  0
  6 11  1  0  0  0  0
  7  5  1  0  0  0  0
  7  9  1  0  0  0  0
  8  6  1  0  0  0  0
  9 10  1  0  0  0  0
 10 11  1  0  0  0  0
 11  3  1  6  0  0  0
 12 13  1  0  0  0  0
 12  2  1  0  0  0  0
 14 15  1  0  0  0  0
 14 13  1  0  0  0  0
 15 19  1  0  0  0  0
 17 16  1  0  0  0  0
 18 17  1  0  0  0  0
 19 16  1  0  0  0  0
 20 18  1  0  0  0  0
 20 15  1  0  0  0  0
 21 22  1  0  0  0  0
 22 23  1  0  0  0  0
 23 30  1  0  0  0  0
 24 27  1  0  0  0  0
 24 28  1  0  0  0  0
 25 26  1  0  0  0  0
 25 30  2  0  0  0  0
 26 24  2  0  0  0  0
 29 28  2  0  0  0  0
 30 29  1  0  0  0  0
M  END
>  <MODEL>
8

>  <REMARK>
 VINA RESULT:      -7.1      3.960      7.313
  Name = 
  10 active torsions:
  status: ('A' for Active; 'I' for Inactive)
    1  A    between atoms: N_1  and  C_17
    2  A    between atoms: C_2  and  C_19
    3  A    between atoms: C_2  and  N_30
    4  A    between atoms: N_9  and  C_19
    5  A    between atoms: N_9  and  C_27
    6  A    between atoms: N_12  and  C_18
    7  A    between atoms: N_12  and  C_25
    8  A    between atoms: C_14  and  C_16
    9  A    between atoms: C_14  and  C_18
   10  A    between atoms: C_17  and  N_30
                            x       y       z     vdW  Elec       q    Type
                         _______ _______ _______ _____ _____    ______ ____

>  <TORSDO>
F 10

$$$$
=
 OpenBabel11032419173D

 30 32  0  0  1  0  0  0  0  0999 V2000
  183.6770  178.9880  143.4220 C   0  0  0  0  0  3  0  0  0  0  0  0
  184.3290  178.9240  142.2570 C   0  0  0  0  0  0  0  0  0  0  0  0
  183.6470  178.4400  141.0880 N   0  0  0  0  0  0  0  0  0  0  0  0
  183.3270  177.1260  140.9870 O   0  0  0  0  0  1  0  0  0  0  0  0
  182.0870  178.1730  137.3280 C   0  0  0  0  0  2  0  0  0  0  0  0
  181.9260  179.0680  139.4250 C   0  0  0  0  0  2  0  0  0  0  0  0
  183.2810  177.3190  137.8040 C   0  0  0  0  0  2  0  0  0  0  0  0
  181.8890  179.3700  138.0530 O   0  0  0  0  0  0  0  0  0  0  0  0
  184.5730  178.1060  138.0450 C   0  0  0  0  0  2  0  0  0  0  0  0
  184.4370  179.3660  138.9190 C   0  0  0  0  0  2  0  0  0  0  0  0
  183.3270  179.3450  139.9860 C   0  0  2  0  0  3  0  0  0  0  0  0
  185.7510  179.3950  142.1570 C   0  0  0  0  0  2  0  0  0  0  0  0
  186.6270  178.2600  141.9280 N   0  0  0  0  0  2  0  0  0  0  0  0
  187.3810  178.5520  140.7220 C   0  0  0  0  0  2  0  0  0  0  0  0
  188.7930  178.3010  140.9540 N   0  0  0  0  0  0  0  0  0  0  0  0
  190.6250  176.7810  140.2440 C   0  0  0  0  0  2  0  0  0  0  0  0
  191.2230  177.4580  141.3950 N   0  0  0  0  0  2  0  0  0  0  0  0
  190.3620  177.2670  142.5650 C   0  0  0  0  0  2  0  0  0  0  0  0
  189.2200  177.3320  139.9440 C   0  0  0  0  0  2  0  0  0  0  0  0
  188.9110  177.6870  142.2770 C   0  0  0  0  0  2  0  0  0  0  0  0
  184.2970  179.4950  144.6850 C   0  0  0  0  0  2  0  0  0  0  0  0
  184.5780  178.3430  145.6300 C   0  0  0  0  0  2  0  0  0  0  0  0
  185.4780  178.7740  146.6890 N   0  0  0  0  0  2  0  0  0  0  0  0
  189.3850  177.2330  147.2120 C   0  0  0  0  0  0  0  0  0  0  0  0
  187.4680  177.6270  145.7860 C   0  0  0  0  0  3  0  0  0  0  0  0
  188.7590  177.1210  145.9670 C   0  0  0  0  0  3  0  0  0  0  0  0
  190.6350  176.7420  147.3890 F   0  0  0  0  0  0  0  0  0  0  0  0
  188.7200  177.8510  148.2750 C   0  0  0  0  0  3  0  0  0  0  0  0
  187.4290  178.3570  148.0940 C   0  0  0  0  0  3  0  0  0  0  0  0
  186.7980  178.2480  146.8510 C   0  0  0  0  0  0  0  0  0  0  0  0
  1 21  1  0  0  0  0
  2  1  2  0  0  0  0
  3  2  1  0  0  0  0
  4  3  1  0  0  0  0
  5  7  1  0  0  0  0
  5  8  1  0  0  0  0
  6 11  1  0  0  0  0
  7  9  1  0  0  0  0
  8  6  1  0  0  0  0
  9 10  1  0  0  0  0
 10 11  1  0  0  0  0
 11  3  1  1  0  0  0
 12  2  1  0  0  0  0
 13 12  1  0  0  0  0
 14 15  1  0  0  0  0
 14 13  1  0  0  0  0
 15 20  1  0  0  0  0
 16 17  1  0  0  0  0
 17 18  1  0  0  0  0
 19 16  1  0  0  0  0
 19 15  1  0  0  0  0
 20 18  1  0  0  0  0
 21 22  1  0  0  0  0
 22 23  1  0  0  0  0
 23 30  1  0  0  0  0
 24 27  1  0  0  0  0
 24 28  1  0  0  0  0
 25 26  1  0  0  0  0
 25 30  2  0  0  0  0
 26 24  2  0  0  0  0
 29 28  2  0  0  0  0
 30 29  1  0  0  0  0
M  END
>  <MODEL>
9

>  <REMARK>
 VINA RESULT:      -7.0      3.534      6.899
  Name = 
  10 active torsions:
  status: ('A' for Active; 'I' for Inactive)
    1  A    between atoms: N_1  and  C_17
    2  A    between atoms: C_2  and  C_19
    3  A    between atoms: C_2  and  N_30
    4  A    between atoms: N_9  and  C_19
    5  A    between atoms: N_9  and  C_27
    6  A    between atoms: N_12  and  C_18
    7  A    between atoms: N_12  and  C_25
    8  A    between atoms: C_14  and  C_16
    9  A    between atoms: C_14  and  C_18
   10  A    between atoms: C_17  and  N_30
                            x       y       z     vdW  Elec       q    Type
                         _______ _______ _______ _____ _____    ______ ____

>  <TORSDO>
F 10

$$$$
