=
 OpenBabel11032420543D

 47 53  0  0  1  0  0  0  0  0999 V2000
  186.7310  176.4220  137.0390 C   0  0  2  0  0  3  0  0  0  0  0  0
  184.5230  177.2000  137.9730 C   0  0  0  0  0  3  0  0  0  0  0  0
  184.8750  178.0790  140.9260 C   0  0  0  0  0  3  0  0  0  0  0  0
  190.4570  177.5880  138.1970 S   0  0  0  0  0  0  0  0  0  0  0  0
  189.0630  178.4590  139.0250 C   0  0  1  0  0  3  0  0  0  0  0  0
  185.8350  177.3580  137.8190 C   0  0  0  0  0  0  0  0  0  0  0  0
  187.6870  178.1950  141.0480 O   0  0  0  0  0  0  0  0  0  0  0  0
  187.5120  178.1030  142.4350 C   0  0  0  0  0  0  0  0  0  0  0  0
  187.9110  178.1670  138.1910 N   0  0  0  0  0  0  0  0  0  0  0  0
  188.4900  178.0390  144.6660 C   0  0  0  0  0  3  0  0  0  0  0  0
  186.5710  178.3760  138.5020 N   0  0  0  0  0  2  0  0  0  0  0  0
  188.0500  177.0380  137.3820 C   0  0  0  0  0  0  0  0  0  0  0  0
  186.2210  177.9820  143.0100 C   0  0  0  0  0  0  0  0  0  0  0  0
  188.9210  177.8510  140.4210 C   0  0  0  0  0  2  0  0  0  0  0  0
  189.2690  176.5440  137.3170 C   0  0  0  0  0  0  0  0  0  0  0  0
  184.9670  177.8830  142.2370 C   0  0  0  0  0  3  0  0  0  0  0  0
  188.6350  178.1290  143.2810 C   0  0  0  0  0  3  0  0  0  0  0  0
  183.7640  178.1130  138.7670 N   0  0  0  0  0  2  0  0  0  0  0  0
  186.0940  177.8870  144.4010 C   0  0  0  0  0  3  0  0  0  0  0  0
  187.2150  177.9180  145.2340 C   0  0  0  0  0  0  0  0  0  0  0  0
  183.5700  177.9280  140.1990 C   0  0  2  0  0  3  0  0  0  0  0  0
  191.9660  174.6230  135.9190 C   0  0  0  0  0  3  0  0  0  0  0  0
  190.7700  174.9180  136.3400 C   0  0  0  0  0  0  0  0  0  0  0  0
  189.5730  175.2210  136.7630 C   0  0  0  0  0  3  0  0  0  0  0  0
  196.5180  175.0680  136.2140 C   0  0  0  0  0  1  0  0  0  0  0  0
  195.2250  175.0090  135.5330 N   0  0  0  0  0  0  0  0  0  0  0  0
  194.5180  176.3020  135.5890 C   0  0  2  0  0  3  0  0  0  0  0  0
  194.4060  174.0790  136.3200 C   0  0  1  0  0  3  0  0  0  0  0  0
  193.1510  174.8190  136.8140 C   0  0  1  0  0  3  0  0  0  0  0  0
  195.4110  177.4560  135.6650 N   0  0  0  0  0  1  0  0  0  0  0  0
  193.5570  176.2670  136.7570 C   0  0  0  0  0  2  0  0  0  0  0  0
  195.4380  172.1010  135.0880 C   0  0  0  0  0  2  0  0  0  0  0  0
  194.1410  172.7550  135.5820 C   0  0  0  0  0  3  0  0  0  0  0  0
  193.8250  170.3290  134.5990 O   0  0  0  0  0  0  0  0  0  0  0  0
  193.3590  171.7850  136.4830 C   0  0  0  0  0  2  0  0  0  0  0  0
  195.1950  170.6640  134.5940 C   0  0  0  0  0  2  0  0  0  0  0  0
  193.4110  170.3470  135.9450 C   0  0  0  0  0  2  0  0  0  0  0  0
  182.5560  178.9130  140.6880 C   0  0  0  0  0  0  0  0  0  0  0  0
  182.0300  178.7430  141.8210 O   0  0  0  0  0  0  0  0  0  0  0  0
  180.8220  180.1190  139.4200 C   0  0  0  0  0  1  0  0  0  0  0  0
  182.1610  179.9750  139.8690 O   0  0  0  0  0  0  0  0  0  0  0  0
  186.4840  176.5520  135.5430 C   0  0  0  0  0  2  0  0  0  0  0  0
  186.0900  175.2110  134.9540 C   0  0  0  0  0  1  0  0  0  0  0  0
  187.0340  177.8270  146.6170 O   0  0  0  0  0  0  0  0  0  0  0  0
  188.0140  177.2800  147.4870 C   0  0  2  0  0  3  0  0  0  0  0  0
  187.7410  177.7040  148.8760 C   0  0  0  0  0  2  0  0  0  0  0  0
  188.7310  178.3280  148.0960 O   0  0  0  0  0  0  0  0  0  0  0  0
  1 42  1  6  0  0  0
  1 12  1  0  0  0  0
  1  6  1  0  0  0  0
  2 18  1  0  0  0  0
  3 16  2  0  0  0  0
  4  5  1  0  0  0  0
  5 14  1  1  0  0  0
  6  2  2  0  0  0  0
  6 11  1  0  0  0  0
  7  8  1  0  0  0  0
  8 13  2  0  0  0  0
  8 17  1  0  0  0  0
  9 11  1  0  0  0  0
  9  5  1  0  0  0  0
 10 20  1  0  0  0  0
 12  9  1  0  0  0  0
 13 19  1  0  0  0  0
 14  7  1  0  0  0  0
 15 12  2  0  0  0  0
 15  4  1  0  0  0  0
 16 13  1  0  0  0  0
 17 10  2  0  0  0  0
 18 21  1  0  0  0  0
 19 20  2  0  0  0  0
 20 44  1  0  0  0  0
 21 38  1  1  0  0  0
 21  3  1  0  0  0  0
 22 23  2  0  0  0  0
 23 24  2  0  0  0  0
 24 15  1  0  0  0  0
 26 27  1  0  0  0  0
 26 25  1  0  0  0  0
 26 28  1  0  0  0  0
 27 30  1  1  0  0  0
 27 31  1  0  0  0  0
 28 33  1  6  0  0  0
 28 29  1  0  0  0  0
 29 22  1  6  0  0  0
 31 29  1  0  0  0  0
 32 33  1  0  0  0  0
 33 35  1  0  0  0  0
 34 37  1  0  0  0  0
 36 34  1  0  0  0  0
 36 32  1  0  0  0  0
 37 35  1  0  0  0  0
 38 39  2  0  0  0  0
 40 41  1  0  0  0  0
 41 38  1  0  0  0  0
 43 42  1  0  0  0  0
 45 44  1  6  0  0  0
 45 47  1  0  0  0  0
 45 46  1  0  0  0  0
 47 46  1  0  0  0  0
M  END
>  <MODEL>
1

>  <REMARK>
 VINA RESULT:      -8.0      0.000      0.000
  Name = 
  8 active torsions:
  status: ('A' for Active; 'I' for Inactive)
    1  A    between atoms: C_1  and  C_28
    2  A    between atoms: C_16  and  O_44
    3  A    between atoms: C_18  and  C_19
    4  A    between atoms: C_20  and  C_26
    5  A    between atoms: C_22  and  O_32
    6  A    between atoms: C_22  and  C_45
    7  A    between atoms: C_31  and  C_43
    8  A    between atoms: C_42  and  O_44
                            x       y       z     vdW  Elec       q    Type
                         _______ _______ _______ _____ _____    ______ ____

>  <TORSDO>
F 8

$$$$
=
 OpenBabel11032420543D

 47 53  0  0  1  0  0  0  0  0999 V2000
  184.6210  177.7200  142.5490 C   0  0  2  0  0  3  0  0  0  0  0  0
  186.8150  177.7780  143.7880 C   0  0  0  0  0  3  0  0  0  0  0  0
  189.1700  177.7190  141.7700 C   0  0  0  0  0  3  0  0  0  0  0  0
  183.8690  179.0670  138.7800 S   0  0  0  0  0  0  0  0  0  0  0  0
  185.5700  179.3820  139.4080 C   0  0  1  0  0  3  0  0  0  0  0  0
  186.0360  178.1960  142.7930 C   0  0  0  0  0  0  0  0  0  0  0  0
  187.7610  178.2620  139.3910 O   0  0  0  0  0  0  0  0  0  0  0  0
  188.8740  177.7060  138.7460 C   0  0  0  0  0  0  0  0  0  0  0  0
  185.4670  179.1810  140.8420 N   0  0  0  0  0  0  0  0  0  0  0  0
  190.0030  177.1020  136.6730 C   0  0  0  0  0  3  0  0  0  0  0  0
  186.5110  179.0520  141.7520 N   0  0  0  0  0  2  0  0  0  0  0  0
  184.3760  178.4080  141.2440 C   0  0  0  0  0  0  0  0  0  0  0  0
  189.9730  177.1930  139.4810 C   0  0  0  0  0  0  0  0  0  0  0  0
  186.4880  178.3470  138.7550 C   0  0  0  0  0  2  0  0  0  0  0  0
  183.4820  178.1730  140.3050 C   0  0  0  0  0  0  0  0  0  0  0  0
  190.0400  177.1360  140.9550 C   0  0  0  0  0  3  0  0  0  0  0  0
  188.9070  177.6490  137.3420 C   0  0  0  0  0  3  0  0  0  0  0  0
  188.1570  178.2510  143.9130 N   0  0  0  0  0  2  0  0  0  0  0  0
  191.0620  176.6400  138.7950 C   0  0  0  0  0  3  0  0  0  0  0  0
  191.0880  176.5940  137.3980 C   0  0  0  0  0  0  0  0  0  0  0  0
  189.2810  177.5900  143.2620 C   0  0  2  0  0  3  0  0  0  0  0  0
  182.0310  175.3690  138.5870 C   0  0  0  0  0  3  0  0  0  0  0  0
  182.2250  176.2650  139.5120 C   0  0  0  0  0  0  0  0  0  0  0  0
  182.4250  177.1660  140.4350 C   0  0  0  0  0  3  0  0  0  0  0  0
  184.1730  173.4670  135.0100 C   0  0  0  0  0  1  0  0  0  0  0  0
  183.2290  174.3640  135.6770 N   0  0  0  0  0  0  0  0  0  0  0  0
  183.8880  175.5960  136.1500 C   0  0  2  0  0  3  0  0  0  0  0  0
  182.8020  173.6560  136.8900 C   0  0  1  0  0  3  0  0  0  0  0  0
  183.1640  174.5110  138.1170 C   0  0  1  0  0  3  0  0  0  0  0  0
  185.0440  175.9880  135.3480 N   0  0  0  0  0  1  0  0  0  0  0  0
  184.2590  175.4080  137.6040 C   0  0  0  0  0  2  0  0  0  0  0  0
  180.6530  173.6420  135.5210 C   0  0  0  0  0  2  0  0  0  0  0  0
  181.3360  173.1950  136.8200 C   0  0  0  0  0  3  0  0  0  0  0  0
  178.9310  172.1780  136.4560 O   0  0  0  0  0  0  0  0  0  0  0  0
  181.2440  171.6680  136.9800 C   0  0  0  0  0  2  0  0  0  0  0  0
  179.2870  172.9580  135.3350 C   0  0  0  0  0  2  0  0  0  0  0  0
  179.8740  171.1350  136.5360 C   0  0  0  0  0  2  0  0  0  0  0  0
  190.5580  178.1830  143.7670 C   0  0  0  0  0  0  0  0  0  0  0  0
  190.6550  179.4360  143.8690 O   0  0  0  0  0  0  0  0  0  0  0  0
  191.5380  175.9410  144.0410 C   0  0  0  0  0  1  0  0  0  0  0  0
  191.6430  177.3560  144.0700 O   0  0  0  0  0  0  0  0  0  0  0  0
  183.6700  178.2760  143.6010 C   0  0  0  0  0  2  0  0  0  0  0  0
  184.0390  179.7080  143.9400 C   0  0  0  0  0  1  0  0  0  0  0  0
  192.2020  176.0390  136.7610 O   0  0  0  0  0  0  0  0  0  0  0  0
  193.3410  175.5720  137.4700 C   0  0  2  0  0  3  0  0  0  0  0  0
  194.1370  174.6800  136.6030 C   0  0  0  0  0  2  0  0  0  0  0  0
  193.2720  174.1710  137.5880 O   0  0  0  0  0  0  0  0  0  0  0  0
  1  6  1  0  0  0  0
  1 42  1  1  0  0  0
  2 18  1  0  0  0  0
  3 21  1  0  0  0  0
  4  5  1  0  0  0  0
  4 15  1  0  0  0  0
  5 14  1  6  0  0  0
  5  9  1  0  0  0  0
  6  2  2  0  0  0  0
  8  7  1  0  0  0  0
  8 13  1  0  0  0  0
  9 12  1  0  0  0  0
  9 11  1  0  0  0  0
 10 17  1  0  0  0  0
 10 20  2  0  0  0  0
 11  6  1  0  0  0  0
 12  1  1  0  0  0  0
 13 16  1  0  0  0  0
 14  7  1  0  0  0  0
 15 24  1  0  0  0  0
 15 12  2  0  0  0  0
 16  3  2  0  0  0  0
 17  8  2  0  0  0  0
 19 13  2  0  0  0  0
 20 19  1  0  0  0  0
 21 38  1  1  0  0  0
 21 18  1  0  0  0  0
 22 23  2  0  0  0  0
 23 24  2  0  0  0  0
 25 26  1  0  0  0  0
 26 27  1  0  0  0  0
 26 28  1  0  0  0  0
 27 30  1  6  0  0  0
 27 31  1  0  0  0  0
 28 33  1  6  0  0  0
 28 29  1  0  0  0  0
 29 22  1  6  0  0  0
 31 29  1  0  0  0  0
 32 33  1  0  0  0  0
 33 35  1  0  0  0  0
 34 37  1  0  0  0  0
 36 32  1  0  0  0  0
 36 34  1  0  0  0  0
 37 35  1  0  0  0  0
 38 39  2  0  0  0  0
 38 41  1  0  0  0  0
 40 41  1  0  0  0  0
 42 43  1  0  0  0  0
 44 20  1  0  0  0  0
 45 44  1  6  0  0  0
 45 47  1  0  0  0  0
 46 45  1  0  0  0  0
 46 47  1  0  0  0  0
M  END
>  <MODEL>
2

>  <REMARK>
 VINA RESULT:      -8.0      3.735      9.468
  Name = 
  8 active torsions:
  status: ('A' for Active; 'I' for Inactive)
    1  A    between atoms: C_1  and  C_28
    2  A    between atoms: C_16  and  O_44
    3  A    between atoms: C_18  and  C_19
    4  A    between atoms: C_20  and  C_26
    5  A    between atoms: C_22  and  O_32
    6  A    between atoms: C_22  and  C_45
    7  A    between atoms: C_31  and  C_43
    8  A    between atoms: C_42  and  O_44
                            x       y       z     vdW  Elec       q    Type
                         _______ _______ _______ _____ _____    ______ ____

>  <TORSDO>
F 8

$$$$
=
 OpenBabel11032420543D

 47 53  0  0  1  0  0  0  0  0999 V2000
  189.0920  174.9530  137.6580 C   0  0  2  0  0  3  0  0  0  0  0  0
  187.3110  173.3870  136.8050 C   0  0  0  0  0  3  0  0  0  0  0  0
  184.5200  174.7140  137.0720 C   0  0  0  0  0  3  0  0  0  0  0  0
  188.9730  179.0230  137.7480 S   0  0  0  0  0  0  0  0  0  0  0  0
  187.5340  178.2080  136.9420 C   0  0  1  0  0  3  0  0  0  0  0  0
  187.8440  174.6040  136.8780 C   0  0  0  0  0  0  0  0  0  0  0  0
  185.3120  177.3680  137.5860 O   0  0  0  0  0  0  0  0  0  0  0  0
  184.0190  177.5270  138.1050 C   0  0  0  0  0  0  0  0  0  0  0  0
  187.9840  176.8500  136.6900 N   0  0  0  0  0  0  0  0  0  0  0  0
  182.3380  178.9670  139.1220 C   0  0  0  0  0  3  0  0  0  0  0  0
  187.2040  175.7570  136.3270 N   0  0  0  0  0  2  0  0  0  0  0  0
  189.0580  176.4380  137.4800 C   0  0  0  0  0  0  0  0  0  0  0  0
  183.1020  176.4460  138.1450 C   0  0  0  0  0  0  0  0  0  0  0  0
  186.3790  178.2440  137.9440 C   0  0  0  0  0  2  0  0  0  0  0  0
  189.6500  177.3970  138.1630 C   0  0  0  0  0  0  0  0  0  0  0  0
  183.4140  175.0690  137.7150 C   0  0  0  0  0  3  0  0  0  0  0  0
  183.6180  178.7800  138.6000 C   0  0  0  0  0  3  0  0  0  0  0  0
  186.1010  173.1610  136.0790 N   0  0  0  0  0  2  0  0  0  0  0  0
  181.8230  176.6490  138.6780 C   0  0  0  0  0  3  0  0  0  0  0  0
  181.4310  177.8990  139.1630 C   0  0  0  0  0  0  0  0  0  0  0  0
  184.7870  173.2850  136.6950 C   0  0  2  0  0  3  0  0  0  0  0  0
  189.9030  177.4330  141.7480 C   0  0  0  0  0  3  0  0  0  0  0  0
  190.2530  177.2860  140.5030 C   0  0  0  0  0  0  0  0  0  0  0  0
  190.5980  177.1410  139.2520 C   0  0  0  0  0  3  0  0  0  0  0  0
  186.3730  177.5660  144.6670 C   0  0  0  0  0  1  0  0  0  0  0  0
  187.5100  178.1090  143.9220 N   0  0  0  0  0  0  0  0  0  0  0  0
  187.1300  178.4880  142.5480 C   0  0  2  0  0  3  0  0  0  0  0  0
  188.4540  176.9950  143.7770 C   0  0  1  0  0  3  0  0  0  0  0  0
  188.6890  176.7360  142.2790 C   0  0  1  0  0  3  0  0  0  0  0  0
  185.7300  178.8840  142.4130 N   0  0  0  0  0  1  0  0  0  0  0  0
  187.4730  177.3370  141.6280 C   0  0  0  0  0  2  0  0  0  0  0  0
  189.4340  177.1510  146.1240 C   0  0  0  0  0  2  0  0  0  0  0  0
  189.7270  177.1860  144.6190 C   0  0  0  0  0  3  0  0  0  0  0  0
  191.8800  177.1740  146.1420 O   0  0  0  0  0  0  0  0  0  0  0  0
  190.7790  176.1270  144.2500 C   0  0  0  0  0  2  0  0  0  0  0  0
  190.7290  177.0730  146.9520 C   0  0  0  0  0  2  0  0  0  0  0  0
  191.8870  176.0370  145.3100 C   0  0  0  0  0  2  0  0  0  0  0  0
  183.7510  172.7680  135.7470 C   0  0  0  0  0  0  0  0  0  0  0  0
  183.5270  173.3980  134.6790 O   0  0  0  0  0  0  0  0  0  0  0  0
  183.6100  170.3520  136.2040 C   0  0  0  0  0  1  0  0  0  0  0  0
  183.0070  171.6310  136.0750 O   0  0  0  0  0  0  0  0  0  0  0  0
  190.3330  174.3900  136.9790 C   0  0  0  0  0  2  0  0  0  0  0  0
  190.4910  174.9820  135.5920 C   0  0  0  0  0  1  0  0  0  0  0  0
  180.1410  178.0510  139.6770 O   0  0  0  0  0  0  0  0  0  0  0  0
  179.7560  177.5510  140.9500 C   0  0  2  0  0  3  0  0  0  0  0  0
  178.9380  178.5580  141.6560 C   0  0  0  0  0  2  0  0  0  0  0  0
  180.3000  178.3730  141.9560 O   0  0  0  0  0  0  0  0  0  0  0  0
  1 42  1  6  0  0  0
  2  6  2  0  0  0  0
  3 16  2  0  0  0  0
  4 15  1  0  0  0  0
  5  4  1  0  0  0  0
  5 14  1  1  0  0  0
  6  1  1  0  0  0  0
  7 14  1  0  0  0  0
  7  8  1  0  0  0  0
  8 13  2  0  0  0  0
  8 17  1  0  0  0  0
  9  5  1  0  0  0  0
  9 12  1  0  0  0  0
 10 20  1  0  0  0  0
 11  9  1  0  0  0  0
 11  6  1  0  0  0  0
 12  1  1  0  0  0  0
 12 15  2  0  0  0  0
 13 19  1  0  0  0  0
 15 24  1  0  0  0  0
 16 13  1  0  0  0  0
 17 10  2  0  0  0  0
 18 21  1  0  0  0  0
 18  2  1  0  0  0  0
 19 20  2  0  0  0  0
 20 44  1  0  0  0  0
 21 38  1  6  0  0  0
 21  3  1  0  0  0  0
 23 22  2  0  0  0  0
 24 23  2  0  0  0  0
 26 25  1  0  0  0  0
 27 30  1  1  0  0  0
 27 26  1  0  0  0  0
 28 26  1  0  0  0  0
 28 33  1  1  0  0  0
 29 22  1  6  0  0  0
 29 28  1  0  0  0  0
 31 29  1  0  0  0  0
 31 27  1  0  0  0  0
 32 36  1  0  0  0  0
 33 32  1  0  0  0  0
 34 36  1  0  0  0  0
 35 33  1  0  0  0  0
 35 37  1  0  0  0  0
 37 34  1  0  0  0  0
 38 41  1  0  0  0  0
 39 38  2  0  0  0  0
 41 40  1  0  0  0  0
 43 42  1  0  0  0  0
 45 44  1  6  0  0  0
 45 46  1  0  0  0  0
 45 47  1  0  0  0  0
 46 47  1  0  0  0  0
M  END
>  <MODEL>
3

>  <REMARK>
 VINA RESULT:      -7.9      3.664      8.183
  Name = 
  8 active torsions:
  status: ('A' for Active; 'I' for Inactive)
    1  A    between atoms: C_1  and  C_28
    2  A    between atoms: C_16  and  O_44
    3  A    between atoms: C_18  and  C_19
    4  A    between atoms: C_20  and  C_26
    5  A    between atoms: C_22  and  O_32
    6  A    between atoms: C_22  and  C_45
    7  A    between atoms: C_31  and  C_43
    8  A    between atoms: C_42  and  O_44
                            x       y       z     vdW  Elec       q    Type
                         _______ _______ _______ _____ _____    ______ ____

>  <TORSDO>
F 8

$$$$
=
 OpenBabel11032420543D

 47 53  0  0  1  0  0  0  0  0999 V2000
  190.0230  175.9180  137.7850 C   0  0  2  0  0  3  0  0  0  0  0  0
  189.7620  173.5380  137.0000 C   0  0  0  0  0  3  0  0  0  0  0  0
  186.7620  172.8940  136.5550 C   0  0  0  0  0  3  0  0  0  0  0  0
  187.5430  179.0590  137.0320 S   0  0  0  0  0  0  0  0  0  0  0  0
  187.0990  177.4830  136.1930 C   0  0  1  0  0  3  0  0  0  0  0  0
  189.4500  174.8280  136.9070 C   0  0  0  0  0  0  0  0  0  0  0  0
  185.7050  175.5050  136.6390 O   0  0  0  0  0  0  0  0  0  0  0  0
  184.4830  174.8730  136.9070 C   0  0  0  0  0  0  0  0  0  0  0  0
  188.3000  176.6720  136.2930 N   0  0  0  0  0  0  0  0  0  0  0  0
  182.0910  175.0460  137.3370 C   0  0  0  0  0  3  0  0  0  0  0  0
  188.4190  175.3090  136.0420 N   0  0  0  0  0  2  0  0  0  0  0  0
  189.1770  177.0560  137.3090 C   0  0  0  0  0  0  0  0  0  0  0  0
  184.3910  173.4620  137.0210 C   0  0  0  0  0  0  0  0  0  0  0  0
  185.9350  176.8710  136.9740 C   0  0  0  0  0  2  0  0  0  0  0  0
  188.9110  178.2190  137.8670 C   0  0  0  0  0  0  0  0  0  0  0  0
  185.5390  172.5390  136.9320 C   0  0  0  0  0  3  0  0  0  0  0  0
  183.3210  175.6480  137.0690 C   0  0  0  0  0  3  0  0  0  0  0  0
  189.1350  172.5710  136.1550 N   0  0  0  0  0  2  0  0  0  0  0  0
  183.1490  172.8750  137.2960 C   0  0  0  0  0  3  0  0  0  0  0  0
  181.9990  173.6530  137.4510 C   0  0  0  0  0  0  0  0  0  0  0  0
  187.8910  171.9060  136.5210 C   0  0  2  0  0  3  0  0  0  0  0  0
  188.1120  178.9740  141.2890 C   0  0  0  0  0  3  0  0  0  0  0  0
  188.8210  178.8230  140.2070 C   0  0  0  0  0  0  0  0  0  0  0  0
  189.5260  178.6700  139.1190 C   0  0  0  0  0  3  0  0  0  0  0  0
  186.1130  177.0130  144.9170 C   0  0  0  0  0  1  0  0  0  0  0  0
  186.8130  178.0730  144.1900 N   0  0  0  0  0  0  0  0  0  0  0  0
  185.8810  178.9000  143.4000 C   0  0  2  0  0  3  0  0  0  0  0  0
  187.6580  177.3850  143.2060 C   0  0  1  0  0  3  0  0  0  0  0  0
  187.2590  177.8530  141.7960 C   0  0  1  0  0  3  0  0  0  0  0  0
  184.5360  178.9740  143.9670 N   0  0  0  0  0  1  0  0  0  0  0  0
  185.8580  178.3680  141.9840 C   0  0  0  0  0  2  0  0  0  0  0  0
  189.3990  177.8160  145.0160 C   0  0  0  0  0  2  0  0  0  0  0  0
  189.1560  177.4930  143.5360 C   0  0  0  0  0  3  0  0  0  0  0  0
  191.6860  177.3750  144.2700 O   0  0  0  0  0  0  0  0  0  0  0  0
  189.8890  176.2000  143.1400 C   0  0  0  0  0  2  0  0  0  0  0  0
  190.8830  177.6600  145.3940 C   0  0  0  0  0  2  0  0  0  0  0  0
  191.2770  176.1150  143.7920 C   0  0  0  0  0  2  0  0  0  0  0  0
  187.6220  170.8020  135.5470 C   0  0  0  0  0  0  0  0  0  0  0  0
  188.4260  170.6140  134.5940 O   0  0  0  0  0  0  0  0  0  0  0  0
  185.5330  169.9010  134.6040 C   0  0  0  0  0  1  0  0  0  0  0  0
  186.4640  170.0290  135.6680 O   0  0  0  0  0  0  0  0  0  0  0  0
  191.4800  176.1890  137.4370 C   0  0  0  0  0  2  0  0  0  0  0  0
  192.2860  176.4390  138.6980 C   0  0  0  0  0  1  0  0  0  0  0  0
  180.7830  173.0170  137.7170 O   0  0  0  0  0  0  0  0  0  0  0  0
  180.4860  171.7040  137.2640 C   0  0  2  0  0  3  0  0  0  0  0  0
  179.5730  171.7700  136.1050 C   0  0  0  0  0  2  0  0  0  0  0  0
  179.1050  171.4670  137.3970 O   0  0  0  0  0  0  0  0  0  0  0  0
  1 42  1  6  0  0  0
  3 16  2  0  0  0  0
  4 15  1  0  0  0  0
  5  9  1  0  0  0  0
  5 14  1  1  0  0  0
  5  4  1  0  0  0  0
  6  2  2  0  0  0  0
  6  1  1  0  0  0  0
  7  8  1  0  0  0  0
  7 14  1  0  0  0  0
  8 13  2  0  0  0  0
  8 17  1  0  0  0  0
  9 12  1  0  0  0  0
 10 20  1  0  0  0  0
 11  9  1  0  0  0  0
 11  6  1  0  0  0  0
 12  1  1  0  0  0  0
 12 15  2  0  0  0  0
 13 19  1  0  0  0  0
 15 24  1  0  0  0  0
 16 13  1  0  0  0  0
 17 10  2  0  0  0  0
 18 21  1  0  0  0  0
 18  2  1  0  0  0  0
 19 20  2  0  0  0  0
 20 44  1  0  0  0  0
 21 38  1  6  0  0  0
 21  3  1  0  0  0  0
 23 22  2  0  0  0  0
 24 23  2  0  0  0  0
 26 25  1  0  0  0  0
 27 30  1  1  0  0  0
 27 26  1  0  0  0  0
 28 33  1  1  0  0  0
 28 26  1  0  0  0  0
 29 22  1  1  0  0  0
 29 31  1  0  0  0  0
 29 28  1  0  0  0  0
 31 27  1  0  0  0  0
 32 36  1  0  0  0  0
 33 32  1  0  0  0  0
 34 36  1  0  0  0  0
 35 33  1  0  0  0  0
 35 37  1  0  0  0  0
 37 34  1  0  0  0  0
 38 41  1  0  0  0  0
 39 38  2  0  0  0  0
 40 41  1  0  0  0  0
 42 43  1  0  0  0  0
 45 47  1  0  0  0  0
 45 44  1  1  0  0  0
 46 45  1  0  0  0  0
 46 47  1  0  0  0  0
M  END
>  <MODEL>
4

>  <REMARK>
 VINA RESULT:      -6.9      3.885      9.491
  Name = 
  8 active torsions:
  status: ('A' for Active; 'I' for Inactive)
    1  A    between atoms: C_1  and  C_28
    2  A    between atoms: C_16  and  O_44
    3  A    between atoms: C_18  and  C_19
    4  A    between atoms: C_20  and  C_26
    5  A    between atoms: C_22  and  O_32
    6  A    between atoms: C_22  and  C_45
    7  A    between atoms: C_31  and  C_43
    8  A    between atoms: C_42  and  O_44
                            x       y       z     vdW  Elec       q    Type
                         _______ _______ _______ _____ _____    ______ ____

>  <TORSDO>
F 8

$$$$
=
 OpenBabel11032420543D

 47 53  0  0  1  0  0  0  0  0999 V2000
  187.6030  175.6620  136.0900 C   0  0  2  0  0  3  0  0  0  0  0  0
  185.2690  176.2540  135.3460 C   0  0  0  0  0  3  0  0  0  0  0  0
  183.7950  177.7860  137.6030 C   0  0  0  0  0  3  0  0  0  0  0  0
  189.9090  177.6340  138.8060 S   0  0  0  0  0  0  0  0  0  0  0  0
  188.2930  178.4240  138.4190 C   0  0  1  0  0  3  0  0  0  0  0  0
  186.4150  176.5860  135.9330 C   0  0  0  0  0  0  0  0  0  0  0  0
  185.9860  178.3780  139.2740 O   0  0  0  0  0  0  0  0  0  0  0  0
  185.0210  178.5570  140.2750 C   0  0  0  0  0  0  0  0  0  0  0  0
  187.8620  177.7800  137.1920 N   0  0  0  0  0  0  0  0  0  0  0  0
  184.4840  179.1270  142.5820 C   0  0  0  0  0  3  0  0  0  0  0  0
  186.5990  177.8310  136.6120 N   0  0  0  0  0  2  0  0  0  0  0  0
  188.4590  176.5420  136.9450 C   0  0  0  0  0  0  0  0  0  0  0  0
  183.6420  178.3530  140.0150 C   0  0  0  0  0  0  0  0  0  0  0  0
  187.3520  178.1130  139.5840 C   0  0  0  0  0  2  0  0  0  0  0  0
  189.4800  176.2490  137.7230 C   0  0  0  0  0  0  0  0  0  0  0  0
  183.0920  177.8910  138.7260 C   0  0  0  0  0  3  0  0  0  0  0  0
  185.4220  178.9420  141.5660 C   0  0  0  0  0  3  0  0  0  0  0  0
  184.1830  177.1810  135.2840 N   0  0  0  0  0  2  0  0  0  0  0  0
  182.7140  178.5370  141.0480 C   0  0  0  0  0  3  0  0  0  0  0  0
  183.1220  178.9260  142.3270 C   0  0  0  0  0  0  0  0  0  0  0  0
  183.1780  177.2750  136.3340 C   0  0  2  0  0  3  0  0  0  0  0  0
  192.4320  174.3820  136.8760 C   0  0  0  0  0  3  0  0  0  0  0  0
  191.2470  174.6400  137.3490 C   0  0  0  0  0  0  0  0  0  0  0  0
  190.0590  174.9060  137.8200 C   0  0  0  0  0  3  0  0  0  0  0  0
  196.6750  175.7930  135.8710 C   0  0  0  0  0  1  0  0  0  0  0  0
  195.3820  175.1610  135.6090 N   0  0  0  0  0  0  0  0  0  0  0  0
  194.3500  176.1550  135.2580 C   0  0  2  0  0  3  0  0  0  0  0  0
  194.9550  174.5860  136.8900 C   0  0  1  0  0  3  0  0  0  0  0  0
  193.6070  175.2120  137.2900 C   0  0  1  0  0  3  0  0  0  0  0  0
  194.8830  177.3510  134.6100 N   0  0  0  0  0  1  0  0  0  0  0  0
  193.5780  176.5000  136.5120 C   0  0  0  0  0  2  0  0  0  0  0  0
  195.1260  172.4760  135.4730 C   0  0  0  0  0  2  0  0  0  0  0  0
  194.9920  173.0490  136.8900 C   0  0  0  0  0  3  0  0  0  0  0  0
  195.3960  170.4440  136.8080 O   0  0  0  0  0  0  0  0  0  0  0  0
  196.1320  172.5380  137.7870 C   0  0  0  0  0  2  0  0  0  0  0  0
  195.4300  170.9670  135.4980 C   0  0  0  0  0  2  0  0  0  0  0  0
  196.4470  171.0590  137.5150 C   0  0  0  0  0  2  0  0  0  0  0  0
  182.0670  178.1640  135.8710 C   0  0  0  0  0  0  0  0  0  0  0  0
  181.8230  178.2500  134.6370 O   0  0  0  0  0  0  0  0  0  0  0  0
  180.2520  179.7400  136.4060 C   0  0  0  0  0  1  0  0  0  0  0  0
  181.3500  178.9290  136.7950 O   0  0  0  0  0  0  0  0  0  0  0  0
  188.2920  175.4300  134.7520 C   0  0  0  0  0  2  0  0  0  0  0  0
  188.6550  173.9660  134.5940 C   0  0  0  0  0  1  0  0  0  0  0  0
  182.1550  179.1030  143.3210 O   0  0  0  0  0  0  0  0  0  0  0  0
  180.8270  178.6130  143.1980 C   0  0  2  0  0  3  0  0  0  0  0  0
  179.8720  179.7380  143.2750 C   0  0  0  0  0  2  0  0  0  0  0  0
  180.1150  178.9000  144.3790 O   0  0  0  0  0  0  0  0  0  0  0  0
  1 42  1  6  0  0  0
  1 12  1  0  0  0  0
  2  6  2  0  0  0  0
  3 16  2  0  0  0  0
  5  4  1  0  0  0  0
  5 14  1  1  0  0  0
  6  1  1  0  0  0  0
  6 11  1  0  0  0  0
  7 14  1  0  0  0  0
  7  8  1  0  0  0  0
  8 17  1  0  0  0  0
  9  5  1  0  0  0  0
 11  9  1  0  0  0  0
 12  9  1  0  0  0  0
 12 15  2  0  0  0  0
 13  8  2  0  0  0  0
 13 19  1  0  0  0  0
 15 24  1  0  0  0  0
 15  4  1  0  0  0  0
 16 13  1  0  0  0  0
 17 10  2  0  0  0  0
 18  2  1  0  0  0  0
 18 21  1  0  0  0  0
 19 20  2  0  0  0  0
 20 10  1  0  0  0  0
 20 44  1  0  0  0  0
 21 38  1  6  0  0  0
 21  3  1  0  0  0  0
 22 23  2  0  0  0  0
 23 24  2  0  0  0  0
 26 25  1  0  0  0  0
 26 28  1  0  0  0  0
 27 30  1  1  0  0  0
 27 26  1  0  0  0  0
 27 31  1  0  0  0  0
 28 33  1  6  0  0  0
 28 29  1  0  0  0  0
 29 22  1  6  0  0  0
 31 29  1  0  0  0  0
 32 36  1  0  0  0  0
 32 33  1  0  0  0  0
 33 35  1  0  0  0  0
 34 37  1  0  0  0  0
 36 34  1  0  0  0  0
 37 35  1  0  0  0  0
 38 41  1  0  0  0  0
 39 38  2  0  0  0  0
 40 41  1  0  0  0  0
 43 42  1  0  0  0  0
 45 46  1  0  0  0  0
 45 44  1  1  0  0  0
 45 47  1  0  0  0  0
 46 47  1  0  0  0  0
M  END
>  <MODEL>
5

>  <REMARK>
 VINA RESULT:      -6.8      2.737      3.706
  Name = 
  8 active torsions:
  status: ('A' for Active; 'I' for Inactive)
    1  A    between atoms: C_1  and  C_28
    2  A    between atoms: C_16  and  O_44
    3  A    between atoms: C_18  and  C_19
    4  A    between atoms: C_20  and  C_26
    5  A    between atoms: C_22  and  O_32
    6  A    between atoms: C_22  and  C_45
    7  A    between atoms: C_31  and  C_43
    8  A    between atoms: C_42  and  O_44
                            x       y       z     vdW  Elec       q    Type
                         _______ _______ _______ _____ _____    ______ ____

>  <TORSDO>
F 8

$$$$
=
 OpenBabel11032420543D

 47 53  0  0  1  0  0  0  0  0999 V2000
  192.1610  176.5760  137.7880 C   0  0  2  0  0  3  0  0  0  0  0  0
  190.8380  177.6390  139.6510 C   0  0  0  0  0  3  0  0  0  0  0  0
  187.8050  177.4600  139.0310 C   0  0  0  0  0  3  0  0  0  0  0  0
  190.9520  173.6080  135.2750 S   0  0  0  0  0  0  0  0  0  0  0  0
  189.7580  174.0560  136.6010 C   0  0  1  0  0  3  0  0  0  0  0  0
  191.0250  176.6470  138.7850 C   0  0  0  0  0  0  0  0  0  0  0  0
  187.8690  175.6030  136.9130 O   0  0  0  0  0  0  0  0  0  0  0  0
  186.6010  176.1060  136.5910 C   0  0  0  0  0  0  0  0  0  0  0  0
  190.5480  174.8130  137.5560 N   0  0  0  0  0  0  0  0  0  0  0  0
  184.6310  176.0480  135.1590 C   0  0  0  0  0  3  0  0  0  0  0  0
  190.0780  175.5900  138.6100 N   0  0  0  0  0  2  0  0  0  0  0  0
  191.7210  175.3610  137.0350 C   0  0  0  0  0  0  0  0  0  0  0  0
  186.0120  177.1560  137.3420 C   0  0  0  0  0  0  0  0  0  0  0  0
  188.6730  174.9180  135.9550 C   0  0  0  0  0  2  0  0  0  0  0  0
  192.0560  174.9260  135.8370 C   0  0  0  0  0  0  0  0  0  0  0  0
  186.6670  177.8500  138.4670 C   0  0  0  0  0  3  0  0  0  0  0  0
  185.8950  175.5670  135.5020 C   0  0  0  0  0  3  0  0  0  0  0  0
  189.7090  177.6420  140.5270 N   0  0  0  0  0  2  0  0  0  0  0  0
  184.7460  177.6320  136.9790 C   0  0  0  0  0  3  0  0  0  0  0  0
  184.0490  177.0860  135.8980 C   0  0  0  0  0  0  0  0  0  0  0  0
  188.4330  178.2360  140.1520 C   0  0  2  0  0  3  0  0  0  0  0  0
  195.6140  175.0780  135.3480 C   0  0  0  0  0  3  0  0  0  0  0  0
  194.3480  175.3250  135.1730 C   0  0  0  0  0  0  0  0  0  0  0  0
  193.0770  175.5700  135.0040 C   0  0  0  0  0  3  0  0  0  0  0  0
  195.8880  171.1000  137.6070 C   0  0  0  0  0  1  0  0  0  0  0  0
  195.3970  172.4530  137.3410 N   0  0  0  0  0  0  0  0  0  0  0  0
  194.3370  172.4560  136.3160 C   0  0  2  0  0  3  0  0  0  0  0  0
  196.5270  173.1720  136.7420 C   0  0  1  0  0  3  0  0  0  0  0  0
  196.1150  173.6670  135.3440 C   0  0  1  0  0  3  0  0  0  0  0  0
  193.5560  171.2220  136.2730 N   0  0  0  0  0  1  0  0  0  0  0  0
  194.9730  172.7580  134.9770 C   0  0  0  0  0  2  0  0  0  0  0  0
  196.4390  174.2300  139.0580 C   0  0  0  0  0  2  0  0  0  0  0  0
  197.1050  174.2490  137.6760 C   0  0  0  0  0  3  0  0  0  0  0  0
  198.2480  175.8290  139.4500 O   0  0  0  0  0  0  0  0  0  0  0  0
  198.6280  174.0830  137.8090 C   0  0  0  0  0  2  0  0  0  0  0  0
  197.1960  175.1170  140.0630 C   0  0  0  0  0  2  0  0  0  0  0  0
  199.1800  174.8700  139.0080 C   0  0  0  0  0  2  0  0  0  0  0  0
  187.5410  178.2790  141.3530 C   0  0  0  0  0  0  0  0  0  0  0  0
  187.6710  177.4000  142.2460 O   0  0  0  0  0  0  0  0  0  0  0  0
  185.2570  178.9590  141.9730 C   0  0  0  0  0  1  0  0  0  0  0  0
  186.5430  179.2530  141.4500 O   0  0  0  0  0  0  0  0  0  0  0  0
  193.4820  176.2890  138.4860 C   0  0  0  0  0  2  0  0  0  0  0  0
  193.4900  176.9040  139.8730 C   0  0  0  0  0  1  0  0  0  0  0  0
  182.7840  177.5920  135.5830 O   0  0  0  0  0  0  0  0  0  0  0  0
  181.6150  177.2520  136.3160 C   0  0  2  0  0  3  0  0  0  0  0  0
  180.5690  178.2680  136.0830 C   0  0  0  0  0  2  0  0  0  0  0  0
  181.3460  178.2650  137.2560 O   0  0  0  0  0  0  0  0  0  0  0  0
  1 42  1  1  0  0  0
  1  6  1  0  0  0  0
  2 18  1  0  0  0  0
  3 21  1  0  0  0  0
  4 15  1  0  0  0  0
  4  5  1  0  0  0  0
  5 14  1  6  0  0  0
  5  9  1  0  0  0  0
  6  2  2  0  0  0  0
  8  7  1  0  0  0  0
  8 13  1  0  0  0  0
  9 11  1  0  0  0  0
 10 17  1  0  0  0  0
 10 20  2  0  0  0  0
 11  6  1  0  0  0  0
 12  9  1  0  0  0  0
 12  1  1  0  0  0  0
 13 16  1  0  0  0  0
 14  7  1  0  0  0  0
 15 12  2  0  0  0  0
 16  3  2  0  0  0  0
 17  8  2  0  0  0  0
 19 13  2  0  0  0  0
 20 19  1  0  0  0  0
 21 18  1  0  0  0  0
 21 38  1  1  0  0  0
 23 22  2  0  0  0  0
 24 23  2  0  0  0  0
 24 15  1  0  0  0  0
 26 25  1  0  0  0  0
 27 30  1  6  0  0  0
 27 26  1  0  0  0  0
 28 26  1  0  0  0  0
 28 33  1  1  0  0  0
 29 22  1  1  0  0  0
 29 28  1  0  0  0  0
 31 29  1  0  0  0  0
 31 27  1  0  0  0  0
 32 36  1  0  0  0  0
 33 35  1  0  0  0  0
 33 32  1  0  0  0  0
 34 36  1  0  0  0  0
 35 37  1  0  0  0  0
 37 34  1  0  0  0  0
 38 41  1  0  0  0  0
 38 39  2  0  0  0  0
 41 40  1  0  0  0  0
 42 43  1  0  0  0  0
 44 20  1  0  0  0  0
 45 44  1  6  0  0  0
 45 47  1  0  0  0  0
 46 45  1  0  0  0  0
 46 47  1  0  0  0  0
M  END
>  <MODEL>
6

>  <REMARK>
 VINA RESULT:      -6.6      3.244      6.752
  Name = 
  8 active torsions:
  status: ('A' for Active; 'I' for Inactive)
    1  A    between atoms: C_1  and  C_28
    2  A    between atoms: C_16  and  O_44
    3  A    between atoms: C_18  and  C_19
    4  A    between atoms: C_20  and  C_26
    5  A    between atoms: C_22  and  O_32
    6  A    between atoms: C_22  and  C_45
    7  A    between atoms: C_31  and  C_43
    8  A    between atoms: C_42  and  O_44
                            x       y       z     vdW  Elec       q    Type
                         _______ _______ _______ _____ _____    ______ ____

>  <TORSDO>
F 8

$$$$
=
 OpenBabel11032420543D

 47 53  0  0  1  0  0  0  0  0999 V2000
  186.1540  177.8250  138.7010 C   0  0  2  0  0  3  0  0  0  0  0  0
  187.9830  177.8800  140.4340 C   0  0  0  0  0  3  0  0  0  0  0  0
  190.5770  176.6380  139.2720 C   0  0  0  0  0  3  0  0  0  0  0  0
  186.5780  177.8640  134.6510 S   0  0  0  0  0  0  0  0  0  0  0  0
  188.1380  178.0350  135.6110 C   0  0  1  0  0  3  0  0  0  0  0  0
  187.5680  178.0630  139.1830 C   0  0  0  0  0  0  0  0  0  0  0  0
  189.8810  176.5680  136.5430 O   0  0  0  0  0  0  0  0  0  0  0  0
  190.8960  175.6090  136.4310 C   0  0  0  0  0  0  0  0  0  0  0  0
  187.7000  178.3820  136.9510 N   0  0  0  0  0  0  0  0  0  0  0  0
  192.1960  174.0940  135.0340 C   0  0  0  0  0  3  0  0  0  0  0  0
  188.4630  178.3790  138.1140 N   0  0  0  0  0  2  0  0  0  0  0  0
  186.3780  178.0380  137.2380 C   0  0  0  0  0  0  0  0  0  0  0  0
  191.6370  175.1820  137.5630 C   0  0  0  0  0  0  0  0  0  0  0  0
  188.8360  176.6750  135.5780 C   0  0  0  0  0  2  0  0  0  0  0  0
  185.6590  177.6680  136.1970 C   0  0  0  0  0  0  0  0  0  0  0  0
  191.3910  175.6410  138.9440 C   0  0  0  0  0  3  0  0  0  0  0  0
  191.1900  175.0510  135.1740 C   0  0  0  0  0  3  0  0  0  0  0  0
  189.3520  178.0870  140.7870 N   0  0  0  0  0  2  0  0  0  0  0  0
  192.6380  174.2160  137.4050 C   0  0  0  0  0  3  0  0  0  0  0  0
  192.9270  173.6720  136.1510 C   0  0  0  0  0  0  0  0  0  0  0  0
  190.3490  177.0280  140.7040 C   0  0  2  0  0  3  0  0  0  0  0  0
  184.0840  174.4570  135.8380 C   0  0  0  0  0  3  0  0  0  0  0  0
  184.2170  175.7300  136.0770 C   0  0  0  0  0  0  0  0  0  0  0  0
  184.3560  177.0060  136.3140 C   0  0  0  0  0  3  0  0  0  0  0  0
  186.5970  170.6400  135.4930 C   0  0  0  0  0  1  0  0  0  0  0  0
  185.8330  171.7840  134.9950 N   0  0  0  0  0  0  0  0  0  0  0  0
  186.6500  173.0120  134.9600 C   0  0  2  0  0  3  0  0  0  0  0  0
  184.7930  172.0320  135.9990 C   0  0  1  0  0  3  0  0  0  0  0  0
  184.9560  173.4620  136.5410 C   0  0  1  0  0  3  0  0  0  0  0  0
  188.0760  172.7630  134.7630 N   0  0  0  0  0  1  0  0  0  0  0  0
  186.3930  173.7880  136.2330 C   0  0  0  0  0  2  0  0  0  0  0  0
  183.3290  170.2730  134.8780 C   0  0  0  0  0  2  0  0  0  0  0  0
  183.3850  171.6780  135.4910 C   0  0  0  0  0  3  0  0  0  0  0  0
  180.9530  170.8530  134.8920 O   0  0  0  0  0  0  0  0  0  0  0  0
  182.3540  171.8120  136.6250 C   0  0  0  0  0  2  0  0  0  0  0  0
  181.8800  169.8250  134.6190 C   0  0  0  0  0  2  0  0  0  0  0  0
  181.0340  171.1100  136.2750 C   0  0  0  0  0  2  0  0  0  0  0  0
  191.6140  177.4940  141.3510 C   0  0  0  0  0  0  0  0  0  0  0  0
  192.5570  177.9130  140.6260 O   0  0  0  0  0  0  0  0  0  0  0  0
  191.6750  178.5600  143.5710 C   0  0  0  0  0  1  0  0  0  0  0  0
  191.7620  177.4130  142.7390 O   0  0  0  0  0  0  0  0  0  0  0  0
  185.2100  178.8970  139.2300 C   0  0  0  0  0  2  0  0  0  0  0  0
  183.9920  178.2580  139.8680 C   0  0  0  0  0  1  0  0  0  0  0  0
  193.9420  172.7160  136.0460 O   0  0  0  0  0  0  0  0  0  0  0  0
  195.3190  173.0590  135.9830 C   0  0  2  0  0  3  0  0  0  0  0  0
  196.1420  171.8820  136.3260 C   0  0  0  0  0  2  0  0  0  0  0  0
  195.8940  172.9060  137.2580 O   0  0  0  0  0  0  0  0  0  0  0  0
  1  6  1  0  0  0  0
  1 42  1  1  0  0  0
  2 18  1  0  0  0  0
  3 21  1  0  0  0  0
  4  5  1  0  0  0  0
  4 15  1  0  0  0  0
  5 14  1  1  0  0  0
  5  9  1  0  0  0  0
  6  2  2  0  0  0  0
  8  7  1  0  0  0  0
  8 13  1  0  0  0  0
  9 12  1  0  0  0  0
  9 11  1  0  0  0  0
 10 17  1  0  0  0  0
 10 20  2  0  0  0  0
 11  6  1  0  0  0  0
 12  1  1  0  0  0  0
 13 16  1  0  0  0  0
 14  7  1  0  0  0  0
 15 24  1  0  0  0  0
 15 12  2  0  0  0  0
 16  3  2  0  0  0  0
 17  8  2  0  0  0  0
 19 13  2  0  0  0  0
 20 19  1  0  0  0  0
 21 18  1  0  0  0  0
 21 38  1  6  0  0  0
 22 23  2  0  0  0  0
 23 24  2  0  0  0  0
 26 25  1  0  0  0  0
 26 28  1  0  0  0  0
 27 30  1  1  0  0  0
 27 26  1  0  0  0  0
 27 31  1  0  0  0  0
 28 33  1  6  0  0  0
 28 29  1  0  0  0  0
 29 22  1  6  0  0  0
 31 29  1  0  0  0  0
 32 33  1  0  0  0  0
 33 35  1  0  0  0  0
 34 37  1  0  0  0  0
 36 32  1  0  0  0  0
 36 34  1  0  0  0  0
 37 35  1  0  0  0  0
 38 41  1  0  0  0  0
 39 38  2  0  0  0  0
 41 40  1  0  0  0  0
 42 43  1  0  0  0  0
 44 20  1  0  0  0  0
 45 44  1  1  0  0  0
 45 46  1  0  0  0  0
 45 47  1  0  0  0  0
 46 47  1  0  0  0  0
M  END
>  <MODEL>
7

>  <REMARK>
 VINA RESULT:      -6.3      3.841      9.049
  Name = 
  8 active torsions:
  status: ('A' for Active; 'I' for Inactive)
    1  A    between atoms: C_1  and  C_28
    2  A    between atoms: C_16  and  O_44
    3  A    between atoms: C_18  and  C_19
    4  A    between atoms: C_20  and  C_26
    5  A    between atoms: C_22  and  O_32
    6  A    between atoms: C_22  and  C_45
    7  A    between atoms: C_31  and  C_43
    8  A    between atoms: C_42  and  O_44
                            x       y       z     vdW  Elec       q    Type
                         _______ _______ _______ _____ _____    ______ ____

>  <TORSDO>
F 8

$$$$
=
 OpenBabel11032420543D

 47 53  0  0  1  0  0  0  0  0999 V2000
  184.2590  177.8790  142.5330 C   0  0  2  0  0  3  0  0  0  0  0  0
  186.5850  177.7580  143.4980 C   0  0  0  0  0  3  0  0  0  0  0  0
  188.6750  177.6710  141.2090 C   0  0  0  0  0  3  0  0  0  0  0  0
  183.1470  179.4450  138.9420 S   0  0  0  0  0  0  0  0  0  0  0  0
  184.9260  179.6380  139.3720 C   0  0  1  0  0  3  0  0  0  0  0  0
  185.7190  178.2650  142.6240 C   0  0  0  0  0  0  0  0  0  0  0  0
  187.0290  178.4040  139.0430 O   0  0  0  0  0  0  0  0  0  0  0  0
  188.0230  177.8210  138.2450 C   0  0  0  0  0  0  0  0  0  0  0  0
  184.9820  179.3730  140.7990 N   0  0  0  0  0  0  0  0  0  0  0  0
  188.8600  177.2580  136.0270 C   0  0  0  0  0  3  0  0  0  0  0  0
  186.1170  179.1440  141.5690 N   0  0  0  0  0  2  0  0  0  0  0  0
  183.9030  178.6410  141.2970 C   0  0  0  0  0  0  0  0  0  0  0  0
  189.1690  177.2140  138.8200 C   0  0  0  0  0  0  0  0  0  0  0  0
  185.6970  178.5880  138.5700 C   0  0  0  0  0  2  0  0  0  0  0  0
  182.8910  178.5010  140.4640 C   0  0  0  0  0  0  0  0  0  0  0  0
  189.4070  177.0820  140.2700 C   0  0  0  0  0  3  0  0  0  0  0  0
  187.8860  177.8310  136.8460 C   0  0  0  0  0  3  0  0  0  0  0  0
  187.9580  178.1510  143.4790 N   0  0  0  0  0  2  0  0  0  0  0  0
  190.1340  176.6380  137.9840 C   0  0  0  0  0  3  0  0  0  0  0  0
  189.9920  176.6580  136.5940 C   0  0  0  0  0  0  0  0  0  0  0  0
  188.9550  177.4630  142.6690 C   0  0  2  0  0  3  0  0  0  0  0  0
  180.3840  176.6350  138.6880 C   0  0  0  0  0  3  0  0  0  0  0  0
  181.0900  177.0880  139.6850 C   0  0  0  0  0  0  0  0  0  0  0  0
  181.7990  177.5460  140.6800 C   0  0  0  0  0  3  0  0  0  0  0  0
  183.5100  177.0970  135.3670 C   0  0  0  0  0  1  0  0  0  0  0  0
  182.8140  177.4540  136.6040 N   0  0  0  0  0  0  0  0  0  0  0  0
  183.3120  176.6760  137.7540 C   0  0  2  0  0  3  0  0  0  0  0  0
  181.4230  177.0280  136.4130 C   0  0  1  0  0  3  0  0  0  0  0  0
  181.0610  176.0090  137.5080 C   0  0  1  0  0  3  0  0  0  0  0  0
  184.7090  176.2670  137.6260 N   0  0  0  0  0  1  0  0  0  0  0  0
  182.4000  175.4840  137.9500 C   0  0  0  0  0  2  0  0  0  0  0  0
  181.1810  179.5640  136.3570 C   0  0  0  0  0  2  0  0  0  0  0  0
  180.4550  178.2150  136.2730 C   0  0  0  0  0  3  0  0  0  0  0  0
  178.9370  180.2980  135.7160 O   0  0  0  0  0  0  0  0  0  0  0  0
  179.6630  178.1100  134.9590 C   0  0  0  0  0  2  0  0  0  0  0  0
  180.2600  180.7290  135.9520 C   0  0  0  0  0  2  0  0  0  0  0  0
  178.9860  179.4420  134.5990 C   0  0  0  0  0  2  0  0  0  0  0  0
  190.3160  177.9620  143.0410 C   0  0  0  0  0  0  0  0  0  0  0  0
  190.4490  179.1540  143.4290 O   0  0  0  0  0  0  0  0  0  0  0  0
  191.6540  176.0290  143.7760 C   0  0  0  0  0  1  0  0  0  0  0  0
  191.4290  177.1270  142.9050 O   0  0  0  0  0  0  0  0  0  0  0  0
  183.4750  178.4330  143.7150 C   0  0  0  0  0  2  0  0  0  0  0  0
  183.9600  179.8270  144.0620 C   0  0  0  0  0  1  0  0  0  0  0  0
  190.9870  176.0760  135.8030 O   0  0  0  0  0  0  0  0  0  0  0  0
  192.3340  175.9460  136.2350 C   0  0  2  0  0  3  0  0  0  0  0  0
  193.2190  175.7820  135.0640 C   0  0  0  0  0  2  0  0  0  0  0  0
  192.8260  174.6840  135.8500 O   0  0  0  0  0  0  0  0  0  0  0  0
  1  6  1  0  0  0  0
  1 42  1  1  0  0  0
  3 21  1  0  0  0  0
  4  5  1  0  0  0  0
  4 15  1  0  0  0  0
  5 14  1  6  0  0  0
  5  9  1  0  0  0  0
  6  2  2  0  0  0  0
  8 13  1  0  0  0  0
  8  7  1  0  0  0  0
  9 12  1  0  0  0  0
  9 11  1  0  0  0  0
 10 20  2  0  0  0  0
 10 17  1  0  0  0  0
 11  6  1  0  0  0  0
 12  1  1  0  0  0  0
 13 16  1  0  0  0  0
 14  7  1  0  0  0  0
 15 24  1  0  0  0  0
 15 12  2  0  0  0  0
 16  3  2  0  0  0  0
 17  8  2  0  0  0  0
 18  2  1  0  0  0  0
 19 13  2  0  0  0  0
 20 19  1  0  0  0  0
 21 38  1  1  0  0  0
 21 18  1  0  0  0  0
 22 23  2  0  0  0  0
 23 24  2  0  0  0  0
 25 26  1  0  0  0  0
 26 27  1  0  0  0  0
 27 30  1  6  0  0  0
 27 31  1  0  0  0  0
 28 33  1  1  0  0  0
 28 26  1  0  0  0  0
 28 29  1  0  0  0  0
 29 31  1  0  0  0  0
 29 22  1  1  0  0  0
 33 32  1  0  0  0  0
 34 36  1  0  0  0  0
 35 33  1  0  0  0  0
 36 32  1  0  0  0  0
 37 35  1  0  0  0  0
 37 34  1  0  0  0  0
 38 39  2  0  0  0  0
 41 38  1  0  0  0  0
 41 40  1  0  0  0  0
 42 43  1  0  0  0  0
 44 20  1  0  0  0  0
 45 44  1  6  0  0  0
 46 47  1  0  0  0  0
 46 45  1  0  0  0  0
 47 45  1  0  0  0  0
M  END
>  <MODEL>
8

>  <REMARK>
 VINA RESULT:      -5.8      3.842     10.338
  Name = 
  8 active torsions:
  status: ('A' for Active; 'I' for Inactive)
    1  A    between atoms: C_1  and  C_28
    2  A    between atoms: C_16  and  O_44
    3  A    between atoms: C_18  and  C_19
    4  A    between atoms: C_20  and  C_26
    5  A    between atoms: C_22  and  O_32
    6  A    between atoms: C_22  and  C_45
    7  A    between atoms: C_31  and  C_43
    8  A    between atoms: C_42  and  O_44
                            x       y       z     vdW  Elec       q    Type
                         _______ _______ _______ _____ _____    ______ ____

>  <TORSDO>
F 8

$$$$
=
 OpenBabel11032420543D

 47 53  0  0  1  0  0  0  0  0999 V2000
  184.7220  177.5160  141.8010 C   0  0  2  0  0  3  0  0  0  0  0  0
  186.7920  177.7990  143.2110 C   0  0  0  0  0  3  0  0  0  0  0  0
  189.3210  177.5950  141.4280 C   0  0  0  0  0  3  0  0  0  0  0  0
  184.2810  178.3870  137.8470 S   0  0  0  0  0  0  0  0  0  0  0  0
  185.9080  178.8370  138.5790 C   0  0  1  0  0  3  0  0  0  0  0  0
  186.0960  178.0690  142.1100 C   0  0  0  0  0  0  0  0  0  0  0  0
  188.1210  177.8050  138.8870 O   0  0  0  0  0  0  0  0  0  0  0  0
  189.3030  177.2210  138.4120 C   0  0  0  0  0  0  0  0  0  0  0  0
  185.6810  178.7990  140.0130 N   0  0  0  0  0  0  0  0  0  0  0  0
  190.6320  176.4230  136.5320 C   0  0  0  0  0  3  0  0  0  0  0  0
  186.6410  178.8160  141.0190 N   0  0  0  0  0  2  0  0  0  0  0  0
  184.5790  178.0380  140.4070 C   0  0  0  0  0  0  0  0  0  0  0  0
  190.3440  176.8380  139.2970 C   0  0  0  0  0  0  0  0  0  0  0  0
  186.9090  177.7690  138.1370 C   0  0  0  0  0  2  0  0  0  0  0  0
  183.7810  177.6630  139.4280 C   0  0  0  0  0  0  0  0  0  0  0  0
  190.2780  176.9540  140.7660 C   0  0  0  0  0  3  0  0  0  0  0  0
  189.4660  177.0030  137.0330 C   0  0  0  0  0  3  0  0  0  0  0  0
  188.1040  178.3330  143.3950 N   0  0  0  0  0  2  0  0  0  0  0  0
  191.5050  176.2510  138.7780 C   0  0  0  0  0  3  0  0  0  0  0  0
  191.6600  176.0440  137.4050 C   0  0  0  0  0  0  0  0  0  0  0  0
  189.3000  177.6440  142.9280 C   0  0  2  0  0  3  0  0  0  0  0  0
  180.3550  177.2470  140.4330 C   0  0  0  0  0  3  0  0  0  0  0  0
  181.5470  176.9400  140.0080 C   0  0  0  0  0  0  0  0  0  0  0  0
  182.7440  176.6380  139.5840 C   0  0  0  0  0  3  0  0  0  0  0  0
  179.5230  181.7410  140.0830 C   0  0  0  0  0  1  0  0  0  0  0  0
  180.2540  180.5490  140.5140 N   0  0  0  0  0  0  0  0  0  0  0  0
  181.1540  180.0490  139.4570 C   0  0  2  0  0  3  0  0  0  0  0  0
  179.2380  179.5050  140.6910 C   0  0  1  0  0  3  0  0  0  0  0  0
  179.5680  178.3270  139.7570 C   0  0  1  0  0  3  0  0  0  0  0  0
  181.6410  181.0930  138.5580 N   0  0  0  0  0  1  0  0  0  0  0  0
  180.4340  178.9560  138.6990 C   0  0  0  0  0  2  0  0  0  0  0  0
  180.1280  178.2030  142.6930 C   0  0  0  0  0  2  0  0  0  0  0  0
  179.0250  179.1320  142.1680 C   0  0  0  0  0  3  0  0  0  0  0  0
  178.9340  178.7030  144.7690 O   0  0  0  0  0  0  0  0  0  0  0  0
  178.9330  180.4000  143.0340 C   0  0  0  0  0  2  0  0  0  0  0  0
  180.0600  178.0520  144.2230 C   0  0  0  0  0  2  0  0  0  0  0  0
  179.1090  180.0800  144.5260 C   0  0  0  0  0  2  0  0  0  0  0  0
  190.5090  178.3390  143.4690 C   0  0  0  0  0  0  0  0  0  0  0  0
  190.5530  179.5990  143.4510 O   0  0  0  0  0  0  0  0  0  0  0  0
  191.4400  176.5760  144.9140 C   0  0  0  0  0  1  0  0  0  0  0  0
  191.5950  177.5940  143.9370 O   0  0  0  0  0  0  0  0  0  0  0  0
  183.6650  178.1540  142.6920 C   0  0  0  0  0  2  0  0  0  0  0  0
  183.5210  179.6280  142.3670 C   0  0  0  0  0  1  0  0  0  0  0  0
  192.8420  175.4610  136.9370 O   0  0  0  0  0  0  0  0  0  0  0  0
  194.1070  176.0960  137.0450 C   0  0  2  0  0  3  0  0  0  0  0  0
  195.1770  175.1410  136.6900 C   0  0  0  0  0  2  0  0  0  0  0  0
  194.8720  175.4430  138.0300 O   0  0  0  0  0  0  0  0  0  0  0  0
  1  6  1  0  0  0  0
  1 42  1  1  0  0  0
  2 18  1  0  0  0  0
  3 21  1  0  0  0  0
  4  5  1  0  0  0  0
  4 15  1  0  0  0  0
  5 14  1  1  0  0  0
  5  9  1  0  0  0  0
  6  2  2  0  0  0  0
  8  7  1  0  0  0  0
  8 13  1  0  0  0  0
  9 12  1  0  0  0  0
  9 11  1  0  0  0  0
 10 17  1  0  0  0  0
 10 20  2  0  0  0  0
 11  6  1  0  0  0  0
 12  1  1  0  0  0  0
 13 16  1  0  0  0  0
 14  7  1  0  0  0  0
 15 24  1  0  0  0  0
 15 12  2  0  0  0  0
 16  3  2  0  0  0  0
 17  8  2  0  0  0  0
 19 13  2  0  0  0  0
 20 19  1  0  0  0  0
 21 18  1  0  0  0  0
 21 38  1  6  0  0  0
 23 22  2  0  0  0  0
 24 23  2  0  0  0  0
 25 26  1  0  0  0  0
 26 28  1  0  0  0  0
 27 30  1  6  0  0  0
 27 26  1  0  0  0  0
 28 33  1  1  0  0  0
 29 22  1  1  0  0  0
 29 28  1  0  0  0  0
 31 27  1  0  0  0  0
 31 29  1  0  0  0  0
 32 36  1  0  0  0  0
 33 32  1  0  0  0  0
 33 35  1  0  0  0  0
 35 37  1  0  0  0  0
 36 34  1  0  0  0  0
 37 34  1  0  0  0  0
 38 41  1  0  0  0  0
 39 38  2  0  0  0  0
 41 40  1  0  0  0  0
 43 42  1  0  0  0  0
 44 20  1  0  0  0  0
 45 44  1  1  0  0  0
 45 47  1  0  0  0  0
 46 45  1  0  0  0  0
 46 47  1  0  0  0  0
M  END
>  <MODEL>
9

>  <REMARK>
 VINA RESULT:      -5.6      3.680     11.304
  Name = 
  8 active torsions:
  status: ('A' for Active; 'I' for Inactive)
    1  A    between atoms: C_1  and  C_28
    2  A    between atoms: C_16  and  O_44
    3  A    between atoms: C_18  and  C_19
    4  A    between atoms: C_20  and  C_26
    5  A    between atoms: C_22  and  O_32
    6  A    between atoms: C_22  and  C_45
    7  A    between atoms: C_31  and  C_43
    8  A    between atoms: C_42  and  O_44
                            x       y       z     vdW  Elec       q    Type
                         _______ _______ _______ _____ _____    ______ ____

>  <TORSDO>
F 8

$$$$
