=
 OpenBabel11042411073D

 39 43  0  0  1  0  0  0  0  0999 V2000
  191.6020  176.9220  141.1440 N   0  0  0  0  0  2  0  0  0  0  0  0
  189.7510  176.8220  142.7550 C   0  0  0  0  0  2  0  0  0  0  0  0
  188.4420  179.0070  142.3590 C   0  0  2  0  0  3  0  0  0  0  0  0
  191.2430  176.7720  138.6690 C   0  0  2  0  0  3  0  0  0  0  0  0
  192.1550  176.9840  139.8270 C   0  0  0  0  0  0  0  0  0  0  0  0
  189.9370  177.5480  138.8600 C   0  0  2  0  0  3  0  0  0  0  0  0
  187.9910  177.3730  140.4160 O   0  0  0  0  0  0  0  0  0  0  0  0
  190.1870  176.6160  141.2980 C   0  0  1  0  0  3  0  0  0  0  0  0
  189.0070  179.9960  141.5800 F   0  0  0  0  0  0  0  0  0  0  0  0
  189.3970  177.5110  140.3210 C   0  0  1  0  0  3  0  0  0  0  0  0
  189.5340  178.2760  143.1580 C   0  0  0  0  0  2  0  0  0  0  0  0
  187.4560  178.1010  141.5400 C   0  0  2  0  0  3  0  0  0  0  0  0
  193.3550  177.2970  139.6660 O   0  0  0  0  0  0  0  0  0  0  0  0
  185.1120  179.0480  143.6300 C   0  0  2  0  0  3  0  0  0  0  0  0
  185.0510  177.9440  140.6630 C   0  0  0  0  0  2  0  0  0  0  0  0
  184.1330  179.2460  142.6610 C   0  0  1  0  0  3  0  0  0  0  0  0
  185.4530  179.3380  142.2630 C   0  0  2  0  0  3  0  0  0  0  0  0
  183.8770  178.0550  141.7240 C   0  0  0  0  0  2  0  0  0  0  0  0
  186.1860  178.8800  141.1240 C   0  0  1  0  0  3  0  0  0  0  0  0
  185.5290  178.5030  144.9250 C   0  0  0  0  0  0  0  0  0  0  0  0
  186.4370  177.5810  145.0770 N   0  0  0  0  0  0  0  0  0  0  0  0
  185.5540  178.2680  147.0820 C   0  0  0  0  0  3  0  0  0  0  0  0
  184.9570  178.9230  146.1490 N   0  0  0  0  0  0  0  0  0  0  0  0
  186.5900  177.3570  146.5130 C   0  0  2  0  0  3  0  0  0  0  0  0
  188.0470  178.6380  147.8770 O   0  0  0  0  0  0  0  0  0  0  0  0
  187.9550  177.8090  146.9710 C   0  0  0  0  0  0  0  0  0  0  0  0
  189.1880  177.3190  146.2750 C   0  0  0  0  0  2  0  0  0  0  0  0
  190.1620  176.7800  147.3000 C   0  0  0  0  0  2  0  0  0  0  0  0
  191.5100  176.8800  146.7820 N   0  0  0  0  0  2  0  0  0  0  0  0
  192.2570  175.7760  147.3600 C   0  0  0  0  0  1  0  0  0  0  0  0
  188.9820  177.1570  137.8930 O   0  0  0  0  0  0  0  0  0  0  0  0
  189.1570  177.9780  136.7690 C   0  0  0  0  0  2  0  0  0  0  0  0
  188.9440  179.4250  137.1830 C   0  0  0  0  0  1  0  0  0  0  0  0
  190.9910  175.3440  138.5180 N   0  0  0  0  0  2  0  0  0  0  0  0
  190.7470  173.7180  136.7040 C   0  0  0  0  0  1  0  0  0  0  0  0
  191.6400  174.8020  137.3070 C   0  0  1  0  0  0  0  0  0  0  0  0
  191.8600  175.8050  136.3320 O   0  0  0  0  0  1  0  0  0  0  0  0
  192.9310  174.2390  137.6840 N   0  0  0  0  0  0  0  0  0  0  0  0
  194.0380  174.7160  137.2360 C   0  0  0  0  0  2  0  0  0  0  0  0
  1  8  1  0  0  0  0
  2 11  1  0  0  0  0
  3  9  1  6  0  0  0
  3 11  1  0  0  0  0
  4 34  1  1  0  0  0
  4  6  1  0  0  0  0
  4  5  1  0  0  0  0
  5  1  1  0  0  0  0
  6 31  1  6  0  0  0
  6 10  1  0  0  0  0
  8  2  1  1  0  0  0
 10  7  1  6  0  0  0
 10  8  1  0  0  0  0
 12  7  1  6  0  0  0
 12  3  1  0  0  0  0
 13  5  2  0  0  0  0
 14 20  1  6  0  0  0
 15 19  1  0  0  0  0
 15 18  1  0  0  0  0
 16 18  1  6  0  0  0
 16 14  1  0  0  0  0
 17 16  1  0  0  0  0
 17 14  1  0  0  0  0
 19 12  1  0  0  0  0
 19 17  1  0  0  0  0
 20 21  2  0  0  0  0
 20 23  1  0  0  0  0
 21 24  1  0  0  0  0
 23 22  2  0  0  0  0
 24 26  1  0  0  0  0
 24 22  1  0  0  0  0
 26 25  2  0  0  0  0
 27 26  1  0  0  0  0
 27 28  1  0  0  0  0
 29 28  1  0  0  0  0
 29 30  1  0  0  0  0
 32 33  1  0  0  0  0
 32 31  1  0  0  0  0
 35 36  1  0  0  0  0
 36 38  1  0  0  0  0
 36 34  1  0  0  0  0
 37 36  1  0  0  0  0
 39 38  2  0  0  0  0
M  END
>  <MODEL>
1

>  <REMARK>
 VINA RESULT:      -7.2      0.000      0.000
  Name = 
  11 active torsions:
  status: ('A' for Active; 'I' for Inactive)
    1  A    between atoms: N_1  and  C_21
    2  A    between atoms: C_2  and  C_3
    3  A    between atoms: C_12  and  N_31
    4  A    between atoms: C_16  and  O_28
    5  A    between atoms: N_18  and  C_33
    6  A    between atoms: C_21  and  N_31
    7  A    between atoms: C_27  and  C_36
    8  A    between atoms: O_28  and  C_32
    9  A    between atoms: C_30  and  C_35
   10  A    between atoms: C_33  and  C_34
   11  A    between atoms: C_34  and  C_36
                            x       y       z     vdW  Elec       q    Type
                         _______ _______ _______ _____ _____    ______ ____

>  <TORSDO>
F 11

$$$$
=
 OpenBabel11042411073D

 39 43  0  0  1  0  0  0  0  0999 V2000
  183.3380  177.9400  136.9060 N   0  0  0  0  0  2  0  0  0  0  0  0
  183.5500  179.5530  138.7460 C   0  0  0  0  0  2  0  0  0  0  0  0
  181.1180  180.1030  139.3970 C   0  0  2  0  0  3  0  0  0  0  0  0
  182.4420  175.6250  137.2410 C   0  0  2  0  0  3  0  0  0  0  0  0
  182.9290  176.6970  136.3300 C   0  0  0  0  0  0  0  0  0  0  0  0
  181.4830  176.1990  138.2880 C   0  0  2  0  0  3  0  0  0  0  0  0
  181.7170  177.7410  140.2390 O   0  0  0  0  0  0  0  0  0  0  0  0
  183.2970  178.0910  138.3530 C   0  0  1  0  0  3  0  0  0  0  0  0
  180.0930  179.6990  138.5660 F   0  0  0  0  0  0  0  0  0  0  0  0
  181.9260  177.5840  138.8470 C   0  0  1  0  0  3  0  0  0  0  0  0
  182.3550  180.4810  138.5640 C   0  0  0  0  0  2  0  0  0  0  0  0
  181.3550  179.0960  140.5770 C   0  0  2  0  0  3  0  0  0  0  0  0
  182.9050  176.5610  135.0880 O   0  0  0  0  0  0  0  0  0  0  0  0
  181.7030  179.0690  143.8380 C   0  0  2  0  0  3  0  0  0  0  0  0
  179.6440  177.6890  141.8690 C   0  0  0  0  0  2  0  0  0  0  0  0
  180.4080  178.6420  144.1130 C   0  0  1  0  0  3  0  0  0  0  0  0
  180.6220  179.3030  142.9180 C   0  0  2  0  0  3  0  0  0  0  0  0
  179.9630  177.3620  143.3880 C   0  0  0  0  0  2  0  0  0  0  0  0
  180.1740  179.1060  141.5750 C   0  0  1  0  0  3  0  0  0  0  0  0
  183.1490  178.9690  144.0550 C   0  0  0  0  0  0  0  0  0  0  0  0
  183.7920  179.5680  145.0170 N   0  0  0  0  0  0  0  0  0  0  0  0
  185.1880  178.3250  143.6830 C   0  0  0  0  0  3  0  0  0  0  0  0
  183.9970  178.2160  143.2080 N   0  0  0  0  0  0  0  0  0  0  0  0
  185.1950  179.1740  144.9090 C   0  0  2  0  0  3  0  0  0  0  0  0
  185.1040  178.5650  147.2000 O   0  0  0  0  0  0  0  0  0  0  0  0
  185.5940  178.3300  146.0960 C   0  0  0  0  0  0  0  0  0  0  0  0
  186.6420  177.2690  145.9510 C   0  0  0  0  0  2  0  0  0  0  0  0
  188.0100  177.8820  146.1590 C   0  0  0  0  0  2  0  0  0  0  0  0
  188.7130  177.1520  147.1920 N   0  0  0  0  0  2  0  0  0  0  0  0
  188.6480  177.9690  148.3920 C   0  0  0  0  0  1  0  0  0  0  0  0
  181.2150  175.2420  139.2930 O   0  0  0  0  0  0  0  0  0  0  0  0
  179.8660  174.8710  139.1770 C   0  0  0  0  0  2  0  0  0  0  0  0
  179.4370  174.1830  140.4620 C   0  0  0  0  0  1  0  0  0  0  0  0
  183.5870  174.9810  137.8730 N   0  0  0  0  0  2  0  0  0  0  0  0
  182.7420  172.8840  136.9320 C   0  0  0  0  0  1  0  0  0  0  0  0
  183.9810  173.7500  137.1570 C   0  0  1  0  0  0  0  0  0  0  0  0
  184.5700  174.0350  135.9010 O   0  0  0  0  0  1  0  0  0  0  0  0
  184.9570  173.0320  137.9690 N   0  0  0  0  0  0  0  0  0  0  0  0
  186.1580  172.8210  137.5590 C   0  0  0  0  0  2  0  0  0  0  0  0
  1  8  1  0  0  0  0
  3  9  1  6  0  0  0
  3 12  1  0  0  0  0
  4 34  1  1  0  0  0
  4  6  1  0  0  0  0
  5  1  1  0  0  0  0
  5  4  1  0  0  0  0
  6 10  1  0  0  0  0
  6 31  1  1  0  0  0
  8  2  1  6  0  0  0
  8 10  1  0  0  0  0
 10  7  1  1  0  0  0
 11  2  1  0  0  0  0
 11  3  1  0  0  0  0
 12  7  1  6  0  0  0
 12 19  1  0  0  0  0
 13  5  2  0  0  0  0
 14 20  1  6  0  0  0
 14 16  1  0  0  0  0
 15 18  1  0  0  0  0
 16 18  1  6  0  0  0
 17 14  1  0  0  0  0
 17 16  1  0  0  0  0
 19 15  1  0  0  0  0
 19 17  1  0  0  0  0
 20 21  2  0  0  0  0
 22 24  1  0  0  0  0
 23 22  2  0  0  0  0
 23 20  1  0  0  0  0
 24 21  1  0  0  0  0
 24 26  1  0  0  0  0
 26 25  2  0  0  0  0
 27 26  1  0  0  0  0
 27 28  1  0  0  0  0
 28 29  1  0  0  0  0
 29 30  1  0  0  0  0
 32 31  1  0  0  0  0
 32 33  1  0  0  0  0
 35 36  1  0  0  0  0
 36 34  1  0  0  0  0
 36 38  1  0  0  0  0
 37 36  1  0  0  0  0
 39 38  2  0  0  0  0
M  END
>  <MODEL>
2

>  <REMARK>
 VINA RESULT:      -6.5      5.057      6.908
  Name = 
  11 active torsions:
  status: ('A' for Active; 'I' for Inactive)
    1  A    between atoms: N_1  and  C_21
    2  A    between atoms: C_2  and  C_3
    3  A    between atoms: C_12  and  N_31
    4  A    between atoms: C_16  and  O_28
    5  A    between atoms: N_18  and  C_33
    6  A    between atoms: C_21  and  N_31
    7  A    between atoms: C_27  and  C_36
    8  A    between atoms: O_28  and  C_32
    9  A    between atoms: C_30  and  C_35
   10  A    between atoms: C_33  and  C_34
   11  A    between atoms: C_34  and  C_36
                            x       y       z     vdW  Elec       q    Type
                         _______ _______ _______ _____ _____    ______ ____

>  <TORSDO>
F 11

$$$$
=
 OpenBabel11042411073D

 39 43  0  0  1  0  0  0  0  0999 V2000
  191.9410  176.8890  139.4810 N   0  0  0  0  0  2  0  0  0  0  0  0
  189.7810  176.9910  140.6440 C   0  0  0  0  0  2  0  0  0  0  0  0
  188.4150  178.7180  139.3050 C   0  0  2  0  0  3  0  0  0  0  0  0
  192.1850  175.9430  137.1740 C   0  0  2  0  0  3  0  0  0  0  0  0
  192.7790  176.6370  138.3500 C   0  0  0  0  0  0  0  0  0  0  0  0
  190.8080  176.5240  136.8420 C   0  0  2  0  0  3  0  0  0  0  0  0
  188.5750  176.5230  137.9620 O   0  0  0  0  0  0  0  0  0  0  0  0
  190.5620  176.4260  139.4510 C   0  0  1  0  0  3  0  0  0  0  0  0
  189.0580  179.5010  138.3670 F   0  0  0  0  0  0  0  0  0  0  0  0
  189.9470  176.8460  138.1000 C   0  0  1  0  0  3  0  0  0  0  0  0
  189.3490  178.4450  140.4950 C   0  0  0  0  0  2  0  0  0  0  0  0
  187.7300  177.4630  138.6570 C   0  0  2  0  0  3  0  0  0  0  0  0
  193.9510  177.0710  138.3300 O   0  0  0  0  0  0  0  0  0  0  0  0
  184.9640  178.7990  139.8060 C   0  0  2  0  0  3  0  0  0  0  0  0
  185.5650  176.6930  137.5190 C   0  0  0  0  0  2  0  0  0  0  0  0
  184.1920  178.5050  138.6860 C   0  0  1  0  0  3  0  0  0  0  0  0
  185.5580  178.6120  138.5090 C   0  0  2  0  0  3  0  0  0  0  0  0
  184.1960  177.0320  138.2460 C   0  0  0  0  0  2  0  0  0  0  0  0
  186.5300  177.8690  137.7700 C   0  0  1  0  0  3  0  0  0  0  0  0
  185.1410  178.8200  141.2600 C   0  0  0  0  0  0  0  0  0  0  0  0
  185.0060  177.7800  142.0340 N   0  0  0  0  0  0  0  0  0  0  0  0
  185.5580  179.6720  143.2130 C   0  0  0  0  0  3  0  0  0  0  0  0
  185.4590  180.0010  141.9730 N   0  0  0  0  0  0  0  0  0  0  0  0
  185.3120  178.2120  143.3960 C   0  0  2  0  0  3  0  0  0  0  0  0
  187.3970  177.1310  143.0640 O   0  0  0  0  0  0  0  0  0  0  0  0
  186.5790  177.5520  143.8830 C   0  0  0  0  0  0  0  0  0  0  0  0
  186.8040  177.3330  145.3480 C   0  0  0  0  0  2  0  0  0  0  0  0
  188.2880  177.3850  145.6410 C   0  0  0  0  0  2  0  0  0  0  0  0
  188.4950  177.8800  146.9860 N   0  0  0  0  0  2  0  0  0  0  0  0
  189.8350  177.4750  147.3720 C   0  0  0  0  0  1  0  0  0  0  0  0
  190.1430  175.7130  135.8930 O   0  0  0  0  0  0  0  0  0  0  0  0
  189.6540  176.5570  134.8840 C   0  0  0  0  0  2  0  0  0  0  0  0
  188.2070  176.1880  134.5990 C   0  0  0  0  0  1  0  0  0  0  0  0
  192.1010  174.5150  137.4570 N   0  0  0  0  0  2  0  0  0  0  0  0
  193.7670  174.6620  135.6690 C   0  0  0  0  0  1  0  0  0  0  0  0
  193.1270  173.7520  136.7170 C   0  0  1  0  0  0  0  0  0  0  0  0
  194.1420  173.2630  137.5740 O   0  0  0  0  0  1  0  0  0  0  0  0
  192.4840  172.6140  136.0710 N   0  0  0  0  0  0  0  0  0  0  0  0
  191.6170  172.7650  135.1330 C   0  0  0  0  0  2  0  0  0  0  0  0
  3  9  1  6  0  0  0
  3 11  1  0  0  0  0
  4 34  1  1  0  0  0
  4  5  1  0  0  0  0
  5  1  1  0  0  0  0
  6 31  1  6  0  0  0
  6  4  1  0  0  0  0
  6 10  1  0  0  0  0
  8  1  1  0  0  0  0
  8  2  1  1  0  0  0
 10  7  1  6  0  0  0
 10  8  1  0  0  0  0
 11  2  1  0  0  0  0
 12  7  1  6  0  0  0
 12  3  1  0  0  0  0
 13  5  2  0  0  0  0
 14 20  1  1  0  0  0
 15 19  1  0  0  0  0
 15 18  1  0  0  0  0
 16 18  1  1  0  0  0
 16 14  1  0  0  0  0
 17 16  1  0  0  0  0
 17 14  1  0  0  0  0
 19 17  1  0  0  0  0
 19 12  1  0  0  0  0
 20 23  1  0  0  0  0
 20 21  2  0  0  0  0
 21 24  1  0  0  0  0
 22 24  1  0  0  0  0
 23 22  2  0  0  0  0
 24 26  1  0  0  0  0
 25 26  2  0  0  0  0
 26 27  1  0  0  0  0
 27 28  1  0  0  0  0
 28 29  1  0  0  0  0
 29 30  1  0  0  0  0
 32 31  1  0  0  0  0
 33 32  1  0  0  0  0
 35 36  1  0  0  0  0
 36 34  1  0  0  0  0
 36 37  1  0  0  0  0
 38 36  1  0  0  0  0
 39 38  2  0  0  0  0
M  END
>  <MODEL>
3

>  <REMARK>
 VINA RESULT:      -5.7      2.106      3.126
  Name = 
  11 active torsions:
  status: ('A' for Active; 'I' for Inactive)
    1  A    between atoms: N_1  and  C_21
    2  A    between atoms: C_2  and  C_3
    3  A    between atoms: C_12  and  N_31
    4  A    between atoms: C_16  and  O_28
    5  A    between atoms: N_18  and  C_33
    6  A    between atoms: C_21  and  N_31
    7  A    between atoms: C_27  and  C_36
    8  A    between atoms: O_28  and  C_32
    9  A    between atoms: C_30  and  C_35
   10  A    between atoms: C_33  and  C_34
   11  A    between atoms: C_34  and  C_36
                            x       y       z     vdW  Elec       q    Type
                         _______ _______ _______ _____ _____    ______ ____

>  <TORSDO>
F 11

$$$$
=
 OpenBabel11042411073D

 39 43  0  0  1  0  0  0  0  0999 V2000
  183.2080  176.7930  136.7960 N   0  0  0  0  0  2  0  0  0  0  0  0
  185.1260  177.1690  138.2830 C   0  0  0  0  0  2  0  0  0  0  0  0
  184.5780  179.3810  139.4850 C   0  0  2  0  0  3  0  0  0  0  0  0
  180.9170  176.2640  137.6590 C   0  0  2  0  0  3  0  0  0  0  0  0
  181.8240  176.5710  136.5180 C   0  0  0  0  0  0  0  0  0  0  0  0
  181.1990  177.1960  138.8400 C   0  0  2  0  0  3  0  0  0  0  0  0
  183.0960  177.4980  140.4370 O   0  0  0  0  0  0  0  0  0  0  0  0
  183.6790  176.6720  138.1670 C   0  0  1  0  0  3  0  0  0  0  0  0
  183.5350  180.1570  139.0210 F   0  0  0  0  0  0  0  0  0  0  0  0
  182.7160  177.4670  139.0740 C   0  0  1  0  0  3  0  0  0  0  0  0
  185.2820  178.6850  138.3090 C   0  0  0  0  0  2  0  0  0  0  0  0
  184.1430  178.4600  140.6800 C   0  0  2  0  0  3  0  0  0  0  0  0
  181.3860  176.7210  135.3570 O   0  0  0  0  0  0  0  0  0  0  0  0
  186.1170  178.6310  143.2940 C   0  0  2  0  0  3  0  0  0  0  0  0
  182.9710  178.5070  142.9600 C   0  0  0  0  0  2  0  0  0  0  0  0
  185.1420  179.0910  144.1740 C   0  0  1  0  0  3  0  0  0  0  0  0
  184.9570  179.3450  142.8290 C   0  0  2  0  0  3  0  0  0  0  0  0
  183.8610  178.2430  144.2460 C   0  0  0  0  0  2  0  0  0  0  0  0
  183.8320  179.2890  141.9480 C   0  0  1  0  0  3  0  0  0  0  0  0
  187.2230  177.7240  142.9800 C   0  0  0  0  0  0  0  0  0  0  0  0
  187.9500  177.7940  141.9010 N   0  0  0  0  0  0  0  0  0  0  0  0
  188.6020  176.0730  143.2740 C   0  0  0  0  0  3  0  0  0  0  0  0
  187.5960  176.6540  143.8290 N   0  0  0  0  0  0  0  0  0  0  0  0
  188.9670  176.7490  141.9960 C   0  0  2  0  0  3  0  0  0  0  0  0
  190.6720  177.8710  143.2040 O   0  0  0  0  0  0  0  0  0  0  0  0
  190.3390  177.3630  142.1330 C   0  0  0  0  0  0  0  0  0  0  0  0
  191.2590  177.4320  140.9530 C   0  0  0  0  0  2  0  0  0  0  0  0
  190.6580  176.6550  139.8020 C   0  0  0  0  0  2  0  0  0  0  0  0
  190.2020  177.5780  138.7840 N   0  0  0  0  0  2  0  0  0  0  0  0
  188.9120  177.0860  138.3300 C   0  0  0  0  0  1  0  0  0  0  0  0
  180.5190  176.7510  139.9970 O   0  0  0  0  0  0  0  0  0  0  0  0
  179.3890  177.5670  140.1640 C   0  0  0  0  0  2  0  0  0  0  0  0
  179.6830  178.5890  141.2510 C   0  0  0  0  0  1  0  0  0  0  0  0
  181.0870  174.8660  138.0380 N   0  0  0  0  0  2  0  0  0  0  0  0
  179.2070  173.7320  139.1210 C   0  0  0  0  0  1  0  0  0  0  0  0
  179.8620  174.0810  137.7850 C   0  0  1  0  0  0  0  0  0  0  0  0
  178.9310  174.7960  136.9940 O   0  0  0  0  0  1  0  0  0  0  0  0
  180.2300  172.8630  137.0710 N   0  0  0  0  0  0  0  0  0  0  0  0
  181.4580  172.5250  136.8920 C   0  0  0  0  0  2  0  0  0  0  0  0
  1  8  1  0  0  0  0
  2 11  1  0  0  0  0
  3  9  1  6  0  0  0
  3 12  1  0  0  0  0
  4 34  1  1  0  0  0
  4  6  1  0  0  0  0
  5  1  1  0  0  0  0
  5  4  1  0  0  0  0
  6 10  1  0  0  0  0
  6 31  1  1  0  0  0
  8  2  1  6  0  0  0
  8 10  1  0  0  0  0
 10  7  1  1  0  0  0
 11  3  1  0  0  0  0
 12  7  1  6  0  0  0
 12 19  1  0  0  0  0
 13  5  2  0  0  0  0
 14 20  1  6  0  0  0
 14 16  1  0  0  0  0
 15 18  1  0  0  0  0
 16 18  1  6  0  0  0
 17 14  1  0  0  0  0
 17 16  1  0  0  0  0
 19 17  1  0  0  0  0
 19 15  1  0  0  0  0
 20 23  1  0  0  0  0
 21 24  1  0  0  0  0
 21 20  2  0  0  0  0
 22 23  2  0  0  0  0
 24 26  1  0  0  0  0
 24 22  1  0  0  0  0
 26 25  2  0  0  0  0
 27 26  1  0  0  0  0
 28 27  1  0  0  0  0
 29 28  1  0  0  0  0
 30 29  1  0  0  0  0
 31 32  1  0  0  0  0
 32 33  1  0  0  0  0
 36 34  1  0  0  0  0
 36 35  1  0  0  0  0
 37 36  1  0  0  0  0
 38 36  1  0  0  0  0
 39 38  2  0  0  0  0
M  END
>  <MODEL>
4

>  <REMARK>
 VINA RESULT:      -5.7      4.842      7.874
  Name = 
  11 active torsions:
  status: ('A' for Active; 'I' for Inactive)
    1  A    between atoms: N_1  and  C_21
    2  A    between atoms: C_2  and  C_3
    3  A    between atoms: C_12  and  N_31
    4  A    between atoms: C_16  and  O_28
    5  A    between atoms: N_18  and  C_33
    6  A    between atoms: C_21  and  N_31
    7  A    between atoms: C_27  and  C_36
    8  A    between atoms: O_28  and  C_32
    9  A    between atoms: C_30  and  C_35
   10  A    between atoms: C_33  and  C_34
   11  A    between atoms: C_34  and  C_36
                            x       y       z     vdW  Elec       q    Type
                         _______ _______ _______ _____ _____    ______ ____

>  <TORSDO>
F 11

$$$$
=
 OpenBabel11042411073D

 39 43  0  0  1  0  0  0  0  0999 V2000
  182.6610  178.2610  136.7730 N   0  0  0  0  0  2  0  0  0  0  0  0
  182.9920  180.0170  138.4570 C   0  0  0  0  0  2  0  0  0  0  0  0
  180.6350  180.4360  139.4130 C   0  0  2  0  0  3  0  0  0  0  0  0
  182.0130  175.9180  137.3780 C   0  0  2  0  0  3  0  0  0  0  0  0
  182.2810  176.9520  136.3410 C   0  0  0  0  0  0  0  0  0  0  0  0
  181.1640  176.4970  138.5120 C   0  0  2  0  0  3  0  0  0  0  0  0
  181.5370  178.1930  140.3090 O   0  0  0  0  0  0  0  0  0  0  0  0
  182.8080  178.5160  138.1980 C   0  0  1  0  0  3  0  0  0  0  0  0
  179.5420  179.8970  138.7650 F   0  0  0  0  0  0  0  0  0  0  0  0
  181.5650  177.9480  138.9140 C   0  0  1  0  0  3  0  0  0  0  0  0
  181.7100  180.8390  138.3900 C   0  0  0  0  0  2  0  0  0  0  0  0
  181.1150  179.5380  140.6090 C   0  0  2  0  0  3  0  0  0  0  0  0
  182.0970  176.7240  135.1250 O   0  0  0  0  0  0  0  0  0  0  0  0
  181.8810  179.0220  143.7560 C   0  0  2  0  0  3  0  0  0  0  0  0
  179.4240  178.1580  141.9550 C   0  0  0  0  0  2  0  0  0  0  0  0
  180.5890  178.7030  144.1630 C   0  0  1  0  0  3  0  0  0  0  0  0
  180.7260  179.4960  143.0400 C   0  0  2  0  0  3  0  0  0  0  0  0
  179.8960  177.5910  143.3590 C   0  0  0  0  0  2  0  0  0  0  0  0
  180.0850  179.5370  141.7630 C   0  0  1  0  0  3  0  0  0  0  0  0
  183.3180  178.7380  143.7440 C   0  0  0  0  0  0  0  0  0  0  0  0
  183.9240  178.0430  142.8230 N   0  0  0  0  0  0  0  0  0  0  0  0
  185.3730  178.7840  144.4440 C   0  0  0  0  0  3  0  0  0  0  0  0
  184.1920  179.1840  144.7640 N   0  0  0  0  0  0  0  0  0  0  0  0
  185.3470  178.0350  143.1530 C   0  0  2  0  0  3  0  0  0  0  0  0
  185.6670  179.8530  141.6620 O   0  0  0  0  0  0  0  0  0  0  0  0
  186.1300  178.8060  142.1170 C   0  0  0  0  0  0  0  0  0  0  0  0
  187.4180  178.2610  141.5820 C   0  0  0  0  0  2  0  0  0  0  0  0
  188.3000  177.8320  142.7350 C   0  0  0  0  0  2  0  0  0  0  0  0
  188.4670  176.3950  142.7050 N   0  0  0  0  0  2  0  0  0  0  0  0
  189.8710  176.1370  142.9790 C   0  0  0  0  0  1  0  0  0  0  0  0
  181.1170  175.6000  139.6040 O   0  0  0  0  0  0  0  0  0  0  0  0
  179.7800  175.2060  139.7710 C   0  0  0  0  0  2  0  0  0  0  0  0
  179.6700  173.7190  139.4730 C   0  0  0  0  0  1  0  0  0  0  0  0
  183.2840  175.4070  137.8780 N   0  0  0  0  0  2  0  0  0  0  0  0
  184.5840  174.5170  136.0050 C   0  0  0  0  0  1  0  0  0  0  0  0
  183.6810  174.1640  137.1860 C   0  0  1  0  0  0  0  0  0  0  0  0
  184.3800  173.2820  138.0450 O   0  0  0  0  0  1  0  0  0  0  0  0
  182.4770  173.4880  136.7160 N   0  0  0  0  0  0  0  0  0  0  0  0
  182.2390  172.2550  136.9910 C   0  0  0  0  0  2  0  0  0  0  0  0
  1  8  1  0  0  0  0
  3  9  1  6  0  0  0
  3 12  1  0  0  0  0
  4 34  1  1  0  0  0
  4  6  1  0  0  0  0
  5  1  1  0  0  0  0
  5  4  1  0  0  0  0
  6 10  1  0  0  0  0
  6 31  1  1  0  0  0
  8  2  1  6  0  0  0
  8 10  1  0  0  0  0
 10  7  1  1  0  0  0
 11  2  1  0  0  0  0
 11  3  1  0  0  0  0
 12  7  1  6  0  0  0
 12 19  1  0  0  0  0
 13  5  2  0  0  0  0
 14 20  1  6  0  0  0
 14 16  1  0  0  0  0
 15 18  1  0  0  0  0
 16 18  1  6  0  0  0
 17 14  1  0  0  0  0
 17 16  1  0  0  0  0
 19 15  1  0  0  0  0
 19 17  1  0  0  0  0
 20 23  1  0  0  0  0
 21 24  1  0  0  0  0
 21 20  2  0  0  0  0
 22 23  2  0  0  0  0
 24 22  1  0  0  0  0
 25 26  2  0  0  0  0
 26 24  1  0  0  0  0
 27 26  1  0  0  0  0
 27 28  1  0  0  0  0
 29 28  1  0  0  0  0
 29 30  1  0  0  0  0
 31 32  1  0  0  0  0
 33 32  1  0  0  0  0
 35 36  1  0  0  0  0
 36 34  1  0  0  0  0
 36 37  1  0  0  0  0
 38 39  2  0  0  0  0
 38 36  1  0  0  0  0
M  END
>  <MODEL>
5

>  <REMARK>
 VINA RESULT:      -5.6      5.030      7.528
  Name = 
  11 active torsions:
  status: ('A' for Active; 'I' for Inactive)
    1  A    between atoms: N_1  and  C_21
    2  A    between atoms: C_2  and  C_3
    3  A    between atoms: C_12  and  N_31
    4  A    between atoms: C_16  and  O_28
    5  A    between atoms: N_18  and  C_33
    6  A    between atoms: C_21  and  N_31
    7  A    between atoms: C_27  and  C_36
    8  A    between atoms: O_28  and  C_32
    9  A    between atoms: C_30  and  C_35
   10  A    between atoms: C_33  and  C_34
   11  A    between atoms: C_34  and  C_36
                            x       y       z     vdW  Elec       q    Type
                         _______ _______ _______ _____ _____    ______ ____

>  <TORSDO>
F 11

$$$$
=
 OpenBabel11042411073D

 39 43  0  0  1  0  0  0  0  0999 V2000
  181.1090  179.7500  139.9970 N   0  0  0  0  0  2  0  0  0  0  0  0
  183.2930  178.6500  140.2250 C   0  0  0  0  0  2  0  0  0  0  0  0
  183.0290  176.4360  138.9330 C   0  0  2  0  0  3  0  0  0  0  0  0
  180.2620  180.6220  137.8070 C   0  0  2  0  0  3  0  0  0  0  0  0
  180.0420  180.3420  139.2530 C   0  0  0  0  0  0  0  0  0  0  0  0
  180.9480  179.4360  137.1240 C   0  0  2  0  0  3  0  0  0  0  0  0
  183.2120  178.3880  137.2590 O   0  0  0  0  0  0  0  0  0  0  0  0
  182.3720  179.4850  139.3250 C   0  0  1  0  0  3  0  0  0  0  0  0
  181.7690  176.0330  138.5400 F   0  0  0  0  0  0  0  0  0  0  0  0
  182.0630  178.7760  137.9900 C   0  0  1  0  0  3  0  0  0  0  0  0
  182.9540  177.1650  140.2840 C   0  0  0  0  0  2  0  0  0  0  0  0
  183.7970  177.1790  137.7830 C   0  0  2  0  0  3  0  0  0  0  0  0
  178.9310  180.5300  139.7940 O   0  0  0  0  0  0  0  0  0  0  0  0
  186.8590  176.2330  137.0820 C   0  0  2  0  0  3  0  0  0  0  0  0
  184.3490  176.9480  135.2890 C   0  0  0  0  0  2  0  0  0  0  0  0
  186.5790  175.8050  135.7880 C   0  0  1  0  0  3  0  0  0  0  0  0
  185.5370  175.8180  136.6950 C   0  0  2  0  0  3  0  0  0  0  0  0
  185.8790  176.8340  134.8860 C   0  0  0  0  0  2  0  0  0  0  0  0
  184.1640  176.2130  136.6320 C   0  0  1  0  0  3  0  0  0  0  0  0
  187.7000  176.9770  138.0230 C   0  0  0  0  0  0  0  0  0  0  0  0
  187.3210  178.0490  138.6610 N   0  0  0  0  0  0  0  0  0  0  0  0
  189.4750  177.4480  139.1800 C   0  0  0  0  0  3  0  0  0  0  0  0
  189.0340  176.6050  138.3130 N   0  0  0  0  0  0  0  0  0  0  0  0
  188.4260  178.4500  139.5270 C   0  0  2  0  0  3  0  0  0  0  0  0
  187.0720  178.8980  141.4230 O   0  0  0  0  0  0  0  0  0  0  0  0
  188.0420  178.2840  140.9780 C   0  0  0  0  0  0  0  0  0  0  0  0
  188.8830  177.4450  141.8920 C   0  0  0  0  0  2  0  0  0  0  0  0
  188.1020  177.1390  143.1520 C   0  0  0  0  0  2  0  0  0  0  0  0
  188.9110  177.4580  144.3090 N   0  0  0  0  0  2  0  0  0  0  0  0
  187.9960  177.5800  145.4310 C   0  0  0  0  0  1  0  0  0  0  0  0
  181.3770  179.7910  135.8250 O   0  0  0  0  0  0  0  0  0  0  0  0
  180.4430  179.2730  134.9140 C   0  0  0  0  0  2  0  0  0  0  0  0
  180.7820  177.8160  134.6440 C   0  0  0  0  0  1  0  0  0  0  0  0
  181.0560  181.8370  137.6740 N   0  0  0  0  0  2  0  0  0  0  0  0
  179.1760  182.4710  136.2400 C   0  0  0  0  0  1  0  0  0  0  0  0
  180.2340  182.9770  137.2190 C   0  0  1  0  0  0  0  0  0  0  0  0
  179.5830  183.6230  138.2980 O   0  0  0  0  0  1  0  0  0  0  0  0
  181.1050  183.9460  136.5630 N   0  0  0  0  0  0  0  0  0  0  0  0
  180.7500  184.5640  135.4930 C   0  0  0  0  0  2  0  0  0  0  0  0
  2 11  1  0  0  0  0
  3  9  1  6  0  0  0
  3 11  1  0  0  0  0
  4 34  1  1  0  0  0
  4  5  1  0  0  0  0
  5 13  2  0  0  0  0
  5  1  1  0  0  0  0
  6 31  1  6  0  0  0
  6  4  1  0  0  0  0
  6 10  1  0  0  0  0
  8  1  1  0  0  0  0
  8  2  1  1  0  0  0
 10  7  1  6  0  0  0
 10  8  1  0  0  0  0
 12  7  1  6  0  0  0
 12  3  1  0  0  0  0
 14 20  1  6  0  0  0
 15 19  1  0  0  0  0
 16 18  1  6  0  0  0
 16 17  1  0  0  0  0
 16 14  1  0  0  0  0
 17 14  1  0  0  0  0
 18 15  1  0  0  0  0
 19 17  1  0  0  0  0
 19 12  1  0  0  0  0
 20 23  1  0  0  0  0
 20 21  2  0  0  0  0
 21 24  1  0  0  0  0
 22 24  1  0  0  0  0
 23 22  2  0  0  0  0
 24 26  1  0  0  0  0
 26 25  2  0  0  0  0
 26 27  1  0  0  0  0
 27 28  1  0  0  0  0
 28 29  1  0  0  0  0
 29 30  1  0  0  0  0
 32 31  1  0  0  0  0
 33 32  1  0  0  0  0
 35 36  1  0  0  0  0
 36 34  1  0  0  0  0
 36 37  1  0  0  0  0
 38 36  1  0  0  0  0
 39 38  2  0  0  0  0
M  END
>  <MODEL>
6

>  <REMARK>
 VINA RESULT:      -5.6      5.764      9.329
  Name = 
  11 active torsions:
  status: ('A' for Active; 'I' for Inactive)
    1  A    between atoms: N_1  and  C_21
    2  A    between atoms: C_2  and  C_3
    3  A    between atoms: C_12  and  N_31
    4  A    between atoms: C_16  and  O_28
    5  A    between atoms: N_18  and  C_33
    6  A    between atoms: C_21  and  N_31
    7  A    between atoms: C_27  and  C_36
    8  A    between atoms: O_28  and  C_32
    9  A    between atoms: C_30  and  C_35
   10  A    between atoms: C_33  and  C_34
   11  A    between atoms: C_34  and  C_36
                            x       y       z     vdW  Elec       q    Type
                         _______ _______ _______ _____ _____    ______ ____

>  <TORSDO>
F 11

$$$$
=
 OpenBabel11042411073D

 39 43  0  0  1  0  0  0  0  0999 V2000
  184.0330  172.9810  137.2120 N   0  0  0  0  0  2  0  0  0  0  0  0
  186.3980  173.2620  137.8090 C   0  0  0  0  0  2  0  0  0  0  0  0
  187.4370  174.4380  135.7640 C   0  0  2  0  0  3  0  0  0  0  0  0
  182.4630  174.9190  136.9790 C   0  0  2  0  0  3  0  0  0  0  0  0
  182.7330  173.4590  136.8590 C   0  0  0  0  0  0  0  0  0  0  0  0
  183.6280  175.7330  136.4120 C   0  0  2  0  0  3  0  0  0  0  0  0
  186.0020  176.1240  137.0850 O   0  0  0  0  0  0  0  0  0  0  0  0
  185.0200  173.9280  137.7080 C   0  0  1  0  0  3  0  0  0  0  0  0
  186.7080  174.5210  134.5950 F   0  0  0  0  0  0  0  0  0  0  0  0
  185.0290  175.1470  136.7630 C   0  0  1  0  0  3  0  0  0  0  0  0
  187.1350  173.1120  136.4830 C   0  0  0  0  0  2  0  0  0  0  0  0
  187.3160  175.7420  136.6300 C   0  0  2  0  0  3  0  0  0  0  0  0
  181.8860  172.6740  136.3800 O   0  0  0  0  0  0  0  0  0  0  0  0
  189.0320  178.0230  138.2470 C   0  0  2  0  0  3  0  0  0  0  0  0
  187.0780  178.1420  135.7580 C   0  0  0  0  0  2  0  0  0  0  0  0
  188.9960  178.9710  137.2290 C   0  0  1  0  0  3  0  0  0  0  0  0
  188.8620  177.6440  136.8690 C   0  0  2  0  0  3  0  0  0  0  0  0
  187.5970  179.3140  136.6920 C   0  0  0  0  0  2  0  0  0  0  0  0
  188.0230  176.9390  135.9510 C   0  0  1  0  0  3  0  0  0  0  0  0
  188.8810  177.6650  139.6590 C   0  0  0  0  0  0  0  0  0  0  0  0
  189.5700  176.7360  140.2610 N   0  0  0  0  0  0  0  0  0  0  0  0
  188.0790  177.7640  141.6740 C   0  0  0  0  0  3  0  0  0  0  0  0
  187.9410  178.2940  140.5100 N   0  0  0  0  0  0  0  0  0  0  0  0
  189.1540  176.7300  141.6620 C   0  0  2  0  0  3  0  0  0  0  0  0
  191.4440  177.1530  142.1180 O   0  0  0  0  0  0  0  0  0  0  0  0
  190.2900  177.1840  142.5470 C   0  0  0  0  0  0  0  0  0  0  0  0
  190.0280  177.5890  143.9660 C   0  0  0  0  0  2  0  0  0  0  0  0
  191.3430  177.6950  144.7090 C   0  0  0  0  0  2  0  0  0  0  0  0
  191.6660  176.4140  145.2990 N   0  0  0  0  0  2  0  0  0  0  0  0
  191.5300  176.5760  146.7370 C   0  0  0  0  0  1  0  0  0  0  0  0
  183.4870  177.1000  136.7450 O   0  0  0  0  0  0  0  0  0  0  0  0
  182.7460  177.7110  135.7210 C   0  0  0  0  0  2  0  0  0  0  0  0
  181.7120  178.6310  136.3500 C   0  0  0  0  0  1  0  0  0  0  0  0
  182.2250  175.2440  138.3800 N   0  0  0  0  0  2  0  0  0  0  0  0
  180.7680  176.9780  139.3100 C   0  0  0  0  0  1  0  0  0  0  0  0
  180.8160  175.6140  138.6210 C   0  0  1  0  0  0  0  0  0  0  0  0
  180.0760  175.6880  137.4160 O   0  0  0  0  0  1  0  0  0  0  0  0
  180.2070  174.5980  139.4720 N   0  0  0  0  0  0  0  0  0  0  0  0
  179.5740  173.5920  138.9820 C   0  0  0  0  0  2  0  0  0  0  0  0
  1  8  1  0  0  0  0
  3  9  1  6  0  0  0
  3 11  1  0  0  0  0
  3 12  1  0  0  0  0
  4 34  1  1  0  0  0
  5  4  1  0  0  0  0
  5  1  1  0  0  0  0
  6 31  1  1  0  0  0
  6 10  1  0  0  0  0
  6  4  1  0  0  0  0
  8  2  1  6  0  0  0
 10  7  1  1  0  0  0
 10  8  1  0  0  0  0
 11  2  1  0  0  0  0
 12  7  1  6  0  0  0
 13  5  2  0  0  0  0
 14 20  1  1  0  0  0
 15 19  1  0  0  0  0
 15 18  1  0  0  0  0
 16 18  1  1  0  0  0
 16 14  1  0  0  0  0
 17 16  1  0  0  0  0
 17 14  1  0  0  0  0
 19 12  1  0  0  0  0
 19 17  1  0  0  0  0
 20 21  2  0  0  0  0
 20 23  1  0  0  0  0
 21 24  1  0  0  0  0
 23 22  2  0  0  0  0
 24 22  1  0  0  0  0
 24 26  1  0  0  0  0
 25 26  2  0  0  0  0
 26 27  1  0  0  0  0
 27 28  1  0  0  0  0
 28 29  1  0  0  0  0
 29 30  1  0  0  0  0
 32 33  1  0  0  0  0
 32 31  1  0  0  0  0
 34 36  1  0  0  0  0
 36 35  1  0  0  0  0
 36 38  1  0  0  0  0
 37 36  1  0  0  0  0
 39 38  2  0  0  0  0
M  END
>  <MODEL>
7

>  <REMARK>
 VINA RESULT:      -5.6      4.744      7.806
  Name = 
  11 active torsions:
  status: ('A' for Active; 'I' for Inactive)
    1  A    between atoms: N_1  and  C_21
    2  A    between atoms: C_2  and  C_3
    3  A    between atoms: C_12  and  N_31
    4  A    between atoms: C_16  and  O_28
    5  A    between atoms: N_18  and  C_33
    6  A    between atoms: C_21  and  N_31
    7  A    between atoms: C_27  and  C_36
    8  A    between atoms: O_28  and  C_32
    9  A    between atoms: C_30  and  C_35
   10  A    between atoms: C_33  and  C_34
   11  A    between atoms: C_34  and  C_36
                            x       y       z     vdW  Elec       q    Type
                         _______ _______ _______ _____ _____    ______ ____

>  <TORSDO>
F 11

$$$$
=
 OpenBabel11042411073D

 39 43  0  0  1  0  0  0  0  0999 V2000
  184.8640  176.8630  135.2250 N   0  0  0  0  0  2  0  0  0  0  0  0
  187.1650  176.0900  135.5980 C   0  0  0  0  0  2  0  0  0  0  0  0
  188.3720  178.1370  136.5950 C   0  0  2  0  0  3  0  0  0  0  0  0
  183.3060  177.4120  137.1080 C   0  0  2  0  0  3  0  0  0  0  0  0
  183.5970  177.3710  135.6480 C   0  0  0  0  0  0  0  0  0  0  0  0
  184.5110  177.9490  137.8850 C   0  0  2  0  0  3  0  0  0  0  0  0
  186.8130  177.1100  138.3740 O   0  0  0  0  0  0  0  0  0  0  0  0
  185.7960  176.3720  136.2300 C   0  0  1  0  0  3  0  0  0  0  0  0
  187.7490  179.3680  136.5580 F   0  0  0  0  0  0  0  0  0  0  0  0
  185.8790  177.4240  137.3560 C   0  0  1  0  0  3  0  0  0  0  0  0
  188.0170  177.3270  135.3370 C   0  0  0  0  0  2  0  0  0  0  0  0
  188.1650  177.4110  137.9720 C   0  0  2  0  0  3  0  0  0  0  0  0
  182.8010  177.8460  134.8090 O   0  0  0  0  0  0  0  0  0  0  0  0
  191.3060  176.8580  138.7380 C   0  0  2  0  0  3  0  0  0  0  0  0
  188.7230  177.4410  140.4740 C   0  0  0  0  0  2  0  0  0  0  0  0
  191.2360  177.4080  140.0140 C   0  0  1  0  0  3  0  0  0  0  0  0
  190.3200  177.8500  139.0790 C   0  0  2  0  0  3  0  0  0  0  0  0
  190.1260  176.8480  140.9180 C   0  0  0  0  0  2  0  0  0  0  0  0
  188.9200  178.1350  139.1120 C   0  0  1  0  0  3  0  0  0  0  0  0
  191.7210  175.7800  137.8380 C   0  0  0  0  0  0  0  0  0  0  0  0
  192.6400  175.8990  136.9210 N   0  0  0  0  0  0  0  0  0  0  0  0
  191.7340  173.7900  136.9720 C   0  0  0  0  0  3  0  0  0  0  0  0
  191.1350  174.4920  137.8680 N   0  0  0  0  0  0  0  0  0  0  0  0
  192.7850  174.5930  136.2820 C   0  0  2  0  0  3  0  0  0  0  0  0
  194.2400  173.1190  137.4390 O   0  0  0  0  0  0  0  0  0  0  0  0
  194.1420  174.0070  136.5910 C   0  0  0  0  0  0  0  0  0  0  0  0
  195.3710  174.5570  135.9350 C   0  0  0  0  0  2  0  0  0  0  0  0
  196.4950  174.6190  136.9470 C   0  0  0  0  0  2  0  0  0  0  0  0
  197.4380  175.6450  136.5570 N   0  0  0  0  0  2  0  0  0  0  0  0
  196.9960  176.1420  135.2660 C   0  0  0  0  0  1  0  0  0  0  0  0
  184.3300  177.7590  139.2740 O   0  0  0  0  0  0  0  0  0  0  0  0
  184.3040  179.0270  139.8750 C   0  0  0  0  0  2  0  0  0  0  0  0
  185.3320  179.0580  140.9950 C   0  0  0  0  0  1  0  0  0  0  0  0
  182.9430  176.0730  137.5580 N   0  0  0  0  0  2  0  0  0  0  0  0
  181.4660  175.6920  139.4730 C   0  0  0  0  0  1  0  0  0  0  0  0
  181.5290  176.0060  137.9780 C   0  0  1  0  0  0  0  0  0  0  0  0
  180.8480  177.2250  137.7410 O   0  0  0  0  0  1  0  0  0  0  0  0
  180.8660  174.9550  137.2150 N   0  0  0  0  0  0  0  0  0  0  0  0
  179.8710  175.2030  136.4400 C   0  0  0  0  0  2  0  0  0  0  0  0
  1  5  1  0  0  0  0
  1  8  1  0  0  0  0
  3  9  1  1  0  0  0
  3 12  1  0  0  0  0
  4 34  1  1  0  0  0
  4  6  1  0  0  0  0
  5  4  1  0  0  0  0
  6 31  1  1  0  0  0
  8  2  1  6  0  0  0
  8 10  1  0  0  0  0
 10  6  1  0  0  0  0
 10  7  1  1  0  0  0
 11  2  1  0  0  0  0
 11  3  1  0  0  0  0
 12  7  1  1  0  0  0
 12 19  1  0  0  0  0
 13  5  2  0  0  0  0
 14 20  1  1  0  0  0
 14 17  1  0  0  0  0
 14 16  1  0  0  0  0
 15 18  1  0  0  0  0
 16 18  1  1  0  0  0
 17 19  1  0  0  0  0
 17 16  1  0  0  0  0
 19 15  1  0  0  0  0
 20 23  1  0  0  0  0
 21 20  2  0  0  0  0
 22 23  2  0  0  0  0
 24 26  1  0  0  0  0
 24 21  1  0  0  0  0
 24 22  1  0  0  0  0
 26 25  2  0  0  0  0
 27 26  1  0  0  0  0
 27 28  1  0  0  0  0
 29 28  1  0  0  0  0
 30 29  1  0  0  0  0
 31 32  1  0  0  0  0
 32 33  1  0  0  0  0
 34 36  1  0  0  0  0
 36 35  1  0  0  0  0
 37 36  1  0  0  0  0
 38 36  1  0  0  0  0
 39 38  2  0  0  0  0
M  END
>  <MODEL>
8

>  <REMARK>
 VINA RESULT:      -5.4      4.305      9.233
  Name = 
  11 active torsions:
  status: ('A' for Active; 'I' for Inactive)
    1  A    between atoms: N_1  and  C_21
    2  A    between atoms: C_2  and  C_3
    3  A    between atoms: C_12  and  N_31
    4  A    between atoms: C_16  and  O_28
    5  A    between atoms: N_18  and  C_33
    6  A    between atoms: C_21  and  N_31
    7  A    between atoms: C_27  and  C_36
    8  A    between atoms: O_28  and  C_32
    9  A    between atoms: C_30  and  C_35
   10  A    between atoms: C_33  and  C_34
   11  A    between atoms: C_34  and  C_36
                            x       y       z     vdW  Elec       q    Type
                         _______ _______ _______ _____ _____    ______ ____

>  <TORSDO>
F 11

$$$$
=
 OpenBabel11042411073D

 39 43  0  0  1  0  0  0  0  0999 V2000
  183.7900  178.7390  139.8580 N   0  0  0  0  0  2  0  0  0  0  0  0
  185.6270  177.8780  141.2420 C   0  0  0  0  0  2  0  0  0  0  0  0
  185.8740  179.6170  143.1280 C   0  0  2  0  0  3  0  0  0  0  0  0
  181.4230  178.8380  140.6720 C   0  0  2  0  0  3  0  0  0  0  0  0
  182.4390  179.1440  139.6270 C   0  0  0  0  0  0  0  0  0  0  0  0
  181.9670  179.1630  142.0660 C   0  0  2  0  0  3  0  0  0  0  0  0
  183.7510  178.2100  143.5310 O   0  0  0  0  0  0  0  0  0  0  0  0
  184.1080  178.0150  141.0800 C   0  0  1  0  0  3  0  0  0  0  0  0
  185.2200  180.8270  143.0160 F   0  0  0  0  0  0  0  0  0  0  0  0
  183.4600  178.7660  142.2620 C   0  0  1  0  0  3  0  0  0  0  0  0
  186.3320  179.1340  141.7420 C   0  0  0  0  0  2  0  0  0  0  0  0
  185.0650  178.5860  143.9920 C   0  0  2  0  0  3  0  0  0  0  0  0
  182.1510  179.8130  138.6110 O   0  0  0  0  0  0  0  0  0  0  0  0
  187.5650  178.2370  146.0870 C   0  0  2  0  0  3  0  0  0  0  0  0
  184.4300  177.9060  146.3820 C   0  0  0  0  0  2  0  0  0  0  0  0
  186.7960  178.3470  147.2410 C   0  0  1  0  0  3  0  0  0  0  0  0
  186.3060  178.9350  146.0900 C   0  0  2  0  0  3  0  0  0  0  0  0
  185.5930  177.3930  147.3300 C   0  0  0  0  0  2  0  0  0  0  0  0
  185.0160  179.0090  145.4790 C   0  0  1  0  0  3  0  0  0  0  0  0
  188.6050  177.5580  145.3110 C   0  0  0  0  0  0  0  0  0  0  0  0
  188.4350  177.0810  144.1110 N   0  0  0  0  0  0  0  0  0  0  0  0
  190.5690  176.7380  144.8850 C   0  0  0  0  0  3  0  0  0  0  0  0
  189.9090  177.3350  145.8140 N   0  0  0  0  0  0  0  0  0  0  0  0
  189.7180  176.5310  143.6770 C   0  0  2  0  0  3  0  0  0  0  0  0
  191.3620  177.9070  142.6610 O   0  0  0  0  0  0  0  0  0  0  0  0
  190.2750  177.3430  142.5320 C   0  0  0  0  0  0  0  0  0  0  0  0
  189.4760  177.5310  141.2790 C   0  0  0  0  0  2  0  0  0  0  0  0
  190.2450  176.9690  140.1040 C   0  0  0  0  0  2  0  0  0  0  0  0
  189.8390  177.6490  138.8920 N   0  0  0  0  0  2  0  0  0  0  0  0
  188.3990  177.4850  138.7900 C   0  0  0  0  0  1  0  0  0  0  0  0
  181.1080  178.6490  143.0650 O   0  0  0  0  0  0  0  0  0  0  0  0
  180.1490  179.6330  143.3470 C   0  0  0  0  0  2  0  0  0  0  0  0
  179.0940  179.0380  144.2660 C   0  0  0  0  0  1  0  0  0  0  0  0
  181.0430  177.4350  140.5690 N   0  0  0  0  0  2  0  0  0  0  0  0
  178.9310  176.2010  140.6800 C   0  0  0  0  0  1  0  0  0  0  0  0
  179.7200  177.2750  139.9310 C   0  0  1  0  0  0  0  0  0  0  0  0
  178.9760  178.4800  139.9490 O   0  0  0  0  0  1  0  0  0  0  0  0
  179.9170  176.8780  138.5420 N   0  0  0  0  0  0  0  0  0  0  0  0
  180.8290  176.0390  138.1980 C   0  0  0  0  0  2  0  0  0  0  0  0
  1  8  1  0  0  0  0
  2 11  1  0  0  0  0
  3  9  1  6  0  0  0
  3 12  1  0  0  0  0
  4 34  1  1  0  0  0
  4  6  1  0  0  0  0
  5  1  1  0  0  0  0
  5  4  1  0  0  0  0
  6 10  1  0  0  0  0
  6 31  1  1  0  0  0
  8  2  1  1  0  0  0
  8 10  1  0  0  0  0
 10  7  1  1  0  0  0
 11  3  1  0  0  0  0
 12  7  1  6  0  0  0
 12 19  1  0  0  0  0
 13  5  2  0  0  0  0
 14 20  1  6  0  0  0
 14 17  1  0  0  0  0
 14 16  1  0  0  0  0
 15 18  1  0  0  0  0
 16 18  1  6  0  0  0
 17 16  1  0  0  0  0
 19 17  1  0  0  0  0
 19 15  1  0  0  0  0
 20 23  1  0  0  0  0
 21 20  2  0  0  0  0
 22 23  2  0  0  0  0
 24 21  1  0  0  0  0
 24 22  1  0  0  0  0
 26 25  2  0  0  0  0
 26 24  1  0  0  0  0
 27 26  1  0  0  0  0
 28 27  1  0  0  0  0
 29 28  1  0  0  0  0
 30 29  1  0  0  0  0
 31 32  1  0  0  0  0
 32 33  1  0  0  0  0
 36 37  1  0  0  0  0
 36 34  1  0  0  0  0
 36 35  1  0  0  0  0
 38 36  1  0  0  0  0
 39 38  2  0  0  0  0
M  END
>  <MODEL>
9

>  <REMARK>
 VINA RESULT:      -5.4      3.892      8.045
  Name = 
  11 active torsions:
  status: ('A' for Active; 'I' for Inactive)
    1  A    between atoms: N_1  and  C_21
    2  A    between atoms: C_2  and  C_3
    3  A    between atoms: C_12  and  N_31
    4  A    between atoms: C_16  and  O_28
    5  A    between atoms: N_18  and  C_33
    6  A    between atoms: C_21  and  N_31
    7  A    between atoms: C_27  and  C_36
    8  A    between atoms: O_28  and  C_32
    9  A    between atoms: C_30  and  C_35
   10  A    between atoms: C_33  and  C_34
   11  A    between atoms: C_34  and  C_36
                            x       y       z     vdW  Elec       q    Type
                         _______ _______ _______ _____ _____    ______ ____

>  <TORSDO>
F 11

$$$$
