=
 OpenBabel11042411493D

 53 58  0  0  1  0  0  0  0  0999 V2000
  184.3360  178.1560  140.0340 C   0  0  0  0  0  3  0  0  0  0  0  0
  181.7390  179.3240  139.6740 C   0  0  0  0  0  2  0  0  0  0  0  0
  182.2000  178.2430  138.6960 C   0  0  1  0  0  3  0  0  0  0  0  0
  183.7350  178.2590  138.6600 C   0  0  2  0  0  3  0  0  0  0  0  0
  182.2650  179.0640  141.0900 C   0  0  0  0  0  2  0  0  0  0  0  0
  183.7020  178.5820  141.1330 C   0  0  0  0  0  0  0  0  0  0  0  0
  183.8490  178.8360  143.5650 C   0  0  0  0  0  3  0  0  0  0  0  0
  184.3900  178.4310  142.4210 C   0  0  0  0  0  3  0  0  0  0  0  0
  184.5450  178.6650  144.8410 C   0  0  0  0  0  0  0  0  0  0  0  0
  185.8650  178.4220  144.9380 N   0  0  0  0  0  0  0  0  0  0  0  0
  183.9770  178.7390  146.0200 O   0  0  0  0  0  0  0  0  0  0  0  0
  186.0220  178.3620  146.2780 C   0  0  0  0  0  0  0  0  0  0  0  0
  184.8680  178.5560  146.9450 N   0  0  0  0  0  0  0  0  0  0  0  0
  187.3130  178.1340  146.9330 C   0  0  0  0  0  0  0  0  0  0  0  0
  187.3570  177.9210  148.1760 O   0  0  0  0  0  0  0  0  0  0  0  0
  188.5170  178.1470  146.1610 N   0  0  0  0  0  2  0  0  0  0  0  0
  189.8160  177.8230  146.7350 C   0  0  0  0  0  2  0  0  0  0  0  0
  190.4210  176.6140  146.0330 C   0  0  2  0  0  3  0  0  0  0  0  0
  191.4880  175.9870  146.9150 C   0  0  0  0  0  1  0  0  0  0  0  0
  191.6660  176.2140  144.0760 O   0  0  0  0  0  0  0  0  0  0  0  0
  190.9180  176.9860  144.6530 C   0  0  0  0  0  0  0  0  0  0  0  0
  191.6130  178.7810  143.2340 O   0  0  0  0  0  1  0  0  0  0  0  0
  190.5340  178.2600  143.9510 C   0  0  1  0  0  3  0  0  0  0  0  0
  189.3860  178.0490  143.0590 C   0  0  0  0  0  0  0  0  0  0  0  0
  188.4820  177.8850  142.3570 N   0  0  0  0  0  0  0  0  0  0  0  0
  181.6380  176.8620  139.0710 C   0  0  0  0  0  2  0  0  0  0  0  0
  179.6870  176.0240  137.8250 N   0  0  0  0  0  2  0  0  0  0  0  0
  179.2680  175.4100  136.5660 C   0  0  0  0  0  2  0  0  0  0  0  0
  181.1510  176.0630  137.8640 C   0  0  2  0  0  3  0  0  0  0  0  0
  181.2560  173.9070  136.6050 C   0  0  1  0  0  3  0  0  0  0  0  0
  179.7340  173.9560  136.5110 C   0  0  0  0  0  2  0  0  0  0  0  0
  181.7280  174.6450  137.8560 C   0  0  0  0  0  2  0  0  0  0  0  0
  181.6950  172.5200  136.6500 N   0  0  0  0  0  2  0  0  0  0  0  0
  182.9970  172.1070  136.2350 C   0  0  0  0  0  0  0  0  0  0  0  0
  183.8230  172.9490  135.7840 O   0  0  0  0  0  0  0  0  0  0  0  0
  184.3550  170.2360  135.6980 O   0  0  0  0  0  0  0  0  0  0  0  0
  183.3620  170.6930  136.3270 C   0  0  0  0  0  3  0  0  0  0  0  0
  184.3240  177.2020  137.7330 C   0  0  0  0  0  2  0  0  0  0  0  0
  188.5600  175.9290  135.1570 C   0  0  0  0  0  3  0  0  0  0  0  0
  185.7950  177.0630  137.9660 C   0  0  0  0  0  3  0  0  0  0  0  0
  186.7080  176.9020  137.0010 C   0  0  0  0  0  0  0  0  0  0  0  0
  188.1540  176.7890  137.4040 C   0  0  1  0  0  3  0  0  0  0  0  0
  187.2840  176.4150  134.7170 N   0  0  0  0  0  0  0  0  0  0  0  0
  188.9370  176.0650  136.3960 N   0  0  0  0  0  0  0  0  0  0  0  0
  186.3930  176.8710  135.5490 C   0  0  0  0  0  0  0  0  0  0  0  0
  189.7970  178.3100  138.6430 C   0  0  1  0  0  3  0  0  0  0  0  0
  188.7500  178.1880  137.6030 C   0  0  2  0  0  3  0  0  0  0  0  0
  188.4080  178.6920  138.9440 N   0  0  0  0  0  2  0  0  0  0  0  0
  190.1400  177.0300  139.3980 C   0  0  2  0  0  3  0  0  0  0  0  0
  191.4340  177.1900  140.0980 C   0  0  0  0  0  2  0  0  0  0  0  0
  191.3360  176.5000  138.8750 O   0  0  0  0  0  0  0  0  0  0  0  0
  185.1590  177.3290  135.0740 O   0  0  0  0  0  0  0  0  0  0  0  0
  184.1530  176.4470  134.5940 C   0  0  0  0  0  1  0  0  0  0  0  0
  1  6  2  0  0  0  0
  2  5  1  0  0  0  0
  3 26  1  1  0  0  0
  3  2  1  0  0  0  0
  4 38  1  6  0  0  0
  4  3  1  0  0  0  0
  4  1  1  0  0  0  0
  5  6  1  0  0  0  0
  6  8  1  0  0  0  0
  7  9  1  0  0  0  0
  8  7  2  0  0  0  0
  9 10  2  0  0  0  0
  9 11  1  0  0  0  0
 10 12  1  0  0  0  0
 11 13  1  0  0  0  0
 12 14  1  0  0  0  0
 12 13  2  0  0  0  0
 14 15  2  0  0  0  0
 16 17  1  0  0  0  0
 16 14  1  0  0  0  0
 18 17  1  0  0  0  0
 18 19  1  1  0  0  0
 20 21  2  0  0  0  0
 21 18  1  0  0  0  0
 23 22  1  6  0  0  0
 23 21  1  0  0  0  0
 24 23  1  0  0  0  0
 25 24  3  0  0  0  0
 27 29  1  0  0  0  0
 28 27  1  0  0  0  0
 29 26  1  1  0  0  0
 30 33  1  1  0  0  0
 30 32  1  0  0  0  0
 31 28  1  0  0  0  0
 31 30  1  0  0  0  0
 32 29  1  0  0  0  0
 34 37  1  0  0  0  0
 34 33  1  0  0  0  0
 35 34  2  0  0  0  0
 36 37  2  0  0  0  0
 38 40  1  0  0  0  0
 39 44  2  0  0  0  0
 41 42  1  0  0  0  0
 41 40  2  0  0  0  0
 42 44  1  6  0  0  0
 42 47  1  0  0  0  0
 43 39  1  0  0  0  0
 43 45  2  0  0  0  0
 45 41  1  0  0  0  0
 46 48  1  1  0  0  0
 46 49  1  0  0  0  0
 47 46  1  0  0  0  0
 47 48  1  1  0  0  0
 49 50  1  1  0  0  0
 51 49  1  0  0  0  0
 51 50  1  0  0  0  0
 52 45  1  0  0  0  0
 53 52  1  0  0  0  0
M  END
>  <MODEL>
1

>  <REMARK>
 VINA RESULT:      -7.5      0.000      0.000
  Name = 
  17 active torsions:
  status: ('A' for Active; 'I' for Inactive)
    1  A    between atoms: C_2  and  C_9
    2  A    between atoms: C_5  and  C_53
    3  A    between atoms: C_7  and  C_47
    4  A    between atoms: C_11  and  C_48
    5  A    between atoms: C_12  and  C_41
    6  A    between atoms: C_13  and  C_19
    7  A    between atoms: C_14  and  C_46
    8  A    between atoms: N_15  and  C_18
    9  A    between atoms: C_16  and  C_40
   10  A    between atoms: C_20  and  C_32
   11  A    between atoms: C_21  and  C_49
   12  A    between atoms: C_21  and  C_51
   13  A    between atoms: O_27  and  C_44
   14  A    between atoms: C_30  and  C_46
   15  A    between atoms: N_31  and  C_51
   16  A    between atoms: C_33  and  C_48
   17  A    between atoms: C_41  and  C_49
                            x       y       z     vdW  Elec       q    Type
                         _______ _______ _______ _____ _____    ______ ____

>  <TORSDO>
F 17

$$$$
=
 OpenBabel11042411493D

 53 58  0  0  1  0  0  0  0  0999 V2000
  185.7200  178.4550  139.3840 C   0  0  0  0  0  3  0  0  0  0  0  0
  186.7210  179.6100  141.8140 C   0  0  0  0  0  2  0  0  0  0  0  0
  185.2500  179.1980  141.7480 C   0  0  1  0  0  3  0  0  0  0  0  0
  184.8080  179.2480  140.2780 C   0  0  2  0  0  3  0  0  0  0  0  0
  187.6090  178.6600  141.0020 C   0  0  0  0  0  2  0  0  0  0  0  0
  187.0090  178.2430  139.6740 C   0  0  0  0  0  0  0  0  0  0  0  0
  189.0920  177.1950  138.9180 C   0  0  0  0  0  3  0  0  0  0  0  0
  187.8020  177.4530  138.7230 C   0  0  0  0  0  3  0  0  0  0  0  0
  189.8620  176.3950  137.9650 C   0  0  0  0  0  0  0  0  0  0  0  0
  191.1400  176.6600  137.6390 N   0  0  0  0  0  0  0  0  0  0  0  0
  189.4100  175.3370  137.3380 O   0  0  0  0  0  0  0  0  0  0  0  0
  191.3990  175.6620  136.7660 C   0  0  0  0  0  0  0  0  0  0  0  0
  190.3410  174.8490  136.5790 N   0  0  0  0  0  0  0  0  0  0  0  0
  192.6970  175.4730  136.1130 C   0  0  0  0  0  0  0  0  0  0  0  0
  192.8080  175.6650  134.8700 O   0  0  0  0  0  0  0  0  0  0  0  0
  193.8340  175.0780  136.8860 N   0  0  0  0  0  2  0  0  0  0  0  0
  195.1700  174.9780  136.3130 C   0  0  0  0  0  2  0  0  0  0  0  0
  195.8540  173.6990  136.7800 C   0  0  2  0  0  3  0  0  0  0  0  0
  194.9470  172.5070  136.5220 C   0  0  0  0  0  1  0  0  0  0  0  0
  195.5700  173.3770  139.0940 O   0  0  0  0  0  0  0  0  0  0  0  0
  196.2980  173.8210  138.2210 C   0  0  0  0  0  0  0  0  0  0  0  0
  198.0620  175.3310  137.6480 O   0  0  0  0  0  1  0  0  0  0  0  0
  197.5950  174.4600  138.6350 C   0  0  1  0  0  3  0  0  0  0  0  0
  197.4520  175.1710  139.9120 C   0  0  0  0  0  0  0  0  0  0  0  0
  197.3410  175.7330  140.9180 N   0  0  0  0  0  0  0  0  0  0  0  0
  185.0190  177.8160  142.3810 C   0  0  0  0  0  2  0  0  0  0  0  0
  184.8110  179.0150  144.5210 N   0  0  0  0  0  2  0  0  0  0  0  0
  184.9300  178.8680  145.9710 C   0  0  0  0  0  2  0  0  0  0  0  0
  185.2950  177.7890  143.8830 C   0  0  2  0  0  3  0  0  0  0  0  0
  186.9980  177.5040  145.6900 C   0  0  1  0  0  3  0  0  0  0  0  0
  186.4000  178.7350  146.3650 C   0  0  0  0  0  2  0  0  0  0  0  0
  186.7810  177.5780  144.1800 C   0  0  0  0  0  2  0  0  0  0  0  0
  188.4200  177.4300  145.9870 N   0  0  0  0  0  2  0  0  0  0  0  0
  188.9240  177.0950  147.2800 C   0  0  0  0  0  0  0  0  0  0  0  0
  188.1330  176.8680  148.2380 O   0  0  0  0  0  0  0  0  0  0  0  0
  191.1420  176.6370  146.5720 O   0  0  0  0  0  0  0  0  0  0  0  0
  190.3710  177.0290  147.4890 C   0  0  0  0  0  3  0  0  0  0  0  0
  183.3560  178.8330  140.0730 C   0  0  0  0  0  2  0  0  0  0  0  0
  180.6900  178.6040  135.7110 C   0  0  0  0  0  3  0  0  0  0  0  0
  182.6800  179.7530  139.1080 C   0  0  0  0  0  3  0  0  0  0  0  0
  181.8580  179.3600  138.1280 C   0  0  0  0  0  0  0  0  0  0  0  0
  181.2470  180.4160  137.2470 C   0  0  1  0  0  3  0  0  0  0  0  0
  180.9240  177.6320  136.7390 N   0  0  0  0  0  0  0  0  0  0  0  0
  180.8770  179.8730  135.9350 N   0  0  0  0  0  0  0  0  0  0  0  0
  181.4740  177.9460  137.8770 C   0  0  0  0  0  0  0  0  0  0  0  0
  179.9490  182.4800  138.0240 C   0  0  1  0  0  3  0  0  0  0  0  0
  180.0030  181.0030  137.9250 C   0  0  2  0  0  3  0  0  0  0  0  0
  180.3860  181.6760  139.1780 N   0  0  0  0  0  2  0  0  0  0  0  0
  181.1470  183.2310  137.4550 C   0  0  2  0  0  3  0  0  0  0  0  0
  180.8240  184.6700  137.3250 C   0  0  0  0  0  2  0  0  0  0  0  0
  180.7820  183.8000  136.2190 O   0  0  0  0  0  0  0  0  0  0  0  0
  181.6900  176.9620  138.8470 O   0  0  0  0  0  0  0  0  0  0  0  0
  182.3100  175.7190  138.5460 C   0  0  0  0  0  1  0  0  0  0  0  0
  1  6  2  0  0  0  0
  1  4  1  0  0  0  0
  3  2  1  0  0  0  0
  3 26  1  6  0  0  0
  4 38  1  1  0  0  0
  4  3  1  0  0  0  0
  5  2  1  0  0  0  0
  6  5  1  0  0  0  0
  8  7  2  0  0  0  0
  8  6  1  0  0  0  0
  9  7  1  0  0  0  0
 10  9  2  0  0  0  0
 11  9  1  0  0  0  0
 12 10  1  0  0  0  0
 13 12  2  0  0  0  0
 13 11  1  0  0  0  0
 14 12  1  0  0  0  0
 14 16  1  0  0  0  0
 15 14  2  0  0  0  0
 17 18  1  0  0  0  0
 17 16  1  0  0  0  0
 18 19  1  1  0  0  0
 18 21  1  0  0  0  0
 21 23  1  0  0  0  0
 21 20  2  0  0  0  0
 23 22  1  6  0  0  0
 23 24  1  0  0  0  0
 24 25  3  0  0  0  0
 27 28  1  0  0  0  0
 28 31  1  0  0  0  0
 29 26  1  6  0  0  0
 29 32  1  0  0  0  0
 29 27  1  0  0  0  0
 30 33  1  6  0  0  0
 30 31  1  0  0  0  0
 32 30  1  0  0  0  0
 33 34  1  0  0  0  0
 34 37  1  0  0  0  0
 34 35  2  0  0  0  0
 36 37  2  0  0  0  0
 39 44  2  0  0  0  0
 39 43  1  0  0  0  0
 40 38  1  0  0  0  0
 41 40  2  0  0  0  0
 42 44  1  6  0  0  0
 42 47  1  0  0  0  0
 42 41  1  0  0  0  0
 43 45  2  0  0  0  0
 45 41  1  0  0  0  0
 45 52  1  0  0  0  0
 46 48  1  1  0  0  0
 47 46  1  0  0  0  0
 47 48  1  1  0  0  0
 49 50  1  1  0  0  0
 49 46  1  0  0  0  0
 51 50  1  0  0  0  0
 51 49  1  0  0  0  0
 53 52  1  0  0  0  0
M  END
>  <MODEL>
2

>  <REMARK>
 VINA RESULT:      -6.8      3.919      9.556
  Name = 
  17 active torsions:
  status: ('A' for Active; 'I' for Inactive)
    1  A    between atoms: C_2  and  C_9
    2  A    between atoms: C_5  and  C_53
    3  A    between atoms: C_7  and  C_47
    4  A    between atoms: C_11  and  C_48
    5  A    between atoms: C_12  and  C_41
    6  A    between atoms: C_13  and  C_19
    7  A    between atoms: C_14  and  C_46
    8  A    between atoms: N_15  and  C_18
    9  A    between atoms: C_16  and  C_40
   10  A    between atoms: C_20  and  C_32
   11  A    between atoms: C_21  and  C_49
   12  A    between atoms: C_21  and  C_51
   13  A    between atoms: O_27  and  C_44
   14  A    between atoms: C_30  and  C_46
   15  A    between atoms: N_31  and  C_51
   16  A    between atoms: C_33  and  C_48
   17  A    between atoms: C_41  and  C_49
                            x       y       z     vdW  Elec       q    Type
                         _______ _______ _______ _____ _____    ______ ____

>  <TORSDO>
F 17

$$$$
=
 OpenBabel11042411493D

 53 58  0  0  1  0  0  0  0  0999 V2000
  184.8590  178.2030  138.8320 C   0  0  0  0  0  3  0  0  0  0  0  0
  182.1580  178.3550  137.8720 C   0  0  0  0  0  2  0  0  0  0  0  0
  183.1300  177.3980  137.1820 C   0  0  1  0  0  3  0  0  0  0  0  0
  184.5530  177.9380  137.3850 C   0  0  2  0  0  3  0  0  0  0  0  0
  182.4360  178.4520  139.3760 C   0  0  0  0  0  2  0  0  0  0  0  0
  183.9100  178.5040  139.7270 C   0  0  0  0  0  0  0  0  0  0  0  0
  183.6550  178.2570  142.1520 C   0  0  0  0  0  3  0  0  0  0  0  0
  184.3290  178.7430  141.1140 C   0  0  0  0  0  3  0  0  0  0  0  0
  184.0970  178.4960  143.5270 C   0  0  0  0  0  0  0  0  0  0  0  0
  185.3580  178.2880  143.9470 N   0  0  0  0  0  0  0  0  0  0  0  0
  183.3310  178.9450  144.4910 O   0  0  0  0  0  0  0  0  0  0  0  0
  185.2650  178.6570  145.2430 C   0  0  0  0  0  0  0  0  0  0  0  0
  184.0260  179.0600  145.5800 N   0  0  0  0  0  0  0  0  0  0  0  0
  186.3990  178.6410  146.1720 C   0  0  0  0  0  0  0  0  0  0  0  0
  186.2710  179.1350  147.3260 O   0  0  0  0  0  0  0  0  0  0  0  0
  187.6440  178.0610  145.7690 N   0  0  0  0  0  2  0  0  0  0  0  0
  188.7700  177.9210  146.6820 C   0  0  0  0  0  2  0  0  0  0  0  0
  189.7600  176.8920  146.1500 C   0  0  2  0  0  3  0  0  0  0  0  0
  190.7360  176.5020  147.2480 C   0  0  0  0  0  1  0  0  0  0  0  0
  190.3450  178.5800  144.6170 O   0  0  0  0  0  0  0  0  0  0  0  0
  190.4340  177.3940  144.8910 C   0  0  0  0  0  0  0  0  0  0  0  0
  190.4410  175.4150  143.5490 O   0  0  0  0  0  1  0  0  0  0  0  0
  191.2110  176.5050  143.9590 C   0  0  1  0  0  3  0  0  0  0  0  0
  191.6920  177.2540  142.7910 C   0  0  0  0  0  0  0  0  0  0  0  0
  192.0680  177.8440  141.8690 N   0  0  0  0  0  0  0  0  0  0  0  0
  182.9720  175.9590  137.6980 C   0  0  0  0  0  2  0  0  0  0  0  0
  181.3960  175.3490  139.4880 N   0  0  0  0  0  2  0  0  0  0  0  0
  179.9770  175.1910  139.8060 C   0  0  0  0  0  2  0  0  0  0  0  0
  181.5290  175.6020  138.0510 C   0  0  2  0  0  3  0  0  0  0  0  0
  179.5720  174.1170  137.5930 C   0  0  1  0  0  3  0  0  0  0  0  0
  179.4160  173.9570  139.1020 C   0  0  0  0  0  2  0  0  0  0  0  0
  181.0310  174.4010  137.2440 C   0  0  0  0  0  2  0  0  0  0  0  0
  179.1270  172.9030  136.9270 N   0  0  0  0  0  2  0  0  0  0  0  0
  179.8970  171.7010  136.9140 C   0  0  0  0  0  0  0  0  0  0  0  0
  181.0270  171.6580  137.4760 O   0  0  0  0  0  0  0  0  0  0  0  0
  179.8960  170.0900  135.1720 O   0  0  0  0  0  0  0  0  0  0  0  0
  179.3680  170.5190  136.2330 C   0  0  0  0  0  3  0  0  0  0  0  0
  185.6260  177.0540  136.7600 C   0  0  0  0  0  2  0  0  0  0  0  0
  190.3070  174.9870  136.8340 C   0  0  0  0  0  3  0  0  0  0  0  0
  186.7720  176.8740  137.7030 C   0  0  0  0  0  3  0  0  0  0  0  0
  187.9910  176.4510  137.3510 C   0  0  0  0  0  0  0  0  0  0  0  0
  189.0400  176.3350  138.4240 C   0  0  1  0  0  3  0  0  0  0  0  0
  189.4840  175.4480  135.7540 N   0  0  0  0  0  0  0  0  0  0  0  0
  190.0770  175.3630  138.0590 N   0  0  0  0  0  0  0  0  0  0  0  0
  188.3930  176.1280  135.9570 C   0  0  0  0  0  0  0  0  0  0  0  0
  189.1940  178.4620  139.8400 C   0  0  1  0  0  3  0  0  0  0  0  0
  189.6890  177.7040  138.6680 C   0  0  2  0  0  3  0  0  0  0  0  0
  188.6890  178.7710  138.4920 N   0  0  0  0  0  2  0  0  0  0  0  0
  188.0870  177.7930  140.6480 C   0  0  2  0  0  3  0  0  0  0  0  0
  187.8920  178.5130  141.9260 C   0  0  0  0  0  2  0  0  0  0  0  0
  188.6310  177.3170  141.8570 O   0  0  0  0  0  0  0  0  0  0  0  0
  187.6180  176.5520  134.8720 O   0  0  0  0  0  0  0  0  0  0  0  0
  187.3830  177.9260  134.5940 C   0  0  0  0  0  1  0  0  0  0  0  0
  1  6  2  0  0  0  0
  2  5  1  0  0  0  0
  3  4  1  0  0  0  0
  3 26  1  1  0  0  0
  3  2  1  0  0  0  0
  4 38  1  1  0  0  0
  4  1  1  0  0  0  0
  5  6  1  0  0  0  0
  6  8  1  0  0  0  0
  7  9  1  0  0  0  0
  8  7  2  0  0  0  0
  9 10  2  0  0  0  0
  9 11  1  0  0  0  0
 10 12  1  0  0  0  0
 11 13  1  0  0  0  0
 12 13  2  0  0  0  0
 12 14  1  0  0  0  0
 14 15  2  0  0  0  0
 16 14  1  0  0  0  0
 16 17  1  0  0  0  0
 18 17  1  0  0  0  0
 18 19  1  1  0  0  0
 20 21  2  0  0  0  0
 21 18  1  0  0  0  0
 23 22  1  6  0  0  0
 23 21  1  0  0  0  0
 24 23  1  0  0  0  0
 25 24  3  0  0  0  0
 27 28  1  0  0  0  0
 29 26  1  1  0  0  0
 29 27  1  0  0  0  0
 30 33  1  6  0  0  0
 30 31  1  0  0  0  0
 31 28  1  0  0  0  0
 32 30  1  0  0  0  0
 32 29  1  0  0  0  0
 34 33  1  0  0  0  0
 34 35  2  0  0  0  0
 36 37  2  0  0  0  0
 37 34  1  0  0  0  0
 38 40  1  0  0  0  0
 39 44  2  0  0  0  0
 41 40  2  0  0  0  0
 42 41  1  6  0  0  0
 42 47  1  0  0  0  0
 43 45  2  0  0  0  0
 43 39  1  0  0  0  0
 44 42  1  0  0  0  0
 45 41  1  0  0  0  0
 46 48  1  6  0  0  0
 46 49  1  0  0  0  0
 47 48  1  6  0  0  0
 47 46  1  0  0  0  0
 49 51  1  0  0  0  0
 49 50  1  1  0  0  0
 51 50  1  0  0  0  0
 52 45  1  0  0  0  0
 53 52  1  0  0  0  0
M  END
>  <MODEL>
3

>  <REMARK>
 VINA RESULT:      -6.8      1.836      2.294
  Name = 
  17 active torsions:
  status: ('A' for Active; 'I' for Inactive)
    1  A    between atoms: C_2  and  C_9
    2  A    between atoms: C_5  and  C_53
    3  A    between atoms: C_7  and  C_47
    4  A    between atoms: C_11  and  C_48
    5  A    between atoms: C_12  and  C_41
    6  A    between atoms: C_13  and  C_19
    7  A    between atoms: C_14  and  C_46
    8  A    between atoms: N_15  and  C_18
    9  A    between atoms: C_16  and  C_40
   10  A    between atoms: C_20  and  C_32
   11  A    between atoms: C_21  and  C_49
   12  A    between atoms: C_21  and  C_51
   13  A    between atoms: O_27  and  C_44
   14  A    between atoms: C_30  and  C_46
   15  A    between atoms: N_31  and  C_51
   16  A    between atoms: C_33  and  C_48
   17  A    between atoms: C_41  and  C_49
                            x       y       z     vdW  Elec       q    Type
                         _______ _______ _______ _____ _____    ______ ____

>  <TORSDO>
F 17

$$$$
=
 OpenBabel11042411493D

 53 58  0  0  1  0  0  0  0  0999 V2000
  187.7820  177.1310  138.3330 C   0  0  0  0  0  3  0  0  0  0  0  0
  189.8210  177.2130  136.3130 C   0  0  0  0  0  2  0  0  0  0  0  0
  190.2430  177.1620  137.7820 C   0  0  1  0  0  3  0  0  0  0  0  0
  189.1110  177.7710  138.6230 C   0  0  2  0  0  3  0  0  0  0  0  0
  188.5400  176.4070  136.0680 C   0  0  0  0  0  2  0  0  0  0  0  0
  187.4930  176.5710  137.1520 C   0  0  0  0  0  0  0  0  0  0  0  0
  185.9500  174.6680  137.0810 C   0  0  0  0  0  3  0  0  0  0  0  0
  186.1610  175.9780  136.9850 C   0  0  0  0  0  3  0  0  0  0  0  0
  184.6120  174.0970  136.9240 C   0  0  0  0  0  0  0  0  0  0  0  0
  183.5340  174.5400  137.5970 N   0  0  0  0  0  0  0  0  0  0  0  0
  184.3090  173.1130  136.1130 O   0  0  0  0  0  0  0  0  0  0  0  0
  182.5710  173.7290  137.1080 C   0  0  0  0  0  0  0  0  0  0  0  0
  183.0400  172.8540  136.1980 N   0  0  0  0  0  0  0  0  0  0  0  0
  181.1630  173.8110  137.5090 C   0  0  0  0  0  0  0  0  0  0  0  0
  180.4920  172.7540  137.6660 O   0  0  0  0  0  0  0  0  0  0  0  0
  180.5560  175.0890  137.7240 N   0  0  0  0  0  2  0  0  0  0  0  0
  179.1950  175.2310  138.2240 C   0  0  0  0  0  2  0  0  0  0  0  0
  178.9360  176.6690  138.6590 C   0  0  2  0  0  3  0  0  0  0  0  0
  179.2690  177.6180  137.5200 C   0  0  0  0  0  1  0  0  0  0  0  0
  179.4880  176.2600  140.9100 O   0  0  0  0  0  0  0  0  0  0  0  0
  179.6700  176.9830  139.9440 C   0  0  0  0  0  0  0  0  0  0  0  0
  180.3150  178.8930  141.2300 O   0  0  0  0  0  1  0  0  0  0  0  0
  180.6180  178.1420  140.0930 C   0  0  1  0  0  3  0  0  0  0  0  0
  182.0120  177.6830  140.1430 C   0  0  0  0  0  0  0  0  0  0  0  0
  183.1090  177.3200  140.1830 N   0  0  0  0  0  0  0  0  0  0  0  0
  190.5950  175.7320  138.2220 C   0  0  0  0  0  2  0  0  0  0  0  0
  191.3370  173.6500  137.1390 N   0  0  0  0  0  2  0  0  0  0  0  0
  192.2560  173.1040  136.1410 C   0  0  0  0  0  2  0  0  0  0  0  0
  191.6440  175.0700  137.3310 C   0  0  2  0  0  3  0  0  0  0  0  0
  194.0700  174.6130  136.9440 C   0  0  1  0  0  3  0  0  0  0  0  0
  193.6910  173.1630  136.6620 C   0  0  0  0  0  2  0  0  0  0  0  0
  193.0560  175.2440  137.8950 C   0  0  0  0  0  2  0  0  0  0  0  0
  195.4010  174.6620  137.5300 N   0  0  0  0  0  2  0  0  0  0  0  0
  196.5930  174.6850  136.7440 C   0  0  0  0  0  0  0  0  0  0  0  0
  196.5300  174.6410  135.4840 O   0  0  0  0  0  0  0  0  0  0  0  0
  198.0660  175.4870  138.4230 O   0  0  0  0  0  0  0  0  0  0  0  0
  197.8910  174.7500  137.4150 C   0  0  0  0  0  3  0  0  0  0  0  0
  189.4010  177.7570  140.1190 C   0  0  0  0  0  2  0  0  0  0  0  0
  187.7830  177.3480  144.9570 C   0  0  0  0  0  3  0  0  0  0  0  0
  188.1290  177.8360  140.9000 C   0  0  0  0  0  3  0  0  0  0  0  0
  188.0550  177.8880  142.2350 C   0  0  0  0  0  0  0  0  0  0  0  0
  186.6920  177.9770  142.8680 C   0  0  1  0  0  3  0  0  0  0  0  0
  189.0700  177.6560  144.4030 N   0  0  0  0  0  0  0  0  0  0  0  0
  186.7020  177.4570  144.2400 N   0  0  0  0  0  0  0  0  0  0  0  0
  189.2360  177.9070  143.1370 C   0  0  0  0  0  0  0  0  0  0  0  0
  184.7920  179.6570  143.2100 C   0  0  1  0  0  3  0  0  0  0  0  0
  186.2180  179.4360  142.8800 C   0  0  2  0  0  3  0  0  0  0  0  0
  185.2330  179.6510  141.8060 N   0  0  0  0  0  2  0  0  0  0  0  0
  183.9680  178.4020  143.4810 C   0  0  2  0  0  3  0  0  0  0  0  0
  182.5760  178.7770  143.8160 C   0  0  0  0  0  2  0  0  0  0  0  0
  183.5100  178.4370  144.8130 O   0  0  0  0  0  0  0  0  0  0  0  0
  190.5110  178.1970  142.6400 O   0  0  0  0  0  0  0  0  0  0  0  0
  191.6400  177.3770  142.9160 C   0  0  0  0  0  1  0  0  0  0  0  0
  1  4  1  0  0  0  0
  2  3  1  0  0  0  0
  3 26  1  1  0  0  0
  3  4  1  0  0  0  0
  4 38  1  1  0  0  0
  5  2  1  0  0  0  0
  5  6  1  0  0  0  0
  6  1  2  0  0  0  0
  8  7  2  0  0  0  0
  8  6  1  0  0  0  0
  9  7  1  0  0  0  0
  9 10  2  0  0  0  0
 11 13  1  0  0  0  0
 11  9  1  0  0  0  0
 12 14  1  0  0  0  0
 12 10  1  0  0  0  0
 13 12  2  0  0  0  0
 14 15  2  0  0  0  0
 14 16  1  0  0  0  0
 16 17  1  0  0  0  0
 17 18  1  0  0  0  0
 18 19  1  6  0  0  0
 18 21  1  0  0  0  0
 21 23  1  0  0  0  0
 21 20  2  0  0  0  0
 23 24  1  0  0  0  0
 23 22  1  1  0  0  0
 24 25  3  0  0  0  0
 27 29  1  0  0  0  0
 28 31  1  0  0  0  0
 28 27  1  0  0  0  0
 29 32  1  0  0  0  0
 29 26  1  1  0  0  0
 30 33  1  1  0  0  0
 30 32  1  0  0  0  0
 31 30  1  0  0  0  0
 34 37  1  0  0  0  0
 34 33  1  0  0  0  0
 35 34  2  0  0  0  0
 37 36  2  0  0  0  0
 38 40  1  0  0  0  0
 40 41  2  0  0  0  0
 41 45  1  0  0  0  0
 42 41  1  1  0  0  0
 42 47  1  0  0  0  0
 42 44  1  0  0  0  0
 43 39  1  0  0  0  0
 44 39  2  0  0  0  0
 45 43  2  0  0  0  0
 46 48  1  6  0  0  0
 46 49  1  0  0  0  0
 47 48  1  6  0  0  0
 47 46  1  0  0  0  0
 49 50  1  6  0  0  0
 49 51  1  0  0  0  0
 50 51  1  0  0  0  0
 52 53  1  0  0  0  0
 52 45  1  0  0  0  0
M  END
>  <MODEL>
4

>  <REMARK>
 VINA RESULT:      -6.7      3.328     10.378
  Name = 
  17 active torsions:
  status: ('A' for Active; 'I' for Inactive)
    1  A    between atoms: C_2  and  C_9
    2  A    between atoms: C_5  and  C_53
    3  A    between atoms: C_7  and  C_47
    4  A    between atoms: C_11  and  C_48
    5  A    between atoms: C_12  and  C_41
    6  A    between atoms: C_13  and  C_19
    7  A    between atoms: C_14  and  C_46
    8  A    between atoms: N_15  and  C_18
    9  A    between atoms: C_16  and  C_40
   10  A    between atoms: C_20  and  C_32
   11  A    between atoms: C_21  and  C_49
   12  A    between atoms: C_21  and  C_51
   13  A    between atoms: O_27  and  C_44
   14  A    between atoms: C_30  and  C_46
   15  A    between atoms: N_31  and  C_51
   16  A    between atoms: C_33  and  C_48
   17  A    between atoms: C_41  and  C_49
                            x       y       z     vdW  Elec       q    Type
                         _______ _______ _______ _____ _____    ______ ____

>  <TORSDO>
F 17

$$$$
=
 OpenBabel11042411493D

 53 58  0  0  1  0  0  0  0  0999 V2000
  187.4480  178.2690  139.1720 C   0  0  0  0  0  3  0  0  0  0  0  0
  189.4410  178.2230  137.1060 C   0  0  0  0  0  2  0  0  0  0  0  0
  189.7330  177.5060  138.4240 C   0  0  1  0  0  3  0  0  0  0  0  0
  188.9060  178.1840  139.5270 C   0  0  2  0  0  3  0  0  0  0  0  0
  187.9570  178.1320  136.7320 C   0  0  0  0  0  2  0  0  0  0  0  0
  187.0150  178.3140  137.9060 C   0  0  0  0  0  0  0  0  0  0  0  0
  184.8090  177.3150  137.5310 C   0  0  0  0  0  3  0  0  0  0  0  0
  185.5660  178.3970  137.6820 C   0  0  0  0  0  3  0  0  0  0  0  0
  183.3640  177.4190  137.3210 C   0  0  0  0  0  0  0  0  0  0  0  0
  182.6570  178.5350  137.5730 N   0  0  0  0  0  0  0  0  0  0  0  0
  182.6040  176.4570  136.8580 O   0  0  0  0  0  0  0  0  0  0  0  0
  181.4150  178.1440  137.2150 C   0  0  0  0  0  0  0  0  0  0  0  0
  181.3780  176.8710  136.7760 N   0  0  0  0  0  0  0  0  0  0  0  0
  180.2410  179.0190  137.2780 C   0  0  0  0  0  0  0  0  0  0  0  0
  179.3480  178.8110  138.1450 O   0  0  0  0  0  0  0  0  0  0  0  0
  180.1130  180.1080  136.3580 N   0  0  0  0  0  2  0  0  0  0  0  0
  179.0240  181.0730  136.4390 C   0  0  0  0  0  2  0  0  0  0  0  0
  179.4770  182.4310  135.9170 C   0  0  2  0  0  3  0  0  0  0  0  0
  180.7000  182.2590  135.0310 C   0  0  0  0  0  1  0  0  0  0  0  0
  179.7810  182.9600  138.1900 O   0  0  0  0  0  0  0  0  0  0  0  0
  179.6860  183.4030  137.0570 C   0  0  0  0  0  0  0  0  0  0  0  0
  178.9310  185.3260  135.8520 O   0  0  0  0  0  1  0  0  0  0  0  0
  179.7870  184.8920  136.8660 C   0  0  1  0  0  3  0  0  0  0  0  0
  179.4980  185.6080  138.1150 C   0  0  0  0  0  0  0  0  0  0  0  0
  179.2720  186.1700  139.1010 N   0  0  0  0  0  0  0  0  0  0  0  0
  189.4510  175.9980  138.3250 C   0  0  0  0  0  2  0  0  0  0  0  0
  189.5940  174.1800  136.6720 N   0  0  0  0  0  2  0  0  0  0  0  0
  190.3950  173.6500  135.5690 C   0  0  0  0  0  2  0  0  0  0  0  0
  190.3230  175.2900  137.2910 C   0  0  2  0  0  3  0  0  0  0  0  0
  192.4940  174.1450  136.8200 C   0  0  1  0  0  3  0  0  0  0  0  0
  191.6970  173.0580  136.1050 C   0  0  0  0  0  2  0  0  0  0  0  0
  191.6360  174.7970  137.9020 C   0  0  0  0  0  2  0  0  0  0  0  0
  193.6880  173.5620  137.4130 N   0  0  0  0  0  2  0  0  0  0  0  0
  194.7120  174.3480  138.0220 C   0  0  0  0  0  0  0  0  0  0  0  0
  194.6240  175.6080  138.0460 O   0  0  0  0  0  0  0  0  0  0  0  0
  196.5110  174.2020  139.5630 O   0  0  0  0  0  0  0  0  0  0  0  0
  195.8730  173.6790  138.6090 C   0  0  0  0  0  3  0  0  0  0  0  0
  189.0910  177.5420  140.8960 C   0  0  0  0  0  2  0  0  0  0  0  0
  187.5160  177.3690  145.7630 C   0  0  0  0  0  3  0  0  0  0  0  0
  187.8190  177.6030  141.6800 C   0  0  0  0  0  3  0  0  0  0  0  0
  187.7470  177.7400  143.0090 C   0  0  0  0  0  0  0  0  0  0  0  0
  186.3840  177.7970  143.6450 C   0  0  1  0  0  3  0  0  0  0  0  0
  188.7820  177.7100  145.1810 N   0  0  0  0  0  0  0  0  0  0  0  0
  186.4280  177.3710  145.0480 N   0  0  0  0  0  0  0  0  0  0  0  0
  188.9290  177.8840  143.8990 C   0  0  0  0  0  0  0  0  0  0  0  0
  184.5550  179.3900  142.8290 C   0  0  1  0  0  3  0  0  0  0  0  0
  185.8310  179.2250  143.5630 C   0  0  2  0  0  3  0  0  0  0  0  0
  185.8350  179.6840  142.1630 N   0  0  0  0  0  2  0  0  0  0  0  0
  183.9600  178.1200  142.2320 C   0  0  2  0  0  3  0  0  0  0  0  0
  183.2340  178.4430  140.9830 C   0  0  0  0  0  2  0  0  0  0  0  0
  182.5570  178.2450  142.2010 O   0  0  0  0  0  0  0  0  0  0  0  0
  190.1850  178.2090  143.3750 O   0  0  0  0  0  0  0  0  0  0  0  0
  191.0330  179.1790  143.9760 C   0  0  0  0  0  1  0  0  0  0  0  0
  1  4  1  0  0  0  0
  2  3  1  0  0  0  0
  3 26  1  6  0  0  0
  3  4  1  0  0  0  0
  4 38  1  1  0  0  0
  5  2  1  0  0  0  0
  5  6  1  0  0  0  0
  6  1  2  0  0  0  0
  7  8  2  0  0  0  0
  8  6  1  0  0  0  0
  9  7  1  0  0  0  0
  9 10  2  0  0  0  0
 11  9  1  0  0  0  0
 12 14  1  0  0  0  0
 12 10  1  0  0  0  0
 13 11  1  0  0  0  0
 13 12  2  0  0  0  0
 14 15  2  0  0  0  0
 16 17  1  0  0  0  0
 16 14  1  0  0  0  0
 18 19  1  1  0  0  0
 18 17  1  0  0  0  0
 18 21  1  0  0  0  0
 21 20  2  0  0  0  0
 23 22  1  6  0  0  0
 23 21  1  0  0  0  0
 23 24  1  0  0  0  0
 24 25  3  0  0  0  0
 27 29  1  0  0  0  0
 28 31  1  0  0  0  0
 28 27  1  0  0  0  0
 29 32  1  0  0  0  0
 29 26  1  1  0  0  0
 30 33  1  1  0  0  0
 30 32  1  0  0  0  0
 31 30  1  0  0  0  0
 33 34  1  0  0  0  0
 34 35  2  0  0  0  0
 34 37  1  0  0  0  0
 37 36  2  0  0  0  0
 38 40  1  0  0  0  0
 40 41  2  0  0  0  0
 41 45  1  0  0  0  0
 42 41  1  1  0  0  0
 42 44  1  0  0  0  0
 43 39  1  0  0  0  0
 44 39  2  0  0  0  0
 45 43  2  0  0  0  0
 46 48  1  6  0  0  0
 46 47  1  0  0  0  0
 47 48  1  6  0  0  0
 47 42  1  0  0  0  0
 49 50  1  6  0  0  0
 49 46  1  0  0  0  0
 50 51  1  0  0  0  0
 51 49  1  0  0  0  0
 52 45  1  0  0  0  0
 52 53  1  0  0  0  0
M  END
>  <MODEL>
5

>  <REMARK>
 VINA RESULT:      -6.7      4.019     10.508
  Name = 
  17 active torsions:
  status: ('A' for Active; 'I' for Inactive)
    1  A    between atoms: C_2  and  C_9
    2  A    between atoms: C_5  and  C_53
    3  A    between atoms: C_7  and  C_47
    4  A    between atoms: C_11  and  C_48
    5  A    between atoms: C_12  and  C_41
    6  A    between atoms: C_13  and  C_19
    7  A    between atoms: C_14  and  C_46
    8  A    between atoms: N_15  and  C_18
    9  A    between atoms: C_16  and  C_40
   10  A    between atoms: C_20  and  C_32
   11  A    between atoms: C_21  and  C_49
   12  A    between atoms: C_21  and  C_51
   13  A    between atoms: O_27  and  C_44
   14  A    between atoms: C_30  and  C_46
   15  A    between atoms: N_31  and  C_51
   16  A    between atoms: C_33  and  C_48
   17  A    between atoms: C_41  and  C_49
                            x       y       z     vdW  Elec       q    Type
                         _______ _______ _______ _____ _____    ______ ____

>  <TORSDO>
F 17

$$$$
=
 OpenBabel11042411493D

 53 58  0  0  1  0  0  0  0  0999 V2000
  186.0160  178.4490  140.1070 C   0  0  0  0  0  3  0  0  0  0  0  0
  187.3350  179.5390  142.4120 C   0  0  0  0  0  2  0  0  0  0  0  0
  185.8760  179.0990  142.5400 C   0  0  1  0  0  3  0  0  0  0  0  0
  185.2290  179.1910  141.1500 C   0  0  2  0  0  3  0  0  0  0  0  0
  188.1130  178.6360  141.4480 C   0  0  0  0  0  2  0  0  0  0  0  0
  187.3360  178.2520  140.2030 C   0  0  0  0  0  0  0  0  0  0  0  0
  189.2100  176.9850  139.2610 C   0  0  0  0  0  3  0  0  0  0  0  0
  187.9980  177.5130  139.1210 C   0  0  0  0  0  3  0  0  0  0  0  0
  189.8470  176.2390  138.1750 C   0  0  0  0  0  0  0  0  0  0  0  0
  191.0220  175.5970  138.3070 N   0  0  0  0  0  0  0  0  0  0  0  0
  189.3510  176.1010  136.9700 O   0  0  0  0  0  0  0  0  0  0  0  0
  191.1700  175.0680  137.0730 C   0  0  0  0  0  0  0  0  0  0  0  0
  190.1490  175.3740  136.2510 N   0  0  0  0  0  0  0  0  0  0  0  0
  192.3090  174.2330  136.6820 C   0  0  0  0  0  0  0  0  0  0  0  0
  192.3080  173.6540  135.5610 O   0  0  0  0  0  0  0  0  0  0  0  0
  193.4210  174.0800  137.5700 N   0  0  0  0  0  2  0  0  0  0  0  0
  194.6250  173.3510  137.1950 C   0  0  0  0  0  2  0  0  0  0  0  0
  195.8300  174.2830  137.1830 C   0  0  2  0  0  3  0  0  0  0  0  0
  195.8400  175.0940  135.8990 C   0  0  0  0  0  1  0  0  0  0  0  0
  197.1440  172.3320  137.1170 O   0  0  0  0  0  0  0  0  0  0  0  0
  197.1100  173.5130  137.4240 C   0  0  0  0  0  0  0  0  0  0  0  0
  199.0430  174.8740  137.0670 O   0  0  0  0  0  1  0  0  0  0  0  0
  198.3460  174.1280  138.0200 C   0  0  1  0  0  3  0  0  0  0  0  0
  198.0150  174.9670  139.1790 C   0  0  0  0  0  0  0  0  0  0  0  0
  197.7540  175.6260  140.0930 N   0  0  0  0  0  0  0  0  0  0  0  0
  185.7590  177.6920  143.1480 C   0  0  0  0  0  2  0  0  0  0  0  0
  185.6810  179.0030  145.2300 N   0  0  0  0  0  2  0  0  0  0  0  0
  185.6820  178.8990  146.6880 C   0  0  0  0  0  2  0  0  0  0  0  0
  185.9350  177.6750  144.6650 C   0  0  2  0  0  3  0  0  0  0  0  0
  187.4320  177.1260  146.5890 C   0  0  1  0  0  3  0  0  0  0  0  0
  187.0660  178.4830  147.1830 C   0  0  0  0  0  2  0  0  0  0  0  0
  187.3240  177.1750  145.0660 C   0  0  0  0  0  2  0  0  0  0  0  0
  188.7870  176.7730  146.9820 N   0  0  0  0  0  2  0  0  0  0  0  0
  189.9440  177.3230  146.3500 C   0  0  0  0  0  0  0  0  0  0  0  0
  189.8250  178.1370  145.3920 O   0  0  0  0  0  0  0  0  0  0  0  0
  191.9720  176.1060  146.1640 O   0  0  0  0  0  0  0  0  0  0  0  0
  191.2720  176.9250  146.8180 C   0  0  0  0  0  3  0  0  0  0  0  0
  183.7690  178.7530  141.1380 C   0  0  0  0  0  2  0  0  0  0  0  0
  180.0280  175.6850  139.4700 C   0  0  0  0  0  3  0  0  0  0  0  0
  183.5950  177.5330  140.2920 C   0  0  0  0  0  3  0  0  0  0  0  0
  182.4190  177.0660  139.8580 C   0  0  0  0  0  0  0  0  0  0  0  0
  182.4180  175.8280  139.0010 C   0  0  1  0  0  3  0  0  0  0  0  0
  180.0150  177.0430  139.9320 N   0  0  0  0  0  0  0  0  0  0  0  0
  181.1360  175.1200  139.0830 N   0  0  0  0  0  0  0  0  0  0  0  0
  181.1110  177.7170  140.1300 C   0  0  0  0  0  0  0  0  0  0  0  0
  183.6260  175.3160  136.8050 C   0  0  1  0  0  3  0  0  0  0  0  0
  182.6990  176.2050  137.5410 C   0  0  2  0  0  3  0  0  0  0  0  0
  184.1160  176.5780  137.3840 N   0  0  0  0  0  2  0  0  0  0  0  0
  184.1990  174.1460  137.5970 C   0  0  2  0  0  3  0  0  0  0  0  0
  184.8420  173.1820  136.6760 C   0  0  0  0  0  2  0  0  0  0  0  0
  183.5510  172.9620  137.1930 O   0  0  0  0  0  0  0  0  0  0  0  0
  181.0490  179.0370  140.5880 O   0  0  0  0  0  0  0  0  0  0  0  0
  180.6460  180.1150  139.7520 C   0  0  0  0  0  1  0  0  0  0  0  0
  1  6  2  0  0  0  0
  1  4  1  0  0  0  0
  2  3  1  0  0  0  0
  3 26  1  6  0  0  0
  4 38  1  1  0  0  0
  4  3  1  0  0  0  0
  5  2  1  0  0  0  0
  6  5  1  0  0  0  0
  8  7  2  0  0  0  0
  8  6  1  0  0  0  0
  9 10  2  0  0  0  0
  9  7  1  0  0  0  0
 11  9  1  0  0  0  0
 12 10  1  0  0  0  0
 13 11  1  0  0  0  0
 13 12  2  0  0  0  0
 14 12  1  0  0  0  0
 14 16  1  0  0  0  0
 15 14  2  0  0  0  0
 17 16  1  0  0  0  0
 18 19  1  6  0  0  0
 18 17  1  0  0  0  0
 18 21  1  0  0  0  0
 20 21  2  0  0  0  0
 21 23  1  0  0  0  0
 23 22  1  6  0  0  0
 23 24  1  0  0  0  0
 24 25  3  0  0  0  0
 27 28  1  0  0  0  0
 28 31  1  0  0  0  0
 29 26  1  6  0  0  0
 29 32  1  0  0  0  0
 29 27  1  0  0  0  0
 30 33  1  6  0  0  0
 30 31  1  0  0  0  0
 32 30  1  0  0  0  0
 34 37  1  0  0  0  0
 34 33  1  0  0  0  0
 35 34  2  0  0  0  0
 36 37  2  0  0  0  0
 39 43  1  0  0  0  0
 40 38  1  0  0  0  0
 41 45  1  0  0  0  0
 41 40  2  0  0  0  0
 42 44  1  6  0  0  0
 42 41  1  0  0  0  0
 43 45  2  0  0  0  0
 44 39  2  0  0  0  0
 45 52  1  0  0  0  0
 46 48  1  1  0  0  0
 46 47  1  0  0  0  0
 46 49  1  0  0  0  0
 47 48  1  1  0  0  0
 47 42  1  0  0  0  0
 49 50  1  6  0  0  0
 50 51  1  0  0  0  0
 51 49  1  0  0  0  0
 53 52  1  0  0  0  0
M  END
>  <MODEL>
6

>  <REMARK>
 VINA RESULT:      -6.5      3.738      9.434
  Name = 
  17 active torsions:
  status: ('A' for Active; 'I' for Inactive)
    1  A    between atoms: C_2  and  C_9
    2  A    between atoms: C_5  and  C_53
    3  A    between atoms: C_7  and  C_47
    4  A    between atoms: C_11  and  C_48
    5  A    between atoms: C_12  and  C_41
    6  A    between atoms: C_13  and  C_19
    7  A    between atoms: C_14  and  C_46
    8  A    between atoms: N_15  and  C_18
    9  A    between atoms: C_16  and  C_40
   10  A    between atoms: C_20  and  C_32
   11  A    between atoms: C_21  and  C_49
   12  A    between atoms: C_21  and  C_51
   13  A    between atoms: O_27  and  C_44
   14  A    between atoms: C_30  and  C_46
   15  A    between atoms: N_31  and  C_51
   16  A    between atoms: C_33  and  C_48
   17  A    between atoms: C_41  and  C_49
                            x       y       z     vdW  Elec       q    Type
                         _______ _______ _______ _____ _____    ______ ____

>  <TORSDO>
F 17

$$$$
=
 OpenBabel11042411493D

 53 58  0  0  1  0  0  0  0  0999 V2000
  188.2960  176.9440  137.2460 C   0  0  0  0  0  3  0  0  0  0  0  0
  189.3040  176.4320  134.6080 C   0  0  0  0  0  2  0  0  0  0  0  0
  190.2460  176.2640  135.7990 C   0  0  1  0  0  3  0  0  0  0  0  0
  189.7480  177.1740  136.9310 C   0  0  2  0  0  3  0  0  0  0  0  0
  187.8680  176.0290  134.9640 C   0  0  0  0  0  2  0  0  0  0  0  0
  187.4240  176.4900  136.3390 C   0  0  0  0  0  0  0  0  0  0  0  0
  185.4740  175.1020  136.8660 C   0  0  0  0  0  3  0  0  0  0  0  0
  186.0300  176.3050  136.7620 C   0  0  0  0  0  3  0  0  0  0  0  0
  184.0870  174.9380  137.3030 C   0  0  0  0  0  0  0  0  0  0  0  0
  183.4850  175.7590  138.1830 N   0  0  0  0  0  0  0  0  0  0  0  0
  183.2770  173.9970  136.8840 O   0  0  0  0  0  0  0  0  0  0  0  0
  182.2500  175.2170  138.2430 C   0  0  0  0  0  0  0  0  0  0  0  0
  182.1170  174.1380  137.4490 N   0  0  0  0  0  0  0  0  0  0  0  0
  181.1660  175.7610  139.0660 C   0  0  0  0  0  0  0  0  0  0  0  0
  180.0250  175.2220  139.0380 O   0  0  0  0  0  0  0  0  0  0  0  0
  181.4060  176.8970  139.9020 N   0  0  0  0  0  2  0  0  0  0  0  0
  180.4010  177.4170  140.8200 C   0  0  0  0  0  2  0  0  0  0  0  0
  180.8970  178.6950  141.4840 C   0  0  2  0  0  3  0  0  0  0  0  0
  180.5570  178.6720  142.9640 C   0  0  0  0  0  1  0  0  0  0  0  0
  180.0170  180.8770  141.4230 O   0  0  0  0  0  0  0  0  0  0  0  0
  180.3720  179.9160  140.7600 C   0  0  0  0  0  0  0  0  0  0  0  0
  178.9320  180.0810  138.8580 O   0  0  0  0  0  1  0  0  0  0  0  0
  180.2670  180.0080  139.2620 C   0  0  1  0  0  3  0  0  0  0  0  0
  181.0160  181.1620  138.7480 C   0  0  0  0  0  0  0  0  0  0  0  0
  181.6080  182.0700  138.3440 N   0  0  0  0  0  0  0  0  0  0  0  0
  190.3540  174.7940  136.2350 C   0  0  0  0  0  2  0  0  0  0  0  0
  191.6850  172.8040  135.6610 N   0  0  0  0  0  2  0  0  0  0  0  0
  193.0310  172.3440  135.3240 C   0  0  0  0  0  2  0  0  0  0  0  0
  191.7550  174.2140  136.0540 C   0  0  2  0  0  3  0  0  0  0  0  0
  194.0070  173.8330  137.0690 C   0  0  1  0  0  3  0  0  0  0  0  0
  193.9280  172.3970  136.5600 C   0  0  0  0  0  2  0  0  0  0  0  0
  192.6020  174.3790  137.3180 C   0  0  0  0  0  2  0  0  0  0  0  0
  194.7810  173.8700  138.3010 N   0  0  0  0  0  2  0  0  0  0  0  0
  196.0620  174.4940  138.3910 C   0  0  0  0  0  0  0  0  0  0  0  0
  196.5880  175.0280  137.3750 O   0  0  0  0  0  0  0  0  0  0  0  0
  197.4830  175.4770  140.0170 O   0  0  0  0  0  0  0  0  0  0  0  0
  196.7670  174.4980  139.6730 C   0  0  0  0  0  3  0  0  0  0  0  0
  190.5950  177.0800  138.1950 C   0  0  0  0  0  2  0  0  0  0  0  0
  191.0390  176.8460  143.2880 C   0  0  0  0  0  3  0  0  0  0  0  0
  189.7240  177.0730  139.4100 C   0  0  0  0  0  3  0  0  0  0  0  0
  190.1650  177.2140  140.6660 C   0  0  0  0  0  0  0  0  0  0  0  0
  189.1540  177.1960  141.7800 C   0  0  1  0  0  3  0  0  0  0  0  0
  191.9600  177.2560  142.2670 N   0  0  0  0  0  0  0  0  0  0  0  0
  189.7610  176.7820  143.0500 N   0  0  0  0  0  0  0  0  0  0  0  0
  191.5890  177.4310  141.0310 C   0  0  0  0  0  0  0  0  0  0  0  0
  187.3530  178.6790  142.8320 C   0  0  1  0  0  3  0  0  0  0  0  0
  188.5340  178.5890  141.9430 C   0  0  2  0  0  3  0  0  0  0  0  0
  187.1750  178.6030  141.3730 N   0  0  0  0  0  2  0  0  0  0  0  0
  186.8910  177.3690  143.4620 C   0  0  2  0  0  3  0  0  0  0  0  0
  185.8820  177.6430  144.5100 C   0  0  0  0  0  2  0  0  0  0  0  0
  187.2270  177.3790  144.8310 O   0  0  0  0  0  0  0  0  0  0  0  0
  192.5240  177.8240  140.0680 O   0  0  0  0  0  0  0  0  0  0  0  0
  193.7140  177.0880  139.8160 C   0  0  0  0  0  1  0  0  0  0  0  0
  2  5  1  0  0  0  0
  2  3  1  0  0  0  0
  3 26  1  1  0  0  0
  3  4  1  0  0  0  0
  4  1  1  0  0  0  0
  4 38  1  1  0  0  0
  5  6  1  0  0  0  0
  6  8  1  0  0  0  0
  6  1  2  0  0  0  0
  7  9  1  0  0  0  0
  8  7  2  0  0  0  0
  9 10  2  0  0  0  0
 10 12  1  0  0  0  0
 11  9  1  0  0  0  0
 11 13  1  0  0  0  0
 12 14  1  0  0  0  0
 13 12  2  0  0  0  0
 14 16  1  0  0  0  0
 15 14  2  0  0  0  0
 16 17  1  0  0  0  0
 17 18  1  0  0  0  0
 18 19  1  1  0  0  0
 21 20  2  0  0  0  0
 21 18  1  0  0  0  0
 23 22  1  1  0  0  0
 23 21  1  0  0  0  0
 24 23  1  0  0  0  0
 25 24  3  0  0  0  0
 27 29  1  0  0  0  0
 28 27  1  0  0  0  0
 28 31  1  0  0  0  0
 29 26  1  1  0  0  0
 29 32  1  0  0  0  0
 30 32  1  0  0  0  0
 30 33  1  1  0  0  0
 31 30  1  0  0  0  0
 33 34  1  0  0  0  0
 34 37  1  0  0  0  0
 35 34  2  0  0  0  0
 37 36  2  0  0  0  0
 38 40  1  0  0  0  0
 40 41  2  0  0  0  0
 41 45  1  0  0  0  0
 42 41  1  6  0  0  0
 42 47  1  0  0  0  0
 42 44  1  0  0  0  0
 43 39  1  0  0  0  0
 44 39  2  0  0  0  0
 45 43  2  0  0  0  0
 46 48  1  6  0  0  0
 46 49  1  0  0  0  0
 47 48  1  6  0  0  0
 47 46  1  0  0  0  0
 49 50  1  1  0  0  0
 49 51  1  0  0  0  0
 50 51  1  0  0  0  0
 52 45  1  0  0  0  0
 53 52  1  0  0  0  0
M  END
>  <MODEL>
7

>  <REMARK>
 VINA RESULT:      -6.4      3.510      9.857
  Name = 
  17 active torsions:
  status: ('A' for Active; 'I' for Inactive)
    1  A    between atoms: C_2  and  C_9
    2  A    between atoms: C_5  and  C_53
    3  A    between atoms: C_7  and  C_47
    4  A    between atoms: C_11  and  C_48
    5  A    between atoms: C_12  and  C_41
    6  A    between atoms: C_13  and  C_19
    7  A    between atoms: C_14  and  C_46
    8  A    between atoms: N_15  and  C_18
    9  A    between atoms: C_16  and  C_40
   10  A    between atoms: C_20  and  C_32
   11  A    between atoms: C_21  and  C_49
   12  A    between atoms: C_21  and  C_51
   13  A    between atoms: O_27  and  C_44
   14  A    between atoms: C_30  and  C_46
   15  A    between atoms: N_31  and  C_51
   16  A    between atoms: C_33  and  C_48
   17  A    between atoms: C_41  and  C_49
                            x       y       z     vdW  Elec       q    Type
                         _______ _______ _______ _____ _____    ______ ____

>  <TORSDO>
F 17

$$$$
=
 OpenBabel11042411493D

 53 58  0  0  1  0  0  0  0  0999 V2000
  186.3060  178.2290  139.5800 C   0  0  0  0  0  3  0  0  0  0  0  0
  186.6590  179.7520  141.9880 C   0  0  0  0  0  2  0  0  0  0  0  0
  185.3060  179.0890  141.7300 C   0  0  1  0  0  3  0  0  0  0  0  0
  185.1360  178.9310  140.2120 C   0  0  2  0  0  3  0  0  0  0  0  0
  187.8150  178.8990  141.4510 C   0  0  0  0  0  2  0  0  0  0  0  0
  187.5380  178.2680  140.1010 C   0  0  0  0  0  0  0  0  0  0  0  0
  189.8500  177.4950  139.8500 C   0  0  0  0  0  3  0  0  0  0  0  0
  188.6020  177.5440  139.3940 C   0  0  0  0  0  3  0  0  0  0  0  0
  190.8930  176.7570  139.1380 C   0  0  0  0  0  0  0  0  0  0  0  0
  190.6750  175.5910  138.5030 N   0  0  0  0  0  0  0  0  0  0  0  0
  192.1400  177.1450  139.0250 O   0  0  0  0  0  0  0  0  0  0  0  0
  191.9030  175.3300  138.0050 C   0  0  0  0  0  0  0  0  0  0  0  0
  192.8040  176.2800  138.3230 N   0  0  0  0  0  0  0  0  0  0  0  0
  192.2130  174.1520  137.1900 C   0  0  0  0  0  0  0  0  0  0  0  0
  191.2830  173.5270  136.6100 O   0  0  0  0  0  0  0  0  0  0  0  0
  193.5700  173.7180  137.0510 N   0  0  0  0  0  2  0  0  0  0  0  0
  193.9510  172.6200  136.1710 C   0  0  0  0  0  2  0  0  0  0  0  0
  195.4670  172.5400  136.0490 C   0  0  2  0  0  3  0  0  0  0  0  0
  195.8510  171.3580  135.1740 C   0  0  0  0  0  1  0  0  0  0  0  0
  195.6520  171.7800  138.2690 O   0  0  0  0  0  0  0  0  0  0  0  0
  196.1170  172.5180  137.4150 C   0  0  0  0  0  0  0  0  0  0  0  0
  198.5010  172.6650  137.5370 O   0  0  0  0  0  1  0  0  0  0  0  0
  197.3120  173.3580  137.7770 C   0  0  1  0  0  3  0  0  0  0  0  0
  197.3080  174.6290  137.0420 C   0  0  0  0  0  0  0  0  0  0  0  0
  197.3060  175.6320  136.4650 N   0  0  0  0  0  0  0  0  0  0  0  0
  185.1780  177.7510  142.4760 C   0  0  0  0  0  2  0  0  0  0  0  0
  185.0750  179.2870  144.3960 N   0  0  0  0  0  2  0  0  0  0  0  0
  185.0040  179.3460  145.8550 C   0  0  0  0  0  2  0  0  0  0  0  0
  185.2840  177.8950  143.9920 C   0  0  2  0  0  3  0  0  0  0  0  0
  186.6620  177.4940  146.0380 C   0  0  1  0  0  3  0  0  0  0  0  0
  186.3410  178.9240  146.4620 C   0  0  0  0  0  2  0  0  0  0  0  0
  186.6260  177.3790  144.5160 C   0  0  0  0  0  2  0  0  0  0  0  0
  187.9790  177.1240  146.5350 N   0  0  0  0  0  2  0  0  0  0  0  0
  189.1890  177.5320  145.8970 C   0  0  0  0  0  0  0  0  0  0  0  0
  189.1560  178.2250  144.8420 O   0  0  0  0  0  0  0  0  0  0  0  0
  191.5510  177.3060  145.8440 O   0  0  0  0  0  0  0  0  0  0  0  0
  190.4720  177.1280  146.4720 C   0  0  0  0  0  3  0  0  0  0  0  0
  183.8270  178.2560  139.8220 C   0  0  0  0  0  2  0  0  0  0  0  0
  178.9310  179.7450  139.7590 C   0  0  0  0  0  3  0  0  0  0  0  0
  182.9410  179.2130  139.0900 C   0  0  0  0  0  3  0  0  0  0  0  0
  181.6940  179.5310  139.4550 C   0  0  0  0  0  0  0  0  0  0  0  0
  180.9390  180.5250  138.6140 C   0  0  1  0  0  3  0  0  0  0  0  0
  179.7260  179.1220  140.7770 N   0  0  0  0  0  0  0  0  0  0  0  0
  179.4880  180.3510  138.7500 N   0  0  0  0  0  0  0  0  0  0  0  0
  181.0180  178.9990  140.6670 C   0  0  0  0  0  0  0  0  0  0  0  0
  181.2820  182.9730  137.9540 C   0  0  1  0  0  3  0  0  0  0  0  0
  181.3210  181.9520  139.0250 C   0  0  2  0  0  3  0  0  0  0  0  0
  182.5610  182.3560  138.3400 N   0  0  0  0  0  2  0  0  0  0  0  0
  180.8820  182.4730  136.5690 C   0  0  2  0  0  3  0  0  0  0  0  0
  180.7460  183.6170  135.6400 C   0  0  0  0  0  2  0  0  0  0  0  0
  179.6230  183.0120  136.2370 O   0  0  0  0  0  0  0  0  0  0  0  0
  181.7520  178.3770  141.6830 O   0  0  0  0  0  0  0  0  0  0  0  0
  181.6280  178.7500  143.0490 C   0  0  0  0  0  1  0  0  0  0  0  0
  1  6  2  0  0  0  0
  1  4  1  0  0  0  0
  3  2  1  0  0  0  0
  3 26  1  1  0  0  0
  4 38  1  1  0  0  0
  4  3  1  0  0  0  0
  5  2  1  0  0  0  0
  6  5  1  0  0  0  0
  8  7  2  0  0  0  0
  8  6  1  0  0  0  0
  9  7  1  0  0  0  0
 10  9  2  0  0  0  0
 11  9  1  0  0  0  0
 12 13  2  0  0  0  0
 12 10  1  0  0  0  0
 13 11  1  0  0  0  0
 14 12  1  0  0  0  0
 15 14  2  0  0  0  0
 16 14  1  0  0  0  0
 17 16  1  0  0  0  0
 18 19  1  1  0  0  0
 18 17  1  0  0  0  0
 18 21  1  0  0  0  0
 21 23  1  0  0  0  0
 21 20  2  0  0  0  0
 23 22  1  6  0  0  0
 24 23  1  0  0  0  0
 25 24  3  0  0  0  0
 27 28  1  0  0  0  0
 28 31  1  0  0  0  0
 29 26  1  6  0  0  0
 29 27  1  0  0  0  0
 29 32  1  0  0  0  0
 30 31  1  0  0  0  0
 30 33  1  6  0  0  0
 32 30  1  0  0  0  0
 34 37  1  0  0  0  0
 34 33  1  0  0  0  0
 35 34  2  0  0  0  0
 36 37  2  0  0  0  0
 39 43  1  0  0  0  0
 40 41  2  0  0  0  0
 40 38  1  0  0  0  0
 41 45  1  0  0  0  0
 42 44  1  1  0  0  0
 42 47  1  0  0  0  0
 42 41  1  0  0  0  0
 44 39  2  0  0  0  0
 45 43  2  0  0  0  0
 45 52  1  0  0  0  0
 46 48  1  6  0  0  0
 46 47  1  0  0  0  0
 47 48  1  6  0  0  0
 49 50  1  6  0  0  0
 49 46  1  0  0  0  0
 50 51  1  0  0  0  0
 51 49  1  0  0  0  0
 52 53  1  0  0  0  0
M  END
>  <MODEL>
8

>  <REMARK>
 VINA RESULT:      -6.0      4.194      9.843
  Name = 
  17 active torsions:
  status: ('A' for Active; 'I' for Inactive)
    1  A    between atoms: C_2  and  C_9
    2  A    between atoms: C_5  and  C_53
    3  A    between atoms: C_7  and  C_47
    4  A    between atoms: C_11  and  C_48
    5  A    between atoms: C_12  and  C_41
    6  A    between atoms: C_13  and  C_19
    7  A    between atoms: C_14  and  C_46
    8  A    between atoms: N_15  and  C_18
    9  A    between atoms: C_16  and  C_40
   10  A    between atoms: C_20  and  C_32
   11  A    between atoms: C_21  and  C_49
   12  A    between atoms: C_21  and  C_51
   13  A    between atoms: O_27  and  C_44
   14  A    between atoms: C_30  and  C_46
   15  A    between atoms: N_31  and  C_51
   16  A    between atoms: C_33  and  C_48
   17  A    between atoms: C_41  and  C_49
                            x       y       z     vdW  Elec       q    Type
                         _______ _______ _______ _____ _____    ______ ____

>  <TORSDO>
F 17

$$$$
=
 OpenBabel11042411493D

 53 58  0  0  1  0  0  0  0  0999 V2000
  186.4540  178.3930  139.3090 C   0  0  0  0  0  3  0  0  0  0  0  0
  186.8340  179.6790  141.8470 C   0  0  0  0  0  2  0  0  0  0  0  0
  185.4330  179.1970  141.4700 C   0  0  1  0  0  3  0  0  0  0  0  0
  185.3340  179.1740  139.9380 C   0  0  2  0  0  3  0  0  0  0  0  0
  187.9180  178.7430  141.3000 C   0  0  0  0  0  2  0  0  0  0  0  0
  187.6510  178.2510  139.8910 C   0  0  0  0  0  0  0  0  0  0  0  0
  189.9240  177.3820  139.6070 C   0  0  0  0  0  3  0  0  0  0  0  0
  188.6680  177.4660  139.1800 C   0  0  0  0  0  3  0  0  0  0  0  0
  190.9200  176.5830  138.8910 C   0  0  0  0  0  0  0  0  0  0  0  0
  190.6410  175.4090  138.2970 N   0  0  0  0  0  0  0  0  0  0  0  0
  192.1780  176.9190  138.7360 O   0  0  0  0  0  0  0  0  0  0  0  0
  191.8450  175.0860  137.7780 C   0  0  0  0  0  0  0  0  0  0  0  0
  192.7900  176.0080  138.0440 N   0  0  0  0  0  0  0  0  0  0  0  0
  192.0890  173.8740  136.9910 C   0  0  0  0  0  0  0  0  0  0  0  0
  191.1430  173.3450  136.3440 O   0  0  0  0  0  0  0  0  0  0  0  0
  193.3980  173.2970  136.9550 N   0  0  0  0  0  2  0  0  0  0  0  0
  193.7260  172.1570  136.1090 C   0  0  0  0  0  2  0  0  0  0  0  0
  195.1830  171.7560  136.2990 C   0  0  2  0  0  3  0  0  0  0  0  0
  195.3760  171.1540  137.6800 C   0  0  0  0  0  1  0  0  0  0  0  0
  196.0640  173.4370  134.9060 O   0  0  0  0  0  0  0  0  0  0  0  0
  196.1040  172.9220  136.0120 C   0  0  0  0  0  0  0  0  0  0  0  0
  198.2250  172.7080  137.0960 O   0  0  0  0  0  1  0  0  0  0  0  0
  197.0660  173.4840  137.0230 C   0  0  1  0  0  3  0  0  0  0  0  0
  197.4080  174.8780  136.7120 C   0  0  0  0  0  0  0  0  0  0  0  0
  197.6790  175.9760  136.4680 N   0  0  0  0  0  0  0  0  0  0  0  0
  185.1160  177.8300  142.0970 C   0  0  0  0  0  2  0  0  0  0  0  0
  184.2550  179.0850  144.0310 N   0  0  0  0  0  2  0  0  0  0  0  0
  183.9910  179.0030  145.4680 C   0  0  0  0  0  2  0  0  0  0  0  0
  184.9800  177.8820  143.6180 C   0  0  2  0  0  3  0  0  0  0  0  0
  186.1520  177.8120  145.8240 C   0  0  1  0  0  3  0  0  0  0  0  0
  185.3070  179.0110  146.2430 C   0  0  0  0  0  2  0  0  0  0  0  0
  186.3440  177.8100  144.3090 C   0  0  0  0  0  2  0  0  0  0  0  0
  187.4440  177.8710  146.4900 N   0  0  0  0  0  2  0  0  0  0  0  0
  188.6360  177.3330  145.9160 C   0  0  0  0  0  0  0  0  0  0  0  0
  188.6020  176.7540  144.7950 O   0  0  0  0  0  0  0  0  0  0  0  0
  189.9160  177.5000  147.9080 O   0  0  0  0  0  0  0  0  0  0  0  0
  189.8970  177.4490  146.6480 C   0  0  0  0  0  3  0  0  0  0  0  0
  183.9830  178.6840  139.4310 C   0  0  0  0  0  2  0  0  0  0  0  0
  181.2540  175.8610  136.1480 C   0  0  0  0  0  3  0  0  0  0  0  0
  184.1580  177.4990  138.5350 C   0  0  0  0  0  3  0  0  0  0  0  0
  183.2770  177.1060  137.6080 C   0  0  0  0  0  0  0  0  0  0  0  0
  183.6110  175.8960  136.7790 C   0  0  1  0  0  3  0  0  0  0  0  0
  181.0850  177.2040  136.6230 N   0  0  0  0  0  0  0  0  0  0  0  0
  182.4000  175.2520  136.2570 N   0  0  0  0  0  0  0  0  0  0  0  0
  182.0040  177.8150  137.3130 C   0  0  0  0  0  0  0  0  0  0  0  0
  185.9000  175.7720  135.6420 C   0  0  1  0  0  3  0  0  0  0  0  0
  184.5170  176.3000  135.6090 C   0  0  2  0  0  3  0  0  0  0  0  0
  185.6200  177.1440  136.0990 N   0  0  0  0  0  2  0  0  0  0  0  0
  186.2550  174.9060  136.8460 C   0  0  2  0  0  3  0  0  0  0  0  0
  187.5950  174.3070  136.6560 C   0  0  0  0  0  2  0  0  0  0  0  0
  186.4170  173.5750  136.4160 O   0  0  0  0  0  0  0  0  0  0  0  0
  181.7920  179.1230  137.7610 O   0  0  0  0  0  0  0  0  0  0  0  0
  181.0030  180.0570  137.0360 C   0  0  0  0  0  1  0  0  0  0  0  0
  1  6  2  0  0  0  0
  1  4  1  0  0  0  0
  3  2  1  0  0  0  0
  3 26  1  6  0  0  0
  4 38  1  1  0  0  0
  4  3  1  0  0  0  0
  5  2  1  0  0  0  0
  6  5  1  0  0  0  0
  8  7  2  0  0  0  0
  8  6  1  0  0  0  0
  9  7  1  0  0  0  0
 10  9  2  0  0  0  0
 11  9  1  0  0  0  0
 12 13  2  0  0  0  0
 12 10  1  0  0  0  0
 13 11  1  0  0  0  0
 14 12  1  0  0  0  0
 15 14  2  0  0  0  0
 16 14  1  0  0  0  0
 17 18  1  0  0  0  0
 17 16  1  0  0  0  0
 18 19  1  1  0  0  0
 20 21  2  0  0  0  0
 21 18  1  0  0  0  0
 21 23  1  0  0  0  0
 23 22  1  6  0  0  0
 24 23  1  0  0  0  0
 25 24  3  0  0  0  0
 27 28  1  0  0  0  0
 28 31  1  0  0  0  0
 29 26  1  6  0  0  0
 29 27  1  0  0  0  0
 29 32  1  0  0  0  0
 30 31  1  0  0  0  0
 30 33  1  1  0  0  0
 32 30  1  0  0  0  0
 34 33  1  0  0  0  0
 34 37  1  0  0  0  0
 35 34  2  0  0  0  0
 37 36  2  0  0  0  0
 39 44  2  0  0  0  0
 39 43  1  0  0  0  0
 40 38  1  0  0  0  0
 41 40  2  0  0  0  0
 42 44  1  6  0  0  0
 42 41  1  0  0  0  0
 43 45  2  0  0  0  0
 45 41  1  0  0  0  0
 45 52  1  0  0  0  0
 46 48  1  1  0  0  0
 46 49  1  0  0  0  0
 47 46  1  0  0  0  0
 47 48  1  1  0  0  0
 47 42  1  0  0  0  0
 49 50  1  6  0  0  0
 51 50  1  0  0  0  0
 51 49  1  0  0  0  0
 53 52  1  0  0  0  0
M  END
>  <MODEL>
9

>  <REMARK>
 VINA RESULT:      -6.0      3.772      8.906
  Name = 
  17 active torsions:
  status: ('A' for Active; 'I' for Inactive)
    1  A    between atoms: C_2  and  C_9
    2  A    between atoms: C_5  and  C_53
    3  A    between atoms: C_7  and  C_47
    4  A    between atoms: C_11  and  C_48
    5  A    between atoms: C_12  and  C_41
    6  A    between atoms: C_13  and  C_19
    7  A    between atoms: C_14  and  C_46
    8  A    between atoms: N_15  and  C_18
    9  A    between atoms: C_16  and  C_40
   10  A    between atoms: C_20  and  C_32
   11  A    between atoms: C_21  and  C_49
   12  A    between atoms: C_21  and  C_51
   13  A    between atoms: O_27  and  C_44
   14  A    between atoms: C_30  and  C_46
   15  A    between atoms: N_31  and  C_51
   16  A    between atoms: C_33  and  C_48
   17  A    between atoms: C_41  and  C_49
                            x       y       z     vdW  Elec       q    Type
                         _______ _______ _______ _____ _____    ______ ____

>  <TORSDO>
F 17

$$$$
