=
 OpenBabel11042411453D

 25 28  0  0  1  0  0  0  0  0999 V2000
  187.5200  177.1230  142.8930 C   0  0  0  0  0  3  0  0  0  0  0  0
  188.7180  177.1500  142.2890 C   0  0  0  0  0  0  0  0  0  0  0  0
  186.0190  179.0480  140.3240 O   0  0  0  0  0  0  0  0  0  0  0  0
  186.3340  177.9700  142.6120 C   0  0  0  0  0  0  0  0  0  0  0  0
  186.1720  178.5230  141.4340 C   0  0  0  0  0  0  0  0  0  0  0  0
  185.4800  178.7810  147.4270 N   0  0  0  0  0  1  0  0  0  0  0  0
  185.8880  178.3830  145.0550 C   0  0  0  0  0  3  0  0  0  0  0  0
  184.0820  178.6500  143.4760 C   0  0  0  0  0  3  0  0  0  0  0  0
  183.2370  178.9990  144.5320 C   0  0  0  0  0  3  0  0  0  0  0  0
  185.4250  178.3340  143.7300 C   0  0  0  0  0  0  0  0  0  0  0  0
  183.7170  179.0350  145.8050 N   0  0  0  0  0  0  0  0  0  0  0  0
  185.0140  178.7360  146.0840 C   0  0  0  0  0  0  0  0  0  0  0  0
  189.2310  177.2810  139.9370 N   0  0  1  0  0  0  0  0  0  0  0  0
  190.2910  177.7930  140.6660 O   0  0  0  0  0  0  0  0  0  0  0  0
  189.0420  178.0600  141.1400 C   0  0  2  0  0  3  0  0  0  0  0  0
  189.0260  178.1800  138.8140 C   0  0  2  0  0  3  0  0  0  0  0  0
  187.9930  177.6740  137.9650 C   0  0  2  0  0  3  0  0  0  0  0  0
  190.2840  177.0620  136.7440 O   0  0  0  0  0  0  0  0  0  0  0  0
  189.4420  177.4730  137.5250 C   0  0  0  0  0  0  0  0  0  0  0  0
  187.4110  178.7560  137.1940 N   0  0  0  0  0  1  0  0  0  0  0  0
  189.7900  176.2670  142.8350 C   0  0  0  0  0  2  0  0  0  0  0  0
  191.5010  176.0730  144.3970 C   0  0  1  0  0  3  0  0  0  0  0  0
  191.8260  176.2850  145.8630 C   0  0  0  0  0  1  0  0  0  0  0  0
  190.3430  176.8560  144.0430 N   0  0  0  0  0  0  0  0  0  0  0  0
  191.6330  177.2510  143.7310 O   0  0  0  0  0  0  0  0  0  0  0  0
  2 21  1  0  0  0  0
  2  1  2  0  0  0  0
  3  5  2  0  0  0  0
  4  1  1  0  0  0  0
  4 10  1  0  0  0  0
  5  4  2  0  0  0  0
  7 12  1  0  0  0  0
  8 10  1  0  0  0  0
  8  9  2  0  0  0  0
  9 11  1  0  0  0  0
 10  7  2  0  0  0  0
 11 12  2  0  0  0  0
 12  6  1  0  0  0  0
 13 14  1  1  0  0  0
 13 15  1  0  0  0  0
 14 15  1  0  0  0  0
 15  2  1  1  0  0  0
 16 19  1  6  0  0  0
 16 13  1  0  0  0  0
 17 20  1  6  0  0  0
 17 16  1  0  0  0  0
 18 19  2  0  0  0  0
 19 17  1  0  0  0  0
 21 24  1  0  0  0  0
 22 23  1  1  0  0  0
 24 22  1  0  0  0  0
 25 24  1  0  0  0  0
 25 22  1  0  0  0  0
M  END
>  <MODEL>
1

>  <REMARK>
 VINA RESULT:      -8.2      0.000      0.000
  Name = 
  6 active torsions:
  status: ('A' for Active; 'I' for Inactive)
    1  A    between atoms: N_6  and  C_7
    2  A    between atoms: C_11  and  C_12
    3  A    between atoms: C_12  and  C_15
    4  A    between atoms: C_16  and  C_25
    5  A    between atoms: N_21  and  C_23
    6  A    between atoms: C_23  and  C_25
                            x       y       z     vdW  Elec       q    Type
                         _______ _______ _______ _____ _____    ______ ____

>  <TORSDO>
F 6

$$$$
=
 OpenBabel11042411453D

 25 28  0  0  1  0  0  0  0  0999 V2000
  188.1630  177.0550  143.4250 C   0  0  0  0  0  3  0  0  0  0  0  0
  189.4440  177.0310  143.0280 C   0  0  0  0  0  0  0  0  0  0  0  0
  187.1600  178.6520  140.4240 O   0  0  0  0  0  0  0  0  0  0  0  0
  187.0330  177.8090  142.8270 C   0  0  0  0  0  0  0  0  0  0  0  0
  187.0990  178.2410  141.5900 C   0  0  0  0  0  0  0  0  0  0  0  0
  185.1020  178.7220  147.2990 N   0  0  0  0  0  1  0  0  0  0  0  0
  186.0420  178.2750  145.0930 C   0  0  0  0  0  3  0  0  0  0  0  0
  184.6750  178.6020  143.1300 C   0  0  0  0  0  3  0  0  0  0  0  0
  183.6210  179.0020  143.9550 C   0  0  0  0  0  3  0  0  0  0  0  0
  185.9040  178.2290  143.6960 C   0  0  0  0  0  0  0  0  0  0  0  0
  183.7870  179.0330  145.3050 N   0  0  0  0  0  0  0  0  0  0  0  0
  184.9650  178.6800  145.8850 C   0  0  0  0  0  0  0  0  0  0  0  0
  190.3910  176.8240  140.8200 N   0  0  1  0  0  0  0  0  0  0  0  0
  191.2730  177.5140  141.6340 O   0  0  0  0  0  0  0  0  0  0  0  0
  189.9480  177.7680  141.8210 C   0  0  2  0  0  3  0  0  0  0  0  0
  190.3700  177.5180  139.5440 C   0  0  2  0  0  3  0  0  0  0  0  0
  189.6040  176.7740  138.5940 C   0  0  2  0  0  3  0  0  0  0  0  0
  192.1560  176.2710  138.0040 O   0  0  0  0  0  0  0  0  0  0  0  0
  191.1270  176.6860  138.5100 C   0  0  0  0  0  0  0  0  0  0  0  0
  189.1230  177.6540  137.5470 N   0  0  0  0  0  1  0  0  0  0  0  0
  190.4170  176.2770  143.8710 C   0  0  0  0  0  2  0  0  0  0  0  0
  191.6810  176.3750  145.8210 C   0  0  1  0  0  3  0  0  0  0  0  0
  191.5650  176.5150  147.3270 C   0  0  0  0  0  1  0  0  0  0  0  0
  190.4730  176.8640  145.2000 N   0  0  0  0  0  0  0  0  0  0  0  0
  191.6400  177.6080  145.2500 O   0  0  0  0  0  0  0  0  0  0  0  0
  2  1  2  0  0  0  0
  2 21  1  0  0  0  0
  3  5  2  0  0  0  0
  4  1  1  0  0  0  0
  4 10  1  0  0  0  0
  5  4  2  0  0  0  0
  7 12  1  0  0  0  0
  8 10  1  0  0  0  0
  8  9  2  0  0  0  0
  9 11  1  0  0  0  0
 10  7  2  0  0  0  0
 11 12  2  0  0  0  0
 12  6  1  0  0  0  0
 13 14  1  1  0  0  0
 13 15  1  0  0  0  0
 14 15  1  0  0  0  0
 15  2  1  1  0  0  0
 16 19  1  6  0  0  0
 16 13  1  0  0  0  0
 17 20  1  6  0  0  0
 17 16  1  0  0  0  0
 18 19  2  0  0  0  0
 19 17  1  0  0  0  0
 21 24  1  0  0  0  0
 22 23  1  1  0  0  0
 24 25  1  0  0  0  0
 24 22  1  0  0  0  0
 25 22  1  0  0  0  0
M  END
>  <MODEL>
2

>  <REMARK>
 VINA RESULT:      -8.1      1.236      1.309
  Name = 
  6 active torsions:
  status: ('A' for Active; 'I' for Inactive)
    1  A    between atoms: N_6  and  C_7
    2  A    between atoms: C_11  and  C_12
    3  A    between atoms: C_12  and  C_15
    4  A    between atoms: C_16  and  C_25
    5  A    between atoms: N_21  and  C_23
    6  A    between atoms: C_23  and  C_25
                            x       y       z     vdW  Elec       q    Type
                         _______ _______ _______ _____ _____    ______ ____

>  <TORSDO>
F 6

$$$$
=
 OpenBabel11042411453D

 25 28  0  0  1  0  0  0  0  0999 V2000
  188.3540  177.1790  143.8990 C   0  0  0  0  0  3  0  0  0  0  0  0
  189.6340  177.2360  143.5020 C   0  0  0  0  0  0  0  0  0  0  0  0
  187.2250  178.4400  140.7850 O   0  0  0  0  0  0  0  0  0  0  0  0
  187.1660  177.7850  143.2480 C   0  0  0  0  0  0  0  0  0  0  0  0
  187.1970  178.1200  141.9810 C   0  0  0  0  0  0  0  0  0  0  0  0
  182.4300  179.1650  143.7320 N   0  0  0  0  0  1  0  0  0  0  0  0
  184.7620  178.4870  143.5060 C   0  0  0  0  0  3  0  0  0  0  0  0
  186.1230  178.2320  145.4830 C   0  0  0  0  0  3  0  0  0  0  0  0
  185.0220  178.5940  146.2630 C   0  0  0  0  0  3  0  0  0  0  0  0
  186.0030  178.1770  144.0860 C   0  0  0  0  0  0  0  0  0  0  0  0
  183.8350  178.8910  145.6690 N   0  0  0  0  0  0  0  0  0  0  0  0
  183.6850  178.8460  144.3180 C   0  0  0  0  0  0  0  0  0  0  0  0
  190.5830  176.9400  141.3050 N   0  0  1  0  0  0  0  0  0  0  0  0
  191.4160  177.7490  142.0590 O   0  0  0  0  0  0  0  0  0  0  0  0
  190.0770  177.9190  142.2400 C   0  0  2  0  0  3  0  0  0  0  0  0
  190.5060  177.5380  139.9830 C   0  0  2  0  0  3  0  0  0  0  0  0
  189.8020  176.6690  139.0930 C   0  0  2  0  0  3  0  0  0  0  0  0
  192.3860  176.3330  138.5250 O   0  0  0  0  0  0  0  0  0  0  0  0
  191.3260  176.6990  139.0060 C   0  0  0  0  0  0  0  0  0  0  0  0
  189.2510  177.4310  137.9890 N   0  0  0  0  0  1  0  0  0  0  0  0
  190.6650  176.6360  144.3970 C   0  0  0  0  0  2  0  0  0  0  0  0
  190.5990  176.6330  146.7220 C   0  0  1  0  0  3  0  0  0  0  0  0
  190.2670  177.5020  147.9200 C   0  0  0  0  0  1  0  0  0  0  0  0
  190.8410  177.4720  145.5730 N   0  0  0  0  0  0  0  0  0  0  0  0
  191.8660  176.9010  146.3090 O   0  0  0  0  0  0  0  0  0  0  0  0
  2  1  2  0  0  0  0
  2 21  1  0  0  0  0
  3  5  2  0  0  0  0
  4  1  1  0  0  0  0
  4 10  1  0  0  0  0
  5  4  2  0  0  0  0
  6 12  1  0  0  0  0
  7 10  2  0  0  0  0
  7 12  1  0  0  0  0
  8  9  2  0  0  0  0
 10  8  1  0  0  0  0
 11  9  1  0  0  0  0
 12 11  2  0  0  0  0
 13 14  1  1  0  0  0
 13 15  1  0  0  0  0
 14 15  1  0  0  0  0
 15  2  1  1  0  0  0
 16 19  1  6  0  0  0
 16 13  1  0  0  0  0
 17 20  1  6  0  0  0
 17 16  1  0  0  0  0
 18 19  2  0  0  0  0
 19 17  1  0  0  0  0
 21 24  1  0  0  0  0
 22 23  1  1  0  0  0
 24 25  1  0  0  0  0
 24 22  1  0  0  0  0
 25 22  1  0  0  0  0
M  END
>  <MODEL>
3

>  <REMARK>
 VINA RESULT:      -7.8      1.675      2.214
  Name = 
  6 active torsions:
  status: ('A' for Active; 'I' for Inactive)
    1  A    between atoms: N_6  and  C_7
    2  A    between atoms: C_11  and  C_12
    3  A    between atoms: C_12  and  C_15
    4  A    between atoms: C_16  and  C_25
    5  A    between atoms: N_21  and  C_23
    6  A    between atoms: C_23  and  C_25
                            x       y       z     vdW  Elec       q    Type
                         _______ _______ _______ _____ _____    ______ ____

>  <TORSDO>
F 6

$$$$
=
 OpenBabel11042411453D

 25 28  0  0  1  0  0  0  0  0999 V2000
  190.0800  177.3080  142.7200 C   0  0  0  0  0  3  0  0  0  0  0  0
  189.2900  177.5410  141.6620 C   0  0  0  0  0  0  0  0  0  0  0  0
  192.0250  179.8770  144.1960 O   0  0  0  0  0  0  0  0  0  0  0  0
  190.2040  178.1080  143.9640 C   0  0  0  0  0  0  0  0  0  0  0  0
  191.1410  179.0190  144.0810 C   0  0  0  0  0  0  0  0  0  0  0  0
  185.8300  177.8330  146.2800 N   0  0  0  0  0  1  0  0  0  0  0  0
  187.9890  177.9640  145.1500 C   0  0  0  0  0  3  0  0  0  0  0  0
  189.9690  177.1610  146.2730 C   0  0  0  0  0  3  0  0  0  0  0  0
  189.1810  176.8160  147.3730 C   0  0  0  0  0  3  0  0  0  0  0  0
  189.3760  177.7450  145.1430 C   0  0  0  0  0  0  0  0  0  0  0  0
  187.8400  177.0440  147.3490 N   0  0  0  0  0  0  0  0  0  0  0  0
  187.2340  177.6070  146.2690 C   0  0  0  0  0  0  0  0  0  0  0  0
  186.9730  178.1780  141.4630 N   0  0  1  0  0  0  0  0  0  0  0  0
  187.6820  178.6890  140.3880 O   0  0  0  0  0  0  0  0  0  0  0  0
  188.3200  178.6850  141.5920 C   0  0  2  0  0  3  0  0  0  0  0  0
  186.0790  179.2330  141.9100 C   0  0  2  0  0  3  0  0  0  0  0  0
  185.1010  178.6980  142.8040 C   0  0  2  0  0  3  0  0  0  0  0  0
  183.8540  178.9680  140.4620 O   0  0  0  0  0  0  0  0  0  0  0  0
  184.6780  178.9670  141.3610 C   0  0  0  0  0  0  0  0  0  0  0  0
  184.5780  179.7510  143.6530 N   0  0  0  0  0  1  0  0  0  0  0  0
  189.4330  176.6440  140.4780 C   0  0  0  0  0  2  0  0  0  0  0  0
  190.6650  176.1630  138.5650 C   0  0  1  0  0  3  0  0  0  0  0  0
  192.0830  176.0540  138.0400 C   0  0  0  0  0  1  0  0  0  0  0  0
  190.6570  176.9670  139.7630 N   0  0  0  0  0  0  0  0  0  0  0  0
  190.2700  177.4630  138.5290 O   0  0  0  0  0  0  0  0  0  0  0  0
  1  4  1  0  0  0  0
  2  1  2  0  0  0  0
  4  5  2  0  0  0  0
  4 10  1  0  0  0  0
  5  3  2  0  0  0  0
  7 12  1  0  0  0  0
  8  9  2  0  0  0  0
 10  7  2  0  0  0  0
 10  8  1  0  0  0  0
 11  9  1  0  0  0  0
 12  6  1  0  0  0  0
 12 11  2  0  0  0  0
 13 14  1  6  0  0  0
 13 15  1  0  0  0  0
 13 16  1  0  0  0  0
 14 15  1  0  0  0  0
 15  2  1  6  0  0  0
 16 19  1  6  0  0  0
 16 17  1  0  0  0  0
 17 20  1  1  0  0  0
 18 19  2  0  0  0  0
 19 17  1  0  0  0  0
 21  2  1  0  0  0  0
 22 23  1  6  0  0  0
 22 24  1  0  0  0  0
 24 21  1  0  0  0  0
 25 22  1  0  0  0  0
 25 24  1  0  0  0  0
M  END
>  <MODEL>
4

>  <REMARK>
 VINA RESULT:      -7.6      2.223      4.992
  Name = 
  6 active torsions:
  status: ('A' for Active; 'I' for Inactive)
    1  A    between atoms: N_6  and  C_7
    2  A    between atoms: C_11  and  C_12
    3  A    between atoms: C_12  and  C_15
    4  A    between atoms: C_16  and  C_25
    5  A    between atoms: N_21  and  C_23
    6  A    between atoms: C_23  and  C_25
                            x       y       z     vdW  Elec       q    Type
                         _______ _______ _______ _____ _____    ______ ____

>  <TORSDO>
F 6

$$$$
=
 OpenBabel11042411453D

 25 28  0  0  1  0  0  0  0  0999 V2000
  189.8180  178.1830  143.0360 C   0  0  0  0  0  3  0  0  0  0  0  0
  189.1510  177.8260  144.1440 C   0  0  0  0  0  0  0  0  0  0  0  0
  186.9560  178.6270  140.9940 O   0  0  0  0  0  0  0  0  0  0  0  0
  189.3660  178.0880  141.6260 C   0  0  0  0  0  0  0  0  0  0  0  0
  188.1260  178.3670  141.3020 C   0  0  0  0  0  0  0  0  0  0  0  0
  193.9210  177.1250  139.9240 N   0  0  0  0  0  1  0  0  0  0  0  0
  191.6740  177.5950  140.7510 C   0  0  0  0  0  3  0  0  0  0  0  0
  189.7610  176.8270  139.4960 C   0  0  0  0  0  3  0  0  0  0  0  0
  190.6270  176.2720  138.5520 C   0  0  0  0  0  3  0  0  0  0  0  0
  190.2790  177.5010  140.6120 C   0  0  0  0  0  0  0  0  0  0  0  0
  191.9740  176.3820  138.7150 N   0  0  0  0  0  0  0  0  0  0  0  0
  192.5090  177.0270  139.7860 C   0  0  0  0  0  0  0  0  0  0  0  0
  186.8430  178.2730  144.6810 N   0  0  1  0  0  0  0  0  0  0  0  0
  187.2750  177.1700  145.3980 O   0  0  0  0  0  0  0  0  0  0  0  0
  187.7480  177.2910  144.1270 C   0  0  2  0  0  3  0  0  0  0  0  0
  185.5160  177.9520  144.1850 C   0  0  2  0  0  3  0  0  0  0  0  0
  184.9490  179.0920  143.5350 C   0  0  2  0  0  3  0  0  0  0  0  0
  183.8060  179.0010  145.9430 O   0  0  0  0  0  0  0  0  0  0  0  0
  184.4830  178.7730  144.9540 C   0  0  0  0  0  0  0  0  0  0  0  0
  183.9270  178.6700  142.5970 N   0  0  0  0  0  1  0  0  0  0  0  0
  189.8730  177.9150  145.4470 C   0  0  0  0  0  2  0  0  0  0  0  0
  191.2660  176.8060  146.9420 C   0  0  1  0  0  3  0  0  0  0  0  0
  192.2130  175.6270  147.0600 C   0  0  0  0  0  1  0  0  0  0  0  0
  190.3920  176.6070  145.8120 N   0  0  0  0  0  0  0  0  0  0  0  0
  189.9880  176.3770  147.1160 O   0  0  0  0  0  0  0  0  0  0  0  0
  1  2  2  0  0  0  0
  2 21  1  0  0  0  0
  3  5  2  0  0  0  0
  4  1  1  0  0  0  0
  5  4  2  0  0  0  0
  8 10  2  0  0  0  0
  9 11  2  0  0  0  0
  9  8  1  0  0  0  0
 10  7  1  0  0  0  0
 10  4  1  0  0  0  0
 11 12  1  0  0  0  0
 12  6  1  0  0  0  0
 12  7  2  0  0  0  0
 13 14  1  1  0  0  0
 15  2  1  1  0  0  0
 15 13  1  0  0  0  0
 15 14  1  0  0  0  0
 16 13  1  0  0  0  0
 16 19  1  1  0  0  0
 17 20  1  6  0  0  0
 17 16  1  0  0  0  0
 17 19  1  0  0  0  0
 19 18  2  0  0  0  0
 21 24  1  0  0  0  0
 22 23  1  6  0  0  0
 22 25  1  0  0  0  0
 24 22  1  0  0  0  0
 24 25  1  0  0  0  0
M  END
>  <MODEL>
5

>  <REMARK>
 VINA RESULT:      -7.6      2.708      6.518
  Name = 
  6 active torsions:
  status: ('A' for Active; 'I' for Inactive)
    1  A    between atoms: N_6  and  C_7
    2  A    between atoms: C_11  and  C_12
    3  A    between atoms: C_12  and  C_15
    4  A    between atoms: C_16  and  C_25
    5  A    between atoms: N_21  and  C_23
    6  A    between atoms: C_23  and  C_25
                            x       y       z     vdW  Elec       q    Type
                         _______ _______ _______ _____ _____    ______ ____

>  <TORSDO>
F 6

$$$$
=
 OpenBabel11042411453D

 25 28  0  0  1  0  0  0  0  0999 V2000
  187.9020  177.4700  142.0900 C   0  0  0  0  0  3  0  0  0  0  0  0
  187.0540  178.2940  141.4560 C   0  0  0  0  0  0  0  0  0  0  0  0
  186.2750  177.0410  145.2090 O   0  0  0  0  0  0  0  0  0  0  0  0
  188.1760  177.3820  143.5460 C   0  0  0  0  0  0  0  0  0  0  0  0
  187.1970  177.2050  144.4000 C   0  0  0  0  0  0  0  0  0  0  0  0
  191.9330  176.5570  146.6730 N   0  0  0  0  0  1  0  0  0  0  0  0
  190.0900  176.9720  145.1290 C   0  0  0  0  0  3  0  0  0  0  0  0
  190.3270  178.6630  143.4220 C   0  0  0  0  0  3  0  0  0  0  0  0
  191.6150  178.9280  143.8920 C   0  0  0  0  0  3  0  0  0  0  0  0
  189.5450  177.6770  144.0430 C   0  0  0  0  0  0  0  0  0  0  0  0
  192.1130  178.2290  144.9480 N   0  0  0  0  0  0  0  0  0  0  0  0
  191.3810  177.2660  145.5700 C   0  0  0  0  0  0  0  0  0  0  0  0
  184.8320  178.7350  142.2820 N   0  0  1  0  0  0  0  0  0  0  0  0
  185.1700  179.6940  141.3430 O   0  0  0  0  0  0  0  0  0  0  0  0
  186.1680  179.2740  142.1700 C   0  0  2  0  0  3  0  0  0  0  0  0
  184.1830  179.4350  143.3780 C   0  0  2  0  0  3  0  0  0  0  0  0
  183.7060  178.4960  144.3440 C   0  0  2  0  0  3  0  0  0  0  0  0
  181.5620  179.2210  142.9330 O   0  0  0  0  0  0  0  0  0  0  0  0
  182.6930  179.1000  143.3730 C   0  0  0  0  0  0  0  0  0  0  0  0
  183.5650  179.1410  145.6350 N   0  0  0  0  0  1  0  0  0  0  0  0
  187.0420  178.2640  139.9650 C   0  0  0  0  0  2  0  0  0  0  0  0
  188.5220  177.6840  138.2670 C   0  0  1  0  0  3  0  0  0  0  0  0
  189.9930  177.4600  137.9740 C   0  0  0  0  0  1  0  0  0  0  0  0
  188.3870  178.4860  139.4590 N   0  0  0  0  0  0  0  0  0  0  0  0
  188.2440  179.0120  138.1860 O   0  0  0  0  0  0  0  0  0  0  0  0
  1  4  1  0  0  0  0
  2  1  2  0  0  0  0
  4 10  1  0  0  0  0
  4  5  2  0  0  0  0
  5  3  2  0  0  0  0
  7 12  1  0  0  0  0
  8  9  2  0  0  0  0
  8 10  1  0  0  0  0
  9 11  1  0  0  0  0
 10  7  2  0  0  0  0
 11 12  2  0  0  0  0
 12  6  1  0  0  0  0
 13 14  1  6  0  0  0
 13 16  1  0  0  0  0
 14 15  1  0  0  0  0
 15  2  1  6  0  0  0
 15 13  1  0  0  0  0
 16 19  1  6  0  0  0
 16 17  1  0  0  0  0
 17 20  1  1  0  0  0
 18 19  2  0  0  0  0
 19 17  1  0  0  0  0
 21  2  1  0  0  0  0
 22 23  1  6  0  0  0
 22 24  1  0  0  0  0
 24 21  1  0  0  0  0
 25 22  1  0  0  0  0
 25 24  1  0  0  0  0
M  END
>  <MODEL>
6

>  <REMARK>
 VINA RESULT:      -7.5      2.309      6.414
  Name = 
  6 active torsions:
  status: ('A' for Active; 'I' for Inactive)
    1  A    between atoms: N_6  and  C_7
    2  A    between atoms: C_11  and  C_12
    3  A    between atoms: C_12  and  C_15
    4  A    between atoms: C_16  and  C_25
    5  A    between atoms: N_21  and  C_23
    6  A    between atoms: C_23  and  C_25
                            x       y       z     vdW  Elec       q    Type
                         _______ _______ _______ _____ _____    ______ ____

>  <TORSDO>
F 6

$$$$
=
 OpenBabel11042411453D

 25 28  0  0  1  0  0  0  0  0999 V2000
  186.9830  178.2590  142.3700 C   0  0  0  0  0  3  0  0  0  0  0  0
  188.0980  177.5240  142.5000 C   0  0  0  0  0  0  0  0  0  0  0  0
  186.1980  178.0450  145.8190 O   0  0  0  0  0  0  0  0  0  0  0  0
  185.8450  178.3710  143.3160 C   0  0  0  0  0  0  0  0  0  0  0  0
  186.0280  178.2040  144.6040 C   0  0  0  0  0  0  0  0  0  0  0  0
  182.5900  178.0100  139.5950 N   0  0  0  0  0  1  0  0  0  0  0  0
  184.1830  178.1920  141.4340 C   0  0  0  0  0  3  0  0  0  0  0  0
  183.4120  178.8990  143.6090 C   0  0  0  0  0  3  0  0  0  0  0  0
  182.1180  179.0020  143.0950 C   0  0  0  0  0  3  0  0  0  0  0  0
  184.4660  178.4920  142.7770 C   0  0  0  0  0  0  0  0  0  0  0  0
  181.8780  178.7070  141.7880 N   0  0  0  0  0  0  0  0  0  0  0  0
  182.8770  178.3080  140.9560 C   0  0  0  0  0  0  0  0  0  0  0  0
  189.4980  177.2850  144.4490 N   0  0  1  0  0  0  0  0  0  0  0  0
  189.6610  176.1810  143.6290 O   0  0  0  0  0  0  0  0  0  0  0  0
  188.4030  176.6940  143.7140 C   0  0  2  0  0  3  0  0  0  0  0  0
  189.4140  176.7840  145.8100 C   0  0  2  0  0  3  0  0  0  0  0  0
  189.4940  177.8700  146.7360 C   0  0  2  0  0  3  0  0  0  0  0  0
  191.9160  176.7540  146.7340 O   0  0  0  0  0  0  0  0  0  0  0  0
  190.7480  177.0260  146.5150 C   0  0  0  0  0  0  0  0  0  0  0  0
  188.8860  177.4910  147.9970 N   0  0  0  0  0  1  0  0  0  0  0  0
  189.0470  177.4940  141.3500 C   0  0  0  0  0  2  0  0  0  0  0  0
  189.3660  177.9800  139.0980 C   0  0  1  0  0  3  0  0  0  0  0  0
  189.0480  179.0080  138.0300 C   0  0  0  0  0  1  0  0  0  0  0  0
  188.4320  178.1180  140.1900 N   0  0  0  0  0  0  0  0  0  0  0  0
  188.3160  177.1270  139.2290 O   0  0  0  0  0  0  0  0  0  0  0  0
  1  2  2  0  0  0  0
  1  4  1  0  0  0  0
  4  5  2  0  0  0  0
  5  3  2  0  0  0  0
  6 12  1  0  0  0  0
  7 10  1  0  0  0  0
  9  8  1  0  0  0  0
 10  4  1  0  0  0  0
 10  8  2  0  0  0  0
 11  9  2  0  0  0  0
 12  7  2  0  0  0  0
 12 11  1  0  0  0  0
 13 14  1  6  0  0  0
 13 16  1  0  0  0  0
 14 15  1  0  0  0  0
 15  2  1  6  0  0  0
 15 13  1  0  0  0  0
 16 19  1  1  0  0  0
 16 17  1  0  0  0  0
 17 20  1  1  0  0  0
 19 18  2  0  0  0  0
 19 17  1  0  0  0  0
 21  2  1  0  0  0  0
 22 23  1  6  0  0  0
 22 25  1  0  0  0  0
 22 24  1  0  0  0  0
 24 21  1  0  0  0  0
 25 24  1  0  0  0  0
M  END
>  <MODEL>
7

>  <REMARK>
 VINA RESULT:      -7.5      2.498      5.772
  Name = 
  6 active torsions:
  status: ('A' for Active; 'I' for Inactive)
    1  A    between atoms: N_6  and  C_7
    2  A    between atoms: C_11  and  C_12
    3  A    between atoms: C_12  and  C_15
    4  A    between atoms: C_16  and  C_25
    5  A    between atoms: N_21  and  C_23
    6  A    between atoms: C_23  and  C_25
                            x       y       z     vdW  Elec       q    Type
                         _______ _______ _______ _____ _____    ______ ____

>  <TORSDO>
F 6

$$$$
=
 OpenBabel11042411453D

 25 28  0  0  1  0  0  0  0  0999 V2000
  188.0490  177.9390  143.0900 C   0  0  0  0  0  3  0  0  0  0  0  0
  187.4220  178.2550  141.9470 C   0  0  0  0  0  0  0  0  0  0  0  0
  184.9690  178.1570  144.8300 O   0  0  0  0  0  0  0  0  0  0  0  0
  187.4590  177.7760  144.4430 C   0  0  0  0  0  0  0  0  0  0  0  0
  186.1780  177.9710  144.6400 C   0  0  0  0  0  0  0  0  0  0  0  0
  191.9020  176.6850  146.3510 N   0  0  0  0  0  1  0  0  0  0  0  0
  189.7110  177.2230  145.4230 C   0  0  0  0  0  3  0  0  0  0  0  0
  187.8810  177.7320  146.9130 C   0  0  0  0  0  3  0  0  0  0  0  0
  188.7390  177.5440  147.9990 C   0  0  0  0  0  3  0  0  0  0  0  0
  188.3620  177.5700  145.6050 C   0  0  0  0  0  0  0  0  0  0  0  0
  190.0400  177.2050  147.7880 N   0  0  0  0  0  0  0  0  0  0  0  0
  190.5380  177.0420  146.5330 C   0  0  0  0  0  0  0  0  0  0  0  0
  185.6160  179.1300  140.6110 N   0  0  1  0  0  0  0  0  0  0  0  0
  185.6420  179.7850  141.8310 O   0  0  0  0  0  0  0  0  0  0  0  0
  185.9370  178.4560  141.8480 C   0  0  2  0  0  3  0  0  0  0  0  0
  184.2210  178.8430  140.3230 C   0  0  2  0  0  3  0  0  0  0  0  0
  184.0970  178.2870  139.0120 C   0  0  2  0  0  3  0  0  0  0  0  0
  183.3690  180.8420  138.7750 O   0  0  0  0  0  0  0  0  0  0  0  0
  183.7430  179.7610  139.1990 C   0  0  0  0  0  0  0  0  0  0  0  0
  182.8710  177.5170  138.9150 N   0  0  0  0  0  1  0  0  0  0  0  0
  188.2610  178.4720  140.7330 C   0  0  0  0  0  2  0  0  0  0  0  0
  189.8850  177.5780  139.3290 C   0  0  1  0  0  3  0  0  0  0  0  0
  190.3100  176.2960  138.6390 C   0  0  0  0  0  1  0  0  0  0  0  0
  189.0090  177.2620  140.4310 N   0  0  0  0  0  0  0  0  0  0  0  0
  190.3460  177.5750  140.6080 O   0  0  0  0  0  0  0  0  0  0  0  0
  1  4  1  0  0  0  0
  2  1  2  0  0  0  0
  4  5  2  0  0  0  0
  4 10  1  0  0  0  0
  5  3  2  0  0  0  0
  6 12  1  0  0  0  0
  7 10  2  0  0  0  0
  7 12  1  0  0  0  0
  8  9  2  0  0  0  0
 10  8  1  0  0  0  0
 11  9  1  0  0  0  0
 12 11  2  0  0  0  0
 13 14  1  1  0  0  0
 13 15  1  0  0  0  0
 14 15  1  0  0  0  0
 15  2  1  6  0  0  0
 16 19  1  6  0  0  0
 16 13  1  0  0  0  0
 17 20  1  1  0  0  0
 17 19  1  0  0  0  0
 17 16  1  0  0  0  0
 18 19  2  0  0  0  0
 21  2  1  0  0  0  0
 22 23  1  6  0  0  0
 22 24  1  0  0  0  0
 22 25  1  0  0  0  0
 24 25  1  0  0  0  0
 24 21  1  0  0  0  0
M  END
>  <MODEL>
8

>  <REMARK>
 VINA RESULT:      -7.4      2.675      4.984
  Name = 
  6 active torsions:
  status: ('A' for Active; 'I' for Inactive)
    1  A    between atoms: N_6  and  C_7
    2  A    between atoms: C_11  and  C_12
    3  A    between atoms: C_12  and  C_15
    4  A    between atoms: C_16  and  C_25
    5  A    between atoms: N_21  and  C_23
    6  A    between atoms: C_23  and  C_25
                            x       y       z     vdW  Elec       q    Type
                         _______ _______ _______ _____ _____    ______ ____

>  <TORSDO>
F 6

$$$$
=
 OpenBabel11042411453D

 25 28  0  0  1  0  0  0  0  0999 V2000
  187.2490  177.5870  143.5420 C   0  0  0  0  0  3  0  0  0  0  0  0
  187.1360  178.2870  142.4040 C   0  0  0  0  0  0  0  0  0  0  0  0
  189.8250  175.2610  142.8260 O   0  0  0  0  0  0  0  0  0  0  0  0
  188.4720  176.9840  144.1290 C   0  0  0  0  0  0  0  0  0  0  0  0
  189.1680  176.0980  143.4570 C   0  0  0  0  0  0  0  0  0  0  0  0
  191.6940  177.1170  147.8930 N   0  0  0  0  0  1  0  0  0  0  0  0
  190.0990  177.0550  146.0480 C   0  0  0  0  0  3  0  0  0  0  0  0
  187.8130  177.7280  146.4290 C   0  0  0  0  0  3  0  0  0  0  0  0
  188.1320  177.9860  147.7640 C   0  0  0  0  0  3  0  0  0  0  0  0
  188.8000  177.2540  145.5520 C   0  0  0  0  0  0  0  0  0  0  0  0
  189.4000  177.7800  148.2130 N   0  0  0  0  0  0  0  0  0  0  0  0
  190.3800  177.3230  147.3890 C   0  0  0  0  0  0  0  0  0  0  0  0
  188.2100  177.9020  140.2790 N   0  0  1  0  0  0  0  0  0  0  0  0
  189.0640  177.5200  141.3000 O   0  0  0  0  0  0  0  0  0  0  0  0
  188.3060  178.6280  141.5250 C   0  0  2  0  0  3  0  0  0  0  0  0
  189.0180  178.6190  139.3080 C   0  0  2  0  0  3  0  0  0  0  0  0
  188.4070  178.5500  138.0170 C   0  0  2  0  0  3  0  0  0  0  0  0
  190.3800  176.7560  137.9710 O   0  0  0  0  0  0  0  0  0  0  0  0
  189.5890  177.6240  138.2990 C   0  0  0  0  0  0  0  0  0  0  0  0
  188.8590  179.6560  137.1950 N   0  0  0  0  0  1  0  0  0  0  0  0
  185.7670  178.6920  141.9710 C   0  0  0  0  0  2  0  0  0  0  0  0
  184.0670  179.3400  143.4180 C   0  0  1  0  0  3  0  0  0  0  0  0
  183.4040  178.9860  144.7350 C   0  0  0  0  0  1  0  0  0  0  0  0
  184.7850  178.1930  142.9190 N   0  0  0  0  0  0  0  0  0  0  0  0
  183.5440  178.5670  142.4290 O   0  0  0  0  0  0  0  0  0  0  0  0
  1  4  1  0  0  0  0
  2  1  2  0  0  0  0
  3  5  2  0  0  0  0
  4 10  1  0  0  0  0
  5  4  2  0  0  0  0
  7 12  1  0  0  0  0
  8  9  2  0  0  0  0
  9 11  1  0  0  0  0
 10  7  2  0  0  0  0
 10  8  1  0  0  0  0
 12  6  1  0  0  0  0
 12 11  2  0  0  0  0
 13 14  1  1  0  0  0
 13 15  1  0  0  0  0
 14 15  1  0  0  0  0
 15  2  1  1  0  0  0
 16 19  1  6  0  0  0
 16 13  1  0  0  0  0
 17 20  1  6  0  0  0
 17 19  1  0  0  0  0
 17 16  1  0  0  0  0
 18 19  2  0  0  0  0
 21  2  1  0  0  0  0
 21 24  1  0  0  0  0
 22 23  1  1  0  0  0
 24 22  1  0  0  0  0
 25 24  1  0  0  0  0
 25 22  1  0  0  0  0
M  END
>  <MODEL>
9

>  <REMARK>
 VINA RESULT:      -7.2      2.154      4.727
  Name = 
  6 active torsions:
  status: ('A' for Active; 'I' for Inactive)
    1  A    between atoms: N_6  and  C_7
    2  A    between atoms: C_11  and  C_12
    3  A    between atoms: C_12  and  C_15
    4  A    between atoms: C_16  and  C_25
    5  A    between atoms: N_21  and  C_23
    6  A    between atoms: C_23  and  C_25
                            x       y       z     vdW  Elec       q    Type
                         _______ _______ _______ _____ _____    ______ ____

>  <TORSDO>
F 6

$$$$
