=
 OpenBabel11042411043D

 39 44  0  0  1  0  0  0  0  0999 V2000
  184.9120  179.4780  138.7450 N   0  0  0  0  0  0  0  0  0  0  0  0
  186.7150  178.9410  137.2840 N   0  0  0  0  0  2  0  0  0  0  0  0
  185.7350  175.1380  137.3590 O   0  0  0  0  0  0  0  0  0  0  0  0
  185.4820  178.6380  137.9460 C   0  0  0  0  0  0  0  0  0  0  0  0
  185.2350  176.2480  137.5780 C   0  0  0  0  0  0  0  0  0  0  0  0
  184.7030  177.4210  137.8060 C   0  0  0  0  0  0  0  0  0  0  0  0
  183.5500  177.5950  138.6210 N   0  0  0  0  0  0  0  0  0  0  0  0
  183.6640  178.9090  139.2540 C   0  0  1  0  0  3  0  0  0  0  0  0
  186.3690  178.1070  143.3730 C   0  0  0  0  0  2  0  0  0  0  0  0
  182.5780  178.9810  141.5330 C   0  0  0  0  0  3  0  0  0  0  0  0
  183.7210  178.7830  140.7460 C   0  0  0  0  0  0  0  0  0  0  0  0
  186.2610  177.6370  144.8210 C   0  0  0  0  0  2  0  0  0  0  0  0
  185.0250  178.3600  142.7500 C   0  0  0  0  0  0  0  0  0  0  0  0
  182.6560  178.8790  142.9230 C   0  0  0  0  0  3  0  0  0  0  0  0
  184.9390  178.4780  141.3590 C   0  0  0  0  0  3  0  0  0  0  0  0
  185.3240  178.5540  145.5920 C   0  0  0  0  0  2  0  0  0  0  0  0
  183.8760  178.5860  143.5420 C   0  0  0  0  0  0  0  0  0  0  0  0
  183.9100  178.4250  145.0340 C   0  0  0  0  0  2  0  0  0  0  0  0
  181.0160  177.4200  136.4380 C   0  0  2  0  0  3  0  0  0  0  0  0
  180.6710  175.3350  139.3520 O   0  0  0  0  0  0  0  0  0  0  0  0
  181.9440  175.8610  139.7710 C   0  0  0  0  0  2  0  0  0  0  0  0
  180.3970  175.9200  138.1370 C   0  0  0  0  0  0  0  0  0  0  0  0
  179.3770  175.8060  137.3650 N   0  0  0  0  0  0  0  0  0  0  0  0
  178.9310  176.8480  135.2920 O   0  0  0  0  0  0  0  0  0  0  0  0
  180.7690  178.9040  136.6500 C   0  0  0  0  0  1  0  0  0  0  0  0
  182.3570  176.7900  138.6350 C   0  0  0  0  0  0  0  0  0  0  0  0
  179.6940  176.6960  136.2820 C   0  0  0  0  0  0  0  0  0  0  0  0
  181.4030  176.7840  137.7190 C   0  0  0  0  0  0  0  0  0  0  0  0
  187.2960  178.1030  136.2430 C   0  0  0  0  0  2  0  0  0  0  0  0
  189.5990  177.5290  138.7140 C   0  0  0  0  0  0  0  0  0  0  0  0
  188.9260  176.4360  136.9350 N   0  0  0  0  0  2  0  0  0  0  0  0
  190.1000  177.7650  140.0300 N   0  0  0  0  0  2  0  0  0  0  0  0
  189.4340  176.3500  138.2290 N   0  0  0  0  0  0  0  0  0  0  0  0
  188.7610  177.8260  136.5460 C   0  0  2  0  0  3  0  0  0  0  0  0
  189.2060  178.6180  137.7780 C   0  0  0  0  0  2  0  0  0  0  0  0
  190.5300  176.6760  140.8940 C   0  0  0  0  0  2  0  0  0  0  0  0
  190.3680  177.0530  142.3610 C   0  0  1  0  0  3  0  0  0  0  0  0
  189.4160  176.1050  143.0670 C   0  0  0  0  0  1  0  0  0  0  0  0
  191.6100  177.0470  143.0010 O   0  0  0  0  0  1  0  0  0  0  0  0
  1  8  1  0  0  0  0
  2  4  1  0  0  0  0
  3  5  2  0  0  0  0
  4  1  2  0  0  0  0
  5  6  2  0  0  0  0
  6  4  1  0  0  0  0
  6  7  1  0  0  0  0
  7 26  1  0  0  0  0
  7  8  1  0  0  0  0
  8 11  1  1  0  0  0
  9 12  1  0  0  0  0
 10 14  1  0  0  0  0
 11 15  1  0  0  0  0
 11 10  2  0  0  0  0
 12 16  1  0  0  0  0
 13  9  1  0  0  0  0
 13 17  1  0  0  0  0
 14 17  2  0  0  0  0
 15 13  2  0  0  0  0
 17 18  1  0  0  0  0
 18 16  1  0  0  0  0
 19 25  1  1  0  0  0
 19 28  1  0  0  0  0
 20 21  1  0  0  0  0
 22 20  1  0  0  0  0
 23 22  2  0  0  0  0
 24 27  2  0  0  0  0
 26 21  1  0  0  0  0
 27 19  1  0  0  0  0
 27 23  1  0  0  0  0
 28 22  1  0  0  0  0
 28 26  2  0  0  0  0
 29  2  1  0  0  0  0
 30 32  1  0  0  0  0
 31 33  1  0  0  0  0
 32 36  1  0  0  0  0
 33 30  2  0  0  0  0
 34 29  1  1  0  0  0
 34 31  1  0  0  0  0
 34 35  1  0  0  0  0
 35 30  1  0  0  0  0
 36 37  1  0  0  0  0
 37 39  1  0  0  0  0
 37 38  1  1  0  0  0
M  END
>  <MODEL>
1

>  <REMARK>
 VINA RESULT:      -8.3      0.000      0.000
  Name = 
  6 active torsions:
  status: ('A' for Active; 'I' for Inactive)
    1  A    between atoms: C_6  and  C_33
    2  A    between atoms: N_8  and  C_33
    3  A    between atoms: N_9  and  C_14
    4  A    between atoms: C_13  and  C_37
    5  A    between atoms: C_14  and  C_30
    6  A    between atoms: C_23  and  N_36
                            x       y       z     vdW  Elec       q    Type
                         _______ _______ _______ _____ _____    ______ ____

>  <TORSDO>
F 6

$$$$
=
 OpenBabel11042411043D

 39 44  0  0  1  0  0  0  0  0999 V2000
  185.7960  179.0000  138.7850 N   0  0  0  0  0  0  0  0  0  0  0  0
  186.7270  177.7690  136.9710 N   0  0  0  0  0  2  0  0  0  0  0  0
  183.9380  175.0240  137.3080 O   0  0  0  0  0  0  0  0  0  0  0  0
  185.6740  178.0750  137.8920 C   0  0  0  0  0  0  0  0  0  0  0  0
  184.1470  176.2040  137.6180 C   0  0  0  0  0  0  0  0  0  0  0  0
  184.3630  177.4520  137.9420 C   0  0  0  0  0  0  0  0  0  0  0  0
  183.6560  178.1070  138.9880 N   0  0  0  0  0  0  0  0  0  0  0  0
  184.5600  179.1020  139.5630 C   0  0  1  0  0  3  0  0  0  0  0  0
  187.7810  177.6790  143.1040 C   0  0  0  0  0  2  0  0  0  0  0  0
  183.8400  178.9940  141.9820 C   0  0  0  0  0  3  0  0  0  0  0  0
  184.8310  178.8100  141.0080 C   0  0  0  0  0  0  0  0  0  0  0  0
  187.8540  177.0620  144.4980 C   0  0  0  0  0  2  0  0  0  0  0  0
  186.3830  178.0860  142.7290 C   0  0  0  0  0  0  0  0  0  0  0  0
  184.1180  178.7360  143.3250 C   0  0  0  0  0  3  0  0  0  0  0  0
  186.0990  178.3610  141.3870 C   0  0  0  0  0  3  0  0  0  0  0  0
  187.1220  177.9480  145.4930 C   0  0  0  0  0  2  0  0  0  0  0  0
  185.3890  178.2990  143.7110 C   0  0  0  0  0  0  0  0  0  0  0  0
  185.6340  177.9730  145.1560 C   0  0  0  0  0  2  0  0  0  0  0  0
  181.1320  180.0890  138.0320 C   0  0  2  0  0  3  0  0  0  0  0  0
  180.2070  177.3810  140.2130 O   0  0  0  0  0  0  0  0  0  0  0  0
  181.5990  177.0160  140.2070 C   0  0  0  0  0  2  0  0  0  0  0  0
  180.0960  178.4840  139.3990 C   0  0  0  0  0  0  0  0  0  0  0  0
  179.0760  179.2030  139.0970 N   0  0  0  0  0  0  0  0  0  0  0  0
  178.9310  181.1100  137.7100 O   0  0  0  0  0  0  0  0  0  0  0  0
  181.8400  181.2610  138.6910 C   0  0  0  0  0  1  0  0  0  0  0  0
  182.2480  178.0320  139.2740 C   0  0  0  0  0  0  0  0  0  0  0  0
  179.6360  180.2120  138.2400 C   0  0  0  0  0  0  0  0  0  0  0  0
  181.3140  178.8660  138.8460 C   0  0  0  0  0  0  0  0  0  0  0  0
  186.5690  176.8660  135.8380 C   0  0  0  0  0  2  0  0  0  0  0  0
  189.7820  176.3030  136.8890 C   0  0  0  0  0  0  0  0  0  0  0  0
  187.9140  175.1530  136.9220 N   0  0  0  0  0  2  0  0  0  0  0  0
  191.0640  176.7860  137.2920 N   0  0  0  0  0  2  0  0  0  0  0  0
  189.1300  175.4140  137.5500 N   0  0  0  0  0  0  0  0  0  0  0  0
  187.7820  175.9560  135.7170 C   0  0  2  0  0  3  0  0  0  0  0  0
  189.0670  176.7870  135.6770 C   0  0  0  0  0  2  0  0  0  0  0  0
  191.7570  176.2440  138.4510 C   0  0  0  0  0  2  0  0  0  0  0  0
  191.7030  177.2200  139.6190 C   0  0  1  0  0  3  0  0  0  0  0  0
  190.6000  176.8490  140.5910 C   0  0  0  0  0  1  0  0  0  0  0  0
  192.9330  177.2500  140.2810 O   0  0  0  0  0  1  0  0  0  0  0  0
  1  8  1  0  0  0  0
  2  4  1  0  0  0  0
  3  5  2  0  0  0  0
  4  6  1  0  0  0  0
  4  1  2  0  0  0  0
  5  6  2  0  0  0  0
  6  7  1  0  0  0  0
  7 26  1  0  0  0  0
  7  8  1  0  0  0  0
  8 11  1  1  0  0  0
  9 12  1  0  0  0  0
 10 14  1  0  0  0  0
 11 15  1  0  0  0  0
 11 10  2  0  0  0  0
 12 16  1  0  0  0  0
 13  9  1  0  0  0  0
 13 17  1  0  0  0  0
 14 17  2  0  0  0  0
 15 13  2  0  0  0  0
 17 18  1  0  0  0  0
 18 16  1  0  0  0  0
 19 27  1  0  0  0  0
 19 25  1  1  0  0  0
 19 28  1  0  0  0  0
 21 20  1  0  0  0  0
 22 20  1  0  0  0  0
 23 22  2  0  0  0  0
 24 27  2  0  0  0  0
 26 21  1  0  0  0  0
 27 23  1  0  0  0  0
 28 26  2  0  0  0  0
 28 22  1  0  0  0  0
 29  2  1  0  0  0  0
 30 32  1  0  0  0  0
 30 33  2  0  0  0  0
 31 33  1  0  0  0  0
 32 36  1  0  0  0  0
 34 29  1  1  0  0  0
 34 31  1  0  0  0  0
 35 34  1  0  0  0  0
 35 30  1  0  0  0  0
 36 37  1  0  0  0  0
 37 39  1  0  0  0  0
 37 38  1  1  0  0  0
M  END
>  <MODEL>
2

>  <REMARK>
 VINA RESULT:      -8.0      1.956      2.251
  Name = 
  6 active torsions:
  status: ('A' for Active; 'I' for Inactive)
    1  A    between atoms: C_6  and  C_33
    2  A    between atoms: N_8  and  C_33
    3  A    between atoms: N_9  and  C_14
    4  A    between atoms: C_13  and  C_37
    5  A    between atoms: C_14  and  C_30
    6  A    between atoms: C_23  and  N_36
                            x       y       z     vdW  Elec       q    Type
                         _______ _______ _______ _____ _____    ______ ____

>  <TORSDO>
F 6

$$$$
=
 OpenBabel11042411043D

 39 44  0  0  1  0  0  0  0  0999 V2000
  184.2600  178.6850  139.0440 N   0  0  0  0  0  0  0  0  0  0  0  0
  185.6530  179.3200  140.8680 N   0  0  0  0  0  2  0  0  0  0  0  0
  182.5600  179.4250  143.2870 O   0  0  0  0  0  0  0  0  0  0  0  0
  184.4270  178.8280  140.3170 C   0  0  0  0  0  0  0  0  0  0  0  0
  182.8980  178.9310  142.2040 C   0  0  0  0  0  0  0  0  0  0  0  0
  183.2540  178.4040  141.0610 C   0  0  0  0  0  0  0  0  0  0  0  0
  182.3110  177.9640  140.0920 N   0  0  0  0  0  0  0  0  0  0  0  0
  182.9250  178.1470  138.7770 C   0  0  1  0  0  3  0  0  0  0  0  0
  181.1480  182.7670  138.1200 C   0  0  0  0  0  2  0  0  0  0  0  0
  181.5750  178.7200  136.7200 C   0  0  0  0  0  3  0  0  0  0  0  0
  182.1340  179.1110  137.9450 C   0  0  0  0  0  0  0  0  0  0  0  0
  180.0430  183.5520  137.4180 C   0  0  0  0  0  2  0  0  0  0  0  0
  181.2390  181.3470  137.6370 C   0  0  0  0  0  0  0  0  0  0  0  0
  180.8590  179.6380  135.9500 C   0  0  0  0  0  3  0  0  0  0  0  0
  181.9670  180.4230  138.3950 C   0  0  0  0  0  3  0  0  0  0  0  0
  180.1500  183.3580  135.9130 C   0  0  0  0  0  2  0  0  0  0  0  0
  180.7000  180.9560  136.3900 C   0  0  0  0  0  0  0  0  0  0  0  0
  179.8730  181.8990  135.5650 C   0  0  0  0  0  2  0  0  0  0  0  0
  181.3360  174.9720  138.9470 C   0  0  2  0  0  3  0  0  0  0  0  0
  178.9310  176.6750  141.0130 O   0  0  0  0  0  0  0  0  0  0  0  0
  179.9010  177.7330  141.1170 C   0  0  0  0  0  2  0  0  0  0  0  0
  179.5110  175.7000  140.2340 C   0  0  0  0  0  0  0  0  0  0  0  0
  179.0510  174.5740  139.8240 N   0  0  0  0  0  0  0  0  0  0  0  0
  180.0710  172.9330  138.4620 O   0  0  0  0  0  0  0  0  0  0  0  0
  181.4850  175.4980  137.5280 C   0  0  0  0  0  1  0  0  0  0  0  0
  181.0980  177.2240  140.3220 C   0  0  0  0  0  0  0  0  0  0  0  0
  180.1310  174.0560  139.0300 C   0  0  0  0  0  0  0  0  0  0  0  0
  180.7970  176.0350  139.8260 C   0  0  0  0  0  0  0  0  0  0  0  0
  185.9490  179.3260  142.2950 C   0  0  0  0  0  2  0  0  0  0  0  0
  188.1210  177.6620  144.3590 C   0  0  0  0  0  0  0  0  0  0  0  0
  185.9470  177.6520  144.0590 N   0  0  0  0  0  2  0  0  0  0  0  0
  189.3800  177.5650  145.0230 N   0  0  0  0  0  2  0  0  0  0  0  0
  186.9980  177.4820  144.9580 N   0  0  0  0  0  0  0  0  0  0  0  0
  186.4580  177.9610  142.7340 C   0  0  2  0  0  3  0  0  0  0  0  0
  187.9780  177.9960  142.9150 C   0  0  0  0  0  2  0  0  0  0  0  0
  189.4820  177.1770  146.4220 C   0  0  0  0  0  2  0  0  0  0  0  0
  190.8360  176.5420  146.7110 C   0  0  1  0  0  3  0  0  0  0  0  0
  191.6930  176.4890  145.4600 C   0  0  0  0  0  1  0  0  0  0  0  0
  191.4990  177.2520  147.7140 O   0  0  0  0  0  1  0  0  0  0  0  0
  1  4  2  0  0  0  0
  2 29  1  0  0  0  0
  4  2  1  0  0  0  0
  4  6  1  0  0  0  0
  5  3  2  0  0  0  0
  6  5  2  0  0  0  0
  7 26  1  0  0  0  0
  7  6  1  0  0  0  0
  8 11  1  6  0  0  0
  8  1  1  0  0  0  0
  8  7  1  0  0  0  0
 10 11  1  0  0  0  0
 11 15  2  0  0  0  0
 12  9  1  0  0  0  0
 13  9  1  0  0  0  0
 13 15  1  0  0  0  0
 14 17  1  0  0  0  0
 14 10  2  0  0  0  0
 16 12  1  0  0  0  0
 17 13  2  0  0  0  0
 18 16  1  0  0  0  0
 18 17  1  0  0  0  0
 19 25  1  6  0  0  0
 19 27  1  0  0  0  0
 19 28  1  0  0  0  0
 20 21  1  0  0  0  0
 22 20  1  0  0  0  0
 23 22  2  0  0  0  0
 24 27  2  0  0  0  0
 26 21  1  0  0  0  0
 27 23  1  0  0  0  0
 28 22  1  0  0  0  0
 28 26  2  0  0  0  0
 30 33  2  0  0  0  0
 30 32  1  0  0  0  0
 31 33  1  0  0  0  0
 32 36  1  0  0  0  0
 34 29  1  1  0  0  0
 34 35  1  0  0  0  0
 34 31  1  0  0  0  0
 35 30  1  0  0  0  0
 36 37  1  0  0  0  0
 37 38  1  6  0  0  0
 37 39  1  0  0  0  0
M  END
>  <MODEL>
3

>  <REMARK>
 VINA RESULT:      -7.7      3.208      5.787
  Name = 
  6 active torsions:
  status: ('A' for Active; 'I' for Inactive)
    1  A    between atoms: C_6  and  C_33
    2  A    between atoms: N_8  and  C_33
    3  A    between atoms: N_9  and  C_14
    4  A    between atoms: C_13  and  C_37
    5  A    between atoms: C_14  and  C_30
    6  A    between atoms: C_23  and  N_36
                            x       y       z     vdW  Elec       q    Type
                         _______ _______ _______ _____ _____    ______ ____

>  <TORSDO>
F 6

$$$$
=
 OpenBabel11042411043D

 39 44  0  0  1  0  0  0  0  0999 V2000
  187.9060  178.6220  140.6050 N   0  0  0  0  0  0  0  0  0  0  0  0
  187.1430  177.8170  142.7120 N   0  0  0  0  0  2  0  0  0  0  0  0
  189.8240  174.9450  142.6660 O   0  0  0  0  0  0  0  0  0  0  0  0
  188.1010  177.8890  141.6510 C   0  0  0  0  0  0  0  0  0  0  0  0
  189.6080  176.0480  142.1460 C   0  0  0  0  0  0  0  0  0  0  0  0
  189.3860  177.2150  141.5990 C   0  0  0  0  0  0  0  0  0  0  0  0
  189.9940  177.6190  140.3790 N   0  0  0  0  0  0  0  0  0  0  0  0
  189.0560  178.5170  139.7050 C   0  0  1  0  0  3  0  0  0  0  0  0
  186.5380  175.0420  137.1510 C   0  0  0  0  0  2  0  0  0  0  0  0
  188.9850  178.5830  137.1810 C   0  0  0  0  0  3  0  0  0  0  0  0
  188.6300  177.9540  138.3820 C   0  0  0  0  0  0  0  0  0  0  0  0
  186.4710  174.3470  135.7930 C   0  0  0  0  0  2  0  0  0  0  0  0
  187.4350  176.2480  137.1350 C   0  0  0  0  0  0  0  0  0  0  0  0
  188.5610  178.0550  135.9600 C   0  0  0  0  0  3  0  0  0  0  0  0
  187.8530  176.7930  138.3540 C   0  0  0  0  0  3  0  0  0  0  0  0
  186.2010  175.3730  134.7030 C   0  0  0  0  0  2  0  0  0  0  0  0
  187.7730  176.9000  135.9260 C   0  0  0  0  0  0  0  0  0  0  0  0
  187.3860  176.3270  134.5940 C   0  0  0  0  0  2  0  0  0  0  0  0
  191.2790  176.2190  137.6210 C   0  0  2  0  0  3  0  0  0  0  0  0
  193.7000  177.3540  140.0300 O   0  0  0  0  0  0  0  0  0  0  0  0
  192.5790  177.7750  140.8280 C   0  0  0  0  0  2  0  0  0  0  0  0
  193.1710  176.8180  138.8790 C   0  0  0  0  0  0  0  0  0  0  0  0
  193.7460  176.2790  137.8650 N   0  0  0  0  0  0  0  0  0  0  0  0
  192.7980  175.3430  135.9130 O   0  0  0  0  0  0  0  0  0  0  0  0
  190.5490  174.9320  137.9690 C   0  0  0  0  0  1  0  0  0  0  0  0
  191.3630  177.4300  139.9760 C   0  0  0  0  0  0  0  0  0  0  0  0
  192.6380  175.8950  137.0340 C   0  0  0  0  0  0  0  0  0  0  0  0
  191.7810  176.8640  138.8560 C   0  0  0  0  0  0  0  0  0  0  0  0
  187.4000  177.1510  143.9830 C   0  0  0  0  0  2  0  0  0  0  0  0
  189.6290  177.4570  146.5680 C   0  0  0  0  0  0  0  0  0  0  0  0
  189.4350  178.3460  144.5710 N   0  0  0  0  0  2  0  0  0  0  0  0
  190.2420  176.9470  147.7510 N   0  0  0  0  0  2  0  0  0  0  0  0
  190.3010  177.9360  145.5820 N   0  0  0  0  0  0  0  0  0  0  0  0
  188.0540  178.1150  144.9610 C   0  0  2  0  0  3  0  0  0  0  0  0
  188.1570  177.4750  146.3480 C   0  0  0  0  0  2  0  0  0  0  0  0
  191.6820  177.0020  147.9540 C   0  0  0  0  0  2  0  0  0  0  0  0
  192.3090  175.6280  147.7580 C   0  0  1  0  0  3  0  0  0  0  0  0
  192.3660  175.2580  146.2880 C   0  0  0  0  0  1  0  0  0  0  0  0
  193.5940  175.6010  148.3070 O   0  0  0  0  0  1  0  0  0  0  0  0
  1  4  2  0  0  0  0
  2 29  1  0  0  0  0
  4  2  1  0  0  0  0
  5  3  2  0  0  0  0
  6  4  1  0  0  0  0
  6  5  2  0  0  0  0
  7  6  1  0  0  0  0
  8 11  1  6  0  0  0
  8  7  1  0  0  0  0
  8  1  1  0  0  0  0
 10 11  1  0  0  0  0
 12  9  1  0  0  0  0
 13  9  1  0  0  0  0
 13 15  1  0  0  0  0
 14 10  2  0  0  0  0
 15 11  2  0  0  0  0
 16 12  1  0  0  0  0
 17 14  1  0  0  0  0
 17 13  2  0  0  0  0
 18 16  1  0  0  0  0
 18 17  1  0  0  0  0
 19 25  1  1  0  0  0
 19 28  1  0  0  0  0
 20 21  1  0  0  0  0
 22 20  1  0  0  0  0
 23 22  2  0  0  0  0
 24 27  2  0  0  0  0
 26  7  1  0  0  0  0
 26 21  1  0  0  0  0
 27 19  1  0  0  0  0
 27 23  1  0  0  0  0
 28 22  1  0  0  0  0
 28 26  2  0  0  0  0
 30 32  1  0  0  0  0
 31 34  1  0  0  0  0
 31 33  1  0  0  0  0
 32 36  1  0  0  0  0
 33 30  2  0  0  0  0
 34 29  1  6  0  0  0
 34 35  1  0  0  0  0
 35 30  1  0  0  0  0
 37 38  1  6  0  0  0
 37 36  1  0  0  0  0
 37 39  1  0  0  0  0
M  END
>  <MODEL>
4

>  <REMARK>
 VINA RESULT:      -7.6      4.874      8.770
  Name = 
  6 active torsions:
  status: ('A' for Active; 'I' for Inactive)
    1  A    between atoms: C_6  and  C_33
    2  A    between atoms: N_8  and  C_33
    3  A    between atoms: N_9  and  C_14
    4  A    between atoms: C_13  and  C_37
    5  A    between atoms: C_14  and  C_30
    6  A    between atoms: C_23  and  N_36
                            x       y       z     vdW  Elec       q    Type
                         _______ _______ _______ _____ _____    ______ ____

>  <TORSDO>
F 6

$$$$
=
 OpenBabel11042411043D

 39 44  0  0  1  0  0  0  0  0999 V2000
  186.1380  178.6790  138.9400 N   0  0  0  0  0  0  0  0  0  0  0  0
  187.0490  177.1050  137.4030 N   0  0  0  0  0  2  0  0  0  0  0  0
  183.6430  175.1530  137.2720 O   0  0  0  0  0  0  0  0  0  0  0  0
  185.9550  177.7360  138.0770 C   0  0  0  0  0  0  0  0  0  0  0  0
  184.0830  176.2700  137.5720 C   0  0  0  0  0  0  0  0  0  0  0  0
  184.5440  177.4540  137.8840 C   0  0  0  0  0  0  0  0  0  0  0  0
  183.8430  178.3490  138.7370 N   0  0  0  0  0  0  0  0  0  0  0  0
  184.8460  179.1450  139.4460 C   0  0  1  0  0  3  0  0  0  0  0  0
  187.0950  177.8610  143.7150 C   0  0  0  0  0  2  0  0  0  0  0  0
  183.5700  179.1760  141.6250 C   0  0  0  0  0  3  0  0  0  0  0  0
  184.7580  178.9250  140.9260 C   0  0  0  0  0  0  0  0  0  0  0  0
  186.8190  177.3170  145.1140 C   0  0  0  0  0  2  0  0  0  0  0  0
  185.8380  178.2690  142.9990 C   0  0  0  0  0  0  0  0  0  0  0  0
  183.5140  178.9840  143.0070 C   0  0  0  0  0  3  0  0  0  0  0  0
  185.8880  178.4770  141.6170 C   0  0  0  0  0  3  0  0  0  0  0  0
  185.8960  178.2660  145.8630 C   0  0  0  0  0  2  0  0  0  0  0  0
  184.6450  178.5480  143.7050 C   0  0  0  0  0  0  0  0  0  0  0  0
  184.5320  178.2960  145.1810 C   0  0  0  0  0  2  0  0  0  0  0  0
  181.3270  176.9510  140.4480 C   0  0  2  0  0  3  0  0  0  0  0  0
  180.3570  179.5440  138.1480 O   0  0  0  0  0  0  0  0  0  0  0  0
  181.7540  179.6560  137.8220 C   0  0  0  0  0  2  0  0  0  0  0  0
  180.2660  178.5660  139.1120 C   0  0  0  0  0  0  0  0  0  0  0  0
  179.2420  178.0730  139.7100 N   0  0  0  0  0  0  0  0  0  0  0  0
  179.1240  176.3720  141.3470 O   0  0  0  0  0  0  0  0  0  0  0  0
  181.6860  175.6120  139.8270 C   0  0  0  0  0  1  0  0  0  0  0  0
  182.4340  178.6420  138.7350 C   0  0  0  0  0  0  0  0  0  0  0  0
  179.8200  177.0740  140.5660 C   0  0  0  0  0  0  0  0  0  0  0  0
  181.5040  178.0340  139.4540 C   0  0  0  0  0  0  0  0  0  0  0  0
  186.8820  176.1690  136.2970 C   0  0  0  0  0  2  0  0  0  0  0  0
  190.2460  176.0960  136.9450 C   0  0  0  0  0  0  0  0  0  0  0  0
  188.5930  174.6690  137.1560 N   0  0  0  0  0  2  0  0  0  0  0  0
  191.4790  176.7650  137.2120 N   0  0  0  0  0  2  0  0  0  0  0  0
  189.8220  175.1060  137.6460 N   0  0  0  0  0  0  0  0  0  0  0  0
  188.1960  175.4610  136.0040 C   0  0  2  0  0  3  0  0  0  0  0  0
  189.3250  176.4820  135.8420 C   0  0  0  0  0  2  0  0  0  0  0  0
  192.3820  176.3190  138.2620 C   0  0  0  0  0  2  0  0  0  0  0  0
  193.5670  175.5650  137.6720 C   0  0  1  0  0  3  0  0  0  0  0  0
  193.9770  176.1500  136.3340 C   0  0  0  0  0  1  0  0  0  0  0  0
  194.6470  175.5950  138.5570 O   0  0  0  0  0  1  0  0  0  0  0  0
  1  8  1  0  0  0  0
  2  4  1  0  0  0  0
  3  5  2  0  0  0  0
  4  1  2  0  0  0  0
  5  6  2  0  0  0  0
  6  4  1  0  0  0  0
  6  7  1  0  0  0  0
  7  8  1  0  0  0  0
  8 11  1  1  0  0  0
  9 12  1  0  0  0  0
 10 14  1  0  0  0  0
 11 15  1  0  0  0  0
 11 10  2  0  0  0  0
 12 16  1  0  0  0  0
 13 17  1  0  0  0  0
 13  9  1  0  0  0  0
 14 17  2  0  0  0  0
 15 13  2  0  0  0  0
 17 18  1  0  0  0  0
 18 16  1  0  0  0  0
 19 25  1  6  0  0  0
 19 27  1  0  0  0  0
 20 22  1  0  0  0  0
 21 20  1  0  0  0  0
 21 26  1  0  0  0  0
 22 28  1  0  0  0  0
 22 23  2  0  0  0  0
 23 27  1  0  0  0  0
 26  7  1  0  0  0  0
 26 28  2  0  0  0  0
 27 24  2  0  0  0  0
 28 19  1  0  0  0  0
 29  2  1  0  0  0  0
 30 32  1  0  0  0  0
 30 33  2  0  0  0  0
 31 33  1  0  0  0  0
 32 36  1  0  0  0  0
 34 29  1  1  0  0  0
 34 31  1  0  0  0  0
 35 34  1  0  0  0  0
 35 30  1  0  0  0  0
 37 38  1  6  0  0  0
 37 36  1  0  0  0  0
 37 39  1  0  0  0  0
M  END
>  <MODEL>
5

>  <REMARK>
 VINA RESULT:      -7.3      2.241      3.047
  Name = 
  6 active torsions:
  status: ('A' for Active; 'I' for Inactive)
    1  A    between atoms: C_6  and  C_33
    2  A    between atoms: N_8  and  C_33
    3  A    between atoms: N_9  and  C_14
    4  A    between atoms: C_13  and  C_37
    5  A    between atoms: C_14  and  C_30
    6  A    between atoms: C_23  and  N_36
                            x       y       z     vdW  Elec       q    Type
                         _______ _______ _______ _____ _____    ______ ____

>  <TORSDO>
F 6

$$$$
=
 OpenBabel11042411043D

 39 44  0  0  1  0  0  0  0  0999 V2000
  182.3900  178.2360  141.5480 N   0  0  0  0  0  0  0  0  0  0  0  0
  184.6830  178.4680  142.1490 N   0  0  0  0  0  2  0  0  0  0  0  0
  185.7090  178.8340  138.3750 O   0  0  0  0  0  0  0  0  0  0  0  0
  183.5940  178.5740  141.2260 C   0  0  0  0  0  0  0  0  0  0  0  0
  184.7130  178.9520  139.1010 C   0  0  0  0  0  0  0  0  0  0  0  0
  183.6610  179.0820  139.8670 C   0  0  0  0  0  0  0  0  0  0  0  0
  182.3330  179.0290  139.3600 N   0  0  0  0  0  0  0  0  0  0  0  0
  181.4900  178.4720  140.4180 C   0  0  1  0  0  3  0  0  0  0  0  0
  181.6890  174.3600  137.5930 C   0  0  0  0  0  2  0  0  0  0  0  0
  179.6520  176.7440  140.5410 C   0  0  0  0  0  3  0  0  0  0  0  0
  180.8580  177.1850  139.9800 C   0  0  0  0  0  0  0  0  0  0  0  0
  180.8130  173.2880  136.9500 C   0  0  0  0  0  2  0  0  0  0  0  0
  180.9330  175.2010  138.5840 C   0  0  0  0  0  0  0  0  0  0  0  0
  179.0900  175.5330  140.1340 C   0  0  0  0  0  3  0  0  0  0  0  0
  181.4960  176.4090  139.0080 C   0  0  0  0  0  3  0  0  0  0  0  0
  180.0490  172.5340  138.0280 C   0  0  0  0  0  2  0  0  0  0  0  0
  179.7300  174.7460  139.1700 C   0  0  0  0  0  0  0  0  0  0  0  0
  179.0670  173.4790  138.7140 C   0  0  0  0  0  2  0  0  0  0  0  0
  180.7400  181.9400  138.9120 C   0  0  2  0  0  3  0  0  0  0  0  0
  181.1800  179.9630  135.9370 O   0  0  0  0  0  0  0  0  0  0  0  0
  181.8390  179.0010  136.7790 C   0  0  0  0  0  2  0  0  0  0  0  0
  180.8220  181.0090  136.7570 C   0  0  0  0  0  0  0  0  0  0  0  0
  180.1880  182.0950  136.4990 N   0  0  0  0  0  0  0  0  0  0  0  0
  179.5680  183.8590  137.9450 O   0  0  0  0  0  0  0  0  0  0  0  0
  179.6620  181.4660  139.8720 C   0  0  0  0  0  1  0  0  0  0  0  0
  181.8270  179.6430  138.1620 C   0  0  0  0  0  0  0  0  0  0  0  0
  180.1100  182.7340  137.7850 C   0  0  0  0  0  0  0  0  0  0  0  0
  181.2080  180.8100  138.0780 C   0  0  0  0  0  0  0  0  0  0  0  0
  186.0130  179.0040  141.8900 C   0  0  0  0  0  2  0  0  0  0  0  0
  188.7960  177.9420  143.5850 C   0  0  0  0  0  0  0  0  0  0  0  0
  186.7980  177.1160  143.2080 N   0  0  0  0  0  2  0  0  0  0  0  0
  190.0260  178.2150  144.2560 N   0  0  0  0  0  2  0  0  0  0  0  0
  187.8810  177.1870  144.0810 N   0  0  0  0  0  0  0  0  0  0  0  0
  187.0570  177.9040  142.0140 C   0  0  2  0  0  3  0  0  0  0  0  0
  188.4410  178.5120  142.2570 C   0  0  0  0  0  2  0  0  0  0  0  0
  190.3620  177.5910  145.5270 C   0  0  0  0  0  2  0  0  0  0  0  0
  191.6800  176.8350  145.4260 C   0  0  1  0  0  3  0  0  0  0  0  0
  191.9300  176.0030  146.6700 C   0  0  0  0  0  1  0  0  0  0  0  0
  191.6820  176.0140  144.2960 O   0  0  0  0  0  1  0  0  0  0  0  0
  3  5  2  0  0  0  0
  4  1  2  0  0  0  0
  4  2  1  0  0  0  0
  5  6  2  0  0  0  0
  6  4  1  0  0  0  0
  7  6  1  0  0  0  0
  7  8  1  0  0  0  0
  8 11  1  6  0  0  0
  8  1  1  0  0  0  0
  9 13  1  0  0  0  0
 11 10  2  0  0  0  0
 12  9  1  0  0  0  0
 12 16  1  0  0  0  0
 13 15  2  0  0  0  0
 13 17  1  0  0  0  0
 14 10  1  0  0  0  0
 15 11  1  0  0  0  0
 16 18  1  0  0  0  0
 17 14  2  0  0  0  0
 18 17  1  0  0  0  0
 19 25  1  1  0  0  0
 20 22  1  0  0  0  0
 20 21  1  0  0  0  0
 21 26  1  0  0  0  0
 22 28  1  0  0  0  0
 23 22  2  0  0  0  0
 23 27  1  0  0  0  0
 26  7  1  0  0  0  0
 27 24  2  0  0  0  0
 27 19  1  0  0  0  0
 28 26  2  0  0  0  0
 28 19  1  0  0  0  0
 29  2  1  0  0  0  0
 30 33  2  0  0  0  0
 30 32  1  0  0  0  0
 31 33  1  0  0  0  0
 32 36  1  0  0  0  0
 34 29  1  1  0  0  0
 34 35  1  0  0  0  0
 34 31  1  0  0  0  0
 35 30  1  0  0  0  0
 37 36  1  0  0  0  0
 37 38  1  1  0  0  0
 39 37  1  0  0  0  0
M  END
>  <MODEL>
6

>  <REMARK>
 VINA RESULT:      -7.0      3.207      5.590
  Name = 
  6 active torsions:
  status: ('A' for Active; 'I' for Inactive)
    1  A    between atoms: C_6  and  C_33
    2  A    between atoms: N_8  and  C_33
    3  A    between atoms: N_9  and  C_14
    4  A    between atoms: C_13  and  C_37
    5  A    between atoms: C_14  and  C_30
    6  A    between atoms: C_23  and  N_36
                            x       y       z     vdW  Elec       q    Type
                         _______ _______ _______ _____ _____    ______ ____

>  <TORSDO>
F 6

$$$$
=
 OpenBabel11042411043D

 39 44  0  0  1  0  0  0  0  0999 V2000
  185.6040  178.9700  138.4530 N   0  0  0  0  0  0  0  0  0  0  0  0
  186.9750  177.5640  137.1060 N   0  0  0  0  0  2  0  0  0  0  0  0
  184.1130  174.8840  136.8650 O   0  0  0  0  0  0  0  0  0  0  0  0
  185.7130  177.9650  137.6500 C   0  0  0  0  0  0  0  0  0  0  0  0
  184.2650  176.0870  137.1140 C   0  0  0  0  0  0  0  0  0  0  0  0
  184.4230  177.3590  137.3730 C   0  0  0  0  0  0  0  0  0  0  0  0
  183.4670  178.1170  138.1050 N   0  0  0  0  0  0  0  0  0  0  0  0
  184.2010  179.1570  138.8260 C   0  0  1  0  0  3  0  0  0  0  0  0
  186.2620  178.3050  143.2940 C   0  0  0  0  0  2  0  0  0  0  0  0
  182.7820  179.1750  140.9150 C   0  0  0  0  0  3  0  0  0  0  0  0
  184.0330  179.0030  140.3080 C   0  0  0  0  0  0  0  0  0  0  0  0
  185.9420  177.8070  144.7000 C   0  0  0  0  0  2  0  0  0  0  0  0
  185.0240  178.5570  142.4780 C   0  0  0  0  0  0  0  0  0  0  0  0
  182.6500  179.0480  142.2990 C   0  0  0  0  0  3  0  0  0  0  0  0
  185.1490  178.7000  141.0920 C   0  0  0  0  0  3  0  0  0  0  0  0
  184.8870  178.7000  145.3350 C   0  0  0  0  0  2  0  0  0  0  0  0
  183.7660  178.7560  143.0900 C   0  0  0  0  0  0  0  0  0  0  0  0
  183.5760  178.5680  144.5680 C   0  0  0  0  0  2  0  0  0  0  0  0
  181.1630  176.4650  139.8860 C   0  0  2  0  0  3  0  0  0  0  0  0
  179.8740  178.3920  137.1330 O   0  0  0  0  0  0  0  0  0  0  0  0
  181.2390  178.7650  136.8700 C   0  0  0  0  0  2  0  0  0  0  0  0
  179.9070  177.5770  138.2410 C   0  0  0  0  0  0  0  0  0  0  0  0
  178.9620  176.9630  138.8570 N   0  0  0  0  0  0  0  0  0  0  0  0
  179.0620  175.5490  140.7480 O   0  0  0  0  0  0  0  0  0  0  0  0
  181.8540  175.1620  139.5200 C   0  0  0  0  0  1  0  0  0  0  0  0
  182.0340  178.0810  137.9760 C   0  0  0  0  0  0  0  0  0  0  0  0
  179.6600  176.2620  139.9000 C   0  0  0  0  0  0  0  0  0  0  0  0
  181.1940  177.3960  138.7350 C   0  0  0  0  0  0  0  0  0  0  0  0
  187.1190  176.5560  136.0630 C   0  0  0  0  0  2  0  0  0  0  0  0
  190.1620  176.5870  137.6380 C   0  0  0  0  0  0  0  0  0  0  0  0
  188.7060  175.0350  137.1040 N   0  0  0  0  0  2  0  0  0  0  0  0
  191.1820  177.2720  138.3660 N   0  0  0  0  0  2  0  0  0  0  0  0
  189.6900  175.4470  138.0000 N   0  0  0  0  0  0  0  0  0  0  0  0
  188.5410  176.0160  136.0440 C   0  0  2  0  0  3  0  0  0  0  0  0
  189.5340  177.1260  136.4010 C   0  0  0  0  0  2  0  0  0  0  0  0
  191.8140  176.6850  139.5380 C   0  0  0  0  0  2  0  0  0  0  0  0
  191.3860  177.4140  140.8050 C   0  0  1  0  0  3  0  0  0  0  0  0
  189.9930  176.9930  141.2350 C   0  0  0  0  0  1  0  0  0  0  0  0
  192.2980  177.1680  141.8340 O   0  0  0  0  0  1  0  0  0  0  0  0
  1  8  1  0  0  0  0
  2  4  1  0  0  0  0
  3  5  2  0  0  0  0
  4  1  2  0  0  0  0
  5  6  2  0  0  0  0
  6  4  1  0  0  0  0
  6  7  1  0  0  0  0
  7  8  1  0  0  0  0
  8 11  1  1  0  0  0
  9 12  1  0  0  0  0
 10 14  1  0  0  0  0
 11 10  2  0  0  0  0
 11 15  1  0  0  0  0
 12 16  1  0  0  0  0
 13 17  1  0  0  0  0
 13  9  1  0  0  0  0
 14 17  2  0  0  0  0
 15 13  2  0  0  0  0
 17 18  1  0  0  0  0
 18 16  1  0  0  0  0
 19 25  1  6  0  0  0
 19 27  1  0  0  0  0
 20 22  1  0  0  0  0
 21 20  1  0  0  0  0
 21 26  1  0  0  0  0
 22 28  1  0  0  0  0
 22 23  2  0  0  0  0
 23 27  1  0  0  0  0
 26  7  1  0  0  0  0
 26 28  2  0  0  0  0
 27 24  2  0  0  0  0
 28 19  1  0  0  0  0
 29  2  1  0  0  0  0
 30 33  2  0  0  0  0
 30 32  1  0  0  0  0
 31 33  1  0  0  0  0
 32 36  1  0  0  0  0
 34 29  1  1  0  0  0
 34 35  1  0  0  0  0
 34 31  1  0  0  0  0
 35 30  1  0  0  0  0
 36 37  1  0  0  0  0
 37 38  1  1  0  0  0
 37 39  1  0  0  0  0
M  END
>  <MODEL>
7

>  <REMARK>
 VINA RESULT:      -6.9      1.298      2.077
  Name = 
  6 active torsions:
  status: ('A' for Active; 'I' for Inactive)
    1  A    between atoms: C_6  and  C_33
    2  A    between atoms: N_8  and  C_33
    3  A    between atoms: N_9  and  C_14
    4  A    between atoms: C_13  and  C_37
    5  A    between atoms: C_14  and  C_30
    6  A    between atoms: C_23  and  N_36
                            x       y       z     vdW  Elec       q    Type
                         _______ _______ _______ _____ _____    ______ ____

>  <TORSDO>
F 6

$$$$
=
 OpenBabel11042411043D

 39 44  0  0  1  0  0  0  0  0999 V2000
  182.0320  178.0790  141.0030 N   0  0  0  0  0  0  0  0  0  0  0  0
  180.5050  179.4230  139.7650 N   0  0  0  0  0  2  0  0  0  0  0  0
  183.4120  181.8080  138.6300 O   0  0  0  0  0  0  0  0  0  0  0  0
  181.8250  178.9870  140.1080 C   0  0  0  0  0  0  0  0  0  0  0  0
  183.2430  180.6610  139.0620 C   0  0  0  0  0  0  0  0  0  0  0  0
  183.0680  179.4460  139.5130 C   0  0  0  0  0  0  0  0  0  0  0  0
  184.1040  178.7050  140.1450 N   0  0  0  0  0  0  0  0  0  0  0  0
  183.4680  177.8230  141.1250 C   0  0  1  0  0  3  0  0  0  0  0  0
  187.0320  177.5100  144.6090 C   0  0  0  0  0  2  0  0  0  0  0  0
  183.1470  178.9010  143.3870 C   0  0  0  0  0  3  0  0  0  0  0  0
  183.9360  178.1390  142.5140 C   0  0  0  0  0  0  0  0  0  0  0  0
  187.2590  177.5510  146.1170 C   0  0  0  0  0  2  0  0  0  0  0  0
  185.6510  177.9600  144.2230 C   0  0  0  0  0  0  0  0  0  0  0  0
  183.6090  179.2010  144.6690 C   0  0  0  0  0  3  0  0  0  0  0  0
  185.1860  177.6760  142.9340 C   0  0  0  0  0  3  0  0  0  0  0  0
  186.8110  178.8960  146.6680 C   0  0  0  0  0  2  0  0  0  0  0  0
  184.8640  178.7510  145.0910 C   0  0  0  0  0  0  0  0  0  0  0  0
  185.3020  179.0420  146.4970 C   0  0  0  0  0  2  0  0  0  0  0  0
  185.4600  177.7490  137.2370 C   0  0  2  0  0  3  0  0  0  0  0  0
  187.8200  178.5760  139.8250 O   0  0  0  0  0  0  0  0  0  0  0  0
  186.6780  178.8520  140.6560 C   0  0  0  0  0  2  0  0  0  0  0  0
  187.3190  178.2000  138.6000 C   0  0  0  0  0  0  0  0  0  0  0  0
  187.9220  177.8280  137.5290 N   0  0  0  0  0  0  0  0  0  0  0  0
  187.0230  177.1640  135.4460 O   0  0  0  0  0  0  0  0  0  0  0  0
  184.7570  176.4090  137.3820 C   0  0  0  0  0  1  0  0  0  0  0  0
  185.4820  178.6070  139.7430 C   0  0  0  0  0  0  0  0  0  0  0  0
  186.8350  177.5440  136.6320 C   0  0  0  0  0  0  0  0  0  0  0  0
  185.9300  178.2190  138.5600 C   0  0  0  0  0  0  0  0  0  0  0  0
  180.2150  180.3060  138.6420 C   0  0  0  0  0  2  0  0  0  0  0  0
  180.5150  177.4610  136.7560 C   0  0  0  0  0  0  0  0  0  0  0  0
  178.9310  178.3480  137.9880 N   0  0  0  0  0  2  0  0  0  0  0  0
  181.3180  176.4650  136.1220 N   0  0  0  0  0  2  0  0  0  0  0  0
  179.5090  177.1760  137.5040 N   0  0  0  0  0  0  0  0  0  0  0  0
  179.6390  179.5110  137.4800 C   0  0  2  0  0  3  0  0  0  0  0  0
  180.7680  178.9220  136.6300 C   0  0  0  0  0  2  0  0  0  0  0  0
  181.0030  175.0480  136.2210 C   0  0  0  0  0  2  0  0  0  0  0  0
  181.6160  174.4440  137.4780 C   0  0  1  0  0  3  0  0  0  0  0  0
  180.5410  174.0250  138.4640 C   0  0  0  0  0  1  0  0  0  0  0  0
  182.4140  173.3460  137.1470 O   0  0  0  0  0  1  0  0  0  0  0  0
  1  8  1  0  0  0  0
  2  4  1  0  0  0  0
  3  5  2  0  0  0  0
  4  1  2  0  0  0  0
  5  6  2  0  0  0  0
  6  4  1  0  0  0  0
  6  7  1  0  0  0  0
  7  8  1  0  0  0  0
  8 11  1  1  0  0  0
  9 12  1  0  0  0  0
 10 14  1  0  0  0  0
 11 15  1  0  0  0  0
 11 10  2  0  0  0  0
 12 16  1  0  0  0  0
 13  9  1  0  0  0  0
 13 17  1  0  0  0  0
 14 17  2  0  0  0  0
 15 13  2  0  0  0  0
 17 18  1  0  0  0  0
 18 16  1  0  0  0  0
 19 25  1  1  0  0  0
 19 28  1  0  0  0  0
 20 21  1  0  0  0  0
 22 20  1  0  0  0  0
 23 22  2  0  0  0  0
 24 27  2  0  0  0  0
 26  7  1  0  0  0  0
 26 21  1  0  0  0  0
 27 19  1  0  0  0  0
 27 23  1  0  0  0  0
 28 22  1  0  0  0  0
 28 26  2  0  0  0  0
 29  2  1  0  0  0  0
 30 33  2  0  0  0  0
 32 36  1  0  0  0  0
 32 30  1  0  0  0  0
 33 31  1  0  0  0  0
 34 31  1  0  0  0  0
 34 29  1  1  0  0  0
 35 30  1  0  0  0  0
 35 34  1  0  0  0  0
 36 37  1  0  0  0  0
 37 38  1  1  0  0  0
 39 37  1  0  0  0  0
M  END
>  <MODEL>
8

>  <REMARK>
 VINA RESULT:      -6.8      2.272      6.592
  Name = 
  6 active torsions:
  status: ('A' for Active; 'I' for Inactive)
    1  A    between atoms: C_6  and  C_33
    2  A    between atoms: N_8  and  C_33
    3  A    between atoms: N_9  and  C_14
    4  A    between atoms: C_13  and  C_37
    5  A    between atoms: C_14  and  C_30
    6  A    between atoms: C_23  and  N_36
                            x       y       z     vdW  Elec       q    Type
                         _______ _______ _______ _____ _____    ______ ____

>  <TORSDO>
F 6

$$$$
=
 OpenBabel11042411043D

 39 44  0  0  1  0  0  0  0  0999 V2000
  182.8240  177.5000  141.0600 N   0  0  0  0  0  0  0  0  0  0  0  0
  181.2360  178.5600  139.6370 N   0  0  0  0  0  2  0  0  0  0  0  0
  183.8500  181.3240  138.6590 O   0  0  0  0  0  0  0  0  0  0  0  0
  182.5680  178.3390  140.1120 C   0  0  0  0  0  0  0  0  0  0  0  0
  183.8140  180.1770  139.1230 C   0  0  0  0  0  0  0  0  0  0  0  0
  183.7790  178.9640  139.6090 C   0  0  0  0  0  0  0  0  0  0  0  0
  184.8500  178.4070  140.3600 N   0  0  0  0  0  0  0  0  0  0  0  0
  184.2640  177.4680  141.3180 C   0  0  1  0  0  3  0  0  0  0  0  0
  187.3720  177.4940  145.2260 C   0  0  0  0  0  2  0  0  0  0  0  0
  183.6430  178.6890  143.4400 C   0  0  0  0  0  3  0  0  0  0  0  0
  184.5490  177.8910  142.7270 C   0  0  0  0  0  0  0  0  0  0  0  0
  187.4080  177.6450  146.7440 C   0  0  0  0  0  2  0  0  0  0  0  0
  186.0410  177.8790  144.6420 C   0  0  0  0  0  0  0  0  0  0  0  0
  183.9360  179.0890  144.7450 C   0  0  0  0  0  3  0  0  0  0  0  0
  185.7450  177.4940  143.3300 C   0  0  0  0  0  3  0  0  0  0  0  0
  186.8700  179.0120  147.1380 C   0  0  0  0  0  2  0  0  0  0  0  0
  185.1370  178.7040  145.3480 C   0  0  0  0  0  0  0  0  0  0  0  0
  185.3910  179.1030  146.7730 C   0  0  0  0  0  2  0  0  0  0  0  0
  186.5350  178.0670  137.4870 C   0  0  2  0  0  3  0  0  0  0  0  0
  188.5720  178.6860  140.3890 O   0  0  0  0  0  0  0  0  0  0  0  0
  187.3430  178.7140  141.1370 C   0  0  0  0  0  2  0  0  0  0  0  0
  188.2170  178.4670  139.0780 C   0  0  0  0  0  0  0  0  0  0  0  0
  188.9410  178.3310  138.0260 N   0  0  0  0  0  0  0  0  0  0  0  0
  188.2940  177.9300  135.7890 O   0  0  0  0  0  0  0  0  0  0  0  0
  185.9740  176.6600  137.3570 C   0  0  0  0  0  1  0  0  0  0  0  0
  186.2590  178.5070  140.0850 C   0  0  0  0  0  0  0  0  0  0  0  0
  187.9690  178.0940  136.9950 C   0  0  0  0  0  0  0  0  0  0  0  0
  186.8410  178.3600  138.9060 C   0  0  0  0  0  0  0  0  0  0  0  0
  180.9240  179.3570  138.4560 C   0  0  0  0  0  2  0  0  0  0  0  0
  179.4400  182.4380  138.2400 C   0  0  0  0  0  0  0  0  0  0  0  0
  179.0330  180.4550  137.3930 N   0  0  0  0  0  2  0  0  0  0  0  0
  179.5010  183.8600  138.3480 N   0  0  0  0  0  2  0  0  0  0  0  0
  178.9440  181.8350  137.2190 N   0  0  0  0  0  0  0  0  0  0  0  0
  179.6410  180.1440  138.6760 C   0  0  2  0  0  3  0  0  0  0  0  0
  179.9560  181.5120  139.2850 C   0  0  0  0  0  2  0  0  0  0  0  0
  178.9310  184.7320  137.3320 C   0  0  0  0  0  2  0  0  0  0  0  0
  180.0050  185.2030  136.3590 C   0  0  1  0  0  3  0  0  0  0  0  0
  181.3940  184.9820  136.9290 C   0  0  0  0  0  1  0  0  0  0  0  0
  179.8780  184.5350  135.1390 O   0  0  0  0  0  1  0  0  0  0  0  0
  1  8  1  0  0  0  0
  2  4  1  0  0  0  0
  3  5  2  0  0  0  0
  4  1  2  0  0  0  0
  5  6  2  0  0  0  0
  6  4  1  0  0  0  0
  6  7  1  0  0  0  0
  7  8  1  0  0  0  0
  8 11  1  1  0  0  0
  9 12  1  0  0  0  0
 10 14  1  0  0  0  0
 11 15  1  0  0  0  0
 11 10  2  0  0  0  0
 12 16  1  0  0  0  0
 13  9  1  0  0  0  0
 13 17  1  0  0  0  0
 14 17  2  0  0  0  0
 15 13  2  0  0  0  0
 17 18  1  0  0  0  0
 18 16  1  0  0  0  0
 19 25  1  1  0  0  0
 19 28  1  0  0  0  0
 20 21  1  0  0  0  0
 22 20  1  0  0  0  0
 23 22  2  0  0  0  0
 24 27  2  0  0  0  0
 26  7  1  0  0  0  0
 26 21  1  0  0  0  0
 27 19  1  0  0  0  0
 27 23  1  0  0  0  0
 28 22  1  0  0  0  0
 28 26  2  0  0  0  0
 29  2  1  0  0  0  0
 30 32  1  0  0  0  0
 30 35  1  0  0  0  0
 31 34  1  0  0  0  0
 33 31  1  0  0  0  0
 33 30  2  0  0  0  0
 34 29  1  6  0  0  0
 34 35  1  0  0  0  0
 36 32  1  0  0  0  0
 37 38  1  1  0  0  0
 37 36  1  0  0  0  0
 39 37  1  0  0  0  0
M  END
>  <MODEL>
9

>  <REMARK>
 VINA RESULT:      -6.8      3.447      7.819
  Name = 
  6 active torsions:
  status: ('A' for Active; 'I' for Inactive)
    1  A    between atoms: C_6  and  C_33
    2  A    between atoms: N_8  and  C_33
    3  A    between atoms: N_9  and  C_14
    4  A    between atoms: C_13  and  C_37
    5  A    between atoms: C_14  and  C_30
    6  A    between atoms: C_23  and  N_36
                            x       y       z     vdW  Elec       q    Type
                         _______ _______ _______ _____ _____    ______ ____

>  <TORSDO>
F 6

$$$$
