=
 OpenBabel11032421123D

 50 55  0  0  1  0  0  0  0  0999 V2000
  188.7000  176.8600  142.0560 C   0  0  1  0  0  3  0  0  0  0  0  0
  188.5000  176.1900  143.4200 C   0  0  0  0  0  2  0  0  0  0  0  0
  185.6840  177.9810  141.5130 C   0  0  0  0  0  3  0  0  0  0  0  0
  187.5710  176.9900  145.3160 C   0  0  0  0  0  2  0  0  0  0  0  0
  188.6670  177.1290  144.4480 O   0  0  0  0  0  0  0  0  0  0  0  0
  186.6320  178.2960  142.4100 C   0  0  0  0  0  0  0  0  0  0  0  0
  183.9210  178.9830  143.0260 C   0  0  0  0  0  0  0  0  0  0  0  0
  188.0920  178.2750  142.0230 C   0  0  2  0  0  3  0  0  0  0  0  0
  183.3530  177.8020  140.9870 C   0  0  0  0  0  0  0  0  0  0  0  0
  186.2550  178.6390  143.8420 C   0  0  1  0  0  3  0  0  0  0  0  0
  184.2650  178.1550  141.8510 C   0  0  0  0  0  0  0  0  0  0  0  0
  184.8810  179.2590  143.9240 C   0  0  0  0  0  3  0  0  0  0  0  0
  182.4410  177.4550  140.1220 C   0  0  0  0  0  3  0  0  0  0  0  0
  186.2230  177.3580  144.6750 C   0  0  0  0  0  2  0  0  0  0  0  0
  182.3630  178.1530  138.8090 C   0  0  1  0  0  3  0  0  0  0  0  0
  181.4230  177.4280  137.8940 C   0  0  0  0  0  2  0  0  0  0  0  0
  180.6270  179.6830  138.0590 N   0  0  2  0  0  0  0  0  0  0  0  0
  181.7620  179.5350  138.9830 C   0  0  0  0  0  2  0  0  0  0  0  0
  180.7320  178.5380  137.1500 C   0  0  0  0  0  2  0  0  0  0  0  0
  179.6800  180.9890  136.3570 C   0  0  0  0  0  2  0  0  0  0  0  0
  179.8130  182.2360  135.4660 C   0  0  0  0  0  2  0  0  0  0  0  0
  180.8280  184.4060  135.2950 O   0  0  0  0  0  1  0  0  0  0  0  0
  179.8920  184.2620  137.8530 O   0  0  0  0  0  1  0  0  0  0  0  0
  180.6560  182.0270  138.2130 C   0  0  0  0  0  2  0  0  0  0  0  0
  180.9190  183.1780  135.9550 C   0  0  1  0  0  3  0  0  0  0  0  0
  182.2440  183.9140  137.9390 C   0  0  0  0  0  1  0  0  0  0  0  0
  180.9020  183.3610  137.4880 C   0  0  1  0  0  0  0  0  0  0  0  0
  180.7980  180.8740  137.3080 N   0  0  1  0  0  0  0  0  0  0  0  0
  187.6530  178.2290  139.5560 C   0  0  0  0  0  1  0  0  0  0  0  0
  188.3400  178.9760  140.6850 C   0  0  0  0  0  2  0  0  0  0  0  0
  190.1920  176.9220  141.7540 C   0  0  0  0  0  2  0  0  0  0  0  0
  190.4690  176.2810  140.5430 O   0  0  0  0  0  0  0  0  0  0  0  0
  192.5110  177.4850  140.4180 C   0  0  0  0  0  1  0  0  0  0  0  0
  191.1510  177.2330  139.7830 C   0  0  1  0  0  3  0  0  0  0  0  0
  192.2660  174.4670  137.6050 C   0  0  2  0  0  3  0  0  0  0  0  0
  190.3100  175.6430  138.0220 C   0  0  2  0  0  3  0  0  0  0  0  0
  192.9780  176.0700  138.0560 S   0  0  0  0  0  0  0  0  0  0  0  0
  193.1060  173.8210  136.5230 C   0  0  0  0  0  1  0  0  0  0  0  0
  191.3110  176.7510  138.3360 C   0  0  2  0  0  3  0  0  0  0  0  0
  190.9160  174.6780  137.1170 N   0  0  0  0  0  2  0  0  0  0  0  0
  188.0580  175.0880  137.1300 C   0  0  0  0  0  3  0  0  0  0  0  0
  189.0020  176.2000  137.4570 C   0  0  2  0  0  3  0  0  0  0  0  0
  186.8070  177.7010  136.0500 C   0  0  0  0  0  3  0  0  0  0  0  0
  189.2240  177.1220  136.2950 C   0  0  0  0  0  3  0  0  0  0  0  0
  188.2410  177.8110  135.7130 C   0  0  0  0  0  3  0  0  0  0  0  0
  186.7950  175.2880  136.7490 C   0  0  0  0  0  3  0  0  0  0  0  0
  186.1790  176.6070  136.4990 C   0  0  0  0  0  3  0  0  0  0  0  0
  182.6180  179.4830  143.1690 O   0  0  0  0  0  0  0  0  0  0  0  0
  181.6140  178.8470  143.9540 C   0  0  0  0  0  2  0  0  0  0  0  0
  180.3310  178.7150  143.1540 C   0  0  0  0  0  1  0  0  0  0  0  0
  1 31  1  1  0  0  0
  1  2  1  0  0  0  0
  2  5  1  0  0  0  0
  3 11  1  0  0  0  0
  3  6  2  0  0  0  0
  5  4  1  0  0  0  0
  6 10  1  0  0  0  0
  7 48  1  0  0  0  0
  7 12  2  0  0  0  0
  8 30  1  6  0  0  0
  8  1  1  0  0  0  0
  8  6  1  0  0  0  0
  9 11  2  0  0  0  0
 10 12  1  6  0  0  0
 10 14  1  0  0  0  0
 11  7  1  0  0  0  0
 13  9  2  0  0  0  0
 14  4  1  0  0  0  0
 15 18  1  0  0  0  0
 15 13  1  1  0  0  0
 16 15  1  0  0  0  0
 17 19  1  6  0  0  0
 17 18  1  0  0  0  0
 19 16  1  0  0  0  0
 21 25  1  0  0  0  0
 21 20  1  0  0  0  0
 25 22  1  6  0  0  0
 25 27  1  0  0  0  0
 27 23  1  0  0  0  0
 27 26  1  1  0  0  0
 27 24  1  0  0  0  0
 28 20  1  6  0  0  0
 28 17  1  0  0  0  0
 28 24  1  0  0  0  0
 29 30  1  0  0  0  0
 32 31  1  0  0  0  0
 34 33  1  1  0  0  0
 34 32  1  0  0  0  0
 35 38  1  6  0  0  0
 35 37  1  0  0  0  0
 36 40  1  6  0  0  0
 36 39  1  0  0  0  0
 37 39  1  0  0  0  0
 39 34  1  1  0  0  0
 40 35  1  0  0  0  0
 41 42  1  0  0  0  0
 42 44  1  6  0  0  0
 42 36  1  0  0  0  0
 43 47  2  0  0  0  0
 45 43  1  0  0  0  0
 45 44  2  0  0  0  0
 46 41  2  0  0  0  0
 47 46  1  0  0  0  0
 48 49  1  0  0  0  0
 50 49  1  0  0  0  0
M  END
>  <MODEL>
1

>  <REMARK>
 VINA RESULT:      -8.4      0.000      0.000
  Name = 
  10 active torsions:
  status: ('A' for Active; 'I' for Inactive)
    1  A    between atoms: C_1  and  C_39
    2  A    between atoms: C_6  and  C_34
    3  A    between atoms: C_12  and  O_42
    4  A    between atoms: C_14  and  O_42
    5  A    between atoms: C_15  and  C_37
    6  A    between atoms: C_17  and  C_22
    7  A    between atoms: N_18  and  N_50
    8  A    between atoms: C_35  and  C_41
    9  A    between atoms: C_35  and  O_47
   10  A    between atoms: C_39  and  O_47
                            x       y       z     vdW  Elec       q    Type
                         _______ _______ _______ _____ _____    ______ ____

>  <TORSDO>
F 10

$$$$
=
 OpenBabel11032421123D

 50 55  0  0  1  0  0  0  0  0999 V2000
  188.1460  178.0750  140.6600 C   0  0  1  0  0  3  0  0  0  0  0  0
  186.7070  178.2930  141.1360 C   0  0  0  0  0  2  0  0  0  0  0  0
  187.6080  176.3000  137.9750 C   0  0  0  0  0  3  0  0  0  0  0  0
  184.8950  179.0370  140.0130 C   0  0  0  0  0  2  0  0  0  0  0  0
  186.1540  179.4170  140.5070 O   0  0  0  0  0  0  0  0  0  0  0  0
  187.3370  177.5740  138.3020 C   0  0  0  0  0  0  0  0  0  0  0  0
  185.8180  176.3790  136.1890 C   0  0  0  0  0  0  0  0  0  0  0  0
  188.2980  178.3670  139.1550 C   0  0  2  0  0  3  0  0  0  0  0  0
  186.9970  174.3360  136.7470 C   0  0  0  0  0  0  0  0  0  0  0  0
  186.0390  178.2250  137.8550 C   0  0  1  0  0  3  0  0  0  0  0  0
  186.7490  175.5870  137.0200 C   0  0  0  0  0  0  0  0  0  0  0  0
  185.5410  177.6410  136.5550 C   0  0  0  0  0  3  0  0  0  0  0  0
  187.2480  173.0870  136.4670 C   0  0  0  0  0  3  0  0  0  0  0  0
  184.9590  177.9720  138.9070 C   0  0  0  0  0  2  0  0  0  0  0  0
  188.5300  172.7190  135.8070 C   0  0  1  0  0  3  0  0  0  0  0  0
  188.7530  173.5760  134.5980 C   0  0  0  0  0  2  0  0  0  0  0  0
  190.6690  173.8590  136.0110 N   0  0  2  0  0  0  0  0  0  0  0  0
  189.7000  173.0150  136.7270 C   0  0  0  0  0  2  0  0  0  0  0  0
  190.2380  173.8200  134.6100 C   0  0  0  0  0  2  0  0  0  0  0  0
  192.2060  172.5010  134.8720 C   0  0  0  0  0  2  0  0  0  0  0  0
  193.5660  171.7830  134.9120 C   0  0  0  0  0  2  0  0  0  0  0  0
  195.7340  171.7770  135.9450 O   0  0  0  0  0  1  0  0  0  0  0  0
  195.2340  174.3950  135.3610 O   0  0  0  0  0  1  0  0  0  0  0  0
  192.9670  174.3320  136.1140 C   0  0  0  0  0  2  0  0  0  0  0  0
  194.4240  172.2420  136.0960 C   0  0  1  0  0  3  0  0  0  0  0  0
  194.8680  174.1080  137.6940 C   0  0  0  0  0  1  0  0  0  0  0  0
  194.3900  173.7730  136.2900 C   0  0  1  0  0  0  0  0  0  0  0  0
  191.9530  173.2650  136.1060 N   0  0  1  0  0  0  0  0  0  0  0  0
  190.3130  176.8780  139.1290 C   0  0  0  0  0  1  0  0  0  0  0  0
  189.7460  178.2130  138.6820 C   0  0  0  0  0  2  0  0  0  0  0  0
  189.0710  178.9780  141.4670 C   0  0  0  0  0  2  0  0  0  0  0  0
  189.1030  178.5690  142.8040 O   0  0  0  0  0  0  0  0  0  0  0  0
  191.4420  178.1710  142.7270 C   0  0  0  0  0  1  0  0  0  0  0  0
  190.0580  177.5510  142.8420 C   0  0  1  0  0  3  0  0  0  0  0  0
  191.7660  176.5010  145.9440 C   0  0  2  0  0  3  0  0  0  0  0  0
  189.8580  177.6800  145.3490 C   0  0  2  0  0  3  0  0  0  0  0  0
  191.3800  175.6670  144.3830 S   0  0  0  0  0  0  0  0  0  0  0  0
  192.3380  175.5040  146.9300 C   0  0  0  0  0  1  0  0  0  0  0  0
  189.9330  176.7470  144.1430 C   0  0  2  0  0  3  0  0  0  0  0  0
  190.5450  177.0740  146.4790 N   0  0  0  0  0  2  0  0  0  0  0  0
  188.1870  177.9330  147.1710 C   0  0  0  0  0  3  0  0  0  0  0  0
  188.4140  178.0460  145.6980 C   0  0  2  0  0  3  0  0  0  0  0  0
  185.4380  178.4530  145.8560 C   0  0  0  0  0  3  0  0  0  0  0  0
  187.4140  177.2600  144.9020 C   0  0  0  0  0  3  0  0  0  0  0  0
  186.1000  177.4870  144.9560 C   0  0  0  0  0  3  0  0  0  0  0  0
  187.0600  178.3210  147.7690 C   0  0  0  0  0  3  0  0  0  0  0  0
  185.8530  178.8150  147.0760 C   0  0  0  0  0  3  0  0  0  0  0  0
  185.2660  175.8140  135.0300 O   0  0  0  0  0  0  0  0  0  0  0  0
  183.9480  175.2770  134.9680 C   0  0  0  0  0  2  0  0  0  0  0  0
  183.5900  174.6160  136.2870 C   0  0  0  0  0  1  0  0  0  0  0  0
  1  2  1  0  0  0  0
  1 31  1  1  0  0  0
  3  6  2  0  0  0  0
  4  5  1  0  0  0  0
  5  2  1  0  0  0  0
  6  8  1  0  0  0  0
  7 12  2  0  0  0  0
  7 11  1  0  0  0  0
  8 30  1  6  0  0  0
  8  1  1  0  0  0  0
  9 11  2  0  0  0  0
 10 12  1  6  0  0  0
 10  6  1  0  0  0  0
 10 14  1  0  0  0  0
 11  3  1  0  0  0  0
 13  9  2  0  0  0  0
 14  4  1  0  0  0  0
 15 13  1  1  0  0  0
 15 18  1  0  0  0  0
 16 19  1  0  0  0  0
 16 15  1  0  0  0  0
 17 19  1  6  0  0  0
 17 28  1  0  0  0  0
 17 18  1  0  0  0  0
 20 21  1  0  0  0  0
 21 25  1  0  0  0  0
 23 27  1  0  0  0  0
 24 27  1  0  0  0  0
 25 22  1  6  0  0  0
 25 27  1  0  0  0  0
 27 26  1  1  0  0  0
 28 20  1  6  0  0  0
 28 24  1  0  0  0  0
 30 29  1  0  0  0  0
 31 32  1  0  0  0  0
 32 34  1  0  0  0  0
 34 33  1  1  0  0  0
 35 40  1  0  0  0  0
 35 38  1  1  0  0  0
 36 42  1  0  0  0  0
 36 40  1  1  0  0  0
 37 35  1  0  0  0  0
 39 34  1  6  0  0  0
 39 37  1  0  0  0  0
 39 36  1  0  0  0  0
 41 46  2  0  0  0  0
 42 44  1  6  0  0  0
 42 41  1  0  0  0  0
 43 47  2  0  0  0  0
 44 45  2  0  0  0  0
 45 43  1  0  0  0  0
 47 46  1  0  0  0  0
 48  7  1  0  0  0  0
 49 48  1  0  0  0  0
 49 50  1  0  0  0  0
M  END
>  <MODEL>
2

>  <REMARK>
 VINA RESULT:      -8.1      4.382      9.877
  Name = 
  10 active torsions:
  status: ('A' for Active; 'I' for Inactive)
    1  A    between atoms: C_1  and  C_39
    2  A    between atoms: C_6  and  C_34
    3  A    between atoms: C_12  and  O_42
    4  A    between atoms: C_14  and  O_42
    5  A    between atoms: C_15  and  C_37
    6  A    between atoms: C_17  and  C_22
    7  A    between atoms: N_18  and  N_50
    8  A    between atoms: C_35  and  C_41
    9  A    between atoms: C_35  and  O_47
   10  A    between atoms: C_39  and  O_47
                            x       y       z     vdW  Elec       q    Type
                         _______ _______ _______ _____ _____    ______ ____

>  <TORSDO>
F 10

$$$$
=
 OpenBabel11032421123D

 50 55  0  0  1  0  0  0  0  0999 V2000
  191.7340  177.4650  140.0590 C   0  0  1  0  0  3  0  0  0  0  0  0
  193.0590  177.3120  139.3060 C   0  0  0  0  0  2  0  0  0  0  0  0
  189.6240  176.7710  137.6700 C   0  0  0  0  0  3  0  0  0  0  0  0
  193.8150  175.6220  138.0130 C   0  0  0  0  0  2  0  0  0  0  0  0
  193.4760  175.9740  139.3310 O   0  0  0  0  0  0  0  0  0  0  0  0
  190.5350  176.0390  138.3300 C   0  0  0  0  0  0  0  0  0  0  0  0
  189.6650  175.1030  135.7670 C   0  0  0  0  0  0  0  0  0  0  0  0
  190.7900  176.2760  139.7990 C   0  0  2  0  0  3  0  0  0  0  0  0
  188.4170  177.1780  135.6400 C   0  0  0  0  0  0  0  0  0  0  0  0
  191.3550  174.9880  137.6000 C   0  0  1  0  0  3  0  0  0  0  0  0
  189.2700  176.4300  136.2850 C   0  0  0  0  0  0  0  0  0  0  0  0
  190.6000  174.4040  136.4300 C   0  0  0  0  0  3  0  0  0  0  0  0
  187.5600  177.9200  134.9960 C   0  0  0  0  0  3  0  0  0  0  0  0
  192.6220  175.6340  137.0430 C   0  0  0  0  0  2  0  0  0  0  0  0
  186.1560  178.0200  135.4810 C   0  0  1  0  0  3  0  0  0  0  0  0
  185.3410  176.8830  134.9420 C   0  0  0  0  0  2  0  0  0  0  0  0
  185.1480  176.8030  137.3300 N   0  0  2  0  0  0  0  0  0  0  0  0
  186.1070  177.8650  136.9890 C   0  0  0  0  0  2  0  0  0  0  0  0
  184.4240  176.5370  136.0830 C   0  0  0  0  0  2  0  0  0  0  0  0
  184.8490  178.4530  138.9700 C   0  0  0  0  0  2  0  0  0  0  0  0
  183.9340  179.0290  140.0650 C   0  0  0  0  0  2  0  0  0  0  0  0
  181.6590  179.1750  140.8220 O   0  0  0  0  0  1  0  0  0  0  0  0
  181.5400  179.6110  138.1310 O   0  0  0  0  0  1  0  0  0  0  0  0
  183.0630  177.8540  137.5820 C   0  0  0  0  0  2  0  0  0  0  0  0
  182.5200  178.4400  140.0020 C   0  0  1  0  0  3  0  0  0  0  0  0
  180.8140  177.3790  138.5190 C   0  0  0  0  0  1  0  0  0  0  0  0
  181.9820  178.3520  138.5580 C   0  0  1  0  0  0  0  0  0  0  0  0
  184.2310  177.3030  138.2890 N   0  0  1  0  0  0  0  0  0  0  0  0
  188.7200  177.6340  140.1880 C   0  0  0  0  0  1  0  0  0  0  0  0
  189.4880  176.3900  140.5960 C   0  0  0  0  0  2  0  0  0  0  0  0
  192.0280  177.5870  141.5490 C   0  0  0  0  0  2  0  0  0  0  0  0
  190.9600  178.2070  142.2060 O   0  0  0  0  0  0  0  0  0  0  0  0
  190.9740  179.6640  144.0800 C   0  0  0  0  0  1  0  0  0  0  0  0
  191.3650  178.2970  143.5390 C   0  0  1  0  0  3  0  0  0  0  0  0
  191.3900  176.5190  146.7760 C   0  0  2  0  0  3  0  0  0  0  0  0
  189.8960  177.7700  145.5150 C   0  0  2  0  0  3  0  0  0  0  0  0
  191.9900  176.1080  145.1170 S   0  0  0  0  0  0  0  0  0  0  0  0
  191.5250  175.3130  147.6820 C   0  0  0  0  0  1  0  0  0  0  0  0
  190.7210  177.1820  144.3720 C   0  0  2  0  0  3  0  0  0  0  0  0
  189.9950  176.9070  146.6820 N   0  0  0  0  0  2  0  0  0  0  0  0
  187.5340  177.8330  146.2840 C   0  0  0  0  0  3  0  0  0  0  0  0
  188.4410  178.0020  145.1070 C   0  0  2  0  0  3  0  0  0  0  0  0
  185.7430  178.1490  143.7840 C   0  0  0  0  0  3  0  0  0  0  0  0
  188.0280  177.1530  143.9410 C   0  0  0  0  0  3  0  0  0  0  0  0
  186.8410  177.2660  143.3420 C   0  0  0  0  0  3  0  0  0  0  0  0
  186.2300  178.1080  146.2480 C   0  0  0  0  0  3  0  0  0  0  0  0
  185.4760  178.5150  145.0440 C   0  0  0  0  0  3  0  0  0  0  0  0
  189.0420  174.5910  134.6190 O   0  0  0  0  0  0  0  0  0  0  0  0
  188.1580  173.4740  134.6370 C   0  0  0  0  0  2  0  0  0  0  0  0
  187.0890  173.6700  135.6960 C   0  0  0  0  0  1  0  0  0  0  0  0
  1 31  1  1  0  0  0
  2  5  1  0  0  0  0
  2  1  1  0  0  0  0
  3  6  2  0  0  0  0
  4  5  1  0  0  0  0
  6  8  1  0  0  0  0
  7 11  1  0  0  0  0
  7 12  2  0  0  0  0
  8  1  1  0  0  0  0
  8 30  1  1  0  0  0
  9 11  2  0  0  0  0
 10 12  1  6  0  0  0
 10  6  1  0  0  0  0
 11  3  1  0  0  0  0
 13  9  2  0  0  0  0
 14 10  1  0  0  0  0
 14  4  1  0  0  0  0
 15 13  1  6  0  0  0
 15 18  1  0  0  0  0
 16 15  1  0  0  0  0
 16 19  1  0  0  0  0
 17 19  1  6  0  0  0
 17 28  1  0  0  0  0
 18 17  1  0  0  0  0
 20 21  1  0  0  0  0
 23 27  1  0  0  0  0
 24 27  1  0  0  0  0
 25 21  1  0  0  0  0
 25 22  1  1  0  0  0
 27 26  1  6  0  0  0
 27 25  1  0  0  0  0
 28 24  1  6  0  0  0
 28 20  1  0  0  0  0
 29 30  1  0  0  0  0
 31 32  1  0  0  0  0
 32 34  1  0  0  0  0
 34 33  1  1  0  0  0
 35 38  1  1  0  0  0
 36 40  1  1  0  0  0
 37 35  1  0  0  0  0
 39 34  1  1  0  0  0
 39 37  1  0  0  0  0
 39 36  1  0  0  0  0
 40 35  1  0  0  0  0
 42 44  1  6  0  0  0
 42 36  1  0  0  0  0
 42 41  1  0  0  0  0
 43 47  2  0  0  0  0
 45 43  1  0  0  0  0
 45 44  2  0  0  0  0
 46 41  2  0  0  0  0
 47 46  1  0  0  0  0
 48 49  1  0  0  0  0
 48  7  1  0  0  0  0
 49 50  1  0  0  0  0
M  END
>  <MODEL>
3

>  <REMARK>
 VINA RESULT:      -8.0      3.037      7.423
  Name = 
  10 active torsions:
  status: ('A' for Active; 'I' for Inactive)
    1  A    between atoms: C_1  and  C_39
    2  A    between atoms: C_6  and  C_34
    3  A    between atoms: C_12  and  O_42
    4  A    between atoms: C_14  and  O_42
    5  A    between atoms: C_15  and  C_37
    6  A    between atoms: C_17  and  C_22
    7  A    between atoms: N_18  and  N_50
    8  A    between atoms: C_35  and  C_41
    9  A    between atoms: C_35  and  O_47
   10  A    between atoms: C_39  and  O_47
                            x       y       z     vdW  Elec       q    Type
                         _______ _______ _______ _____ _____    ______ ____

>  <TORSDO>
F 10

$$$$
=
 OpenBabel11032421123D

 50 55  0  0  1  0  0  0  0  0999 V2000
  184.0280  179.3390  143.6690 C   0  0  1  0  0  3  0  0  0  0  0  0
  184.7660  179.7270  144.9550 C   0  0  0  0  0  2  0  0  0  0  0  0
  186.5210  178.2290  141.8820 C   0  0  0  0  0  3  0  0  0  0  0  0
  186.2150  178.5430  146.2190 C   0  0  0  0  0  2  0  0  0  0  0  0
  184.8750  178.6160  145.8030 O   0  0  0  0  0  0  0  0  0  0  0  0
  185.9240  177.7840  142.9980 C   0  0  0  0  0  0  0  0  0  0  0  0
  188.5890  176.8880  142.4550 C   0  0  0  0  0  0  0  0  0  0  0  0
  184.4330  177.9350  143.1820 C   0  0  2  0  0  3  0  0  0  0  0  0
  188.5210  178.4160  140.5750 C   0  0  0  0  0  0  0  0  0  0  0  0
  186.7440  177.1590  144.1140 C   0  0  1  0  0  3  0  0  0  0  0  0
  187.9420  177.9390  141.6420 C   0  0  0  0  0  0  0  0  0  0  0  0
  187.9850  176.4820  143.5830 C   0  0  0  0  0  3  0  0  0  0  0  0
  189.0990  178.8870  139.5050 C   0  0  0  0  0  3  0  0  0  0  0  0
  187.2030  178.2530  145.0770 C   0  0  0  0  0  2  0  0  0  0  0  0
  188.6360  178.4520  138.1590 C   0  0  1  0  0  3  0  0  0  0  0  0
  189.7900  177.9240  137.3610 C   0  0  0  0  0  2  0  0  0  0  0  0
  188.1440  176.1830  137.4360 N   0  0  2  0  0  0  0  0  0  0  0  0
  187.6720  177.2870  138.2850 C   0  0  0  0  0  2  0  0  0  0  0  0
  189.1900  176.7740  136.5970 C   0  0  0  0  0  2  0  0  0  0  0  0
  187.0200  174.2880  136.6320 C   0  0  0  0  0  2  0  0  0  0  0  0
  185.9160  173.7400  135.7110 C   0  0  0  0  0  2  0  0  0  0  0  0
  183.8620  174.2910  134.5940 O   0  0  0  0  0  1  0  0  0  0  0  0
  183.5960  175.3100  137.1100 O   0  0  0  0  0  1  0  0  0  0  0  0
  185.8080  176.2110  137.1890 C   0  0  0  0  0  2  0  0  0  0  0  0
  184.9940  174.8490  135.1950 C   0  0  1  0  0  3  0  0  0  0  0  0
  184.0860  177.1300  135.6570 C   0  0  0  0  0  1  0  0  0  0  0  0
  184.6040  175.8530  136.3010 C   0  0  1  0  0  0  0  0  0  0  0  0
  187.0800  175.7590  136.6000 N   0  0  1  0  0  0  0  0  0  0  0  0
  184.0790  178.3460  140.7360 C   0  0  0  0  0  1  0  0  0  0  0  0
  183.6550  177.5140  141.9330 C   0  0  0  0  0  2  0  0  0  0  0  0
  182.5280  179.3940  143.9300 C   0  0  0  0  0  2  0  0  0  0  0  0
  181.8420  179.7050  142.7520 O   0  0  0  0  0  0  0  0  0  0  0  0
  179.9110  179.2620  144.0600 C   0  0  0  0  0  1  0  0  0  0  0  0
  180.6860  178.9230  142.7950 C   0  0  1  0  0  3  0  0  0  0  0  0
  180.1370  181.0920  139.8580 C   0  0  2  0  0  3  0  0  0  0  0  0
  180.6090  178.8600  140.2800 C   0  0  2  0  0  3  0  0  0  0  0  0
  179.3020  180.9120  141.4550 S   0  0  0  0  0  0  0  0  0  0  0  0
  179.3500  182.0370  138.9720 C   0  0  0  0  0  1  0  0  0  0  0  0
  179.8240  179.1690  141.5510 C   0  0  2  0  0  3  0  0  0  0  0  0
  180.2220  179.7880  139.2280 N   0  0  0  0  0  2  0  0  0  0  0  0
  180.3180  177.3190  138.3520 C   0  0  0  0  0  3  0  0  0  0  0  0
  180.4340  177.4050  139.8400 C   0  0  2  0  0  3  0  0  0  0  0  0
  179.7230  174.5040  139.4850 C   0  0  0  0  0  3  0  0  0  0  0  0
  179.2970  176.7260  140.5440 C   0  0  0  0  0  3  0  0  0  0  0  0
  179.0260  175.4270  140.4040 C   0  0  0  0  0  3  0  0  0  0  0  0
  180.2910  176.1630  137.6870 C   0  0  0  0  0  3  0  0  0  0  0  0
  180.2720  174.8220  138.3060 C   0  0  0  0  0  3  0  0  0  0  0  0
  189.7980  176.3200  142.0250 O   0  0  0  0  0  0  0  0  0  0  0  0
  191.0020  176.3660  142.7850 C   0  0  0  0  0  2  0  0  0  0  0  0
  191.3700  177.8050  143.0960 C   0  0  0  0  0  1  0  0  0  0  0  0
  1 31  1  1  0  0  0
  1  2  1  0  0  0  0
  2  5  1  0  0  0  0
  3  6  2  0  0  0  0
  5  4  1  0  0  0  0
  6  8  1  0  0  0  0
  6 10  1  0  0  0  0
  7 12  2  0  0  0  0
  8 30  1  6  0  0  0
  8  1  1  0  0  0  0
  9 11  2  0  0  0  0
 10 12  1  6  0  0  0
 10 14  1  0  0  0  0
 11  3  1  0  0  0  0
 11  7  1  0  0  0  0
 13  9  2  0  0  0  0
 14  4  1  0  0  0  0
 15 18  1  0  0  0  0
 15 13  1  1  0  0  0
 16 15  1  0  0  0  0
 17 19  1  6  0  0  0
 17 18  1  0  0  0  0
 19 16  1  0  0  0  0
 21 20  1  0  0  0  0
 25 22  1  1  0  0  0
 25 21  1  0  0  0  0
 25 27  1  0  0  0  0
 27 26  1  6  0  0  0
 27 23  1  0  0  0  0
 27 24  1  0  0  0  0
 28 20  1  1  0  0  0
 28 24  1  0  0  0  0
 28 17  1  0  0  0  0
 29 30  1  0  0  0  0
 32 34  1  0  0  0  0
 32 31  1  0  0  0  0
 34 33  1  1  0  0  0
 35 38  1  6  0  0  0
 35 37  1  0  0  0  0
 36 40  1  6  0  0  0
 36 39  1  0  0  0  0
 37 39  1  0  0  0  0
 39 34  1  1  0  0  0
 40 35  1  0  0  0  0
 42 41  1  6  0  0  0
 42 36  1  0  0  0  0
 42 44  1  0  0  0  0
 43 45  1  0  0  0  0
 45 44  2  0  0  0  0
 46 47  1  0  0  0  0
 46 41  2  0  0  0  0
 47 43  2  0  0  0  0
 48  7  1  0  0  0  0
 48 49  1  0  0  0  0
 49 50  1  0  0  0  0
M  END
>  <MODEL>
4

>  <REMARK>
 VINA RESULT:      -7.7      3.290      8.580
  Name = 
  10 active torsions:
  status: ('A' for Active; 'I' for Inactive)
    1  A    between atoms: C_1  and  C_39
    2  A    between atoms: C_6  and  C_34
    3  A    between atoms: C_12  and  O_42
    4  A    between atoms: C_14  and  O_42
    5  A    between atoms: C_15  and  C_37
    6  A    between atoms: C_17  and  C_22
    7  A    between atoms: N_18  and  N_50
    8  A    between atoms: C_35  and  C_41
    9  A    between atoms: C_35  and  O_47
   10  A    between atoms: C_39  and  O_47
                            x       y       z     vdW  Elec       q    Type
                         _______ _______ _______ _____ _____    ______ ____

>  <TORSDO>
F 10

$$$$
=
 OpenBabel11032421123D

 50 55  0  0  1  0  0  0  0  0999 V2000
  186.3980  178.0030  137.4950 C   0  0  1  0  0  3  0  0  0  0  0  0
  187.0440  176.8060  136.7900 C   0  0  0  0  0  2  0  0  0  0  0  0
  183.2590  177.4730  136.7820 C   0  0  0  0  0  3  0  0  0  0  0  0
  186.5420  174.6070  136.8910 C   0  0  0  0  0  2  0  0  0  0  0  0
  187.0430  175.6890  137.6350 O   0  0  0  0  0  0  0  0  0  0  0  0
  184.1500  176.8170  137.5430 C   0  0  0  0  0  0  0  0  0  0  0  0
  181.8650  175.3690  136.6030 C   0  0  0  0  0  0  0  0  0  0  0  0
  185.1830  177.5770  138.3400 C   0  0  2  0  0  3  0  0  0  0  0  0
  181.3310  177.3810  135.3620 C   0  0  0  0  0  0  0  0  0  0  0  0
  184.1600  175.2980  137.5810 C   0  0  1  0  0  3  0  0  0  0  0  0
  182.1630  176.7390  136.1350 C   0  0  0  0  0  0  0  0  0  0  0  0
  182.7850  174.7240  137.3380 C   0  0  0  0  0  3  0  0  0  0  0  0
  180.4950  178.0240  134.5940 C   0  0  0  0  0  3  0  0  0  0  0  0
  185.0720  174.7720  136.4730 C   0  0  0  0  0  2  0  0  0  0  0  0
  179.6320  179.0920  135.1680 C   0  0  1  0  0  3  0  0  0  0  0  0
  178.9880  178.6100  136.4330 C   0  0  0  0  0  2  0  0  0  0  0  0
  180.1860  180.6120  136.9830 N   0  0  2  0  0  0  0  0  0  0  0  0
  180.4730  180.2850  135.5790 C   0  0  0  0  0  2  0  0  0  0  0  0
  178.9910  179.8300  137.3140 C   0  0  0  0  0  2  0  0  0  0  0  0
  179.5470  182.2990  138.4820 C   0  0  0  0  0  2  0  0  0  0  0  0
  179.1400  183.7720  138.6660 C   0  0  0  0  0  2  0  0  0  0  0  0
  179.2880  185.9670  137.7020 O   0  0  0  0  0  1  0  0  0  0  0  0
  181.8040  184.9320  137.4990 O   0  0  0  0  0  1  0  0  0  0  0  0
  181.0700  182.7780  136.7720 C   0  0  0  0  0  2  0  0  0  0  0  0
  179.4130  184.6060  137.4090 C   0  0  1  0  0  3  0  0  0  0  0  0
  180.8050  184.7910  135.3450 C   0  0  0  0  0  1  0  0  0  0  0  0
  180.7870  184.2910  136.7800 C   0  0  1  0  0  0  0  0  0  0  0  0
  179.8650  181.9900  137.0780 N   0  0  1  0  0  0  0  0  0  0  0  0
  184.3360  178.3900  140.5540 C   0  0  0  0  0  1  0  0  0  0  0  0
  184.5680  178.7560  139.0990 C   0  0  0  0  0  2  0  0  0  0  0  0
  187.4430  178.6740  138.3780 C   0  0  0  0  0  2  0  0  0  0  0  0
  188.6850  178.0500  138.2190 O   0  0  0  0  0  0  0  0  0  0  0  0
  188.2130  178.0800  140.5450 C   0  0  0  0  0  1  0  0  0  0  0  0
  189.2920  178.1380  139.4730 C   0  0  1  0  0  3  0  0  0  0  0  0
  192.5420  176.7490  138.4030 C   0  0  2  0  0  3  0  0  0  0  0  0
  191.5590  177.5050  140.3650 C   0  0  2  0  0  3  0  0  0  0  0  0
  190.8180  176.3130  138.0550 S   0  0  0  0  0  0  0  0  0  0  0  0
  193.4630  175.7010  137.8130 C   0  0  0  0  0  1  0  0  0  0  0  0
  190.3020  177.0000  139.6620 C   0  0  2  0  0  3  0  0  0  0  0  0
  192.7250  176.8090  139.8410 N   0  0  0  0  0  2  0  0  0  0  0  0
  190.4380  176.3370  142.2500 C   0  0  0  0  0  3  0  0  0  0  0  0
  191.4570  177.3680  141.8850 C   0  0  2  0  0  3  0  0  0  0  0  0
  191.3200  177.7240  144.8680 C   0  0  0  0  0  3  0  0  0  0  0  0
  191.2110  178.6820  142.5650 C   0  0  0  0  0  3  0  0  0  0  0  0
  191.1970  178.8250  143.8910 C   0  0  0  0  0  3  0  0  0  0  0  0
  190.2380  175.9170  143.5000 C   0  0  0  0  0  3  0  0  0  0  0  0
  190.9040  176.4630  144.7000 C   0  0  0  0  0  3  0  0  0  0  0  0
  180.6280  174.7820  136.2980 O   0  0  0  0  0  0  0  0  0  0  0  0
  179.7220  174.2980  137.2850 C   0  0  0  0  0  2  0  0  0  0  0  0
  179.3800  175.4030  138.2680 C   0  0  0  0  0  1  0  0  0  0  0  0
  1  8  1  0  0  0  0
  1 31  1  1  0  0  0
  2  1  1  0  0  0  0
  2  5  1  0  0  0  0
  3  6  2  0  0  0  0
  4  5  1  0  0  0  0
  6 10  1  0  0  0  0
  6  8  1  0  0  0  0
  7 12  2  0  0  0  0
  8 30  1  6  0  0  0
  9 11  2  0  0  0  0
 10 14  1  6  0  0  0
 11  7  1  0  0  0  0
 11  3  1  0  0  0  0
 12 10  1  0  0  0  0
 13  9  2  0  0  0  0
 14  4  1  0  0  0  0
 15 13  1  1  0  0  0
 15 18  1  0  0  0  0
 15 16  1  0  0  0  0
 16 19  1  0  0  0  0
 17 18  1  6  0  0  0
 17 28  1  0  0  0  0
 17 19  1  0  0  0  0
 20 21  1  0  0  0  0
 24 27  1  0  0  0  0
 25 22  1  1  0  0  0
 25 21  1  0  0  0  0
 27 26  1  6  0  0  0
 27 25  1  0  0  0  0
 27 23  1  0  0  0  0
 28 24  1  1  0  0  0
 28 20  1  0  0  0  0
 30 29  1  0  0  0  0
 32 31  1  0  0  0  0
 32 34  1  0  0  0  0
 34 33  1  1  0  0  0
 35 38  1  1  0  0  0
 35 40  1  0  0  0  0
 36 40  1  6  0  0  0
 36 42  1  0  0  0  0
 37 35  1  0  0  0  0
 37 39  1  0  0  0  0
 39 34  1  6  0  0  0
 39 36  1  0  0  0  0
 41 46  2  0  0  0  0
 42 41  1  6  0  0  0
 42 44  1  0  0  0  0
 44 45  2  0  0  0  0
 45 43  1  0  0  0  0
 46 47  1  0  0  0  0
 47 43  2  0  0  0  0
 48  7  1  0  0  0  0
 48 49  1  0  0  0  0
 49 50  1  0  0  0  0
M  END
>  <MODEL>
5

>  <REMARK>
 VINA RESULT:      -7.5      2.643      5.472
  Name = 
  10 active torsions:
  status: ('A' for Active; 'I' for Inactive)
    1  A    between atoms: C_1  and  C_39
    2  A    between atoms: C_6  and  C_34
    3  A    between atoms: C_12  and  O_42
    4  A    between atoms: C_14  and  O_42
    5  A    between atoms: C_15  and  C_37
    6  A    between atoms: C_17  and  C_22
    7  A    between atoms: N_18  and  N_50
    8  A    between atoms: C_35  and  C_41
    9  A    between atoms: C_35  and  O_47
   10  A    between atoms: C_39  and  O_47
                            x       y       z     vdW  Elec       q    Type
                         _______ _______ _______ _____ _____    ______ ____

>  <TORSDO>
F 10

$$$$
=
 OpenBabel11032421123D

 50 55  0  0  1  0  0  0  0  0999 V2000
  186.3240  174.2520  136.3660 C   0  0  1  0  0  3  0  0  0  0  0  0
  187.2310  173.1630  135.7850 C   0  0  0  0  0  2  0  0  0  0  0  0
  188.5010  175.9630  138.0910 C   0  0  0  0  0  3  0  0  0  0  0  0
  189.1940  173.3340  134.6830 C   0  0  0  0  0  2  0  0  0  0  0  0
  187.8190  173.6100  134.5940 O   0  0  0  0  0  0  0  0  0  0  0  0
  188.3260  175.7640  136.7750 C   0  0  0  0  0  0  0  0  0  0  0  0
  190.9150  176.5970  137.6730 C   0  0  0  0  0  0  0  0  0  0  0  0
  186.9360  175.6550  136.1950 C   0  0  2  0  0  3  0  0  0  0  0  0
  190.0080  176.3700  139.9090 C   0  0  0  0  0  0  0  0  0  0  0  0
  189.5240  175.6020  135.8540 C   0  0  1  0  0  3  0  0  0  0  0  0
  189.8460  176.2240  138.6230 C   0  0  0  0  0  0  0  0  0  0  0  0
  190.7270  176.3590  136.3650 C   0  0  0  0  0  3  0  0  0  0  0  0
  190.1710  176.5230  141.1940 C   0  0  0  0  0  3  0  0  0  0  0  0
  189.9140  174.1270  135.7870 C   0  0  0  0  0  2  0  0  0  0  0  0
  189.5170  177.6640  141.8920 C   0  0  1  0  0  3  0  0  0  0  0  0
  188.5270  178.3270  140.9830 C   0  0  0  0  0  2  0  0  0  0  0  0
  187.3320  177.6790  142.9580 N   0  0  2  0  0  0  0  0  0  0  0  0
  188.7050  177.1650  143.0720 C   0  0  0  0  0  2  0  0  0  0  0  0
  187.3990  178.6990  141.9070 C   0  0  0  0  0  2  0  0  0  0  0  0
  185.5060  178.3360  144.2760 C   0  0  0  0  0  2  0  0  0  0  0  0
  185.0300  179.0480  145.5540 C   0  0  0  0  0  2  0  0  0  0  0  0
  185.6820  179.7130  147.7680 O   0  0  0  0  0  1  0  0  0  0  0  0
  186.5740  177.1480  147.5070 O   0  0  0  0  0  1  0  0  0  0  0  0
  187.4220  177.4620  145.2950 C   0  0  0  0  0  2  0  0  0  0  0  0
  186.1850  179.3190  146.5250 C   0  0  1  0  0  3  0  0  0  0  0  0
  188.4570  178.5810  147.2530 C   0  0  0  0  0  1  0  0  0  0  0  0
  187.1370  178.1120  146.6600 C   0  0  1  0  0  0  0  0  0  0  0  0
  186.9750  178.3090  144.1780 N   0  0  1  0  0  0  0  0  0  0  0  0
  185.6380  177.7130  135.5980 C   0  0  0  0  0  1  0  0  0  0  0  0
  186.0090  176.7550  136.7160 C   0  0  0  0  0  2  0  0  0  0  0  0
  184.9680  174.1820  135.6740 C   0  0  0  0  0  2  0  0  0  0  0  0
  183.9380  174.3520  136.6040 O   0  0  0  0  0  0  0  0  0  0  0  0
  182.3370  173.9650  134.8950 C   0  0  0  0  0  1  0  0  0  0  0  0
  182.9090  174.9660  135.8880 C   0  0  1  0  0  3  0  0  0  0  0  0
  180.4070  173.9910  138.4240 C   0  0  2  0  0  3  0  0  0  0  0  0
  182.2760  175.3610  138.2930 C   0  0  2  0  0  3  0  0  0  0  0  0
  180.3020  174.4650  136.6790 S   0  0  0  0  0  0  0  0  0  0  0  0
  179.0140  173.8650  139.0050 C   0  0  0  0  0  1  0  0  0  0  0  0
  181.8160  175.4660  136.8420 C   0  0  2  0  0  3  0  0  0  0  0  0
  181.1450  175.0160  139.1410 N   0  0  0  0  0  2  0  0  0  0  0  0
  182.7090  176.8650  140.2230 C   0  0  0  0  0  3  0  0  0  0  0  0
  182.9650  176.6420  138.7670 C   0  0  2  0  0  3  0  0  0  0  0  0
  184.1330  179.3880  139.1440 C   0  0  0  0  0  3  0  0  0  0  0  0
  182.6000  177.8340  137.9320 C   0  0  0  0  0  3  0  0  0  0  0  0
  183.1630  179.0330  138.0890 C   0  0  0  0  0  3  0  0  0  0  0  0
  183.2970  177.8320  140.9290 C   0  0  0  0  0  3  0  0  0  0  0  0
  184.1930  178.8680  140.3760 C   0  0  0  0  0  3  0  0  0  0  0  0
  192.0850  177.2090  138.1460 O   0  0  0  0  0  0  0  0  0  0  0  0
  193.1910  176.4860  138.6790 C   0  0  0  0  0  2  0  0  0  0  0  0
  193.7180  177.1800  139.9220 C   0  0  0  0  0  1  0  0  0  0  0  0
  1 31  1  6  0  0  0
  2  1  1  0  0  0  0
  3 11  1  0  0  0  0
  4 14  1  0  0  0  0
  5  4  1  0  0  0  0
  5  2  1  0  0  0  0
  6  3  2  0  0  0  0
  7 48  1  0  0  0  0
  7 11  1  0  0  0  0
  8  1  1  0  0  0  0
  8 30  1  1  0  0  0
  8  6  1  0  0  0  0
  9 13  2  0  0  0  0
 10 14  1  1  0  0  0
 10 12  1  0  0  0  0
 10  6  1  0  0  0  0
 11  9  2  0  0  0  0
 12  7  2  0  0  0  0
 15 13  1  6  0  0  0
 15 18  1  0  0  0  0
 16 15  1  0  0  0  0
 16 19  1  0  0  0  0
 17 19  1  6  0  0  0
 17 18  1  0  0  0  0
 17 28  1  0  0  0  0
 20 21  1  0  0  0  0
 21 25  1  0  0  0  0
 24 27  1  0  0  0  0
 25 27  1  0  0  0  0
 25 22  1  1  0  0  0
 27 26  1  1  0  0  0
 27 23  1  0  0  0  0
 28 20  1  6  0  0  0
 28 24  1  0  0  0  0
 29 30  1  0  0  0  0
 31 32  1  0  0  0  0
 34 33  1  6  0  0  0
 34 32  1  0  0  0  0
 35 38  1  1  0  0  0
 35 40  1  0  0  0  0
 36 42  1  0  0  0  0
 36 40  1  1  0  0  0
 37 39  1  0  0  0  0
 37 35  1  0  0  0  0
 39 34  1  6  0  0  0
 39 36  1  0  0  0  0
 41 46  2  0  0  0  0
 42 44  1  6  0  0  0
 42 41  1  0  0  0  0
 43 47  2  0  0  0  0
 44 45  2  0  0  0  0
 45 43  1  0  0  0  0
 47 46  1  0  0  0  0
 48 49  1  0  0  0  0
 49 50  1  0  0  0  0
M  END
>  <MODEL>
6

>  <REMARK>
 VINA RESULT:      -7.0      3.990      9.508
  Name = 
  10 active torsions:
  status: ('A' for Active; 'I' for Inactive)
    1  A    between atoms: C_1  and  C_39
    2  A    between atoms: C_6  and  C_34
    3  A    between atoms: C_12  and  O_42
    4  A    between atoms: C_14  and  O_42
    5  A    between atoms: C_15  and  C_37
    6  A    between atoms: C_17  and  C_22
    7  A    between atoms: N_18  and  N_50
    8  A    between atoms: C_35  and  C_41
    9  A    between atoms: C_35  and  O_47
   10  A    between atoms: C_39  and  O_47
                            x       y       z     vdW  Elec       q    Type
                         _______ _______ _______ _____ _____    ______ ____

>  <TORSDO>
F 10

$$$$
=
 OpenBabel11032421123D

 50 55  0  0  1  0  0  0  0  0999 V2000
  191.0780  177.5380  141.4050 C   0  0  1  0  0  3  0  0  0  0  0  0
  192.2450  177.7310  140.4320 C   0  0  0  0  0  2  0  0  0  0  0  0
  188.5880  177.3810  139.3030 C   0  0  0  0  0  3  0  0  0  0  0  0
  192.8090  176.5670  138.5810 C   0  0  0  0  0  2  0  0  0  0  0  0
  192.7080  176.4870  139.9810 O   0  0  0  0  0  0  0  0  0  0  0  0
  189.6320  176.5740  139.5500 C   0  0  0  0  0  0  0  0  0  0  0  0
  188.3350  176.3510  137.0060 C   0  0  0  0  0  0  0  0  0  0  0  0
  190.1460  176.3960  140.9580 C   0  0  2  0  0  3  0  0  0  0  0  0
  187.0110  178.2510  137.7220 C   0  0  0  0  0  0  0  0  0  0  0  0
  190.3400  175.8600  138.4100 C   0  0  1  0  0  3  0  0  0  0  0  0
  187.9960  177.4290  137.9590 C   0  0  0  0  0  0  0  0  0  0  0  0
  189.4020  175.5770  137.2610 C   0  0  0  0  0  3  0  0  0  0  0  0
  186.0220  179.0680  137.4850 C   0  0  0  0  0  3  0  0  0  0  0  0
  191.4570  176.7530  137.8730 C   0  0  0  0  0  2  0  0  0  0  0  0
  184.7300  178.8950  138.2040 C   0  0  1  0  0  3  0  0  0  0  0  0
  184.0660  177.6220  137.7720 C   0  0  0  0  0  2  0  0  0  0  0  0
  184.3070  177.5060  140.1540 N   0  0  2  0  0  0  0  0  0  0  0  0
  184.9730  178.7330  139.6920 C   0  0  0  0  0  2  0  0  0  0  0  0
  183.4430  177.1050  139.0400 C   0  0  0  0  0  2  0  0  0  0  0  0
  184.1900  178.8210  142.0930 C   0  0  0  0  0  2  0  0  0  0  0  0
  183.3900  179.1830  143.3560 C   0  0  0  0  0  2  0  0  0  0  0  0
  181.1970  179.1870  144.3370 O   0  0  0  0  0  1  0  0  0  0  0  0
  180.8390  180.1180  141.7980 O   0  0  0  0  0  1  0  0  0  0  0  0
  182.2730  178.4920  140.7910 C   0  0  0  0  0  2  0  0  0  0  0  0
  181.9660  178.6180  143.3180 C   0  0  1  0  0  3  0  0  0  0  0  0
  180.1120  177.8530  141.8300 C   0  0  0  0  0  1  0  0  0  0  0  0
  181.2960  178.8000  141.9400 C   0  0  1  0  0  0  0  0  0  0  0  0
  183.4900  177.8180  141.2710 N   0  0  1  0  0  0  0  0  0  0  0  0
  188.0940  177.3610  142.0230 C   0  0  0  0  0  1  0  0  0  0  0  0
  189.0120  176.1540  141.9570 C   0  0  0  0  0  2  0  0  0  0  0  0
  191.6390  177.2470  142.7920 C   0  0  0  0  0  2  0  0  0  0  0  0
  192.1130  178.4230  143.3800 O   0  0  0  0  0  0  0  0  0  0  0  0
  190.0020  179.4710  143.6660 C   0  0  0  0  0  1  0  0  0  0  0  0
  191.1580  178.7500  144.3440 C   0  0  1  0  0  3  0  0  0  0  0  0
  191.7720  176.3820  147.1110 C   0  0  2  0  0  3  0  0  0  0  0  0
  190.0910  177.8310  146.4310 C   0  0  2  0  0  3  0  0  0  0  0  0
  192.0260  176.3070  145.3190 S   0  0  0  0  0  0  0  0  0  0  0  0
  192.0520  175.0260  147.7250 C   0  0  0  0  0  1  0  0  0  0  0  0
  190.6620  177.4870  145.0580 C   0  0  2  0  0  3  0  0  0  0  0  0
  190.3950  176.7610  147.3700 N   0  0  0  0  0  2  0  0  0  0  0  0
  188.0180  178.2100  147.7480 C   0  0  0  0  0  3  0  0  0  0  0  0
  188.5900  178.1170  146.3700 C   0  0  2  0  0  3  0  0  0  0  0  0
  185.6480  178.2790  145.7640 C   0  0  0  0  0  3  0  0  0  0  0  0
  187.8530  177.1340  145.5090 C   0  0  0  0  0  3  0  0  0  0  0  0
  186.5560  177.2500  145.2180 C   0  0  0  0  0  3  0  0  0  0  0  0
  186.7620  178.5830  147.9940 C   0  0  0  0  0  3  0  0  0  0  0  0
  185.7360  178.8580  146.9670 C   0  0  0  0  0  3  0  0  0  0  0  0
  187.5300  176.1410  135.8770 O   0  0  0  0  0  0  0  0  0  0  0  0
  186.8460  174.9190  135.6150 C   0  0  0  0  0  2  0  0  0  0  0  0
  185.8850  174.6050  136.7480 C   0  0  0  0  0  1  0  0  0  0  0  0
  1 31  1  1  0  0  0
  2  1  1  0  0  0  0
  3  6  2  0  0  0  0
  4  5  1  0  0  0  0
  5  2  1  0  0  0  0
  6  8  1  0  0  0  0
  7 12  2  0  0  0  0
  7 11  1  0  0  0  0
  8  1  1  0  0  0  0
  8 30  1  1  0  0  0
  9 11  2  0  0  0  0
 10 12  1  6  0  0  0
 10  6  1  0  0  0  0
 11  3  1  0  0  0  0
 13  9  2  0  0  0  0
 14 10  1  0  0  0  0
 14  4  1  0  0  0  0
 15 13  1  6  0  0  0
 15 18  1  0  0  0  0
 16 15  1  0  0  0  0
 16 19  1  0  0  0  0
 17 19  1  6  0  0  0
 17 28  1  0  0  0  0
 18 17  1  0  0  0  0
 20 21  1  0  0  0  0
 23 27  1  0  0  0  0
 24 27  1  0  0  0  0
 25 21  1  0  0  0  0
 25 22  1  1  0  0  0
 27 26  1  6  0  0  0
 27 25  1  0  0  0  0
 28 24  1  6  0  0  0
 28 20  1  0  0  0  0
 30 29  1  0  0  0  0
 31 32  1  0  0  0  0
 32 34  1  0  0  0  0
 34 33  1  6  0  0  0
 35 40  1  0  0  0  0
 35 38  1  1  0  0  0
 36 40  1  1  0  0  0
 37 35  1  0  0  0  0
 39 34  1  1  0  0  0
 39 37  1  0  0  0  0
 39 36  1  0  0  0  0
 41 46  2  0  0  0  0
 42 44  1  6  0  0  0
 42 36  1  0  0  0  0
 42 41  1  0  0  0  0
 43 47  2  0  0  0  0
 45 44  2  0  0  0  0
 45 43  1  0  0  0  0
 47 46  1  0  0  0  0
 48  7  1  0  0  0  0
 49 48  1  0  0  0  0
 49 50  1  0  0  0  0
M  END
>  <MODEL>
7

>  <REMARK>
 VINA RESULT:      -6.7      3.408      7.367
  Name = 
  10 active torsions:
  status: ('A' for Active; 'I' for Inactive)
    1  A    between atoms: C_1  and  C_39
    2  A    between atoms: C_6  and  C_34
    3  A    between atoms: C_12  and  O_42
    4  A    between atoms: C_14  and  O_42
    5  A    between atoms: C_15  and  C_37
    6  A    between atoms: C_17  and  C_22
    7  A    between atoms: N_18  and  N_50
    8  A    between atoms: C_35  and  C_41
    9  A    between atoms: C_35  and  O_47
   10  A    between atoms: C_39  and  O_47
                            x       y       z     vdW  Elec       q    Type
                         _______ _______ _______ _____ _____    ______ ____

>  <TORSDO>
F 10

$$$$
=
 OpenBabel11032421123D

 50 55  0  0  1  0  0  0  0  0999 V2000
  188.7760  177.1700  141.7150 C   0  0  1  0  0  3  0  0  0  0  0  0
  188.7180  176.2810  142.9620 C   0  0  0  0  0  2  0  0  0  0  0  0
  185.7120  178.2910  141.6590 C   0  0  0  0  0  3  0  0  0  0  0  0
  187.9750  176.7370  145.0450 C   0  0  0  0  0  2  0  0  0  0  0  0
  188.9790  177.0420  144.1100 O   0  0  0  0  0  0  0  0  0  0  0  0
  186.7420  178.4780  142.5000 C   0  0  0  0  0  0  0  0  0  0  0  0
  184.1000  178.9890  143.4800 C   0  0  0  0  0  0  0  0  0  0  0  0
  188.1560  178.5560  141.9750 C   0  0  2  0  0  3  0  0  0  0  0  0
  183.3420  178.1440  141.3390 C   0  0  0  0  0  0  0  0  0  0  0  0
  186.5060  178.5720  143.9980 C   0  0  1  0  0  3  0  0  0  0  0  0
  184.3320  178.3730  142.1570 C   0  0  0  0  0  0  0  0  0  0  0  0
  185.1420  179.1370  144.3140 C   0  0  0  0  0  3  0  0  0  0  0  0
  182.3520  177.9220  140.5200 C   0  0  0  0  0  3  0  0  0  0  0  0
  186.5680  177.1720  144.6070 C   0  0  0  0  0  2  0  0  0  0  0  0
  182.1370  178.8230  139.3550 C   0  0  1  0  0  3  0  0  0  0  0  0
  181.6960  178.0290  138.1620 C   0  0  0  0  0  2  0  0  0  0  0  0
  180.0190  179.6990  138.5430 N   0  0  2  0  0  0  0  0  0  0  0  0
  181.0000  179.7860  139.6360 C   0  0  0  0  0  2  0  0  0  0  0  0
  180.6940  178.9310  137.4930 C   0  0  0  0  0  2  0  0  0  0  0  0
  179.3160  181.8450  139.1780 C   0  0  0  0  0  2  0  0  0  0  0  0
  178.9680  183.2730  138.7230 C   0  0  0  0  0  2  0  0  0  0  0  0
  179.3250  184.9080  137.0000 O   0  0  0  0  0  1  0  0  0  0  0  0
  181.7930  183.8620  137.5080 O   0  0  0  0  0  1  0  0  0  0  0  0
  181.0300  181.6000  137.6030 C   0  0  0  0  0  2  0  0  0  0  0  0
  179.4110  183.5420  137.2810 C   0  0  1  0  0  3  0  0  0  0  0  0
  181.0150  182.8880  135.4820 C   0  0  0  0  0  1  0  0  0  0  0  0
  180.8240  182.9950  136.9860 C   0  0  1  0  0  0  0  0  0  0  0  0
  179.7610  181.0050  138.0530 N   0  0  1  0  0  0  0  0  0  0  0  0
  188.1070  178.6740  139.4730 C   0  0  0  0  0  1  0  0  0  0  0  0
  188.2650  179.4720  140.7540 C   0  0  0  0  0  2  0  0  0  0  0  0
  190.2300  177.3160  141.2850 C   0  0  0  0  0  2  0  0  0  0  0  0
  190.6130  176.2300  140.4920 O   0  0  0  0  0  0  0  0  0  0  0  0
  192.6190  177.1170  139.5850 C   0  0  0  0  0  1  0  0  0  0  0  0
  191.1510  176.8030  139.3380 C   0  0  1  0  0  3  0  0  0  0  0  0
  189.8530  176.4260  135.9010 C   0  0  2  0  0  3  0  0  0  0  0  0
  191.8970  176.2830  136.9910 C   0  0  2  0  0  3  0  0  0  0  0  0
  189.2820  175.8600  137.5250 S   0  0  0  0  0  0  0  0  0  0  0  0
  188.9930  175.8150  134.8140 C   0  0  0  0  0  1  0  0  0  0  0  0
  190.9950  175.8530  138.1440 C   0  0  2  0  0  3  0  0  0  0  0  0
  191.2330  176.0130  135.7240 N   0  0  0  0  0  2  0  0  0  0  0  0
  194.0580  175.9060  135.8230 C   0  0  0  0  0  3  0  0  0  0  0  0
  193.2710  175.6130  137.0600 C   0  0  2  0  0  3  0  0  0  0  0  0
  195.6530  173.8210  137.4550 C   0  0  0  0  0  3  0  0  0  0  0  0
  193.1790  174.1430  137.3460 C   0  0  0  0  0  3  0  0  0  0  0  0
  194.2490  173.3750  137.5610 C   0  0  0  0  0  3  0  0  0  0  0  0
  195.3380  175.5610  135.6730 C   0  0  0  0  0  3  0  0  0  0  0  0
  196.1270  174.7680  136.6370 C   0  0  0  0  0  3  0  0  0  0  0  0
  182.8140  179.4270  143.8280 O   0  0  0  0  0  0  0  0  0  0  0  0
  181.8250  178.5800  144.4070 C   0  0  0  0  0  2  0  0  0  0  0  0
  180.4670  178.8680  143.7930 C   0  0  0  0  0  1  0  0  0  0  0  0
  1 31  1  1  0  0  0
  1  8  1  0  0  0  0
  1  2  1  0  0  0  0
  2  5  1  0  0  0  0
  3 11  1  0  0  0  0
  3  6  2  0  0  0  0
  5  4  1  0  0  0  0
  6 10  1  0  0  0  0
  7 48  1  0  0  0  0
  7 12  2  0  0  0  0
  8 30  1  6  0  0  0
  8  6  1  0  0  0  0
  9 11  2  0  0  0  0
 10 12  1  6  0  0  0
 10 14  1  0  0  0  0
 11  7  1  0  0  0  0
 13  9  2  0  0  0  0
 14  4  1  0  0  0  0
 15 18  1  0  0  0  0
 15 13  1  1  0  0  0
 16 15  1  0  0  0  0
 17 19  1  6  0  0  0
 17 18  1  0  0  0  0
 19 16  1  0  0  0  0
 21 20  1  0  0  0  0
 25 22  1  1  0  0  0
 25 21  1  0  0  0  0
 27 26  1  6  0  0  0
 27 25  1  0  0  0  0
 27 23  1  0  0  0  0
 27 24  1  0  0  0  0
 28 24  1  1  0  0  0
 28 17  1  0  0  0  0
 28 20  1  0  0  0  0
 29 30  1  0  0  0  0
 32 31  1  0  0  0  0
 34 33  1  1  0  0  0
 34 32  1  0  0  0  0
 35 38  1  6  0  0  0
 35 37  1  0  0  0  0
 36 40  1  6  0  0  0
 36 42  1  0  0  0  0
 36 39  1  0  0  0  0
 37 39  1  0  0  0  0
 39 34  1  1  0  0  0
 40 35  1  0  0  0  0
 42 41  1  6  0  0  0
 42 44  1  0  0  0  0
 43 45  1  0  0  0  0
 44 45  2  0  0  0  0
 46 41  2  0  0  0  0
 46 47  1  0  0  0  0
 47 43  2  0  0  0  0
 48 49  1  0  0  0  0
 50 49  1  0  0  0  0
M  END
>  <MODEL>
8

>  <REMARK>
 VINA RESULT:      -6.7      1.379      3.251
  Name = 
  10 active torsions:
  status: ('A' for Active; 'I' for Inactive)
    1  A    between atoms: C_1  and  C_39
    2  A    between atoms: C_6  and  C_34
    3  A    between atoms: C_12  and  O_42
    4  A    between atoms: C_14  and  O_42
    5  A    between atoms: C_15  and  C_37
    6  A    between atoms: C_17  and  C_22
    7  A    between atoms: N_18  and  N_50
    8  A    between atoms: C_35  and  C_41
    9  A    between atoms: C_35  and  O_47
   10  A    between atoms: C_39  and  O_47
                            x       y       z     vdW  Elec       q    Type
                         _______ _______ _______ _____ _____    ______ ____

>  <TORSDO>
F 10

$$$$
=
 OpenBabel11032421123D

 50 55  0  0  1  0  0  0  0  0999 V2000
  189.6350  177.1700  138.7260 C   0  0  1  0  0  3  0  0  0  0  0  0
  189.9480  176.4450  140.0390 C   0  0  0  0  0  2  0  0  0  0  0  0
  186.5790  178.1480  139.3160 C   0  0  0  0  0  3  0  0  0  0  0  0
  189.7070  177.1300  142.1770 C   0  0  0  0  0  2  0  0  0  0  0  0
  190.4270  177.3560  140.9910 O   0  0  0  0  0  0  0  0  0  0  0  0
  187.7670  178.4830  139.8440 C   0  0  0  0  0  0  0  0  0  0  0  0
  185.4160  179.0040  141.3930 C   0  0  0  0  0  0  0  0  0  0  0  0
  189.0010  178.5510  138.9750 C   0  0  2  0  0  3  0  0  0  0  0  0
  184.2200  177.8640  139.6200 C   0  0  0  0  0  0  0  0  0  0  0  0
  187.8990  178.7560  141.3330 C   0  0  1  0  0  3  0  0  0  0  0  0
  185.3610  178.2360  140.1320 C   0  0  0  0  0  0  0  0  0  0  0  0
  186.6170  179.3000  141.9160 C   0  0  0  0  0  3  0  0  0  0  0  0
  183.0770  177.5000  139.1070 C   0  0  0  0  0  3  0  0  0  0  0  0
  188.2070  177.4480  142.0610 C   0  0  0  0  0  2  0  0  0  0  0  0
  182.5210  178.2370  137.9400 C   0  0  1  0  0  3  0  0  0  0  0  0
  181.1410  177.7410  137.6260 C   0  0  0  0  0  2  0  0  0  0  0  0
  180.9640  180.1050  137.9860 N   0  0  2  0  0  0  0  0  0  0  0  0
  182.3500  179.7060  138.2760 C   0  0  0  0  0  2  0  0  0  0  0  0
  180.4060  178.9880  137.2170 C   0  0  0  0  0  2  0  0  0  0  0  0
  179.8850  181.1500  136.1840 C   0  0  0  0  0  2  0  0  0  0  0  0
  179.8610  182.3440  135.2150 C   0  0  0  0  0  2  0  0  0  0  0  0
  180.5590  184.6230  134.9180 O   0  0  0  0  0  1  0  0  0  0  0  0
  179.5850  184.5060  137.4640 O   0  0  0  0  0  1  0  0  0  0  0  0
  180.6520  182.4330  137.9850 C   0  0  0  0  0  2  0  0  0  0  0  0
  180.8070  183.4650  135.6600 C   0  0  1  0  0  3  0  0  0  0  0  0
  181.9590  184.5090  137.6140 C   0  0  0  0  0  1  0  0  0  0  0  0
  180.7230  183.7400  137.1770 C   0  0  1  0  0  0  0  0  0  0  0  0
  180.9820  181.2580  137.1610 N   0  0  1  0  0  0  0  0  0  0  0  0
  187.7210  178.5750  136.8210 C   0  0  0  0  0  1  0  0  0  0  0  0
  188.7420  179.3100  137.6720 C   0  0  0  0  0  2  0  0  0  0  0  0
  190.9260  177.3210  137.9300 C   0  0  0  0  0  2  0  0  0  0  0  0
  190.7170  176.9620  136.5940 O   0  0  0  0  0  0  0  0  0  0  0  0
  192.5580  175.7920  137.5300 C   0  0  0  0  0  1  0  0  0  0  0  0
  191.8290  176.1880  136.2550 C   0  0  1  0  0  3  0  0  0  0  0  0
  192.5860  172.6520  135.5070 C   0  0  2  0  0  3  0  0  0  0  0  0
  190.8360  173.8800  136.4120 C   0  0  2  0  0  3  0  0  0  0  0  0
  192.8110  174.2010  134.5950 S   0  0  0  0  0  0  0  0  0  0  0  0
  192.9310  171.4770  134.6150 C   0  0  0  0  0  1  0  0  0  0  0  0
  191.3960  174.9430  135.4710 C   0  0  2  0  0  3  0  0  0  0  0  0
  191.1990  172.5570  135.9260 N   0  0  0  0  0  2  0  0  0  0  0  0
  188.6870  172.6710  136.7180 C   0  0  0  0  0  3  0  0  0  0  0  0
  189.3240  174.0180  136.5930 C   0  0  2  0  0  3  0  0  0  0  0  0
  186.4070  174.7500  136.5260 C   0  0  0  0  0  3  0  0  0  0  0  0
  188.6910  174.8530  135.5200 C   0  0  0  0  0  3  0  0  0  0  0  0
  187.4030  175.2020  135.5330 C   0  0  0  0  0  3  0  0  0  0  0  0
  187.3990  172.4960  137.0180 C   0  0  0  0  0  3  0  0  0  0  0  0
  186.4040  173.5770  137.1710 C   0  0  0  0  0  3  0  0  0  0  0  0
  184.2260  179.4300  142.0020 O   0  0  0  0  0  0  0  0  0  0  0  0
  183.5780  178.7120  143.0490 C   0  0  0  0  0  2  0  0  0  0  0  0
  183.9490  179.3040  144.3960 C   0  0  0  0  0  1  0  0  0  0  0  0
  1 31  1  1  0  0  0
  1  8  1  0  0  0  0
  1  2  1  0  0  0  0
  2  5  1  0  0  0  0
  3  6  2  0  0  0  0
  3 11  1  0  0  0  0
  5  4  1  0  0  0  0
  6 10  1  0  0  0  0
  7 12  2  0  0  0  0
  7 48  1  0  0  0  0
  8 30  1  6  0  0  0
  8  6  1  0  0  0  0
  9 11  2  0  0  0  0
 10 12  1  1  0  0  0
 10 14  1  0  0  0  0
 11  7  1  0  0  0  0
 13  9  2  0  0  0  0
 14  4  1  0  0  0  0
 15 18  1  0  0  0  0
 15 13  1  1  0  0  0
 16 15  1  0  0  0  0
 17 19  1  6  0  0  0
 17 18  1  0  0  0  0
 19 16  1  0  0  0  0
 21 25  1  0  0  0  0
 21 20  1  0  0  0  0
 25 22  1  6  0  0  0
 25 27  1  0  0  0  0
 27 23  1  0  0  0  0
 27 26  1  1  0  0  0
 27 24  1  0  0  0  0
 28 20  1  6  0  0  0
 28 24  1  0  0  0  0
 28 17  1  0  0  0  0
 29 30  1  0  0  0  0
 32 31  1  0  0  0  0
 34 32  1  0  0  0  0
 34 33  1  1  0  0  0
 35 38  1  6  0  0  0
 35 40  1  0  0  0  0
 36 40  1  6  0  0  0
 36 42  1  0  0  0  0
 37 39  1  0  0  0  0
 37 35  1  0  0  0  0
 39 34  1  1  0  0  0
 39 36  1  0  0  0  0
 41 46  2  0  0  0  0
 42 44  1  6  0  0  0
 42 41  1  0  0  0  0
 43 47  2  0  0  0  0
 44 45  2  0  0  0  0
 45 43  1  0  0  0  0
 46 47  1  0  0  0  0
 48 49  1  0  0  0  0
 49 50  1  0  0  0  0
M  END
>  <MODEL>
9

>  <REMARK>
 VINA RESULT:      -6.7      1.670      2.566
  Name = 
  10 active torsions:
  status: ('A' for Active; 'I' for Inactive)
    1  A    between atoms: C_1  and  C_39
    2  A    between atoms: C_6  and  C_34
    3  A    between atoms: C_12  and  O_42
    4  A    between atoms: C_14  and  O_42
    5  A    between atoms: C_15  and  C_37
    6  A    between atoms: C_17  and  C_22
    7  A    between atoms: N_18  and  N_50
    8  A    between atoms: C_35  and  C_41
    9  A    between atoms: C_35  and  O_47
   10  A    between atoms: C_39  and  O_47
                            x       y       z     vdW  Elec       q    Type
                         _______ _______ _______ _____ _____    ______ ____

>  <TORSDO>
F 10

$$$$
