=
 OpenBabel11042412163D

 34 37  0  0  1  0  0  0  0  0999 V2000
  184.7190  178.1240  142.6100 C   0  0  0  0  0  3  0  0  0  0  0  0
  186.6540  178.2540  146.8910 C   0  0  0  0  0  0  0  0  0  0  0  0
  186.9900  177.8190  145.5910 C   0  0  0  0  0  0  0  0  0  0  0  0
  186.0840  177.6340  143.1480 C   0  0  0  0  0  3  0  0  0  0  0  0
  184.5120  178.9220  146.1520 N   0  0  0  0  0  0  0  0  0  0  0  0
  185.4200  178.7930  147.1250 N   0  0  0  0  0  0  0  0  0  0  0  0
  186.0210  177.9680  144.5990 C   0  0  0  0  0  0  0  0  0  0  0  0
  187.7880  178.1160  148.2250 Cl  0  0  0  0  0  0  0  0  0  0  0  0
  184.8110  178.5050  144.8980 C   0  0  0  0  0  0  0  0  0  0  0  0
  183.9640  178.5920  143.7730 N   0  0  0  0  0  0  0  0  0  0  0  0
  188.3140  177.1890  145.2810 C   0  0  0  0  0  2  0  0  0  0  0  0
  189.3440  178.2350  144.8660 C   0  0  0  0  0  2  0  0  0  0  0  0
  189.0850  177.7900  142.3550 C   0  0  0  0  0  3  0  0  0  0  0  0
  191.8380  177.5140  142.1920 N   0  0  0  0  0  2  0  0  0  0  0  0
  189.9500  177.9020  143.5450 C   0  0  0  0  0  0  0  0  0  0  0  0
  191.2400  177.7770  143.4370 N   0  0  0  0  0  0  0  0  0  0  0  0
  189.6200  177.5520  141.1590 C   0  0  0  0  0  0  0  0  0  0  0  0
  191.0430  177.3940  141.0410 N   0  0  0  0  0  0  0  0  0  0  0  0
  188.7790  177.4700  140.0130 N   0  0  0  0  0  1  0  0  0  0  0  0
  193.1790  177.2140  139.8870 C   0  0  0  0  0  1  0  0  0  0  0  0
  191.6710  177.1300  139.7550 C   0  0  0  0  0  2  0  0  0  0  0  0
  182.8050  179.4720  143.7070 C   0  0  0  0  0  2  0  0  0  0  0  0
  181.5400  178.7500  144.1550 C   0  0  0  0  0  2  0  0  0  0  0  0
  181.0730  179.0110  141.7030 C   0  0  1  0  0  3  0  0  0  0  0  0
  179.5000  179.9340  143.3540 C   0  0  0  0  0  2  0  0  0  0  0  0
  180.9420  177.8470  140.9440 O   0  0  0  0  0  1  0  0  0  0  0  0
  179.2140  180.6170  142.0300 C   0  0  0  0  0  2  0  0  0  0  0  0
  180.4110  180.4800  139.8820 N   0  0  0  0  0  0  0  0  0  0  0  0
  180.2550  180.0930  141.1130 C   0  0  0  0  0  0  0  0  0  0  0  0
  180.4640  178.7830  143.0790 C   0  0  2  0  0  3  0  0  0  0  0  0
  179.6750  181.5210  139.2880 N   0  0  0  0  0  2  0  0  0  0  0  0
  180.2460  182.4730  138.3860 C   0  0  0  0  0  0  0  0  0  0  0  0
  179.4960  183.5650  137.9750 O   0  0  0  0  0  1  0  0  0  0  0  0
  181.4070  182.3050  137.9240 O   0  0  0  0  0  0  0  0  0  0  0  0
  1  4  2  0  0  0  0
  1 10  1  0  0  0  0
  2  6  1  0  0  0  0
  2  8  1  0  0  0  0
  3  2  2  0  0  0  0
  4  7  1  0  0  0  0
  5  6  2  0  0  0  0
  7  9  2  0  0  0  0
  7  3  1  0  0  0  0
  9  5  1  0  0  0  0
 10  9  1  0  0  0  0
 11  3  1  0  0  0  0
 12 11  1  0  0  0  0
 13 15  1  0  0  0  0
 14 16  1  0  0  0  0
 15 12  1  0  0  0  0
 16 15  2  0  0  0  0
 17 13  2  0  0  0  0
 18 17  1  0  0  0  0
 18 14  1  0  0  0  0
 19 17  1  0  0  0  0
 21 20  1  0  0  0  0
 21 18  1  0  0  0  0
 22 10  1  0  0  0  0
 22 23  1  0  0  0  0
 24 26  1  6  0  0  0
 24 30  1  0  0  0  0
 27 25  1  0  0  0  0
 28 29  2  0  0  0  0
 29 24  1  0  0  0  0
 29 27  1  0  0  0  0
 30 25  1  0  0  0  0
 30 23  1  1  0  0  0
 31 28  1  0  0  0  0
 32 31  1  0  0  0  0
 33 32  1  0  0  0  0
 34 32  2  0  0  0  0
M  END
>  <MODEL>
1

>  <REMARK>
 VINA RESULT:      -9.1      0.000      0.000
  Name = 
  8 active torsions:
  status: ('A' for Active; 'I' for Inactive)
    1  A    between atoms: N_3  and  N_22
    2  A    between atoms: C_7  and  C_11
    3  A    between atoms: C_11  and  C_13
    4  A    between atoms: C_12  and  C_13
    5  A    between atoms: C_18  and  C_28
    6  A    between atoms: C_18  and  N_32
    7  A    between atoms: N_27  and  C_30
    8  A    between atoms: C_28  and  C_29
                            x       y       z     vdW  Elec       q    Type
                         _______ _______ _______ _____ _____    ______ ____

>  <TORSDO>
F 8

$$$$
=
 OpenBabel11042412163D

 34 37  0  0  1  0  0  0  0  0999 V2000
  189.0430  178.1130  141.2330 C   0  0  0  0  0  3  0  0  0  0  0  0
  190.9660  176.6520  145.2650 C   0  0  0  0  0  0  0  0  0  0  0  0
  189.9030  177.4760  144.8370 C   0  0  0  0  0  0  0  0  0  0  0  0
  188.7080  178.4150  142.7130 C   0  0  0  0  0  3  0  0  0  0  0  0
  191.5950  176.2400  143.0250 N   0  0  0  0  0  0  0  0  0  0  0  0
  191.7780  176.0610  144.3370 N   0  0  0  0  0  0  0  0  0  0  0  0
  189.7390  177.6410  143.4620 C   0  0  0  0  0  0  0  0  0  0  0  0
  191.2770  176.3680  146.9700 Cl  0  0  0  0  0  0  0  0  0  0  0  0
  190.5830  177.0320  142.5920 C   0  0  0  0  0  0  0  0  0  0  0  0
  190.2600  177.3000  141.2450 N   0  0  0  0  0  0  0  0  0  0  0  0
  189.0010  178.1770  145.8070 C   0  0  0  0  0  2  0  0  0  0  0  0
  187.7820  177.3260  146.1490 C   0  0  0  0  0  2  0  0  0  0  0  0
  186.2040  177.8020  144.1870 C   0  0  0  0  0  3  0  0  0  0  0  0
  184.4940  179.0710  145.9620 N   0  0  0  0  0  2  0  0  0  0  0  0
  186.5300  177.9390  145.6190 C   0  0  0  0  0  0  0  0  0  0  0  0
  185.7050  178.5310  146.4300 N   0  0  0  0  0  0  0  0  0  0  0  0
  185.0600  178.2940  143.7110 C   0  0  0  0  0  0  0  0  0  0  0  0
  184.1560  178.9650  144.6030 N   0  0  0  0  0  0  0  0  0  0  0  0
  184.7440  178.1350  142.3330 N   0  0  0  0  0  1  0  0  0  0  0  0
  181.7950  178.4860  144.2510 C   0  0  0  0  0  1  0  0  0  0  0  0
  182.8980  179.5190  144.1270 C   0  0  0  0  0  2  0  0  0  0  0  0
  190.7180  176.4800  140.1320 C   0  0  0  0  0  2  0  0  0  0  0  0
  191.0950  177.3420  138.9340 C   0  0  0  0  0  2  0  0  0  0  0  0
  189.0830  178.5470  138.0400 C   0  0  1  0  0  3  0  0  0  0  0  0
  189.1430  176.0880  138.0240 C   0  0  0  0  0  2  0  0  0  0  0  0
  189.2780  179.4220  136.9700 O   0  0  0  0  0  1  0  0  0  0  0  0
  187.6930  176.5040  137.8670 C   0  0  0  0  0  2  0  0  0  0  0  0
  186.6590  178.7370  137.9770 N   0  0  0  0  0  0  0  0  0  0  0  0
  187.7180  177.9820  137.9870 C   0  0  0  0  0  0  0  0  0  0  0  0
  189.9990  177.3430  137.8770 C   0  0  2  0  0  3  0  0  0  0  0  0
  185.3430  178.2410  137.9550 N   0  0  0  0  0  2  0  0  0  0  0  0
  184.2780  178.8010  138.7290 C   0  0  0  0  0  0  0  0  0  0  0  0
  183.0520  178.1550  138.7780 O   0  0  0  0  0  0  0  0  0  0  0  0
  184.4280  179.8990  139.3290 O   0  0  0  0  0  1  0  0  0  0  0  0
  1 10  1  0  0  0  0
  1  4  2  0  0  0  0
  2  8  1  0  0  0  0
  3  2  1  0  0  0  0
  3 11  1  0  0  0  0
  4  7  1  0  0  0  0
  5  6  1  0  0  0  0
  6  2  2  0  0  0  0
  7  3  2  0  0  0  0
  9  5  2  0  0  0  0
  9  7  1  0  0  0  0
 10  9  1  0  0  0  0
 11 12  1  0  0  0  0
 13 15  1  0  0  0  0
 14 16  1  0  0  0  0
 15 12  1  0  0  0  0
 15 16  2  0  0  0  0
 17 13  2  0  0  0  0
 17 18  1  0  0  0  0
 18 14  1  0  0  0  0
 19 17  1  0  0  0  0
 21 20  1  0  0  0  0
 21 18  1  0  0  0  0
 22 10  1  0  0  0  0
 23 22  1  0  0  0  0
 24 26  1  6  0  0  0
 27 29  1  0  0  0  0
 27 25  1  0  0  0  0
 28 29  2  0  0  0  0
 29 24  1  0  0  0  0
 30 25  1  0  0  0  0
 30 24  1  0  0  0  0
 30 23  1  1  0  0  0
 31 28  1  0  0  0  0
 31 32  1  0  0  0  0
 32 33  2  0  0  0  0
 32 34  1  0  0  0  0
M  END
>  <MODEL>
2

>  <REMARK>
 VINA RESULT:      -8.9      2.787      7.269
  Name = 
  8 active torsions:
  status: ('A' for Active; 'I' for Inactive)
    1  A    between atoms: N_3  and  N_22
    2  A    between atoms: C_7  and  C_11
    3  A    between atoms: C_11  and  C_13
    4  A    between atoms: C_12  and  C_13
    5  A    between atoms: C_18  and  C_28
    6  A    between atoms: C_18  and  N_32
    7  A    between atoms: N_27  and  C_30
    8  A    between atoms: C_28  and  C_29
                            x       y       z     vdW  Elec       q    Type
                         _______ _______ _______ _____ _____    ______ ____

>  <TORSDO>
F 8

$$$$
=
 OpenBabel11042412163D

 34 37  0  0  1  0  0  0  0  0999 V2000
  187.3190  178.3860  140.9310 C   0  0  0  0  0  3  0  0  0  0  0  0
  185.6030  178.0960  145.2970 C   0  0  0  0  0  0  0  0  0  0  0  0
  185.2670  178.6980  144.0650 C   0  0  0  0  0  0  0  0  0  0  0  0
  186.0650  178.9990  141.5960 C   0  0  0  0  0  3  0  0  0  0  0  0
  187.5920  177.2240  144.3660 N   0  0  0  0  0  0  0  0  0  0  0  0
  186.7610  177.3760  145.4020 N   0  0  0  0  0  0  0  0  0  0  0  0
  186.1540  178.5180  143.0050 C   0  0  0  0  0  0  0  0  0  0  0  0
  184.5680  178.2530  146.7060 Cl  0  0  0  0  0  0  0  0  0  0  0  0
  187.2910  177.7980  143.1760 C   0  0  0  0  0  0  0  0  0  0  0  0
  188.0600  177.7090  141.9970 N   0  0  0  0  0  0  0  0  0  0  0  0
  184.0290  179.5260  143.8980 C   0  0  0  0  0  2  0  0  0  0  0  0
  182.7860  178.6520  143.7710 C   0  0  0  0  0  2  0  0  0  0  0  0
  181.9580  178.6280  141.3460 C   0  0  0  0  0  3  0  0  0  0  0  0
  180.0430  180.5020  142.0570 N   0  0  0  0  0  2  0  0  0  0  0  0
  181.8680  179.1680  142.7160 C   0  0  0  0  0  0  0  0  0  0  0  0
  180.9530  180.0390  143.0230 N   0  0  0  0  0  0  0  0  0  0  0  0
  181.1040  179.0380  140.4080 C   0  0  0  0  0  0  0  0  0  0  0  0
  180.1050  180.0140  140.7410 N   0  0  0  0  0  0  0  0  0  0  0  0
  181.1840  178.4930  139.0960 N   0  0  0  0  0  1  0  0  0  0  0  0
  179.6460  181.7930  139.1440 C   0  0  0  0  0  1  0  0  0  0  0  0
  179.1540  180.4930  139.7490 C   0  0  0  0  0  2  0  0  0  0  0  0
  189.0800  176.6920  141.7780 C   0  0  0  0  0  2  0  0  0  0  0  0
  190.4200  177.3260  141.4220 C   0  0  0  0  0  2  0  0  0  0  0  0
  190.9580  176.4540  143.7130 C   0  0  1  0  0  3  0  0  0  0  0  0
  191.1090  178.8660  143.2560 C   0  0  0  0  0  2  0  0  0  0  0  0
  191.9980  175.5300  143.8230 O   0  0  0  0  0  1  0  0  0  0  0  0
  191.0380  178.6970  144.7610 C   0  0  0  0  0  2  0  0  0  0  0  0
  190.6680  176.6750  146.1180 N   0  0  0  0  0  0  0  0  0  0  0  0
  190.8470  177.2400  144.9600 C   0  0  0  0  0  0  0  0  0  0  0  0
  191.3100  177.4810  142.6470 C   0  0  2  0  0  3  0  0  0  0  0  0
  190.5300  177.3840  147.3240 N   0  0  0  0  0  2  0  0  0  0  0  0
  189.2990  177.4760  148.0470 C   0  0  0  0  0  0  0  0  0  0  0  0
  189.2060  178.3290  149.1370 O   0  0  0  0  0  1  0  0  0  0  0  0
  188.3140  176.7550  147.7330 O   0  0  0  0  0  0  0  0  0  0  0  0
  1  4  2  0  0  0  0
  1 10  1  0  0  0  0
  2  6  1  0  0  0  0
  2  8  1  0  0  0  0
  3  2  2  0  0  0  0
  4  7  1  0  0  0  0
  5  6  2  0  0  0  0
  7  9  2  0  0  0  0
  7  3  1  0  0  0  0
  9  5  1  0  0  0  0
 10  9  1  0  0  0  0
 11  3  1  0  0  0  0
 12 11  1  0  0  0  0
 13 15  1  0  0  0  0
 14 16  1  0  0  0  0
 15 16  2  0  0  0  0
 15 12  1  0  0  0  0
 17 18  1  0  0  0  0
 17 13  2  0  0  0  0
 18 14  1  0  0  0  0
 19 17  1  0  0  0  0
 20 21  1  0  0  0  0
 21 18  1  0  0  0  0
 22 10  1  0  0  0  0
 23 22  1  0  0  0  0
 24 26  1  1  0  0  0
 24 29  1  0  0  0  0
 25 27  1  0  0  0  0
 27 29  1  0  0  0  0
 28 31  1  0  0  0  0
 29 28  2  0  0  0  0
 30 23  1  6  0  0  0
 30 25  1  0  0  0  0
 30 24  1  0  0  0  0
 31 32  1  0  0  0  0
 32 33  1  0  0  0  0
 34 32  2  0  0  0  0
M  END
>  <MODEL>
3

>  <REMARK>
 VINA RESULT:      -8.8      4.331      9.517
  Name = 
  8 active torsions:
  status: ('A' for Active; 'I' for Inactive)
    1  A    between atoms: N_3  and  N_22
    2  A    between atoms: C_7  and  C_11
    3  A    between atoms: C_11  and  C_13
    4  A    between atoms: C_12  and  C_13
    5  A    between atoms: C_18  and  C_28
    6  A    between atoms: C_18  and  N_32
    7  A    between atoms: N_27  and  C_30
    8  A    between atoms: C_28  and  C_29
                            x       y       z     vdW  Elec       q    Type
                         _______ _______ _______ _____ _____    ______ ____

>  <TORSDO>
F 8

$$$$
=
 OpenBabel11042412163D

 34 37  0  0  1  0  0  0  0  0999 V2000
  187.2100  178.5310  140.1570 C   0  0  0  0  0  3  0  0  0  0  0  0
  183.5890  178.7670  143.1430 C   0  0  0  0  0  0  0  0  0  0  0  0
  184.9990  178.7860  143.1870 C   0  0  0  0  0  0  0  0  0  0  0  0
  187.1410  178.6490  141.6980 C   0  0  0  0  0  3  0  0  0  0  0  0
  183.6310  178.4750  140.7990 N   0  0  0  0  0  0  0  0  0  0  0  0
  182.9530  178.6110  141.9430 N   0  0  0  0  0  0  0  0  0  0  0  0
  185.6760  178.6420  141.9760 C   0  0  0  0  0  0  0  0  0  0  0  0
  182.6240  178.9360  144.6010 Cl  0  0  0  0  0  0  0  0  0  0  0  0
  184.9860  178.4840  140.8190 C   0  0  0  0  0  0  0  0  0  0  0  0
  185.8310  178.3680  139.6950 N   0  0  0  0  0  0  0  0  0  0  0  0
  185.7530  178.9200  144.4760 C   0  0  0  0  0  2  0  0  0  0  0  0
  186.0020  177.5600  145.1190 C   0  0  0  0  0  2  0  0  0  0  0  0
  188.3200  176.9190  144.2350 C   0  0  0  0  0  3  0  0  0  0  0  0
  189.3410  177.4040  146.7660 N   0  0  0  0  0  2  0  0  0  0  0  0
  187.4560  177.3320  145.3560 C   0  0  0  0  0  0  0  0  0  0  0  0
  187.9640  177.5620  146.5310 N   0  0  0  0  0  0  0  0  0  0  0  0
  189.6310  176.7700  144.4200 C   0  0  0  0  0  0  0  0  0  0  0  0
  190.1910  177.0050  145.7210 N   0  0  0  0  0  0  0  0  0  0  0  0
  190.4600  176.3950  143.3250 N   0  0  0  0  0  1  0  0  0  0  0  0
  191.8380  176.0370  147.2300 C   0  0  0  0  0  1  0  0  0  0  0  0
  191.6170  176.8510  145.9700 C   0  0  0  0  0  2  0  0  0  0  0  0
  185.3840  178.5970  138.3280 C   0  0  0  0  0  2  0  0  0  0  0  0
  185.2810  177.2870  137.5570 C   0  0  0  0  0  2  0  0  0  0  0  0
  187.4820  176.0930  137.3900 C   0  0  1  0  0  3  0  0  0  0  0  0
  187.2480  178.3620  136.4680 C   0  0  0  0  0  2  0  0  0  0  0  0
  187.5080  174.8800  136.7000 O   0  0  0  0  0  1  0  0  0  0  0  0
  188.7320  178.0940  136.6330 C   0  0  0  0  0  2  0  0  0  0  0  0
  189.8970  176.1850  137.6650 N   0  0  0  0  0  0  0  0  0  0  0  0
  188.7970  176.7630  137.2820 C   0  0  0  0  0  0  0  0  0  0  0  0
  186.5150  177.0430  136.6990 C   0  0  2  0  0  3  0  0  0  0  0  0
  191.1640  176.7940  137.6050 N   0  0  0  0  0  2  0  0  0  0  0  0
  192.3910  176.0760  137.7640 C   0  0  0  0  0  0  0  0  0  0  0  0
  193.5870  176.7730  137.8580 O   0  0  0  0  0  1  0  0  0  0  0  0
  192.4010  174.8160  137.7740 O   0  0  0  0  0  0  0  0  0  0  0  0
  1  4  2  0  0  0  0
  2  3  1  0  0  0  0
  2  8  1  0  0  0  0
  3 11  1  0  0  0  0
  4  7  1  0  0  0  0
  5  9  2  0  0  0  0
  5  6  1  0  0  0  0
  6  2  2  0  0  0  0
  7  3  2  0  0  0  0
  9  7  1  0  0  0  0
 10  1  1  0  0  0  0
 10  9  1  0  0  0  0
 11 12  1  0  0  0  0
 12 15  1  0  0  0  0
 13 17  2  0  0  0  0
 13 15  1  0  0  0  0
 15 16  2  0  0  0  0
 16 14  1  0  0  0  0
 17 18  1  0  0  0  0
 18 21  1  0  0  0  0
 18 14  1  0  0  0  0
 19 17  1  0  0  0  0
 21 20  1  0  0  0  0
 22 10  1  0  0  0  0
 23 22  1  0  0  0  0
 24 26  1  6  0  0  0
 25 27  1  0  0  0  0
 25 30  1  0  0  0  0
 27 29  1  0  0  0  0
 29 24  1  0  0  0  0
 29 28  2  0  0  0  0
 30 24  1  0  0  0  0
 30 23  1  1  0  0  0
 31 28  1  0  0  0  0
 31 32  1  0  0  0  0
 32 34  2  0  0  0  0
 32 33  1  0  0  0  0
M  END
>  <MODEL>
4

>  <REMARK>
 VINA RESULT:      -8.7      4.604      7.588
  Name = 
  8 active torsions:
  status: ('A' for Active; 'I' for Inactive)
    1  A    between atoms: N_3  and  N_22
    2  A    between atoms: C_7  and  C_11
    3  A    between atoms: C_11  and  C_13
    4  A    between atoms: C_12  and  C_13
    5  A    between atoms: C_18  and  C_28
    6  A    between atoms: C_18  and  N_32
    7  A    between atoms: N_27  and  C_30
    8  A    between atoms: C_28  and  C_29
                            x       y       z     vdW  Elec       q    Type
                         _______ _______ _______ _____ _____    ______ ____

>  <TORSDO>
F 8

$$$$
=
 OpenBabel11042412163D

 34 37  0  0  1  0  0  0  0  0999 V2000
  184.6730  178.5030  145.0680 C   0  0  0  0  0  3  0  0  0  0  0  0
  186.9290  178.5620  140.9450 C   0  0  0  0  0  0  0  0  0  0  0  0
  187.0970  178.0160  142.2360 C   0  0  0  0  0  0  0  0  0  0  0  0
  186.0120  177.8820  144.6080 C   0  0  0  0  0  3  0  0  0  0  0  0
  184.9310  179.6270  141.6180 N   0  0  0  0  0  0  0  0  0  0  0  0
  185.8450  179.3520  140.6830 N   0  0  0  0  0  0  0  0  0  0  0  0
  186.1250  178.3220  143.1890 C   0  0  0  0  0  0  0  0  0  0  0  0
  188.0860  178.2510  139.6610 Cl  0  0  0  0  0  0  0  0  0  0  0  0
  185.0760  179.1190  142.8660 C   0  0  0  0  0  0  0  0  0  0  0  0
  184.1880  179.3090  143.9460 N   0  0  0  0  0  0  0  0  0  0  0  0
  188.2820  177.1710  142.5930 C   0  0  0  0  0  2  0  0  0  0  0  0
  189.5100  178.0270  142.8860 C   0  0  0  0  0  2  0  0  0  0  0  0
  189.1930  177.5910  145.3910 C   0  0  0  0  0  3  0  0  0  0  0  0
  191.9160  177.1090  145.5790 N   0  0  0  0  0  2  0  0  0  0  0  0
  190.0860  177.7050  144.2230 C   0  0  0  0  0  0  0  0  0  0  0  0
  191.3580  177.4640  144.3380 N   0  0  0  0  0  0  0  0  0  0  0  0
  189.6870  177.2470  146.5800 C   0  0  0  0  0  0  0  0  0  0  0  0
  191.0960  176.9980  146.7130 N   0  0  0  0  0  0  0  0  0  0  0  0
  188.8140  177.1150  147.6950 N   0  0  0  0  0  1  0  0  0  0  0  0
  192.8020  175.6260  147.7770 C   0  0  0  0  0  1  0  0  0  0  0  0
  191.6800  176.6230  147.9920 C   0  0  0  0  0  2  0  0  0  0  0  0
  182.8120  179.7580  143.7840 C   0  0  0  0  0  2  0  0  0  0  0  0
  181.8330  178.6050  143.9700 C   0  0  0  0  0  2  0  0  0  0  0  0
  181.2780  178.9890  141.5520 C   0  0  1  0  0  3  0  0  0  0  0  0
  179.6990  179.7040  143.2980 C   0  0  0  0  0  2  0  0  0  0  0  0
  181.1980  177.8680  140.7240 O   0  0  0  0  0  1  0  0  0  0  0  0
  179.3330  180.4480  142.0280 C   0  0  0  0  0  2  0  0  0  0  0  0
  180.4720  180.5230  139.8460 N   0  0  0  0  0  0  0  0  0  0  0  0
  180.3770  180.0500  141.0540 C   0  0  0  0  0  0  0  0  0  0  0  0
  180.7250  178.6370  142.9260 C   0  0  2  0  0  3  0  0  0  0  0  0
  179.6550  181.5500  139.3400 N   0  0  0  0  0  2  0  0  0  0  0  0
  180.0880  182.4820  138.3450 C   0  0  0  0  0  0  0  0  0  0  0  0
  179.2830  183.5630  138.0200 O   0  0  0  0  0  1  0  0  0  0  0  0
  181.1730  182.3060  137.7290 O   0  0  0  0  0  0  0  0  0  0  0  0
  2  3  1  0  0  0  0
  3 11  1  0  0  0  0
  3  7  2  0  0  0  0
  4  1  2  0  0  0  0
  5  9  2  0  0  0  0
  6  2  2  0  0  0  0
  6  5  1  0  0  0  0
  7  4  1  0  0  0  0
  8  2  1  0  0  0  0
  9  7  1  0  0  0  0
  9 10  1  0  0  0  0
 10  1  1  0  0  0  0
 11 12  1  0  0  0  0
 12 15  1  0  0  0  0
 13 17  2  0  0  0  0
 14 18  1  0  0  0  0
 15 16  2  0  0  0  0
 15 13  1  0  0  0  0
 16 14  1  0  0  0  0
 17 18  1  0  0  0  0
 17 19  1  0  0  0  0
 18 21  1  0  0  0  0
 20 21  1  0  0  0  0
 22 10  1  0  0  0  0
 22 23  1  0  0  0  0
 24 26  1  6  0  0  0
 24 30  1  0  0  0  0
 27 25  1  0  0  0  0
 28 29  2  0  0  0  0
 29 24  1  0  0  0  0
 29 27  1  0  0  0  0
 30 25  1  0  0  0  0
 30 23  1  1  0  0  0
 31 28  1  0  0  0  0
 32 31  1  0  0  0  0
 33 32  1  0  0  0  0
 34 32  2  0  0  0  0
M  END
>  <MODEL>
5

>  <REMARK>
 VINA RESULT:      -8.6      2.353      3.787
  Name = 
  8 active torsions:
  status: ('A' for Active; 'I' for Inactive)
    1  A    between atoms: N_3  and  N_22
    2  A    between atoms: C_7  and  C_11
    3  A    between atoms: C_11  and  C_13
    4  A    between atoms: C_12  and  C_13
    5  A    between atoms: C_18  and  C_28
    6  A    between atoms: C_18  and  N_32
    7  A    between atoms: N_27  and  C_30
    8  A    between atoms: C_28  and  C_29
                            x       y       z     vdW  Elec       q    Type
                         _______ _______ _______ _____ _____    ______ ____

>  <TORSDO>
F 8

$$$$
=
 OpenBabel11042412163D

 34 37  0  0  1  0  0  0  0  0999 V2000
  184.3680  178.9840  142.0170 C   0  0  0  0  0  3  0  0  0  0  0  0
  188.2610  178.2070  139.5000 C   0  0  0  0  0  0  0  0  0  0  0  0
  187.8890  178.3650  140.8520 C   0  0  0  0  0  0  0  0  0  0  0  0
  185.8510  178.8140  142.4230 C   0  0  0  0  0  3  0  0  0  0  0  0
  186.0310  178.5690  138.8090 N   0  0  0  0  0  0  0  0  0  0  0  0
  187.3120  178.3160  138.5220 N   0  0  0  0  0  0  0  0  0  0  0  0
  186.5450  178.6280  141.1170 C   0  0  0  0  0  0  0  0  0  0  0  0
  189.9230  177.8770  139.0390 Cl  0  0  0  0  0  0  0  0  0  0  0  0
  185.6540  178.7300  140.1000 C   0  0  0  0  0  0  0  0  0  0  0  0
  184.3420  178.9840  140.5530 N   0  0  0  0  0  0  0  0  0  0  0  0
  188.8900  178.2910  141.9650 C   0  0  0  0  0  2  0  0  0  0  0  0
  188.9950  176.8760  142.5260 C   0  0  0  0  0  2  0  0  0  0  0  0
  188.8650  177.3020  145.0500 C   0  0  0  0  0  3  0  0  0  0  0  0
  191.4690  176.3780  145.2690 N   0  0  0  0  0  2  0  0  0  0  0  0
  189.6410  176.8750  143.8710 C   0  0  0  0  0  0  0  0  0  0  0  0
  190.8570  176.4370  144.0040 N   0  0  0  0  0  0  0  0  0  0  0  0
  189.4100  177.2490  146.2650 C   0  0  0  0  0  0  0  0  0  0  0  0
  190.7610  176.7840  146.4120 N   0  0  0  0  0  0  0  0  0  0  0  0
  188.6450  177.6400  147.3990 N   0  0  0  0  0  1  0  0  0  0  0  0
  192.4580  175.6270  147.7200 C   0  0  0  0  0  1  0  0  0  0  0  0
  191.3980  176.7120  147.7180 C   0  0  0  0  0  2  0  0  0  0  0  0
  183.1530  178.7390  139.7480 C   0  0  0  0  0  2  0  0  0  0  0  0
  181.8840  178.9320  140.5690 C   0  0  0  0  0  2  0  0  0  0  0  0
  181.2380  180.0410  138.4120 C   0  0  1  0  0  3  0  0  0  0  0  0
  179.9590  180.5110  140.4610 C   0  0  0  0  0  2  0  0  0  0  0  0
  180.8820  179.2160  137.3440 O   0  0  0  0  0  1  0  0  0  0  0  0
  179.6510  181.6210  139.4730 C   0  0  0  0  0  2  0  0  0  0  0  0
  180.6210  182.0910  137.2580 N   0  0  0  0  0  0  0  0  0  0  0  0
  180.5250  181.3330  138.3100 C   0  0  0  0  0  0  0  0  0  0  0  0
  180.7300  179.4290  139.7090 C   0  0  2  0  0  3  0  0  0  0  0  0
  179.9830  183.3380  137.1300 N   0  0  0  0  0  2  0  0  0  0  0  0
  180.6740  184.5880  137.2150 C   0  0  0  0  0  0  0  0  0  0  0  0
  179.9510  185.7710  137.2440 O   0  0  0  0  0  1  0  0  0  0  0  0
  181.9340  184.6270  137.2160 O   0  0  0  0  0  0  0  0  0  0  0  0
  1  4  2  0  0  0  0
  2  3  1  0  0  0  0
  3  7  2  0  0  0  0
  3 11  1  0  0  0  0
  5  9  2  0  0  0  0
  6  5  1  0  0  0  0
  6  2  2  0  0  0  0
  7  4  1  0  0  0  0
  8  2  1  0  0  0  0
  9 10  1  0  0  0  0
  9  7  1  0  0  0  0
 10  1  1  0  0  0  0
 11 12  1  0  0  0  0
 12 15  1  0  0  0  0
 13 17  2  0  0  0  0
 14 18  1  0  0  0  0
 15 16  2  0  0  0  0
 15 13  1  0  0  0  0
 16 14  1  0  0  0  0
 17 18  1  0  0  0  0
 17 19  1  0  0  0  0
 18 21  1  0  0  0  0
 21 20  1  0  0  0  0
 22 10  1  0  0  0  0
 22 23  1  0  0  0  0
 24 26  1  6  0  0  0
 24 30  1  0  0  0  0
 27 25  1  0  0  0  0
 28 29  2  0  0  0  0
 29 24  1  0  0  0  0
 29 27  1  0  0  0  0
 30 25  1  0  0  0  0
 30 23  1  1  0  0  0
 31 32  1  0  0  0  0
 31 28  1  0  0  0  0
 32 34  2  0  0  0  0
 32 33  1  0  0  0  0
M  END
>  <MODEL>
6

>  <REMARK>
 VINA RESULT:      -8.6      3.014      4.740
  Name = 
  8 active torsions:
  status: ('A' for Active; 'I' for Inactive)
    1  A    between atoms: N_3  and  N_22
    2  A    between atoms: C_7  and  C_11
    3  A    between atoms: C_11  and  C_13
    4  A    between atoms: C_12  and  C_13
    5  A    between atoms: C_18  and  C_28
    6  A    between atoms: C_18  and  N_32
    7  A    between atoms: N_27  and  C_30
    8  A    between atoms: C_28  and  C_29
                            x       y       z     vdW  Elec       q    Type
                         _______ _______ _______ _____ _____    ______ ____

>  <TORSDO>
F 8

$$$$
=
 OpenBabel11042412163D

 34 37  0  0  1  0  0  0  0  0999 V2000
  189.3070  176.8530  141.5380 C   0  0  0  0  0  3  0  0  0  0  0  0
  185.2640  178.8820  142.8110 C   0  0  0  0  0  0  0  0  0  0  0  0
  186.2060  177.9760  143.3430 C   0  0  0  0  0  0  0  0  0  0  0  0
  188.4420  176.7330  142.8140 C   0  0  0  0  0  3  0  0  0  0  0  0
  186.4840  179.0220  140.7930 N   0  0  0  0  0  0  0  0  0  0  0  0
  185.4390  179.3750  141.5480 N   0  0  0  0  0  0  0  0  0  0  0  0
  187.2860  177.6300  142.5300 C   0  0  0  0  0  0  0  0  0  0  0  0
  183.8610  179.3930  143.7360 Cl  0  0  0  0  0  0  0  0  0  0  0  0
  187.3990  178.1490  141.2820 C   0  0  0  0  0  0  0  0  0  0  0  0
  188.5560  177.7000  140.6100 N   0  0  0  0  0  0  0  0  0  0  0  0
  186.0510  177.3770  144.7070 C   0  0  0  0  0  2  0  0  0  0  0  0
  186.5740  178.3150  145.7910 C   0  0  0  0  0  2  0  0  0  0  0  0
  189.0930  177.9970  145.4460 C   0  0  0  0  0  3  0  0  0  0  0  0
  189.2550  177.0340  148.0400 N   0  0  0  0  0  2  0  0  0  0  0  0
  187.9000  177.8640  146.3020 C   0  0  0  0  0  0  0  0  0  0  0  0
  188.0070  177.4170  147.5180 N   0  0  0  0  0  0  0  0  0  0  0  0
  190.2930  177.6530  145.9120 C   0  0  0  0  0  0  0  0  0  0  0  0
  190.4110  177.1420  147.2490 N   0  0  0  0  0  0  0  0  0  0  0  0
  191.4420  177.8100  145.0860 N   0  0  0  0  0  1  0  0  0  0  0  0
  192.0510  175.3460  147.3480 C   0  0  0  0  0  1  0  0  0  0  0  0
  191.7000  176.7500  147.7980 C   0  0  0  0  0  2  0  0  0  0  0  0
  189.1330  178.3840  139.4620 C   0  0  0  0  0  2  0  0  0  0  0  0
  189.4600  177.4010  138.3440 C   0  0  0  0  0  2  0  0  0  0  0  0
  191.9040  177.0080  138.7630 C   0  0  1  0  0  3  0  0  0  0  0  0
  190.5220  175.2120  137.8080 C   0  0  0  0  0  2  0  0  0  0  0  0
  192.3620  177.1390  140.0750 O   0  0  0  0  0  1  0  0  0  0  0  0
  191.9710  174.8630  137.5250 C   0  0  0  0  0  2  0  0  0  0  0  0
  194.0240  176.1640  137.9230 N   0  0  0  0  0  0  0  0  0  0  0  0
  192.7360  176.0270  138.0330 C   0  0  0  0  0  0  0  0  0  0  0  0
  190.5130  176.3910  138.7770 C   0  0  2  0  0  3  0  0  0  0  0  0
  194.8490  175.2710  137.2160 N   0  0  0  0  0  2  0  0  0  0  0  0
  195.6120  174.2380  137.8460 C   0  0  0  0  0  0  0  0  0  0  0  0
  196.5270  173.5080  137.1010 O   0  0  0  0  0  0  0  0  0  0  0  0
  195.4290  173.9530  139.0600 O   0  0  0  0  0  1  0  0  0  0  0  0
  1  4  2  0  0  0  0
  2  3  1  0  0  0  0
  2  8  1  0  0  0  0
  3 11  1  0  0  0  0
  5  9  2  0  0  0  0
  5  6  1  0  0  0  0
  6  2  2  0  0  0  0
  7  4  1  0  0  0  0
  7  3  2  0  0  0  0
  9  7  1  0  0  0  0
 10  9  1  0  0  0  0
 10  1  1  0  0  0  0
 11 12  1  0  0  0  0
 12 15  1  0  0  0  0
 13 17  2  0  0  0  0
 13 15  1  0  0  0  0
 15 16  2  0  0  0  0
 16 14  1  0  0  0  0
 17 18  1  0  0  0  0
 18 21  1  0  0  0  0
 18 14  1  0  0  0  0
 19 17  1  0  0  0  0
 20 21  1  0  0  0  0
 22 10  1  0  0  0  0
 23 22  1  0  0  0  0
 24 30  1  0  0  0  0
 24 26  1  1  0  0  0
 25 30  1  0  0  0  0
 27 25  1  0  0  0  0
 27 29  1  0  0  0  0
 28 29  2  0  0  0  0
 29 24  1  0  0  0  0
 30 23  1  6  0  0  0
 31 32  1  0  0  0  0
 31 28  1  0  0  0  0
 32 34  1  0  0  0  0
 33 32  2  0  0  0  0
M  END
>  <MODEL>
7

>  <REMARK>
 VINA RESULT:      -8.5      5.145      9.549
  Name = 
  8 active torsions:
  status: ('A' for Active; 'I' for Inactive)
    1  A    between atoms: N_3  and  N_22
    2  A    between atoms: C_7  and  C_11
    3  A    between atoms: C_11  and  C_13
    4  A    between atoms: C_12  and  C_13
    5  A    between atoms: C_18  and  C_28
    6  A    between atoms: C_18  and  N_32
    7  A    between atoms: N_27  and  C_30
    8  A    between atoms: C_28  and  C_29
                            x       y       z     vdW  Elec       q    Type
                         _______ _______ _______ _____ _____    ______ ____

>  <TORSDO>
F 8

$$$$
=
 OpenBabel11042412163D

 34 37  0  0  1  0  0  0  0  0999 V2000
  190.1260  177.4460  140.2530 C   0  0  0  0  0  3  0  0  0  0  0  0
  185.6940  178.6400  139.2390 C   0  0  0  0  0  0  0  0  0  0  0  0
  186.5570  178.6250  140.3550 C   0  0  0  0  0  0  0  0  0  0  0  0
  188.9740  178.0010  141.1240 C   0  0  0  0  0  3  0  0  0  0  0  0
  187.3790  177.6900  137.8820 N   0  0  0  0  0  0  0  0  0  0  0  0
  186.1410  178.1690  138.0350 N   0  0  0  0  0  0  0  0  0  0  0  0
  187.8430  178.1210  140.1610 C   0  0  0  0  0  0  0  0  0  0  0  0
  184.0520  179.2480  139.3570 Cl  0  0  0  0  0  0  0  0  0  0  0  0
  188.2220  177.6620  138.9420 C   0  0  0  0  0  0  0  0  0  0  0  0
  189.5560  177.2030  138.9270 N   0  0  0  0  0  0  0  0  0  0  0  0
  186.1150  179.0970  141.7070 C   0  0  0  0  0  2  0  0  0  0  0  0
  185.5400  177.9530  142.5360 C   0  0  0  0  0  2  0  0  0  0  0  0
  185.4840  178.5170  145.0350 C   0  0  0  0  0  3  0  0  0  0  0  0
  187.8650  177.1300  145.3290 N   0  0  0  0  0  2  0  0  0  0  0  0
  186.1680  177.8950  143.8870 C   0  0  0  0  0  0  0  0  0  0  0  0
  187.2800  177.2420  144.0560 N   0  0  0  0  0  0  0  0  0  0  0  0
  186.0050  178.4220  146.2580 C   0  0  0  0  0  0  0  0  0  0  0  0
  187.2430  177.7170  146.4430 N   0  0  0  0  0  0  0  0  0  0  0  0
  185.3240  179.0050  147.3620 N   0  0  0  0  0  1  0  0  0  0  0  0
  189.3620  177.6200  147.6370 C   0  0  0  0  0  1  0  0  0  0  0  0
  187.8510  177.5900  147.7590 C   0  0  0  0  0  2  0  0  0  0  0  0
  190.3380  177.0470  137.7070 C   0  0  0  0  0  2  0  0  0  0  0  0
  190.6180  175.5770  137.4190 C   0  0  0  0  0  2  0  0  0  0  0  0
  192.9910  176.3890  137.3050 C   0  0  1  0  0  3  0  0  0  0  0  0
  192.4760  174.0370  136.7970 C   0  0  0  0  0  2  0  0  0  0  0  0
  193.5480  176.9170  138.4700 O   0  0  0  0  0  1  0  0  0  0  0  0
  193.8480  174.3330  136.2200 C   0  0  0  0  0  2  0  0  0  0  0  0
  195.0830  176.4580  136.0660 N   0  0  0  0  0  0  0  0  0  0  0  0
  194.0490  175.7800  136.4700 C   0  0  0  0  0  0  0  0  0  0  0  0
  192.0790  175.2260  137.6680 C   0  0  2  0  0  3  0  0  0  0  0  0
  196.0980  175.9270  135.2500 N   0  0  0  0  0  2  0  0  0  0  0  0
  197.4100  175.6160  135.7280 C   0  0  0  0  0  0  0  0  0  0  0  0
  198.4010  175.2540  134.8280 O   0  0  0  0  0  0  0  0  0  0  0  0
  197.6620  175.6230  136.9630 O   0  0  0  0  0  1  0  0  0  0  0  0
  1  4  2  0  0  0  0
  2  8  1  0  0  0  0
  2  3  1  0  0  0  0
  3 11  1  0  0  0  0
  5  6  1  0  0  0  0
  5  9  2  0  0  0  0
  6  2  2  0  0  0  0
  7  3  2  0  0  0  0
  7  4  1  0  0  0  0
  9  7  1  0  0  0  0
 10  9  1  0  0  0  0
 10  1  1  0  0  0  0
 11 12  1  0  0  0  0
 12 15  1  0  0  0  0
 13 17  2  0  0  0  0
 14 18  1  0  0  0  0
 15 16  2  0  0  0  0
 15 13  1  0  0  0  0
 16 14  1  0  0  0  0
 17 18  1  0  0  0  0
 17 19  1  0  0  0  0
 18 21  1  0  0  0  0
 20 21  1  0  0  0  0
 22 10  1  0  0  0  0
 23 22  1  0  0  0  0
 24 30  1  0  0  0  0
 24 26  1  1  0  0  0
 25 30  1  0  0  0  0
 27 29  1  0  0  0  0
 27 25  1  0  0  0  0
 28 29  2  0  0  0  0
 29 24  1  0  0  0  0
 30 23  1  6  0  0  0
 31 32  1  0  0  0  0
 31 28  1  0  0  0  0
 32 34  1  0  0  0  0
 33 32  2  0  0  0  0
M  END
>  <MODEL>
8

>  <REMARK>
 VINA RESULT:      -8.5      6.027     10.998
  Name = 
  8 active torsions:
  status: ('A' for Active; 'I' for Inactive)
    1  A    between atoms: N_3  and  N_22
    2  A    between atoms: C_7  and  C_11
    3  A    between atoms: C_11  and  C_13
    4  A    between atoms: C_12  and  C_13
    5  A    between atoms: C_18  and  C_28
    6  A    between atoms: C_18  and  N_32
    7  A    between atoms: N_27  and  C_30
    8  A    between atoms: C_28  and  C_29
                            x       y       z     vdW  Elec       q    Type
                         _______ _______ _______ _____ _____    ______ ____

>  <TORSDO>
F 8

$$$$
=
 OpenBabel11042412163D

 34 37  0  0  1  0  0  0  0  0999 V2000
  189.4220  177.0540  141.0920 C   0  0  0  0  0  3  0  0  0  0  0  0
  185.3530  178.8220  142.6410 C   0  0  0  0  0  0  0  0  0  0  0  0
  186.3690  177.9530  143.0930 C   0  0  0  0  0  0  0  0  0  0  0  0
  188.6350  176.8490  142.4070 C   0  0  0  0  0  3  0  0  0  0  0  0
  186.4540  179.0890  140.5680 N   0  0  0  0  0  0  0  0  0  0  0  0
  185.4330  179.3610  141.3880 N   0  0  0  0  0  0  0  0  0  0  0  0
  187.4200  177.6900  142.2140 C   0  0  0  0  0  0  0  0  0  0  0  0
  183.9770  179.2280  143.6540 Cl  0  0  0  0  0  0  0  0  0  0  0  0
  187.4370  178.2520  140.9790 C   0  0  0  0  0  0  0  0  0  0  0  0
  188.5780  177.8870  140.2340 N   0  0  0  0  0  0  0  0  0  0  0  0
  186.3180  177.3050  144.4430 C   0  0  0  0  0  2  0  0  0  0  0  0
  186.8050  178.2530  145.5340 C   0  0  0  0  0  2  0  0  0  0  0  0
  189.3260  177.8570  145.2960 C   0  0  0  0  0  3  0  0  0  0  0  0
  189.3690  177.0050  147.9340 N   0  0  0  0  0  2  0  0  0  0  0  0
  188.1000  177.7910  146.1130 C   0  0  0  0  0  0  0  0  0  0  0  0
  188.1510  177.3960  147.3510 N   0  0  0  0  0  0  0  0  0  0  0  0
  190.4990  177.5040  145.8210 C   0  0  0  0  0  0  0  0  0  0  0  0
  190.5550  177.0490  147.1820 N   0  0  0  0  0  0  0  0  0  0  0  0
  191.6800  177.5940  145.0320 N   0  0  0  0  0  1  0  0  0  0  0  0
  192.1900  175.2530  147.3420 C   0  0  0  0  0  1  0  0  0  0  0  0
  191.8130  176.6500  147.7950 C   0  0  0  0  0  2  0  0  0  0  0  0
  189.0570  178.6360  139.0800 C   0  0  0  0  0  2  0  0  0  0  0  0
  189.7430  177.7180  138.0750 C   0  0  0  0  0  2  0  0  0  0  0  0
  187.4000  177.8380  137.1840 C   0  0  1  0  0  3  0  0  0  0  0  0
  188.5470  175.6670  137.3210 C   0  0  0  0  0  2  0  0  0  0  0  0
  187.1800  178.6280  136.0540 O   0  0  0  0  0  1  0  0  0  0  0  0
  187.0620  175.3840  137.1930 C   0  0  0  0  0  2  0  0  0  0  0  0
  185.1440  176.9290  137.2010 N   0  0  0  0  0  0  0  0  0  0  0  0
  186.4280  176.7240  137.2180 C   0  0  0  0  0  0  0  0  0  0  0  0
  188.7550  177.1570  137.0630 C   0  0  2  0  0  3  0  0  0  0  0  0
  184.1860  175.9010  137.2600 N   0  0  0  0  0  2  0  0  0  0  0  0
  182.8710  176.0810  137.7940 C   0  0  0  0  0  0  0  0  0  0  0  0
  182.0440  174.9810  137.9680 O   0  0  0  0  0  0  0  0  0  0  0  0
  182.4400  177.2340  138.0660 O   0  0  0  0  0  1  0  0  0  0  0  0
  1  4  2  0  0  0  0
  2  3  1  0  0  0  0
  2  8  1  0  0  0  0
  3 11  1  0  0  0  0
  5  9  2  0  0  0  0
  5  6  1  0  0  0  0
  6  2  2  0  0  0  0
  7  4  1  0  0  0  0
  7  3  2  0  0  0  0
  9  7  1  0  0  0  0
 10  9  1  0  0  0  0
 10  1  1  0  0  0  0
 11 12  1  0  0  0  0
 12 15  1  0  0  0  0
 13 17  2  0  0  0  0
 13 15  1  0  0  0  0
 15 16  2  0  0  0  0
 16 14  1  0  0  0  0
 17 18  1  0  0  0  0
 18 21  1  0  0  0  0
 18 14  1  0  0  0  0
 19 17  1  0  0  0  0
 20 21  1  0  0  0  0
 22 10  1  0  0  0  0
 23 22  1  0  0  0  0
 24 26  1  6  0  0  0
 24 29  1  0  0  0  0
 27 29  1  0  0  0  0
 27 25  1  0  0  0  0
 28 29  2  0  0  0  0
 28 31  1  0  0  0  0
 30 24  1  0  0  0  0
 30 25  1  0  0  0  0
 30 23  1  1  0  0  0
 31 32  1  0  0  0  0
 32 33  2  0  0  0  0
 32 34  1  0  0  0  0
M  END
>  <MODEL>
9

>  <REMARK>
 VINA RESULT:      -8.5      3.860      6.663
  Name = 
  8 active torsions:
  status: ('A' for Active; 'I' for Inactive)
    1  A    between atoms: N_3  and  N_22
    2  A    between atoms: C_7  and  C_11
    3  A    between atoms: C_11  and  C_13
    4  A    between atoms: C_12  and  C_13
    5  A    between atoms: C_18  and  C_28
    6  A    between atoms: C_18  and  N_32
    7  A    between atoms: N_27  and  C_30
    8  A    between atoms: C_28  and  C_29
                            x       y       z     vdW  Elec       q    Type
                         _______ _______ _______ _____ _____    ______ ____

>  <TORSDO>
F 8

$$$$
