=
 OpenBabel11042409503D

 33 36  0  0  1  0  0  0  0  0999 V2000
  190.7190  177.7640  142.4320 N   0  0  0  0  0  2  0  0  0  0  0  0
  190.9890  177.5740  141.0380 C   0  0  0  0  0  0  0  0  0  0  0  0
  188.7210  178.4870  137.7460 S   0  0  0  0  0  0  0  0  0  0  0  0
  184.6060  178.8170  140.8160 F   0  0  0  0  0  0  0  0  0  0  0  0
  185.9290  178.5680  140.6610 C   0  0  0  0  0  0  0  0  0  0  0  0
  188.5950  178.0630  140.3630 C   0  0  0  0  0  0  0  0  0  0  0  0
  186.7090  178.1930  141.7660 C   0  0  0  0  0  3  0  0  0  0  0  0
  187.8310  178.4210  139.2850 C   0  0  0  0  0  0  0  0  0  0  0  0
  189.9560  177.7850  140.0600 N   0  0  0  0  0  0  0  0  0  0  0  0
  190.2370  177.8980  138.6230 C   0  0  1  0  0  3  0  0  0  0  0  0
  192.1470  177.2370  140.6650 O   0  0  0  0  0  0  0  0  0  0  0  0
  188.0370  177.9390  141.5960 N   0  0  0  0  0  0  0  0  0  0  0  0
  186.5060  178.6750  139.4300 N   0  0  0  0  0  0  0  0  0  0  0  0
  190.7060  176.5930  138.0550 C   0  0  0  0  0  0  0  0  0  0  0  0
  189.8050  175.5660  137.7420 C   0  0  0  0  0  3  0  0  0  0  0  0
  190.2750  174.3480  137.2470 C   0  0  0  0  0  3  0  0  0  0  0  0
  191.6530  174.1410  137.0560 C   0  0  0  0  0  0  0  0  0  0  0  0
  192.0740  176.3940  137.8560 C   0  0  0  0  0  3  0  0  0  0  0  0
  192.5540  175.1720  137.3630 C   0  0  0  0  0  0  0  0  0  0  0  0
  191.9050  172.4640  135.2530 C   0  0  0  0  0  1  0  0  0  0  0  0
  192.1510  172.9270  136.5740 O   0  0  0  0  0  0  0  0  0  0  0  0
  193.9280  174.9650  137.2030 O   0  0  0  0  0  0  0  0  0  0  0  0
  194.8040  175.3060  138.1580 O   0  0  0  0  0  0  0  0  0  0  0  0
  195.3580  174.0910  138.5740 C   0  0  0  0  0  1  0  0  0  0  0  0
  191.7140  177.4940  143.4620 C   0  0  0  0  0  2  0  0  0  0  0  0
  189.8060  176.8450  147.2460 C   0  0  0  0  0  3  0  0  0  0  0  0
  191.7510  176.6560  145.8140 C   0  0  0  0  0  3  0  0  0  0  0  0
  189.7120  177.6490  144.9620 C   0  0  0  0  0  3  0  0  0  0  0  0
  191.0380  177.2460  144.7640 C   0  0  0  0  0  0  0  0  0  0  0  0
  187.7830  177.8530  146.4020 O   0  0  0  0  0  1  0  0  0  0  0  0
  191.8220  175.8710  148.0640 F   0  0  0  0  0  0  0  0  0  0  0  0
  189.0970  177.4500  146.2040 C   0  0  0  0  0  0  0  0  0  0  0  0
  191.1350  176.4520  147.0520 C   0  0  0  0  0  0  0  0  0  0  0  0
  1 25  1  0  0  0  0
  2  1  1  0  0  0  0
  3 10  1  0  0  0  0
  3  8  1  0  0  0  0
  5  4  1  0  0  0  0
  5  7  1  0  0  0  0
  6 12  1  0  0  0  0
  8 13  1  0  0  0  0
  8  6  2  0  0  0  0
  9  6  1  0  0  0  0
  9  2  1  0  0  0  0
 10 14  1  6  0  0  0
 10  9  1  0  0  0  0
 11  2  2  0  0  0  0
 12  7  2  0  0  0  0
 13  5  2  0  0  0  0
 15 14  2  0  0  0  0
 16 15  1  0  0  0  0
 17 16  2  0  0  0  0
 17 19  1  0  0  0  0
 18 14  1  0  0  0  0
 19 18  2  0  0  0  0
 20 21  1  0  0  0  0
 21 17  1  0  0  0  0
 22 19  1  0  0  0  0
 22 23  1  0  0  0  0
 23 24  1  0  0  0  0
 25 29  1  0  0  0  0
 27 33  2  0  0  0  0
 28 32  1  0  0  0  0
 29 28  2  0  0  0  0
 29 27  1  0  0  0  0
 32 30  1  0  0  0  0
 32 26  2  0  0  0  0
 33 26  1  0  0  0  0
 33 31  1  0  0  0  0
M  END
>  <MODEL>
1

>  <REMARK>
 VINA RESULT:      -8.6      0.000      0.000
  Name = 
  6 active torsions:
  status: ('A' for Active; 'I' for Inactive)
    1  A    between atoms: N_1  and  C_12
    2  A    between atoms: C_3  and  C_26
    3  A    between atoms: O_10  and  O_29
    4  A    between atoms: C_12  and  C_14
    5  A    between atoms: C_21  and  O_33
    6  A    between atoms: C_27  and  O_29
                            x       y       z     vdW  Elec       q    Type
                         _______ _______ _______ _____ _____    ______ ____

>  <TORSDO>
F 6

$$$$
=
 OpenBabel11042409503D

 33 36  0  0  1  0  0  0  0  0999 V2000
  190.6870  177.7910  142.2560 N   0  0  0  0  0  2  0  0  0  0  0  0
  190.9250  177.5830  140.8590 C   0  0  0  0  0  0  0  0  0  0  0  0
  188.5890  178.4740  137.6080 S   0  0  0  0  0  0  0  0  0  0  0  0
  184.5470  178.8690  140.7670 F   0  0  0  0  0  0  0  0  0  0  0  0
  185.8640  178.6090  140.5840 C   0  0  0  0  0  0  0  0  0  0  0  0
  188.5200  178.0820  140.2330 C   0  0  0  0  0  0  0  0  0  0  0  0
  186.6670  178.2410  141.6760 C   0  0  0  0  0  3  0  0  0  0  0  0
  187.7340  178.4320  139.1680 C   0  0  0  0  0  0  0  0  0  0  0  0
  189.8720  177.7900  139.9020 N   0  0  0  0  0  0  0  0  0  0  0  0
  190.1200  177.8840  138.4570 C   0  0  1  0  0  3  0  0  0  0  0  0
  192.0720  177.2340  140.4640 O   0  0  0  0  0  0  0  0  0  0  0  0
  187.9890  177.9750  141.4790 N   0  0  0  0  0  0  0  0  0  0  0  0
  186.4150  178.6980  139.3400 N   0  0  0  0  0  0  0  0  0  0  0  0
  190.5670  176.5700  137.8940 C   0  0  0  0  0  0  0  0  0  0  0  0
  189.6780  175.4970  137.7500 C   0  0  0  0  0  3  0  0  0  0  0  0
  190.1320  174.2720  137.2540 C   0  0  0  0  0  3  0  0  0  0  0  0
  191.4810  174.1060  136.8960 C   0  0  0  0  0  0  0  0  0  0  0  0
  191.9060  176.4100  137.5280 C   0  0  0  0  0  3  0  0  0  0  0  0
  192.3700  175.1830  137.0340 C   0  0  0  0  0  0  0  0  0  0  0  0
  191.5600  172.3420  135.1610 C   0  0  0  0  0  1  0  0  0  0  0  0
  191.9640  172.8870  136.4100 O   0  0  0  0  0  0  0  0  0  0  0  0
  193.7190  175.0170  136.7060 O   0  0  0  0  0  0  0  0  0  0  0  0
  194.6960  175.4030  137.5380 O   0  0  0  0  0  0  0  0  0  0  0  0
  195.0490  174.2390  138.2270 C   0  0  0  0  0  1  0  0  0  0  0  0
  191.7040  177.5250  143.2660 C   0  0  0  0  0  2  0  0  0  0  0  0
  189.8110  177.0090  147.0790 C   0  0  0  0  0  3  0  0  0  0  0  0
  189.7480  177.8090  144.7930 C   0  0  0  0  0  3  0  0  0  0  0  0
  191.7450  176.7330  145.6450 C   0  0  0  0  0  3  0  0  0  0  0  0
  191.0620  177.3680  144.6000 C   0  0  0  0  0  0  0  0  0  0  0  0
  191.7920  175.9190  147.9180 O   0  0  0  0  0  1  0  0  0  0  0  0
  187.8570  178.0720  146.2210 F   0  0  0  0  0  0  0  0  0  0  0  0
  191.1170  176.5520  146.8830 C   0  0  0  0  0  0  0  0  0  0  0  0
  189.1240  177.6340  146.0320 C   0  0  0  0  0  0  0  0  0  0  0  0
  1 25  1  0  0  0  0
  2  1  1  0  0  0  0
  3 10  1  0  0  0  0
  3  8  1  0  0  0  0
  5  4  1  0  0  0  0
  5  7  1  0  0  0  0
  6 12  1  0  0  0  0
  8 13  1  0  0  0  0
  8  6  2  0  0  0  0
  9  6  1  0  0  0  0
  9  2  1  0  0  0  0
 10 14  1  6  0  0  0
 10  9  1  0  0  0  0
 11  2  2  0  0  0  0
 12  7  2  0  0  0  0
 13  5  2  0  0  0  0
 15 14  1  0  0  0  0
 16 15  2  0  0  0  0
 17 19  2  0  0  0  0
 17 16  1  0  0  0  0
 18 14  2  0  0  0  0
 19 18  1  0  0  0  0
 20 21  1  0  0  0  0
 21 17  1  0  0  0  0
 22 19  1  0  0  0  0
 22 23  1  0  0  0  0
 23 24  1  0  0  0  0
 25 29  1  0  0  0  0
 27 33  1  0  0  0  0
 28 32  2  0  0  0  0
 29 27  2  0  0  0  0
 29 28  1  0  0  0  0
 32 26  1  0  0  0  0
 32 30  1  0  0  0  0
 33 31  1  0  0  0  0
 33 26  2  0  0  0  0
M  END
>  <MODEL>
2

>  <REMARK>
 VINA RESULT:      -8.5      1.210      1.475
  Name = 
  6 active torsions:
  status: ('A' for Active; 'I' for Inactive)
    1  A    between atoms: N_1  and  C_12
    2  A    between atoms: C_3  and  C_26
    3  A    between atoms: O_10  and  O_29
    4  A    between atoms: C_12  and  C_14
    5  A    between atoms: C_21  and  O_33
    6  A    between atoms: C_27  and  O_29
                            x       y       z     vdW  Elec       q    Type
                         _______ _______ _______ _____ _____    ______ ____

>  <TORSDO>
F 6

$$$$
=
 OpenBabel11042409503D

 33 36  0  0  1  0  0  0  0  0999 V2000
  190.6650  177.7640  142.4310 N   0  0  0  0  0  2  0  0  0  0  0  0
  190.9090  177.5450  141.0360 C   0  0  0  0  0  0  0  0  0  0  0  0
  188.6080  178.4520  137.7650 S   0  0  0  0  0  0  0  0  0  0  0  0
  184.5510  178.9190  140.8930 F   0  0  0  0  0  0  0  0  0  0  0  0
  185.8660  178.6400  140.7210 C   0  0  0  0  0  0  0  0  0  0  0  0
  188.5160  178.0740  140.3910 C   0  0  0  0  0  0  0  0  0  0  0  0
  186.6550  178.2660  141.8200 C   0  0  0  0  0  3  0  0  0  0  0  0
  187.7420  178.4300  139.3190 C   0  0  0  0  0  0  0  0  0  0  0  0
  189.8660  177.7620  140.0710 N   0  0  0  0  0  0  0  0  0  0  0  0
  190.1260  177.8450  138.6280 C   0  0  1  0  0  3  0  0  0  0  0  0
  192.0540  177.1780  140.6520 O   0  0  0  0  0  0  0  0  0  0  0  0
  187.9750  177.9820  141.6340 N   0  0  0  0  0  0  0  0  0  0  0  0
  186.4260  178.7140  139.4800 N   0  0  0  0  0  0  0  0  0  0  0  0
  190.5590  176.5220  138.0750 C   0  0  0  0  0  0  0  0  0  0  0  0
  191.9100  176.2350  137.8410 C   0  0  0  0  0  3  0  0  0  0  0  0
  192.2810  175.0050  137.2920 C   0  0  0  0  0  3  0  0  0  0  0  0
  191.3040  174.0460  136.9720 C   0  0  0  0  0  0  0  0  0  0  0  0
  189.5870  175.5660  137.7680 C   0  0  0  0  0  3  0  0  0  0  0  0
  189.9510  174.3310  137.2130 C   0  0  0  0  0  0  0  0  0  0  0  0
  192.9730  172.4870  136.0170 C   0  0  0  0  0  1  0  0  0  0  0  0
  191.6470  172.8120  136.4090 O   0  0  0  0  0  0  0  0  0  0  0  0
  188.9710  173.3930  136.8710 O   0  0  0  0  0  0  0  0  0  0  0  0
  187.7350  173.7680  136.5160 O   0  0  0  0  0  0  0  0  0  0  0  0
  186.8950  172.8420  137.1410 C   0  0  0  0  0  1  0  0  0  0  0  0
  191.6710  177.4900  143.4490 C   0  0  0  0  0  2  0  0  0  0  0  0
  189.8030  176.8670  147.2590 C   0  0  0  0  0  3  0  0  0  0  0  0
  191.7290  176.6570  145.8030 C   0  0  0  0  0  3  0  0  0  0  0  0
  189.6890  177.6670  144.9740 C   0  0  0  0  0  3  0  0  0  0  0  0
  191.0090  177.2520  144.7610 C   0  0  0  0  0  0  0  0  0  0  0  0
  187.7800  177.8920  146.4380 O   0  0  0  0  0  1  0  0  0  0  0  0
  191.8210  175.8760  148.0540 F   0  0  0  0  0  0  0  0  0  0  0  0
  189.0880  177.4760  146.2240 C   0  0  0  0  0  0  0  0  0  0  0  0
  191.1260  176.4610  147.0490 C   0  0  0  0  0  0  0  0  0  0  0  0
  1 25  1  0  0  0  0
  2  1  1  0  0  0  0
  3 10  1  0  0  0  0
  3  8  1  0  0  0  0
  5  4  1  0  0  0  0
  5  7  1  0  0  0  0
  6 12  1  0  0  0  0
  8 13  1  0  0  0  0
  8  6  2  0  0  0  0
  9  6  1  0  0  0  0
  9  2  1  0  0  0  0
 10 14  1  6  0  0  0
 10  9  1  0  0  0  0
 11  2  2  0  0  0  0
 12  7  2  0  0  0  0
 13  5  2  0  0  0  0
 15 14  1  0  0  0  0
 16 15  2  0  0  0  0
 17 19  2  0  0  0  0
 17 16  1  0  0  0  0
 18 14  2  0  0  0  0
 19 18  1  0  0  0  0
 20 21  1  0  0  0  0
 21 17  1  0  0  0  0
 22 19  1  0  0  0  0
 23 22  1  0  0  0  0
 23 24  1  0  0  0  0
 25 29  1  0  0  0  0
 27 33  2  0  0  0  0
 28 32  1  0  0  0  0
 29 28  2  0  0  0  0
 29 27  1  0  0  0  0
 32 30  1  0  0  0  0
 32 26  2  0  0  0  0
 33 26  1  0  0  0  0
 33 31  1  0  0  0  0
M  END
>  <MODEL>
3

>  <REMARK>
 VINA RESULT:      -8.4      1.193      2.358
  Name = 
  6 active torsions:
  status: ('A' for Active; 'I' for Inactive)
    1  A    between atoms: N_1  and  C_12
    2  A    between atoms: C_3  and  C_26
    3  A    between atoms: O_10  and  O_29
    4  A    between atoms: C_12  and  C_14
    5  A    between atoms: C_21  and  O_33
    6  A    between atoms: C_27  and  O_29
                            x       y       z     vdW  Elec       q    Type
                         _______ _______ _______ _____ _____    ______ ____

>  <TORSDO>
F 6

$$$$
=
 OpenBabel11042409503D

 33 36  0  0  1  0  0  0  0  0999 V2000
  190.3850  177.5850  142.0730 N   0  0  0  0  0  2  0  0  0  0  0  0
  190.5560  177.3950  140.6640 C   0  0  0  0  0  0  0  0  0  0  0  0
  188.1640  178.5150  137.5260 S   0  0  0  0  0  0  0  0  0  0  0  0
  184.2770  179.0950  140.8470 F   0  0  0  0  0  0  0  0  0  0  0  0
  185.5670  178.7550  140.6080 C   0  0  0  0  0  0  0  0  0  0  0  0
  188.1670  178.0640  140.1420 C   0  0  0  0  0  0  0  0  0  0  0  0
  186.3830  178.3090  141.6590 C   0  0  0  0  0  3  0  0  0  0  0  0
  187.3660  178.4910  139.1170 C   0  0  0  0  0  0  0  0  0  0  0  0
  189.4830  177.6940  139.7530 N   0  0  0  0  0  0  0  0  0  0  0  0
  189.6840  177.8060  138.3020 C   0  0  1  0  0  3  0  0  0  0  0  0
  191.6610  176.9820  140.2170 O   0  0  0  0  0  0  0  0  0  0  0  0
  187.6770  177.9630  141.4060 N   0  0  0  0  0  0  0  0  0  0  0  0
  186.0750  178.8370  139.3450 N   0  0  0  0  0  0  0  0  0  0  0  0
  190.0220  176.4800  137.6940 C   0  0  0  0  0  0  0  0  0  0  0  0
  191.3130  176.1980  137.2270 C   0  0  0  0  0  3  0  0  0  0  0  0
  191.5900  174.9650  136.6330 C   0  0  0  0  0  3  0  0  0  0  0  0
  190.5790  173.9960  136.5000 C   0  0  0  0  0  0  0  0  0  0  0  0
  189.0190  175.5150  137.5730 C   0  0  0  0  0  3  0  0  0  0  0  0
  189.2880  174.2760  136.9740 C   0  0  0  0  0  0  0  0  0  0  0  0
  192.0790  172.4220  135.3160 C   0  0  0  0  0  1  0  0  0  0  0  0
  190.8270  172.7590  135.8980 O   0  0  0  0  0  0  0  0  0  0  0  0
  188.2710  173.3290  136.8200 O   0  0  0  0  0  0  0  0  0  0  0  0
  186.9960  173.6940  136.6270 O   0  0  0  0  0  0  0  0  0  0  0  0
  186.2570  172.8290  137.4390 C   0  0  0  0  0  1  0  0  0  0  0  0
  191.4190  177.2290  143.0370 C   0  0  0  0  0  2  0  0  0  0  0  0
  189.7250  177.0240  146.9710 C   0  0  0  0  0  3  0  0  0  0  0  0
  189.4490  177.2290  144.5730 C   0  0  0  0  0  3  0  0  0  0  0  0
  191.6690  177.0460  145.5250 C   0  0  0  0  0  3  0  0  0  0  0  0
  190.8380  177.1850  144.4070 C   0  0  0  0  0  0  0  0  0  0  0  0
  191.9350  176.8200  147.9150 O   0  0  0  0  0  1  0  0  0  0  0  0
  187.5490  177.2070  146.0130 F   0  0  0  0  0  0  0  0  0  0  0  0
  191.1120  176.9630  146.8060 C   0  0  0  0  0  0  0  0  0  0  0  0
  188.8930  177.1530  145.8530 C   0  0  0  0  0  0  0  0  0  0  0  0
  1 25  1  0  0  0  0
  2  1  1  0  0  0  0
  3 10  1  0  0  0  0
  3  8  1  0  0  0  0
  5  4  1  0  0  0  0
  5  7  1  0  0  0  0
  6 12  1  0  0  0  0
  8 13  1  0  0  0  0
  8  6  2  0  0  0  0
  9  6  1  0  0  0  0
  9  2  1  0  0  0  0
 10 14  1  6  0  0  0
 10  9  1  0  0  0  0
 11  2  2  0  0  0  0
 12  7  2  0  0  0  0
 13  5  2  0  0  0  0
 15 14  2  0  0  0  0
 16 15  1  0  0  0  0
 17 16  2  0  0  0  0
 17 19  1  0  0  0  0
 18 14  1  0  0  0  0
 19 18  2  0  0  0  0
 20 21  1  0  0  0  0
 21 17  1  0  0  0  0
 22 19  1  0  0  0  0
 23 22  1  0  0  0  0
 23 24  1  0  0  0  0
 25 29  1  0  0  0  0
 27 33  1  0  0  0  0
 28 32  2  0  0  0  0
 29 27  2  0  0  0  0
 29 28  1  0  0  0  0
 32 26  1  0  0  0  0
 32 30  1  0  0  0  0
 33 31  1  0  0  0  0
 33 26  2  0  0  0  0
M  END
>  <MODEL>
4

>  <REMARK>
 VINA RESULT:      -8.1      1.894      2.966
  Name = 
  6 active torsions:
  status: ('A' for Active; 'I' for Inactive)
    1  A    between atoms: N_1  and  C_12
    2  A    between atoms: C_3  and  C_26
    3  A    between atoms: O_10  and  O_29
    4  A    between atoms: C_12  and  C_14
    5  A    between atoms: C_21  and  O_33
    6  A    between atoms: C_27  and  O_29
                            x       y       z     vdW  Elec       q    Type
                         _______ _______ _______ _____ _____    ______ ____

>  <TORSDO>
F 6

$$$$
=
 OpenBabel11042409503D

 33 36  0  0  1  0  0  0  0  0999 V2000
  185.4280  178.2590  142.7030 N   0  0  0  0  0  2  0  0  0  0  0  0
  184.3610  178.3080  141.7490 C   0  0  0  0  0  0  0  0  0  0  0  0
  184.3970  177.6910  137.6940 S   0  0  0  0  0  0  0  0  0  0  0  0
  189.4930  178.3920  137.7490 F   0  0  0  0  0  0  0  0  0  0  0  0
  188.3130  178.3540  138.4140 C   0  0  0  0  0  0  0  0  0  0  0  0
  185.9440  178.2830  139.7690 C   0  0  0  0  0  0  0  0  0  0  0  0
  188.2730  178.6250  139.7910 C   0  0  0  0  0  3  0  0  0  0  0  0
  185.9840  178.0280  138.4240 C   0  0  0  0  0  0  0  0  0  0  0  0
  184.6410  178.2570  140.3390 N   0  0  0  0  0  0  0  0  0  0  0  0
  183.6020  178.0070  139.3320 C   0  0  1  0  0  3  0  0  0  0  0  0
  183.1660  178.3780  142.1490 O   0  0  0  0  0  0  0  0  0  0  0  0
  187.0800  178.5900  140.4490 N   0  0  0  0  0  0  0  0  0  0  0  0
  187.1600  178.0600  137.7490 N   0  0  0  0  0  0  0  0  0  0  0  0
  182.6400  179.1520  139.2450 C   0  0  0  0  0  0  0  0  0  0  0  0
  183.0250  180.3900  138.7140 C   0  0  0  0  0  3  0  0  0  0  0  0
  182.1160  181.4510  138.6770 C   0  0  0  0  0  3  0  0  0  0  0  0
  180.8100  181.2850  139.1710 C   0  0  0  0  0  0  0  0  0  0  0  0
  181.3390  178.9820  139.7260 C   0  0  0  0  0  3  0  0  0  0  0  0
  180.4230  180.0430  139.6970 C   0  0  0  0  0  0  0  0  0  0  0  0
  179.3710  182.8920  137.9570 C   0  0  0  0  0  1  0  0  0  0  0  0
  179.8850  182.3340  139.1580 O   0  0  0  0  0  0  0  0  0  0  0  0
  179.1340  179.8790  140.2150 O   0  0  0  0  0  0  0  0  0  0  0  0
  178.9310  179.3850  141.4440 O   0  0  0  0  0  0  0  0  0  0  0  0
  179.0510  180.4920  142.2900 C   0  0  0  0  0  1  0  0  0  0  0  0
  185.1950  178.3780  144.1370 C   0  0  0  0  0  2  0  0  0  0  0  0
  188.7700  177.3200  146.2560 C   0  0  0  0  0  3  0  0  0  0  0  0
  187.5160  177.4570  144.1870 C   0  0  0  0  0  3  0  0  0  0  0  0
  186.5110  178.1970  146.2640 C   0  0  0  0  0  3  0  0  0  0  0  0
  186.4230  177.9870  144.8820 C   0  0  0  0  0  0  0  0  0  0  0  0
  187.7750  178.0760  148.3190 O   0  0  0  0  0  1  0  0  0  0  0  0
  189.7400  176.5970  144.2010 F   0  0  0  0  0  0  0  0  0  0  0  0
  187.6850  177.8650  146.9490 C   0  0  0  0  0  0  0  0  0  0  0  0
  188.6870  177.1200  144.8730 C   0  0  0  0  0  0  0  0  0  0  0  0
  1 25  1  0  0  0  0
  2 11  2  0  0  0  0
  2  1  1  0  0  0  0
  3  8  1  0  0  0  0
  3 10  1  0  0  0  0
  4  5  1  0  0  0  0
  5  7  1  0  0  0  0
  6  9  1  0  0  0  0
  6 12  1  0  0  0  0
  7 12  2  0  0  0  0
  8  6  2  0  0  0  0
  9  2  1  0  0  0  0
 10 14  1  6  0  0  0
 10  9  1  0  0  0  0
 13  5  2  0  0  0  0
 13  8  1  0  0  0  0
 14 18  1  0  0  0  0
 15 14  2  0  0  0  0
 16 15  1  0  0  0  0
 16 17  2  0  0  0  0
 17 19  1  0  0  0  0
 19 18  2  0  0  0  0
 19 22  1  0  0  0  0
 20 21  1  0  0  0  0
 21 17  1  0  0  0  0
 22 23  1  0  0  0  0
 23 24  1  0  0  0  0
 25 29  1  0  0  0  0
 26 32  1  0  0  0  0
 27 33  1  0  0  0  0
 27 29  2  0  0  0  0
 28 32  2  0  0  0  0
 29 28  1  0  0  0  0
 31 33  1  0  0  0  0
 32 30  1  0  0  0  0
 33 26  2  0  0  0  0
M  END
>  <MODEL>
5

>  <REMARK>
 VINA RESULT:      -7.8      5.342      8.817
  Name = 
  6 active torsions:
  status: ('A' for Active; 'I' for Inactive)
    1  A    between atoms: N_1  and  C_12
    2  A    between atoms: C_3  and  C_26
    3  A    between atoms: O_10  and  O_29
    4  A    between atoms: C_12  and  C_14
    5  A    between atoms: C_21  and  O_33
    6  A    between atoms: C_27  and  O_29
                            x       y       z     vdW  Elec       q    Type
                         _______ _______ _______ _____ _____    ______ ____

>  <TORSDO>
F 6

$$$$
=
 OpenBabel11042409503D

 33 36  0  0  1  0  0  0  0  0999 V2000
  187.6130  178.4400  141.8460 N   0  0  0  0  0  2  0  0  0  0  0  0
  187.1350  178.4840  140.4960 C   0  0  0  0  0  0  0  0  0  0  0  0
  183.4350  179.4640  139.0230 S   0  0  0  0  0  0  0  0  0  0  0  0
  181.4940  178.7280  143.7300 F   0  0  0  0  0  0  0  0  0  0  0  0
  182.5580  178.7130  142.8910 C   0  0  0  0  0  0  0  0  0  0  0  0
  184.7110  178.6780  141.2140 C   0  0  0  0  0  0  0  0  0  0  0  0
  183.8200  178.3200  143.3630 C   0  0  0  0  0  3  0  0  0  0  0  0
  183.4770  179.0520  140.7540 C   0  0  0  0  0  0  0  0  0  0  0  0
  185.7330  178.6600  140.2250 N   0  0  0  0  0  0  0  0  0  0  0  0
  185.2210  179.0070  138.8930 C   0  0  1  0  0  3  0  0  0  0  0  0
  187.9510  178.3860  139.5390 O   0  0  0  0  0  0  0  0  0  0  0  0
  184.8820  178.3030  142.5090 N   0  0  0  0  0  0  0  0  0  0  0  0
  182.4060  179.0740  141.5850 N   0  0  0  0  0  0  0  0  0  0  0  0
  185.4130  177.8800  137.9250 C   0  0  0  0  0  0  0  0  0  0  0  0
  186.2930  177.9910  136.8400 C   0  0  0  0  0  3  0  0  0  0  0  0
  186.4260  176.9370  135.9340 C   0  0  0  0  0  3  0  0  0  0  0  0
  185.6790  175.7570  136.1010 C   0  0  0  0  0  0  0  0  0  0  0  0
  184.6780  176.7050  138.0990 C   0  0  0  0  0  3  0  0  0  0  0  0
  184.8020  175.6440  137.1910 C   0  0  0  0  0  0  0  0  0  0  0  0
  186.9790  173.9440  135.0280 C   0  0  0  0  0  1  0  0  0  0  0  0
  185.7830  174.6920  135.2010 O   0  0  0  0  0  0  0  0  0  0  0  0
  184.0360  174.4840  137.3490 O   0  0  0  0  0  0  0  0  0  0  0  0
  184.5420  173.3820  137.9170 O   0  0  0  0  0  0  0  0  0  0  0  0
  184.0260  172.3280  137.1570 C   0  0  0  0  0  1  0  0  0  0  0  0
  189.0130  178.1940  142.1670 C   0  0  0  0  0  2  0  0  0  0  0  0
  189.3860  177.1760  146.3160 C   0  0  0  0  0  3  0  0  0  0  0  0
  188.0020  177.6810  144.3920 C   0  0  0  0  0  3  0  0  0  0  0  0
  190.4160  177.6920  144.1840 C   0  0  0  0  0  3  0  0  0  0  0  0
  189.1490  177.8670  143.6130 C   0  0  0  0  0  0  0  0  0  0  0  0
  191.7880  177.1670  146.1010 O   0  0  0  0  0  1  0  0  0  0  0  0
  187.0090  177.1710  146.4990 F   0  0  0  0  0  0  0  0  0  0  0  0
  190.5330  177.3450  145.5340 C   0  0  0  0  0  0  0  0  0  0  0  0
  188.1200  177.3400  145.7430 C   0  0  0  0  0  0  0  0  0  0  0  0
  1 25  1  0  0  0  0
  2  1  1  0  0  0  0
  3  8  1  0  0  0  0
  5  7  1  0  0  0  0
  5  4  1  0  0  0  0
  6 12  1  0  0  0  0
  8  6  2  0  0  0  0
  8 13  1  0  0  0  0
  9  2  1  0  0  0  0
  9  6  1  0  0  0  0
 10 14  1  6  0  0  0
 10  3  1  0  0  0  0
 10  9  1  0  0  0  0
 11  2  2  0  0  0  0
 12  7  2  0  0  0  0
 13  5  2  0  0  0  0
 14 18  1  0  0  0  0
 15 14  2  0  0  0  0
 16 17  2  0  0  0  0
 16 15  1  0  0  0  0
 17 19  1  0  0  0  0
 19 22  1  0  0  0  0
 19 18  2  0  0  0  0
 20 21  1  0  0  0  0
 21 17  1  0  0  0  0
 22 23  1  0  0  0  0
 24 23  1  0  0  0  0
 25 29  1  0  0  0  0
 27 33  2  0  0  0  0
 28 32  1  0  0  0  0
 29 28  2  0  0  0  0
 29 27  1  0  0  0  0
 32 30  1  0  0  0  0
 32 26  2  0  0  0  0
 33 26  1  0  0  0  0
 33 31  1  0  0  0  0
M  END
>  <MODEL>
6

>  <REMARK>
 VINA RESULT:      -7.8      4.171      5.419
  Name = 
  6 active torsions:
  status: ('A' for Active; 'I' for Inactive)
    1  A    between atoms: N_1  and  C_12
    2  A    between atoms: C_3  and  C_26
    3  A    between atoms: O_10  and  O_29
    4  A    between atoms: C_12  and  C_14
    5  A    between atoms: C_21  and  O_33
    6  A    between atoms: C_27  and  O_29
                            x       y       z     vdW  Elec       q    Type
                         _______ _______ _______ _____ _____    ______ ____

>  <TORSDO>
F 6

$$$$
=
 OpenBabel11042409503D

 33 36  0  0  1  0  0  0  0  0999 V2000
  187.5170  178.4160  141.9300 N   0  0  0  0  0  2  0  0  0  0  0  0
  187.0480  178.4780  140.5780 C   0  0  0  0  0  0  0  0  0  0  0  0
  183.3520  179.4600  139.0940 S   0  0  0  0  0  0  0  0  0  0  0  0
  181.3830  178.6410  143.7760 F   0  0  0  0  0  0  0  0  0  0  0  0
  182.4530  178.6450  142.9440 C   0  0  0  0  0  0  0  0  0  0  0  0
  184.6180  178.6470  141.2810 C   0  0  0  0  0  0  0  0  0  0  0  0
  183.7140  178.2510  143.4190 C   0  0  0  0  0  3  0  0  0  0  0  0
  183.3850  179.0220  140.8190 C   0  0  0  0  0  0  0  0  0  0  0  0
  185.6470  178.6510  140.3000 N   0  0  0  0  0  0  0  0  0  0  0  0
  185.1420  179.0160  138.9700 C   0  0  1  0  0  3  0  0  0  0  0  0
  187.8710  178.4000  139.6250 O   0  0  0  0  0  0  0  0  0  0  0  0
  184.7820  178.2530  142.5720 N   0  0  0  0  0  0  0  0  0  0  0  0
  182.3080  179.0250  141.6430 N   0  0  0  0  0  0  0  0  0  0  0  0
  185.3470  177.9050  137.9850 C   0  0  0  0  0  0  0  0  0  0  0  0
  184.5190  176.7750  137.9770 C   0  0  0  0  0  3  0  0  0  0  0  0
  184.7550  175.7390  137.0690 C   0  0  0  0  0  3  0  0  0  0  0  0
  185.8230  175.8220  136.1580 C   0  0  0  0  0  0  0  0  0  0  0  0
  186.4010  177.9950  137.0730 C   0  0  0  0  0  3  0  0  0  0  0  0
  186.6480  176.9580  136.1620 C   0  0  0  0  0  0  0  0  0  0  0  0
  186.8410  173.6390  135.5920 C   0  0  0  0  0  1  0  0  0  0  0  0
  186.0900  174.7940  135.2480 O   0  0  0  0  0  0  0  0  0  0  0  0
  187.7280  177.0360  135.2780 O   0  0  0  0  0  0  0  0  0  0  0  0
  188.9810  177.2170  135.7170 O   0  0  0  0  0  0  0  0  0  0  0  0
  189.6790  176.0970  135.2560 C   0  0  0  0  0  1  0  0  0  0  0  0
  188.9160  178.1720  142.2570 C   0  0  0  0  0  2  0  0  0  0  0  0
  189.2790  177.2050  146.4180 C   0  0  0  0  0  3  0  0  0  0  0  0
  187.9000  177.7070  144.4900 C   0  0  0  0  0  3  0  0  0  0  0  0
  190.3140  177.6750  144.2780 C   0  0  0  0  0  3  0  0  0  0  0  0
  189.0490  177.8630  143.7060 C   0  0  0  0  0  0  0  0  0  0  0  0
  191.6800  177.1520  146.2000 O   0  0  0  0  0  1  0  0  0  0  0  0
  186.9020  177.2430  146.6050 F   0  0  0  0  0  0  0  0  0  0  0  0
  190.4270  177.3440  145.6330 C   0  0  0  0  0  0  0  0  0  0  0  0
  188.0150  177.3830  145.8450 C   0  0  0  0  0  0  0  0  0  0  0  0
  1 25  1  0  0  0  0
  2  1  1  0  0  0  0
  3  8  1  0  0  0  0
  5  7  1  0  0  0  0
  5  4  1  0  0  0  0
  6 12  1  0  0  0  0
  8  6  2  0  0  0  0
  8 13  1  0  0  0  0
  9  2  1  0  0  0  0
  9  6  1  0  0  0  0
 10 14  1  6  0  0  0
 10  3  1  0  0  0  0
 10  9  1  0  0  0  0
 11  2  2  0  0  0  0
 12  7  2  0  0  0  0
 13  5  2  0  0  0  0
 15 14  1  0  0  0  0
 16 15  2  0  0  0  0
 17 19  2  0  0  0  0
 17 16  1  0  0  0  0
 18 14  2  0  0  0  0
 19 18  1  0  0  0  0
 21 20  1  0  0  0  0
 21 17  1  0  0  0  0
 22 23  1  0  0  0  0
 22 19  1  0  0  0  0
 24 23  1  0  0  0  0
 25 29  1  0  0  0  0
 27 33  2  0  0  0  0
 28 32  1  0  0  0  0
 29 28  2  0  0  0  0
 29 27  1  0  0  0  0
 32 30  1  0  0  0  0
 32 26  2  0  0  0  0
 33 26  1  0  0  0  0
 33 31  1  0  0  0  0
M  END
>  <MODEL>
7

>  <REMARK>
 VINA RESULT:      -7.5      3.562      4.775
  Name = 
  6 active torsions:
  status: ('A' for Active; 'I' for Inactive)
    1  A    between atoms: N_1  and  C_12
    2  A    between atoms: C_3  and  C_26
    3  A    between atoms: O_10  and  O_29
    4  A    between atoms: C_12  and  C_14
    5  A    between atoms: C_21  and  O_33
    6  A    between atoms: C_27  and  O_29
                            x       y       z     vdW  Elec       q    Type
                         _______ _______ _______ _____ _____    ______ ____

>  <TORSDO>
F 6

$$$$
=
 OpenBabel11042409503D

 33 36  0  0  1  0  0  0  0  0999 V2000
  184.4910  178.7320  142.3060 N   0  0  0  0  0  2  0  0  0  0  0  0
  183.3230  178.7560  141.4770 C   0  0  0  0  0  0  0  0  0  0  0  0
  182.8170  177.6070  137.5720 S   0  0  0  0  0  0  0  0  0  0  0  0
  187.9210  177.8210  136.9680 F   0  0  0  0  0  0  0  0  0  0  0  0
  186.8310  177.9840  137.7570 C   0  0  0  0  0  0  0  0  0  0  0  0
  184.6460  178.3180  139.3590 C   0  0  0  0  0  0  0  0  0  0  0  0
  186.9800  178.4380  139.0780 C   0  0  0  0  0  3  0  0  0  0  0  0
  184.5030  177.8850  138.0690 C   0  0  0  0  0  0  0  0  0  0  0  0
  183.4250  178.4930  140.0660 N   0  0  0  0  0  0  0  0  0  0  0  0
  182.2540  178.2110  139.2260 C   0  0  1  0  0  3  0  0  0  0  0  0
  182.1950  178.9910  141.9910 O   0  0  0  0  0  0  0  0  0  0  0  0
  185.8770  178.6040  139.8600 N   0  0  0  0  0  0  0  0  0  0  0  0
  185.5860  177.7160  137.2710 N   0  0  0  0  0  0  0  0  0  0  0  0
  181.3820  179.4210  139.0820 C   0  0  0  0  0  0  0  0  0  0  0  0
  180.0820  179.4500  139.6040 C   0  0  0  0  0  3  0  0  0  0  0  0
  179.2800  180.5800  139.4250 C   0  0  0  0  0  3  0  0  0  0  0  0
  179.7690  181.6950  138.7210 C   0  0  0  0  0  0  0  0  0  0  0  0
  181.8740  180.5310  138.3930 C   0  0  0  0  0  3  0  0  0  0  0  0
  181.0740  181.6670  138.2040 C   0  0  0  0  0  0  0  0  0  0  0  0
  178.9310  183.9100  139.4410 C   0  0  0  0  0  1  0  0  0  0  0  0
  178.9830  182.8330  138.5160 O   0  0  0  0  0  0  0  0  0  0  0  0
  181.5580  182.7610  137.4790 O   0  0  0  0  0  0  0  0  0  0  0  0
  181.1540  183.0050  136.2260 O   0  0  0  0  0  0  0  0  0  0  0  0
  181.0780  184.3990  136.1470 C   0  0  0  0  0  1  0  0  0  0  0  0
  184.4440  179.0620  143.7250 C   0  0  0  0  0  2  0  0  0  0  0  0
  187.7780  177.2850  145.7540 C   0  0  0  0  0  3  0  0  0  0  0  0
  185.7460  178.6040  145.8070 C   0  0  0  0  0  3  0  0  0  0  0  0
  186.5640  177.7230  143.7030 C   0  0  0  0  0  3  0  0  0  0  0  0
  185.6180  178.4660  144.4200 C   0  0  0  0  0  0  0  0  0  0  0  0
  188.5790  176.3910  143.6620 O   0  0  0  0  0  1  0  0  0  0  0  0
  186.9560  178.1620  147.8130 F   0  0  0  0  0  0  0  0  0  0  0  0
  187.6420  177.1310  144.3710 C   0  0  0  0  0  0  0  0  0  0  0  0
  186.8270  178.0180  146.4730 C   0  0  0  0  0  0  0  0  0  0  0  0
  1 25  1  0  0  0  0
  2 11  2  0  0  0  0
  2  1  1  0  0  0  0
  3  8  1  0  0  0  0
  3 10  1  0  0  0  0
  4  5  1  0  0  0  0
  5  7  1  0  0  0  0
  6 12  1  0  0  0  0
  6  9  1  0  0  0  0
  7 12  2  0  0  0  0
  8  6  2  0  0  0  0
  9  2  1  0  0  0  0
 10 14  1  6  0  0  0
 10  9  1  0  0  0  0
 13  5  2  0  0  0  0
 13  8  1  0  0  0  0
 14 15  1  0  0  0  0
 16 15  2  0  0  0  0
 17 16  1  0  0  0  0
 18 14  2  0  0  0  0
 19 18  1  0  0  0  0
 19 17  2  0  0  0  0
 21 17  1  0  0  0  0
 21 20  1  0  0  0  0
 22 19  1  0  0  0  0
 23 22  1  0  0  0  0
 24 23  1  0  0  0  0
 25 29  1  0  0  0  0
 26 33  1  0  0  0  0
 27 33  2  0  0  0  0
 28 32  1  0  0  0  0
 28 29  2  0  0  0  0
 29 27  1  0  0  0  0
 30 32  1  0  0  0  0
 32 26  2  0  0  0  0
 33 31  1  0  0  0  0
M  END
>  <MODEL>
8

>  <REMARK>
 VINA RESULT:      -7.5      5.861      9.354
  Name = 
  6 active torsions:
  status: ('A' for Active; 'I' for Inactive)
    1  A    between atoms: N_1  and  C_12
    2  A    between atoms: C_3  and  C_26
    3  A    between atoms: O_10  and  O_29
    4  A    between atoms: C_12  and  C_14
    5  A    between atoms: C_21  and  O_33
    6  A    between atoms: C_27  and  O_29
                            x       y       z     vdW  Elec       q    Type
                         _______ _______ _______ _____ _____    ______ ____

>  <TORSDO>
F 6

$$$$
=
 OpenBabel11042409503D

 33 36  0  0  1  0  0  0  0  0999 V2000
  184.7140  178.4390  142.1350 N   0  0  0  0  0  2  0  0  0  0  0  0
  184.0900  178.5690  140.8520 C   0  0  0  0  0  0  0  0  0  0  0  0
  180.3830  180.0020  139.8360 S   0  0  0  0  0  0  0  0  0  0  0  0
  178.9310  179.3850  144.7320 F   0  0  0  0  0  0  0  0  0  0  0  0
  179.8810  179.2680  143.7730 C   0  0  0  0  0  0  0  0  0  0  0  0
  181.8050  179.0240  141.8530 C   0  0  0  0  0  0  0  0  0  0  0  0
  181.1350  178.7210  144.0890 C   0  0  0  0  0  3  0  0  0  0  0  0
  180.5790  179.5480  141.5460 C   0  0  0  0  0  0  0  0  0  0  0  0
  182.6960  178.9110  140.7500 N   0  0  0  0  0  0  0  0  0  0  0  0
  182.0760  179.3460  139.4920 C   0  0  1  0  0  3  0  0  0  0  0  0
  184.7720  178.4010  139.8040 O   0  0  0  0  0  0  0  0  0  0  0  0
  182.0800  178.6020  143.1150 N   0  0  0  0  0  0  0  0  0  0  0  0
  179.6210  179.6730  142.4980 N   0  0  0  0  0  0  0  0  0  0  0  0
  182.0210  178.2280  138.4960 C   0  0  0  0  0  0  0  0  0  0  0  0
  182.8160  178.2370  137.3420 C   0  0  0  0  0  3  0  0  0  0  0  0
  182.7180  177.1970  136.4150 C   0  0  0  0  0  3  0  0  0  0  0  0
  181.8240  176.1340  136.6310 C   0  0  0  0  0  0  0  0  0  0  0  0
  181.1400  177.1670  138.7180 C   0  0  0  0  0  3  0  0  0  0  0  0
  181.0330  176.1210  137.7900 C   0  0  0  0  0  0  0  0  0  0  0  0
  182.6630  174.0540  135.5840 C   0  0  0  0  0  1  0  0  0  0  0  0
  181.6960  175.0870  135.7120 O   0  0  0  0  0  0  0  0  0  0  0  0
  180.1210  175.0810  137.9990 O   0  0  0  0  0  0  0  0  0  0  0  0
  180.3770  174.0870  138.8600 O   0  0  0  0  0  0  0  0  0  0  0  0
  180.1080  172.9210  138.1380 C   0  0  0  0  0  1  0  0  0  0  0  0
  186.1030  178.0260  142.2860 C   0  0  0  0  0  2  0  0  0  0  0  0
  187.1460  177.8560  146.4410 C   0  0  0  0  0  3  0  0  0  0  0  0
  187.7320  177.5300  144.1130 C   0  0  0  0  0  3  0  0  0  0  0  0
  185.5210  178.3270  144.7060 C   0  0  0  0  0  3  0  0  0  0  0  0
  186.4500  177.9430  143.7310 C   0  0  0  0  0  0  0  0  0  0  0  0
  184.9520  178.6690  147.0280 O   0  0  0  0  0  1  0  0  0  0  0  0
  189.3150  177.0720  145.8360 F   0  0  0  0  0  0  0  0  0  0  0  0
  185.8710  178.2850  146.0600 C   0  0  0  0  0  0  0  0  0  0  0  0
  188.0780  177.4830  145.4670 C   0  0  0  0  0  0  0  0  0  0  0  0
  1 25  1  0  0  0  0
  2  1  1  0  0  0  0
  3  8  1  0  0  0  0
  5  7  1  0  0  0  0
  5  4  1  0  0  0  0
  6 12  1  0  0  0  0
  8  6  2  0  0  0  0
  8 13  1  0  0  0  0
  9  2  1  0  0  0  0
  9  6  1  0  0  0  0
 10 14  1  6  0  0  0
 10  3  1  0  0  0  0
 10  9  1  0  0  0  0
 11  2  2  0  0  0  0
 12  7  2  0  0  0  0
 13  5  2  0  0  0  0
 14 18  1  0  0  0  0
 15 14  2  0  0  0  0
 16 17  2  0  0  0  0
 16 15  1  0  0  0  0
 17 19  1  0  0  0  0
 19 22  1  0  0  0  0
 19 18  2  0  0  0  0
 20 21  1  0  0  0  0
 21 17  1  0  0  0  0
 22 23  1  0  0  0  0
 24 23  1  0  0  0  0
 25 29  1  0  0  0  0
 27 33  1  0  0  0  0
 28 32  2  0  0  0  0
 29 27  2  0  0  0  0
 29 28  1  0  0  0  0
 32 26  1  0  0  0  0
 32 30  1  0  0  0  0
 33 31  1  0  0  0  0
 33 26  2  0  0  0  0
M  END
>  <MODEL>
9

>  <REMARK>
 VINA RESULT:      -7.3      6.217      8.201
  Name = 
  6 active torsions:
  status: ('A' for Active; 'I' for Inactive)
    1  A    between atoms: N_1  and  C_12
    2  A    between atoms: C_3  and  C_26
    3  A    between atoms: O_10  and  O_29
    4  A    between atoms: C_12  and  C_14
    5  A    between atoms: C_21  and  O_33
    6  A    between atoms: C_27  and  O_29
                            x       y       z     vdW  Elec       q    Type
                         _______ _______ _______ _____ _____    ______ ____

>  <TORSDO>
F 6

$$$$
