=
 OpenBabel11042410223D

 37 38  0  0  0  0  0  0  0  0999 V2000
  188.2570  177.7540  145.8180 C   0  0  0  0  0  3  0  0  0  0  0  0
  189.3570  177.7770  145.0510 C   0  0  0  0  0  0  0  0  0  0  0  0
  190.2790  175.8860  143.0330 O   0  0  0  0  0  0  0  0  0  0  0  0
  189.6920  176.9390  142.6640 C   0  0  0  0  0  0  0  0  0  0  0  0
  189.2430  177.9030  143.6280 N   0  0  0  0  0  2  0  0  0  0  0  0
  188.3130  178.6060  136.3210 C   0  0  0  0  0  1  0  0  0  0  0  0
  189.4900  177.2110  141.2350 C   0  0  0  0  0  0  0  0  0  0  0  0
  189.0990  177.7120  137.2170 C   0  0  0  0  0  0  0  0  0  0  0  0
  190.0770  176.7910  136.8280 C   0  0  0  0  0  3  0  0  0  0  0  0
  189.9820  176.7620  138.9910 C   0  0  0  0  0  0  0  0  0  0  0  0
  190.2060  176.5070  140.3030 N   0  0  0  0  0  0  0  0  0  0  0  0
  189.0690  177.6820  138.5890 C   0  0  0  0  0  0  0  0  0  0  0  0
  190.6010  176.2110  137.9360 N   0  0  0  0  0  0  0  0  0  0  0  0
  191.6920  175.2550  137.9650 C   0  0  0  0  0  1  0  0  0  0  0  0
  188.5360  178.1740  140.8080 C   0  0  0  0  0  3  0  0  0  0  0  0
  188.3390  178.4020  139.4740 N   0  0  0  0  0  0  0  0  0  0  0  0
  190.6530  177.5880  145.6410 N   0  0  0  0  0  2  0  0  0  0  0  0
  190.0740  176.1800  147.4200 O   0  0  0  0  0  0  0  0  0  0  0  0
  190.9800  176.7050  146.7190 C   0  0  0  0  0  0  0  0  0  0  0  0
  192.3220  176.4630  147.0080 O   0  0  0  0  0  0  0  0  0  0  0  0
  192.7220  175.7040  148.1380 C   0  0  0  0  0  1  0  0  0  0  0  0
  186.3770  177.0440  144.5900 O   0  0  0  0  0  0  0  0  0  0  0  0
  186.8510  177.9000  145.3830 C   0  0  0  0  0  0  0  0  0  0  0  0
  185.9450  178.9750  145.8930 C   0  0  0  0  0  2  0  0  0  0  0  0
  184.5910  178.3920  146.2720 C   0  0  0  0  0  2  0  0  0  0  0  0
  183.5000  178.8930  145.3430 C   0  0  0  0  0  2  0  0  0  0  0  0
  184.1180  179.6330  144.1730 C   0  0  0  0  0  2  0  0  0  0  0  0
  184.6000  179.0050  141.7840 C   0  0  0  0  0  0  0  0  0  0  0  0
  183.7540  178.9670  142.9340 N   0  0  0  0  0  2  0  0  0  0  0  0
  185.6810  179.6530  141.8050 O   0  0  0  0  0  0  0  0  0  0  0  0
  184.2250  178.2480  140.5510 C   0  0  0  0  0  2  0  0  0  0  0  0
  184.1990  179.1300  139.3860 N   0  0  0  0  0  0  0  0  0  0  0  0
  182.5670  180.7450  138.6010 N   0  0  0  0  0  1  0  0  0  0  0  0
  182.8010  179.3590  139.0010 C   0  0  0  0  0  2  0  0  0  0  0  0
  184.9010  178.4720  138.2900 C   0  0  0  0  0  2  0  0  0  0  0  0
  183.9660  177.5190  137.5640 C   0  0  0  0  0  2  0  0  0  0  0  0
  184.5290  176.2410  137.5120 O   0  0  0  0  0  1  0  0  0  0  0  0
  2 17  1  0  0  0  0
  2  1  2  0  0  0  0
  4  3  2  0  0  0  0
  4  5  1  0  0  0  0
  5  2  1  0  0  0  0
  6  8  1  0  0  0  0
  7  4  1  0  0  0  0
  8 12  1  0  0  0  0
  9  8  2  0  0  0  0
  9 13  1  0  0  0  0
 10 11  1  0  0  0  0
 11  7  2  0  0  0  0
 12 10  2  0  0  0  0
 12 16  1  0  0  0  0
 13 14  1  0  0  0  0
 13 10  1  0  0  0  0
 15  7  1  0  0  0  0
 16 15  2  0  0  0  0
 17 19  1  0  0  0  0
 19 20  1  0  0  0  0
 19 18  2  0  0  0  0
 20 21  1  0  0  0  0
 22 23  2  0  0  0  0
 23  1  1  0  0  0  0
 23 24  1  0  0  0  0
 24 25  1  0  0  0  0
 26 25  1  0  0  0  0
 27 26  1  0  0  0  0
 28 30  2  0  0  0  0
 28 29  1  0  0  0  0
 29 27  1  0  0  0  0
 31 28  1  0  0  0  0
 32 31  1  0  0  0  0
 33 34  1  0  0  0  0
 34 32  1  0  0  0  0
 35 32  1  0  0  0  0
 36 35  1  0  0  0  0
 37 36  1  0  0  0  0
M  END
>  <MODEL>
1

>  <REMARK>
 VINA RESULT:      -7.5      0.000      0.000
  Name = 
  15 active torsions:
  status: ('A' for Active; 'I' for Inactive)
    1  A    between atoms: C_2  and  C_15
    2  A    between atoms: C_2  and  C_22
    3  A    between atoms: N_3  and  C_12
    4  A    between atoms: N_3  and  C_29
    5  A    between atoms: N_3  and  C_30
    6  A    between atoms: C_4  and  C_22
    7  A    between atoms: C_6  and  C_29
    8  A    between atoms: C_7  and  N_10
    9  A    between atoms: C_7  and  N_36
   10  A    between atoms: C_8  and  C_16
   11  A    between atoms: N_9  and  C_26
   12  A    between atoms: C_12  and  C_24
   13  A    between atoms: C_15  and  C_33
   14  A    between atoms: C_26  and  C_33
   15  A    between atoms: O_32  and  C_37
                            x       y       z     vdW  Elec       q    Type
                         _______ _______ _______ _____ _____    ______ ____

>  <TORSDO>
F 15

$$$$
=
 OpenBabel11042410223D

 37 38  0  0  0  0  0  0  0  0999 V2000
  190.3360  176.1710  137.1790 C   0  0  0  0  0  3  0  0  0  0  0  0
  190.9130  175.7530  138.3150 C   0  0  0  0  0  0  0  0  0  0  0  0
  191.7750  177.6380  140.3650 O   0  0  0  0  0  0  0  0  0  0  0  0
  190.7300  176.9590  140.5570 C   0  0  0  0  0  0  0  0  0  0  0  0
  190.2870  176.0060  139.5790 N   0  0  0  0  0  2  0  0  0  0  0  0
  186.7390  177.7880  145.8770 C   0  0  0  0  0  1  0  0  0  0  0  0
  189.9680  177.1100  141.8030 C   0  0  0  0  0  0  0  0  0  0  0  0
  188.1280  177.5250  145.4080 C   0  0  0  0  0  0  0  0  0  0  0  0
  189.2370  177.2270  146.2070 C   0  0  0  0  0  3  0  0  0  0  0  0
  189.8820  177.1320  144.1420 C   0  0  0  0  0  0  0  0  0  0  0  0
  190.6040  176.9640  143.0080 N   0  0  0  0  0  0  0  0  0  0  0  0
  188.5620  177.4450  144.1080 C   0  0  0  0  0  0  0  0  0  0  0  0
  190.3080  176.9970  145.4080 N   0  0  0  0  0  0  0  0  0  0  0  0
  191.6280  176.5870  145.8450 C   0  0  0  0  0  1  0  0  0  0  0  0
  188.5860  177.4360  141.7740 C   0  0  0  0  0  3  0  0  0  0  0  0
  187.8920  177.5980  142.9410 N   0  0  0  0  0  0  0  0  0  0  0  0
  192.2050  175.1250  138.2810 N   0  0  0  0  0  2  0  0  0  0  0  0
  193.5080  176.9460  137.5940 O   0  0  0  0  0  0  0  0  0  0  0  0
  193.4610  175.7700  138.0450 C   0  0  0  0  0  0  0  0  0  0  0  0
  194.6370  175.0610  138.2850 O   0  0  0  0  0  0  0  0  0  0  0  0
  194.7680  173.6880  137.9520 C   0  0  0  0  0  1  0  0  0  0  0  0
  188.8610  177.9520  137.6280 O   0  0  0  0  0  0  0  0  0  0  0  0
  189.0350  176.8580  137.0290 C   0  0  0  0  0  0  0  0  0  0  0  0
  187.9410  176.3520  136.1430 C   0  0  0  0  0  2  0  0  0  0  0  0
  186.7260  177.2650  136.2250 C   0  0  0  0  0  2  0  0  0  0  0  0
  185.6270  176.6410  137.0660 C   0  0  0  0  0  2  0  0  0  0  0  0
  184.7140  177.7240  137.6080 C   0  0  0  0  0  2  0  0  0  0  0  0
  184.8010  179.1040  139.7110 C   0  0  0  0  0  0  0  0  0  0  0  0
  184.9090  177.8470  139.0430 N   0  0  0  0  0  2  0  0  0  0  0  0
  184.5650  180.1570  139.0600 O   0  0  0  0  0  0  0  0  0  0  0  0
  184.9370  179.1790  141.1970 C   0  0  0  0  0  2  0  0  0  0  0  0
  183.9710  178.3010  141.8540 N   0  0  0  0  0  0  0  0  0  0  0  0
  181.7830  177.9750  140.8540 N   0  0  0  0  0  1  0  0  0  0  0  0
  182.6250  178.8560  141.6620 C   0  0  0  0  0  2  0  0  0  0  0  0
  184.2770  178.2570  143.2790 C   0  0  0  0  0  2  0  0  0  0  0  0
  183.0990  178.7770  144.0850 C   0  0  0  0  0  2  0  0  0  0  0  0
  183.5360  179.2390  145.3300 O   0  0  0  0  0  1  0  0  0  0  0  0
  1  2  2  0  0  0  0
  2  5  1  0  0  0  0
  3  4  2  0  0  0  0
  4  7  1  0  0  0  0
  5  4  1  0  0  0  0
  7 11  1  0  0  0  0
  8  6  1  0  0  0  0
  8  9  2  0  0  0  0
 10 13  1  0  0  0  0
 11 10  2  0  0  0  0
 12 10  1  0  0  0  0
 12  8  1  0  0  0  0
 13 14  1  0  0  0  0
 13  9  1  0  0  0  0
 15  7  2  0  0  0  0
 15 16  1  0  0  0  0
 16 12  2  0  0  0  0
 17  2  1  0  0  0  0
 18 19  2  0  0  0  0
 19 17  1  0  0  0  0
 19 20  1  0  0  0  0
 21 20  1  0  0  0  0
 23  1  1  0  0  0  0
 23 22  2  0  0  0  0
 24 25  1  0  0  0  0
 24 23  1  0  0  0  0
 25 26  1  0  0  0  0
 26 27  1  0  0  0  0
 27 29  1  0  0  0  0
 28 31  1  0  0  0  0
 29 28  1  0  0  0  0
 30 28  2  0  0  0  0
 31 32  1  0  0  0  0
 32 35  1  0  0  0  0
 33 34  1  0  0  0  0
 34 32  1  0  0  0  0
 35 36  1  0  0  0  0
 36 37  1  0  0  0  0
M  END
>  <MODEL>
2

>  <REMARK>
 VINA RESULT:      -7.3      2.499      6.866
  Name = 
  15 active torsions:
  status: ('A' for Active; 'I' for Inactive)
    1  A    between atoms: C_2  and  C_15
    2  A    between atoms: C_2  and  C_22
    3  A    between atoms: N_3  and  C_12
    4  A    between atoms: N_3  and  C_29
    5  A    between atoms: N_3  and  C_30
    6  A    between atoms: C_4  and  C_22
    7  A    between atoms: C_6  and  C_29
    8  A    between atoms: C_7  and  N_10
    9  A    between atoms: C_7  and  N_36
   10  A    between atoms: C_8  and  C_16
   11  A    between atoms: N_9  and  C_26
   12  A    between atoms: C_12  and  C_24
   13  A    between atoms: C_15  and  C_33
   14  A    between atoms: C_26  and  C_33
   15  A    between atoms: O_32  and  C_37
                            x       y       z     vdW  Elec       q    Type
                         _______ _______ _______ _____ _____    ______ ____

>  <TORSDO>
F 15

$$$$
=
 OpenBabel11042410223D

 37 38  0  0  0  0  0  0  0  0999 V2000
  187.6010  177.8690  146.1450 C   0  0  0  0  0  3  0  0  0  0  0  0
  188.6380  177.5680  145.3490 C   0  0  0  0  0  0  0  0  0  0  0  0
  189.2740  175.7460  143.1650 O   0  0  0  0  0  0  0  0  0  0  0  0
  188.8740  176.9110  142.8950 C   0  0  0  0  0  0  0  0  0  0  0  0
  188.5720  177.8420  143.9440 N   0  0  0  0  0  2  0  0  0  0  0  0
  187.7410  179.1900  136.6950 C   0  0  0  0  0  1  0  0  0  0  0  0
  188.7450  177.3430  141.4970 C   0  0  0  0  0  0  0  0  0  0  0  0
  188.6060  178.3340  137.5540 C   0  0  0  0  0  0  0  0  0  0  0  0
  189.7740  177.6700  137.1640 C   0  0  0  0  0  3  0  0  0  0  0  0
  189.5030  177.3160  139.2830 C   0  0  0  0  0  0  0  0  0  0  0  0
  189.6600  176.9200  140.5690 N   0  0  0  0  0  0  0  0  0  0  0  0
  188.4670  178.1030  138.9000 C   0  0  0  0  0  0  0  0  0  0  0  0
  190.3050  177.0420  138.2420 N   0  0  0  0  0  0  0  0  0  0  0  0
  191.5530  176.3040  138.2720 C   0  0  0  0  0  1  0  0  0  0  0  0
  187.6630  178.1690  141.0900 C   0  0  0  0  0  3  0  0  0  0  0  0
  187.5390  178.5460  139.7810 N   0  0  0  0  0  0  0  0  0  0  0  0
  189.7860  176.8900  145.8820 N   0  0  0  0  0  2  0  0  0  0  0  0
  191.4840  178.0740  144.7860 O   0  0  0  0  0  0  0  0  0  0  0  0
  191.1580  177.2460  145.6780 C   0  0  0  0  0  0  0  0  0  0  0  0
  192.1360  176.6320  146.4600 O   0  0  0  0  0  0  0  0  0  0  0  0
  191.8050  175.8020  147.5610 C   0  0  0  0  0  1  0  0  0  0  0  0
  185.8840  179.4360  146.5190 O   0  0  0  0  0  0  0  0  0  0  0  0
  186.3360  178.5330  145.7660 C   0  0  0  0  0  0  0  0  0  0  0  0
  185.6040  178.2350  144.4960 C   0  0  0  0  0  2  0  0  0  0  0  0
  184.1890  178.7920  144.5550 C   0  0  0  0  0  2  0  0  0  0  0  0
  183.4810  178.6310  143.2220 C   0  0  0  0  0  2  0  0  0  0  0  0
  184.4660  178.8360  142.0870 C   0  0  0  0  0  2  0  0  0  0  0  0
  184.0160  178.8960  139.6120 C   0  0  0  0  0  0  0  0  0  0  0  0
  183.9380  178.2340  140.8750 N   0  0  0  0  0  2  0  0  0  0  0  0
  184.5200  180.0470  139.5220 O   0  0  0  0  0  0  0  0  0  0  0  0
  183.5260  178.2140  138.3760 C   0  0  0  0  0  2  0  0  0  0  0  0
  182.2650  177.5200  138.6270 N   0  0  0  0  0  0  0  0  0  0  0  0
  181.2530  175.3660  138.1560 N   0  0  0  0  0  1  0  0  0  0  0  0
  182.1300  176.4250  137.6600 C   0  0  0  0  0  2  0  0  0  0  0  0
  181.1700  178.4660  138.4430 C   0  0  0  0  0  2  0  0  0  0  0  0
  180.3090  178.5220  139.6930 C   0  0  0  0  0  2  0  0  0  0  0  0
  180.7720  177.5980  140.6360 O   0  0  0  0  0  1  0  0  0  0  0  0
  2 17  1  0  0  0  0
  2  1  2  0  0  0  0
  4  3  2  0  0  0  0
  4  5  1  0  0  0  0
  5  2  1  0  0  0  0
  6  8  1  0  0  0  0
  7  4  1  0  0  0  0
  8 12  1  0  0  0  0
  9  8  2  0  0  0  0
  9 13  1  0  0  0  0
 10 11  1  0  0  0  0
 11  7  2  0  0  0  0
 12 10  2  0  0  0  0
 12 16  1  0  0  0  0
 13 14  1  0  0  0  0
 13 10  1  0  0  0  0
 15  7  1  0  0  0  0
 16 15  2  0  0  0  0
 18 19  2  0  0  0  0
 19 17  1  0  0  0  0
 19 20  1  0  0  0  0
 20 21  1  0  0  0  0
 23  1  1  0  0  0  0
 23 22  2  0  0  0  0
 24 25  1  0  0  0  0
 24 23  1  0  0  0  0
 26 25  1  0  0  0  0
 27 26  1  0  0  0  0
 28 29  1  0  0  0  0
 29 27  1  0  0  0  0
 30 28  2  0  0  0  0
 31 32  1  0  0  0  0
 31 28  1  0  0  0  0
 34 33  1  0  0  0  0
 34 32  1  0  0  0  0
 35 32  1  0  0  0  0
 35 36  1  0  0  0  0
 36 37  1  0  0  0  0
M  END
>  <MODEL>
3

>  <REMARK>
 VINA RESULT:      -7.3      1.837      2.230
  Name = 
  15 active torsions:
  status: ('A' for Active; 'I' for Inactive)
    1  A    between atoms: C_2  and  C_15
    2  A    between atoms: C_2  and  C_22
    3  A    between atoms: N_3  and  C_12
    4  A    between atoms: N_3  and  C_29
    5  A    between atoms: N_3  and  C_30
    6  A    between atoms: C_4  and  C_22
    7  A    between atoms: C_6  and  C_29
    8  A    between atoms: C_7  and  N_10
    9  A    between atoms: C_7  and  N_36
   10  A    between atoms: C_8  and  C_16
   11  A    between atoms: N_9  and  C_26
   12  A    between atoms: C_12  and  C_24
   13  A    between atoms: C_15  and  C_33
   14  A    between atoms: C_26  and  C_33
   15  A    between atoms: O_32  and  C_37
                            x       y       z     vdW  Elec       q    Type
                         _______ _______ _______ _____ _____    ______ ____

>  <TORSDO>
F 15

$$$$
=
 OpenBabel11042410223D

 37 38  0  0  0  0  0  0  0  0999 V2000
  190.0960  177.1420  137.5420 C   0  0  0  0  0  3  0  0  0  0  0  0
  190.6010  176.3100  138.4650 C   0  0  0  0  0  0  0  0  0  0  0  0
  192.0590  177.6770  140.5860 O   0  0  0  0  0  0  0  0  0  0  0  0
  190.9510  177.1370  140.8530 C   0  0  0  0  0  0  0  0  0  0  0  0
  190.2160  176.4370  139.8390 N   0  0  0  0  0  2  0  0  0  0  0  0
  189.1000  177.2330  147.2940 C   0  0  0  0  0  1  0  0  0  0  0  0
  190.4140  177.1870  142.2190 C   0  0  0  0  0  0  0  0  0  0  0  0
  188.6430  177.3240  145.8790 C   0  0  0  0  0  0  0  0  0  0  0  0
  187.3470  177.6100  145.4370 C   0  0  0  0  0  3  0  0  0  0  0  0
  188.6040  177.4250  143.6840 C   0  0  0  0  0  0  0  0  0  0  0  0
  189.0760  177.4070  142.4140 N   0  0  0  0  0  0  0  0  0  0  0  0
  189.4180  177.2250  144.7500 C   0  0  0  0  0  0  0  0  0  0  0  0
  187.3440  177.6590  144.0820 N   0  0  0  0  0  0  0  0  0  0  0  0
  186.2120  177.9990  143.2420 C   0  0  0  0  0  1  0  0  0  0  0  0
  191.2620  176.9800  143.3400 C   0  0  0  0  0  3  0  0  0  0  0  0
  190.7470  177.0050  144.6070 N   0  0  0  0  0  0  0  0  0  0  0  0
  191.5960  175.3410  138.0980 N   0  0  0  0  0  2  0  0  0  0  0  0
  193.4210  176.7670  137.7500 O   0  0  0  0  0  0  0  0  0  0  0  0
  192.9880  175.5910  137.8780 C   0  0  0  0  0  0  0  0  0  0  0  0
  193.8570  174.5050  137.7670 O   0  0  0  0  0  0  0  0  0  0  0  0
  195.0900  174.4560  138.4680 C   0  0  0  0  0  1  0  0  0  0  0  0
  189.2810  179.0400  138.6730 O   0  0  0  0  0  0  0  0  0  0  0  0
  189.0950  178.2110  137.7430 C   0  0  0  0  0  0  0  0  0  0  0  0
  187.9080  178.3990  136.8510 C   0  0  0  0  0  2  0  0  0  0  0  0
  187.2610  177.0570  136.5380 C   0  0  0  0  0  2  0  0  0  0  0  0
  185.8060  177.0370  136.9710 C   0  0  0  0  0  2  0  0  0  0  0  0
  185.5630  178.1100  138.0130 C   0  0  0  0  0  2  0  0  0  0  0  0
  183.5340  179.2180  139.0100 C   0  0  0  0  0  0  0  0  0  0  0  0
  184.1680  178.0820  138.4190 N   0  0  0  0  0  2  0  0  0  0  0  0
  184.1860  180.2740  139.2270 O   0  0  0  0  0  0  0  0  0  0  0  0
  182.0790  179.1740  139.3470 C   0  0  0  0  0  2  0  0  0  0  0  0
  181.8230  178.2250  140.4290 N   0  0  0  0  0  0  0  0  0  0  0  0
  181.7250  175.9170  139.6860 N   0  0  0  0  0  1  0  0  0  0  0  0
  180.9700  177.1470  139.9170 C   0  0  0  0  0  2  0  0  0  0  0  0
  181.1290  178.9230  141.5040 C   0  0  0  0  0  2  0  0  0  0  0  0
  179.7410  178.3370  141.7000 C   0  0  0  0  0  2  0  0  0  0  0  0
  179.6520  177.7220  142.9530 O   0  0  0  0  0  1  0  0  0  0  0  0
  1 23  1  0  0  0  0
  1  2  2  0  0  0  0
  2  5  1  0  0  0  0
  3  4  2  0  0  0  0
  4  7  1  0  0  0  0
  5  4  1  0  0  0  0
  7 11  2  0  0  0  0
  7 15  1  0  0  0  0
  8  6  1  0  0  0  0
  9  8  2  0  0  0  0
 10 13  1  0  0  0  0
 10 12  2  0  0  0  0
 11 10  1  0  0  0  0
 12  8  1  0  0  0  0
 13  9  1  0  0  0  0
 14 13  1  0  0  0  0
 15 16  2  0  0  0  0
 16 12  1  0  0  0  0
 17  2  1  0  0  0  0
 18 19  2  0  0  0  0
 19 17  1  0  0  0  0
 20 19  1  0  0  0  0
 20 21  1  0  0  0  0
 23 22  2  0  0  0  0
 24 23  1  0  0  0  0
 25 24  1  0  0  0  0
 25 26  1  0  0  0  0
 26 27  1  0  0  0  0
 27 29  1  0  0  0  0
 28 30  2  0  0  0  0
 28 31  1  0  0  0  0
 29 28  1  0  0  0  0
 31 32  1  0  0  0  0
 32 35  1  0  0  0  0
 33 34  1  0  0  0  0
 34 32  1  0  0  0  0
 35 36  1  0  0  0  0
 36 37  1  0  0  0  0
M  END
>  <MODEL>
4

>  <REMARK>
 VINA RESULT:      -7.1      2.841      6.858
  Name = 
  15 active torsions:
  status: ('A' for Active; 'I' for Inactive)
    1  A    between atoms: C_2  and  C_15
    2  A    between atoms: C_2  and  C_22
    3  A    between atoms: N_3  and  C_12
    4  A    between atoms: N_3  and  C_29
    5  A    between atoms: N_3  and  C_30
    6  A    between atoms: C_4  and  C_22
    7  A    between atoms: C_6  and  C_29
    8  A    between atoms: C_7  and  N_10
    9  A    between atoms: C_7  and  N_36
   10  A    between atoms: C_8  and  C_16
   11  A    between atoms: N_9  and  C_26
   12  A    between atoms: C_12  and  C_24
   13  A    between atoms: C_15  and  C_33
   14  A    between atoms: C_26  and  C_33
   15  A    between atoms: O_32  and  C_37
                            x       y       z     vdW  Elec       q    Type
                         _______ _______ _______ _____ _____    ______ ____

>  <TORSDO>
F 15

$$$$
=
 OpenBabel11042410223D

 37 38  0  0  0  0  0  0  0  0999 V2000
  189.6900  177.3570  137.3650 C   0  0  0  0  0  3  0  0  0  0  0  0
  190.0670  176.5110  138.3350 C   0  0  0  0  0  0  0  0  0  0  0  0
  191.4690  177.5270  140.6800 O   0  0  0  0  0  0  0  0  0  0  0  0
  190.2620  177.1800  140.7900 C   0  0  0  0  0  0  0  0  0  0  0  0
  189.5460  176.6550  139.6620 N   0  0  0  0  0  2  0  0  0  0  0  0
  186.6080  177.7480  146.3800 C   0  0  0  0  0  1  0  0  0  0  0  0
  189.5800  177.2760  142.0870 C   0  0  0  0  0  0  0  0  0  0  0  0
  187.9710  177.5450  145.8140 C   0  0  0  0  0  0  0  0  0  0  0  0
  189.1400  177.2700  146.5310 C   0  0  0  0  0  3  0  0  0  0  0  0
  189.6490  177.2440  144.4270 C   0  0  0  0  0  0  0  0  0  0  0  0
  190.3000  177.1270  143.2440 N   0  0  0  0  0  0  0  0  0  0  0  0
  188.3200  177.5100  144.4870 C   0  0  0  0  0  0  0  0  0  0  0  0
  190.1620  177.0980  145.6580 N   0  0  0  0  0  0  0  0  0  0  0  0
  191.5230  176.7260  145.9980 C   0  0  0  0  0  1  0  0  0  0  0  0
  188.1880  177.5530  142.1570 C   0  0  0  0  0  3  0  0  0  0  0  0
  187.5680  177.6640  143.3710 N   0  0  0  0  0  0  0  0  0  0  0  0
  191.0610  175.5080  138.0730 N   0  0  0  0  0  2  0  0  0  0  0  0
  189.6800  173.7820  137.2970 O   0  0  0  0  0  0  0  0  0  0  0  0
  190.8460  174.2360  137.4520 C   0  0  0  0  0  0  0  0  0  0  0  0
  191.9520  173.4860  137.0550 O   0  0  0  0  0  0  0  0  0  0  0  0
  193.1700  174.0960  136.6570 C   0  0  0  0  0  1  0  0  0  0  0  0
  189.0600  179.5250  138.0380 O   0  0  0  0  0  0  0  0  0  0  0  0
  188.7100  178.4610  137.4620 C   0  0  0  0  0  0  0  0  0  0  0  0
  187.3470  178.4010  136.8470 C   0  0  0  0  0  2  0  0  0  0  0  0
  186.4110  177.5670  137.7100 C   0  0  0  0  0  2  0  0  0  0  0  0
  185.1140  177.2680  136.9790 C   0  0  0  0  0  2  0  0  0  0  0  0
  183.9520  177.9190  137.7040 C   0  0  0  0  0  2  0  0  0  0  0  0
  184.2290  178.5370  140.1280 C   0  0  0  0  0  0  0  0  0  0  0  0
  183.9990  177.5610  139.1110 N   0  0  0  0  0  2  0  0  0  0  0  0
  184.4330  179.7430  139.8230 O   0  0  0  0  0  0  0  0  0  0  0  0
  184.1980  178.1420  141.5680 C   0  0  0  0  0  2  0  0  0  0  0  0
  183.3150  179.0210  142.3320 N   0  0  0  0  0  0  0  0  0  0  0  0
  184.7140  179.8080  144.1510 N   0  0  0  0  0  1  0  0  0  0  0  0
  183.6430  178.8960  143.7570 C   0  0  0  0  0  2  0  0  0  0  0  0
  181.9370  178.5970  142.1140 C   0  0  0  0  0  2  0  0  0  0  0  0
  180.9860  179.4710  142.9140 C   0  0  0  0  0  2  0  0  0  0  0  0
  179.6700  179.2650  142.4870 O   0  0  0  0  0  1  0  0  0  0  0  0
  1 23  1  0  0  0  0
  1  2  2  0  0  0  0
  2  5  1  0  0  0  0
  3  4  2  0  0  0  0
  4  7  1  0  0  0  0
  5  4  1  0  0  0  0
  7 15  2  0  0  0  0
  7 11  1  0  0  0  0
  8  6  1  0  0  0  0
  8  9  2  0  0  0  0
 10 12  1  0  0  0  0
 10 13  1  0  0  0  0
 11 10  2  0  0  0  0
 12  8  1  0  0  0  0
 13 14  1  0  0  0  0
 13  9  1  0  0  0  0
 15 16  1  0  0  0  0
 16 12  2  0  0  0  0
 17  2  1  0  0  0  0
 18 19  2  0  0  0  0
 19 17  1  0  0  0  0
 20 19  1  0  0  0  0
 21 20  1  0  0  0  0
 23 22  2  0  0  0  0
 24 23  1  0  0  0  0
 24 25  1  0  0  0  0
 26 27  1  0  0  0  0
 26 25  1  0  0  0  0
 27 29  1  0  0  0  0
 28 31  1  0  0  0  0
 29 28  1  0  0  0  0
 30 28  2  0  0  0  0
 31 32  1  0  0  0  0
 32 34  1  0  0  0  0
 34 33  1  0  0  0  0
 35 32  1  0  0  0  0
 35 36  1  0  0  0  0
 37 36  1  0  0  0  0
M  END
>  <MODEL>
5

>  <REMARK>
 VINA RESULT:      -7.1      2.434      6.926
  Name = 
  15 active torsions:
  status: ('A' for Active; 'I' for Inactive)
    1  A    between atoms: C_2  and  C_15
    2  A    between atoms: C_2  and  C_22
    3  A    between atoms: N_3  and  C_12
    4  A    between atoms: N_3  and  C_29
    5  A    between atoms: N_3  and  C_30
    6  A    between atoms: C_4  and  C_22
    7  A    between atoms: C_6  and  C_29
    8  A    between atoms: C_7  and  N_10
    9  A    between atoms: C_7  and  N_36
   10  A    between atoms: C_8  and  C_16
   11  A    between atoms: N_9  and  C_26
   12  A    between atoms: C_12  and  C_24
   13  A    between atoms: C_15  and  C_33
   14  A    between atoms: C_26  and  C_33
   15  A    between atoms: O_32  and  C_37
                            x       y       z     vdW  Elec       q    Type
                         _______ _______ _______ _____ _____    ______ ____

>  <TORSDO>
F 15

$$$$
=
 OpenBabel11042410223D

 37 38  0  0  0  0  0  0  0  0999 V2000
  182.7510  179.0290  142.7430 C   0  0  0  0  0  3  0  0  0  0  0  0
  183.0290  178.5630  141.5160 C   0  0  0  0  0  0  0  0  0  0  0  0
  184.6380  179.8970  139.4850 O   0  0  0  0  0  0  0  0  0  0  0  0
  185.1500  178.9580  140.1530 C   0  0  0  0  0  0  0  0  0  0  0  0
  184.3810  178.2640  141.1470 N   0  0  0  0  0  2  0  0  0  0  0  0
  191.5720  177.1180  139.6230 C   0  0  0  0  0  1  0  0  0  0  0  0
  186.5330  178.5370  139.8980 C   0  0  0  0  0  0  0  0  0  0  0  0
  190.3080  177.4040  138.8890 C   0  0  0  0  0  0  0  0  0  0  0  0
  190.0810  177.2320  137.5200 C   0  0  0  0  0  3  0  0  0  0  0  0
  188.2210  177.8940  138.4080 C   0  0  0  0  0  0  0  0  0  0  0  0
  186.9320  178.2570  138.6170 N   0  0  0  0  0  0  0  0  0  0  0  0
  189.1120  177.8100  139.4270 C   0  0  0  0  0  0  0  0  0  0  0  0
  188.7920  177.5480  137.2440 N   0  0  0  0  0  0  0  0  0  0  0  0
  188.1410  177.4330  135.9530 C   0  0  0  0  0  1  0  0  0  0  0  0
  187.4720  178.4460  140.9610 C   0  0  0  0  0  3  0  0  0  0  0  0
  188.7640  178.0760  140.7080 N   0  0  0  0  0  0  0  0  0  0  0  0
  181.9870  178.4420  140.5360 N   0  0  0  0  0  2  0  0  0  0  0  0
  182.2770  176.1980  139.9310 O   0  0  0  0  0  0  0  0  0  0  0  0
  181.5720  177.2410  139.8760 C   0  0  0  0  0  0  0  0  0  0  0  0
  180.3900  177.2530  139.1350 O   0  0  0  0  0  0  0  0  0  0  0  0
  180.3520  176.8490  137.7760 C   0  0  0  0  0  1  0  0  0  0  0  0
  184.5920  180.1210  143.7260 O   0  0  0  0  0  0  0  0  0  0  0  0
  183.6960  179.2460  143.8600 C   0  0  0  0  0  0  0  0  0  0  0  0
  183.5940  178.5280  145.1680 C   0  0  0  0  0  2  0  0  0  0  0  0
  184.7450  178.9240  146.0820 C   0  0  0  0  0  2  0  0  0  0  0  0
  185.6980  177.7620  146.2970 C   0  0  0  0  0  2  0  0  0  0  0  0
  186.9890  178.2610  146.9170 C   0  0  0  0  0  2  0  0  0  0  0  0
  188.4610  177.5150  145.0170 C   0  0  0  0  0  0  0  0  0  0  0  0
  188.1040  177.4870  146.3990 N   0  0  0  0  0  2  0  0  0  0  0  0
  187.7880  178.1930  144.1950 O   0  0  0  0  0  0  0  0  0  0  0  0
  189.6590  176.7630  144.5350 C   0  0  0  0  0  2  0  0  0  0  0  0
  190.8800  177.2740  145.1540 N   0  0  0  0  0  0  0  0  0  0  0  0
  191.0760  179.3920  143.9860 N   0  0  0  0  0  1  0  0  0  0  0  0
  191.6250  178.0480  144.1540 C   0  0  0  0  0  2  0  0  0  0  0  0
  191.6890  176.1420  145.5900 C   0  0  0  0  0  2  0  0  0  0  0  0
  191.6280  176.0060  147.1020 C   0  0  0  0  0  2  0  0  0  0  0  0
  191.6590  177.2710  147.6990 O   0  0  0  0  0  1  0  0  0  0  0  0
  1 23  1  0  0  0  0
  2  1  2  0  0  0  0
  3  4  2  0  0  0  0
  4  5  1  0  0  0  0
  5  2  1  0  0  0  0
  7  4  1  0  0  0  0
  7 15  1  0  0  0  0
  8 12  1  0  0  0  0
  8  6  1  0  0  0  0
  9  8  2  0  0  0  0
 10 11  1  0  0  0  0
 10 12  2  0  0  0  0
 11  7  2  0  0  0  0
 12 16  1  0  0  0  0
 13  9  1  0  0  0  0
 13 10  1  0  0  0  0
 14 13  1  0  0  0  0
 16 15  2  0  0  0  0
 17  2  1  0  0  0  0
 19 18  2  0  0  0  0
 19 17  1  0  0  0  0
 20 19  1  0  0  0  0
 21 20  1  0  0  0  0
 22 23  2  0  0  0  0
 23 24  1  0  0  0  0
 24 25  1  0  0  0  0
 25 26  1  0  0  0  0
 26 27  1  0  0  0  0
 28 29  1  0  0  0  0
 29 27  1  0  0  0  0
 30 28  2  0  0  0  0
 31 28  1  0  0  0  0
 31 32  1  0  0  0  0
 32 35  1  0  0  0  0
 33 34  1  0  0  0  0
 34 32  1  0  0  0  0
 35 36  1  0  0  0  0
 36 37  1  0  0  0  0
M  END
>  <MODEL>
6

>  <REMARK>
 VINA RESULT:      -7.1      1.950      7.375
  Name = 
  15 active torsions:
  status: ('A' for Active; 'I' for Inactive)
    1  A    between atoms: C_2  and  C_15
    2  A    between atoms: C_2  and  C_22
    3  A    between atoms: N_3  and  C_12
    4  A    between atoms: N_3  and  C_29
    5  A    between atoms: N_3  and  C_30
    6  A    between atoms: C_4  and  C_22
    7  A    between atoms: C_6  and  C_29
    8  A    between atoms: C_7  and  N_10
    9  A    between atoms: C_7  and  N_36
   10  A    between atoms: C_8  and  C_16
   11  A    between atoms: N_9  and  C_26
   12  A    between atoms: C_12  and  C_24
   13  A    between atoms: C_15  and  C_33
   14  A    between atoms: C_26  and  C_33
   15  A    between atoms: O_32  and  C_37
                            x       y       z     vdW  Elec       q    Type
                         _______ _______ _______ _____ _____    ______ ____

>  <TORSDO>
F 15

$$$$
=
 OpenBabel11042410223D

 37 38  0  0  0  0  0  0  0  0999 V2000
  190.0530  177.0930  137.5930 C   0  0  0  0  0  3  0  0  0  0  0  0
  190.6020  176.2820  138.5090 C   0  0  0  0  0  0  0  0  0  0  0  0
  192.0750  177.6950  140.5890 O   0  0  0  0  0  0  0  0  0  0  0  0
  190.9870  177.1310  140.8840 C   0  0  0  0  0  0  0  0  0  0  0  0
  190.2450  176.4080  139.8910 N   0  0  0  0  0  2  0  0  0  0  0  0
  189.2790  177.2120  147.3640 C   0  0  0  0  0  1  0  0  0  0  0  0
  190.4800  177.1770  142.2620 C   0  0  0  0  0  0  0  0  0  0  0  0
  188.7900  177.2990  145.9600 C   0  0  0  0  0  0  0  0  0  0  0  0
  187.4820  177.5750  145.5480 C   0  0  0  0  0  3  0  0  0  0  0  0
  188.7020  177.4010  143.7670 C   0  0  0  0  0  0  0  0  0  0  0  0
  189.1450  177.3860  142.4860 N   0  0  0  0  0  0  0  0  0  0  0  0
  189.5400  177.2070  144.8150 C   0  0  0  0  0  0  0  0  0  0  0  0
  187.4490  177.6240  144.1930 N   0  0  0  0  0  0  0  0  0  0  0  0
  186.2950  177.9550  143.3780 C   0  0  0  0  0  1  0  0  0  0  0  0
  191.3540  176.9760  143.3640 C   0  0  0  0  0  3  0  0  0  0  0  0
  190.8670  176.9980  144.6410 N   0  0  0  0  0  0  0  0  0  0  0  0
  191.6160  175.3390  138.1260 N   0  0  0  0  0  2  0  0  0  0  0  0
  193.4230  176.8020  137.8420 O   0  0  0  0  0  0  0  0  0  0  0  0
  193.0070  175.6160  137.9290 C   0  0  0  0  0  0  0  0  0  0  0  0
  193.8930  174.5470  137.7970 O   0  0  0  0  0  0  0  0  0  0  0  0
  195.1010  174.6610  137.0620 C   0  0  0  0  0  1  0  0  0  0  0  0
  189.2660  179.0490  138.6420 O   0  0  0  0  0  0  0  0  0  0  0  0
  189.0250  178.1340  137.8100 C   0  0  0  0  0  0  0  0  0  0  0  0
  187.7450  178.1940  137.0380 C   0  0  0  0  0  2  0  0  0  0  0  0
  186.6880  177.3160  137.6930 C   0  0  0  0  0  2  0  0  0  0  0  0
  186.2280  176.2180  136.7510 C   0  0  0  0  0  2  0  0  0  0  0  0
  184.7150  176.2260  136.6500 C   0  0  0  0  0  2  0  0  0  0  0  0
  183.1240  176.2190  138.6000 C   0  0  0  0  0  0  0  0  0  0  0  0
  184.1550  176.8480  137.8380 N   0  0  0  0  0  2  0  0  0  0  0  0
  182.6450  175.1120  138.2380 O   0  0  0  0  0  0  0  0  0  0  0  0
  182.6240  176.8570  139.8560 C   0  0  0  0  0  2  0  0  0  0  0  0
  182.7310  178.3120  139.7800 N   0  0  0  0  0  0  0  0  0  0  0  0
  184.7880  179.5720  140.0450 N   0  0  0  0  0  1  0  0  0  0  0  0
  183.7750  178.7560  140.7110 C   0  0  0  0  0  2  0  0  0  0  0  0
  181.4530  178.8930  140.1740 C   0  0  0  0  0  2  0  0  0  0  0  0
  180.5850  177.8440  140.8480 C   0  0  0  0  0  2  0  0  0  0  0  0
  180.2230  178.2710  142.1290 O   0  0  0  0  0  1  0  0  0  0  0  0
  1 23  1  0  0  0  0
  1  2  2  0  0  0  0
  2  5  1  0  0  0  0
  3  4  2  0  0  0  0
  4  7  1  0  0  0  0
  5  4  1  0  0  0  0
  7 11  2  0  0  0  0
  7 15  1  0  0  0  0
  8  6  1  0  0  0  0
  9  8  2  0  0  0  0
 10 13  1  0  0  0  0
 10 12  2  0  0  0  0
 11 10  1  0  0  0  0
 12  8  1  0  0  0  0
 13  9  1  0  0  0  0
 14 13  1  0  0  0  0
 15 16  2  0  0  0  0
 16 12  1  0  0  0  0
 17  2  1  0  0  0  0
 18 19  2  0  0  0  0
 19 17  1  0  0  0  0
 20 19  1  0  0  0  0
 21 20  1  0  0  0  0
 23 22  2  0  0  0  0
 24 25  1  0  0  0  0
 24 23  1  0  0  0  0
 26 25  1  0  0  0  0
 27 26  1  0  0  0  0
 27 29  1  0  0  0  0
 28 31  1  0  0  0  0
 29 28  1  0  0  0  0
 30 28  2  0  0  0  0
 32 31  1  0  0  0  0
 32 35  1  0  0  0  0
 32 34  1  0  0  0  0
 33 34  1  0  0  0  0
 35 36  1  0  0  0  0
 36 37  1  0  0  0  0
M  END
>  <MODEL>
7

>  <REMARK>
 VINA RESULT:      -7.0      2.832      6.918
  Name = 
  15 active torsions:
  status: ('A' for Active; 'I' for Inactive)
    1  A    between atoms: C_2  and  C_15
    2  A    between atoms: C_2  and  C_22
    3  A    between atoms: N_3  and  C_12
    4  A    between atoms: N_3  and  C_29
    5  A    between atoms: N_3  and  C_30
    6  A    between atoms: C_4  and  C_22
    7  A    between atoms: C_6  and  C_29
    8  A    between atoms: C_7  and  N_10
    9  A    between atoms: C_7  and  N_36
   10  A    between atoms: C_8  and  C_16
   11  A    between atoms: N_9  and  C_26
   12  A    between atoms: C_12  and  C_24
   13  A    between atoms: C_15  and  C_33
   14  A    between atoms: C_26  and  C_33
   15  A    between atoms: O_32  and  C_37
                            x       y       z     vdW  Elec       q    Type
                         _______ _______ _______ _____ _____    ______ ____

>  <TORSDO>
F 15

$$$$
=
 OpenBabel11042410223D

 37 38  0  0  0  0  0  0  0  0999 V2000
  187.2870  178.0680  136.7290 C   0  0  0  0  0  3  0  0  0  0  0  0
  186.1530  177.8770  137.4180 C   0  0  0  0  0  0  0  0  0  0  0  0
  184.7810  179.7560  139.1750 O   0  0  0  0  0  0  0  0  0  0  0  0
  185.4610  178.8240  139.6850 C   0  0  0  0  0  0  0  0  0  0  0  0
  186.1670  177.8930  138.8510 N   0  0  0  0  0  2  0  0  0  0  0  0
  186.5800  178.1350  146.2570 C   0  0  0  0  0  1  0  0  0  0  0  0
  185.5680  178.7000  141.1440 C   0  0  0  0  0  0  0  0  0  0  0  0
  185.5550  178.3510  145.1970 C   0  0  0  0  0  0  0  0  0  0  0  0
  184.1950  178.6120  145.3930 C   0  0  0  0  0  3  0  0  0  0  0  0
  184.5700  178.6830  143.2610 C   0  0  0  0  0  0  0  0  0  0  0  0
  184.4450  178.8260  141.9190 N   0  0  0  0  0  0  0  0  0  0  0  0
  185.7660  178.4150  143.8420 C   0  0  0  0  0  0  0  0  0  0  0  0
  183.6060  178.8050  144.1870 N   0  0  0  0  0  0  0  0  0  0  0  0
  182.2210  179.1710  143.9620 C   0  0  0  0  0  1  0  0  0  0  0  0
  186.8180  178.4210  141.7590 C   0  0  0  0  0  3  0  0  0  0  0  0
  186.9020  178.2830  143.1170 N   0  0  0  0  0  0  0  0  0  0  0  0
  184.9310  177.5680  136.7290 N   0  0  0  0  0  2  0  0  0  0  0  0
  184.8560  175.2540  137.0820 O   0  0  0  0  0  0  0  0  0  0  0  0
  184.2690  176.2990  136.6930 C   0  0  0  0  0  0  0  0  0  0  0  0
  182.9730  176.2300  136.1830 O   0  0  0  0  0  0  0  0  0  0  0  0
  182.6580  176.6700  134.8710 C   0  0  0  0  0  1  0  0  0  0  0  0
  188.7700  179.3680  138.0160 O   0  0  0  0  0  0  0  0  0  0  0  0
  188.6320  178.3630  137.2690 C   0  0  0  0  0  0  0  0  0  0  0  0
  189.8200  177.4870  137.0300 C   0  0  0  0  0  2  0  0  0  0  0  0
  189.8460  176.3420  138.0330 C   0  0  0  0  0  2  0  0  0  0  0  0
  190.5390  176.7550  139.3180 C   0  0  0  0  0  2  0  0  0  0  0  0
  189.5370  176.7930  140.4550 C   0  0  0  0  0  2  0  0  0  0  0  0
  190.2020  176.2710  142.8260 C   0  0  0  0  0  0  0  0  0  0  0  0
  190.2210  177.1370  141.6910 N   0  0  0  0  0  2  0  0  0  0  0  0
  189.5560  175.1890  142.7960 O   0  0  0  0  0  0  0  0  0  0  0  0
  190.9770  176.6260  144.0530 C   0  0  0  0  0  2  0  0  0  0  0  0
  190.1540  177.3940  144.9850 N   0  0  0  0  0  0  0  0  0  0  0  0
  191.6860  179.1070  144.2060 N   0  0  0  0  0  1  0  0  0  0  0  0
  190.3450  178.8230  144.7130 C   0  0  0  0  0  2  0  0  0  0  0  0
  190.5920  177.0980  146.3450 C   0  0  0  0  0  2  0  0  0  0  0  0
  191.7290  176.0900  146.3210 C   0  0  0  0  0  2  0  0  0  0  0  0
  192.4460  176.1470  147.5200 O   0  0  0  0  0  1  0  0  0  0  0  0
  1 23  1  0  0  0  0
  1  2  2  0  0  0  0
  2  5  1  0  0  0  0
  3  4  2  0  0  0  0
  4  7  1  0  0  0  0
  5  4  1  0  0  0  0
  7 15  2  0  0  0  0
  7 11  1  0  0  0  0
  8  9  2  0  0  0  0
  8  6  1  0  0  0  0
 10 12  1  0  0  0  0
 10 13  1  0  0  0  0
 11 10  2  0  0  0  0
 12  8  1  0  0  0  0
 13  9  1  0  0  0  0
 14 13  1  0  0  0  0
 15 16  1  0  0  0  0
 16 12  2  0  0  0  0
 17  2  1  0  0  0  0
 19 17  1  0  0  0  0
 19 18  2  0  0  0  0
 20 19  1  0  0  0  0
 21 20  1  0  0  0  0
 23 22  2  0  0  0  0
 24 23  1  0  0  0  0
 24 25  1  0  0  0  0
 25 26  1  0  0  0  0
 26 27  1  0  0  0  0
 27 29  1  0  0  0  0
 28 31  1  0  0  0  0
 29 28  1  0  0  0  0
 30 28  2  0  0  0  0
 31 32  1  0  0  0  0
 32 35  1  0  0  0  0
 33 34  1  0  0  0  0
 34 32  1  0  0  0  0
 36 35  1  0  0  0  0
 36 37  1  0  0  0  0
M  END
>  <MODEL>
8

>  <REMARK>
 VINA RESULT:      -7.0      1.881      9.251
  Name = 
  15 active torsions:
  status: ('A' for Active; 'I' for Inactive)
    1  A    between atoms: C_2  and  C_15
    2  A    between atoms: C_2  and  C_22
    3  A    between atoms: N_3  and  C_12
    4  A    between atoms: N_3  and  C_29
    5  A    between atoms: N_3  and  C_30
    6  A    between atoms: C_4  and  C_22
    7  A    between atoms: C_6  and  C_29
    8  A    between atoms: C_7  and  N_10
    9  A    between atoms: C_7  and  N_36
   10  A    between atoms: C_8  and  C_16
   11  A    between atoms: N_9  and  C_26
   12  A    between atoms: C_12  and  C_24
   13  A    between atoms: C_15  and  C_33
   14  A    between atoms: C_26  and  C_33
   15  A    between atoms: O_32  and  C_37
                            x       y       z     vdW  Elec       q    Type
                         _______ _______ _______ _____ _____    ______ ____

>  <TORSDO>
F 15

$$$$
=
 OpenBabel11042410223D

 37 38  0  0  0  0  0  0  0  0999 V2000
  189.3370  177.0800  140.7680 C   0  0  0  0  0  3  0  0  0  0  0  0
  189.4860  177.0480  139.4350 C   0  0  0  0  0  0  0  0  0  0  0  0
  190.2990  174.6620  137.9720 O   0  0  0  0  0  0  0  0  0  0  0  0
  191.1280  175.5990  138.1260 C   0  0  0  0  0  0  0  0  0  0  0  0
  190.7700  176.7800  138.8580 N   0  0  0  0  0  2  0  0  0  0  0  0
  197.3150  175.6940  135.5500 C   0  0  0  0  0  1  0  0  0  0  0  0
  192.4880  175.4800  137.5840 C   0  0  0  0  0  0  0  0  0  0  0  0
  196.2150  174.8420  136.0810 C   0  0  0  0  0  0  0  0  0  0  0  0
  196.2600  173.4620  136.3010 C   0  0  0  0  0  3  0  0  0  0  0  0
  194.3260  174.1630  136.9760 C   0  0  0  0  0  0  0  0  0  0  0  0
  193.0790  174.2460  137.5020 N   0  0  0  0  0  0  0  0  0  0  0  0
  194.9860  175.2600  136.5290 C   0  0  0  0  0  0  0  0  0  0  0  0
  195.0830  173.0630  136.8430 N   0  0  0  0  0  0  0  0  0  0  0  0
  194.7570  171.7200  137.2850 C   0  0  0  0  0  1  0  0  0  0  0  0
  193.1860  176.6250  137.1160 C   0  0  0  0  0  3  0  0  0  0  0  0
  194.4430  176.4990  136.5920 N   0  0  0  0  0  0  0  0  0  0  0  0
  188.3800  177.3680  138.5760 N   0  0  0  0  0  2  0  0  0  0  0  0
  189.0300  179.5100  137.8840 O   0  0  0  0  0  0  0  0  0  0  0  0
  188.2560  178.5250  137.7420 C   0  0  0  0  0  0  0  0  0  0  0  0
  187.2350  178.5640  136.7920 O   0  0  0  0  0  0  0  0  0  0  0  0
  187.1830  177.6490  135.7090 C   0  0  0  0  0  1  0  0  0  0  0  0
  190.5290  175.6220  142.1810 O   0  0  0  0  0  0  0  0  0  0  0  0
  190.3640  176.8090  141.7970 C   0  0  0  0  0  0  0  0  0  0  0  0
  191.2650  177.8670  142.3500 C   0  0  0  0  0  2  0  0  0  0  0  0
  190.6070  178.5590  143.5350 C   0  0  0  0  0  2  0  0  0  0  0  0
  191.5180  178.5510  144.7490 C   0  0  0  0  0  2  0  0  0  0  0  0
  191.2600  177.3090  145.5800 C   0  0  0  0  0  2  0  0  0  0  0  0
  189.1940  177.3860  147.0150 C   0  0  0  0  0  0  0  0  0  0  0  0
  189.8280  177.1370  145.7600 N   0  0  0  0  0  2  0  0  0  0  0  0
  189.8720  177.7320  148.0190 O   0  0  0  0  0  0  0  0  0  0  0  0
  187.7100  177.2680  147.1420 C   0  0  0  0  0  2  0  0  0  0  0  0
  187.0330  178.1790  146.2210 N   0  0  0  0  0  0  0  0  0  0  0  0
  184.7740  179.0010  146.5490 N   0  0  0  0  0  1  0  0  0  0  0  0
  186.1630  179.0710  146.9960 C   0  0  0  0  0  2  0  0  0  0  0  0
  186.2210  177.3910  145.3000 C   0  0  0  0  0  2  0  0  0  0  0  0
  186.7810  177.4900  143.8920 C   0  0  0  0  0  2  0  0  0  0  0  0
  187.5850  176.3790  143.6160 O   0  0  0  0  0  1  0  0  0  0  0  0
  1 23  1  0  0  0  0
  2  1  2  0  0  0  0
  3  4  2  0  0  0  0
  4  5  1  0  0  0  0
  5  2  1  0  0  0  0
  6  8  1  0  0  0  0
  7  4  1  0  0  0  0
  8  9  2  0  0  0  0
  8 12  1  0  0  0  0
  9 13  1  0  0  0  0
 10 11  2  0  0  0  0
 11  7  1  0  0  0  0
 12 16  2  0  0  0  0
 12 10  1  0  0  0  0
 13 10  1  0  0  0  0
 13 14  1  0  0  0  0
 15  7  2  0  0  0  0
 16 15  1  0  0  0  0
 17  2  1  0  0  0  0
 19 18  2  0  0  0  0
 19 17  1  0  0  0  0
 20 19  1  0  0  0  0
 21 20  1  0  0  0  0
 23 22  2  0  0  0  0
 23 24  1  0  0  0  0
 24 25  1  0  0  0  0
 25 26  1  0  0  0  0
 26 27  1  0  0  0  0
 27 29  1  0  0  0  0
 28 31  1  0  0  0  0
 28 30  2  0  0  0  0
 29 28  1  0  0  0  0
 32 34  1  0  0  0  0
 32 31  1  0  0  0  0
 33 34  1  0  0  0  0
 35 32  1  0  0  0  0
 36 35  1  0  0  0  0
 37 36  1  0  0  0  0
M  END
>  <MODEL>
9

>  <REMARK>
 VINA RESULT:      -7.0      2.989      7.346
  Name = 
  15 active torsions:
  status: ('A' for Active; 'I' for Inactive)
    1  A    between atoms: C_2  and  C_15
    2  A    between atoms: C_2  and  C_22
    3  A    between atoms: N_3  and  C_12
    4  A    between atoms: N_3  and  C_29
    5  A    between atoms: N_3  and  C_30
    6  A    between atoms: C_4  and  C_22
    7  A    between atoms: C_6  and  C_29
    8  A    between atoms: C_7  and  N_10
    9  A    between atoms: C_7  and  N_36
   10  A    between atoms: C_8  and  C_16
   11  A    between atoms: N_9  and  C_26
   12  A    between atoms: C_12  and  C_24
   13  A    between atoms: C_15  and  C_33
   14  A    between atoms: C_26  and  C_33
   15  A    between atoms: O_32  and  C_37
                            x       y       z     vdW  Elec       q    Type
                         _______ _______ _______ _____ _____    ______ ____

>  <TORSDO>
F 15

$$$$
