=
 OpenBabel11032420073D

 59 64  0  0  1  0  0  0  0  0999 V2000
  192.3060  176.4140  138.3270 C   0  0  0  0  0  0  0  0  0  0  0  0
  191.0710  175.9120  138.7290 C   0  0  0  0  0  0  0  0  0  0  0  0
  191.6180  177.1740  140.6010 C   0  0  0  0  0  0  0  0  0  0  0  0
  192.9310  177.3680  139.5620 S   0  0  0  0  0  0  0  0  0  0  0  0
  190.6760  176.3290  140.0110 C   0  0  0  0  0  3  0  0  0  0  0  0
  194.0760  173.8790  137.9520 C   0  0  0  0  0  1  0  0  0  0  0  0
  194.1940  174.8640  135.6610 N   0  0  0  0  0  0  0  0  0  0  0  0
  193.7490  174.9180  136.9270 C   0  0  0  0  0  0  0  0  0  0  0  0
  193.0200  176.0290  137.1400 N   0  0  0  0  0  0  0  0  0  0  0  0
  193.6890  175.9910  135.1050 C   0  0  0  0  0  3  0  0  0  0  0  0
  192.9770  176.7000  136.0000 N   0  0  0  0  0  0  0  0  0  0  0  0
  190.2470  175.0860  137.9050 N   0  0  0  0  0  2  0  0  0  0  0  0
  188.3690  174.7550  136.5930 O   0  0  0  0  0  0  0  0  0  0  0  0
  189.1000  175.5760  137.2100 C   0  0  0  0  0  0  0  0  0  0  0  0
  188.7410  177.0370  137.2550 C   0  0  0  0  0  2  0  0  0  0  0  0
  186.2170  176.9110  137.3120 N   0  0  0  0  0  2  0  0  0  0  0  0
  187.3530  177.8960  135.5200 O   0  0  0  0  0  0  0  0  0  0  0  0
  187.4090  177.3230  136.6430 C   0  0  0  0  0  0  0  0  0  0  0  0
  184.9110  177.0750  136.6950 C   0  0  0  0  0  2  0  0  0  0  0  0
  184.0170  175.5410  135.1240 O   0  0  0  0  0  0  0  0  0  0  0  0
  184.2020  174.7190  137.3140 N   0  0  0  0  0  2  0  0  0  0  0  0
  184.3300  175.7510  136.3250 C   0  0  0  0  0  0  0  0  0  0  0  0
  183.8860  173.3080  137.0740 C   0  0  2  0  0  3  0  0  0  0  0  0
  185.0800  172.4310  136.6790 C   0  0  0  0  0  2  0  0  0  0  0  0
  184.7120  171.4400  135.7620 O   0  0  0  0  0  1  0  0  0  0  0  0
  182.6570  173.0890  136.4020 O   0  0  0  0  0  0  0  0  0  0  0  0
  180.0630  171.0600  136.3150 C   0  0  2  0  0  3  0  0  0  0  0  0
  181.4630  171.1360  136.5080 O   0  0  0  0  0  0  0  0  0  0  0  0
  179.6050  172.1230  135.3280 C   0  0  0  0  0  2  0  0  0  0  0  0
  181.7820  172.3270  137.1970 C   0  0  2  0  0  3  0  0  0  0  0  0
  180.4890  173.0770  137.5010 C   0  0  2  0  0  3  0  0  0  0  0  0
  179.3840  172.3050  136.8280 C   0  0  2  0  0  3  0  0  0  0  0  0
  180.5000  174.4090  137.0490 O   0  0  0  0  0  0  0  0  0  0  0  0
  180.2570  175.3710  138.4310 P   0  0  0  0  0  0  0  0  0  0  0  0
  179.3080  174.5110  139.5410 O   0  0  0  0  0  1  0  0  0  0  0  0
  181.7530  175.7130  139.1480 O   0  0  0  0  0  1  0  0  0  0  0  0
  179.5550  176.6600  138.0670 O   0  0  0  0  0  0  0  0  0  0  0  0
  191.6080  177.6530  142.0150 C   0  0  0  0  0  2  0  0  0  0  0  0
  190.9960  176.6430  142.9660 C   0  0  0  0  0  2  0  0  0  0  0  0
  191.8270  176.4640  144.0750 O   0  0  0  0  0  0  0  0  0  0  0  0
  191.3850  177.4140  145.0010 C   0  0  0  0  0  2  0  0  0  0  0  0
  189.7890  176.0540  146.1820 O   0  0  0  0  0  0  0  0  0  0  0  0
  188.7460  176.9110  146.5850 C   0  0  1  0  0  3  0  0  0  0  0  0
  191.0010  176.7590  146.3360 C   0  0  2  0  0  0  0  0  0  0  0  0
  189.3260  178.1690  147.1830 C   0  0  2  0  0  3  0  0  0  0  0  0
  190.7750  177.8350  147.3710 C   0  0  0  0  0  2  0  0  0  0  0  0
  192.6430  176.2240  148.0220 O   0  0  0  0  0  1  0  0  0  0  0  0
  192.0850  175.7920  146.8190 C   0  0  0  0  0  2  0  0  0  0  0  0
  187.9100  177.4020  148.9470 O   0  0  0  0  0  1  0  0  0  0  0  0
  188.6510  178.5000  148.5090 C   0  0  0  0  0  2  0  0  0  0  0  0
  187.8780  177.2700  145.3880 C   0  0  0  0  0  2  0  0  0  0  0  0
  186.8310  178.2990  145.7870 C   0  0  0  0  0  2  0  0  0  0  0  0
  182.5790  178.8050  144.0240 C   0  0  0  0  0  1  0  0  0  0  0  0
  185.3690  179.2690  141.8140 C   0  0  0  0  0  1  0  0  0  0  0  0
  185.5730  177.9760  145.1350 N   0  0  0  0  0  0  0  0  0  0  0  0
  184.7270  179.1640  145.2050 C   0  0  0  0  0  2  0  0  0  0  0  0
  185.8610  177.7690  143.7190 C   0  0  0  0  0  2  0  0  0  0  0  0
  184.7570  178.4260  142.9160 C   0  0  1  0  0  3  0  0  0  0  0  0
  184.0020  179.3130  143.8850 C   0  0  1  0  0  3  0  0  0  0  0  0
  1  2  2  0  0  0  0
  1  4  1  0  0  0  0
  2  5  1  0  0  0  0
  3 38  1  0  0  0  0
  4  3  1  0  0  0  0
  5  3  2  0  0  0  0
  7  8  2  0  0  0  0
  8  9  1  0  0  0  0
  8  6  1  0  0  0  0
  9  1  1  0  0  0  0
 10  7  1  0  0  0  0
 10 11  2  0  0  0  0
 11  9  1  0  0  0  0
 12  2  1  0  0  0  0
 13 14  2  0  0  0  0
 14 15  1  0  0  0  0
 14 12  1  0  0  0  0
 17 18  2  0  0  0  0
 18 15  1  0  0  0  0
 18 16  1  0  0  0  0
 19 16  1  0  0  0  0
 20 22  2  0  0  0  0
 22 19  1  0  0  0  0
 22 21  1  0  0  0  0
 23 24  1  6  0  0  0
 23 21  1  0  0  0  0
 25 24  1  0  0  0  0
 26 23  1  0  0  0  0
 27 29  1  6  0  0  0
 27 28  1  0  0  0  0
 27 32  1  0  0  0  0
 28 30  1  0  0  0  0
 30 26  1  6  0  0  0
 30 31  1  0  0  0  0
 31 33  1  6  0  0  0
 32 29  1  6  0  0  0
 32 31  1  0  0  0  0
 33 34  1  0  0  0  0
 34 36  1  0  0  0  0
 34 35  1  0  0  0  0
 37 34  2  0  0  0  0
 38 39  1  0  0  0  0
 39 40  1  0  0  0  0
 40 41  1  0  0  0  0
 42 44  1  0  0  0  0
 42 43  1  0  0  0  0
 43 51  1  6  0  0  0
 43 45  1  0  0  0  0
 44 41  1  6  0  0  0
 44 48  1  0  0  0  0
 44 46  1  0  0  0  0
 45 46  1  0  0  0  0
 45 50  1  1  0  0  0
 48 47  1  0  0  0  0
 50 49  1  0  0  0  0
 51 52  1  0  0  0  0
 55 56  1  0  0  0  0
 55 52  1  0  0  0  0
 57 55  1  0  0  0  0
 58 54  1  6  0  0  0
 58 57  1  0  0  0  0
 58 59  1  0  0  0  0
 59 53  1  1  0  0  0
 59 56  1  0  0  0  0
M  END
>  <MODEL>
1

>  <REMARK>
 VINA RESULT:      -6.5      0.000      0.000
  Name = 
  22 active torsions:
  status: ('A' for Active; 'I' for Inactive)
    1  A    between atoms: C_2  and  C_25
    2  A    between atoms: C_3  and  N_33
    3  A    between atoms: P_6  and  O_19
    4  A    between atoms: N_7  and  C_47
    5  A    between atoms: C_8  and  N_17
    6  A    between atoms: C_15  and  O_34
    7  A    between atoms: C_15  and  C_49
    8  A    between atoms: N_18  and  C_41
    9  A    between atoms: O_19  and  C_48
   10  A    between atoms: C_20  and  C_23
   11  A    between atoms: C_21  and  O_51
   12  A    between atoms: C_22  and  C_23
   13  A    between atoms: C_22  and  O_34
   14  A    between atoms: C_25  and  N_39
   15  A    between atoms: C_25  and  O_51
   16  A    between atoms: C_28  and  C_50
   17  A    between atoms: C_28  and  C_56
   18  A    between atoms: C_29  and  C_55
   19  A    between atoms: C_31  and  C_49
   20  A    between atoms: C_40  and  C_46
   21  A    between atoms: C_41  and  C_46
   22  A    between atoms: C_43  and  C_47
                            x       y       z     vdW  Elec       q    Type
                         _______ _______ _______ _____ _____    ______ ____

>  <TORSDO>
F 22

$$$$
=
 OpenBabel11032420073D

 59 64  0  0  1  0  0  0  0  0999 V2000
  192.3380  176.4640  138.3640 C   0  0  0  0  0  0  0  0  0  0  0  0
  191.0660  176.2900  138.9030 C   0  0  0  0  0  0  0  0  0  0  0  0
  192.0840  177.4410  140.6450 C   0  0  0  0  0  0  0  0  0  0  0  0
  193.2950  177.2760  139.4830 S   0  0  0  0  0  0  0  0  0  0  0  0
  190.9140  176.8310  140.1900 C   0  0  0  0  0  3  0  0  0  0  0  0
  194.5420  174.2820  138.0730 C   0  0  0  0  0  1  0  0  0  0  0  0
  193.8500  174.5560  135.6900 N   0  0  0  0  0  0  0  0  0  0  0  0
  193.7260  174.9000  136.9820 C   0  0  0  0  0  0  0  0  0  0  0  0
  192.8160  175.8790  137.1410 N   0  0  0  0  0  0  0  0  0  0  0  0
  192.9590  175.3620  135.0660 C   0  0  0  0  0  3  0  0  0  0  0  0
  192.3320  176.1660  135.9440 N   0  0  0  0  0  0  0  0  0  0  0  0
  189.9900  175.6640  138.2040 N   0  0  0  0  0  2  0  0  0  0  0  0
  187.9430  175.7510  137.1250 O   0  0  0  0  0  0  0  0  0  0  0  0
  188.9040  176.3920  137.6300 C   0  0  0  0  0  0  0  0  0  0  0  0
  188.8810  177.8960  137.6730 C   0  0  0  0  0  2  0  0  0  0  0  0
  186.4790  178.1380  138.4240 N   0  0  0  0  0  2  0  0  0  0  0  0
  187.2660  179.1840  136.4860 O   0  0  0  0  0  0  0  0  0  0  0  0
  187.5100  178.4590  137.4890 C   0  0  0  0  0  0  0  0  0  0  0  0
  185.1090  178.5770  138.2170 C   0  0  0  0  0  2  0  0  0  0  0  0
  184.5420  177.2520  136.3340 O   0  0  0  0  0  0  0  0  0  0  0  0
  183.3420  176.7580  138.2890 N   0  0  0  0  0  2  0  0  0  0  0  0
  184.3080  177.5130  137.5440 C   0  0  0  0  0  0  0  0  0  0  0  0
  182.6560  175.5380  137.8530 C   0  0  2  0  0  3  0  0  0  0  0  0
  181.3330  175.2430  138.5690 C   0  0  0  0  0  2  0  0  0  0  0  0
  181.3110  175.7850  139.8590 O   0  0  0  0  0  1  0  0  0  0  0  0
  183.5190  174.4440  137.5870 O   0  0  0  0  0  0  0  0  0  0  0  0
  182.0450  172.0940  135.8100 C   0  0  2  0  0  3  0  0  0  0  0  0
  182.0050  173.4610  136.1740 O   0  0  0  0  0  0  0  0  0  0  0  0
  182.6030  171.2570  136.9510 C   0  0  0  0  0  2  0  0  0  0  0  0
  183.3230  173.9600  136.2810 C   0  0  2  0  0  3  0  0  0  0  0  0
  184.2990  172.8400  135.9360 C   0  0  2  0  0  3  0  0  0  0  0  0
  183.4680  171.6000  135.7400 C   0  0  2  0  0  3  0  0  0  0  0  0
  185.2700  172.6250  136.9310 O   0  0  0  0  0  0  0  0  0  0  0  0
  186.7420  172.4100  136.1030 P   0  0  0  0  0  0  0  0  0  0  0  0
  188.0160  172.4650  137.2200 O   0  0  0  0  0  1  0  0  0  0  0  0
  186.7470  170.8940  135.3490 O   0  0  0  0  0  1  0  0  0  0  0  0
  186.9360  173.4980  135.0700 O   0  0  0  0  0  0  0  0  0  0  0  0
  192.3320  177.9520  142.0250 C   0  0  0  0  0  2  0  0  0  0  0  0
  191.0810  177.9390  142.8830 C   0  0  0  0  0  2  0  0  0  0  0  0
  191.4280  177.9310  144.2360 O   0  0  0  0  0  0  0  0  0  0  0  0
  190.3170  178.4760  144.8860 C   0  0  0  0  0  2  0  0  0  0  0  0
  188.6460  176.7440  144.8880 O   0  0  0  0  0  0  0  0  0  0  0  0
  187.4000  177.3840  145.0440 C   0  0  1  0  0  3  0  0  0  0  0  0
  189.5740  177.4150  145.7120 C   0  0  2  0  0  0  0  0  0  0  0  0
  187.4930  178.4100  146.1470 C   0  0  2  0  0  3  0  0  0  0  0  0
  188.7970  178.0960  146.8140 C   0  0  0  0  0  2  0  0  0  0  0  0
  191.6750  177.0190  146.8300 O   0  0  0  0  0  1  0  0  0  0  0  0
  190.5410  176.3930  146.3120 C   0  0  0  0  0  2  0  0  0  0  0  0
  185.5110  179.4060  147.0350 O   0  0  0  0  0  1  0  0  0  0  0  0
  186.3220  178.2740  147.1130 C   0  0  0  0  0  2  0  0  0  0  0  0
  187.0010  178.0670  143.7450 C   0  0  0  0  0  2  0  0  0  0  0  0
  185.7180  177.4550  143.2020 C   0  0  0  0  0  2  0  0  0  0  0  0
  182.4730  179.5330  140.6340 C   0  0  0  0  0  1  0  0  0  0  0  0
  181.6090  178.6200  143.9960 C   0  0  0  0  0  1  0  0  0  0  0  0
  184.9010  178.5050  142.6180 N   0  0  0  0  0  0  0  0  0  0  0  0
  184.0200  177.8780  141.6370 C   0  0  0  0  0  2  0  0  0  0  0  0
  184.0300  179.0140  143.6730 C   0  0  0  0  0  2  0  0  0  0  0  0
  182.6530  179.2310  143.0810 C   0  0  1  0  0  3  0  0  0  0  0  0
  182.6520  178.5160  141.7460 C   0  0  1  0  0  3  0  0  0  0  0  0
  1  2  2  0  0  0  0
  1  4  1  0  0  0  0
  2  5  1  0  0  0  0
  3 38  1  0  0  0  0
  4  3  1  0  0  0  0
  5  3  2  0  0  0  0
  7  8  2  0  0  0  0
  8  9  1  0  0  0  0
  8  6  1  0  0  0  0
  9  1  1  0  0  0  0
 10  7  1  0  0  0  0
 10 11  2  0  0  0  0
 11  9  1  0  0  0  0
 12  2  1  0  0  0  0
 13 14  2  0  0  0  0
 14 15  1  0  0  0  0
 14 12  1  0  0  0  0
 17 18  2  0  0  0  0
 18 15  1  0  0  0  0
 18 16  1  0  0  0  0
 19 16  1  0  0  0  0
 20 22  2  0  0  0  0
 22 19  1  0  0  0  0
 22 21  1  0  0  0  0
 23 21  1  0  0  0  0
 23 24  1  1  0  0  0
 24 25  1  0  0  0  0
 26 23  1  0  0  0  0
 27 28  1  0  0  0  0
 27 29  1  1  0  0  0
 28 30  1  0  0  0  0
 30 26  1  1  0  0  0
 31 30  1  0  0  0  0
 31 33  1  1  0  0  0
 32 27  1  0  0  0  0
 32 31  1  0  0  0  0
 32 29  1  1  0  0  0
 34 33  1  0  0  0  0
 34 35  1  0  0  0  0
 36 34  1  0  0  0  0
 37 34  2  0  0  0  0
 38 39  1  0  0  0  0
 39 40  1  0  0  0  0
 40 41  1  0  0  0  0
 42 43  1  0  0  0  0
 42 44  1  0  0  0  0
 43 51  1  6  0  0  0
 43 45  1  0  0  0  0
 44 41  1  6  0  0  0
 44 48  1  0  0  0  0
 44 46  1  0  0  0  0
 45 46  1  0  0  0  0
 45 50  1  1  0  0  0
 48 47  1  0  0  0  0
 49 50  1  0  0  0  0
 52 51  1  0  0  0  0
 55 52  1  0  0  0  0
 55 57  1  0  0  0  0
 56 59  1  0  0  0  0
 56 55  1  0  0  0  0
 58 57  1  0  0  0  0
 58 54  1  1  0  0  0
 59 53  1  6  0  0  0
 59 58  1  0  0  0  0
M  END
>  <MODEL>
2

>  <REMARK>
 VINA RESULT:      -6.5      1.840      3.249
  Name = 
  22 active torsions:
  status: ('A' for Active; 'I' for Inactive)
    1  A    between atoms: C_2  and  C_25
    2  A    between atoms: C_3  and  N_33
    3  A    between atoms: P_6  and  O_19
    4  A    between atoms: N_7  and  C_47
    5  A    between atoms: C_8  and  N_17
    6  A    between atoms: C_15  and  O_34
    7  A    between atoms: C_15  and  C_49
    8  A    between atoms: N_18  and  C_41
    9  A    between atoms: O_19  and  C_48
   10  A    between atoms: C_20  and  C_23
   11  A    between atoms: C_21  and  O_51
   12  A    between atoms: C_22  and  C_23
   13  A    between atoms: C_22  and  O_34
   14  A    between atoms: C_25  and  N_39
   15  A    between atoms: C_25  and  O_51
   16  A    between atoms: C_28  and  C_50
   17  A    between atoms: C_28  and  C_56
   18  A    between atoms: C_29  and  C_55
   19  A    between atoms: C_31  and  C_49
   20  A    between atoms: C_40  and  C_46
   21  A    between atoms: C_41  and  C_46
   22  A    between atoms: C_43  and  C_47
                            x       y       z     vdW  Elec       q    Type
                         _______ _______ _______ _____ _____    ______ ____

>  <TORSDO>
F 22

$$$$
=
 OpenBabel11032420073D

 59 64  0  0  1  0  0  0  0  0999 V2000
  189.2400  177.4780  144.7620 C   0  0  0  0  0  0  0  0  0  0  0  0
  189.4440  177.8720  143.4420 C   0  0  0  0  0  0  0  0  0  0  0  0
  187.1220  177.9100  143.5180 C   0  0  0  0  0  0  0  0  0  0  0  0
  187.5870  177.4070  145.0590 S   0  0  0  0  0  0  0  0  0  0  0  0
  188.2570  178.1120  142.7300 C   0  0  0  0  0  3  0  0  0  0  0  0
  189.2620  177.7770  147.8620 C   0  0  0  0  0  1  0  0  0  0  0  0
  191.3610  176.4700  147.5120 N   0  0  0  0  0  0  0  0  0  0  0  0
  190.2780  177.0840  147.0100 C   0  0  0  0  0  0  0  0  0  0  0  0
  190.2600  177.0190  145.6650 N   0  0  0  0  0  0  0  0  0  0  0  0
  191.9990  176.0120  146.4090 C   0  0  0  0  0  3  0  0  0  0  0  0
  191.3340  176.3450  145.2880 N   0  0  0  0  0  0  0  0  0  0  0  0
  190.7350  178.0650  142.8640 N   0  0  0  0  0  2  0  0  0  0  0  0
  192.3390  177.5790  141.2670 O   0  0  0  0  0  0  0  0  0  0  0  0
  191.1460  177.4390  141.6480 C   0  0  0  0  0  0  0  0  0  0  0  0
  190.1880  176.5840  140.8630 C   0  0  0  0  0  2  0  0  0  0  0  0
  190.8890  175.8260  138.5560 N   0  0  0  0  0  2  0  0  0  0  0  0
  189.8600  177.8970  138.9020 O   0  0  0  0  0  0  0  0  0  0  0  0
  190.2840  176.8130  139.3900 C   0  0  0  0  0  0  0  0  0  0  0  0
  191.0990  176.0630  137.1360 C   0  0  0  0  0  2  0  0  0  0  0  0
  192.5230  175.3020  135.4010 O   0  0  0  0  0  0  0  0  0  0  0  0
  192.8820  174.2930  137.4880 N   0  0  0  0  0  2  0  0  0  0  0  0
  192.1880  175.1900  136.6090 C   0  0  0  0  0  0  0  0  0  0  0  0
  194.1150  173.5560  137.1960 C   0  0  2  0  0  3  0  0  0  0  0  0
  193.9220  172.0740  136.8510 C   0  0  0  0  0  2  0  0  0  0  0  0
  193.6520  171.8910  135.4910 O   0  0  0  0  0  1  0  0  0  0  0  0
  195.2150  173.9030  138.0200 O   0  0  0  0  0  0  0  0  0  0  0  0
  197.6390  173.1360  135.9250 C   0  0  2  0  0  3  0  0  0  0  0  0
  196.3530  173.7160  136.0400 O   0  0  0  0  0  0  0  0  0  0  0  0
  197.8170  172.0310  136.9570 C   0  0  0  0  0  2  0  0  0  0  0  0
  196.2660  174.4360  137.2520 C   0  0  2  0  0  3  0  0  0  0  0  0
  197.6050  174.3410  137.9750 C   0  0  2  0  0  3  0  0  0  0  0  0
  198.4590  173.4020  137.1630 C   0  0  2  0  0  3  0  0  0  0  0  0
  197.4900  173.8750  139.2970 O   0  0  0  0  0  0  0  0  0  0  0  0
  197.6560  175.2490  140.2890 P   0  0  0  0  0  0  0  0  0  0  0  0
  198.5640  176.4180  139.4640 O   0  0  0  0  0  0  0  0  0  0  0  0
  196.1240  175.8890  140.6230 O   0  0  0  0  0  1  0  0  0  0  0  0
  198.3570  174.8920  141.5810 O   0  0  0  0  0  1  0  0  0  0  0  0
  185.7080  177.8990  143.0400 C   0  0  0  0  0  2  0  0  0  0  0  0
  185.4460  178.9490  141.9770 C   0  0  0  0  0  2  0  0  0  0  0  0
  184.0770  179.0290  141.7100 O   0  0  0  0  0  0  0  0  0  0  0  0
  183.9650  178.7080  140.3540 C   0  0  0  0  0  2  0  0  0  0  0  0
  182.2530  177.1300  139.7440 O   0  0  0  0  0  0  0  0  0  0  0  0
  182.4170  176.8660  138.3700 C   0  0  1  0  0  3  0  0  0  0  0  0
  182.4990  178.5040  139.9450 C   0  0  2  0  0  0  0  0  0  0  0  0
  182.6130  178.1640  137.6250 C   0  0  2  0  0  3  0  0  0  0  0  0
  182.2460  179.2090  138.6340 C   0  0  0  0  0  2  0  0  0  0  0  0
  180.3520  178.3020  141.0290 O   0  0  0  0  0  1  0  0  0  0  0  0
  181.5400  179.0330  141.0140 C   0  0  0  0  0  2  0  0  0  0  0  0
  182.4300  177.8520  135.2640 O   0  0  0  0  0  1  0  0  0  0  0  0
  181.7110  178.2260  136.3990 C   0  0  0  0  0  2  0  0  0  0  0  0
  183.6250  175.9670  138.1530 C   0  0  0  0  0  2  0  0  0  0  0  0
  183.3510  174.9790  137.0300 C   0  0  0  0  0  2  0  0  0  0  0  0
  187.6280  175.3270  135.2900 C   0  0  0  0  0  1  0  0  0  0  0  0
  186.3410  172.0340  135.9110 C   0  0  0  0  0  1  0  0  0  0  0  0
  184.4330  175.0470  136.0620 N   0  0  0  0  0  0  0  0  0  0  0  0
  185.6660  175.3020  136.8010 C   0  0  0  0  0  2  0  0  0  0  0  0
  184.5780  173.7160  135.4820 C   0  0  0  0  0  2  0  0  0  0  0  0
  186.0580  173.4180  135.3580 C   0  0  1  0  0  3  0  0  0  0  0  0
  186.7690  174.4620  136.1930 C   0  0  1  0  0  3  0  0  0  0  0  0
  1  4  1  0  0  0  0
  1  9  1  0  0  0  0
  2  1  2  0  0  0  0
  3  4  1  0  0  0  0
  5  2  1  0  0  0  0
  5  3  2  0  0  0  0
  8  7  2  0  0  0  0
  8  6  1  0  0  0  0
  9  8  1  0  0  0  0
 10  7  1  0  0  0  0
 11  9  1  0  0  0  0
 11 10  2  0  0  0  0
 12  2  1  0  0  0  0
 13 14  2  0  0  0  0
 14 12  1  0  0  0  0
 15 14  1  0  0  0  0
 16 18  1  0  0  0  0
 17 18  2  0  0  0  0
 18 15  1  0  0  0  0
 19 16  1  0  0  0  0
 20 22  2  0  0  0  0
 22 19  1  0  0  0  0
 22 21  1  0  0  0  0
 23 24  1  1  0  0  0
 23 21  1  0  0  0  0
 23 26  1  0  0  0  0
 25 24  1  0  0  0  0
 27 28  1  0  0  0  0
 27 29  1  1  0  0  0
 27 32  1  0  0  0  0
 28 30  1  0  0  0  0
 30 31  1  0  0  0  0
 30 26  1  1  0  0  0
 31 33  1  1  0  0  0
 32 29  1  1  0  0  0
 32 31  1  0  0  0  0
 33 34  1  0  0  0  0
 34 36  1  0  0  0  0
 34 37  1  0  0  0  0
 35 34  2  0  0  0  0
 38  3  1  0  0  0  0
 39 38  1  0  0  0  0
 40 39  1  0  0  0  0
 41 40  1  0  0  0  0
 42 44  1  0  0  0  0
 43 51  1  1  0  0  0
 43 42  1  0  0  0  0
 44 41  1  1  0  0  0
 44 48  1  0  0  0  0
 45 50  1  6  0  0  0
 45 43  1  0  0  0  0
 45 46  1  0  0  0  0
 46 44  1  0  0  0  0
 48 47  1  0  0  0  0
 49 50  1  0  0  0  0
 52 51  1  0  0  0  0
 55 56  1  0  0  0  0
 55 52  1  0  0  0  0
 57 55  1  0  0  0  0
 58 57  1  0  0  0  0
 58 54  1  1  0  0  0
 58 59  1  0  0  0  0
 59 53  1  6  0  0  0
 59 56  1  0  0  0  0
M  END
>  <MODEL>
3

>  <REMARK>
 VINA RESULT:      -6.3      4.438     11.251
  Name = 
  22 active torsions:
  status: ('A' for Active; 'I' for Inactive)
    1  A    between atoms: C_2  and  C_25
    2  A    between atoms: C_3  and  N_33
    3  A    between atoms: P_6  and  O_19
    4  A    between atoms: N_7  and  C_47
    5  A    between atoms: C_8  and  N_17
    6  A    between atoms: C_15  and  O_34
    7  A    between atoms: C_15  and  C_49
    8  A    between atoms: N_18  and  C_41
    9  A    between atoms: O_19  and  C_48
   10  A    between atoms: C_20  and  C_23
   11  A    between atoms: C_21  and  O_51
   12  A    between atoms: C_22  and  C_23
   13  A    between atoms: C_22  and  O_34
   14  A    between atoms: C_25  and  N_39
   15  A    between atoms: C_25  and  O_51
   16  A    between atoms: C_28  and  C_50
   17  A    between atoms: C_28  and  C_56
   18  A    between atoms: C_29  and  C_55
   19  A    between atoms: C_31  and  C_49
   20  A    between atoms: C_40  and  C_46
   21  A    between atoms: C_41  and  C_46
   22  A    between atoms: C_43  and  C_47
                            x       y       z     vdW  Elec       q    Type
                         _______ _______ _______ _____ _____    ______ ____

>  <TORSDO>
F 22

$$$$
=
 OpenBabel11032420073D

 59 64  0  0  1  0  0  0  0  0999 V2000
  188.9880  177.5210  145.0450 C   0  0  0  0  0  0  0  0  0  0  0  0
  189.0960  177.8190  143.6890 C   0  0  0  0  0  0  0  0  0  0  0  0
  186.7870  177.8970  143.9330 C   0  0  0  0  0  0  0  0  0  0  0  0
  187.3610  177.4950  145.4670 S   0  0  0  0  0  0  0  0  0  0  0  0
  187.8620  178.0260  143.0510 C   0  0  0  0  0  3  0  0  0  0  0  0
  189.1460  177.8450  148.1390 C   0  0  0  0  0  1  0  0  0  0  0  0
  191.2770  176.6220  147.6950 N   0  0  0  0  0  0  0  0  0  0  0  0
  190.1470  177.1880  147.2420 C   0  0  0  0  0  0  0  0  0  0  0  0
  190.0680  177.1110  145.9000 N   0  0  0  0  0  0  0  0  0  0  0  0
  191.8800  176.1820  146.5660 C   0  0  0  0  0  3  0  0  0  0  0  0
  191.1500  176.4780  145.4760 N   0  0  0  0  0  0  0  0  0  0  0  0
  190.3420  177.9520  143.0050 N   0  0  0  0  0  2  0  0  0  0  0  0
  191.7150  177.5450  141.1860 O   0  0  0  0  0  0  0  0  0  0  0  0
  190.5540  177.4830  141.6730 C   0  0  0  0  0  0  0  0  0  0  0  0
  189.4250  176.8800  140.8820 C   0  0  0  0  0  2  0  0  0  0  0  0
  189.7050  176.6990  138.3770 N   0  0  0  0  0  2  0  0  0  0  0  0
  188.8740  178.6420  139.3780 O   0  0  0  0  0  0  0  0  0  0  0  0
  189.3010  177.4630  139.5140 C   0  0  0  0  0  0  0  0  0  0  0  0
  189.7030  177.2740  137.0410 C   0  0  0  0  0  2  0  0  0  0  0  0
  189.4000  176.3330  134.8870 O   0  0  0  0  0  0  0  0  0  0  0  0
  190.8680  175.1520  136.2850 N   0  0  0  0  0  2  0  0  0  0  0  0
  189.9540  176.2240  136.0120 C   0  0  0  0  0  0  0  0  0  0  0  0
  191.4060  174.1900  135.3190 C   0  0  2  0  0  3  0  0  0  0  0  0
  190.7760  172.7930  135.3700 C   0  0  0  0  0  2  0  0  0  0  0  0
  189.3960  172.8390  135.1470 O   0  0  0  0  0  1  0  0  0  0  0  0
  192.8080  174.2740  135.1270 O   0  0  0  0  0  0  0  0  0  0  0  0
  195.1220  176.6160  135.2280 C   0  0  2  0  0  3  0  0  0  0  0  0
  193.7360  176.3690  135.0880 O   0  0  0  0  0  0  0  0  0  0  0  0
  195.9290  175.4680  134.6400 C   0  0  0  0  0  2  0  0  0  0  0  0
  193.3600  175.2940  135.9240 C   0  0  2  0  0  3  0  0  0  0  0  0
  194.5900  174.8160  136.6890 C   0  0  2  0  0  3  0  0  0  0  0  0
  195.7560  175.6050  136.1510 C   0  0  2  0  0  3  0  0  0  0  0  0
  194.8290  173.4370  136.5510 O   0  0  0  0  0  0  0  0  0  0  0  0
  195.6660  172.9680  137.9560 P   0  0  0  0  0  0  0  0  0  0  0  0
  195.1220  171.4360  138.4370 O   0  0  0  0  0  1  0  0  0  0  0  0
  197.3230  172.8730  137.6180 O   0  0  0  0  0  0  0  0  0  0  0  0
  195.4260  173.9580  139.0740 O   0  0  0  0  0  1  0  0  0  0  0  0
  185.3410  177.8730  143.5620 C   0  0  0  0  0  2  0  0  0  0  0  0
  185.0810  178.4880  142.2010 C   0  0  0  0  0  2  0  0  0  0  0  0
  183.7060  178.6380  141.9970 O   0  0  0  0  0  0  0  0  0  0  0  0
  183.5790  178.8810  140.6270 C   0  0  0  0  0  2  0  0  0  0  0  0
  182.1110  177.4820  139.3300 O   0  0  0  0  0  0  0  0  0  0  0  0
  182.2250  177.9070  137.9910 C   0  0  1  0  0  3  0  0  0  0  0  0
  182.1410  178.6330  140.1450 C   0  0  2  0  0  0  0  0  0  0  0  0
  182.1580  179.4140  137.9310 C   0  0  2  0  0  3  0  0  0  0  0  0
  181.6910  179.8020  139.3010 C   0  0  0  0  0  2  0  0  0  0  0  0
  180.3320  177.3550  141.1010 O   0  0  0  0  0  1  0  0  0  0  0  0
  181.1810  178.4390  141.3210 C   0  0  0  0  0  2  0  0  0  0  0  0
  180.3120  180.8270  137.3820 O   0  0  0  0  0  1  0  0  0  0  0  0
  181.1790  179.8700  136.8560 C   0  0  0  0  0  2  0  0  0  0  0  0
  183.5470  177.4330  137.4060 C   0  0  0  0  0  2  0  0  0  0  0  0
  183.3590  177.0110  135.9570 C   0  0  0  0  0  2  0  0  0  0  0  0
  184.6660  172.7110  137.0710 C   0  0  0  0  0  1  0  0  0  0  0  0
  181.2290  173.6000  137.5980 C   0  0  0  0  0  1  0  0  0  0  0  0
  183.6170  175.5860  135.8390 N   0  0  0  0  0  0  0  0  0  0  0  0
  184.2670  175.1560  137.0730 C   0  0  0  0  0  2  0  0  0  0  0  0
  182.3230  174.9130  135.8090 C   0  0  0  0  0  2  0  0  0  0  0  0
  182.4220  173.6670  136.6660 C   0  0  1  0  0  3  0  0  0  0  0  0
  183.6980  173.8100  137.4680 C   0  0  1  0  0  3  0  0  0  0  0  0
  1  4  1  0  0  0  0
  1  9  1  0  0  0  0
  2  1  2  0  0  0  0
  3  4  1  0  0  0  0
  5  2  1  0  0  0  0
  5  3  2  0  0  0  0
  8  7  2  0  0  0  0
  8  6  1  0  0  0  0
  9  8  1  0  0  0  0
 10  7  1  0  0  0  0
 11  9  1  0  0  0  0
 11 10  2  0  0  0  0
 12  2  1  0  0  0  0
 13 14  2  0  0  0  0
 14 12  1  0  0  0  0
 15 14  1  0  0  0  0
 16 18  1  0  0  0  0
 17 18  2  0  0  0  0
 18 15  1  0  0  0  0
 19 16  1  0  0  0  0
 20 22  2  0  0  0  0
 22 21  1  0  0  0  0
 22 19  1  0  0  0  0
 23 24  1  1  0  0  0
 23 21  1  0  0  0  0
 25 24  1  0  0  0  0
 26 23  1  0  0  0  0
 27 29  1  6  0  0  0
 27 32  1  0  0  0  0
 28 27  1  0  0  0  0
 28 30  1  0  0  0  0
 30 26  1  6  0  0  0
 30 31  1  0  0  0  0
 31 33  1  6  0  0  0
 32 29  1  6  0  0  0
 32 31  1  0  0  0  0
 33 34  1  0  0  0  0
 34 35  1  0  0  0  0
 34 37  1  0  0  0  0
 36 34  2  0  0  0  0
 38  3  1  0  0  0  0
 39 38  1  0  0  0  0
 40 39  1  0  0  0  0
 41 40  1  0  0  0  0
 42 44  1  0  0  0  0
 43 51  1  1  0  0  0
 43 42  1  0  0  0  0
 44 41  1  1  0  0  0
 44 48  1  0  0  0  0
 45 50  1  6  0  0  0
 45 43  1  0  0  0  0
 45 46  1  0  0  0  0
 46 44  1  0  0  0  0
 47 48  1  0  0  0  0
 50 49  1  0  0  0  0
 52 51  1  0  0  0  0
 55 52  1  0  0  0  0
 55 56  1  0  0  0  0
 56 59  1  0  0  0  0
 57 55  1  0  0  0  0
 57 58  1  0  0  0  0
 58 59  1  0  0  0  0
 58 54  1  1  0  0  0
 59 53  1  6  0  0  0
M  END
>  <MODEL>
4

>  <REMARK>
 VINA RESULT:      -6.2      4.103     10.420
  Name = 
  22 active torsions:
  status: ('A' for Active; 'I' for Inactive)
    1  A    between atoms: C_2  and  C_25
    2  A    between atoms: C_3  and  N_33
    3  A    between atoms: P_6  and  O_19
    4  A    between atoms: N_7  and  C_47
    5  A    between atoms: C_8  and  N_17
    6  A    between atoms: C_15  and  O_34
    7  A    between atoms: C_15  and  C_49
    8  A    between atoms: N_18  and  C_41
    9  A    between atoms: O_19  and  C_48
   10  A    between atoms: C_20  and  C_23
   11  A    between atoms: C_21  and  O_51
   12  A    between atoms: C_22  and  C_23
   13  A    between atoms: C_22  and  O_34
   14  A    between atoms: C_25  and  N_39
   15  A    between atoms: C_25  and  O_51
   16  A    between atoms: C_28  and  C_50
   17  A    between atoms: C_28  and  C_56
   18  A    between atoms: C_29  and  C_55
   19  A    between atoms: C_31  and  C_49
   20  A    between atoms: C_40  and  C_46
   21  A    between atoms: C_41  and  C_46
   22  A    between atoms: C_43  and  C_47
                            x       y       z     vdW  Elec       q    Type
                         _______ _______ _______ _____ _____    ______ ____

>  <TORSDO>
F 22

$$$$
=
 OpenBabel11032420073D

 59 64  0  0  1  0  0  0  0  0999 V2000
  190.7710  176.6070  143.2880 C   0  0  0  0  0  0  0  0  0  0  0  0
  189.4490  176.5390  142.8560 C   0  0  0  0  0  0  0  0  0  0  0  0
  190.5110  176.9620  140.8330 C   0  0  0  0  0  0  0  0  0  0  0  0
  191.7570  176.9370  141.9680 S   0  0  0  0  0  0  0  0  0  0  0  0
  189.2900  176.7440  141.4750 C   0  0  0  0  0  3  0  0  0  0  0  0
  190.0510  178.6820  145.4970 C   0  0  0  0  0  1  0  0  0  0  0  0
  191.4070  177.0550  146.8190 N   0  0  0  0  0  0  0  0  0  0  0  0
  190.8730  177.4410  145.6500 C   0  0  0  0  0  0  0  0  0  0  0  0
  191.2050  176.5930  144.6580 N   0  0  0  0  0  0  0  0  0  0  0  0
  192.0720  175.9200  146.4990 C   0  0  0  0  0  3  0  0  0  0  0  0
  191.9520  175.6380  145.1890 N   0  0  0  0  0  0  0  0  0  0  0  0
  188.3490  176.2430  143.7170 N   0  0  0  0  0  2  0  0  0  0  0  0
  186.3020  176.7770  144.6560 O   0  0  0  0  0  0  0  0  0  0  0  0
  187.1760  177.0530  143.7910 C   0  0  0  0  0  0  0  0  0  0  0  0
  187.0100  178.2470  142.8890 C   0  0  0  0  0  2  0  0  0  0  0  0
  184.8830  178.2120  141.5230 N   0  0  0  0  0  2  0  0  0  0  0  0
  185.0100  179.3540  143.5600 O   0  0  0  0  0  0  0  0  0  0  0  0
  185.5800  178.6310  142.6970 C   0  0  0  0  0  0  0  0  0  0  0  0
  183.5270  178.6590  141.2500 C   0  0  0  0  0  2  0  0  0  0  0  0
  184.4830  179.7480  139.3750 O   0  0  0  0  0  0  0  0  0  0  0  0
  182.1900  179.2880  139.1890 N   0  0  0  0  0  2  0  0  0  0  0  0
  183.4370  179.2840  139.8990 C   0  0  0  0  0  0  0  0  0  0  0  0
  181.9840  179.6350  137.7790 C   0  0  2  0  0  3  0  0  0  0  0  0
  181.2000  180.9290  137.5350 C   0  0  0  0  0  2  0  0  0  0  0  0
  181.5790  181.9390  138.4260 O   0  0  0  0  0  1  0  0  0  0  0  0
  181.7060  178.5280  136.9380 O   0  0  0  0  0  0  0  0  0  0  0  0
  183.3290  176.1890  135.2800 C   0  0  2  0  0  3  0  0  0  0  0  0
  183.4150  177.4980  135.8100 O   0  0  0  0  0  0  0  0  0  0  0  0
  181.9030  175.8840  134.8460 C   0  0  0  0  0  2  0  0  0  0  0  0
  182.7210  177.5580  137.0380 C   0  0  2  0  0  3  0  0  0  0  0  0
  182.1570  176.1750  137.3490 C   0  0  2  0  0  3  0  0  0  0  0  0
  182.4600  175.3160  136.1490 C   0  0  2  0  0  3  0  0  0  0  0  0
  180.7740  176.1840  137.6070 O   0  0  0  0  0  0  0  0  0  0  0  0
  180.6040  175.7400  139.2410 P   0  0  0  0  0  0  0  0  0  0  0  0
  179.5240  176.8080  139.9930 O   0  0  0  0  0  1  0  0  0  0  0  0
  179.9710  174.1730  139.3350 O   0  0  0  0  0  0  0  0  0  0  0  0
  181.9390  175.7990  139.9510 O   0  0  0  0  0  1  0  0  0  0  0  0
  190.6960  177.3900  139.4150 C   0  0  0  0  0  2  0  0  0  0  0  0
  192.1000  177.1260  138.9070 C   0  0  0  0  0  2  0  0  0  0  0  0
  192.0560  176.6950  137.5790 O   0  0  0  0  0  0  0  0  0  0  0  0
  192.4240  175.3470  137.6350 C   0  0  0  0  0  2  0  0  0  0  0  0
  192.3180  175.0110  135.2540 O   0  0  0  0  0  0  0  0  0  0  0  0
  191.7500  173.7380  135.0490 C   0  0  1  0  0  3  0  0  0  0  0  0
  193.1790  174.9190  136.3670 C   0  0  2  0  0  0  0  0  0  0  0  0
  192.4030  172.7380  135.9720 C   0  0  2  0  0  3  0  0  0  0  0  0
  193.5960  173.4730  136.5020 C   0  0  0  0  0  2  0  0  0  0  0  0
  195.4970  175.3520  136.8750 O   0  0  0  0  0  1  0  0  0  0  0  0
  194.4090  175.7950  136.1240 C   0  0  0  0  0  2  0  0  0  0  0  0
  193.6970  170.7300  135.9790 O   0  0  0  0  0  1  0  0  0  0  0  0
  192.8110  171.4840  135.2090 C   0  0  0  0  0  2  0  0  0  0  0  0
  190.2550  173.7860  135.3270 C   0  0  0  0  0  2  0  0  0  0  0  0
  189.6480  175.0450  134.7270 C   0  0  0  0  0  2  0  0  0  0  0  0
  186.9940  178.1000  136.9780 C   0  0  0  0  0  1  0  0  0  0  0  0
  186.0830  174.6330  137.1740 C   0  0  0  0  0  1  0  0  0  0  0  0
  189.1310  175.8810  135.7970 N   0  0  0  0  0  0  0  0  0  0  0  0
  188.0590  176.6980  135.2350 C   0  0  0  0  0  2  0  0  0  0  0  0
  188.4970  174.9960  136.7690 C   0  0  0  0  0  2  0  0  0  0  0  0
  187.2080  175.6490  137.2250 C   0  0  1  0  0  3  0  0  0  0  0  0
  186.9350  176.7710  136.2460 C   0  0  1  0  0  3  0  0  0  0  0  0
  1  9  1  0  0  0  0
  2  1  2  0  0  0  0
  2 12  1  0  0  0  0
  3  5  2  0  0  0  0
  3  4  1  0  0  0  0
  4  1  1  0  0  0  0
  5  2  1  0  0  0  0
  6  8  1  0  0  0  0
  8  7  2  0  0  0  0
  9 11  1  0  0  0  0
  9  8  1  0  0  0  0
 10  7  1  0  0  0  0
 11 10  2  0  0  0  0
 12 14  1  0  0  0  0
 14 13  2  0  0  0  0
 15 14  1  0  0  0  0
 16 18  1  0  0  0  0
 18 15  1  0  0  0  0
 18 17  2  0  0  0  0
 19 16  1  0  0  0  0
 20 22  2  0  0  0  0
 21 22  1  0  0  0  0
 22 19  1  0  0  0  0
 23 24  1  1  0  0  0
 23 21  1  0  0  0  0
 24 25  1  0  0  0  0
 26 23  1  0  0  0  0
 27 29  1  6  0  0  0
 27 28  1  0  0  0  0
 27 32  1  0  0  0  0
 28 30  1  0  0  0  0
 30 26  1  6  0  0  0
 30 31  1  0  0  0  0
 31 33  1  6  0  0  0
 32 29  1  6  0  0  0
 32 31  1  0  0  0  0
 33 34  1  0  0  0  0
 34 36  2  0  0  0  0
 34 37  1  0  0  0  0
 34 35  1  0  0  0  0
 38  3  1  0  0  0  0
 39 38  1  0  0  0  0
 40 41  1  0  0  0  0
 40 39  1  0  0  0  0
 42 44  1  0  0  0  0
 43 42  1  0  0  0  0
 43 51  1  1  0  0  0
 43 45  1  0  0  0  0
 44 48  1  6  0  0  0
 44 46  1  0  0  0  0
 44 41  1  0  0  0  0
 45 50  1  6  0  0  0
 45 46  1  0  0  0  0
 48 47  1  0  0  0  0
 50 49  1  0  0  0  0
 52 51  1  0  0  0  0
 52 55  1  0  0  0  0
 55 57  1  0  0  0  0
 56 55  1  0  0  0  0
 56 59  1  0  0  0  0
 57 58  1  0  0  0  0
 58 54  1  6  0  0  0
 59 53  1  1  0  0  0
 59 58  1  0  0  0  0
M  END
>  <MODEL>
5

>  <REMARK>
 VINA RESULT:      -6.2      3.232      8.163
  Name = 
  22 active torsions:
  status: ('A' for Active; 'I' for Inactive)
    1  A    between atoms: C_2  and  C_25
    2  A    between atoms: C_3  and  N_33
    3  A    between atoms: P_6  and  O_19
    4  A    between atoms: N_7  and  C_47
    5  A    between atoms: C_8  and  N_17
    6  A    between atoms: C_15  and  O_34
    7  A    between atoms: C_15  and  C_49
    8  A    between atoms: N_18  and  C_41
    9  A    between atoms: O_19  and  C_48
   10  A    between atoms: C_20  and  C_23
   11  A    between atoms: C_21  and  O_51
   12  A    between atoms: C_22  and  C_23
   13  A    between atoms: C_22  and  O_34
   14  A    between atoms: C_25  and  N_39
   15  A    between atoms: C_25  and  O_51
   16  A    between atoms: C_28  and  C_50
   17  A    between atoms: C_28  and  C_56
   18  A    between atoms: C_29  and  C_55
   19  A    between atoms: C_31  and  C_49
   20  A    between atoms: C_40  and  C_46
   21  A    between atoms: C_41  and  C_46
   22  A    between atoms: C_43  and  C_47
                            x       y       z     vdW  Elec       q    Type
                         _______ _______ _______ _____ _____    ______ ____

>  <TORSDO>
F 22

$$$$
=
 OpenBabel11032420073D

 59 64  0  0  1  0  0  0  0  0999 V2000
  190.5960  176.9850  145.2640 C   0  0  0  0  0  0  0  0  0  0  0  0
  189.4260  177.7210  145.4300 C   0  0  0  0  0  0  0  0  0  0  0  0
  189.7180  177.9440  143.1370 C   0  0  0  0  0  0  0  0  0  0  0  0
  191.0350  177.0210  143.6420 S   0  0  0  0  0  0  0  0  0  0  0  0
  188.9250  178.2710  144.2390 C   0  0  0  0  0  3  0  0  0  0  0  0
  192.4260  174.4680  145.1290 C   0  0  0  0  0  1  0  0  0  0  0  0
  192.8950  175.2510  147.4520 N   0  0  0  0  0  0  0  0  0  0  0  0
  192.2450  175.3970  146.2870 C   0  0  0  0  0  0  0  0  0  0  0  0
  191.4050  176.4490  146.3250 N   0  0  0  0  0  0  0  0  0  0  0  0
  192.4230  176.2740  148.2030 C   0  0  0  0  0  3  0  0  0  0  0  0
  191.5180  177.0010  147.5220 N   0  0  0  0  0  0  0  0  0  0  0  0
  188.7560  177.8710  146.6830 N   0  0  0  0  0  2  0  0  0  0  0  0
  186.8250  178.0020  147.9510 O   0  0  0  0  0  0  0  0  0  0  0  0
  187.3420  177.7480  146.8300 C   0  0  0  0  0  0  0  0  0  0  0  0
  186.4770  177.3710  145.6570 C   0  0  0  0  0  2  0  0  0  0  0  0
  184.5830  178.2260  144.2190 N   0  0  0  0  0  2  0  0  0  0  0  0
  185.4920  179.5210  145.9410 O   0  0  0  0  0  0  0  0  0  0  0  0
  185.4900  178.4330  145.3020 C   0  0  0  0  0  0  0  0  0  0  0  0
  183.6840  179.2800  143.7750 C   0  0  0  0  0  2  0  0  0  0  0  0
  183.7270  178.3500  141.5950 O   0  0  0  0  0  0  0  0  0  0  0  0
  181.6300  179.1370  142.2940 N   0  0  0  0  0  2  0  0  0  0  0  0
  183.0340  178.9130  142.4830 C   0  0  0  0  0  0  0  0  0  0  0  0
  180.7990  178.6230  141.2020 C   0  0  2  0  0  3  0  0  0  0  0  0
  179.4710  177.9900  141.6350 C   0  0  0  0  0  2  0  0  0  0  0  0
  179.3560  177.9340  143.0280 O   0  0  0  0  0  1  0  0  0  0  0  0
  181.5240  177.9860  140.1630 O   0  0  0  0  0  0  0  0  0  0  0  0
  179.9830  180.0860  138.1460 C   0  0  2  0  0  3  0  0  0  0  0  0
  180.8670  179.9810  139.2460 O   0  0  0  0  0  0  0  0  0  0  0  0
  178.9790  178.9430  138.1610 C   0  0  0  0  0  2  0  0  0  0  0  0
  181.7060  178.8570  139.0740 C   0  0  2  0  0  3  0  0  0  0  0  0
  181.3610  178.1890  137.7470 C   0  0  2  0  0  3  0  0  0  0  0  0
  180.1660  178.9260  137.2000 C   0  0  2  0  0  3  0  0  0  0  0  0
  181.0740  176.8180  137.8740 O   0  0  0  0  0  0  0  0  0  0  0  0
  181.4730  176.1200  136.3740 P   0  0  0  0  0  0  0  0  0  0  0  0
  182.7260  177.0140  135.6650 O   0  0  0  0  0  1  0  0  0  0  0  0
  182.0100  174.5320  136.6180 O   0  0  0  0  0  1  0  0  0  0  0  0
  180.2750  176.1200  135.4500 O   0  0  0  0  0  0  0  0  0  0  0  0
  189.5850  178.5040  141.7590 C   0  0  0  0  0  2  0  0  0  0  0  0
  188.4910  177.8240  140.9590 C   0  0  0  0  0  2  0  0  0  0  0  0
  189.0530  176.9350  140.0390 O   0  0  0  0  0  0  0  0  0  0  0  0
  188.3180  177.1320  138.8660 C   0  0  0  0  0  2  0  0  0  0  0  0
  188.9280  176.6850  136.5820 O   0  0  0  0  0  0  0  0  0  0  0  0
  189.8190  175.5930  136.6060 C   0  0  1  0  0  3  0  0  0  0  0  0
  189.2310  177.5050  137.6890 C   0  0  2  0  0  0  0  0  0  0  0  0
  190.8520  175.8070  137.6850 C   0  0  2  0  0  3  0  0  0  0  0  0
  190.6680  177.2430  138.0710 C   0  0  0  0  0  2  0  0  0  0  0  0
  187.7250  179.2570  136.9930 O   0  0  0  0  0  1  0  0  0  0  0  0
  189.0580  178.9710  137.2880 C   0  0  0  0  0  2  0  0  0  0  0  0
  192.2060  175.3560  135.7690 O   0  0  0  0  0  1  0  0  0  0  0  0
  192.2550  175.5450  137.1510 C   0  0  0  0  0  2  0  0  0  0  0  0
  189.0550  174.3060  136.8810 C   0  0  0  0  0  2  0  0  0  0  0  0
  188.9180  173.4940  135.6030 C   0  0  0  0  0  2  0  0  0  0  0  0
  184.6400  171.9210  136.4220 C   0  0  0  0  0  1  0  0  0  0  0  0
  185.3120  175.3760  137.1270 C   0  0  0  0  0  1  0  0  0  0  0  0
  187.5170  173.1670  135.3940 N   0  0  0  0  0  0  0  0  0  0  0  0
  187.0560  172.4460  136.5780 C   0  0  0  0  0  2  0  0  0  0  0  0
  186.7780  174.4240  135.3760 C   0  0  0  0  0  2  0  0  0  0  0  0
  185.4940  174.2260  136.1560 C   0  0  1  0  0  3  0  0  0  0  0  0
  185.6620  172.9280  136.9170 C   0  0  1  0  0  3  0  0  0  0  0  0
  1  2  2  0  0  0  0
  1  9  1  0  0  0  0
  2 12  1  0  0  0  0
  3  4  1  0  0  0  0
  3  5  2  0  0  0  0
  4  1  1  0  0  0  0
  5  2  1  0  0  0  0
  6  8  1  0  0  0  0
  7 10  1  0  0  0  0
  8  9  1  0  0  0  0
  8  7  2  0  0  0  0
  9 11  1  0  0  0  0
 11 10  2  0  0  0  0
 12 14  1  0  0  0  0
 14 13  2  0  0  0  0
 15 14  1  0  0  0  0
 16 18  1  0  0  0  0
 18 15  1  0  0  0  0
 18 17  2  0  0  0  0
 19 16  1  0  0  0  0
 20 22  2  0  0  0  0
 21 22  1  0  0  0  0
 22 19  1  0  0  0  0
 23 24  1  1  0  0  0
 23 21  1  0  0  0  0
 24 25  1  0  0  0  0
 26 23  1  0  0  0  0
 27 29  1  1  0  0  0
 27 28  1  0  0  0  0
 30 28  1  0  0  0  0
 30 26  1  1  0  0  0
 31 33  1  1  0  0  0
 31 30  1  0  0  0  0
 32 31  1  0  0  0  0
 32 27  1  0  0  0  0
 32 29  1  1  0  0  0
 34 36  1  0  0  0  0
 34 33  1  0  0  0  0
 35 34  1  0  0  0  0
 37 34  2  0  0  0  0
 38  3  1  0  0  0  0
 39 38  1  0  0  0  0
 40 39  1  0  0  0  0
 41 40  1  0  0  0  0
 42 43  1  0  0  0  0
 42 44  1  0  0  0  0
 43 51  1  1  0  0  0
 43 45  1  0  0  0  0
 44 48  1  6  0  0  0
 44 46  1  0  0  0  0
 44 41  1  0  0  0  0
 45 50  1  6  0  0  0
 45 46  1  0  0  0  0
 47 48  1  0  0  0  0
 49 50  1  0  0  0  0
 52 51  1  0  0  0  0
 55 52  1  0  0  0  0
 55 56  1  0  0  0  0
 56 59  1  0  0  0  0
 57 55  1  0  0  0  0
 57 58  1  0  0  0  0
 58 59  1  0  0  0  0
 58 54  1  1  0  0  0
 59 53  1  6  0  0  0
M  END
>  <MODEL>
6

>  <REMARK>
 VINA RESULT:      -5.9      3.205      8.647
  Name = 
  22 active torsions:
  status: ('A' for Active; 'I' for Inactive)
    1  A    between atoms: C_2  and  C_25
    2  A    between atoms: C_3  and  N_33
    3  A    between atoms: P_6  and  O_19
    4  A    between atoms: N_7  and  C_47
    5  A    between atoms: C_8  and  N_17
    6  A    between atoms: C_15  and  O_34
    7  A    between atoms: C_15  and  C_49
    8  A    between atoms: N_18  and  C_41
    9  A    between atoms: O_19  and  C_48
   10  A    between atoms: C_20  and  C_23
   11  A    between atoms: C_21  and  O_51
   12  A    between atoms: C_22  and  C_23
   13  A    between atoms: C_22  and  O_34
   14  A    between atoms: C_25  and  N_39
   15  A    between atoms: C_25  and  O_51
   16  A    between atoms: C_28  and  C_50
   17  A    between atoms: C_28  and  C_56
   18  A    between atoms: C_29  and  C_55
   19  A    between atoms: C_31  and  C_49
   20  A    between atoms: C_40  and  C_46
   21  A    between atoms: C_41  and  C_46
   22  A    between atoms: C_43  and  C_47
                            x       y       z     vdW  Elec       q    Type
                         _______ _______ _______ _____ _____    ______ ____

>  <TORSDO>
F 22

$$$$
=
 OpenBabel11032420073D

 59 64  0  0  1  0  0  0  0  0999 V2000
  182.5110  178.6990  141.4640 C   0  0  0  0  0  0  0  0  0  0  0  0
  182.7420  178.9310  140.1110 C   0  0  0  0  0  0  0  0  0  0  0  0
  184.9260  178.9530  140.9010 C   0  0  0  0  0  0  0  0  0  0  0  0
  183.9840  178.6930  142.2740 S   0  0  0  0  0  0  0  0  0  0  0  0
  184.0990  179.0820  139.7830 C   0  0  0  0  0  3  0  0  0  0  0  0
  180.2510  176.6080  140.9900 C   0  0  0  0  0  1  0  0  0  0  0  0
  179.2160  178.0040  142.7820 N   0  0  0  0  0  0  0  0  0  0  0  0
  180.2440  177.7490  141.9570 C   0  0  0  0  0  0  0  0  0  0  0  0
  181.2210  178.6640  142.0990 N   0  0  0  0  0  0  0  0  0  0  0  0
  179.6180  179.1130  143.4470 C   0  0  0  0  0  3  0  0  0  0  0  0
  180.8330  179.5160  143.0340 N   0  0  0  0  0  0  0  0  0  0  0  0
  181.7080  178.9680  139.1260 N   0  0  0  0  0  2  0  0  0  0  0  0
  180.9740  178.7480  136.9420 O   0  0  0  0  0  0  0  0  0  0  0  0
  181.9120  178.5820  137.7670 C   0  0  0  0  0  0  0  0  0  0  0  0
  183.2390  178.0340  137.3160 C   0  0  0  0  0  2  0  0  0  0  0  0
  183.4800  175.5880  137.9060 N   0  0  0  0  0  2  0  0  0  0  0  0
  182.8750  176.2730  135.7540 O   0  0  0  0  0  0  0  0  0  0  0  0
  183.1710  176.5910  136.9380 C   0  0  0  0  0  0  0  0  0  0  0  0
  183.5310  174.1800  137.5450 C   0  0  0  0  0  2  0  0  0  0  0  0
  185.5740  173.0840  138.0400 O   0  0  0  0  0  0  0  0  0  0  0  0
  185.4820  174.0980  135.9260 N   0  0  0  0  0  2  0  0  0  0  0  0
  184.9250  173.7700  137.2070 C   0  0  0  0  0  0  0  0  0  0  0  0
  186.7240  173.5730  135.3490 C   0  0  2  0  0  3  0  0  0  0  0  0
  187.0860  172.1450  135.7720 C   0  0  0  0  0  2  0  0  0  0  0  0
  186.7670  171.2140  134.7770 O   0  0  0  0  0  1  0  0  0  0  0  0
  187.7750  174.5200  135.2600 O   0  0  0  0  0  0  0  0  0  0  0  0
  187.6730  177.5390  136.5750 C   0  0  2  0  0  3  0  0  0  0  0  0
  186.9770  176.3140  136.4430 O   0  0  0  0  0  0  0  0  0  0  0  0
  188.4990  177.8180  135.3280 C   0  0  0  0  0  2  0  0  0  0  0  0
  187.8980  175.2430  136.4610 C   0  0  2  0  0  3  0  0  0  0  0  0
  189.3030  175.8080  136.6430 C   0  0  2  0  0  3  0  0  0  0  0  0
  189.1630  177.3080  136.6050 C   0  0  2  0  0  3  0  0  0  0  0  0
  190.2080  175.3770  135.6560 O   0  0  0  0  0  0  0  0  0  0  0  0
  191.2650  174.2950  136.4370 P   0  0  0  0  0  0  0  0  0  0  0  0
  190.8730  172.7120  135.9770 O   0  0  0  0  0  1  0  0  0  0  0  0
  192.8560  174.6210  135.9590 O   0  0  0  0  0  0  0  0  0  0  0  0
  191.1430  174.4230  137.9400 O   0  0  0  0  0  1  0  0  0  0  0  0
  186.3920  179.2320  140.9480 C   0  0  0  0  0  2  0  0  0  0  0  0
  187.2270  178.0150  140.6000 C   0  0  0  0  0  2  0  0  0  0  0  0
  188.5680  178.3790  140.4540 O   0  0  0  0  0  0  0  0  0  0  0  0
  189.2320  177.1780  140.1920 C   0  0  0  0  0  2  0  0  0  0  0  0
  190.4060  176.0070  141.9360 O   0  0  0  0  0  0  0  0  0  0  0  0
  189.9750  176.5620  143.1570 C   0  0  1  0  0  3  0  0  0  0  0  0
  190.5280  177.0630  141.0090 C   0  0  2  0  0  0  0  0  0  0  0  0
  189.9790  178.0680  143.0590 C   0  0  2  0  0  3  0  0  0  0  0  0
  190.7350  178.3370  141.7930 C   0  0  0  0  0  2  0  0  0  0  0  0
  192.7050  177.7940  140.2700 O   0  0  0  0  0  1  0  0  0  0  0  0
  191.7370  176.8030  140.1090 C   0  0  0  0  0  2  0  0  0  0  0  0
  192.0400  178.4240  144.2140 O   0  0  0  0  0  1  0  0  0  0  0  0
  190.6710  178.6880  144.2670 C   0  0  0  0  0  2  0  0  0  0  0  0
  188.5700  176.0770  143.4810 C   0  0  0  0  0  2  0  0  0  0  0  0
  187.7330  177.2220  144.0300 C   0  0  0  0  0  2  0  0  0  0  0  0
  187.8990  177.2170  148.6580 C   0  0  0  0  0  1  0  0  0  0  0  0
  185.8880  179.7260  147.0630 C   0  0  0  0  0  1  0  0  0  0  0  0
  187.3830  176.9360  145.4120 N   0  0  0  0  0  0  0  0  0  0  0  0
  188.4210  177.5210  146.2560 C   0  0  0  0  0  2  0  0  0  0  0  0
  186.1590  177.6730  145.7090 C   0  0  0  0  0  2  0  0  0  0  0  0
  186.2940  178.2650  147.0970 C   0  0  1  0  0  3  0  0  0  0  0  0
  187.7580  178.1440  147.4650 C   0  0  1  0  0  3  0  0  0  0  0  0
  1  9  1  0  0  0  0
  1  4  1  0  0  0  0
  2  1  2  0  0  0  0
  3 38  1  0  0  0  0
  3  4  1  0  0  0  0
  5  2  1  0  0  0  0
  5  3  2  0  0  0  0
  6  8  1  0  0  0  0
  7 10  1  0  0  0  0
  8  9  1  0  0  0  0
  8  7  2  0  0  0  0
  9 11  1  0  0  0  0
 11 10  2  0  0  0  0
 12  2  1  0  0  0  0
 13 14  2  0  0  0  0
 14 12  1  0  0  0  0
 15 14  1  0  0  0  0
 17 18  2  0  0  0  0
 18 15  1  0  0  0  0
 18 16  1  0  0  0  0
 19 16  1  0  0  0  0
 21 22  1  0  0  0  0
 22 19  1  0  0  0  0
 22 20  2  0  0  0  0
 23 24  1  1  0  0  0
 23 21  1  0  0  0  0
 25 24  1  0  0  0  0
 26 23  1  0  0  0  0
 27 29  1  6  0  0  0
 27 32  1  0  0  0  0
 28 30  1  0  0  0  0
 28 27  1  0  0  0  0
 30 26  1  6  0  0  0
 30 31  1  0  0  0  0
 31 33  1  6  0  0  0
 32 29  1  6  0  0  0
 32 31  1  0  0  0  0
 33 34  1  0  0  0  0
 34 37  1  0  0  0  0
 35 34  1  0  0  0  0
 36 34  2  0  0  0  0
 39 38  1  0  0  0  0
 40 39  1  0  0  0  0
 41 40  1  0  0  0  0
 41 44  1  0  0  0  0
 42 43  1  0  0  0  0
 43 51  1  6  0  0  0
 44 48  1  6  0  0  0
 44 46  1  0  0  0  0
 44 42  1  0  0  0  0
 45 43  1  0  0  0  0
 45 50  1  1  0  0  0
 46 45  1  0  0  0  0
 48 47  1  0  0  0  0
 49 50  1  0  0  0  0
 51 52  1  0  0  0  0
 52 55  1  0  0  0  0
 55 57  1  0  0  0  0
 55 56  1  0  0  0  0
 56 59  1  0  0  0  0
 57 58  1  0  0  0  0
 58 54  1  6  0  0  0
 58 59  1  0  0  0  0
 59 53  1  1  0  0  0
M  END
>  <MODEL>
7

>  <REMARK>
 VINA RESULT:      -5.8      3.860      8.083
  Name = 
  22 active torsions:
  status: ('A' for Active; 'I' for Inactive)
    1  A    between atoms: C_2  and  C_25
    2  A    between atoms: C_3  and  N_33
    3  A    between atoms: P_6  and  O_19
    4  A    between atoms: N_7  and  C_47
    5  A    between atoms: C_8  and  N_17
    6  A    between atoms: C_15  and  O_34
    7  A    between atoms: C_15  and  C_49
    8  A    between atoms: N_18  and  C_41
    9  A    between atoms: O_19  and  C_48
   10  A    between atoms: C_20  and  C_23
   11  A    between atoms: C_21  and  O_51
   12  A    between atoms: C_22  and  C_23
   13  A    between atoms: C_22  and  O_34
   14  A    between atoms: C_25  and  N_39
   15  A    between atoms: C_25  and  O_51
   16  A    between atoms: C_28  and  C_50
   17  A    between atoms: C_28  and  C_56
   18  A    between atoms: C_29  and  C_55
   19  A    between atoms: C_31  and  C_49
   20  A    between atoms: C_40  and  C_46
   21  A    between atoms: C_41  and  C_46
   22  A    between atoms: C_43  and  C_47
                            x       y       z     vdW  Elec       q    Type
                         _______ _______ _______ _____ _____    ______ ____

>  <TORSDO>
F 22

$$$$
=
 OpenBabel11032420073D

 59 64  0  0  1  0  0  0  0  0999 V2000
  189.8910  177.2310  146.2960 C   0  0  0  0  0  0  0  0  0  0  0  0
  189.8990  177.6600  144.9720 C   0  0  0  0  0  0  0  0  0  0  0  0
  187.6100  177.5830  145.3540 C   0  0  0  0  0  0  0  0  0  0  0  0
  188.2980  177.0730  146.8060 S   0  0  0  0  0  0  0  0  0  0  0  0
  188.6190  177.8560  144.4290 C   0  0  0  0  0  3  0  0  0  0  0  0
  191.8980  174.9790  145.5170 C   0  0  0  0  0  1  0  0  0  0  0  0
  192.9410  175.8140  147.6260 N   0  0  0  0  0  0  0  0  0  0  0  0
  191.9580  175.8740  146.7140 C   0  0  0  0  0  0  0  0  0  0  0  0
  191.0430  176.8050  147.0450 N   0  0  0  0  0  0  0  0  0  0  0  0
  192.5910  176.7640  148.5250 C   0  0  0  0  0  3  0  0  0  0  0  0
  191.4400  177.3660  148.1750 N   0  0  0  0  0  0  0  0  0  0  0  0
  191.0920  177.9280  144.2340 N   0  0  0  0  0  2  0  0  0  0  0  0
  192.4660  177.5910  142.4010 O   0  0  0  0  0  0  0  0  0  0  0  0
  191.3420  177.3910  142.9340 C   0  0  0  0  0  0  0  0  0  0  0  0
  190.3020  176.5580  142.2350 C   0  0  0  0  0  2  0  0  0  0  0  0
  190.7280  176.6620  139.7460 N   0  0  0  0  0  2  0  0  0  0  0  0
  189.0230  177.9100  140.7490 O   0  0  0  0  0  0  0  0  0  0  0  0
  189.9620  177.0780  140.8770 C   0  0  0  0  0  0  0  0  0  0  0  0
  190.4970  177.2320  138.4280 C   0  0  0  0  0  2  0  0  0  0  0  0
  189.4270  175.8400  136.8360 O   0  0  0  0  0  0  0  0  0  0  0  0
  191.7560  175.5890  136.9620 N   0  0  0  0  0  2  0  0  0  0  0  0
  190.5120  176.1690  137.3810 C   0  0  0  0  0  0  0  0  0  0  0  0
  191.9730  174.7250  135.7980 C   0  0  2  0  0  3  0  0  0  0  0  0
  191.3370  173.3330  135.8920 C   0  0  0  0  0  2  0  0  0  0  0  0
  190.9410  172.8600  134.6360 O   0  0  0  0  0  1  0  0  0  0  0  0
  193.2690  174.8200  135.2310 O   0  0  0  0  0  0  0  0  0  0  0  0
  196.1220  176.4660  135.2870 C   0  0  2  0  0  3  0  0  0  0  0  0
  194.7150  176.5990  135.2190 O   0  0  0  0  0  0  0  0  0  0  0  0
  196.5690  175.1800  134.6080 C   0  0  0  0  0  2  0  0  0  0  0  0
  194.1080  175.6170  136.0330 C   0  0  2  0  0  3  0  0  0  0  0  0
  195.2020  174.7940  136.7050 C   0  0  2  0  0  3  0  0  0  0  0  0
  196.5080  175.2780  136.1310 C   0  0  2  0  0  3  0  0  0  0  0  0
  195.0610  173.4090  136.5000 O   0  0  0  0  0  0  0  0  0  0  0  0
  195.8000  172.6640  137.8400 P   0  0  0  0  0  0  0  0  0  0  0  0
  197.3850  172.2320  137.4250 O   0  0  0  0  0  0  0  0  0  0  0  0
  195.8560  173.7580  139.1310 O   0  0  0  0  0  1  0  0  0  0  0  0
  195.0350  171.4250  138.2490 O   0  0  0  0  0  1  0  0  0  0  0  0
  186.1460  177.5120  145.0660 C   0  0  0  0  0  2  0  0  0  0  0  0
  185.8030  178.0090  143.6750 C   0  0  0  0  0  2  0  0  0  0  0  0
  184.4270  177.9100  143.4570 O   0  0  0  0  0  0  0  0  0  0  0  0
  184.2740  178.1150  142.0820 C   0  0  0  0  0  2  0  0  0  0  0  0
  182.1970  177.4590  141.0590 O   0  0  0  0  0  0  0  0  0  0  0  0
  182.3360  177.6880  139.6760 C   0  0  1  0  0  3  0  0  0  0  0  0
  182.8350  178.5210  141.7330 C   0  0  2  0  0  0  0  0  0  0  0  0
  182.9480  179.0490  139.4480 C   0  0  2  0  0  3  0  0  0  0  0  0
  182.8660  179.7030  140.7930 C   0  0  0  0  0  2  0  0  0  0  0  0
  181.4210  180.1210  142.8560 O   0  0  0  0  0  1  0  0  0  0  0  0
  182.0310  178.8740  142.9860 C   0  0  0  0  0  2  0  0  0  0  0  0
  181.1270  180.5310  139.0090 O   0  0  0  0  0  1  0  0  0  0  0  0
  182.1640  179.8260  138.3970 C   0  0  0  0  0  2  0  0  0  0  0  0
  183.2270  176.6200  139.0590 C   0  0  0  0  0  2  0  0  0  0  0  0
  182.8260  176.3710  137.6140 C   0  0  0  0  0  2  0  0  0  0  0  0
  186.2880  176.9560  134.5940 C   0  0  0  0  0  1  0  0  0  0  0  0
  186.8870  177.8580  138.0170 C   0  0  0  0  0  1  0  0  0  0  0  0
  184.0180  176.0970  136.8290 N   0  0  0  0  0  0  0  0  0  0  0  0
  184.2150  177.2240  135.9230 C   0  0  0  0  0  2  0  0  0  0  0  0
  185.1530  176.1140  137.7460 C   0  0  0  0  0  2  0  0  0  0  0  0
  186.2960  176.8370  137.0640 C   0  0  1  0  0  3  0  0  0  0  0  0
  185.6940  177.5370  135.8640 C   0  0  1  0  0  3  0  0  0  0  0  0
  1  4  1  0  0  0  0
  1  9  1  0  0  0  0
  2  1  2  0  0  0  0
  3  4  1  0  0  0  0
  5  2  1  0  0  0  0
  5  3  2  0  0  0  0
  6  8  1  0  0  0  0
  7 10  1  0  0  0  0
  8  9  1  0  0  0  0
  8  7  2  0  0  0  0
  9 11  1  0  0  0  0
 11 10  2  0  0  0  0
 12  2  1  0  0  0  0
 13 14  2  0  0  0  0
 14 12  1  0  0  0  0
 15 14  1  0  0  0  0
 16 18  1  0  0  0  0
 17 18  2  0  0  0  0
 18 15  1  0  0  0  0
 19 16  1  0  0  0  0
 20 22  2  0  0  0  0
 21 22  1  0  0  0  0
 22 19  1  0  0  0  0
 23 24  1  1  0  0  0
 23 21  1  0  0  0  0
 25 24  1  0  0  0  0
 26 23  1  0  0  0  0
 27 29  1  6  0  0  0
 27 32  1  0  0  0  0
 28 27  1  0  0  0  0
 28 30  1  0  0  0  0
 30 26  1  6  0  0  0
 30 31  1  0  0  0  0
 31 33  1  6  0  0  0
 32 29  1  6  0  0  0
 32 31  1  0  0  0  0
 33 34  1  0  0  0  0
 34 37  1  0  0  0  0
 34 36  1  0  0  0  0
 35 34  2  0  0  0  0
 38  3  1  0  0  0  0
 39 38  1  0  0  0  0
 40 39  1  0  0  0  0
 41 40  1  0  0  0  0
 42 44  1  0  0  0  0
 43 51  1  1  0  0  0
 43 42  1  0  0  0  0
 44 41  1  1  0  0  0
 44 48  1  0  0  0  0
 45 50  1  6  0  0  0
 45 43  1  0  0  0  0
 45 46  1  0  0  0  0
 46 44  1  0  0  0  0
 47 48  1  0  0  0  0
 50 49  1  0  0  0  0
 52 51  1  0  0  0  0
 55 52  1  0  0  0  0
 55 57  1  0  0  0  0
 56 55  1  0  0  0  0
 58 57  1  0  0  0  0
 58 54  1  1  0  0  0
 59 53  1  6  0  0  0
 59 56  1  0  0  0  0
 59 58  1  0  0  0  0
M  END
>  <MODEL>
8

>  <REMARK>
 VINA RESULT:      -5.6      4.324     10.315
  Name = 
  22 active torsions:
  status: ('A' for Active; 'I' for Inactive)
    1  A    between atoms: C_2  and  C_25
    2  A    between atoms: C_3  and  N_33
    3  A    between atoms: P_6  and  O_19
    4  A    between atoms: N_7  and  C_47
    5  A    between atoms: C_8  and  N_17
    6  A    between atoms: C_15  and  O_34
    7  A    between atoms: C_15  and  C_49
    8  A    between atoms: N_18  and  C_41
    9  A    between atoms: O_19  and  C_48
   10  A    between atoms: C_20  and  C_23
   11  A    between atoms: C_21  and  O_51
   12  A    between atoms: C_22  and  C_23
   13  A    between atoms: C_22  and  O_34
   14  A    between atoms: C_25  and  N_39
   15  A    between atoms: C_25  and  O_51
   16  A    between atoms: C_28  and  C_50
   17  A    between atoms: C_28  and  C_56
   18  A    between atoms: C_29  and  C_55
   19  A    between atoms: C_31  and  C_49
   20  A    between atoms: C_40  and  C_46
   21  A    between atoms: C_41  and  C_46
   22  A    between atoms: C_43  and  C_47
                            x       y       z     vdW  Elec       q    Type
                         _______ _______ _______ _____ _____    ______ ____

>  <TORSDO>
F 22

$$$$
=
 OpenBabel11032420073D

 59 64  0  0  1  0  0  0  0  0999 V2000
  188.3410  175.4700  136.7650 C   0  0  0  0  0  0  0  0  0  0  0  0
  189.0760  176.5170  137.3130 C   0  0  0  0  0  0  0  0  0  0  0  0
  186.9240  177.3340  137.6230 C   0  0  0  0  0  0  0  0  0  0  0  0
  186.7060  175.8500  136.8540 S   0  0  0  0  0  0  0  0  0  0  0  0
  188.2880  177.5750  137.7950 C   0  0  0  0  0  3  0  0  0  0  0  0
  187.6300  172.4700  137.2080 C   0  0  0  0  0  1  0  0  0  0  0  0
  189.2280  172.2860  135.2990 N   0  0  0  0  0  0  0  0  0  0  0  0
  188.5660  173.0400  136.1900 C   0  0  0  0  0  0  0  0  0  0  0  0
  188.8870  174.3410  136.0610 N   0  0  0  0  0  0  0  0  0  0  0  0
  189.9600  173.1910  134.6070 C   0  0  0  0  0  3  0  0  0  0  0  0
  189.7560  174.4380  135.0680 N   0  0  0  0  0  0  0  0  0  0  0  0
  190.5000  176.5090  137.4280 N   0  0  0  0  0  2  0  0  0  0  0  0
  192.4380  176.6840  138.6800 O   0  0  0  0  0  0  0  0  0  0  0  0
  191.1820  176.5890  138.6790 C   0  0  0  0  0  0  0  0  0  0  0  0
  190.4120  176.6100  139.9730 C   0  0  0  0  0  2  0  0  0  0  0  0
  191.1870  175.9140  142.2760 N   0  0  0  0  0  2  0  0  0  0  0  0
  192.0920  177.7780  141.1920 O   0  0  0  0  0  0  0  0  0  0  0  0
  191.2910  176.8040  141.1650 C   0  0  0  0  0  0  0  0  0  0  0  0
  191.9460  176.1380  143.4960 C   0  0  0  0  0  2  0  0  0  0  0  0
  191.6160  178.3470  144.2890 O   0  0  0  0  0  0  0  0  0  0  0  0
  190.1860  176.7370  145.2210 N   0  0  0  0  0  2  0  0  0  0  0  0
  191.2660  177.1400  144.3670 C   0  0  0  0  0  0  0  0  0  0  0  0
  189.2650  177.6170  145.9460 C   0  0  2  0  0  3  0  0  0  0  0  0
  188.7540  177.0670  147.2830 C   0  0  0  0  0  2  0  0  0  0  0  0
  188.6850  178.0650  148.2610 O   0  0  0  0  0  1  0  0  0  0  0  0
  188.3410  178.3060  145.1210 O   0  0  0  0  0  0  0  0  0  0  0  0
  187.3320  177.4840  142.0940 C   0  0  2  0  0  3  0  0  0  0  0  0
  188.1880  177.1250  143.1620 O   0  0  0  0  0  0  0  0  0  0  0  0
  187.1670  178.9950  142.0310 C   0  0  0  0  0  2  0  0  0  0  0  0
  187.5500  177.3980  144.3920 C   0  0  2  0  0  3  0  0  0  0  0  0
  186.1590  177.9550  144.1080 C   0  0  2  0  0  3  0  0  0  0  0  0
  186.0640  178.1140  142.6130 C   0  0  2  0  0  3  0  0  0  0  0  0
  185.9120  179.1840  144.7470 O   0  0  0  0  0  0  0  0  0  0  0  0
  185.1030  178.8010  146.1940 P   0  0  0  0  0  0  0  0  0  0  0  0
  185.6600  179.8240  147.4250 O   0  0  0  0  0  1  0  0  0  0  0  0
  183.4400  179.0520  145.9920 O   0  0  0  0  0  0  0  0  0  0  0  0
  185.3610  177.3630  146.5840 O   0  0  0  0  0  1  0  0  0  0  0  0
  185.8210  178.3140  137.8520 C   0  0  0  0  0  2  0  0  0  0  0  0
  184.5400  177.6470  138.3170 C   0  0  0  0  0  2  0  0  0  0  0  0
  183.6230  178.6140  138.7380 O   0  0  0  0  0  0  0  0  0  0  0  0
  182.6810  177.9020  139.4860 C   0  0  0  0  0  2  0  0  0  0  0  0
  180.3070  178.1150  139.1510 O   0  0  0  0  0  0  0  0  0  0  0  0
  180.1280  178.6900  137.8770 C   0  0  1  0  0  3  0  0  0  0  0  0
  181.4210  178.7420  139.7470 C   0  0  2  0  0  0  0  0  0  0  0  0
  181.0690  179.8580  137.7110 C   0  0  2  0  0  3  0  0  0  0  0  0
  181.5840  180.0960  139.0980 C   0  0  0  0  0  2  0  0  0  0  0  0
  180.6150  180.1640  141.5220 O   0  0  0  0  0  1  0  0  0  0  0  0
  181.1600  178.9100  141.2450 C   0  0  0  0  0  2  0  0  0  0  0  0
  180.3020  182.0790  138.1390 O   0  0  0  0  0  1  0  0  0  0  0  0
  180.3300  181.0760  137.1700 C   0  0  0  0  0  2  0  0  0  0  0  0
  180.4060  177.6560  136.7960 C   0  0  0  0  0  2  0  0  0  0  0  0
  179.3410  176.5690  136.8220 C   0  0  0  0  0  2  0  0  0  0  0  0
  180.2070  172.0890  137.6130 C   0  0  0  0  0  1  0  0  0  0  0  0
  182.3990  173.8440  135.3770 C   0  0  0  0  0  1  0  0  0  0  0  0
  179.9010  175.3690  137.4210 N   0  0  0  0  0  0  0  0  0  0  0  0
  179.2650  174.2230  136.7770 C   0  0  0  0  0  2  0  0  0  0  0  0
  181.3090  175.3130  137.0420 C   0  0  0  0  0  2  0  0  0  0  0  0
  181.6440  173.8780  136.6910 C   0  0  1  0  0  3  0  0  0  0  0  0
  180.3180  173.1610  136.5440 C   0  0  1  0  0  3  0  0  0  0  0  0
  1  4  1  0  0  0  0
  1  2  2  0  0  0  0
  2 12  1  0  0  0  0
  2  5  1  0  0  0  0
  3  5  2  0  0  0  0
  3 38  1  0  0  0  0
  4  3  1  0  0  0  0
  7  8  2  0  0  0  0
  8  6  1  0  0  0  0
  9  8  1  0  0  0  0
  9  1  1  0  0  0  0
 10 11  2  0  0  0  0
 10  7  1  0  0  0  0
 11  9  1  0  0  0  0
 12 14  1  0  0  0  0
 14 13  2  0  0  0  0
 14 15  1  0  0  0  0
 15 18  1  0  0  0  0
 16 19  1  0  0  0  0
 18 17  2  0  0  0  0
 18 16  1  0  0  0  0
 19 22  1  0  0  0  0
 20 22  2  0  0  0  0
 21 23  1  0  0  0  0
 22 21  1  0  0  0  0
 23 24  1  1  0  0  0
 24 25  1  0  0  0  0
 26 23  1  0  0  0  0
 27 29  1  6  0  0  0
 27 32  1  0  0  0  0
 27 28  1  0  0  0  0
 28 30  1  0  0  0  0
 30 26  1  6  0  0  0
 31 30  1  0  0  0  0
 31 33  1  1  0  0  0
 32 29  1  1  0  0  0
 32 31  1  0  0  0  0
 33 34  1  0  0  0  0
 34 37  1  0  0  0  0
 34 35  1  0  0  0  0
 36 34  2  0  0  0  0
 38 39  1  0  0  0  0
 39 40  1  0  0  0  0
 40 41  1  0  0  0  0
 42 44  1  0  0  0  0
 43 51  1  6  0  0  0
 43 42  1  0  0  0  0
 44 41  1  6  0  0  0
 44 48  1  0  0  0  0
 45 50  1  1  0  0  0
 45 43  1  0  0  0  0
 45 46  1  0  0  0  0
 46 44  1  0  0  0  0
 48 47  1  0  0  0  0
 50 49  1  0  0  0  0
 51 52  1  0  0  0  0
 52 55  1  0  0  0  0
 56 55  1  0  0  0  0
 57 55  1  0  0  0  0
 58 54  1  6  0  0  0
 58 57  1  0  0  0  0
 59 58  1  0  0  0  0
 59 56  1  0  0  0  0
 59 53  1  1  0  0  0
M  END
>  <MODEL>
9

>  <REMARK>
 VINA RESULT:      -5.5      3.473      9.688
  Name = 
  22 active torsions:
  status: ('A' for Active; 'I' for Inactive)
    1  A    between atoms: C_2  and  C_25
    2  A    between atoms: C_3  and  N_33
    3  A    between atoms: P_6  and  O_19
    4  A    between atoms: N_7  and  C_47
    5  A    between atoms: C_8  and  N_17
    6  A    between atoms: C_15  and  O_34
    7  A    between atoms: C_15  and  C_49
    8  A    between atoms: N_18  and  C_41
    9  A    between atoms: O_19  and  C_48
   10  A    between atoms: C_20  and  C_23
   11  A    between atoms: C_21  and  O_51
   12  A    between atoms: C_22  and  C_23
   13  A    between atoms: C_22  and  O_34
   14  A    between atoms: C_25  and  N_39
   15  A    between atoms: C_25  and  O_51
   16  A    between atoms: C_28  and  C_50
   17  A    between atoms: C_28  and  C_56
   18  A    between atoms: C_29  and  C_55
   19  A    between atoms: C_31  and  C_49
   20  A    between atoms: C_40  and  C_46
   21  A    between atoms: C_41  and  C_46
   22  A    between atoms: C_43  and  C_47
                            x       y       z     vdW  Elec       q    Type
                         _______ _______ _______ _____ _____    ______ ____

>  <TORSDO>
F 22

$$$$
