=
 OpenBabel11032419083D

 42 46  0  0  1  0  0  0  0  0999 V2000
  186.9690  178.2080  146.4940 C   0  0  0  0  0  0  0  0  0  0  0  0
  185.6820  178.7240  146.6740 C   0  0  0  0  0  3  0  0  0  0  0  0
  187.3530  177.6990  145.2370 C   0  0  0  0  0  0  0  0  0  0  0  0
  187.8560  178.1870  147.5220 N   0  0  0  0  0  0  0  0  0  0  0  0
  189.4890  177.1660  146.1120 C   0  0  0  0  0  0  0  0  0  0  0  0
  185.1570  178.2120  144.3550 C   0  0  0  0  0  0  0  0  0  0  0  0
  188.6070  177.2030  145.0740 N   0  0  0  0  0  0  0  0  0  0  0  0
  186.4500  177.7070  144.1730 C   0  0  0  0  0  3  0  0  0  0  0  0
  184.7790  178.7280  145.6060 C   0  0  0  0  0  3  0  0  0  0  0  0
  189.1070  177.6800  147.3570 C   0  0  0  0  0  3  0  0  0  0  0  0
  184.5770  179.1210  139.4910 N   0  0  0  0  0  2  0  0  0  0  0  0
  182.9610  179.0640  143.4390 C   0  0  2  0  0  3  0  0  0  0  0  0
  182.2200  178.6050  144.6870 C   0  0  0  0  0  1  0  0  0  0  0  0
  180.9930  179.8420  142.3290 F   0  0  0  0  0  0  0  0  0  0  0  0
  182.0290  178.9310  142.2390 C   0  0  1  0  0  3  0  0  0  0  0  0
  184.9330  178.6590  141.9350 C   0  0  0  0  0  2  0  0  0  0  0  0
  184.0030  178.9230  140.7840 C   0  0  0  0  0  0  0  0  0  0  0  0
  184.2050  178.2020  143.1960 C   0  0  1  0  0  3  0  0  0  0  0  0
  182.7280  179.1150  140.9670 N   0  0  0  0  0  0  0  0  0  0  0  0
  183.7690  179.3440  138.3000 C   0  0  0  0  0  2  0  0  0  0  0  0
  183.0290  178.1950  138.0060 O   0  0  0  0  0  0  0  0  0  0  0  0
  184.2810  177.1290  136.4340 C   0  0  0  0  0  2  0  0  0  0  0  0
  183.3750  174.8360  136.2170 C   0  0  0  0  0  2  0  0  0  0  0  0
  183.3700  175.9610  138.4110 C   0  0  0  0  0  2  0  0  0  0  0  0
  182.6060  175.1710  137.4260 N   0  0  0  0  0  0  0  0  0  0  0  0
  183.9470  177.2060  137.8630 N   0  0  0  0  0  0  0  0  0  0  0  0
  184.6130  175.7100  136.0120 C   0  0  0  0  0  2  0  0  0  0  0  0
  181.4070  175.8960  137.0310 C   0  0  0  0  0  1  0  0  0  0  0  0
  190.8740  176.6250  145.9260 C   0  0  2  0  0  3  0  0  0  0  0  0
  191.5320  176.4320  147.2760 C   0  0  0  0  0  1  0  0  0  0  0  0
  191.6890  177.5220  145.1170 N   0  0  0  0  0  2  0  0  0  0  0  0
  191.6390  177.5060  143.7150 C   0  0  0  0  0  0  0  0  0  0  0  0
  191.6150  177.4860  142.5100 C   0  0  0  0  0  0  0  0  0  0  0  0
  189.5110  178.3830  138.2640 C   0  0  0  0  0  2  0  0  0  0  0  0
  188.1700  178.3370  138.8670 N   0  0  0  0  0  0  0  0  0  0  0  0
  187.5200  177.0670  138.5600 C   0  0  0  0  0  1  0  0  0  0  0  0
  190.4710  177.3520  138.8690 C   0  0  0  0  0  2  0  0  0  0  0  0
  188.2330  178.5390  140.3220 C   0  0  0  0  0  2  0  0  0  0  0  0
  192.9430  177.3490  140.3890 C   0  0  0  0  0  1  0  0  0  0  0  0
  190.4740  177.4750  140.3620 C   0  0  0  0  0  0  0  0  0  0  0  0
  189.1320  177.5170  141.0280 C   0  0  0  0  0  2  0  0  0  0  0  0
  191.6170  177.4420  141.0680 C   0  0  0  0  0  0  0  0  0  0  0  0
  1  2  1  0  0  0  0
  1  4  1  0  0  0  0
  3  1  2  0  0  0  0
  5 10  1  0  0  0  0
  6  9  1  0  0  0  0
  7  3  1  0  0  0  0
  7  5  2  0  0  0  0
  8  6  2  0  0  0  0
  8  3  1  0  0  0  0
  9  2  2  0  0  0  0
 10  4  2  0  0  0  0
 11 17  1  0  0  0  0
 12 13  1  1  0  0  0
 15 14  1  1  0  0  0
 15 12  1  0  0  0  0
 16 18  1  0  0  0  0
 17 19  2  0  0  0  0
 17 16  1  0  0  0  0
 18 12  1  0  0  0  0
 18  6  1  1  0  0  0
 19 15  1  0  0  0  0
 20 11  1  0  0  0  0
 21 20  1  0  0  0  0
 22 26  1  0  0  0  0
 23 25  1  0  0  0  0
 25 24  1  0  0  0  0
 26 21  1  0  0  0  0
 26 24  1  0  0  0  0
 27 23  1  0  0  0  0
 27 22  1  0  0  0  0
 28 25  1  0  0  0  0
 29  5  1  0  0  0  0
 29 30  1  1  0  0  0
 31 29  1  0  0  0  0
 32 31  1  0  0  0  0
 33 32  3  0  0  0  0
 34 35  1  0  0  0  0
 34 37  1  0  0  0  0
 35 38  1  0  0  0  0
 36 35  1  0  0  0  0
 37 40  1  0  0  0  0
 38 41  1  0  0  0  0
 39 42  1  0  0  0  0
 40 41  1  0  0  0  0
 40 42  2  0  0  0  0
 42 33  1  0  0  0  0
M  END
>  <MODEL>
1

>  <REMARK>
 VINA RESULT:      -9.8      0.000      0.000
  Name = 
  8 active torsions:
  status: ('A' for Active; 'I' for Inactive)
    1  A    between atoms: N_4  and  C_5
    2  A    between atoms: N_4  and  C_21
    3  A    between atoms: C_5  and  C_22
    4  A    between atoms: C_6  and  N_9
    5  A    between atoms: C_6  and  O_18
    6  A    between atoms: O_18  and  N_23
    7  A    between atoms: C_25  and  C_37
    8  A    between atoms: C_41  and  C_42
                            x       y       z     vdW  Elec       q    Type
                         _______ _______ _______ _____ _____    ______ ____

>  <TORSDO>
F 8

$$$$
=
 OpenBabel11032419083D

 42 46  0  0  1  0  0  0  0  0999 V2000
  184.3640  178.6130  144.4840 C   0  0  0  0  0  0  0  0  0  0  0  0
  185.3860  178.4680  145.4290 C   0  0  0  0  0  3  0  0  0  0  0  0
  184.6590  178.5120  143.1090 C   0  0  0  0  0  0  0  0  0  0  0  0
  183.0870  178.8550  144.8770 N   0  0  0  0  0  0  0  0  0  0  0  0
  182.3800  178.9130  142.5990 C   0  0  0  0  0  0  0  0  0  0  0  0
  186.9930  178.1380  143.6340 C   0  0  0  0  0  0  0  0  0  0  0  0
  183.6580  178.6520  142.2020 N   0  0  0  0  0  0  0  0  0  0  0  0
  185.9680  178.2710  142.6890 C   0  0  0  0  0  3  0  0  0  0  0  0
  186.6970  178.2300  145.0040 C   0  0  0  0  0  3  0  0  0  0  0  0
  182.0900  179.0040  143.9650 C   0  0  0  0  0  3  0  0  0  0  0  0
  189.8580  176.9040  139.7490 N   0  0  0  0  0  2  0  0  0  0  0  0
  189.1040  176.7840  143.9460 C   0  0  2  0  0  3  0  0  0  0  0  0
  189.1470  177.1250  145.4290 C   0  0  0  0  0  1  0  0  0  0  0  0
  191.1460  175.5430  143.9810 F   0  0  0  0  0  0  0  0  0  0  0  0
  190.5340  176.6540  143.4320 C   0  0  1  0  0  3  0  0  0  0  0  0
  188.3660  177.5430  141.6670 C   0  0  0  0  0  2  0  0  0  0  0  0
  189.6850  177.0290  141.1620 C   0  0  0  0  0  0  0  0  0  0  0  0
  188.3920  177.8860  143.1540 C   0  0  1  0  0  3  0  0  0  0  0  0
  190.5960  176.5710  141.9720 N   0  0  0  0  0  0  0  0  0  0  0  0
  191.1060  176.4550  139.1480 C   0  0  0  0  0  2  0  0  0  0  0  0
  190.9010  175.2510  138.4680 O   0  0  0  0  0  0  0  0  0  0  0  0
  192.8450  176.1720  137.7270 C   0  0  0  0  0  2  0  0  0  0  0  0
  192.9270  175.8200  135.2790 C   0  0  0  0  0  2  0  0  0  0  0  0
  191.8930  174.1200  136.7350 C   0  0  0  0  0  2  0  0  0  0  0  0
  191.7790  174.9270  135.5050 N   0  0  0  0  0  0  0  0  0  0  0  0
  192.1140  174.9190  137.9590 N   0  0  0  0  0  0  0  0  0  0  0  0
  193.7700  176.0680  136.5290 C   0  0  0  0  0  2  0  0  0  0  0  0
  190.5650  175.7300  135.5490 C   0  0  0  0  0  1  0  0  0  0  0  0
  181.2780  179.0590  141.5940 C   0  0  2  0  0  3  0  0  0  0  0  0
  180.0280  179.5690  142.2800 C   0  0  0  0  0  1  0  0  0  0  0  0
  180.9850  177.7890  140.9420 N   0  0  0  0  0  2  0  0  0  0  0  0
  181.8200  177.2560  139.9490 C   0  0  0  0  0  0  0  0  0  0  0  0
  182.5480  176.7870  139.1100 C   0  0  0  0  0  0  0  0  0  0  0  0
  186.8980  176.3560  137.0720 C   0  0  0  0  0  2  0  0  0  0  0  0
  187.2780  177.7160  137.4840 N   0  0  0  0  0  0  0  0  0  0  0  0
  187.1890  178.6320  136.3510 C   0  0  0  0  0  1  0  0  0  0  0  0
  185.4260  176.2480  136.6580 C   0  0  0  0  0  2  0  0  0  0  0  0
  186.4330  178.1920  138.5900 C   0  0  0  0  0  2  0  0  0  0  0  0
  183.0330  174.8770  137.5620 C   0  0  0  0  0  1  0  0  0  0  0  0
  184.5530  176.8200  137.7320 C   0  0  0  0  0  0  0  0  0  0  0  0
  184.9380  178.1720  138.2520 C   0  0  0  0  0  2  0  0  0  0  0  0
  183.4280  176.2000  138.1290 C   0  0  0  0  0  0  0  0  0  0  0  0
  1  4  1  0  0  0  0
  1  2  2  0  0  0  0
  3  1  1  0  0  0  0
  5 10  1  0  0  0  0
  6  9  2  0  0  0  0
  7  5  2  0  0  0  0
  7  3  1  0  0  0  0
  8  3  2  0  0  0  0
  8  6  1  0  0  0  0
  9  2  1  0  0  0  0
 10  4  2  0  0  0  0
 11 17  1  0  0  0  0
 12 13  1  1  0  0  0
 15 12  1  0  0  0  0
 15 14  1  1  0  0  0
 16 18  1  0  0  0  0
 17 16  1  0  0  0  0
 17 19  2  0  0  0  0
 18  6  1  1  0  0  0
 18 12  1  0  0  0  0
 19 15  1  0  0  0  0
 20 11  1  0  0  0  0
 21 20  1  0  0  0  0
 22 26  1  0  0  0  0
 23 25  1  0  0  0  0
 23 27  1  0  0  0  0
 24 26  1  0  0  0  0
 25 28  1  0  0  0  0
 25 24  1  0  0  0  0
 26 21  1  0  0  0  0
 27 22  1  0  0  0  0
 29 30  1  1  0  0  0
 29  5  1  0  0  0  0
 31 29  1  0  0  0  0
 32 31  1  0  0  0  0
 33 32  3  0  0  0  0
 34 35  1  0  0  0  0
 35 38  1  0  0  0  0
 36 35  1  0  0  0  0
 37 34  1  0  0  0  0
 37 40  1  0  0  0  0
 39 42  1  0  0  0  0
 40 42  2  0  0  0  0
 40 41  1  0  0  0  0
 41 38  1  0  0  0  0
 42 33  1  0  0  0  0
M  END
>  <MODEL>
2

>  <REMARK>
 VINA RESULT:      -9.2      3.223      7.475
  Name = 
  8 active torsions:
  status: ('A' for Active; 'I' for Inactive)
    1  A    between atoms: N_4  and  C_5
    2  A    between atoms: N_4  and  C_21
    3  A    between atoms: C_5  and  C_22
    4  A    between atoms: C_6  and  N_9
    5  A    between atoms: C_6  and  O_18
    6  A    between atoms: O_18  and  N_23
    7  A    between atoms: C_25  and  C_37
    8  A    between atoms: C_41  and  C_42
                            x       y       z     vdW  Elec       q    Type
                         _______ _______ _______ _____ _____    ______ ____

>  <TORSDO>
F 8

$$$$
=
 OpenBabel11032419083D

 42 46  0  0  1  0  0  0  0  0999 V2000
  184.2640  178.6140  144.2580 C   0  0  0  0  0  0  0  0  0  0  0  0
  185.2620  178.4920  145.2300 C   0  0  0  0  0  3  0  0  0  0  0  0
  184.5900  178.4750  142.8940 C   0  0  0  0  0  0  0  0  0  0  0  0
  182.9790  178.8710  144.6130 N   0  0  0  0  0  0  0  0  0  0  0  0
  182.3260  178.8690  142.3180 C   0  0  0  0  0  0  0  0  0  0  0  0
  186.9100  178.1080  143.4830 C   0  0  0  0  0  0  0  0  0  0  0  0
  183.6110  178.5940  141.9590 N   0  0  0  0  0  0  0  0  0  0  0  0
  185.9080  178.2190  142.5110 C   0  0  0  0  0  3  0  0  0  0  0  0
  186.5810  178.2380  144.8430 C   0  0  0  0  0  3  0  0  0  0  0  0
  182.0040  178.9980  143.6740 C   0  0  0  0  0  3  0  0  0  0  0  0
  189.8760  176.8810  139.6720 N   0  0  0  0  0  2  0  0  0  0  0  0
  188.9870  176.7140  143.8420 C   0  0  2  0  0  3  0  0  0  0  0  0
  188.9890  177.0330  145.3300 C   0  0  0  0  0  1  0  0  0  0  0  0
  191.0060  175.4380  143.9220 F   0  0  0  0  0  0  0  0  0  0  0  0
  190.4300  176.5670  143.3710 C   0  0  1  0  0  3  0  0  0  0  0  0
  188.3350  177.5180  141.5520 C   0  0  0  0  0  2  0  0  0  0  0  0
  189.6600  176.9890  141.0810 C   0  0  0  0  0  0  0  0  0  0  0  0
  188.3190  177.8390  143.0440 C   0  0  1  0  0  3  0  0  0  0  0  0
  190.5370  176.5030  141.9130 N   0  0  0  0  0  0  0  0  0  0  0  0
  191.1340  176.4200  139.1040 C   0  0  0  0  0  2  0  0  0  0  0  0
  190.9310  175.2260  138.4050 O   0  0  0  0  0  0  0  0  0  0  0  0
  192.9140  176.1130  137.7260 C   0  0  0  0  0  2  0  0  0  0  0  0
  193.0780  175.7340  135.2850 C   0  0  0  0  0  2  0  0  0  0  0  0
  191.9690  174.0630  136.7190 C   0  0  0  0  0  2  0  0  0  0  0  0
  191.9110  174.8600  135.4790 N   0  0  0  0  0  0  0  0  0  0  0  0
  192.1570  174.8720  137.9430 N   0  0  0  0  0  0  0  0  0  0  0  0
  193.8790  175.9830  136.5630 C   0  0  0  0  0  2  0  0  0  0  0  0
  190.7070  175.6790  135.4710 C   0  0  0  0  0  1  0  0  0  0  0  0
  181.2490  178.9910  141.2840 C   0  0  2  0  0  3  0  0  0  0  0  0
  180.1240  178.0280  141.6040 C   0  0  0  0  0  1  0  0  0  0  0  0
  181.7600  178.7070  139.9500 N   0  0  0  0  0  2  0  0  0  0  0  0
  181.3440  179.4370  138.8270 C   0  0  0  0  0  0  0  0  0  0  0  0
  180.9970  180.0520  137.8490 C   0  0  0  0  0  0  0  0  0  0  0  0
  180.8670  184.0590  135.1670 C   0  0  0  0  0  2  0  0  0  0  0  0
  181.0220  184.9140  136.3540 N   0  0  0  0  0  0  0  0  0  0  0  0
  179.7390  185.5020  136.7250 C   0  0  0  0  0  1  0  0  0  0  0  0
  179.9900  182.8300  135.4290 C   0  0  0  0  0  2  0  0  0  0  0  0
  181.5820  184.1590  137.4860 C   0  0  0  0  0  2  0  0  0  0  0  0
  180.2830  179.9430  135.4490 C   0  0  0  0  0  1  0  0  0  0  0  0
  180.4850  182.1000  136.6400 C   0  0  0  0  0  0  0  0  0  0  0  0
  180.7400  182.9330  137.8600 C   0  0  0  0  0  2  0  0  0  0  0  0
  180.5920  180.7600  136.6600 C   0  0  0  0  0  0  0  0  0  0  0  0
  1  4  1  0  0  0  0
  1  2  2  0  0  0  0
  3  1  1  0  0  0  0
  5 10  1  0  0  0  0
  6  9  2  0  0  0  0
  7  5  2  0  0  0  0
  7  3  1  0  0  0  0
  8  3  2  0  0  0  0
  8  6  1  0  0  0  0
  9  2  1  0  0  0  0
 10  4  2  0  0  0  0
 11 17  1  0  0  0  0
 12 13  1  1  0  0  0
 15 12  1  0  0  0  0
 15 14  1  1  0  0  0
 16 18  1  0  0  0  0
 17 16  1  0  0  0  0
 17 19  2  0  0  0  0
 18  6  1  1  0  0  0
 18 12  1  0  0  0  0
 19 15  1  0  0  0  0
 20 11  1  0  0  0  0
 21 20  1  0  0  0  0
 22 26  1  0  0  0  0
 23 25  1  0  0  0  0
 23 27  1  0  0  0  0
 24 26  1  0  0  0  0
 25 24  1  0  0  0  0
 26 21  1  0  0  0  0
 27 22  1  0  0  0  0
 28 25  1  0  0  0  0
 29 30  1  1  0  0  0
 29  5  1  0  0  0  0
 31 29  1  0  0  0  0
 32 31  1  0  0  0  0
 33 32  3  0  0  0  0
 34 37  1  0  0  0  0
 34 35  1  0  0  0  0
 35 36  1  0  0  0  0
 35 38  1  0  0  0  0
 37 40  1  0  0  0  0
 38 41  1  0  0  0  0
 39 42  1  0  0  0  0
 40 42  2  0  0  0  0
 40 41  1  0  0  0  0
 42 33  1  0  0  0  0
M  END
>  <MODEL>
3

>  <REMARK>
 VINA RESULT:      -9.2      4.124      8.851
  Name = 
  8 active torsions:
  status: ('A' for Active; 'I' for Inactive)
    1  A    between atoms: N_4  and  C_5
    2  A    between atoms: N_4  and  C_21
    3  A    between atoms: C_5  and  C_22
    4  A    between atoms: C_6  and  N_9
    5  A    between atoms: C_6  and  O_18
    6  A    between atoms: O_18  and  N_23
    7  A    between atoms: C_25  and  C_37
    8  A    between atoms: C_41  and  C_42
                            x       y       z     vdW  Elec       q    Type
                         _______ _______ _______ _____ _____    ______ ____

>  <TORSDO>
F 8

$$$$
=
 OpenBabel11032419083D

 42 46  0  0  1  0  0  0  0  0999 V2000
  190.4060  177.1770  142.5830 C   0  0  0  0  0  0  0  0  0  0  0  0
  190.4140  177.1020  143.9800 C   0  0  0  0  0  3  0  0  0  0  0  0
  189.1900  177.3730  141.8970 C   0  0  0  0  0  0  0  0  0  0  0  0
  191.5590  177.0580  141.8770 N   0  0  0  0  0  0  0  0  0  0  0  0
  190.3530  177.3080  139.8340 C   0  0  0  0  0  0  0  0  0  0  0  0
  188.0010  177.4020  144.0060 C   0  0  0  0  0  0  0  0  0  0  0  0
  189.1960  177.4460  140.5400 N   0  0  0  0  0  0  0  0  0  0  0  0
  187.9950  177.4890  142.6080 C   0  0  0  0  0  3  0  0  0  0  0  0
  189.2140  177.2160  144.6890 C   0  0  0  0  0  3  0  0  0  0  0  0
  191.5580  177.1220  140.5190 C   0  0  0  0  0  3  0  0  0  0  0  0
  183.1980  178.6950  143.7110 N   0  0  0  0  0  2  0  0  0  0  0  0
  186.8010  178.4260  145.9810 C   0  0  2  0  0  3  0  0  0  0  0  0
  187.8650  177.9120  146.9400 C   0  0  0  0  0  1  0  0  0  0  0  0
  185.4430  179.3780  147.7010 F   0  0  0  0  0  0  0  0  0  0  0  0
  185.4550  178.4270  146.6980 C   0  0  1  0  0  3  0  0  0  0  0  0
  185.6220  178.0370  143.7960 C   0  0  0  0  0  2  0  0  0  0  0  0
  184.3560  178.4310  144.5050 C   0  0  0  0  0  0  0  0  0  0  0  0
  186.7020  177.5250  144.7450 C   0  0  1  0  0  3  0  0  0  0  0  0
  184.3370  178.6700  145.7850 N   0  0  0  0  0  0  0  0  0  0  0  0
  181.9110  179.0440  144.2940 C   0  0  0  0  0  2  0  0  0  0  0  0
  180.8840  178.7460  143.3930 O   0  0  0  0  0  0  0  0  0  0  0  0
  179.6400  180.4780  142.5990 C   0  0  0  0  0  2  0  0  0  0  0  0
  178.9310  179.8700  140.3060 C   0  0  0  0  0  2  0  0  0  0  0  0
  181.1350  179.1500  141.1470 C   0  0  0  0  0  2  0  0  0  0  0  0
  179.8940  178.7660  140.4470 N   0  0  0  0  0  0  0  0  0  0  0  0
  180.9100  179.7490  142.4800 N   0  0  0  0  0  0  0  0  0  0  0  0
  179.1870  181.0360  141.2620 C   0  0  0  0  0  2  0  0  0  0  0  0
  179.2460  177.6690  141.1520 C   0  0  0  0  0  1  0  0  0  0  0  0
  190.3550  177.3980  138.3380 C   0  0  2  0  0  3  0  0  0  0  0  0
  189.3280  178.4160  137.8860 C   0  0  0  0  0  1  0  0  0  0  0  0
  190.0520  176.1080  137.7300 N   0  0  0  0  0  2  0  0  0  0  0  0
  191.0630  175.1990  137.3810 C   0  0  0  0  0  0  0  0  0  0  0  0
  191.9170  174.4050  137.0750 C   0  0  0  0  0  0  0  0  0  0  0  0
  196.1230  172.1650  137.8180 C   0  0  0  0  0  2  0  0  0  0  0  0
  196.6550  173.3130  138.5680 N   0  0  0  0  0  0  0  0  0  0  0  0
  197.5750  174.0800  137.7330 C   0  0  0  0  0  1  0  0  0  0  0  0
  195.2440  172.5820  136.6340 C   0  0  0  0  0  2  0  0  0  0  0  0
  195.5710  174.1780  139.0580 C   0  0  0  0  0  2  0  0  0  0  0  0
  192.4740  172.3130  135.8120 C   0  0  0  0  0  1  0  0  0  0  0  0
  194.1920  173.5440  137.0960 C   0  0  0  0  0  0  0  0  0  0  0  0
  194.6640  174.6930  137.9350 C   0  0  0  0  0  2  0  0  0  0  0  0
  192.9150  173.4370  136.6900 C   0  0  0  0  0  0  0  0  0  0  0  0
  1  2  2  0  0  0  0
  2  9  1  0  0  0  0
  3  1  1  0  0  0  0
  3  8  2  0  0  0  0
  4  1  1  0  0  0  0
  5 10  1  0  0  0  0
  5  7  2  0  0  0  0
  6  9  2  0  0  0  0
  7  3  1  0  0  0  0
  8  6  1  0  0  0  0
 10  4  2  0  0  0  0
 11 20  1  0  0  0  0
 11 17  1  0  0  0  0
 12 15  1  0  0  0  0
 12 13  1  1  0  0  0
 15 14  1  1  0  0  0
 16 17  1  0  0  0  0
 16 18  1  0  0  0  0
 17 19  2  0  0  0  0
 18  6  1  6  0  0  0
 18 12  1  0  0  0  0
 19 15  1  0  0  0  0
 21 20  1  0  0  0  0
 23 25  1  0  0  0  0
 23 27  1  0  0  0  0
 24 26  1  0  0  0  0
 25 24  1  0  0  0  0
 25 28  1  0  0  0  0
 26 22  1  0  0  0  0
 26 21  1  0  0  0  0
 27 22  1  0  0  0  0
 29 30  1  1  0  0  0
 29  5  1  0  0  0  0
 31 29  1  0  0  0  0
 32 31  1  0  0  0  0
 33 32  3  0  0  0  0
 34 35  1  0  0  0  0
 35 38  1  0  0  0  0
 36 35  1  0  0  0  0
 37 40  1  0  0  0  0
 37 34  1  0  0  0  0
 39 42  1  0  0  0  0
 40 41  1  0  0  0  0
 41 38  1  0  0  0  0
 42 33  1  0  0  0  0
 42 40  2  0  0  0  0
M  END
>  <MODEL>
4

>  <REMARK>
 VINA RESULT:      -9.1      3.681      6.506
  Name = 
  8 active torsions:
  status: ('A' for Active; 'I' for Inactive)
    1  A    between atoms: N_4  and  C_5
    2  A    between atoms: N_4  and  C_21
    3  A    between atoms: C_5  and  C_22
    4  A    between atoms: C_6  and  N_9
    5  A    between atoms: C_6  and  O_18
    6  A    between atoms: O_18  and  N_23
    7  A    between atoms: C_25  and  C_37
    8  A    between atoms: C_41  and  C_42
                            x       y       z     vdW  Elec       q    Type
                         _______ _______ _______ _____ _____    ______ ____

>  <TORSDO>
F 8

$$$$
=
 OpenBabel11032419083D

 42 46  0  0  1  0  0  0  0  0999 V2000
  185.6370  178.4580  144.9300 C   0  0  0  0  0  0  0  0  0  0  0  0
  184.3990  178.9490  145.3570 C   0  0  0  0  0  3  0  0  0  0  0  0
  185.8060  178.0420  143.5940 C   0  0  0  0  0  0  0  0  0  0  0  0
  186.6820  178.3730  145.7920 N   0  0  0  0  0  0  0  0  0  0  0  0
  188.0560  177.4690  144.0640 C   0  0  0  0  0  0  0  0  0  0  0  0
  183.4950  178.5950  143.1260 C   0  0  0  0  0  0  0  0  0  0  0  0
  187.0140  177.5690  143.1920 N   0  0  0  0  0  0  0  0  0  0  0  0
  184.7390  178.1150  142.6970 C   0  0  0  0  0  3  0  0  0  0  0  0
  183.3310  179.0190  144.4560 C   0  0  0  0  0  3  0  0  0  0  0  0
  187.8870  177.8910  145.3880 C   0  0  0  0  0  3  0  0  0  0  0  0
  182.0280  180.1520  138.6260 N   0  0  0  0  0  2  0  0  0  0  0  0
  181.1150  179.3370  142.7140 C   0  0  2  0  0  3  0  0  0  0  0  0
  180.6360  178.6220  143.9690 C   0  0  0  0  0  1  0  0  0  0  0  0
  178.9310  180.0590  142.0660 F   0  0  0  0  0  0  0  0  0  0  0  0
  180.0060  179.2870  141.6680 C   0  0  1  0  0  3  0  0  0  0  0  0
  182.8290  179.3710  140.8770 C   0  0  0  0  0  2  0  0  0  0  0  0
  181.6990  179.7040  139.9430 C   0  0  0  0  0  0  0  0  0  0  0  0
  182.3640  178.6580  142.1430 C   0  0  1  0  0  3  0  0  0  0  0  0
  180.4620  179.7310  140.3500 N   0  0  0  0  0  0  0  0  0  0  0  0
  181.0150  180.4630  137.6280 C   0  0  0  0  0  2  0  0  0  0  0  0
  181.3060  181.6890  137.0210 O   0  0  0  0  0  0  0  0  0  0  0  0
  179.5320  182.7620  137.9590 C   0  0  0  0  0  2  0  0  0  0  0  0
  179.6160  185.1120  137.1860 C   0  0  0  0  0  2  0  0  0  0  0  0
  181.7090  183.8740  137.5960 C   0  0  0  0  0  2  0  0  0  0  0  0
  180.9550  184.7580  136.6870 N   0  0  0  0  0  0  0  0  0  0  0  0
  180.9960  182.6280  137.9490 N   0  0  0  0  0  0  0  0  0  0  0  0
  179.1020  184.1800  138.2830 C   0  0  0  0  0  2  0  0  0  0  0  0
  180.8150  184.1260  135.3830 C   0  0  0  0  0  1  0  0  0  0  0  0
  189.3890  176.9540  143.6140 C   0  0  2  0  0  3  0  0  0  0  0  0
  190.3040  176.7900  144.8100 C   0  0  0  0  0  1  0  0  0  0  0  0
  190.0090  177.8590  142.6550 N   0  0  0  0  0  2  0  0  0  0  0  0
  190.1820  177.5060  141.3080 C   0  0  0  0  0  0  0  0  0  0  0  0
  190.3190  177.1850  140.1540 C   0  0  0  0  0  0  0  0  0  0  0  0
  188.9670  177.4300  135.5310 C   0  0  0  0  0  2  0  0  0  0  0  0
  187.6060  177.8470  135.9030 N   0  0  0  0  0  0  0  0  0  0  0  0
  186.6820  176.7230  135.7820 C   0  0  0  0  0  1  0  0  0  0  0  0
  189.5580  176.3960  136.4950 C   0  0  0  0  0  2  0  0  0  0  0  0
  187.5700  178.3910  137.2690 C   0  0  0  0  0  2  0  0  0  0  0  0
  191.7750  176.2140  138.3590 C   0  0  0  0  0  1  0  0  0  0  0  0
  189.4400  176.8900  137.9050 C   0  0  0  0  0  0  0  0  0  0  0  0
  188.0940  177.4050  138.3180 C   0  0  0  0  0  2  0  0  0  0  0  0
  190.4570  176.7770  138.7770 C   0  0  0  0  0  0  0  0  0  0  0  0
  1  2  1  0  0  0  0
  1  4  1  0  0  0  0
  3  1  2  0  0  0  0
  5 10  1  0  0  0  0
  6  9  1  0  0  0  0
  7  3  1  0  0  0  0
  7  5  2  0  0  0  0
  8  6  2  0  0  0  0
  8  3  1  0  0  0  0
  9  2  2  0  0  0  0
 10  4  2  0  0  0  0
 11 17  1  0  0  0  0
 12 13  1  1  0  0  0
 15 14  1  1  0  0  0
 15 12  1  0  0  0  0
 16 18  1  0  0  0  0
 17 19  2  0  0  0  0
 17 16  1  0  0  0  0
 18 12  1  0  0  0  0
 18  6  1  1  0  0  0
 19 15  1  0  0  0  0
 20 11  1  0  0  0  0
 21 20  1  0  0  0  0
 21 26  1  0  0  0  0
 22 27  1  0  0  0  0
 23 27  1  0  0  0  0
 24 26  1  0  0  0  0
 25 23  1  0  0  0  0
 25 24  1  0  0  0  0
 26 22  1  0  0  0  0
 28 25  1  0  0  0  0
 29  5  1  0  0  0  0
 29 30  1  1  0  0  0
 31 29  1  0  0  0  0
 32 31  1  0  0  0  0
 33 32  3  0  0  0  0
 34 35  1  0  0  0  0
 34 37  1  0  0  0  0
 35 38  1  0  0  0  0
 36 35  1  0  0  0  0
 37 40  1  0  0  0  0
 38 41  1  0  0  0  0
 39 42  1  0  0  0  0
 40 41  1  0  0  0  0
 40 42  2  0  0  0  0
 42 33  1  0  0  0  0
M  END
>  <MODEL>
5

>  <REMARK>
 VINA RESULT:      -8.9      3.094      4.335
  Name = 
  8 active torsions:
  status: ('A' for Active; 'I' for Inactive)
    1  A    between atoms: N_4  and  C_5
    2  A    between atoms: N_4  and  C_21
    3  A    between atoms: C_5  and  C_22
    4  A    between atoms: C_6  and  N_9
    5  A    between atoms: C_6  and  O_18
    6  A    between atoms: O_18  and  N_23
    7  A    between atoms: C_25  and  C_37
    8  A    between atoms: C_41  and  C_42
                            x       y       z     vdW  Elec       q    Type
                         _______ _______ _______ _____ _____    ______ ____

>  <TORSDO>
F 8

$$$$
=
 OpenBabel11032419083D

 42 46  0  0  1  0  0  0  0  0999 V2000
  187.0490  178.2540  146.4440 C   0  0  0  0  0  0  0  0  0  0  0  0
  185.7720  178.7890  146.6440 C   0  0  0  0  0  3  0  0  0  0  0  0
  187.4000  177.7270  145.1850 C   0  0  0  0  0  0  0  0  0  0  0  0
  187.9560  178.2320  147.4530 N   0  0  0  0  0  0  0  0  0  0  0  0
  189.5470  177.1750  146.0220 C   0  0  0  0  0  0  0  0  0  0  0  0
  185.1930  178.2590  144.3420 C   0  0  0  0  0  0  0  0  0  0  0  0
  188.6440  177.2120  145.0020 N   0  0  0  0  0  0  0  0  0  0  0  0
  186.4760  177.7350  144.1390 C   0  0  0  0  0  3  0  0  0  0  0  0
  184.8470  178.7930  145.5950 C   0  0  0  0  0  3  0  0  0  0  0  0
  189.1970  177.7070  147.2680 C   0  0  0  0  0  3  0  0  0  0  0  0
  184.5060  179.1950  139.4970 N   0  0  0  0  0  2  0  0  0  0  0  0
  182.9730  179.1000  143.4770 C   0  0  2  0  0  3  0  0  0  0  0  0
  182.2610  178.6270  144.7370 C   0  0  0  0  0  1  0  0  0  0  0  0
  180.9760  179.8700  142.4130 F   0  0  0  0  0  0  0  0  0  0  0  0
  182.0170  178.9680  142.2960 C   0  0  1  0  0  3  0  0  0  0  0  0
  184.9160  178.7200  141.9300 C   0  0  0  0  0  2  0  0  0  0  0  0
  183.9610  178.9850  140.8010 C   0  0  0  0  0  0  0  0  0  0  0  0
  184.2180  178.2500  143.2030 C   0  0  1  0  0  3  0  0  0  0  0  0
  182.6880  179.1660  141.0110 N   0  0  0  0  0  0  0  0  0  0  0  0
  183.6730  179.4200  138.3250 C   0  0  0  0  0  2  0  0  0  0  0  0
  182.3690  179.7350  138.7220 O   0  0  0  0  0  0  0  0  0  0  0  0
  181.9870  178.6650  136.7500 C   0  0  0  0  0  2  0  0  0  0  0  0
  179.7800  179.4270  135.9280 C   0  0  0  0  0  2  0  0  0  0  0  0
  180.1740  179.1760  138.3500 C   0  0  0  0  0  2  0  0  0  0  0  0
  179.6390  180.0230  137.2660 N   0  0  0  0  0  0  0  0  0  0  0  0
  181.5860  178.7810  138.1590 N   0  0  0  0  0  0  0  0  0  0  0  0
  180.8120  178.3010  135.8620 C   0  0  0  0  0  2  0  0  0  0  0  0
  180.3050  181.3180  137.2730 C   0  0  0  0  0  1  0  0  0  0  0  0
  190.9200  176.6140  145.8130 C   0  0  2  0  0  3  0  0  0  0  0  0
  191.5960  176.4070  147.1530 C   0  0  0  0  0  1  0  0  0  0  0  0
  191.7370  177.5020  144.9960 N   0  0  0  0  0  2  0  0  0  0  0  0
  191.6770  177.4810  143.5940 C   0  0  0  0  0  0  0  0  0  0  0  0
  191.6360  177.4810  142.3890 C   0  0  0  0  0  0  0  0  0  0  0  0
  189.4290  178.5070  138.2250 C   0  0  0  0  0  2  0  0  0  0  0  0
  188.1010  178.3920  138.8460 N   0  0  0  0  0  0  0  0  0  0  0  0
  187.4850  177.1170  138.4910 C   0  0  0  0  0  1  0  0  0  0  0  0
  190.4310  177.4800  138.7650 C   0  0  0  0  0  2  0  0  0  0  0  0
  188.1840  178.5270  140.3080 C   0  0  0  0  0  2  0  0  0  0  0  0
  192.9290  177.4830  140.2420 C   0  0  0  0  0  1  0  0  0  0  0  0
  190.4570  177.5330  140.2620 C   0  0  0  0  0  0  0  0  0  0  0  0
  189.1260  177.5020  140.9500 C   0  0  0  0  0  2  0  0  0  0  0  0
  191.6130  177.5040  140.9470 C   0  0  0  0  0  0  0  0  0  0  0  0
  1  2  1  0  0  0  0
  1  4  1  0  0  0  0
  3  1  2  0  0  0  0
  5 10  1  0  0  0  0
  6  9  1  0  0  0  0
  7  3  1  0  0  0  0
  7  5  2  0  0  0  0
  8  6  2  0  0  0  0
  8  3  1  0  0  0  0
  9  2  2  0  0  0  0
 10  4  2  0  0  0  0
 11 17  1  0  0  0  0
 12 13  1  1  0  0  0
 15 14  1  1  0  0  0
 15 12  1  0  0  0  0
 16 18  1  0  0  0  0
 17 19  2  0  0  0  0
 17 16  1  0  0  0  0
 18 12  1  0  0  0  0
 18  6  1  1  0  0  0
 19 15  1  0  0  0  0
 20 21  1  0  0  0  0
 20 11  1  0  0  0  0
 22 26  1  0  0  0  0
 23 25  1  0  0  0  0
 25 28  1  0  0  0  0
 25 24  1  0  0  0  0
 26 24  1  0  0  0  0
 26 21  1  0  0  0  0
 27 23  1  0  0  0  0
 27 22  1  0  0  0  0
 29  5  1  0  0  0  0
 29 30  1  1  0  0  0
 31 29  1  0  0  0  0
 32 31  1  0  0  0  0
 33 32  3  0  0  0  0
 34 37  1  0  0  0  0
 34 35  1  0  0  0  0
 35 38  1  0  0  0  0
 36 35  1  0  0  0  0
 37 40  1  0  0  0  0
 38 41  1  0  0  0  0
 39 42  1  0  0  0  0
 40 42  2  0  0  0  0
 40 41  1  0  0  0  0
 42 33  1  0  0  0  0
M  END
>  <MODEL>
6

>  <REMARK>
 VINA RESULT:      -8.8      1.510      1.942
  Name = 
  8 active torsions:
  status: ('A' for Active; 'I' for Inactive)
    1  A    between atoms: N_4  and  C_5
    2  A    between atoms: N_4  and  C_21
    3  A    between atoms: C_5  and  C_22
    4  A    between atoms: C_6  and  N_9
    5  A    between atoms: C_6  and  O_18
    6  A    between atoms: O_18  and  N_23
    7  A    between atoms: C_25  and  C_37
    8  A    between atoms: C_41  and  C_42
                            x       y       z     vdW  Elec       q    Type
                         _______ _______ _______ _____ _____    ______ ____

>  <TORSDO>
F 8

$$$$
=
 OpenBabel11032419083D

 42 46  0  0  1  0  0  0  0  0999 V2000
  182.2290  177.1070  137.3450 C   0  0  0  0  0  0  0  0  0  0  0  0
  182.4380  178.4800  137.5170 C   0  0  0  0  0  3  0  0  0  0  0  0
  182.3270  176.2370  138.4490 C   0  0  0  0  0  0  0  0  0  0  0  0
  181.9340  176.6000  136.1210 N   0  0  0  0  0  0  0  0  0  0  0  0
  181.8410  174.3990  137.0360 C   0  0  0  0  0  0  0  0  0  0  0  0
  182.8590  178.1140  139.8840 C   0  0  0  0  0  0  0  0  0  0  0  0
  182.1190  174.9070  138.2700 N   0  0  0  0  0  0  0  0  0  0  0  0
  182.6370  176.7420  139.7130 C   0  0  0  0  0  3  0  0  0  0  0  0
  182.7510  178.9810  138.7840 C   0  0  0  0  0  3  0  0  0  0  0  0
  181.7360  175.2670  135.9440 C   0  0  0  0  0  3  0  0  0  0  0  0
  186.0390  177.8650  143.7120 N   0  0  0  0  0  2  0  0  0  0  0  0
  182.0640  178.4210  142.2630 C   0  0  2  0  0  3  0  0  0  0  0  0
  180.7840  179.0930  141.7880 C   0  0  0  0  0  1  0  0  0  0  0  0
  181.5710  178.7010  144.5850 F   0  0  0  0  0  0  0  0  0  0  0  0
  182.4760  179.0390  143.5960 C   0  0  1  0  0  3  0  0  0  0  0  0
  184.4800  177.9650  141.7430 C   0  0  0  0  0  2  0  0  0  0  0  0
  184.7560  178.2260  143.1980 C   0  0  0  0  0  0  0  0  0  0  0  0
  183.1970  178.6290  141.2520 C   0  0  1  0  0  3  0  0  0  0  0  0
  183.8200  178.6310  144.0080 N   0  0  0  0  0  0  0  0  0  0  0  0
  186.4270  178.1090  145.0940 C   0  0  0  0  0  2  0  0  0  0  0  0
  187.7930  178.4030  145.1590 O   0  0  0  0  0  0  0  0  0  0  0  0
  189.0960  177.5900  146.8390 C   0  0  0  0  0  2  0  0  0  0  0  0
  191.3050  177.0670  145.8530 C   0  0  0  0  0  2  0  0  0  0  0  0
  189.2560  176.7530  144.5190 C   0  0  0  0  0  2  0  0  0  0  0  0
  190.6310  177.2850  144.5640 N   0  0  0  0  0  0  0  0  0  0  0  0
  188.3810  177.2610  145.5970 N   0  0  0  0  0  0  0  0  0  0  0  0
  190.3490  176.7500  147.0030 C   0  0  0  0  0  2  0  0  0  0  0  0
  190.6200  178.7130  144.2780 C   0  0  0  0  0  1  0  0  0  0  0  0
  181.6050  172.9320  136.8440 C   0  0  2  0  0  3  0  0  0  0  0  0
  180.4260  172.4910  137.6870 C   0  0  0  0  0  1  0  0  0  0  0  0
  182.7800  172.1530  137.2150 N   0  0  0  0  0  2  0  0  0  0  0  0
  184.0730  172.6940  137.1630 C   0  0  0  0  0  0  0  0  0  0  0  0
  185.1920  173.1420  137.1260 C   0  0  0  0  0  0  0  0  0  0  0  0
  188.3730  176.7280  137.6600 C   0  0  0  0  0  2  0  0  0  0  0  0
  187.3440  177.7440  137.3870 N   0  0  0  0  0  0  0  0  0  0  0  0
  187.4820  178.2500  136.0250 C   0  0  0  0  0  1  0  0  0  0  0  0
  188.2060  175.4670  136.8060 C   0  0  0  0  0  2  0  0  0  0  0  0
  185.9920  177.2010  137.5930 C   0  0  0  0  0  2  0  0  0  0  0  0
  187.6470  172.6490  137.2190 C   0  0  0  0  0  1  0  0  0  0  0  0
  186.8030  174.9540  136.9250 C   0  0  0  0  0  0  0  0  0  0  0  0
  185.7090  175.9620  136.7380 C   0  0  0  0  0  2  0  0  0  0  0  0
  186.5430  173.6440  137.0850 C   0  0  0  0  0  0  0  0  0  0  0  0
  1  2  2  0  0  0  0
  1  3  1  0  0  0  0
  2  9  1  0  0  0  0
  3  8  2  0  0  0  0
  4  1  1  0  0  0  0
  5  7  2  0  0  0  0
  7  3  1  0  0  0  0
  8  6  1  0  0  0  0
  9  6  2  0  0  0  0
 10  4  2  0  0  0  0
 10  5  1  0  0  0  0
 11 20  1  0  0  0  0
 12 13  1  6  0  0  0
 12 15  1  0  0  0  0
 15 19  1  0  0  0  0
 15 14  1  1  0  0  0
 16 17  1  0  0  0  0
 17 11  1  0  0  0  0
 17 19  2  0  0  0  0
 18  6  1  6  0  0  0
 18 16  1  0  0  0  0
 18 12  1  0  0  0  0
 20 21  1  0  0  0  0
 21 26  1  0  0  0  0
 22 27  1  0  0  0  0
 23 27  1  0  0  0  0
 24 25  1  0  0  0  0
 24 26  1  0  0  0  0
 25 23  1  0  0  0  0
 26 22  1  0  0  0  0
 28 25  1  0  0  0  0
 29  5  1  0  0  0  0
 29 31  1  0  0  0  0
 29 30  1  1  0  0  0
 32 31  1  0  0  0  0
 33 32  3  0  0  0  0
 35 38  1  0  0  0  0
 35 34  1  0  0  0  0
 36 35  1  0  0  0  0
 37 40  1  0  0  0  0
 37 34  1  0  0  0  0
 40 42  2  0  0  0  0
 41 40  1  0  0  0  0
 41 38  1  0  0  0  0
 42 33  1  0  0  0  0
 42 39  1  0  0  0  0
M  END
>  <MODEL>
7

>  <REMARK>
 VINA RESULT:      -8.7      2.425      8.544
  Name = 
  8 active torsions:
  status: ('A' for Active; 'I' for Inactive)
    1  A    between atoms: N_4  and  C_5
    2  A    between atoms: N_4  and  C_21
    3  A    between atoms: C_5  and  C_22
    4  A    between atoms: C_6  and  N_9
    5  A    between atoms: C_6  and  O_18
    6  A    between atoms: O_18  and  N_23
    7  A    between atoms: C_25  and  C_37
    8  A    between atoms: C_41  and  C_42
                            x       y       z     vdW  Elec       q    Type
                         _______ _______ _______ _____ _____    ______ ____

>  <TORSDO>
F 8

$$$$
=
 OpenBabel11032419083D

 42 46  0  0  1  0  0  0  0  0999 V2000
  190.7060  177.5280  142.5190 C   0  0  0  0  0  0  0  0  0  0  0  0
  190.5760  177.7880  143.8870 C   0  0  0  0  0  3  0  0  0  0  0  0
  189.5580  177.2920  141.7360 C   0  0  0  0  0  0  0  0  0  0  0  0
  191.9310  177.4960  141.9340 N   0  0  0  0  0  0  0  0  0  0  0  0
  190.9300  176.9930  139.8280 C   0  0  0  0  0  0  0  0  0  0  0  0
  188.1620  177.5610  143.6960 C   0  0  0  0  0  0  0  0  0  0  0  0
  189.6980  177.0420  140.4080 N   0  0  0  0  0  0  0  0  0  0  0  0
  188.2920  177.3130  142.3250 C   0  0  0  0  0  3  0  0  0  0  0  0
  189.3060  177.8060  144.4740 C   0  0  0  0  0  3  0  0  0  0  0  0
  192.0660  177.2370  140.6070 C   0  0  0  0  0  3  0  0  0  0  0  0
  183.4030  178.9140  143.1030 N   0  0  0  0  0  2  0  0  0  0  0  0
  186.7490  178.2650  145.6700 C   0  0  2  0  0  3  0  0  0  0  0  0
  187.7110  177.5980  146.6430 C   0  0  0  0  0  1  0  0  0  0  0  0
  185.2060  178.9400  147.3660 F   0  0  0  0  0  0  0  0  0  0  0  0
  185.3350  178.1600  146.2320 C   0  0  1  0  0  3  0  0  0  0  0  0
  185.8120  178.2360  143.3390 C   0  0  0  0  0  2  0  0  0  0  0  0
  184.4740  178.5200  143.9630 C   0  0  0  0  0  0  0  0  0  0  0  0
  186.7900  177.5730  144.3040 C   0  0  1  0  0  3  0  0  0  0  0  0
  184.3170  178.5530  145.2560 N   0  0  0  0  0  0  0  0  0  0  0  0
  182.0580  179.1740  143.5950 C   0  0  0  0  0  2  0  0  0  0  0  0
  181.1180  178.5930  142.7380 O   0  0  0  0  0  0  0  0  0  0  0  0
  180.4050  180.0260  141.1210 C   0  0  0  0  0  2  0  0  0  0  0  0
  179.6140  178.6450  139.2250 C   0  0  0  0  0  2  0  0  0  0  0  0
  181.5220  177.8860  140.5910 C   0  0  0  0  0  2  0  0  0  0  0  0
  180.2400  177.5290  139.9530 N   0  0  0  0  0  0  0  0  0  0  0  0
  181.4350  179.0490  141.5000 N   0  0  0  0  0  0  0  0  0  0  0  0
  180.1500  180.0190  139.6250 C   0  0  0  0  0  2  0  0  0  0  0  0
  179.3050  177.0420  140.9570 C   0  0  0  0  0  1  0  0  0  0  0  0
  191.0780  176.7260  138.3610 C   0  0  2  0  0  3  0  0  0  0  0  0
  189.8710  177.2640  137.6200 C   0  0  0  0  0  1  0  0  0  0  0  0
  191.2100  175.3000  138.0940 N   0  0  0  0  0  2  0  0  0  0  0  0
  190.1840  174.5630  137.4840 C   0  0  0  0  0  0  0  0  0  0  0  0
  189.2900  173.9320  136.9770 C   0  0  0  0  0  0  0  0  0  0  0  0
  184.8200  173.7330  135.1760 C   0  0  0  0  0  2  0  0  0  0  0  0
  184.4030  174.9080  135.9570 N   0  0  0  0  0  0  0  0  0  0  0  0
  183.6140  174.4920  137.1120 C   0  0  0  0  0  1  0  0  0  0  0  0
  185.7860  172.8210  135.9400 C   0  0  0  0  0  2  0  0  0  0  0  0
  185.5650  175.6980  136.3920 C   0  0  0  0  0  2  0  0  0  0  0  0
  188.5320  171.9130  135.7000 C   0  0  0  0  0  1  0  0  0  0  0  0
  186.9290  173.6270  136.4780 C   0  0  0  0  0  0  0  0  0  0  0  0
  186.5680  174.8820  137.2150 C   0  0  0  0  0  2  0  0  0  0  0  0
  188.1980  173.1920  136.3940 C   0  0  0  0  0  0  0  0  0  0  0  0
  1  2  2  0  0  0  0
  2  9  1  0  0  0  0
  3  8  2  0  0  0  0
  3  1  1  0  0  0  0
  4  1  1  0  0  0  0
  5  7  2  0  0  0  0
  5 10  1  0  0  0  0
  6  9  2  0  0  0  0
  7  3  1  0  0  0  0
  8  6  1  0  0  0  0
 10  4  2  0  0  0  0
 11 20  1  0  0  0  0
 11 17  1  0  0  0  0
 12 15  1  0  0  0  0
 12 13  1  1  0  0  0
 15 14  1  1  0  0  0
 16 17  1  0  0  0  0
 16 18  1  0  0  0  0
 17 19  2  0  0  0  0
 18  6  1  6  0  0  0
 18 12  1  0  0  0  0
 19 15  1  0  0  0  0
 21 20  1  0  0  0  0
 22 26  1  0  0  0  0
 23 27  1  0  0  0  0
 23 25  1  0  0  0  0
 24 26  1  0  0  0  0
 25 24  1  0  0  0  0
 25 28  1  0  0  0  0
 26 21  1  0  0  0  0
 27 22  1  0  0  0  0
 29 30  1  6  0  0  0
 29  5  1  0  0  0  0
 31 29  1  0  0  0  0
 32 31  1  0  0  0  0
 33 32  3  0  0  0  0
 34 37  1  0  0  0  0
 34 35  1  0  0  0  0
 35 38  1  0  0  0  0
 35 36  1  0  0  0  0
 37 40  1  0  0  0  0
 38 41  1  0  0  0  0
 39 42  1  0  0  0  0
 40 41  1  0  0  0  0
 42 40  2  0  0  0  0
 42 33  1  0  0  0  0
M  END
>  <MODEL>
8

>  <REMARK>
 VINA RESULT:      -8.6      2.766      5.833
  Name = 
  8 active torsions:
  status: ('A' for Active; 'I' for Inactive)
    1  A    between atoms: N_4  and  C_5
    2  A    between atoms: N_4  and  C_21
    3  A    between atoms: C_5  and  C_22
    4  A    between atoms: C_6  and  N_9
    5  A    between atoms: C_6  and  O_18
    6  A    between atoms: O_18  and  N_23
    7  A    between atoms: C_25  and  C_37
    8  A    between atoms: C_41  and  C_42
                            x       y       z     vdW  Elec       q    Type
                         _______ _______ _______ _____ _____    ______ ____

>  <TORSDO>
F 8

$$$$
=
 OpenBabel11032419083D

 42 46  0  0  1  0  0  0  0  0999 V2000
  180.4550  178.1320  141.9750 C   0  0  0  0  0  0  0  0  0  0  0  0
  179.4000  177.6260  141.2100 C   0  0  0  0  0  3  0  0  0  0  0  0
  181.7550  178.1850  141.4330 C   0  0  0  0  0  0  0  0  0  0  0  0
  180.2430  178.5710  143.2420 N   0  0  0  0  0  0  0  0  0  0  0  0
  182.5580  179.1030  143.4630 C   0  0  0  0  0  0  0  0  0  0  0  0
  180.9380  177.2120  139.3710 C   0  0  0  0  0  0  0  0  0  0  0  0
  182.7710  178.6800  142.1860 N   0  0  0  0  0  0  0  0  0  0  0  0
  181.9910  177.7300  140.1340 C   0  0  0  0  0  3  0  0  0  0  0  0
  179.6410  177.1690  139.9100 C   0  0  0  0  0  3  0  0  0  0  0  0
  181.2650  179.0570  143.9960 C   0  0  0  0  0  3  0  0  0  0  0  0
  183.4180  173.9060  136.5880 N   0  0  0  0  0  2  0  0  0  0  0  0
  181.7850  177.8190  137.0700 C   0  0  2  0  0  3  0  0  0  0  0  0
  180.8320  179.0030  136.9900 C   0  0  0  0  0  1  0  0  0  0  0  0
  182.6590  178.1360  134.8680 F   0  0  0  0  0  0  0  0  0  0  0  0
  181.9700  177.2440  135.6680 C   0  0  1  0  0  3  0  0  0  0  0  0
  182.1740  175.5350  138.0430 C   0  0  0  0  0  2  0  0  0  0  0  0
  182.7120  175.1440  136.6950 C   0  0  0  0  0  0  0  0  0  0  0  0
  181.2200  176.7250  137.9810 C   0  0  1  0  0  3  0  0  0  0  0  0
  182.6720  175.9600  135.6810 N   0  0  0  0  0  0  0  0  0  0  0  0
  183.9450  173.4100  135.3250 C   0  0  0  0  0  2  0  0  0  0  0  0
  185.1710  172.7730  135.5390 O   0  0  0  0  0  0  0  0  0  0  0  0
  186.8010  174.3550  135.4060 C   0  0  0  0  0  2  0  0  0  0  0  0
  188.8180  173.4110  136.4870 C   0  0  0  0  0  2  0  0  0  0  0  0
  186.5790  172.8470  137.3510 C   0  0  0  0  0  2  0  0  0  0  0  0
  187.9080  172.3500  136.9490 N   0  0  0  0  0  0  0  0  0  0  0  0
  185.8900  173.6320  136.3050 N   0  0  0  0  0  0  0  0  0  0  0  0
  188.1060  174.7060  136.0960 C   0  0  0  0  0  2  0  0  0  0  0  0
  187.7690  171.3600  135.8910 C   0  0  0  0  0  1  0  0  0  0  0  0
  183.6810  179.6570  144.2870 C   0  0  2  0  0  3  0  0  0  0  0  0
  184.9530  179.6820  143.4650 C   0  0  0  0  0  1  0  0  0  0  0  0
  183.9000  178.8590  145.4870 N   0  0  0  0  0  2  0  0  0  0  0  0
  185.1830  178.4470  145.8770 C   0  0  0  0  0  0  0  0  0  0  0  0
  186.2940  178.1110  146.2060 C   0  0  0  0  0  0  0  0  0  0  0  0
  190.9810  177.5810  145.2020 C   0  0  0  0  0  2  0  0  0  0  0  0
  190.7020  177.4050  143.7690 N   0  0  0  0  0  0  0  0  0  0  0  0
  190.7910  175.9940  143.4050 C   0  0  0  0  0  1  0  0  0  0  0  0
  189.9240  176.9280  146.1000 C   0  0  0  0  0  2  0  0  0  0  0  0
  189.3780  177.9400  143.4150 C   0  0  0  0  0  2  0  0  0  0  0  0
  187.9500  177.7660  148.0550 C   0  0  0  0  0  1  0  0  0  0  0  0
  188.5570  177.3840  145.6890 C   0  0  0  0  0  0  0  0  0  0  0  0
  188.2420  177.3060  144.2260 C   0  0  0  0  0  2  0  0  0  0  0  0
  187.6320  177.7430  146.5970 C   0  0  0  0  0  0  0  0  0  0  0  0
  1  4  1  0  0  0  0
  2  1  1  0  0  0  0
  3  1  2  0  0  0  0
  3  7  1  0  0  0  0
  4 10  2  0  0  0  0
  5 10  1  0  0  0  0
  5 29  1  0  0  0  0
  6  9  1  0  0  0  0
  6  8  2  0  0  0  0
  7  5  2  0  0  0  0
  8  3  1  0  0  0  0
  9  2  2  0  0  0  0
 11 17  1  0  0  0  0
 12 13  1  6  0  0  0
 12 18  1  0  0  0  0
 15 14  1  6  0  0  0
 15 19  1  0  0  0  0
 15 12  1  0  0  0  0
 17 16  1  0  0  0  0
 18 16  1  0  0  0  0
 18  6  1  1  0  0  0
 19 17  2  0  0  0  0
 20 21  1  0  0  0  0
 20 11  1  0  0  0  0
 21 26  1  0  0  0  0
 22 27  1  0  0  0  0
 22 26  1  0  0  0  0
 23 25  1  0  0  0  0
 25 24  1  0  0  0  0
 26 24  1  0  0  0  0
 27 23  1  0  0  0  0
 28 25  1  0  0  0  0
 29 30  1  6  0  0  0
 29 31  1  0  0  0  0
 31 32  1  0  0  0  0
 32 33  3  0  0  0  0
 33 42  1  0  0  0  0
 34 37  1  0  0  0  0
 35 34  1  0  0  0  0
 36 35  1  0  0  0  0
 38 35  1  0  0  0  0
 38 41  1  0  0  0  0
 40 37  1  0  0  0  0
 40 42  2  0  0  0  0
 41 40  1  0  0  0  0
 42 39  1  0  0  0  0
M  END
>  <MODEL>
9

>  <REMARK>
 VINA RESULT:      -8.4      2.946      6.704
  Name = 
  8 active torsions:
  status: ('A' for Active; 'I' for Inactive)
    1  A    between atoms: N_4  and  C_5
    2  A    between atoms: N_4  and  C_21
    3  A    between atoms: C_5  and  C_22
    4  A    between atoms: C_6  and  N_9
    5  A    between atoms: C_6  and  O_18
    6  A    between atoms: O_18  and  N_23
    7  A    between atoms: C_25  and  C_37
    8  A    between atoms: C_41  and  C_42
                            x       y       z     vdW  Elec       q    Type
                         _______ _______ _______ _____ _____    ______ ____

>  <TORSDO>
F 8

$$$$
