=
 OpenBabel11042413063D

 40 46  0  0  1  0  0  0  0  0999 V2000
  181.4950  179.0240  141.4650 C   0  0  0  0  0  3  0  0  0  0  0  0
  182.0120  174.2510  136.3380 N   0  0  0  0  0  0  0  0  0  0  0  0
  178.9310  173.6040  138.0890 O   0  0  0  0  0  1  0  0  0  0  0  0
  180.3600  179.6260  140.9140 C   0  0  0  0  0  0  0  0  0  0  0  0
  182.9700  175.3100  136.6150 C   0  0  1  0  0  3  0  0  0  0  0  0
  182.8610  177.2100  138.4840 N   0  0  0  0  0  0  0  0  0  0  0  0
  179.5760  180.4220  141.6800 F   0  0  0  0  0  0  0  0  0  0  0  0
  182.3070  178.1950  140.6790 C   0  0  0  0  0  0  0  0  0  0  0  0
  183.4300  177.5560  141.2220 O   0  0  0  0  0  0  0  0  0  0  0  0
  185.4240  175.7290  137.0790 C   0  0  0  0  0  2  0  0  0  0  0  0
  185.7190  178.8890  139.9310 C   0  0  0  0  0  2  0  0  0  0  0  0
  182.3410  176.0230  137.8070 C   0  0  0  0  0  0  0  0  0  0  0  0
  180.8440  178.5870  138.7840 C   0  0  0  0  0  3  0  0  0  0  0  0
  181.9880  177.9870  139.3270 C   0  0  0  0  0  0  0  0  0  0  0  0
  185.0480  179.3770  141.2090 C   0  0  0  0  0  2  0  0  0  0  0  0
  179.9200  173.4450  137.1770 N   0  0  0  0  0  0  0  0  0  0  0  0
  181.1910  175.4410  138.1210 C   0  0  0  0  0  3  0  0  0  0  0  0
  181.0360  174.3420  137.1800 C   0  0  0  0  0  0  0  0  0  0  0  0
  184.2570  177.5870  138.3710 C   0  0  1  0  0  3  0  0  0  0  0  0
  185.0370  176.7570  137.7580 C   0  0  0  0  0  2  0  0  0  0  0  0
  180.0310  179.4010  139.5760 C   0  0  0  0  0  3  0  0  0  0  0  0
  184.7540  178.9500  138.7540 C   0  0  0  0  0  2  0  0  0  0  0  0
  184.3560  174.6850  136.9120 C   0  0  0  0  0  2  0  0  0  0  0  0
  184.4340  178.2160  141.9910 C   0  0  1  0  0  3  0  0  0  0  0  0
  179.0410  172.7970  134.9940 C   0  0  0  0  0  1  0  0  0  0  0  0
  179.8440  172.3610  136.2040 C   0  0  0  0  0  3  0  0  0  0  0  0
  179.2070  171.1350  136.8320 C   0  0  0  0  0  1  0  0  0  0  0  0
  183.8970  178.6670  143.3440 C   0  0  0  0  0  2  0  0  0  0  0  0
  185.4450  178.2440  146.8510 C   0  0  0  0  0  3  0  0  0  0  0  0
  186.1480  178.2300  144.1210 N   0  0  0  0  0  0  0  0  0  0  0  0
  187.0800  178.0050  145.1510 N   0  0  0  0  0  0  0  0  0  0  0  0
  184.4800  178.4210  145.8020 N   0  0  0  0  0  0  0  0  0  0  0  0
  186.7090  178.0410  146.5010 C   0  0  0  0  0  0  0  0  0  0  0  0
  188.4610  177.8850  144.9550 N   0  0  1  0  0  0  0  0  0  0  0  0
  187.8780  177.8960  147.3650 C   0  0  0  0  0  3  0  0  0  0  0  0
  184.8950  178.4140  144.4220 C   0  0  0  0  0  0  0  0  0  0  0  0
  189.0160  177.8070  146.3250 C   0  0  0  0  0  2  0  0  0  0  0  0
  188.7050  176.5940  144.3210 C   0  0  0  0  0  3  0  0  0  0  0  0
  188.4750  176.7110  142.8260 C   0  0  0  0  0  2  0  0  0  0  0  0
  189.8840  176.7080  143.3720 C   0  0  0  0  0  2  0  0  0  0  0  0
  2  5  1  0  0  0  0
  2 18  2  0  0  0  0
  4  1  1  0  0  0  0
  4  7  1  0  0  0  0
  5 23  1  1  0  0  0
  5 12  1  0  0  0  0
  6 14  1  0  0  0  0
  8  9  1  0  0  0  0
  8  1  2  0  0  0  0
  9 24  1  0  0  0  0
 10 20  1  0  0  0  0
 11 15  1  0  0  0  0
 12 17  2  0  0  0  0
 12  6  1  0  0  0  0
 13 14  2  0  0  0  0
 13 21  1  0  0  0  0
 14  8  1  0  0  0  0
 15 24  1  0  0  0  0
 16 18  1  0  0  0  0
 16  3  1  0  0  0  0
 18 17  1  0  0  0  0
 19 20  1  6  0  0  0
 19  6  1  0  0  0  0
 19 22  1  0  0  0  0
 21  4  2  0  0  0  0
 22 11  1  0  0  0  0
 23 10  1  0  0  0  0
 24 28  1  1  0  0  0
 25 26  1  0  0  0  0
 26 27  1  0  0  0  0
 26 16  1  0  0  0  0
 28 36  1  0  0  0  0
 30 36  2  0  0  0  0
 30 31  1  0  0  0  0
 31 33  1  0  0  0  0
 32 29  2  0  0  0  0
 33 29  1  0  0  0  0
 33 35  2  0  0  0  0
 34 38  1  6  0  0  0
 34 31  1  0  0  0  0
 34 37  1  0  0  0  0
 36 32  1  0  0  0  0
 37 35  1  0  0  0  0
 39 40  1  0  0  0  0
 39 38  1  0  0  0  0
 40 38  1  0  0  0  0
M  END
>  <MODEL>
1

>  <REMARK>
 VINA RESULT:      -8.5      0.000      0.000
  Name = 
  4 active torsions:
  status: ('A' for Active; 'I' for Inactive)
    1  A    between atoms: C_6  and  N_26
    2  A    between atoms: C_15  and  N_28
    3  A    between atoms: C_31  and  C_37
    4  A    between atoms: C_37  and  C_40
                            x       y       z     vdW  Elec       q    Type
                         _______ _______ _______ _____ _____    ______ ____

>  <TORSDO>
F 4

$$$$
=
 OpenBabel11042413063D

 40 46  0  0  1  0  0  0  0  0999 V2000
  184.7810  178.2310  138.2540 C   0  0  0  0  0  3  0  0  0  0  0  0
  179.1140  182.3790  138.1710 N   0  0  0  0  0  0  0  0  0  0  0  0
  181.1850  183.3490  135.3880 O   0  0  0  0  0  1  0  0  0  0  0  0
  184.4650  177.6220  137.0370 C   0  0  0  0  0  0  0  0  0  0  0  0
  179.3760  181.3170  139.1300 C   0  0  1  0  0  3  0  0  0  0  0  0
  181.4510  179.6420  139.2340 N   0  0  0  0  0  0  0  0  0  0  0  0
  185.4190  176.9500  136.3480 F   0  0  0  0  0  0  0  0  0  0  0  0
  183.8000  178.9310  138.9690 C   0  0  0  0  0  0  0  0  0  0  0  0
  184.1060  179.5780  140.1740 O   0  0  0  0  0  0  0  0  0  0  0  0
  179.5450  180.8460  141.6120 C   0  0  0  0  0  2  0  0  0  0  0  0
  182.6760  178.0110  142.2210 C   0  0  0  0  0  2  0  0  0  0  0  0
  180.7190  180.7680  138.6560 C   0  0  0  0  0  0  0  0  0  0  0  0
  182.1820  178.3950  137.2430 C   0  0  0  0  0  3  0  0  0  0  0  0
  182.4900  179.0020  138.4680 C   0  0  0  0  0  0  0  0  0  0  0  0
  184.0810  177.6980  141.7240 C   0  0  0  0  0  2  0  0  0  0  0  0
  180.1330  183.3630  136.2420 N   0  0  0  0  0  0  0  0  0  0  0  0
  181.1180  181.4300  137.5790 C   0  0  0  0  0  3  0  0  0  0  0  0
  180.0870  182.4240  137.3220 C   0  0  0  0  0  0  0  0  0  0  0  0
  181.1910  179.1950  140.5890 C   0  0  1  0  0  3  0  0  0  0  0  0
  180.3850  179.9170  141.2970 C   0  0  0  0  0  2  0  0  0  0  0  0
  183.1670  177.7110  136.5280 C   0  0  0  0  0  3  0  0  0  0  0  0
  181.6580  177.8620  141.0970 C   0  0  0  0  0  2  0  0  0  0  0  0
  179.4060  181.9100  140.5600 C   0  0  0  0  0  2  0  0  0  0  0  0
  184.8000  178.9640  141.2590 C   0  0  1  0  0  3  0  0  0  0  0  0
  178.9310  184.7040  134.5940 C   0  0  0  0  0  1  0  0  0  0  0  0
  179.0610  184.3350  136.0580 C   0  0  0  0  0  3  0  0  0  0  0  0
  179.3330  185.5790  136.8830 C   0  0  0  0  0  1  0  0  0  0  0  0
  186.2580  178.6890  140.9070 C   0  0  0  0  0  2  0  0  0  0  0  0
  189.2540  177.9270  143.2130 C   0  0  0  0  0  3  0  0  0  0  0  0
  186.4430  178.1380  143.2580 N   0  0  0  0  0  0  0  0  0  0  0  0
  187.2040  177.8330  144.4010 N   0  0  0  0  0  0  0  0  0  0  0  0
  188.4860  178.2920  142.0560 N   0  0  0  0  0  0  0  0  0  0  0  0
  188.5980  177.7100  144.3470 C   0  0  0  0  0  0  0  0  0  0  0  0
  186.6600  177.4730  145.6400 N   0  0  1  0  0  0  0  0  0  0  0  0
  189.1310  177.2730  145.6340 C   0  0  0  0  0  3  0  0  0  0  0  0
  187.0500  178.3770  142.1310 C   0  0  0  0  0  0  0  0  0  0  0  0
  187.8370  177.1120  146.4610 C   0  0  0  0  0  2  0  0  0  0  0  0
  186.0770  178.6720  146.2300 C   0  0  0  0  0  3  0  0  0  0  0  0
  184.6690  178.8670  145.6980 C   0  0  0  0  0  2  0  0  0  0  0  0
  184.8780  178.2890  147.0800 C   0  0  0  0  0  2  0  0  0  0  0  0
  1  8  1  0  0  0  0
  2  5  1  0  0  0  0
  3 16  1  0  0  0  0
  4  1  2  0  0  0  0
  5 23  1  1  0  0  0
  6 19  1  0  0  0  0
  7  4  1  0  0  0  0
  8  9  1  0  0  0  0
  9 24  1  0  0  0  0
 12  5  1  0  0  0  0
 12  6  1  0  0  0  0
 13 14  1  0  0  0  0
 14  8  2  0  0  0  0
 14  6  1  0  0  0  0
 15 11  1  0  0  0  0
 16 18  1  0  0  0  0
 17 12  2  0  0  0  0
 18 17  1  0  0  0  0
 18  2  2  0  0  0  0
 19 22  1  6  0  0  0
 19 20  1  0  0  0  0
 20 10  1  0  0  0  0
 21  4  1  0  0  0  0
 21 13  2  0  0  0  0
 22 11  1  0  0  0  0
 23 10  1  0  0  0  0
 24 28  1  6  0  0  0
 24 15  1  0  0  0  0
 25 26  1  0  0  0  0
 26 16  1  0  0  0  0
 26 27  1  0  0  0  0
 28 36  1  0  0  0  0
 29 33  1  0  0  0  0
 30 31  1  0  0  0  0
 31 34  1  0  0  0  0
 32 36  1  0  0  0  0
 32 29  2  0  0  0  0
 33 31  1  0  0  0  0
 33 35  2  0  0  0  0
 34 38  1  1  0  0  0
 34 37  1  0  0  0  0
 35 37  1  0  0  0  0
 36 30  2  0  0  0  0
 38 40  1  0  0  0  0
 39 38  1  0  0  0  0
 39 40  1  0  0  0  0
M  END
>  <MODEL>
2

>  <REMARK>
 VINA RESULT:      -8.5      3.446      6.316
  Name = 
  4 active torsions:
  status: ('A' for Active; 'I' for Inactive)
    1  A    between atoms: C_6  and  N_26
    2  A    between atoms: C_15  and  N_28
    3  A    between atoms: C_31  and  C_37
    4  A    between atoms: C_37  and  C_40
                            x       y       z     vdW  Elec       q    Type
                         _______ _______ _______ _____ _____    ______ ____

>  <TORSDO>
F 4

$$$$
=
 OpenBabel11042413063D

 40 46  0  0  1  0  0  0  0  0999 V2000
  191.7670  174.9700  137.4670 C   0  0  0  0  0  3  0  0  0  0  0  0
  189.5840  178.0440  143.3930 N   0  0  0  0  0  0  0  0  0  0  0  0
  192.0380  175.5740  144.3160 O   0  0  0  0  0  1  0  0  0  0  0  0
  193.0730  175.4480  137.5930 C   0  0  0  0  0  0  0  0  0  0  0  0
  189.1320  178.3710  142.0490 C   0  0  1  0  0  3  0  0  0  0  0  0
  189.9220  177.3240  139.7260 N   0  0  0  0  0  0  0  0  0  0  0  0
  194.0770  174.8710  136.8900 F   0  0  0  0  0  0  0  0  0  0  0  0
  190.7250  175.5600  138.1950 C   0  0  0  0  0  0  0  0  0  0  0  0
  189.4140  175.0730  138.1090 O   0  0  0  0  0  0  0  0  0  0  0  0
  187.0480  178.6110  140.6310 C   0  0  0  0  0  2  0  0  0  0  0  0
  187.9390  177.2030  136.7030 C   0  0  0  0  0  2  0  0  0  0  0  0
  189.9400  177.4080  141.1850 C   0  0  0  0  0  0  0  0  0  0  0  0
  192.3090  177.1190  139.1670 C   0  0  0  0  0  3  0  0  0  0  0  0
  190.9950  176.6500  139.0400 C   0  0  0  0  0  0  0  0  0  0  0  0
  188.6890  176.0740  136.0080 C   0  0  0  0  0  2  0  0  0  0  0  0
  191.1160  176.5550  144.4710 N   0  0  0  0  0  0  0  0  0  0  0  0
  190.7330  176.6740  141.9550 C   0  0  0  0  0  3  0  0  0  0  0  0
  190.4680  177.1050  143.3190 C   0  0  0  0  0  0  0  0  0  0  0  0
  188.8110  177.8530  138.9580 C   0  0  1  0  0  3  0  0  0  0  0  0
  187.7900  178.2790  139.6280 C   0  0  0  0  0  2  0  0  0  0  0  0
  193.3460  176.5180  138.4490 C   0  0  0  0  0  3  0  0  0  0  0  0
  188.9010  178.0950  137.4800 C   0  0  0  0  0  2  0  0  0  0  0  0
  187.6000  178.1680  141.9570 C   0  0  0  0  0  2  0  0  0  0  0  0
  188.7330  174.8190  136.8800 C   0  0  1  0  0  3  0  0  0  0  0  0
  191.6790  176.3770  146.8390 C   0  0  0  0  0  1  0  0  0  0  0  0
  190.7870  177.0380  145.8070 C   0  0  0  0  0  3  0  0  0  0  0  0
  189.3310  176.7550  146.1250 C   0  0  0  0  0  1  0  0  0  0  0  0
  189.3420  173.6360  136.1370 C   0  0  0  0  0  2  0  0  0  0  0  0
  187.7110  170.3220  135.0250 C   0  0  0  0  0  3  0  0  0  0  0  0
  187.0430  172.8890  135.9800 N   0  0  0  0  0  0  0  0  0  0  0  0
  186.0790  171.9070  135.6890 N   0  0  0  0  0  0  0  0  0  0  0  0
  188.7030  171.3010  135.3710 N   0  0  0  0  0  2  0  0  0  0  0  0
  186.4360  170.6480  135.1930 C   0  0  0  0  0  0  0  0  0  0  0  0
  184.6960  172.1270  135.7100 N   0  0  0  0  0  0  0  0  0  0  0  0
  185.2480  169.8640  134.8630 C   0  0  0  0  0  3  0  0  0  0  0  0
  188.3070  172.6030  135.8470 C   0  0  0  0  0  0  0  0  0  0  0  0
  184.1200  170.8620  135.2000 C   0  0  0  0  0  3  0  0  0  0  0  0
  184.2900  172.2500  137.1050 C   0  0  0  0  0  3  0  0  0  0  0  0
  184.5680  173.6600  137.5930 C   0  0  0  0  0  2  0  0  0  0  0  0
  183.1600  173.2570  137.2200 C   0  0  0  0  0  2  0  0  0  0  0  0
  1  4  2  0  0  0  0
  1  8  1  0  0  0  0
  3 16  1  0  0  0  0
  4 21  1  0  0  0  0
  5 23  1  1  0  0  0
  5  2  1  0  0  0  0
  6 12  1  0  0  0  0
  7  4  1  0  0  0  0
  8 14  2  0  0  0  0
  9  8  1  0  0  0  0
 10 23  1  0  0  0  0
 11 22  1  0  0  0  0
 12 17  2  0  0  0  0
 12  5  1  0  0  0  0
 14 13  1  0  0  0  0
 14  6  1  0  0  0  0
 15 11  1  0  0  0  0
 15 24  1  0  0  0  0
 16 26  1  0  0  0  0
 17 18  1  0  0  0  0
 18  2  2  0  0  0  0
 18 16  1  0  0  0  0
 19 22  1  1  0  0  0
 19 20  1  0  0  0  0
 19  6  1  0  0  0  0
 20 10  1  0  0  0  0
 21 13  2  0  0  0  0
 24 28  1  6  0  0  0
 24  9  1  0  0  0  0
 26 27  1  0  0  0  0
 26 25  1  0  0  0  0
 29 33  2  0  0  0  0
 29 32  1  0  0  0  0
 31 34  1  0  0  0  0
 31 30  1  0  0  0  0
 32 36  1  0  0  0  0
 33 31  1  0  0  0  0
 34 38  1  0  0  0  0
 35 33  1  0  0  0  0
 35 37  2  0  0  0  0
 36 30  2  0  0  0  0
 36 28  1  0  0  0  0
 37 34  1  0  0  0  0
 38 40  1  0  0  0  0
 38 39  1  0  0  0  0
 40 39  1  0  0  0  0
M  END
>  <MODEL>
3

>  <REMARK>
 VINA RESULT:      -8.4      5.023     11.097
  Name = 
  4 active torsions:
  status: ('A' for Active; 'I' for Inactive)
    1  A    between atoms: C_6  and  N_26
    2  A    between atoms: C_15  and  N_28
    3  A    between atoms: C_31  and  C_37
    4  A    between atoms: C_37  and  C_40
                            x       y       z     vdW  Elec       q    Type
                         _______ _______ _______ _____ _____    ______ ____

>  <TORSDO>
F 4

$$$$
=
 OpenBabel11042413063D

 40 46  0  0  1  0  0  0  0  0999 V2000
  184.6420  178.3730  138.8520 C   0  0  0  0  0  3  0  0  0  0  0  0
  178.9610  182.4530  138.2160 N   0  0  0  0  0  0  0  0  0  0  0  0
  181.2670  183.4260  135.6250 O   0  0  0  0  0  1  0  0  0  0  0  0
  184.4450  177.7510  137.6170 C   0  0  0  0  0  0  0  0  0  0  0  0
  179.1470  181.4020  139.2040 C   0  0  1  0  0  3  0  0  0  0  0  0
  181.2210  179.7530  139.5120 N   0  0  0  0  0  0  0  0  0  0  0  0
  185.4650  177.0850  137.0240 F   0  0  0  0  0  0  0  0  0  0  0  0
  183.5930  179.0670  139.4690 C   0  0  0  0  0  0  0  0  0  0  0  0
  183.7790  179.7270  140.6910 O   0  0  0  0  0  0  0  0  0  0  0  0
  179.0920  180.9530  141.6960 C   0  0  0  0  0  2  0  0  0  0  0  0
  182.1860  178.1600  142.6130 C   0  0  0  0  0  2  0  0  0  0  0  0
  180.5320  180.8660  138.8600 C   0  0  0  0  0  0  0  0  0  0  0  0
  182.1450  178.4990  137.6070 C   0  0  0  0  0  3  0  0  0  0  0  0
  182.3320  179.1190  138.8500 C   0  0  0  0  0  0  0  0  0  0  0  0
  183.6340  177.8590  142.2490 C   0  0  0  0  0  2  0  0  0  0  0  0
  180.1410  183.4350  136.3800 N   0  0  0  0  0  0  0  0  0  0  0  0
  181.0210  181.5240  137.8180 C   0  0  0  0  0  3  0  0  0  0  0  0
  180.0070  182.5040  137.4590 C   0  0  0  0  0  0  0  0  0  0  0  0
  180.8430  179.3130  140.8420 C   0  0  1  0  0  3  0  0  0  0  0  0
  179.9680  180.0320  141.4670 C   0  0  0  0  0  2  0  0  0  0  0  0
  183.1980  177.8200  136.9910 C   0  0  0  0  0  3  0  0  0  0  0  0
  181.2760  177.9900  141.4020 C   0  0  0  0  0  2  0  0  0  0  0  0
  179.0390  182.0070  140.6260 C   0  0  0  0  0  2  0  0  0  0  0  0
  184.3790  179.1290  141.8410 C   0  0  1  0  0  3  0  0  0  0  0  0
  178.9580  184.6050  134.5940 C   0  0  0  0  0  1  0  0  0  0  0  0
  179.0800  184.3920  136.0900 C   0  0  0  0  0  3  0  0  0  0  0  0
  179.3630  185.7140  136.7790 C   0  0  0  0  0  1  0  0  0  0  0  0
  185.8650  178.8690  141.6250 C   0  0  0  0  0  2  0  0  0  0  0  0
  186.3660  177.9560  145.3390 C   0  0  0  0  0  3  0  0  0  0  0  0
  187.7990  178.2110  142.9250 N   0  0  0  0  0  0  0  0  0  0  0  0
  188.4010  177.8140  144.1330 N   0  0  0  0  0  0  0  0  0  0  0  0
  185.7360  178.3090  144.0980 N   0  0  0  0  0  0  0  0  0  0  0  0
  187.6720  177.7180  145.3230 C   0  0  0  0  0  0  0  0  0  0  0  0
  189.7790  177.6330  144.3070 N   0  0  1  0  0  0  0  0  0  0  0  0
  188.5500  177.4050  146.4470 C   0  0  0  0  0  3  0  0  0  0  0  0
  186.5170  178.4350  142.8930 C   0  0  0  0  0  0  0  0  0  0  0  0
  189.9290  177.3670  145.7550 C   0  0  0  0  0  2  0  0  0  0  0  0
  190.1550  176.4100  143.6060 C   0  0  0  0  0  3  0  0  0  0  0  0
  190.5630  176.7450  142.1830 C   0  0  0  0  0  2  0  0  0  0  0  0
  191.6230  176.4730  143.2250 C   0  0  0  0  0  2  0  0  0  0  0  0
  1  8  1  0  0  0  0
  2  5  1  0  0  0  0
  3 16  1  0  0  0  0
  4  1  2  0  0  0  0
  5 23  1  1  0  0  0
  6 19  1  0  0  0  0
  7  4  1  0  0  0  0
  8  9  1  0  0  0  0
  9 24  1  0  0  0  0
 12  5  1  0  0  0  0
 12  6  1  0  0  0  0
 13 14  1  0  0  0  0
 14  8  2  0  0  0  0
 14  6  1  0  0  0  0
 15 11  1  0  0  0  0
 16 18  1  0  0  0  0
 17 12  2  0  0  0  0
 18 17  1  0  0  0  0
 18  2  2  0  0  0  0
 19 22  1  6  0  0  0
 19 20  1  0  0  0  0
 20 10  1  0  0  0  0
 21 13  2  0  0  0  0
 21  4  1  0  0  0  0
 22 11  1  0  0  0  0
 23 10  1  0  0  0  0
 24 28  1  6  0  0  0
 24 15  1  0  0  0  0
 25 26  1  0  0  0  0
 26 16  1  0  0  0  0
 26 27  1  0  0  0  0
 28 36  1  0  0  0  0
 30 31  1  0  0  0  0
 31 34  1  0  0  0  0
 31 33  1  0  0  0  0
 32 29  2  0  0  0  0
 33 29  1  0  0  0  0
 33 35  2  0  0  0  0
 34 38  1  6  0  0  0
 34 37  1  0  0  0  0
 36 30  2  0  0  0  0
 36 32  1  0  0  0  0
 37 35  1  0  0  0  0
 39 40  1  0  0  0  0
 39 38  1  0  0  0  0
 40 38  1  0  0  0  0
M  END
>  <MODEL>
4

>  <REMARK>
 VINA RESULT:      -7.8      3.476      6.088
  Name = 
  4 active torsions:
  status: ('A' for Active; 'I' for Inactive)
    1  A    between atoms: C_6  and  N_26
    2  A    between atoms: C_15  and  N_28
    3  A    between atoms: C_31  and  C_37
    4  A    between atoms: C_37  and  C_40
                            x       y       z     vdW  Elec       q    Type
                         _______ _______ _______ _____ _____    ______ ____

>  <TORSDO>
F 4

$$$$
=
 OpenBabel11042413063D

 40 46  0  0  1  0  0  0  0  0999 V2000
  189.2480  178.4440  138.0860 C   0  0  0  0  0  3  0  0  0  0  0  0
  184.4080  173.6000  136.5190 N   0  0  0  0  0  0  0  0  0  0  0  0
  182.6810  176.3900  138.0070 O   0  0  0  0  0  1  0  0  0  0  0  0
  188.7370  179.3780  137.1810 C   0  0  0  0  0  0  0  0  0  0  0  0
  185.8360  173.4890  136.2650 C   0  0  1  0  0  3  0  0  0  0  0  0
  187.7600  175.2720  136.7560 N   0  0  0  0  0  0  0  0  0  0  0  0
  189.0710  180.6850  137.2960 F   0  0  0  0  0  0  0  0  0  0  0  0
  188.9020  177.0900  137.9750 C   0  0  0  0  0  0  0  0  0  0  0  0
  189.3760  176.1430  138.8920 O   0  0  0  0  0  0  0  0  0  0  0  0
  187.8410  171.9970  136.6730 C   0  0  0  0  0  2  0  0  0  0  0  0
  191.2440  174.4870  137.3260 C   0  0  0  0  0  2  0  0  0  0  0  0
  186.3710  174.8160  136.7950 C   0  0  0  0  0  0  0  0  0  0  0  0
  187.5390  177.6140  136.0370 C   0  0  0  0  0  3  0  0  0  0  0  0
  188.0530  176.6710  136.9360 C   0  0  0  0  0  0  0  0  0  0  0  0
  191.6310  175.7720  138.0460 C   0  0  0  0  0  2  0  0  0  0  0  0
  182.8550  175.1700  137.4420 N   0  0  0  0  0  0  0  0  0  0  0  0
  185.3680  175.5510  137.2560 C   0  0  0  0  0  3  0  0  0  0  0  0
  184.1700  174.7460  137.0660 C   0  0  0  0  0  0  0  0  0  0  0  0
  188.8530  174.3320  136.5990 C   0  0  1  0  0  3  0  0  0  0  0  0
  188.5510  173.0750  136.6290 C   0  0  0  0  0  2  0  0  0  0  0  0
  187.8760  178.9640  136.1610 C   0  0  0  0  0  3  0  0  0  0  0  0
  190.2370  174.7680  136.2180 C   0  0  0  0  0  2  0  0  0  0  0  0
  186.3950  172.2450  136.9980 C   0  0  0  0  0  2  0  0  0  0  0  0
  190.7460  176.0100  139.2700 C   0  0  1  0  0  3  0  0  0  0  0  0
  181.0580  174.6080  135.8890 C   0  0  0  0  0  1  0  0  0  0  0  0
  181.7060  174.3000  137.2240 C   0  0  0  0  0  3  0  0  0  0  0  0
  180.6940  174.4760  138.3420 C   0  0  0  0  0  1  0  0  0  0  0  0
  191.2200  177.2060  140.0870 C   0  0  0  0  0  2  0  0  0  0  0  0
  190.7500  177.0760  143.9130 C   0  0  0  0  0  3  0  0  0  0  0  0
  189.2710  177.2860  141.5220 N   0  0  0  0  0  0  0  0  0  0  0  0
  188.6710  177.2890  142.7940 N   0  0  0  0  0  0  0  0  0  0  0  0
  191.3720  177.1260  142.6190 N   0  0  0  0  0  0  0  0  0  0  0  0
  189.4270  177.1600  143.9660 C   0  0  0  0  0  0  0  0  0  0  0  0
  187.2890  177.2620  143.0160 N   0  0  1  0  0  0  0  0  0  0  0  0
  188.5590  177.0730  145.1370 C   0  0  0  0  0  3  0  0  0  0  0  0
  190.5690  177.2250  141.4270 C   0  0  0  0  0  0  0  0  0  0  0  0
  187.1600  177.1300  144.4850 C   0  0  0  0  0  2  0  0  0  0  0  0
  186.7590  178.5720  142.6560 C   0  0  0  0  0  3  0  0  0  0  0  0
  186.4220  178.5950  141.1770 C   0  0  0  0  0  2  0  0  0  0  0  0
  185.3190  178.4300  142.1980 C   0  0  0  0  0  2  0  0  0  0  0  0
  2 18  2  0  0  0  0
  4  7  1  0  0  0  0
  4  1  2  0  0  0  0
  5  2  1  0  0  0  0
  5 12  1  0  0  0  0
  5 23  1  1  0  0  0
  6 12  1  0  0  0  0
  6 14  1  0  0  0  0
  8  1  1  0  0  0  0
  8  9  1  0  0  0  0
  9 24  1  0  0  0  0
 10 23  1  0  0  0  0
 11 15  1  0  0  0  0
 12 17  2  0  0  0  0
 13 21  2  0  0  0  0
 13 14  1  0  0  0  0
 14  8  2  0  0  0  0
 15 24  1  0  0  0  0
 16  3  1  0  0  0  0
 18 17  1  0  0  0  0
 18 16  1  0  0  0  0
 19 22  1  6  0  0  0
 19 20  1  0  0  0  0
 19  6  1  0  0  0  0
 20 10  1  0  0  0  0
 21  4  1  0  0  0  0
 22 11  1  0  0  0  0
 24 28  1  6  0  0  0
 25 26  1  0  0  0  0
 26 16  1  0  0  0  0
 26 27  1  0  0  0  0
 28 36  1  0  0  0  0
 29 33  1  0  0  0  0
 30 31  1  0  0  0  0
 31 34  1  0  0  0  0
 31 33  1  0  0  0  0
 32 29  2  0  0  0  0
 33 35  2  0  0  0  0
 34 38  1  1  0  0  0
 34 37  1  0  0  0  0
 36 30  2  0  0  0  0
 36 32  1  0  0  0  0
 37 35  1  0  0  0  0
 39 40  1  0  0  0  0
 39 38  1  0  0  0  0
 40 38  1  0  0  0  0
M  END
>  <MODEL>
5

>  <REMARK>
 VINA RESULT:      -7.7      3.648      5.757
  Name = 
  4 active torsions:
  status: ('A' for Active; 'I' for Inactive)
    1  A    between atoms: C_6  and  N_26
    2  A    between atoms: C_15  and  N_28
    3  A    between atoms: C_31  and  C_37
    4  A    between atoms: C_37  and  C_40
                            x       y       z     vdW  Elec       q    Type
                         _______ _______ _______ _____ _____    ______ ____

>  <TORSDO>
F 4

$$$$
=
 OpenBabel11042413063D

 40 46  0  0  1  0  0  0  0  0999 V2000
  189.4590  174.8500  136.3780 C   0  0  0  0  0  3  0  0  0  0  0  0
  188.3220  178.5350  142.2490 N   0  0  0  0  0  0  0  0  0  0  0  0
  190.8430  176.0750  143.0060 O   0  0  0  0  0  1  0  0  0  0  0  0
  190.7780  175.2910  136.2480 C   0  0  0  0  0  0  0  0  0  0  0  0
  187.6670  178.7510  140.9680 C   0  0  1  0  0  3  0  0  0  0  0  0
  188.0500  177.4660  138.6620 N   0  0  0  0  0  0  0  0  0  0  0  0
  191.6430  174.6160  135.4550 F   0  0  0  0  0  0  0  0  0  0  0  0
  188.5600  175.5410  137.2020 C   0  0  0  0  0  0  0  0  0  0  0  0
  187.2420  175.0950  137.3720 O   0  0  0  0  0  0  0  0  0  0  0  0
  185.3860  178.9330  139.8830 C   0  0  0  0  0  2  0  0  0  0  0  0
  185.6040  177.1370  136.0180 C   0  0  0  0  0  2  0  0  0  0  0  0
  188.3050  177.6840  140.0850 C   0  0  0  0  0  0  0  0  0  0  0  0
  190.3110  177.1270  137.7540 C   0  0  0  0  0  3  0  0  0  0  0  0
  188.9850  176.6950  137.8830 C   0  0  0  0  0  0  0  0  0  0  0  0
  186.2090  175.9220  135.3260 C   0  0  0  0  0  2  0  0  0  0  0  0
  189.9780  177.0980  143.2100 N   0  0  0  0  0  0  0  0  0  0  0  0
  189.1970  176.9970  140.7870 C   0  0  0  0  0  3  0  0  0  0  0  0
  189.1640  177.5620  142.1270 C   0  0  0  0  0  0  0  0  0  0  0  0
  186.8410  177.9620  138.0330 C   0  0  1  0  0  3  0  0  0  0  0  0
  185.9500  178.4830  138.8110 C   0  0  0  0  0  2  0  0  0  0  0  0
  191.2060  176.4250  136.9430 C   0  0  0  0  0  3  0  0  0  0  0  0
  186.6960  178.0620  136.5420 C   0  0  0  0  0  2  0  0  0  0  0  0
  186.1360  178.5950  141.1410 C   0  0  0  0  0  2  0  0  0  0  0  0
  186.3670  174.7530  136.2970 C   0  0  1  0  0  3  0  0  0  0  0  0
  191.1640  177.5030  145.3040 C   0  0  0  0  0  1  0  0  0  0  0  0
  189.8790  177.7140  144.5280 C   0  0  0  0  0  3  0  0  0  0  0  0
  188.7090  177.1280  145.2950 C   0  0  0  0  0  1  0  0  0  0  0  0
  186.8250  173.4850  135.5860 C   0  0  0  0  0  2  0  0  0  0  0  0
  185.0120  170.0960  135.2620 C   0  0  0  0  0  3  0  0  0  0  0  0
  184.4970  172.8290  135.7190 N   0  0  0  0  0  0  0  0  0  0  0  0
  183.4830  171.8550  135.6900 N   0  0  0  0  0  0  0  0  0  0  0  0
  186.0570  171.0770  135.3440 N   0  0  0  0  0  0  0  0  0  0  0  0
  183.7620  170.5070  135.4370 C   0  0  0  0  0  0  0  0  0  0  0  0
  182.1130  172.1390  135.7490 N   0  0  1  0  0  0  0  0  0  0  0  0
  182.5300  169.7290  135.3430 C   0  0  0  0  0  3  0  0  0  0  0  0
  185.7380  172.4640  135.5710 C   0  0  0  0  0  0  0  0  0  0  0  0
  181.4610  170.8270  135.5390 C   0  0  0  0  0  2  0  0  0  0  0  0
  181.8070  172.5560  137.1120 C   0  0  0  0  0  3  0  0  0  0  0  0
  181.9110  174.0660  137.2180 C   0  0  0  0  0  2  0  0  0  0  0  0
  180.5530  173.4100  137.1140 C   0  0  0  0  0  2  0  0  0  0  0  0
  1  8  1  0  0  0  0
  3 16  1  0  0  0  0
  4  1  2  0  0  0  0
  4 21  1  0  0  0  0
  5 23  1  1  0  0  0
  5  2  1  0  0  0  0
  6 12  1  0  0  0  0
  7  4  1  0  0  0  0
  8  9  1  0  0  0  0
  8 14  2  0  0  0  0
 10 23  1  0  0  0  0
 11 22  1  0  0  0  0
 12 17  2  0  0  0  0
 12  5  1  0  0  0  0
 13 14  1  0  0  0  0
 14  6  1  0  0  0  0
 15 11  1  0  0  0  0
 15 24  1  0  0  0  0
 16 26  1  0  0  0  0
 17 18  1  0  0  0  0
 18  2  2  0  0  0  0
 18 16  1  0  0  0  0
 19 22  1  6  0  0  0
 19  6  1  0  0  0  0
 19 20  1  0  0  0  0
 20 10  1  0  0  0  0
 21 13  2  0  0  0  0
 24 28  1  6  0  0  0
 24  9  1  0  0  0  0
 26 27  1  0  0  0  0
 26 25  1  0  0  0  0
 29 32  2  0  0  0  0
 29 33  1  0  0  0  0
 31 30  1  0  0  0  0
 31 34  1  0  0  0  0
 32 36  1  0  0  0  0
 33 31  1  0  0  0  0
 34 38  1  1  0  0  0
 35 33  2  0  0  0  0
 35 37  1  0  0  0  0
 36 28  1  0  0  0  0
 36 30  2  0  0  0  0
 37 34  1  0  0  0  0
 38 40  1  0  0  0  0
 38 39  1  0  0  0  0
 40 39  1  0  0  0  0
M  END
>  <MODEL>
6

>  <REMARK>
 VINA RESULT:      -7.7      4.107     10.478
  Name = 
  4 active torsions:
  status: ('A' for Active; 'I' for Inactive)
    1  A    between atoms: C_6  and  N_26
    2  A    between atoms: C_15  and  N_28
    3  A    between atoms: C_31  and  C_37
    4  A    between atoms: C_37  and  C_40
                            x       y       z     vdW  Elec       q    Type
                         _______ _______ _______ _____ _____    ______ ____

>  <TORSDO>
F 4

$$$$
=
 OpenBabel11042413063D

 40 46  0  0  1  0  0  0  0  0999 V2000
  185.4820  178.4320  139.3730 C   0  0  0  0  0  3  0  0  0  0  0  0
  185.5860  173.0780  134.8280 N   0  0  0  0  0  0  0  0  0  0  0  0
  182.8420  172.5020  137.0890 O   0  0  0  0  0  1  0  0  0  0  0  0
  184.2420  178.9000  138.9320 C   0  0  0  0  0  0  0  0  0  0  0  0
  186.4990  174.2100  134.8290 C   0  0  1  0  0  3  0  0  0  0  0  0
  186.5280  176.3250  136.4550 N   0  0  0  0  0  0  0  0  0  0  0  0
  183.5230  179.7460  139.7090 F   0  0  0  0  0  0  0  0  0  0  0  0
  186.2290  177.5520  138.5760 C   0  0  0  0  0  0  0  0  0  0  0  0
  187.4590  177.0450  139.0140 O   0  0  0  0  0  0  0  0  0  0  0  0
  188.9590  174.8100  134.8630 C   0  0  0  0  0  2  0  0  0  0  0  0
  189.4410  178.3190  137.2430 C   0  0  0  0  0  2  0  0  0  0  0  0
  186.0000  175.0370  136.0100 C   0  0  0  0  0  0  0  0  0  0  0  0
  184.4850  177.6240  136.8910 C   0  0  0  0  0  3  0  0  0  0  0  0
  185.7330  177.1570  137.3220 C   0  0  0  0  0  0  0  0  0  0  0  0
  188.9290  178.9300  138.5410 C   0  0  0  0  0  2  0  0  0  0  0  0
  183.6990  172.2790  136.0630 N   0  0  0  0  0  0  0  0  0  0  0  0
  184.9500  174.4410  136.5610 C   0  0  0  0  0  3  0  0  0  0  0  0
  184.7380  173.2250  135.7910 C   0  0  0  0  0  0  0  0  0  0  0  0
  187.8640  176.7550  136.0880 C   0  0  1  0  0  3  0  0  0  0  0  0
  188.6030  175.8950  135.4660 C   0  0  0  0  0  2  0  0  0  0  0  0
  183.7390  178.4900  137.6950 C   0  0  0  0  0  3  0  0  0  0  0  0
  188.3150  178.1800  136.2270 C   0  0  0  0  0  2  0  0  0  0  0  0
  187.9530  173.7000  134.9840 C   0  0  0  0  0  2  0  0  0  0  0  0
  188.5160  177.8490  139.5390 C   0  0  1  0  0  3  0  0  0  0  0  0
  182.1910  171.0430  134.5940 C   0  0  0  0  0  1  0  0  0  0  0  0
  183.5580  171.0770  135.2480 C   0  0  0  0  0  3  0  0  0  0  0  0
  183.7530  169.8380  136.1020 C   0  0  0  0  0  1  0  0  0  0  0  0
  188.1490  178.4410  140.8950 C   0  0  0  0  0  2  0  0  0  0  0  0
  191.4310  177.3710  142.6160 C   0  0  0  0  0  3  0  0  0  0  0  0
  188.6770  177.6840  143.1340 N   0  0  0  0  0  0  0  0  0  0  0  0
  189.5940  177.2530  144.1100 N   0  0  0  0  0  0  0  0  0  0  0  0
  190.5090  177.8620  141.6310 N   0  0  0  0  0  0  0  0  0  0  0  0
  190.9530  177.0830  143.8200 C   0  0  0  0  0  0  0  0  0  0  0  0
  189.2350  176.8080  145.3880 N   0  0  1  0  0  0  0  0  0  0  0  0
  191.6610  176.5160  144.9650 C   0  0  0  0  0  3  0  0  0  0  0  0
  189.1080  177.9950  141.9450 C   0  0  0  0  0  0  0  0  0  0  0  0
  190.5080  176.3340  145.9770 C   0  0  0  0  0  2  0  0  0  0  0  0
  188.8150  177.9730  146.1580 C   0  0  0  0  0  3  0  0  0  0  0  0
  187.3000  178.0210  146.2220 C   0  0  0  0  0  2  0  0  0  0  0  0
  188.0880  177.5190  147.4110 C   0  0  0  0  0  2  0  0  0  0  0  0
  2  5  1  0  0  0  0
  2 18  2  0  0  0  0
  4  1  1  0  0  0  0
  4  7  1  0  0  0  0
  5 23  1  1  0  0  0
  5 12  1  0  0  0  0
  6 14  1  0  0  0  0
  8  9  1  0  0  0  0
  8  1  2  0  0  0  0
  9 24  1  0  0  0  0
 10 23  1  0  0  0  0
 10 20  1  0  0  0  0
 11 15  1  0  0  0  0
 12  6  1  0  0  0  0
 12 17  2  0  0  0  0
 13 14  2  0  0  0  0
 13 21  1  0  0  0  0
 14  8  1  0  0  0  0
 15 24  1  0  0  0  0
 16  3  1  0  0  0  0
 18 16  1  0  0  0  0
 18 17  1  0  0  0  0
 19 20  1  6  0  0  0
 19 22  1  0  0  0  0
 19  6  1  0  0  0  0
 21  4  2  0  0  0  0
 22 11  1  0  0  0  0
 24 28  1  1  0  0  0
 25 26  1  0  0  0  0
 26 16  1  0  0  0  0
 26 27  1  0  0  0  0
 28 36  1  0  0  0  0
 29 33  1  0  0  0  0
 30 31  1  0  0  0  0
 31 34  1  0  0  0  0
 32 36  1  0  0  0  0
 32 29  2  0  0  0  0
 33 31  1  0  0  0  0
 33 35  2  0  0  0  0
 34 37  1  0  0  0  0
 34 38  1  1  0  0  0
 35 37  1  0  0  0  0
 36 30  2  0  0  0  0
 38 39  1  0  0  0  0
 38 40  1  0  0  0  0
 39 40  1  0  0  0  0
M  END
>  <MODEL>
7

>  <REMARK>
 VINA RESULT:      -7.5      2.990      4.398
  Name = 
  4 active torsions:
  status: ('A' for Active; 'I' for Inactive)
    1  A    between atoms: C_6  and  N_26
    2  A    between atoms: C_15  and  N_28
    3  A    between atoms: C_31  and  C_37
    4  A    between atoms: C_37  and  C_40
                            x       y       z     vdW  Elec       q    Type
                         _______ _______ _______ _____ _____    ______ ____

>  <TORSDO>
F 4

$$$$
=
 OpenBabel11042413063D

 40 46  0  0  1  0  0  0  0  0999 V2000
  187.4270  176.8870  136.2370 C   0  0  0  0  0  3  0  0  0  0  0  0
  188.4070  178.2670  143.0540 N   0  0  0  0  0  0  0  0  0  0  0  0
  191.2950  176.4410  141.9110 O   0  0  0  0  0  1  0  0  0  0  0  0
  188.5060  177.6750  135.8290 C   0  0  0  0  0  0  0  0  0  0  0  0
  187.2560  178.6690  142.2620 C   0  0  1  0  0  3  0  0  0  0  0  0
  186.7940  178.2600  139.6660 N   0  0  0  0  0  0  0  0  0  0  0  0
  189.0360  177.5110  134.5940 F   0  0  0  0  0  0  0  0  0  0  0  0
  186.8780  177.0480  137.5160 C   0  0  0  0  0  0  0  0  0  0  0  0
  185.8180  176.2440  137.9570 O   0  0  0  0  0  0  0  0  0  0  0  0
  184.7260  178.5590  142.1910 C   0  0  0  0  0  2  0  0  0  0  0  0
  183.5270  178.0910  138.1230 C   0  0  0  0  0  2  0  0  0  0  0  0
  187.5920  178.1120  140.8820 C   0  0  0  0  0  0  0  0  0  0  0  0
  188.4910  178.8030  137.9690 C   0  0  0  0  0  3  0  0  0  0  0  0
  187.4040  178.0220  138.3830 C   0  0  0  0  0  0  0  0  0  0  0  0
  183.9310  177.3330  136.8650 C   0  0  0  0  0  2  0  0  0  0  0  0
  190.4750  177.0970  142.7680 N   0  0  0  0  0  0  0  0  0  0  0  0
  188.7720  177.5080  140.9190 C   0  0  0  0  0  3  0  0  0  0  0  0
  189.2330  177.6280  142.2930 C   0  0  0  0  0  0  0  0  0  0  0  0
  185.3810  178.5840  139.7310 C   0  0  1  0  0  3  0  0  0  0  0  0
  184.8410  178.6040  140.9060 C   0  0  0  0  0  2  0  0  0  0  0  0
  189.0430  178.6280  136.6990 C   0  0  0  0  0  3  0  0  0  0  0  0
  184.6150  179.0740  138.5370 C   0  0  0  0  0  2  0  0  0  0  0  0
  185.9680  178.0760  142.8860 C   0  0  0  0  0  2  0  0  0  0  0  0
  184.6230  176.0150  137.2110 C   0  0  1  0  0  3  0  0  0  0  0  0
  191.6900  178.5110  144.3440 C   0  0  0  0  0  1  0  0  0  0  0  0
  190.8620  177.2530  144.1660 C   0  0  0  0  0  3  0  0  0  0  0  0
  191.6520  176.0440  144.6310 C   0  0  0  0  0  1  0  0  0  0  0  0
  184.8920  175.1750  135.9670 C   0  0  0  0  0  2  0  0  0  0  0  0
  183.6680  171.5680  135.3620 C   0  0  0  0  0  3  0  0  0  0  0  0
  182.7670  174.0650  136.3080 N   0  0  0  0  0  0  0  0  0  0  0  0
  181.9460  172.9240  136.2630 N   0  0  0  0  0  0  0  0  0  0  0  0
  184.5260  172.7150  135.4560 N   0  0  0  0  0  0  0  0  0  0  0  0
  182.4110  171.7010  135.7660 C   0  0  0  0  0  0  0  0  0  0  0  0
  180.5750  172.9250  136.5490 N   0  0  1  0  0  0  0  0  0  0  0  0
  181.3330  170.7160  135.7180 C   0  0  0  0  0  3  0  0  0  0  0  0
  184.0120  173.9720  135.9390 C   0  0  0  0  0  0  0  0  0  0  0  0
  180.1360  171.5490  136.2260 C   0  0  0  0  0  2  0  0  0  0  0  0
  180.4250  173.0940  137.9900 C   0  0  0  0  0  3  0  0  0  0  0  0
  180.2630  174.5680  138.3150 C   0  0  0  0  0  2  0  0  0  0  0  0
  179.0520  173.6630  138.2960 C   0  0  0  0  0  2  0  0  0  0  0  0
  1  8  1  0  0  0  0
  3 16  1  0  0  0  0
  4  1  2  0  0  0  0
  4 21  1  0  0  0  0
  5 23  1  1  0  0  0
  5  2  1  0  0  0  0
  6 19  1  0  0  0  0
  6 12  1  0  0  0  0
  7  4  1  0  0  0  0
  8  9  1  0  0  0  0
  8 14  2  0  0  0  0
 10 23  1  0  0  0  0
 11 22  1  0  0  0  0
 12 17  2  0  0  0  0
 12  5  1  0  0  0  0
 13 14  1  0  0  0  0
 14  6  1  0  0  0  0
 15 24  1  0  0  0  0
 15 11  1  0  0  0  0
 16 26  1  0  0  0  0
 17 18  1  0  0  0  0
 18 16  1  0  0  0  0
 18  2  2  0  0  0  0
 19 22  1  1  0  0  0
 19 20  1  0  0  0  0
 20 10  1  0  0  0  0
 21 13  2  0  0  0  0
 24 28  1  6  0  0  0
 24  9  1  0  0  0  0
 26 25  1  0  0  0  0
 26 27  1  0  0  0  0
 29 32  2  0  0  0  0
 29 33  1  0  0  0  0
 31 30  1  0  0  0  0
 31 34  1  0  0  0  0
 32 36  1  0  0  0  0
 33 31  1  0  0  0  0
 34 38  1  1  0  0  0
 35 33  2  0  0  0  0
 35 37  1  0  0  0  0
 36 28  1  0  0  0  0
 36 30  2  0  0  0  0
 37 34  1  0  0  0  0
 38 40  1  0  0  0  0
 38 39  1  0  0  0  0
 40 39  1  0  0  0  0
M  END
>  <MODEL>
8

>  <REMARK>
 VINA RESULT:      -7.1      3.308     10.010
  Name = 
  4 active torsions:
  status: ('A' for Active; 'I' for Inactive)
    1  A    between atoms: C_6  and  N_26
    2  A    between atoms: C_15  and  N_28
    3  A    between atoms: C_31  and  C_37
    4  A    between atoms: C_37  and  C_40
                            x       y       z     vdW  Elec       q    Type
                         _______ _______ _______ _____ _____    ______ ____

>  <TORSDO>
F 4

$$$$
=
 OpenBabel11042413063D

 40 46  0  0  1  0  0  0  0  0999 V2000
  188.0240  178.5060  137.5670 C   0  0  0  0  0  3  0  0  0  0  0  0
  184.7210  172.5580  135.8190 N   0  0  0  0  0  0  0  0  0  0  0  0
  182.1850  174.9970  136.5930 O   0  0  0  0  0  1  0  0  0  0  0  0
  187.5240  179.2120  136.4700 C   0  0  0  0  0  0  0  0  0  0  0  0
  186.1620  172.7560  135.8400 C   0  0  1  0  0  3  0  0  0  0  0  0
  187.5310  174.9700  136.4260 N   0  0  0  0  0  0  0  0  0  0  0  0
  187.5480  180.5660  136.4690 F   0  0  0  0  0  0  0  0  0  0  0  0
  187.9970  177.1040  137.5770 C   0  0  0  0  0  0  0  0  0  0  0  0
  188.4620  176.3780  138.6810 O   0  0  0  0  0  0  0  0  0  0  0  0
  188.3080  171.8080  136.7930 C   0  0  0  0  0  2  0  0  0  0  0  0
  190.9120  175.0620  137.7060 C   0  0  0  0  0  2  0  0  0  0  0  0
  186.2890  174.2120  136.2770 C   0  0  0  0  0  0  0  0  0  0  0  0
  186.9770  177.1250  135.3760 C   0  0  0  0  0  3  0  0  0  0  0  0
  187.4830  176.4090  136.4690 C   0  0  0  0  0  0  0  0  0  0  0  0
  190.8680  176.4610  138.3070 C   0  0  0  0  0  2  0  0  0  0  0  0
  182.7200  173.8050  136.2340 N   0  0  0  0  0  0  0  0  0  0  0  0
  185.0830  174.7350  136.4500 C   0  0  0  0  0  3  0  0  0  0  0  0
  184.1430  173.6630  136.1590 C   0  0  0  0  0  0  0  0  0  0  0  0
  188.8050  174.2970  136.5920 C   0  0  1  0  0  3  0  0  0  0  0  0
  188.7710  173.0120  136.7340 C   0  0  0  0  0  2  0  0  0  0  0  0
  186.9940  178.5210  135.3780 C   0  0  0  0  0  3  0  0  0  0  0  0
  190.1160  175.0040  136.4090 C   0  0  0  0  0  2  0  0  0  0  0  0
  186.8070  171.7440  136.8200 C   0  0  0  0  0  2  0  0  0  0  0  0
  189.7240  176.5980  139.3110 C   0  0  1  0  0  3  0  0  0  0  0  0
  180.6530  173.1400  135.1200 C   0  0  0  0  0  1  0  0  0  0  0  0
  181.8460  172.6770  135.9330 C   0  0  0  0  0  3  0  0  0  0  0  0
  181.3730  172.0220  137.2170 C   0  0  0  0  0  1  0  0  0  0  0  0
  189.7630  177.9390  140.0340 C   0  0  0  0  0  2  0  0  0  0  0  0
  186.8760  177.8730  142.5910 C   0  0  0  0  0  3  0  0  0  0  0  0
  189.6910  177.8320  142.4520 N   0  0  0  0  0  0  0  0  0  0  0  0
  188.9860  177.7750  143.6680 N   0  0  0  0  0  0  0  0  0  0  0  0
  187.5900  177.8770  141.3450 N   0  0  0  0  0  0  0  0  0  0  0  0
  187.5870  177.8210  143.7110 C   0  0  0  0  0  0  0  0  0  0  0  0
  189.5850  177.8260  144.9320 N   0  0  1  0  0  0  0  0  0  0  0  0
  187.1110  177.8660  145.0910 C   0  0  0  0  0  3  0  0  0  0  0  0
  189.0310  177.8650  141.3300 C   0  0  0  0  0  0  0  0  0  0  0  0
  188.4430  177.8810  145.8720 C   0  0  0  0  0  2  0  0  0  0  0  0
  190.2600  176.5520  145.1520 C   0  0  0  0  0  3  0  0  0  0  0  0
  191.6800  176.6310  144.6250 C   0  0  0  0  0  2  0  0  0  0  0  0
  191.4210  176.7500  146.1090 C   0  0  0  0  0  2  0  0  0  0  0  0
  1  8  1  0  0  0  0
  2  5  1  0  0  0  0
  2 18  2  0  0  0  0
  4  1  2  0  0  0  0
  5 12  1  0  0  0  0
  5 23  1  1  0  0  0
  6 14  1  0  0  0  0
  6 19  1  0  0  0  0
  7  4  1  0  0  0  0
  8  9  1  0  0  0  0
  9 24  1  0  0  0  0
 10 23  1  0  0  0  0
 11 15  1  0  0  0  0
 12  6  1  0  0  0  0
 12 17  2  0  0  0  0
 13 21  2  0  0  0  0
 13 14  1  0  0  0  0
 14  8  2  0  0  0  0
 15 24  1  0  0  0  0
 16  3  1  0  0  0  0
 18 16  1  0  0  0  0
 18 17  1  0  0  0  0
 19 22  1  6  0  0  0
 19 20  1  0  0  0  0
 20 10  1  0  0  0  0
 21  4  1  0  0  0  0
 22 11  1  0  0  0  0
 24 28  1  6  0  0  0
 25 26  1  0  0  0  0
 26 16  1  0  0  0  0
 26 27  1  0  0  0  0
 28 36  1  0  0  0  0
 29 33  1  0  0  0  0
 30 31  1  0  0  0  0
 31 33  1  0  0  0  0
 31 34  1  0  0  0  0
 32 29  2  0  0  0  0
 33 35  2  0  0  0  0
 34 38  1  1  0  0  0
 34 37  1  0  0  0  0
 35 37  1  0  0  0  0
 36 32  1  0  0  0  0
 36 30  2  0  0  0  0
 38 40  1  0  0  0  0
 39 38  1  0  0  0  0
 39 40  1  0  0  0  0
M  END
>  <MODEL>
9

>  <REMARK>
 VINA RESULT:      -6.9      3.764      5.185
  Name = 
  4 active torsions:
  status: ('A' for Active; 'I' for Inactive)
    1  A    between atoms: C_6  and  N_26
    2  A    between atoms: C_15  and  N_28
    3  A    between atoms: C_31  and  C_37
    4  A    between atoms: C_37  and  C_40
                            x       y       z     vdW  Elec       q    Type
                         _______ _______ _______ _____ _____    ______ ____

>  <TORSDO>
F 4

$$$$
