=
 OpenBabel11032419413D

 49 53  0  0  1  0  0  0  0  0999 V2000
  186.0610  178.0670  137.8350 S   0  0  0  0  0  0  0  0  0  0  0  0
  190.2920  177.1070  139.6630 C   0  0  0  0  0  3  0  0  0  0  0  0
  192.9480  175.8580  137.5830 C   0  0  0  0  0  0  0  0  0  0  0  0
  195.0210  174.7760  138.4860 N   0  0  0  0  0  2  0  0  0  0  0  0
  188.6190  175.9230  134.6800 O   0  0  0  0  0  0  0  0  0  0  0  0
  193.8500  173.6850  136.7760 N   0  0  0  0  0  0  0  0  0  0  0  0
  187.4950  178.0540  138.7060 C   0  0  0  0  0  0  0  0  0  0  0  0
  191.4950  173.4130  136.3980 C   0  0  2  0  0  3  0  0  0  0  0  0
  187.9460  176.7890  136.7880 C   0  0  0  0  0  0  0  0  0  0  0  0
  190.8920  177.0750  137.3630 N   0  0  0  0  0  2  0  0  0  0  0  0
  189.5240  174.8570  136.5430 N   0  0  0  0  0  2  0  0  0  0  0  0
  193.4600  177.0980  138.2570 C   0  0  0  0  0  1  0  0  0  0  0  0
  190.6310  172.4400  135.6130 C   0  0  0  0  0  1  0  0  0  0  0  0
  191.6550  175.8770  137.1490 C   0  0  0  0  0  0  0  0  0  0  0  0
  193.9220  174.7140  137.5680 C   0  0  0  0  0  0  0  0  0  0  0  0
  188.4670  177.3310  137.9900 C   0  0  0  0  0  0  0  0  0  0  0  0
  190.9610  174.8290  136.2880 C   0  0  1  0  0  3  0  0  0  0  0  0
  188.7780  178.6350  140.7750 C   0  0  0  0  0  2  0  0  0  0  0  0
  192.8540  173.4290  135.7610 C   0  0  0  0  0  2  0  0  0  0  0  0
  188.6900  175.8450  135.9360 C   0  0  0  0  0  0  0  0  0  0  0  0
  186.6210  177.1510  136.5430 C   0  0  0  0  0  0  0  0  0  0  0  0
  187.6080  178.6520  139.9690 O   0  0  0  0  0  0  0  0  0  0  0  0
  189.8950  177.1650  138.3880 C   0  0  0  0  0  0  0  0  0  0  0  0
  189.3740  177.2430  140.8260 C   0  0  2  0  0  3  0  0  0  0  0  0
  196.0370  173.7370  138.5760 C   0  0  0  0  0  1  0  0  0  0  0  0
  185.7740  176.6780  135.4070 C   0  0  0  0  0  2  0  0  0  0  0  0
  184.2560  175.0980  136.6650 N   0  0  0  0  0  2  0  0  0  0  0  0
  185.2600  175.3030  135.6690 C   0  0  0  0  0  0  0  0  0  0  0  0
  185.7410  174.3290  135.0300 O   0  0  0  0  0  0  0  0  0  0  0  0
  184.6180  173.1690  137.9310 O   0  0  0  0  0  1  0  0  0  0  0  0
  183.7590  173.7710  137.0080 C   0  0  1  0  0  3  0  0  0  0  0  0
  182.3280  173.8480  137.5580 C   0  0  2  0  0  3  0  0  0  0  0  0
  181.3740  172.9680  136.7040 C   0  0  0  0  0  3  0  0  0  0  0  0
  180.6260  171.9300  137.5250 C   0  0  0  0  0  2  0  0  0  0  0  0
  181.7880  171.5090  136.6440 C   0  0  0  0  0  2  0  0  0  0  0  0
  180.6890  175.6630  136.9720 C   0  0  0  0  0  1  0  0  0  0  0  0
  181.5260  175.4770  139.1760 O   0  0  0  0  0  1  0  0  0  0  0  0
  181.8840  175.3030  137.8360 C   0  0  1  0  0  3  0  0  0  0  0  0
  190.0990  177.0900  142.0100 O   0  0  0  0  0  0  0  0  0  0  0  0
  189.3420  176.2060  142.7840 C   0  0  1  0  0  3  0  0  0  0  0  0
  190.0310  175.0020  142.9420 O   0  0  0  0  0  1  0  0  0  0  0  0
  189.0080  176.8220  144.1440 C   0  0  0  0  0  2  0  0  0  0  0  0
  187.0150  177.6100  145.5440 N   0  0  0  0  0  0  0  0  0  0  0  0
  186.8080  177.0320  143.2710 O   0  0  0  0  0  0  0  0  0  0  0  0
  187.5530  177.1630  144.2790 C   0  0  0  0  0  0  0  0  0  0  0  0
  187.8360  177.5360  146.7430 C   0  0  0  0  0  1  0  0  0  0  0  0
  185.6940  178.0830  145.6930 N   0  0  0  0  0  2  0  0  0  0  0  0
  184.5290  179.7560  144.0550 C   0  0  0  0  0  3  0  0  0  0  0  0
  185.0680  178.9800  144.8100 C   0  0  0  0  0  0  0  0  0  0  0  0
  1  7  1  0  0  0  0
  2 24  1  0  0  0  0
  3 12  1  0  0  0  0
  4 25  1  0  0  0  0
  5 20  2  0  0  0  0
  6 15  2  0  0  0  0
  7 22  1  0  0  0  0
  8 13  1  6  0  0  0
  9 16  1  0  0  0  0
 10 23  1  0  0  0  0
 14 10  1  0  0  0  0
 14  3  2  0  0  0  0
 15  3  1  0  0  0  0
 15  4  1  0  0  0  0
 16 23  1  0  0  0  0
 16  7  2  0  0  0  0
 17  8  1  0  0  0  0
 17 11  1  1  0  0  0
 17 14  1  0  0  0  0
 18 24  1  0  0  0  0
 19  8  1  0  0  0  0
 19  6  1  0  0  0  0
 20 11  1  0  0  0  0
 20  9  1  0  0  0  0
 21  9  2  0  0  0  0
 21  1  1  0  0  0  0
 22 18  1  0  0  0  0
 23  2  2  0  0  0  0
 24 39  1  1  0  0  0
 26 28  1  0  0  0  0
 26 21  1  0  0  0  0
 27 31  1  0  0  0  0
 28 27  1  0  0  0  0
 29 28  2  0  0  0  0
 31 30  1  1  0  0  0
 32 31  1  6  0  0  0
 32 38  1  0  0  0  0
 33 34  1  0  0  0  0
 33 32  1  0  0  0  0
 35 33  1  0  0  0  0
 35 34  1  0  0  0  0
 38 36  1  6  0  0  0
 38 37  1  0  0  0  0
 39 40  1  0  0  0  0
 40 41  1  1  0  0  0
 40 42  1  0  0  0  0
 42 45  1  0  0  0  0
 43 47  1  0  0  0  0
 43 46  1  0  0  0  0
 44 45  2  0  0  0  0
 45 43  1  0  0  0  0
 48 49  3  0  0  0  0
 49 47  1  0  0  0  0
M  END
>  <MODEL>
1

>  <REMARK>
 VINA RESULT:      -7.3      0.000      0.000
  Name = 
  12 active torsions:
  status: ('A' for Active; 'I' for Inactive)
    1  A    between atoms: C_2  and  O_42
    2  A    between atoms: C_2  and  C_43
    3  A    between atoms: C_5  and  C_12
    4  A    between atoms: C_5  and  C_34
    5  A    between atoms: C_5  and  C_35
    6  A    between atoms: N_11  and  C_34
    7  A    between atoms: C_13  and  C_36
    8  A    between atoms: N_16  and  N_22
    9  A    between atoms: N_22  and  C_45
   10  A    between atoms: C_36  and  C_39
   11  A    between atoms: O_42  and  C_48
   12  A    between atoms: C_43  and  C_46
                            x       y       z     vdW  Elec       q    Type
                         _______ _______ _______ _____ _____    ______ ____

>  <TORSDO>
F 12

$$$$
=
 OpenBabel11032419413D

 49 53  0  0  1  0  0  0  0  0999 V2000
  186.0020  178.3040  138.1790 S   0  0  0  0  0  0  0  0  0  0  0  0
  190.3140  176.8020  139.3220 C   0  0  0  0  0  3  0  0  0  0  0  0
  192.4210  175.2300  136.8660 C   0  0  0  0  0  0  0  0  0  0  0  0
  194.4570  173.8880  137.4440 N   0  0  0  0  0  2  0  0  0  0  0  0
  187.7260  175.8630  134.6920 O   0  0  0  0  0  0  0  0  0  0  0  0
  192.8970  172.9630  135.9610 N   0  0  0  0  0  0  0  0  0  0  0  0
  187.5430  178.1040  138.8090 C   0  0  0  0  0  0  0  0  0  0  0  0
  190.4970  172.9970  135.9690 C   0  0  2  0  0  3  0  0  0  0  0  0
  187.5150  176.7990  136.8650 C   0  0  0  0  0  0  0  0  0  0  0  0
  190.5280  176.7020  136.9570 N   0  0  0  0  0  2  0  0  0  0  0  0
  188.7750  174.6810  136.4030 N   0  0  0  0  0  2  0  0  0  0  0  0
  193.1870  176.3920  137.4290 C   0  0  0  0  0  1  0  0  0  0  0  0
  189.4010  172.1460  135.3480 C   0  0  0  0  0  1  0  0  0  0  0  0
  191.0880  175.4180  136.6430 C   0  0  0  0  0  0  0  0  0  0  0  0
  193.2250  173.9710  136.7140 C   0  0  0  0  0  0  0  0  0  0  0  0
  188.2870  177.2650  137.9590 C   0  0  0  0  0  0  0  0  0  0  0  0
  190.1370  174.4700  135.9220 C   0  0  1  0  0  3  0  0  0  0  0  0
  189.2050  178.5070  140.6370 C   0  0  0  0  0  2  0  0  0  0  0  0
  191.7260  172.8410  135.1230 C   0  0  0  0  0  2  0  0  0  0  0  0
  187.9870  175.7700  135.9200 C   0  0  0  0  0  0  0  0  0  0  0  0
  186.2260  177.3290  136.8290 C   0  0  0  0  0  0  0  0  0  0  0  0
  187.9320  178.6770  140.0280 O   0  0  0  0  0  0  0  0  0  0  0  0
  189.7280  176.9160  138.1270 C   0  0  0  0  0  0  0  0  0  0  0  0
  189.6200  177.0500  140.6140 C   0  0  2  0  0  3  0  0  0  0  0  0
  195.3330  172.7270  137.3870 C   0  0  0  0  0  1  0  0  0  0  0  0
  185.1540  176.9730  135.8510 C   0  0  0  0  0  2  0  0  0  0  0  0
  183.6940  177.1630  137.9050 N   0  0  0  0  0  2  0  0  0  0  0  0
  183.8580  176.7380  136.5500 C   0  0  0  0  0  0  0  0  0  0  0  0
  182.9290  176.1350  135.9480 O   0  0  0  0  0  0  0  0  0  0  0  0
  182.6550  175.7960  139.4890 O   0  0  0  0  0  1  0  0  0  0  0  0
  182.4740  176.9060  138.6590 C   0  0  1  0  0  3  0  0  0  0  0  0
  182.0640  178.1400  139.4750 C   0  0  2  0  0  3  0  0  0  0  0  0
  182.3950  179.4400  138.6910 C   0  0  0  0  0  3  0  0  0  0  0  0
  181.3160  180.5020  138.8170 C   0  0  0  0  0  2  0  0  0  0  0  0
  181.4500  179.7060  137.5330 C   0  0  0  0  0  2  0  0  0  0  0  0
  183.8500  178.8210  141.1100 C   0  0  0  0  0  1  0  0  0  0  0  0
  181.6040  178.6040  141.8180 O   0  0  0  0  0  1  0  0  0  0  0  0
  182.5470  178.0600  140.9420 C   0  0  1  0  0  3  0  0  0  0  0  0
  190.5000  176.8000  141.6700 O   0  0  0  0  0  0  0  0  0  0  0  0
  189.7230  176.1680  142.6450 C   0  0  1  0  0  3  0  0  0  0  0  0
  190.2980  174.9420  142.9900 O   0  0  0  0  0  1  0  0  0  0  0  0
  189.5650  177.0590  143.8780 C   0  0  0  0  0  2  0  0  0  0  0  0
  187.9000  177.3950  145.7930 N   0  0  0  0  0  0  0  0  0  0  0  0
  187.2230  176.7360  143.6370 O   0  0  0  0  0  0  0  0  0  0  0  0
  188.1630  177.0570  144.4130 C   0  0  0  0  0  0  0  0  0  0  0  0
  189.0090  177.5370  146.7240 C   0  0  0  0  0  1  0  0  0  0  0  0
  186.5970  177.5520  146.3110 N   0  0  0  0  0  2  0  0  0  0  0  0
  184.7690  179.1020  145.2650 C   0  0  0  0  0  3  0  0  0  0  0  0
  185.6160  178.3880  145.7500 C   0  0  0  0  0  0  0  0  0  0  0  0
  1  7  1  0  0  0  0
  2 24  1  0  0  0  0
  3 12  1  0  0  0  0
  5 20  2  0  0  0  0
  6 15  2  0  0  0  0
  7 22  1  0  0  0  0
  8 13  1  6  0  0  0
  9 16  1  0  0  0  0
 10 23  1  0  0  0  0
 14  3  2  0  0  0  0
 14 10  1  0  0  0  0
 15  3  1  0  0  0  0
 15  4  1  0  0  0  0
 16 23  1  0  0  0  0
 16  7  2  0  0  0  0
 17  8  1  0  0  0  0
 17 11  1  1  0  0  0
 17 14  1  0  0  0  0
 19  6  1  0  0  0  0
 19  8  1  0  0  0  0
 20 11  1  0  0  0  0
 20  9  1  0  0  0  0
 21  9  2  0  0  0  0
 21  1  1  0  0  0  0
 22 18  1  0  0  0  0
 23  2  2  0  0  0  0
 24 18  1  0  0  0  0
 24 39  1  1  0  0  0
 25  4  1  0  0  0  0
 26 28  1  0  0  0  0
 26 21  1  0  0  0  0
 27 31  1  0  0  0  0
 28 27  1  0  0  0  0
 29 28  2  0  0  0  0
 31 30  1  1  0  0  0
 32 31  1  6  0  0  0
 32 38  1  0  0  0  0
 33 34  1  0  0  0  0
 33 32  1  0  0  0  0
 35 33  1  0  0  0  0
 35 34  1  0  0  0  0
 38 36  1  6  0  0  0
 38 37  1  0  0  0  0
 39 40  1  0  0  0  0
 40 41  1  1  0  0  0
 40 42  1  0  0  0  0
 42 45  1  0  0  0  0
 43 47  1  0  0  0  0
 43 46  1  0  0  0  0
 44 45  2  0  0  0  0
 45 43  1  0  0  0  0
 48 49  3  0  0  0  0
 49 47  1  0  0  0  0
M  END
>  <MODEL>
2

>  <REMARK>
 VINA RESULT:      -7.1      1.861      2.735
  Name = 
  12 active torsions:
  status: ('A' for Active; 'I' for Inactive)
    1  A    between atoms: C_2  and  O_42
    2  A    between atoms: C_2  and  C_43
    3  A    between atoms: C_5  and  C_12
    4  A    between atoms: C_5  and  C_34
    5  A    between atoms: C_5  and  C_35
    6  A    between atoms: N_11  and  C_34
    7  A    between atoms: C_13  and  C_36
    8  A    between atoms: N_16  and  N_22
    9  A    between atoms: N_22  and  C_45
   10  A    between atoms: C_36  and  C_39
   11  A    between atoms: O_42  and  C_48
   12  A    between atoms: C_43  and  C_46
                            x       y       z     vdW  Elec       q    Type
                         _______ _______ _______ _____ _____    ______ ____

>  <TORSDO>
F 12

$$$$
=
 OpenBabel11032419413D

 49 53  0  0  1  0  0  0  0  0999 V2000
  189.6850  177.0830  137.9100 S   0  0  0  0  0  0  0  0  0  0  0  0
  184.9900  177.0180  137.5790 C   0  0  0  0  0  3  0  0  0  0  0  0
  182.9750  179.1650  139.6450 C   0  0  0  0  0  0  0  0  0  0  0  0
  180.5140  178.8400  139.9940 N   0  0  0  0  0  2  0  0  0  0  0  0
  187.8950  179.5980  141.3110 O   0  0  0  0  0  0  0  0  0  0  0  0
  181.8750  179.1480  141.8760 N   0  0  0  0  0  0  0  0  0  0  0  0
  188.0890  177.0140  137.3990 C   0  0  0  0  0  0  0  0  0  0  0  0
  184.0630  178.3100  142.3980 C   0  0  2  0  0  3  0  0  0  0  0  0
  188.0090  178.0910  139.4770 C   0  0  0  0  0  0  0  0  0  0  0  0
  185.2220  179.0350  138.8150 N   0  0  0  0  0  2  0  0  0  0  0  0
  186.1680  178.0410  141.1780 N   0  0  0  0  0  2  0  0  0  0  0  0
  182.6020  179.4470  138.2190 C   0  0  0  0  0  1  0  0  0  0  0  0
  184.8620  178.0910  143.6730 C   0  0  0  0  0  1  0  0  0  0  0  0
  184.2970  178.9600  139.9110 C   0  0  0  0  0  0  0  0  0  0  0  0
  181.8060  179.0520  140.5810 C   0  0  0  0  0  0  0  0  0  0  0  0
  187.2680  177.6400  138.3560 C   0  0  0  0  0  0  0  0  0  0  0  0
  184.9480  178.8360  141.2830 C   0  0  1  0  0  3  0  0  0  0  0  0
  186.3740  176.2350  135.7520 C   0  0  0  0  0  2  0  0  0  0  0  0
  183.0560  179.3870  142.6740 C   0  0  0  0  0  2  0  0  0  0  0  0
  187.3830  178.6210  140.7020 C   0  0  0  0  0  0  0  0  0  0  0  0
  189.3830  177.8870  139.3540 C   0  0  0  0  0  0  0  0  0  0  0  0
  187.7110  176.3680  136.2140 O   0  0  0  0  0  0  0  0  0  0  0  0
  185.7980  177.8610  138.2280 C   0  0  0  0  0  0  0  0  0  0  0  0
  185.4590  175.7940  136.8760 C   0  0  2  0  0  3  0  0  0  0  0  0
  179.2980  178.7120  140.7830 C   0  0  0  0  0  1  0  0  0  0  0  0
  190.4140  178.1820  140.3940 C   0  0  0  0  0  2  0  0  0  0  0  0
  190.5590  177.6610  142.8620 N   0  0  0  0  0  2  0  0  0  0  0  0
  190.3130  177.2170  141.5260 C   0  0  0  0  0  0  0  0  0  0  0  0
  190.0440  176.0090  141.2890 O   0  0  0  0  0  0  0  0  0  0  0  0
  191.8420  176.4300  144.3770 O   0  0  0  0  0  1  0  0  0  0  0  0
  190.5350  176.7530  144.0010 C   0  0  1  0  0  3  0  0  0  0  0  0
  189.7620  177.3670  145.1770 C   0  0  2  0  0  3  0  0  0  0  0  0
  189.9460  176.5040  146.4540 C   0  0  0  0  0  3  0  0  0  0  0  0
  189.8170  177.3060  147.7390 C   0  0  0  0  0  2  0  0  0  0  0  0
  191.1840  176.8620  147.2540 C   0  0  0  0  0  2  0  0  0  0  0  0
  187.6430  176.6070  144.0560 C   0  0  0  0  0  1  0  0  0  0  0  0
  187.5520  178.0620  145.9180 O   0  0  0  0  0  1  0  0  0  0  0  0
  188.3150  177.7530  144.7890 C   0  0  1  0  0  3  0  0  0  0  0  0
  184.3610  175.1150  136.3430 O   0  0  0  0  0  0  0  0  0  0  0  0
  183.2490  175.8700  136.7250 C   0  0  1  0  0  3  0  0  0  0  0  0
  182.8220  176.6620  135.6560 O   0  0  0  0  0  1  0  0  0  0  0  0
  182.1180  174.9660  137.2160 C   0  0  0  0  0  2  0  0  0  0  0  0
  180.2780  175.1740  138.9840 N   0  0  0  0  0  0  0  0  0  0  0  0
  182.5200  175.7420  139.4250 O   0  0  0  0  0  0  0  0  0  0  0  0
  181.6650  175.3120  138.6050 C   0  0  0  0  0  0  0  0  0  0  0  0
  179.2760  174.8980  137.9650 C   0  0  0  0  0  1  0  0  0  0  0  0
  179.8230  175.3430  140.3090 N   0  0  0  0  0  2  0  0  0  0  0  0
  179.2910  173.3750  141.9460 C   0  0  0  0  0  3  0  0  0  0  0  0
  179.5390  174.2870  141.1910 C   0  0  0  0  0  0  0  0  0  0  0  0
  1 21  1  0  0  0  0
  2 23  2  0  0  0  0
  3 14  2  0  0  0  0
  3 15  1  0  0  0  0
  4 15  1  0  0  0  0
  4 25  1  0  0  0  0
  6 19  1  0  0  0  0
  7  1  1  0  0  0  0
  7 16  2  0  0  0  0
  8 19  1  0  0  0  0
  8 13  1  1  0  0  0
  9 20  1  0  0  0  0
 10 14  1  0  0  0  0
 11 17  1  0  0  0  0
 12  3  1  0  0  0  0
 15  6  2  0  0  0  0
 16  9  1  0  0  0  0
 17 14  1  6  0  0  0
 17  8  1  0  0  0  0
 18 22  1  0  0  0  0
 18 24  1  0  0  0  0
 20 11  1  0  0  0  0
 20  5  2  0  0  0  0
 21  9  2  0  0  0  0
 21 26  1  0  0  0  0
 22  7  1  0  0  0  0
 23 16  1  0  0  0  0
 23 10  1  0  0  0  0
 24 39  1  6  0  0  0
 24  2  1  0  0  0  0
 26 28  1  0  0  0  0
 27 31  1  0  0  0  0
 28 27  1  0  0  0  0
 29 28  2  0  0  0  0
 31 30  1  1  0  0  0
 32 31  1  6  0  0  0
 32 33  1  0  0  0  0
 33 35  1  0  0  0  0
 33 34  1  0  0  0  0
 35 34  1  0  0  0  0
 38 36  1  1  0  0  0
 38 32  1  0  0  0  0
 38 37  1  0  0  0  0
 39 40  1  0  0  0  0
 40 41  1  6  0  0  0
 40 42  1  0  0  0  0
 42 45  1  0  0  0  0
 43 47  1  0  0  0  0
 45 43  1  0  0  0  0
 45 44  2  0  0  0  0
 46 43  1  0  0  0  0
 47 49  1  0  0  0  0
 49 48  3  0  0  0  0
M  END
>  <MODEL>
3

>  <REMARK>
 VINA RESULT:      -7.1      3.502      9.580
  Name = 
  12 active torsions:
  status: ('A' for Active; 'I' for Inactive)
    1  A    between atoms: C_2  and  O_42
    2  A    between atoms: C_2  and  C_43
    3  A    between atoms: C_5  and  C_12
    4  A    between atoms: C_5  and  C_34
    5  A    between atoms: C_5  and  C_35
    6  A    between atoms: N_11  and  C_34
    7  A    between atoms: C_13  and  C_36
    8  A    between atoms: N_16  and  N_22
    9  A    between atoms: N_22  and  C_45
   10  A    between atoms: C_36  and  C_39
   11  A    between atoms: O_42  and  C_48
   12  A    between atoms: C_43  and  C_46
                            x       y       z     vdW  Elec       q    Type
                         _______ _______ _______ _____ _____    ______ ____

>  <TORSDO>
F 12

$$$$
=
 OpenBabel11032419413D

 49 53  0  0  1  0  0  0  0  0999 V2000
  188.9080  177.3390  137.3320 S   0  0  0  0  0  0  0  0  0  0  0  0
  184.2170  177.2550  137.7230 C   0  0  0  0  0  3  0  0  0  0  0  0
  182.5470  179.2600  140.1980 C   0  0  0  0  0  0  0  0  0  0  0  0
  180.1690  178.8950  140.9020 N   0  0  0  0  0  2  0  0  0  0  0  0
  187.6650  179.6340  141.1100 O   0  0  0  0  0  0  0  0  0  0  0  0
  181.8030  179.1030  142.5660 N   0  0  0  0  0  0  0  0  0  0  0  0
  187.2520  177.2870  137.0690 C   0  0  0  0  0  0  0  0  0  0  0  0
  184.0450  178.2540  142.6950 C   0  0  2  0  0  3  0  0  0  0  0  0
  187.4940  178.2390  139.1950 C   0  0  0  0  0  0  0  0  0  0  0  0
  184.6390  179.1970  139.0260 N   0  0  0  0  0  2  0  0  0  0  0  0
  185.9360  178.0740  141.1520 N   0  0  0  0  0  2  0  0  0  0  0  0
  181.9590  179.6220  138.8650 C   0  0  0  0  0  1  0  0  0  0  0  0
  185.0300  177.9660  143.8170 C   0  0  0  0  0  1  0  0  0  0  0  0
  183.8940  179.0510  140.2450 C   0  0  0  0  0  0  0  0  0  0  0  0
  181.5350  179.0830  141.2940 C   0  0  0  0  0  0  0  0  0  0  0  0
  186.5890  177.8490  138.1760 C   0  0  0  0  0  0  0  0  0  0  0  0
  184.7480  178.8510  141.4910 C   0  0  1  0  0  3  0  0  0  0  0  0
  185.3030  176.5920  135.6610 C   0  0  0  0  0  2  0  0  0  0  0  0
  183.0930  179.3050  143.1860 C   0  0  0  0  0  2  0  0  0  0  0  0
  187.0650  178.6910  140.5300 C   0  0  0  0  0  0  0  0  0  0  0  0
  188.8330  178.0540  138.8500 C   0  0  0  0  0  0  0  0  0  0  0  0
  186.6950  176.7090  135.9200 O   0  0  0  0  0  0  0  0  0  0  0  0
  185.1170  178.0650  138.2890 C   0  0  0  0  0  0  0  0  0  0  0  0
  184.5710  176.0780  136.8850 C   0  0  2  0  0  3  0  0  0  0  0  0
  179.0890  178.7110  141.8590 C   0  0  0  0  0  1  0  0  0  0  0  0
  190.0120  178.2960  139.7340 C   0  0  0  0  0  2  0  0  0  0  0  0
  190.1770  177.3850  142.0860 N   0  0  0  0  0  2  0  0  0  0  0  0
  190.2080  177.1560  140.6750 C   0  0  0  0  0  0  0  0  0  0  0  0
  190.4330  176.0040  140.2150 O   0  0  0  0  0  0  0  0  0  0  0  0
  191.6960  175.7830  142.8480 O   0  0  0  0  0  1  0  0  0  0  0  0
  190.4240  176.3230  143.0520 C   0  0  1  0  0  3  0  0  0  0  0  0
  190.2720  176.8430  144.4890 C   0  0  2  0  0  3  0  0  0  0  0  0
  189.0030  177.7290  144.6110 C   0  0  0  0  0  3  0  0  0  0  0  0
  188.2400  177.5010  145.9060 C   0  0  0  0  0  2  0  0  0  0  0  0
  187.7080  176.9370  144.6020 C   0  0  0  0  0  2  0  0  0  0  0  0
  191.6940  178.9050  144.7190 C   0  0  0  0  0  1  0  0  0  0  0  0
  191.6740  177.2720  146.4300 O   0  0  0  0  0  1  0  0  0  0  0  0
  191.5940  177.4250  145.0430 C   0  0  1  0  0  3  0  0  0  0  0  0
  183.4040  175.4220  136.4880 O   0  0  0  0  0  0  0  0  0  0  0  0
  183.1720  174.4660  137.4800 C   0  0  1  0  0  3  0  0  0  0  0  0
  181.8540  174.5610  137.9350 O   0  0  0  0  0  1  0  0  0  0  0  0
  183.4640  173.0580  136.9590 C   0  0  0  0  0  2  0  0  0  0  0  0
  185.5820  171.9780  136.0070 N   0  0  0  0  0  0  0  0  0  0  0  0
  185.5340  173.0050  138.1250 O   0  0  0  0  0  0  0  0  0  0  0  0
  184.9160  172.6920  137.0720 C   0  0  0  0  0  0  0  0  0  0  0  0
  184.8000  171.4280  134.9100 C   0  0  0  0  0  1  0  0  0  0  0  0
  186.9720  171.7380  135.9950 N   0  0  0  0  0  2  0  0  0  0  0  0
  188.7680  173.4380  136.8440 C   0  0  0  0  0  3  0  0  0  0  0  0
  187.9380  172.6500  136.4540 C   0  0  0  0  0  0  0  0  0  0  0  0
  1 21  1  0  0  0  0
  2 23  2  0  0  0  0
  3 14  2  0  0  0  0
  3 15  1  0  0  0  0
  4 15  1  0  0  0  0
  4 25  1  0  0  0  0
  6 19  1  0  0  0  0
  7  1  1  0  0  0  0
  7 16  2  0  0  0  0
  8 19  1  0  0  0  0
  8 13  1  1  0  0  0
  9 20  1  0  0  0  0
 10 14  1  0  0  0  0
 11 17  1  0  0  0  0
 12  3  1  0  0  0  0
 15  6  2  0  0  0  0
 16 23  1  0  0  0  0
 16  9  1  0  0  0  0
 17 14  1  6  0  0  0
 17  8  1  0  0  0  0
 18 22  1  0  0  0  0
 18 24  1  0  0  0  0
 20  5  2  0  0  0  0
 20 11  1  0  0  0  0
 21  9  2  0  0  0  0
 21 26  1  0  0  0  0
 22  7  1  0  0  0  0
 23 10  1  0  0  0  0
 24 39  1  6  0  0  0
 24  2  1  0  0  0  0
 26 28  1  0  0  0  0
 27 31  1  0  0  0  0
 28 27  1  0  0  0  0
 29 28  2  0  0  0  0
 31 30  1  1  0  0  0
 32 31  1  6  0  0  0
 32 33  1  0  0  0  0
 32 38  1  0  0  0  0
 33 34  1  0  0  0  0
 35 33  1  0  0  0  0
 35 34  1  0  0  0  0
 38 36  1  1  0  0  0
 38 37  1  0  0  0  0
 39 40  1  0  0  0  0
 40 41  1  6  0  0  0
 42 45  1  0  0  0  0
 42 40  1  0  0  0  0
 43 45  1  0  0  0  0
 45 44  2  0  0  0  0
 46 43  1  0  0  0  0
 47 43  1  0  0  0  0
 47 49  1  0  0  0  0
 49 48  3  0  0  0  0
M  END
>  <MODEL>
4

>  <REMARK>
 VINA RESULT:      -7.0      3.059      9.867
  Name = 
  12 active torsions:
  status: ('A' for Active; 'I' for Inactive)
    1  A    between atoms: C_2  and  O_42
    2  A    between atoms: C_2  and  C_43
    3  A    between atoms: C_5  and  C_12
    4  A    between atoms: C_5  and  C_34
    5  A    between atoms: C_5  and  C_35
    6  A    between atoms: N_11  and  C_34
    7  A    between atoms: C_13  and  C_36
    8  A    between atoms: N_16  and  N_22
    9  A    between atoms: N_22  and  C_45
   10  A    between atoms: C_36  and  C_39
   11  A    between atoms: O_42  and  C_48
   12  A    between atoms: C_43  and  C_46
                            x       y       z     vdW  Elec       q    Type
                         _______ _______ _______ _____ _____    ______ ____

>  <TORSDO>
F 12

$$$$
=
 OpenBabel11032419413D

 49 53  0  0  1  0  0  0  0  0999 V2000
  185.8400  178.0360  137.7210 S   0  0  0  0  0  0  0  0  0  0  0  0
  190.0180  177.0360  139.6460 C   0  0  0  0  0  3  0  0  0  0  0  0
  192.7320  175.8310  137.6160 C   0  0  0  0  0  0  0  0  0  0  0  0
  194.7790  174.7300  138.5530 N   0  0  0  0  0  2  0  0  0  0  0  0
  188.4870  175.9610  134.5940 O   0  0  0  0  0  0  0  0  0  0  0  0
  193.6570  173.6760  136.7870 N   0  0  0  0  0  0  0  0  0  0  0  0
  187.2490  178.0050  138.6310 C   0  0  0  0  0  0  0  0  0  0  0  0
  191.3140  173.4130  136.3370 C   0  0  2  0  0  3  0  0  0  0  0  0
  187.7540  176.7810  136.7000 C   0  0  0  0  0  0  0  0  0  0  0  0
  190.6830  177.0530  137.3640 N   0  0  0  0  0  2  0  0  0  0  0  0
  189.3400  174.8540  136.4570 N   0  0  0  0  0  2  0  0  0  0  0  0
  193.2240  177.0560  138.3300 C   0  0  0  0  0  1  0  0  0  0  0  0
  190.4720  172.4570  135.5060 C   0  0  0  0  0  1  0  0  0  0  0  0
  191.4520  175.8610  137.1450 C   0  0  0  0  0  0  0  0  0  0  0  0
  193.7060  174.6870  137.6030 C   0  0  0  0  0  0  0  0  0  0  0  0
  188.2410  177.2960  137.9270 C   0  0  0  0  0  0  0  0  0  0  0  0
  190.7830  174.8310  136.2430 C   0  0  1  0  0  3  0  0  0  0  0  0
  188.4720  178.5400  140.7480 C   0  0  0  0  0  2  0  0  0  0  0  0
  192.6900  173.4420  135.7390 C   0  0  0  0  0  2  0  0  0  0  0  0
  188.5220  175.8550  135.8480 C   0  0  0  0  0  0  0  0  0  0  0  0
  186.4370  177.1490  136.4260 C   0  0  0  0  0  0  0  0  0  0  0  0
  187.3250  178.5740  139.9100 O   0  0  0  0  0  0  0  0  0  0  0  0
  189.6570  177.1220  138.3620 C   0  0  0  0  0  0  0  0  0  0  0  0
  189.0680  177.1470  140.7850 C   0  0  2  0  0  3  0  0  0  0  0  0
  195.7920  173.6890  138.6490 C   0  0  0  0  0  1  0  0  0  0  0  0
  185.6230  176.7010  135.2560 C   0  0  0  0  0  2  0  0  0  0  0  0
  184.0130  175.0670  136.3170 N   0  0  0  0  0  2  0  0  0  0  0  0
  185.1300  175.3080  135.4580 C   0  0  0  0  0  0  0  0  0  0  0  0
  185.7250  174.3510  134.8930 O   0  0  0  0  0  0  0  0  0  0  0  0
  184.2010  173.1990  137.7070 O   0  0  0  0  0  1  0  0  0  0  0  0
  183.5260  173.7240  136.6020 C   0  0  1  0  0  3  0  0  0  0  0  0
  182.0090  173.7300  136.8380 C   0  0  2  0  0  3  0  0  0  0  0  0
  181.2800  172.9870  135.6840 C   0  0  0  0  0  3  0  0  0  0  0  0
  181.3350  171.4750  135.8220 C   0  0  0  0  0  2  0  0  0  0  0  0
  182.2120  172.1770  134.8020 C   0  0  0  0  0  2  0  0  0  0  0  0
  180.0870  175.3420  136.6510 C   0  0  0  0  0  1  0  0  0  0  0  0
  181.4220  175.2970  138.6040 O   0  0  0  0  0  1  0  0  0  0  0  0
  181.4800  175.1330  137.2170 C   0  0  1  0  0  3  0  0  0  0  0  0
  189.7580  176.9670  141.9850 O   0  0  0  0  0  0  0  0  0  0  0  0
  188.8380  177.2970  142.9840 C   0  0  1  0  0  3  0  0  0  0  0  0
  188.2270  176.1380  143.4690 O   0  0  0  0  0  1  0  0  0  0  0  0
  189.5170  178.0660  144.1190 C   0  0  0  0  0  2  0  0  0  0  0  0
  190.8370  176.7280  145.8570 N   0  0  0  0  0  0  0  0  0  0  0  0
  191.8030  177.4790  143.8460 O   0  0  0  0  0  0  0  0  0  0  0  0
  190.7840  177.4080  144.5830 C   0  0  0  0  0  0  0  0  0  0  0  0
  189.7260  176.8540  146.7880 C   0  0  0  0  0  1  0  0  0  0  0  0
  191.9500  175.9700  146.2770 N   0  0  0  0  0  2  0  0  0  0  0  0
  192.7440  175.7580  148.7600 C   0  0  0  0  0  3  0  0  0  0  0  0
  192.3740  175.8560  147.6130 C   0  0  0  0  0  0  0  0  0  0  0  0
  1  7  1  0  0  0  0
  2 24  1  0  0  0  0
  3 12  1  0  0  0  0
  4 25  1  0  0  0  0
  5 20  2  0  0  0  0
  6 15  2  0  0  0  0
  7 22  1  0  0  0  0
  8 13  1  6  0  0  0
  9 16  1  0  0  0  0
 10 23  1  0  0  0  0
 14 10  1  0  0  0  0
 14  3  2  0  0  0  0
 15  3  1  0  0  0  0
 15  4  1  0  0  0  0
 16 23  1  0  0  0  0
 16  7  2  0  0  0  0
 17  8  1  0  0  0  0
 17 11  1  1  0  0  0
 17 14  1  0  0  0  0
 18 24  1  0  0  0  0
 19  8  1  0  0  0  0
 19  6  1  0  0  0  0
 20 11  1  0  0  0  0
 20  9  1  0  0  0  0
 21  9  2  0  0  0  0
 21  1  1  0  0  0  0
 22 18  1  0  0  0  0
 23  2  2  0  0  0  0
 24 39  1  1  0  0  0
 26 28  1  0  0  0  0
 26 21  1  0  0  0  0
 27 31  1  0  0  0  0
 28 27  1  0  0  0  0
 29 28  2  0  0  0  0
 31 30  1  1  0  0  0
 32 31  1  6  0  0  0
 32 38  1  0  0  0  0
 33 34  1  0  0  0  0
 33 32  1  0  0  0  0
 35 33  1  0  0  0  0
 35 34  1  0  0  0  0
 38 36  1  1  0  0  0
 38 37  1  0  0  0  0
 39 40  1  0  0  0  0
 40 41  1  1  0  0  0
 40 42  1  0  0  0  0
 42 45  1  0  0  0  0
 43 47  1  0  0  0  0
 43 46  1  0  0  0  0
 44 45  2  0  0  0  0
 45 43  1  0  0  0  0
 47 49  1  0  0  0  0
 49 48  3  0  0  0  0
M  END
>  <MODEL>
5

>  <REMARK>
 VINA RESULT:      -6.9      1.624      2.463
  Name = 
  12 active torsions:
  status: ('A' for Active; 'I' for Inactive)
    1  A    between atoms: C_2  and  O_42
    2  A    between atoms: C_2  and  C_43
    3  A    between atoms: C_5  and  C_12
    4  A    between atoms: C_5  and  C_34
    5  A    between atoms: C_5  and  C_35
    6  A    between atoms: N_11  and  C_34
    7  A    between atoms: C_13  and  C_36
    8  A    between atoms: N_16  and  N_22
    9  A    between atoms: N_22  and  C_45
   10  A    between atoms: C_36  and  C_39
   11  A    between atoms: O_42  and  C_48
   12  A    between atoms: C_43  and  C_46
                            x       y       z     vdW  Elec       q    Type
                         _______ _______ _______ _____ _____    ______ ____

>  <TORSDO>
F 12

$$$$
=
 OpenBabel11032419413D

 49 53  0  0  1  0  0  0  0  0999 V2000
  185.6970  178.2120  137.9960 S   0  0  0  0  0  0  0  0  0  0  0  0
  189.8690  177.0050  139.8140 C   0  0  0  0  0  3  0  0  0  0  0  0
  192.4980  175.7540  137.7010 C   0  0  0  0  0  0  0  0  0  0  0  0
  194.5190  174.5530  138.5690 N   0  0  0  0  0  2  0  0  0  0  0  0
  188.2060  176.1230  134.7660 O   0  0  0  0  0  0  0  0  0  0  0  0
  193.3250  173.5890  136.7990 N   0  0  0  0  0  0  0  0  0  0  0  0
  187.1200  178.1030  138.8780 C   0  0  0  0  0  0  0  0  0  0  0  0
  190.9660  173.4260  136.3870 C   0  0  2  0  0  3  0  0  0  0  0  0
  187.5430  176.9130  136.9060 C   0  0  0  0  0  0  0  0  0  0  0  0
  190.4920  177.0580  137.5210 N   0  0  0  0  0  2  0  0  0  0  0  0
  189.0500  174.9360  136.5840 N   0  0  0  0  0  2  0  0  0  0  0  0
  193.0480  176.9410  138.4370 C   0  0  0  0  0  1  0  0  0  0  0  0
  190.0730  172.5250  135.5490 C   0  0  0  0  0  1  0  0  0  0  0  0
  191.2110  175.8440  137.2560 C   0  0  0  0  0  0  0  0  0  0  0  0
  193.4270  174.5760  137.6390 C   0  0  0  0  0  0  0  0  0  0  0  0
  188.0710  177.3780  138.1370 C   0  0  0  0  0  0  0  0  0  0  0  0
  190.4870  174.8650  136.3410 C   0  0  1  0  0  3  0  0  0  0  0  0
  188.4020  178.5360  140.9840 C   0  0  0  0  0  2  0  0  0  0  0  0
  192.3310  173.4200  135.7640 C   0  0  0  0  0  2  0  0  0  0  0  0
  188.2600  175.9830  136.0170 C   0  0  0  0  0  0  0  0  0  0  0  0
  186.2360  177.3370  136.6670 C   0  0  0  0  0  0  0  0  0  0  0  0
  187.2420  178.6360  140.1690 O   0  0  0  0  0  0  0  0  0  0  0  0
  189.4880  177.1390  138.5400 C   0  0  0  0  0  0  0  0  0  0  0  0
  188.9450  177.1210  140.9740 C   0  0  2  0  0  3  0  0  0  0  0  0
  195.4930  173.4730  138.6190 C   0  0  0  0  0  1  0  0  0  0  0  0
  185.3840  176.9510  135.5030 C   0  0  0  0  0  2  0  0  0  0  0  0
  182.8800  177.0830  135.8220 N   0  0  0  0  0  2  0  0  0  0  0  0
  184.1000  176.3500  135.9640 C   0  0  0  0  0  0  0  0  0  0  0  0
  184.1070  175.2130  136.5060 O   0  0  0  0  0  0  0  0  0  0  0  0
  181.6100  175.1770  136.2760 O   0  0  0  0  0  1  0  0  0  0  0  0
  181.6050  176.5740  136.3090 C   0  0  1  0  0  3  0  0  0  0  0  0
  181.3160  177.0880  137.7260 C   0  0  2  0  0  3  0  0  0  0  0  0
  181.8540  178.5350  137.8960 C   0  0  0  0  0  3  0  0  0  0  0  0
  180.8610  179.4640  138.5750 C   0  0  0  0  0  2  0  0  0  0  0  0
  181.0940  179.5640  137.0790 C   0  0  0  0  0  2  0  0  0  0  0  0
  182.7230  176.6600  139.7670 C   0  0  0  0  0  1  0  0  0  0  0  0
  180.5900  175.6580  139.5560 O   0  0  0  0  0  1  0  0  0  0  0  0
  181.7050  176.0600  138.8140 C   0  0  1  0  0  3  0  0  0  0  0  0
  189.6500  176.8840  142.1550 O   0  0  0  0  0  0  0  0  0  0  0  0
  188.8430  177.4090  143.1690 C   0  0  1  0  0  3  0  0  0  0  0  0
  188.1950  176.3730  143.8450 O   0  0  0  0  0  1  0  0  0  0  0  0
  189.6690  178.2560  144.1380 C   0  0  0  0  0  2  0  0  0  0  0  0
  190.7610  176.8280  145.9610 N   0  0  0  0  0  0  0  0  0  0  0  0
  188.7280  177.9660  146.3010 O   0  0  0  0  0  0  0  0  0  0  0  0
  189.6840  177.6890  145.5280 C   0  0  0  0  0  0  0  0  0  0  0  0
  191.7270  176.3390  144.9900 C   0  0  0  0  0  1  0  0  0  0  0  0
  190.9030  176.3870  147.2940 N   0  0  0  0  0  2  0  0  0  0  0  0
  193.1690  175.6540  148.3740 C   0  0  0  0  0  3  0  0  0  0  0  0
  192.1220  175.9910  147.8720 C   0  0  0  0  0  0  0  0  0  0  0  0
  1  7  1  0  0  0  0
  2 24  1  0  0  0  0
  3 12  1  0  0  0  0
  4 25  1  0  0  0  0
  5 20  2  0  0  0  0
  6 15  2  0  0  0  0
  7 22  1  0  0  0  0
  8 13  1  6  0  0  0
  9 16  1  0  0  0  0
 10 23  1  0  0  0  0
 14 10  1  0  0  0  0
 14  3  2  0  0  0  0
 15  3  1  0  0  0  0
 15  4  1  0  0  0  0
 16 23  1  0  0  0  0
 16  7  2  0  0  0  0
 17  8  1  0  0  0  0
 17 11  1  1  0  0  0
 17 14  1  0  0  0  0
 19  8  1  0  0  0  0
 19  6  1  0  0  0  0
 20 11  1  0  0  0  0
 20  9  1  0  0  0  0
 21  9  2  0  0  0  0
 21  1  1  0  0  0  0
 22 18  1  0  0  0  0
 23  2  2  0  0  0  0
 24 18  1  0  0  0  0
 24 39  1  1  0  0  0
 26 28  1  0  0  0  0
 26 21  1  0  0  0  0
 27 28  1  0  0  0  0
 27 31  1  0  0  0  0
 28 29  2  0  0  0  0
 31 30  1  1  0  0  0
 32 31  1  6  0  0  0
 32 33  1  0  0  0  0
 32 38  1  0  0  0  0
 33 34  1  0  0  0  0
 35 33  1  0  0  0  0
 35 34  1  0  0  0  0
 38 37  1  0  0  0  0
 38 36  1  1  0  0  0
 39 40  1  0  0  0  0
 40 41  1  1  0  0  0
 40 42  1  0  0  0  0
 42 45  1  0  0  0  0
 43 47  1  0  0  0  0
 45 43  1  0  0  0  0
 45 44  2  0  0  0  0
 46 43  1  0  0  0  0
 47 49  1  0  0  0  0
 49 48  3  0  0  0  0
M  END
>  <MODEL>
6

>  <REMARK>
 VINA RESULT:      -6.9      2.070      3.222
  Name = 
  12 active torsions:
  status: ('A' for Active; 'I' for Inactive)
    1  A    between atoms: C_2  and  O_42
    2  A    between atoms: C_2  and  C_43
    3  A    between atoms: C_5  and  C_12
    4  A    between atoms: C_5  and  C_34
    5  A    between atoms: C_5  and  C_35
    6  A    between atoms: N_11  and  C_34
    7  A    between atoms: C_13  and  C_36
    8  A    between atoms: N_16  and  N_22
    9  A    between atoms: N_22  and  C_45
   10  A    between atoms: C_36  and  C_39
   11  A    between atoms: O_42  and  C_48
   12  A    between atoms: C_43  and  C_46
                            x       y       z     vdW  Elec       q    Type
                         _______ _______ _______ _____ _____    ______ ____

>  <TORSDO>
F 12

$$$$
=
 OpenBabel11032419413D

 49 53  0  0  1  0  0  0  0  0999 V2000
  186.2760  178.0140  136.3160 S   0  0  0  0  0  0  0  0  0  0  0  0
  184.0620  177.9380  140.4700 C   0  0  0  0  0  3  0  0  0  0  0  0
  185.7750  178.9090  143.4800 C   0  0  0  0  0  0  0  0  0  0  0  0
  184.9370  178.3800  145.7820 N   0  0  0  0  0  2  0  0  0  0  0  0
  189.3280  178.7470  139.6690 O   0  0  0  0  0  0  0  0  0  0  0  0
  187.1700  177.8910  145.2700 N   0  0  0  0  0  0  0  0  0  0  0  0
  185.1760  178.1180  137.5770 C   0  0  0  0  0  0  0  0  0  0  0  0
  188.1740  176.9860  143.2870 C   0  0  2  0  0  3  0  0  0  0  0  0
  187.2780  178.1870  138.6070 C   0  0  0  0  0  0  0  0  0  0  0  0
  185.9530  179.2280  141.1090 N   0  0  0  0  0  2  0  0  0  0  0  0
  187.9180  177.3430  140.8790 N   0  0  0  0  0  2  0  0  0  0  0  0
  184.5480  179.7670  143.3720 C   0  0  0  0  0  1  0  0  0  0  0  0
  189.4730  176.2630  142.9650 C   0  0  0  0  0  1  0  0  0  0  0  0
  186.4560  178.6550  142.3260 C   0  0  0  0  0  0  0  0  0  0  0  0
  186.0310  178.3620  144.8550 C   0  0  0  0  0  0  0  0  0  0  0  0
  185.8740  178.2400  138.7940 C   0  0  0  0  0  0  0  0  0  0  0  0
  187.8110  177.9710  142.1920 C   0  0  1  0  0  3  0  0  0  0  0  0
  182.8120  178.0700  138.3990 C   0  0  0  0  0  2  0  0  0  0  0  0
  188.4050  177.8020  144.5240 C   0  0  0  0  0  2  0  0  0  0  0  0
  188.2410  178.1130  139.7200 C   0  0  0  0  0  0  0  0  0  0  0  0
  187.6580  178.1040  137.2680 C   0  0  0  0  0  0  0  0  0  0  0  0
  183.7920  178.0360  137.3700 O   0  0  0  0  0  0  0  0  0  0  0  0
  185.2520  178.4450  140.1350 C   0  0  0  0  0  0  0  0  0  0  0  0
  183.2020  177.1550  139.5420 C   0  0  2  0  0  3  0  0  0  0  0  0
  185.0470  177.8820  147.1450 C   0  0  0  0  0  1  0  0  0  0  0  0
  189.0530  177.9550  136.7560 C   0  0  0  0  0  2  0  0  0  0  0  0
  188.8080  175.4570  137.0480 N   0  0  0  0  0  2  0  0  0  0  0  0
  189.2960  176.5620  136.2830 C   0  0  0  0  0  0  0  0  0  0  0  0
  189.9600  176.3710  135.2290 O   0  0  0  0  0  0  0  0  0  0  0  0
  189.9540  173.4920  137.5800 O   0  0  0  0  0  1  0  0  0  0  0  0
  189.0670  174.0740  136.6690 C   0  0  1  0  0  3  0  0  0  0  0  0
  187.7600  173.2740  136.5890 C   0  0  2  0  0  3  0  0  0  0  0  0
  187.6800  172.5030  135.2430 C   0  0  0  0  0  3  0  0  0  0  0  0
  187.5780  170.9980  135.4230 C   0  0  0  0  0  2  0  0  0  0  0  0
  188.8870  171.6220  134.9770 C   0  0  0  0  0  2  0  0  0  0  0  0
  185.6470  174.3740  135.7810 C   0  0  0  0  0  1  0  0  0  0  0  0
  185.7630  173.4740  137.9650 O   0  0  0  0  0  1  0  0  0  0  0  0
  186.5290  174.1200  136.9910 C   0  0  1  0  0  3  0  0  0  0  0  0
  182.0530  176.7360  140.2160 O   0  0  0  0  0  0  0  0  0  0  0  0
  181.0870  176.5760  139.2190 C   0  0  1  0  0  3  0  0  0  0  0  0
  181.0160  175.2340  138.8360 O   0  0  0  0  0  1  0  0  0  0  0  0
  179.7230  177.0770  139.6960 C   0  0  0  0  0  2  0  0  0  0  0  0
  179.9130  179.5410  140.3640 N   0  0  0  0  0  0  0  0  0  0  0  0
  178.9610  178.8590  138.3220 O   0  0  0  0  0  0  0  0  0  0  0  0
  179.5120  178.5350  139.4080 C   0  0  0  0  0  0  0  0  0  0  0  0
  180.3330  179.1400  141.6980 C   0  0  0  0  0  1  0  0  0  0  0  0
  179.8740  180.9240  140.0860 N   0  0  0  0  0  2  0  0  0  0  0  0
  181.2510  182.0930  138.1950 C   0  0  0  0  0  3  0  0  0  0  0  0
  180.6160  181.5500  139.0700 C   0  0  0  0  0  0  0  0  0  0  0  0
  1 21  1  0  0  0  0
  1  7  1  0  0  0  0
  3 15  1  0  0  0  0
  4 25  1  0  0  0  0
  5 20  2  0  0  0  0
  7 16  2  0  0  0  0
  8 13  1  6  0  0  0
  8 19  1  0  0  0  0
  9 16  1  0  0  0  0
  9 20  1  0  0  0  0
 10 14  1  0  0  0  0
 12  3  1  0  0  0  0
 14  3  2  0  0  0  0
 15  6  2  0  0  0  0
 15  4  1  0  0  0  0
 16 23  1  0  0  0  0
 17 11  1  6  0  0  0
 17 14  1  0  0  0  0
 17  8  1  0  0  0  0
 18 24  1  0  0  0  0
 19  6  1  0  0  0  0
 20 11  1  0  0  0  0
 21  9  2  0  0  0  0
 22  7  1  0  0  0  0
 22 18  1  0  0  0  0
 23  2  2  0  0  0  0
 23 10  1  0  0  0  0
 24 39  1  1  0  0  0
 24  2  1  0  0  0  0
 26 21  1  0  0  0  0
 28 26  1  0  0  0  0
 28 27  1  0  0  0  0
 29 28  2  0  0  0  0
 31 27  1  0  0  0  0
 31 30  1  1  0  0  0
 32 31  1  6  0  0  0
 32 38  1  0  0  0  0
 33 34  1  0  0  0  0
 33 32  1  0  0  0  0
 35 33  1  0  0  0  0
 35 34  1  0  0  0  0
 38 36  1  6  0  0  0
 38 37  1  0  0  0  0
 40 41  1  1  0  0  0
 40 42  1  0  0  0  0
 40 39  1  0  0  0  0
 43 46  1  0  0  0  0
 44 45  2  0  0  0  0
 45 42  1  0  0  0  0
 45 43  1  0  0  0  0
 47 43  1  0  0  0  0
 48 49  3  0  0  0  0
 49 47  1  0  0  0  0
M  END
>  <MODEL>
7

>  <REMARK>
 VINA RESULT:      -6.9      3.128      7.574
  Name = 
  12 active torsions:
  status: ('A' for Active; 'I' for Inactive)
    1  A    between atoms: C_2  and  O_42
    2  A    between atoms: C_2  and  C_43
    3  A    between atoms: C_5  and  C_12
    4  A    between atoms: C_5  and  C_34
    5  A    between atoms: C_5  and  C_35
    6  A    between atoms: N_11  and  C_34
    7  A    between atoms: C_13  and  C_36
    8  A    between atoms: N_16  and  N_22
    9  A    between atoms: N_22  and  C_45
   10  A    between atoms: C_36  and  C_39
   11  A    between atoms: O_42  and  C_48
   12  A    between atoms: C_43  and  C_46
                            x       y       z     vdW  Elec       q    Type
                         _______ _______ _______ _____ _____    ______ ____

>  <TORSDO>
F 12

$$$$
=
 OpenBabel11032419413D

 49 53  0  0  1  0  0  0  0  0999 V2000
  184.6640  178.3150  138.4830 S   0  0  0  0  0  0  0  0  0  0  0  0
  189.1230  177.1520  139.4470 C   0  0  0  0  0  3  0  0  0  0  0  0
  191.1620  175.5040  136.9840 C   0  0  0  0  0  0  0  0  0  0  0  0
  193.3080  174.3280  137.5260 N   0  0  0  0  0  2  0  0  0  0  0  0
  186.3100  175.6970  135.0880 O   0  0  0  0  0  0  0  0  0  0  0  0
  191.7170  173.2010  136.2280 N   0  0  0  0  0  0  0  0  0  0  0  0
  186.2510  178.2530  139.0220 C   0  0  0  0  0  0  0  0  0  0  0  0
  189.3240  173.1030  136.3950 C   0  0  2  0  0  3  0  0  0  0  0  0
  186.1800  176.7940  137.1920 C   0  0  0  0  0  0  0  0  0  0  0  0
  189.1930  176.8710  137.0880 N   0  0  0  0  0  2  0  0  0  0  0  0
  187.5350  174.7190  136.8120 N   0  0  0  0  0  2  0  0  0  0  0  0
  191.8910  176.7480  137.4020 C   0  0  0  0  0  1  0  0  0  0  0  0
  188.2450  172.1440  135.9170 C   0  0  0  0  0  1  0  0  0  0  0  0
  189.8090  175.5990  136.8380 C   0  0  0  0  0  0  0  0  0  0  0  0
  192.0300  174.2830  136.8770 C   0  0  0  0  0  0  0  0  0  0  0  0
  186.9900  177.3890  138.1920 C   0  0  0  0  0  0  0  0  0  0  0  0
  188.8740  174.5450  136.2590 C   0  0  1  0  0  3  0  0  0  0  0  0
  187.9970  178.8940  140.6970 C   0  0  0  0  0  2  0  0  0  0  0  0
  190.5050  172.9460  135.4830 C   0  0  0  0  0  2  0  0  0  0  0  0
  186.6530  175.7200  136.3000 C   0  0  0  0  0  0  0  0  0  0  0  0
  184.8610  177.2470  137.2020 C   0  0  0  0  0  0  0  0  0  0  0  0
  186.6810  178.9430  140.1640 O   0  0  0  0  0  0  0  0  0  0  0  0
  188.4570  177.1350  138.2890 C   0  0  0  0  0  0  0  0  0  0  0  0
  188.4970  177.4650  140.7600 C   0  0  2  0  0  3  0  0  0  0  0  0
  194.2480  173.2170  137.5010 C   0  0  0  0  0  1  0  0  0  0  0  0
  183.7540  176.7550  136.3290 C   0  0  0  0  0  2  0  0  0  0  0  0
  181.7130  177.2040  137.7490 N   0  0  0  0  0  2  0  0  0  0  0  0
  182.4970  177.5100  136.5930 C   0  0  0  0  0  0  0  0  0  0  0  0
  182.1190  178.3930  135.7760 O   0  0  0  0  0  0  0  0  0  0  0  0
  179.4220  176.9160  138.1010 O   0  0  0  0  0  1  0  0  0  0  0  0
  180.4450  177.8650  138.0270 C   0  0  1  0  0  3  0  0  0  0  0  0
  180.5270  178.6850  139.3230 C   0  0  2  0  0  3  0  0  0  0  0  0
  181.2190  180.0500  139.0550 C   0  0  0  0  0  3  0  0  0  0  0  0
  180.3660  181.2400  139.4630 C   0  0  0  0  0  2  0  0  0  0  0  0
  180.5210  180.8840  137.9960 C   0  0  0  0  0  2  0  0  0  0  0  0
  182.1640  178.5980  141.2310 C   0  0  0  0  0  1  0  0  0  0  0  0
  180.0390  177.5780  141.4330 O   0  0  0  0  0  1  0  0  0  0  0  0
  181.0550  177.8500  140.5130 C   0  0  1  0  0  3  0  0  0  0  0  0
  189.4550  177.3510  141.7700 O   0  0  0  0  0  0  0  0  0  0  0  0
  188.7660  176.8130  142.8610 C   0  0  1  0  0  3  0  0  0  0  0  0
  189.4930  175.7510  143.4050 O   0  0  0  0  0  1  0  0  0  0  0  0
  188.4990  177.8840  143.9190 C   0  0  0  0  0  2  0  0  0  0  0  0
  189.1930  177.5090  146.3550 N   0  0  0  0  0  0  0  0  0  0  0  0
  190.7060  178.2610  144.7150 O   0  0  0  0  0  0  0  0  0  0  0  0
  189.5360  177.8930  145.0050 C   0  0  0  0  0  0  0  0  0  0  0  0
  187.7980  177.3100  146.7150 C   0  0  0  0  0  1  0  0  0  0  0  0
  190.1530  177.3570  147.3780 N   0  0  0  0  0  2  0  0  0  0  0  0
  192.1130  175.6280  147.3150 C   0  0  0  0  0  3  0  0  0  0  0  0
  191.2090  176.4300  147.3440 C   0  0  0  0  0  0  0  0  0  0  0  0
  1  7  1  0  0  0  0
  2 24  1  0  0  0  0
  3 12  1  0  0  0  0
  5 20  2  0  0  0  0
  6 15  2  0  0  0  0
  7 22  1  0  0  0  0
  8 13  1  6  0  0  0
  9 21  2  0  0  0  0
  9 16  1  0  0  0  0
 10 23  1  0  0  0  0
 14  3  2  0  0  0  0
 14 10  1  0  0  0  0
 15  3  1  0  0  0  0
 15  4  1  0  0  0  0
 16 23  1  0  0  0  0
 16  7  2  0  0  0  0
 17  8  1  0  0  0  0
 17 11  1  1  0  0  0
 17 14  1  0  0  0  0
 18 24  1  0  0  0  0
 19  6  1  0  0  0  0
 19  8  1  0  0  0  0
 20 11  1  0  0  0  0
 20  9  1  0  0  0  0
 21  1  1  0  0  0  0
 22 18  1  0  0  0  0
 23  2  2  0  0  0  0
 24 39  1  1  0  0  0
 25  4  1  0  0  0  0
 26 28  1  0  0  0  0
 26 21  1  0  0  0  0
 27 31  1  0  0  0  0
 28 27  1  0  0  0  0
 29 28  2  0  0  0  0
 31 30  1  1  0  0  0
 32 31  1  6  0  0  0
 32 38  1  0  0  0  0
 33 32  1  0  0  0  0
 33 34  1  0  0  0  0
 35 33  1  0  0  0  0
 35 34  1  0  0  0  0
 38 36  1  1  0  0  0
 38 37  1  0  0  0  0
 39 40  1  0  0  0  0
 40 41  1  1  0  0  0
 40 42  1  0  0  0  0
 42 45  1  0  0  0  0
 43 46  1  0  0  0  0
 43 47  1  0  0  0  0
 44 45  2  0  0  0  0
 45 43  1  0  0  0  0
 48 49  3  0  0  0  0
 49 47  1  0  0  0  0
M  END
>  <MODEL>
8

>  <REMARK>
 VINA RESULT:      -6.8      2.554      3.861
  Name = 
  12 active torsions:
  status: ('A' for Active; 'I' for Inactive)
    1  A    between atoms: C_2  and  O_42
    2  A    between atoms: C_2  and  C_43
    3  A    between atoms: C_5  and  C_12
    4  A    between atoms: C_5  and  C_34
    5  A    between atoms: C_5  and  C_35
    6  A    between atoms: N_11  and  C_34
    7  A    between atoms: C_13  and  C_36
    8  A    between atoms: N_16  and  N_22
    9  A    between atoms: N_22  and  C_45
   10  A    between atoms: C_36  and  C_39
   11  A    between atoms: O_42  and  C_48
   12  A    between atoms: C_43  and  C_46
                            x       y       z     vdW  Elec       q    Type
                         _______ _______ _______ _____ _____    ______ ____

>  <TORSDO>
F 12

$$$$
=
 OpenBabel11032419413D

 49 53  0  0  1  0  0  0  0  0999 V2000
  190.5620  176.7400  135.8110 S   0  0  0  0  0  0  0  0  0  0  0  0
  186.8740  177.3390  138.6750 C   0  0  0  0  0  3  0  0  0  0  0  0
  187.3460  178.4300  142.0700 C   0  0  0  0  0  0  0  0  0  0  0  0
  185.5850  178.2400  143.8430 N   0  0  0  0  0  2  0  0  0  0  0  0
  192.0720  177.4870  140.0830 O   0  0  0  0  0  0  0  0  0  0  0  0
  187.7400  177.4610  144.3260 N   0  0  0  0  0  0  0  0  0  0  0  0
  189.0730  177.0940  136.4970 C   0  0  0  0  0  0  0  0  0  0  0  0
  189.3210  176.2500  142.9850 C   0  0  2  0  0  3  0  0  0  0  0  0
  190.5680  177.0420  138.2990 C   0  0  0  0  0  0  0  0  0  0  0  0
  188.5090  178.4770  139.9720 N   0  0  0  0  0  2  0  0  0  0  0  0
  190.1100  176.3780  140.6730 N   0  0  0  0  0  2  0  0  0  0  0  0
  186.4020  179.4000  141.4200 C   0  0  0  0  0  1  0  0  0  0  0  0
  190.5220  175.3620  143.2670 C   0  0  0  0  0  1  0  0  0  0  0  0
  188.3910  177.9850  141.3150 C   0  0  0  0  0  0  0  0  0  0  0  0
  186.9450  178.0060  143.4540 C   0  0  0  0  0  0  0  0  0  0  0  0
  189.2300  177.2660  137.8850 C   0  0  0  0  0  0  0  0  0  0  0  0
  189.5730  177.1490  141.7900 C   0  0  1  0  0  3  0  0  0  0  0  0
  186.5980  177.3870  136.2690 C   0  0  0  0  0  2  0  0  0  0  0  0
  189.1450  177.1620  144.1640 C   0  0  0  0  0  2  0  0  0  0  0  0
  190.9790  176.9830  139.7130 C   0  0  0  0  0  0  0  0  0  0  0  0
  191.4400  176.7790  137.2430 C   0  0  0  0  0  0  0  0  0  0  0  0
  187.8940  177.1390  135.7410 O   0  0  0  0  0  0  0  0  0  0  0  0
  188.1570  177.6760  138.8360 C   0  0  0  0  0  0  0  0  0  0  0  0
  186.3600  176.5600  137.5160 C   0  0  2  0  0  3  0  0  0  0  0  0
  185.0630  177.8790  145.1530 C   0  0  0  0  0  1  0  0  0  0  0  0
  192.8870  176.4280  137.3620 C   0  0  0  0  0  2  0  0  0  0  0  0
  194.2770  174.4520  136.6210 N   0  0  0  0  0  2  0  0  0  0  0  0
  193.0850  174.9560  137.2280 C   0  0  0  0  0  0  0  0  0  0  0  0
  192.1820  174.1700  137.6230 O   0  0  0  0  0  0  0  0  0  0  0  0
  194.4360  172.7390  135.0410 O   0  0  0  0  0  1  0  0  0  0  0  0
  194.4990  173.0280  136.4070 C   0  0  1  0  0  3  0  0  0  0  0  0
  195.8470  172.5890  136.9980 C   0  0  2  0  0  3  0  0  0  0  0  0
  195.6410  171.4200  138.0000 C   0  0  0  0  0  3  0  0  0  0  0  0
  196.3400  170.1400  137.5730 C   0  0  0  0  0  2  0  0  0  0  0  0
  194.8350  170.2680  137.4290 C   0  0  0  0  0  2  0  0  0  0  0  0
  196.4110  174.0810  138.9430 C   0  0  0  0  0  1  0  0  0  0  0  0
  198.0620  173.5360  137.3390 O   0  0  0  0  0  1  0  0  0  0  0  0
  196.6950  173.7900  137.4800 C   0  0  1  0  0  3  0  0  0  0  0  0
  184.9900  176.3400  137.6750 O   0  0  0  0  0  0  0  0  0  0  0  0
  184.4160  177.6150  137.6650 C   0  0  1  0  0  3  0  0  0  0  0  0
  183.4710  177.7030  136.6400 O   0  0  0  0  0  1  0  0  0  0  0  0
  183.7800  177.9370  139.0180 C   0  0  0  0  0  2  0  0  0  0  0  0
  181.8030  179.5600  139.1300 N   0  0  0  0  0  0  0  0  0  0  0  0
  184.0370  180.2990  139.0590 O   0  0  0  0  0  0  0  0  0  0  0  0
  183.2290  179.3320  139.0770 C   0  0  0  0  0  0  0  0  0  0  0  0
  180.8870  178.4490  138.9190 C   0  0  0  0  0  1  0  0  0  0  0  0
  181.2360  180.8360  139.3340 N   0  0  0  0  0  2  0  0  0  0  0  0
  181.0320  182.6750  137.4870 C   0  0  0  0  0  3  0  0  0  0  0  0
  181.1250  181.8220  138.3390 C   0  0  0  0  0  0  0  0  0  0  0  0
  1  7  1  0  0  0  0
  1 21  1  0  0  0  0
  2 23  2  0  0  0  0
  3 15  1  0  0  0  0
  4 25  1  0  0  0  0
  7 16  2  0  0  0  0
  8 13  1  1  0  0  0
  8 19  1  0  0  0  0
  9 20  1  0  0  0  0
 10 14  1  0  0  0  0
 12  3  1  0  0  0  0
 14 17  1  0  0  0  0
 14  3  2  0  0  0  0
 15  4  1  0  0  0  0
 15  6  2  0  0  0  0
 16  9  1  0  0  0  0
 16 23  1  0  0  0  0
 17 11  1  6  0  0  0
 17  8  1  0  0  0  0
 18 24  1  0  0  0  0
 19  6  1  0  0  0  0
 20  5  2  0  0  0  0
 20 11  1  0  0  0  0
 21 26  1  0  0  0  0
 21  9  2  0  0  0  0
 22 18  1  0  0  0  0
 22  7  1  0  0  0  0
 23 10  1  0  0  0  0
 24 39  1  1  0  0  0
 24  2  1  0  0  0  0
 27 28  1  0  0  0  0
 28 26  1  0  0  0  0
 28 29  2  0  0  0  0
 31 30  1  6  0  0  0
 31 27  1  0  0  0  0
 32 31  1  1  0  0  0
 32 38  1  0  0  0  0
 32 33  1  0  0  0  0
 34 33  1  0  0  0  0
 35 34  1  0  0  0  0
 35 33  1  0  0  0  0
 37 38  1  0  0  0  0
 38 36  1  1  0  0  0
 40 41  1  6  0  0  0
 40 39  1  0  0  0  0
 40 42  1  0  0  0  0
 42 45  1  0  0  0  0
 43 47  1  0  0  0  0
 44 45  2  0  0  0  0
 45 43  1  0  0  0  0
 46 43  1  0  0  0  0
 48 49  3  0  0  0  0
 49 47  1  0  0  0  0
M  END
>  <MODEL>
9

>  <REMARK>
 VINA RESULT:      -6.6      3.404      8.975
  Name = 
  12 active torsions:
  status: ('A' for Active; 'I' for Inactive)
    1  A    between atoms: C_2  and  O_42
    2  A    between atoms: C_2  and  C_43
    3  A    between atoms: C_5  and  C_12
    4  A    between atoms: C_5  and  C_34
    5  A    between atoms: C_5  and  C_35
    6  A    between atoms: N_11  and  C_34
    7  A    between atoms: C_13  and  C_36
    8  A    between atoms: N_16  and  N_22
    9  A    between atoms: N_22  and  C_45
   10  A    between atoms: C_36  and  C_39
   11  A    between atoms: O_42  and  C_48
   12  A    between atoms: C_43  and  C_46
                            x       y       z     vdW  Elec       q    Type
                         _______ _______ _______ _____ _____    ______ ____

>  <TORSDO>
F 12

$$$$
