=
 OpenBabel11032420593D

 39 46  0  0  1  0  0  0  0  0999 V2000
  186.8660  175.8780  135.1340 C   0  0  1  0  0  3  0  0  0  0  0  0
  189.7850  176.6190  140.4600 C   0  0  1  0  0  3  0  0  0  0  0  0
  188.3760  178.5360  139.3210 C   0  0  0  0  0  2  0  0  0  0  0  0
  187.5110  177.6760  138.3860 C   0  0  0  0  0  2  0  0  0  0  0  0
  190.4720  176.3210  138.0770 C   0  0  1  0  0  0  0  0  0  0  0  0
  189.7460  177.9730  139.8040 C   0  0  2  0  0  3  0  0  0  0  0  0
  188.3800  177.1900  137.2570 C   0  0  2  0  0  3  0  0  0  0  0  0
  187.7660  176.3230  136.2090 C   0  0  0  0  0  0  0  0  0  0  0  0
  188.6020  175.3450  136.4990 C   0  0  0  0  0  0  0  0  0  0  0  0
  187.2960  174.4470  134.8980 N   0  0  0  0  0  2  0  0  0  0  0  0
  190.7240  177.6250  138.7590 N   0  0  1  0  0  0  0  0  0  0  0  0
  190.9110  176.3320  139.4700 C   0  0  1  0  0  3  0  0  0  0  0  0
  189.0020  176.0200  137.7630 C   0  0  1  0  0  3  0  0  0  0  0  0
  188.3690  174.1650  135.7990 N   0  0  0  0  0  0  0  0  0  0  0  0
  188.5090  172.8660  136.4270 C   0  0  0  0  0  1  0  0  0  0  0  0
  181.4610  175.9750  136.7020 F   0  0  0  0  0  0  0  0  0  0  0  0
  184.8380  177.1430  135.9700 C   0  0  0  0  0  3  0  0  0  0  0  0
  182.7660  175.9730  136.3340 C   0  0  0  0  0  0  0  0  0  0  0  0
  183.3600  174.8130  135.9460 N   0  0  0  0  0  0  0  0  0  0  0  0
  183.4960  177.1630  136.3510 C   0  0  0  0  0  3  0  0  0  0  0  0
  185.4370  175.9370  135.5810 C   0  0  0  0  0  0  0  0  0  0  0  0
  184.6670  174.7710  135.5720 C   0  0  0  0  0  3  0  0  0  0  0  0
  190.3360  176.7440  141.8410 C   0  0  0  0  0  3  0  0  0  0  0  0
  190.3050  175.7460  142.6430 N   0  0  0  0  0  2  0  0  0  0  0  0
  191.4490  176.0790  137.0940 O   0  0  0  0  0  0  0  0  0  0  0  0
  193.8360  174.4580  135.1020 C   0  0  1  0  0  3  0  0  0  0  0  0
  192.2320  174.9970  137.5330 C   0  0  1  0  0  3  0  0  0  0  0  0
  192.3740  174.0130  135.2100 C   0  0  0  0  0  2  0  0  0  0  0  0
  191.9640  173.7670  136.6640 C   0  0  0  0  0  2  0  0  0  0  0  0
  193.7160  175.3590  137.4700 C   0  0  0  0  0  2  0  0  0  0  0  0
  194.1380  175.5010  136.0810 N   0  0  0  0  0  0  0  0  0  0  0  0
  196.5030  171.1630  135.3690 N   0  0  0  0  0  0  0  0  0  0  0  0
  195.3080  170.9970  134.7430 C   0  0  0  0  0  3  0  0  0  0  0  0
  194.7940  173.3050  135.1870 C   0  0  0  0  0  0  0  0  0  0  0  0
  196.8550  172.3380  135.8950 N   0  0  0  0  0  0  0  0  0  0  0  0
  194.4290  172.0740  134.6450 C   0  0  0  0  0  3  0  0  0  0  0  0
  196.0330  173.4180  135.8260 C   0  0  0  0  0  3  0  0  0  0  0  0
  195.2120  177.6900  135.3080 N   0  0  0  0  0  0  0  0  0  0  0  0
  194.7260  176.7000  135.6580 C   0  0  0  0  0  0  0  0  0  0  0  0
  1 21  1  1  0  0  0
  1  8  1  0  0  0  0
  2 23  1  1  0  0  0
  4  3  1  0  0  0  0
  5 25  1  6  0  0  0
  5 11  1  0  0  0  0
  5 12  1  0  0  0  0
  6  3  1  6  0  0  0
  6  2  1  0  0  0  0
  7 13  1  0  0  0  0
  7  4  1  1  0  0  0
  8  9  2  0  0  0  0
  8  7  1  0  0  0  0
  9 13  1  0  0  0  0
 10  1  1  0  0  0  0
 10 14  1  0  0  0  0
 11 12  1  0  0  0  0
 11  6  1  0  0  0  0
 12  2  1  0  0  0  0
 13  5  1  0  0  0  0
 14 15  1  0  0  0  0
 14  9  1  0  0  0  0
 17 20  1  0  0  0  0
 18 20  2  0  0  0  0
 18 16  1  0  0  0  0
 19 18  1  0  0  0  0
 21 17  2  0  0  0  0
 22 21  1  0  0  0  0
 22 19  2  0  0  0  0
 23 24  2  0  0  0  0
 25 27  1  0  0  0  0
 26 34  1  0  0  0  0
 26 28  1  0  0  0  0
 26 31  1  0  0  0  0
 28 29  1  0  0  0  0
 29 27  1  0  0  0  0
 30 27  1  0  0  0  0
 31 30  1  0  0  0  0
 32 35  1  0  0  0  0
 33 32  2  0  0  0  0
 34 37  1  0  0  0  0
 36 33  1  0  0  0  0
 36 34  2  0  0  0  0
 37 35  2  0  0  0  0
 38 39  3  0  0  0  0
 39 31  1  0  0  0  0
M  END
>  <MODEL>
1

>  <REMARK>
 VINA RESULT:      -5.6      0.000      0.000
  Name = 
  6 active torsions:
  status: ('A' for Active; 'I' for Inactive)
    1  A    between atoms: C_4  and  C_6
    2  A    between atoms: C_5  and  C_35
    3  A    between atoms: C_7  and  C_11
    4  A    between atoms: C_14  and  O_36
    5  A    between atoms: C_19  and  O_36
    6  A    between atoms: C_26  and  N_34
                            x       y       z     vdW  Elec       q    Type
                         _______ _______ _______ _____ _____    ______ ____

>  <TORSDO>
F 6

$$$$
=
 OpenBabel11032420593D

 39 46  0  0  1  0  0  0  0  0999 V2000
  187.9610  178.2360  136.3290 C   0  0  1  0  0  3  0  0  0  0  0  0
  183.8180  173.7810  136.9850 C   0  0  1  0  0  3  0  0  0  0  0  0
  185.3310  174.0250  134.8380 C   0  0  0  0  0  2  0  0  0  0  0  0
  186.4470  174.9020  135.4270 C   0  0  0  0  0  2  0  0  0  0  0  0
  183.7370  176.2570  136.6610 C   0  0  1  0  0  0  0  0  0  0  0  0
  183.9250  174.0500  135.5070 C   0  0  2  0  0  3  0  0  0  0  0  0
  185.9040  176.2940  135.6080 C   0  0  2  0  0  3  0  0  0  0  0  0
  186.8040  177.3400  136.1760 C   0  0  0  0  0  0  0  0  0  0  0  0
  185.9880  177.5170  137.1970 C   0  0  0  0  0  0  0  0  0  0  0  0
  187.6920  178.9200  137.6520 N   0  0  0  0  0  2  0  0  0  0  0  0
  183.2470  175.3560  135.5760 N   0  0  1  0  0  0  0  0  0  0  0  0
  182.9800  175.0580  137.0090 C   0  0  1  0  0  3  0  0  0  0  0  0
  185.2560  176.2640  136.8690 C   0  0  1  0  0  3  0  0  0  0  0  0
  186.4550  178.4090  138.1570 N   0  0  0  0  0  0  0  0  0  0  0  0
  186.2540  178.1790  139.5740 C   0  0  0  0  0  1  0  0  0  0  0  0
  192.8130  175.4020  136.6510 F   0  0  0  0  0  0  0  0  0  0  0  0
  189.7220  176.7590  135.2680 C   0  0  0  0  0  3  0  0  0  0  0  0
  191.6390  176.0730  136.5530 C   0  0  0  0  0  0  0  0  0  0  0  0
  191.1570  176.7560  137.6260 N   0  0  0  0  0  0  0  0  0  0  0  0
  190.9290  176.0630  135.3510 C   0  0  0  0  0  3  0  0  0  0  0  0
  189.2350  177.4510  136.3860 C   0  0  0  0  0  0  0  0  0  0  0  0
  189.9820  177.4400  137.5660 C   0  0  0  0  0  3  0  0  0  0  0  0
  182.9470  172.5930  137.2190 C   0  0  0  0  0  3  0  0  0  0  0  0
  183.2570  171.4560  136.7160 N   0  0  0  0  0  2  0  0  0  0  0  0
  183.0400  177.4790  136.6430 O   0  0  0  0  0  0  0  0  0  0  0  0
  181.7180  180.3240  138.2090 C   0  0  1  0  0  3  0  0  0  0  0  0
  182.0820  177.4330  137.6710 C   0  0  1  0  0  3  0  0  0  0  0  0
  182.9460  179.5630  138.7210 C   0  0  0  0  0  2  0  0  0  0  0  0
  182.6420  178.0790  138.9400 C   0  0  0  0  0  2  0  0  0  0  0  0
  180.8100  178.1630  137.2390 C   0  0  0  0  0  2  0  0  0  0  0  0
  181.0680  179.5930  137.1220 N   0  0  0  0  0  0  0  0  0  0  0  0
  179.0250  181.3720  141.3210 N   0  0  0  0  0  0  0  0  0  0  0  0
  178.9310  182.0090  140.1240 C   0  0  0  0  0  3  0  0  0  0  0  0
  180.7600  180.6740  139.3110 C   0  0  0  0  0  0  0  0  0  0  0  0
  179.9400  180.4250  141.5360 N   0  0  0  0  0  0  0  0  0  0  0  0
  179.8060  181.6660  139.0950 C   0  0  0  0  0  3  0  0  0  0  0  0
  180.8160  180.0560  140.5650 C   0  0  0  0  0  3  0  0  0  0  0  0
  180.5860  180.7830  134.9090 N   0  0  0  0  0  0  0  0  0  0  0  0
  180.8050  180.2450  135.9100 C   0  0  0  0  0  0  0  0  0  0  0  0
  1 21  1  1  0  0  0
  1 10  1  0  0  0  0
  2 12  1  0  0  0  0
  2 23  1  6  0  0  0
  3  4  1  0  0  0  0
  5 25  1  1  0  0  0
  5 13  1  0  0  0  0
  5 12  1  0  0  0  0
  6  3  1  1  0  0  0
  6 11  1  0  0  0  0
  6  2  1  0  0  0  0
  7  4  1  1  0  0  0
  7  8  1  0  0  0  0
  7 13  1  0  0  0  0
  8  1  1  0  0  0  0
  8  9  2  0  0  0  0
  9 14  1  0  0  0  0
 10 14  1  0  0  0  0
 11  5  1  0  0  0  0
 11 12  1  0  0  0  0
 13  9  1  0  0  0  0
 14 15  1  0  0  0  0
 17 20  2  0  0  0  0
 17 21  1  0  0  0  0
 18 16  1  0  0  0  0
 18 19  2  0  0  0  0
 20 18  1  0  0  0  0
 21 22  2  0  0  0  0
 22 19  1  0  0  0  0
 24 23  2  0  0  0  0
 25 27  1  0  0  0  0
 26 28  1  0  0  0  0
 26 34  1  0  0  0  0
 27 29  1  0  0  0  0
 28 29  1  0  0  0  0
 30 27  1  0  0  0  0
 31 30  1  0  0  0  0
 31 26  1  0  0  0  0
 32 35  1  0  0  0  0
 33 32  2  0  0  0  0
 34 37  1  0  0  0  0
 36 34  2  0  0  0  0
 36 33  1  0  0  0  0
 37 35  2  0  0  0  0
 38 39  3  0  0  0  0
 39 31  1  0  0  0  0
M  END
>  <MODEL>
2

>  <REMARK>
 VINA RESULT:      -5.4      4.428     10.958
  Name = 
  6 active torsions:
  status: ('A' for Active; 'I' for Inactive)
    1  A    between atoms: C_4  and  C_6
    2  A    between atoms: C_5  and  C_35
    3  A    between atoms: C_7  and  C_11
    4  A    between atoms: C_14  and  O_36
    5  A    between atoms: C_19  and  O_36
    6  A    between atoms: C_26  and  N_34
                            x       y       z     vdW  Elec       q    Type
                         _______ _______ _______ _____ _____    ______ ____

>  <TORSDO>
F 6

$$$$
=
 OpenBabel11032420593D

 39 46  0  0  1  0  0  0  0  0999 V2000
  188.8460  178.1860  136.8690 C   0  0  1  0  0  3  0  0  0  0  0  0
  184.4520  173.9540  137.3470 C   0  0  1  0  0  3  0  0  0  0  0  0
  185.8590  174.3160  135.1450 C   0  0  0  0  0  2  0  0  0  0  0  0
  187.0620  175.0580  135.7470 C   0  0  0  0  0  2  0  0  0  0  0  0
  184.5220  176.4510  137.2670 C   0  0  1  0  0  0  0  0  0  0  0  0
  184.4960  174.3620  135.8980 C   0  0  2  0  0  3  0  0  0  0  0  0
  186.6250  176.4560  136.0930 C   0  0  2  0  0  3  0  0  0  0  0  0
  187.6240  177.3830  136.7020 C   0  0  0  0  0  0  0  0  0  0  0  0
  186.8790  177.5080  137.7830 C   0  0  0  0  0  0  0  0  0  0  0  0
  188.6960  178.7500  138.2660 N   0  0  0  0  0  2  0  0  0  0  0  0
  183.9140  175.6940  136.1330 N   0  0  1  0  0  0  0  0  0  0  0  0
  183.7060  175.2720  137.5440 C   0  0  1  0  0  3  0  0  0  0  0  0
  186.0470  176.3420  137.3820 C   0  0  1  0  0  3  0  0  0  0  0  0
  187.4580  178.2700  138.7940 N   0  0  0  0  0  0  0  0  0  0  0  0
  187.3190  177.9120  140.1920 C   0  0  0  0  0  1  0  0  0  0  0  0
  193.3470  174.8410  136.3880 F   0  0  0  0  0  0  0  0  0  0  0  0
  190.8590  177.0430  137.8940 C   0  0  0  0  0  3  0  0  0  0  0  0
  192.2720  175.6540  136.5250 C   0  0  0  0  0  0  0  0  0  0  0  0
  191.4860  175.9270  135.4490 N   0  0  0  0  0  0  0  0  0  0  0  0
  191.9710  176.2080  137.7710 C   0  0  0  0  0  3  0  0  0  0  0  0
  190.0650  177.3210  136.7730 C   0  0  0  0  0  0  0  0  0  0  0  0
  190.3990  176.7400  135.5470 C   0  0  0  0  0  3  0  0  0  0  0  0
  183.5170  172.8050  137.5190 C   0  0  0  0  0  3  0  0  0  0  0  0
  183.6510  171.7500  136.8040 N   0  0  0  0  0  2  0  0  0  0  0  0
  183.9090  177.7090  137.4090 O   0  0  0  0  0  0  0  0  0  0  0  0
  181.1500  179.1950  138.9810 C   0  0  1  0  0  3  0  0  0  0  0  0
  183.8530  177.9990  138.7830 C   0  0  1  0  0  3  0  0  0  0  0  0
  182.3350  179.9850  138.4140 C   0  0  0  0  0  2  0  0  0  0  0  0
  183.6660  179.5020  138.9960 C   0  0  0  0  0  2  0  0  0  0  0  0
  182.6990  177.2380  139.4360 C   0  0  0  0  0  2  0  0  0  0  0  0
  181.4220  177.7590  138.9590 N   0  0  0  0  0  0  0  0  0  0  0  0
  179.9640  180.4960  142.8460 N   0  0  0  0  0  0  0  0  0  0  0  0
  180.7620  179.4020  142.7330 C   0  0  0  0  0  3  0  0  0  0  0  0
  180.7390  179.6750  140.3430 C   0  0  0  0  0  0  0  0  0  0  0  0
  179.5510  181.1700  141.7700 N   0  0  0  0  0  0  0  0  0  0  0  0
  181.1620  178.9720  141.4690 C   0  0  0  0  0  3  0  0  0  0  0  0
  179.9130  180.7900  140.5160 C   0  0  0  0  0  3  0  0  0  0  0  0
  179.7420  176.1690  137.8670 N   0  0  0  0  0  0  0  0  0  0  0  0
  180.5020  176.8880  138.3610 C   0  0  0  0  0  0  0  0  0  0  0  0
  1 21  1  1  0  0  0
  1 10  1  0  0  0  0
  2 23  1  6  0  0  0
  2 12  1  0  0  0  0
  3  4  1  0  0  0  0
  5 13  1  0  0  0  0
  5 25  1  1  0  0  0
  5 12  1  0  0  0  0
  6  3  1  1  0  0  0
  6 11  1  0  0  0  0
  6  2  1  0  0  0  0
  7  4  1  1  0  0  0
  7  8  1  0  0  0  0
  7 13  1  0  0  0  0
  8  1  1  0  0  0  0
  8  9  2  0  0  0  0
  9 14  1  0  0  0  0
 10 14  1  0  0  0  0
 11  5  1  0  0  0  0
 11 12  1  0  0  0  0
 13  9  1  0  0  0  0
 14 15  1  0  0  0  0
 16 18  1  0  0  0  0
 18 20  2  0  0  0  0
 19 22  2  0  0  0  0
 19 18  1  0  0  0  0
 20 17  1  0  0  0  0
 21 17  2  0  0  0  0
 22 21  1  0  0  0  0
 24 23  2  0  0  0  0
 25 27  1  0  0  0  0
 26 34  1  0  0  0  0
 27 29  1  0  0  0  0
 27 30  1  0  0  0  0
 28 26  1  0  0  0  0
 28 29  1  0  0  0  0
 31 26  1  0  0  0  0
 31 30  1  0  0  0  0
 33 32  1  0  0  0  0
 34 37  2  0  0  0  0
 34 36  1  0  0  0  0
 35 32  2  0  0  0  0
 36 33  2  0  0  0  0
 37 35  1  0  0  0  0
 38 39  3  0  0  0  0
 39 31  1  0  0  0  0
M  END
>  <MODEL>
3

>  <REMARK>
 VINA RESULT:      -5.3      4.337     10.736
  Name = 
  6 active torsions:
  status: ('A' for Active; 'I' for Inactive)
    1  A    between atoms: C_4  and  C_6
    2  A    between atoms: C_5  and  C_35
    3  A    between atoms: C_7  and  C_11
    4  A    between atoms: C_14  and  O_36
    5  A    between atoms: C_19  and  O_36
    6  A    between atoms: C_26  and  N_34
                            x       y       z     vdW  Elec       q    Type
                         _______ _______ _______ _____ _____    ______ ____

>  <TORSDO>
F 6

$$$$
=
 OpenBabel11032420593D

 39 46  0  0  1  0  0  0  0  0999 V2000
  185.9880  178.6850  138.4410 C   0  0  1  0  0  3  0  0  0  0  0  0
  181.6550  174.4360  137.6570 C   0  0  1  0  0  3  0  0  0  0  0  0
  183.3510  175.1200  135.7560 C   0  0  0  0  0  2  0  0  0  0  0  0
  184.4420  175.7620  136.6250 C   0  0  0  0  0  2  0  0  0  0  0  0
  181.6870  176.9160  137.9580 C   0  0  1  0  0  0  0  0  0  0  0  0
  181.8950  175.0550  136.3060 C   0  0  2  0  0  3  0  0  0  0  0  0
  183.9330  177.0940  137.1080 C   0  0  2  0  0  3  0  0  0  0  0  0
  184.8180  177.9180  137.9840 C   0  0  0  0  0  0  0  0  0  0  0  0
  183.9260  177.8820  138.9550 C   0  0  0  0  0  0  0  0  0  0  0  0
  185.6320  179.0340  139.8690 N   0  0  0  0  0  2  0  0  0  0  0  0
  181.2590  176.3380  136.6490 N   0  0  1  0  0  0  0  0  0  0  0  0
  180.8620  175.7100  137.9380 C   0  0  1  0  0  3  0  0  0  0  0  0
  183.1810  176.7890  138.2710 C   0  0  1  0  0  3  0  0  0  0  0  0
  184.3410  178.4830  140.1390 N   0  0  0  0  0  0  0  0  0  0  0  0
  184.0130  177.9210  141.4350 C   0  0  0  0  0  1  0  0  0  0  0  0
  190.7190  175.6380  138.3500 F   0  0  0  0  0  0  0  0  0  0  0  0
  187.5440  177.0700  137.2670 C   0  0  0  0  0  3  0  0  0  0  0  0
  189.5720  176.3590  138.3540 C   0  0  0  0  0  0  0  0  0  0  0  0
  189.2520  177.1200  139.4340 N   0  0  0  0  0  0  0  0  0  0  0  0
  188.7220  176.3220  137.2460 C   0  0  0  0  0  3  0  0  0  0  0  0
  187.2260  177.8420  138.3920 C   0  0  0  0  0  0  0  0  0  0  0  0
  188.1080  177.8560  139.4750 C   0  0  0  0  0  3  0  0  0  0  0  0
  180.7270  173.2750  137.5220 C   0  0  0  0  0  3  0  0  0  0  0  0
  179.7530  173.1280  138.3400 N   0  0  0  0  0  2  0  0  0  0  0  0
  181.0350  178.1400  138.1960 O   0  0  0  0  0  0  0  0  0  0  0  0
  179.8170  181.3510  137.4900 C   0  0  1  0  0  3  0  0  0  0  0  0
  181.7990  179.1510  137.5900 C   0  0  1  0  0  3  0  0  0  0  0  0
  179.7680  180.1850  136.4970 C   0  0  0  0  0  2  0  0  0  0  0  0
  181.1550  179.5780  136.2690 C   0  0  0  0  0  2  0  0  0  0  0  0
  181.9110  180.3580  138.5220 C   0  0  0  0  0  2  0  0  0  0  0  0
  180.6100  181.0010  138.6670 N   0  0  0  0  0  0  0  0  0  0  0  0
  181.1530  184.9320  135.6380 N   0  0  0  0  0  0  0  0  0  0  0  0
  180.3170  184.1080  134.9540 C   0  0  0  0  0  3  0  0  0  0  0  0
  180.2820  182.6290  136.8520 C   0  0  0  0  0  0  0  0  0  0  0  0
  181.5570  184.6430  136.8770 N   0  0  0  0  0  0  0  0  0  0  0  0
  179.8680  182.9330  135.5560 C   0  0  0  0  0  3  0  0  0  0  0  0
  181.1480  183.5100  137.5070 C   0  0  0  0  0  3  0  0  0  0  0  0
  179.6110  181.3090  141.0020 N   0  0  0  0  0  0  0  0  0  0  0  0
  180.0630  181.1690  139.9460 C   0  0  0  0  0  0  0  0  0  0  0  0
  1 21  1  1  0  0  0
  1 10  1  0  0  0  0
  2 23  1  6  0  0  0
  2 12  1  0  0  0  0
  3  4  1  0  0  0  0
  5 25  1  1  0  0  0
  5 13  1  0  0  0  0
  6  3  1  1  0  0  0
  6 11  1  0  0  0  0
  6  2  1  0  0  0  0
  7  4  1  1  0  0  0
  7  8  1  0  0  0  0
  7 13  1  0  0  0  0
  8  1  1  0  0  0  0
  8  9  2  0  0  0  0
  9 14  1  0  0  0  0
 10 14  1  0  0  0  0
 11 12  1  0  0  0  0
 11  5  1  0  0  0  0
 12  5  1  0  0  0  0
 13  9  1  0  0  0  0
 14 15  1  0  0  0  0
 16 18  1  0  0  0  0
 17 21  1  0  0  0  0
 18 19  2  0  0  0  0
 19 22  1  0  0  0  0
 20 17  2  0  0  0  0
 20 18  1  0  0  0  0
 21 22  2  0  0  0  0
 23 24  2  0  0  0  0
 26 31  1  0  0  0  0
 27 25  1  0  0  0  0
 27 30  1  0  0  0  0
 28 26  1  0  0  0  0
 29 28  1  0  0  0  0
 29 27  1  0  0  0  0
 30 31  1  0  0  0  0
 31 39  1  0  0  0  0
 32 35  1  0  0  0  0
 33 36  1  0  0  0  0
 33 32  2  0  0  0  0
 34 26  1  0  0  0  0
 34 37  1  0  0  0  0
 35 37  2  0  0  0  0
 36 34  2  0  0  0  0
 39 38  3  0  0  0  0
M  END
>  <MODEL>
4

>  <REMARK>
 VINA RESULT:      -5.0      5.177     11.627
  Name = 
  6 active torsions:
  status: ('A' for Active; 'I' for Inactive)
    1  A    between atoms: C_4  and  C_6
    2  A    between atoms: C_5  and  C_35
    3  A    between atoms: C_7  and  C_11
    4  A    between atoms: C_14  and  O_36
    5  A    between atoms: C_19  and  O_36
    6  A    between atoms: C_26  and  N_34
                            x       y       z     vdW  Elec       q    Type
                         _______ _______ _______ _____ _____    ______ ____

>  <TORSDO>
F 6

$$$$
=
 OpenBabel11032420593D

 39 46  0  0  1  0  0  0  0  0999 V2000
  185.7830  174.5190  134.8100 C   0  0  1  0  0  3  0  0  0  0  0  0
  188.5040  177.1280  139.6300 C   0  0  1  0  0  3  0  0  0  0  0  0
  186.6070  178.3200  138.2370 C   0  0  0  0  0  2  0  0  0  0  0  0
  185.9870  177.0850  137.5680 C   0  0  0  0  0  2  0  0  0  0  0  0
  189.1960  176.5090  137.3110 C   0  0  1  0  0  0  0  0  0  0  0  0
  188.0870  178.2500  138.7170 C   0  0  2  0  0  3  0  0  0  0  0  0
  186.9310  176.6070  136.4980 C   0  0  2  0  0  3  0  0  0  0  0  0
  186.5520  175.4050  135.6980 C   0  0  0  0  0  0  0  0  0  0  0  0
  187.6260  174.7640  136.1160 C   0  0  0  0  0  0  0  0  0  0  0  0
  186.5790  173.2320  134.8370 N   0  0  0  0  0  2  0  0  0  0  0  0
  189.1020  177.9500  137.6920 N   0  0  1  0  0  0  0  0  0  0  0  0
  189.6450  176.9350  138.6340 C   0  0  1  0  0  3  0  0  0  0  0  0
  187.8560  175.7770  137.1810 C   0  0  1  0  0  3  0  0  0  0  0  0
  187.7070  173.4410  135.6910 N   0  0  0  0  0  0  0  0  0  0  0  0
  188.2050  172.3900  136.5580 C   0  0  0  0  0  1  0  0  0  0  0  0
  180.5940  173.5430  136.7590 F   0  0  0  0  0  0  0  0  0  0  0  0
  183.4600  175.3390  135.3950 C   0  0  0  0  0  3  0  0  0  0  0  0
  181.8400  173.8010  136.2920 C   0  0  0  0  0  0  0  0  0  0  0  0
  182.7620  172.8030  136.2310 N   0  0  0  0  0  0  0  0  0  0  0  0
  182.1730  175.0900  135.8720 C   0  0  0  0  0  3  0  0  0  0  0  0
  184.4010  174.3020  135.3460 C   0  0  0  0  0  0  0  0  0  0  0  0
  184.0230  173.0250  135.7690 C   0  0  0  0  0  3  0  0  0  0  0  0
  189.0290  177.6890  140.9090 C   0  0  0  0  0  3  0  0  0  0  0  0
  188.5720  178.7950  141.3660 N   0  0  0  0  0  2  0  0  0  0  0  0
  190.1820  176.3210  136.3250 O   0  0  0  0  0  0  0  0  0  0  0  0
  193.5250  175.2750  136.1630 C   0  0  1  0  0  3  0  0  0  0  0  0
  190.5860  174.9760  136.3820 C   0  0  1  0  0  3  0  0  0  0  0  0
  192.6140  175.4080  134.9380 C   0  0  0  0  0  2  0  0  0  0  0  0
  191.3270  174.5940  135.0990 C   0  0  0  0  0  2  0  0  0  0  0  0
  191.4950  174.7480  137.5900 C   0  0  0  0  0  2  0  0  0  0  0  0
  192.7630  175.4430  137.4000 N   0  0  0  0  0  0  0  0  0  0  0  0
  195.8130  171.6980  136.1690 N   0  0  0  0  0  0  0  0  0  0  0  0
  195.4460  172.2490  137.3560 C   0  0  0  0  0  3  0  0  0  0  0  0
  194.3190  174.0010  136.1530 C   0  0  0  0  0  0  0  0  0  0  0  0
  195.4660  172.2540  135.0060 N   0  0  0  0  0  0  0  0  0  0  0  0
  194.6900  173.4190  137.3640 C   0  0  0  0  0  3  0  0  0  0  0  0
  194.7300  173.3950  134.9610 C   0  0  0  0  0  3  0  0  0  0  0  0
  193.5450  177.1390  139.1480 N   0  0  0  0  0  0  0  0  0  0  0  0
  193.1910  176.3720  138.3570 C   0  0  0  0  0  0  0  0  0  0  0  0
  1 10  1  0  0  0  0
  1 21  1  1  0  0  0
  1  8  1  0  0  0  0
  2 23  1  1  0  0  0
  4  3  1  0  0  0  0
  5 25  1  6  0  0  0
  5 11  1  0  0  0  0
  5 12  1  0  0  0  0
  6  3  1  6  0  0  0
  6  2  1  0  0  0  0
  7 13  1  0  0  0  0
  7  4  1  1  0  0  0
  8  9  2  0  0  0  0
  8  7  1  0  0  0  0
  9 13  1  0  0  0  0
 10 14  1  0  0  0  0
 11 12  1  0  0  0  0
 11  6  1  0  0  0  0
 12  2  1  0  0  0  0
 13  5  1  0  0  0  0
 14  9  1  0  0  0  0
 14 15  1  0  0  0  0
 17 20  1  0  0  0  0
 18 16  1  0  0  0  0
 19 18  1  0  0  0  0
 20 18  2  0  0  0  0
 21 17  2  0  0  0  0
 21 22  1  0  0  0  0
 22 19  2  0  0  0  0
 23 24  2  0  0  0  0
 25 27  1  0  0  0  0
 26 31  1  0  0  0  0
 27 30  1  0  0  0  0
 28 29  1  0  0  0  0
 28 26  1  0  0  0  0
 29 27  1  0  0  0  0
 31 30  1  0  0  0  0
 31 39  1  0  0  0  0
 32 33  1  0  0  0  0
 33 36  2  0  0  0  0
 34 26  1  0  0  0  0
 34 36  1  0  0  0  0
 35 32  2  0  0  0  0
 37 35  1  0  0  0  0
 37 34  2  0  0  0  0
 39 38  3  0  0  0  0
M  END
>  <MODEL>
5

>  <REMARK>
 VINA RESULT:      -4.7      1.651      2.073
  Name = 
  6 active torsions:
  status: ('A' for Active; 'I' for Inactive)
    1  A    between atoms: C_4  and  C_6
    2  A    between atoms: C_5  and  C_35
    3  A    between atoms: C_7  and  C_11
    4  A    between atoms: C_14  and  O_36
    5  A    between atoms: C_19  and  O_36
    6  A    between atoms: C_26  and  N_34
                            x       y       z     vdW  Elec       q    Type
                         _______ _______ _______ _____ _____    ______ ____

>  <TORSDO>
F 6

$$$$
=
 OpenBabel11032420593D

 39 46  0  0  1  0  0  0  0  0999 V2000
  189.6440  176.1300  143.6630 C   0  0  1  0  0  3  0  0  0  0  0  0
  188.9140  179.0010  138.3080 C   0  0  1  0  0  3  0  0  0  0  0  0
  187.0350  177.5030  139.3990 C   0  0  0  0  0  2  0  0  0  0  0  0
  187.5390  177.5030  140.8500 C   0  0  0  0  0  2  0  0  0  0  0  0
  190.2910  177.0850  139.1310 C   0  0  1  0  0  0  0  0  0  0  0  0
  188.0550  177.7650  138.2510 C   0  0  2  0  0  3  0  0  0  0  0  0
  188.7530  176.6160  140.9250 C   0  0  2  0  0  3  0  0  0  0  0  0
  189.4350  176.4530  142.2430 C   0  0  0  0  0  0  0  0  0  0  0  0
  190.5510  176.9540  141.7490 C   0  0  0  0  0  0  0  0  0  0  0  0
  191.0640  176.5880  143.9130 N   0  0  0  0  0  2  0  0  0  0  0  0
  189.1930  176.8350  138.1510 N   0  0  1  0  0  0  0  0  0  0  0  0
  190.0670  178.0350  138.0450 C   0  0  1  0  0  3  0  0  0  0  0  0
  189.8320  177.4540  140.5460 C   0  0  1  0  0  3  0  0  0  0  0  0
  191.5690  177.1160  142.6840 N   0  0  0  0  0  0  0  0  0  0  0  0
  192.4490  178.2680  142.6600 C   0  0  0  0  0  1  0  0  0  0  0  0
  186.1090  178.9150  147.0430 F   0  0  0  0  0  0  0  0  0  0  0  0
  187.3390  177.0530  144.1580 C   0  0  0  0  0  3  0  0  0  0  0  0
  186.9450  178.2470  146.2110 C   0  0  0  0  0  0  0  0  0  0  0  0
  188.2480  178.0690  146.5570 N   0  0  0  0  0  0  0  0  0  0  0  0
  186.4650  177.7380  145.0030 C   0  0  0  0  0  3  0  0  0  0  0  0
  188.6810  176.8870  144.5250 C   0  0  0  0  0  0  0  0  0  0  0  0
  189.1170  177.4050  145.7470 C   0  0  0  0  0  3  0  0  0  0  0  0
  188.6650  179.8440  137.1030 C   0  0  0  0  0  3  0  0  0  0  0  0
  187.5560  179.7530  136.4690 N   0  0  0  0  0  2  0  0  0  0  0  0
  191.3260  176.1470  138.9660 O   0  0  0  0  0  0  0  0  0  0  0  0
  194.2890  174.5490  137.9850 C   0  0  1  0  0  3  0  0  0  0  0  0
  192.3720  176.7890  138.2800 C   0  0  1  0  0  3  0  0  0  0  0  0
  194.1200  175.2880  139.3170 C   0  0  0  0  0  2  0  0  0  0  0  0
  193.6570  176.7320  139.1090 C   0  0  0  0  0  2  0  0  0  0  0  0
  192.6020  176.1200  136.9250 C   0  0  0  0  0  2  0  0  0  0  0  0
  193.1360  174.7760  137.1140 N   0  0  0  0  0  0  0  0  0  0  0  0
  197.9500  175.4360  136.0240 N   0  0  0  0  0  0  0  0  0  0  0  0
  196.7880  175.5230  135.3240 C   0  0  0  0  0  3  0  0  0  0  0  0
  195.5870  174.8780  137.3070 C   0  0  0  0  0  0  0  0  0  0  0  0
  197.9620  175.0840  137.3110 N   0  0  0  0  0  0  0  0  0  0  0  0
  195.5810  175.2400  135.9610 C   0  0  0  0  0  3  0  0  0  0  0  0
  196.8130  174.7980  137.9760 C   0  0  0  0  0  3  0  0  0  0  0  0
  191.9090  172.7770  136.0930 N   0  0  0  0  0  0  0  0  0  0  0  0
  192.4640  173.6810  136.5550 C   0  0  0  0  0  0  0  0  0  0  0  0
  1 10  1  0  0  0  0
  1 21  1  1  0  0  0
  2 23  1  6  0  0  0
  3  4  1  0  0  0  0
  5 25  1  6  0  0  0
  5 13  1  0  0  0  0
  6  2  1  0  0  0  0
  6  3  1  1  0  0  0
  7  4  1  1  0  0  0
  7  8  1  0  0  0  0
  8  1  1  0  0  0  0
  9  8  2  0  0  0  0
  9 14  1  0  0  0  0
 11  6  1  0  0  0  0
 11  5  1  0  0  0  0
 12 11  1  0  0  0  0
 12  2  1  0  0  0  0
 12  5  1  0  0  0  0
 13  7  1  0  0  0  0
 13  9  1  0  0  0  0
 14 10  1  0  0  0  0
 15 14  1  0  0  0  0
 17 21  2  0  0  0  0
 17 20  1  0  0  0  0
 18 19  1  0  0  0  0
 18 16  1  0  0  0  0
 20 18  2  0  0  0  0
 21 22  1  0  0  0  0
 22 19  2  0  0  0  0
 24 23  2  0  0  0  0
 26 28  1  0  0  0  0
 27 25  1  0  0  0  0
 27 29  1  0  0  0  0
 29 28  1  0  0  0  0
 30 31  1  0  0  0  0
 30 27  1  0  0  0  0
 31 26  1  0  0  0  0
 32 35  1  0  0  0  0
 33 36  1  0  0  0  0
 33 32  2  0  0  0  0
 34 37  1  0  0  0  0
 34 26  1  0  0  0  0
 35 37  2  0  0  0  0
 36 34  2  0  0  0  0
 38 39  3  0  0  0  0
 39 31  1  0  0  0  0
M  END
>  <MODEL>
6

>  <REMARK>
 VINA RESULT:      -4.3      3.547      6.278
  Name = 
  6 active torsions:
  status: ('A' for Active; 'I' for Inactive)
    1  A    between atoms: C_4  and  C_6
    2  A    between atoms: C_5  and  C_35
    3  A    between atoms: C_7  and  C_11
    4  A    between atoms: C_14  and  O_36
    5  A    between atoms: C_19  and  O_36
    6  A    between atoms: C_26  and  N_34
                            x       y       z     vdW  Elec       q    Type
                         _______ _______ _______ _____ _____    ______ ____

>  <TORSDO>
F 6

$$$$
=
 OpenBabel11032420593D

 39 46  0  0  1  0  0  0  0  0999 V2000
  189.2530  178.2650  144.9560 C   0  0  1  0  0  3  0  0  0  0  0  0
  190.1520  176.1540  139.2830 C   0  0  1  0  0  3  0  0  0  0  0  0
  191.9330  177.6160  140.5660 C   0  0  0  0  0  2  0  0  0  0  0  0
  191.4340  177.3990  142.0030 C   0  0  0  0  0  2  0  0  0  0  0  0
  188.6570  177.8560  140.3360 C   0  0  1  0  0  0  0  0  0  0  0  0
  190.9300  177.4390  139.3890 C   0  0  2  0  0  3  0  0  0  0  0  0
  190.1660  178.1900  142.1830 C   0  0  2  0  0  3  0  0  0  0  0  0
  189.4780  178.1390  143.5070 C   0  0  0  0  0  0  0  0  0  0  0  0
  188.3950  177.6360  142.9480 C   0  0  0  0  0  0  0  0  0  0  0  0
  187.8650  177.6890  145.1370 N   0  0  0  0  0  2  0  0  0  0  0  0
  189.7340  178.2990  139.4020 N   0  0  1  0  0  0  0  0  0  0  0  0
  188.9390  177.0700  139.1380 C   0  0  1  0  0  3  0  0  0  0  0  0
  189.1420  177.3400  141.6950 C   0  0  1  0  0  3  0  0  0  0  0  0
  187.3920  177.2900  143.8480 N   0  0  0  0  0  0  0  0  0  0  0  0
  186.5870  176.0970  143.6730 C   0  0  0  0  0  1  0  0  0  0  0  0
  193.0630  175.3940  147.9420 F   0  0  0  0  0  0  0  0  0  0  0  0
  191.1860  176.6340  145.0710 C   0  0  0  0  0  3  0  0  0  0  0  0
  192.1500  176.0710  147.2050 C   0  0  0  0  0  0  0  0  0  0  0  0
  191.2540  176.8900  147.8180 N   0  0  0  0  0  0  0  0  0  0  0  0
  192.1330  175.9300  145.8160 C   0  0  0  0  0  3  0  0  0  0  0  0
  190.2640  177.4670  145.7200 C   0  0  0  0  0  0  0  0  0  0  0  0
  190.3220  177.5850  147.1110 C   0  0  0  0  0  3  0  0  0  0  0  0
  190.4510  175.4890  137.9810 C   0  0  0  0  0  3  0  0  0  0  0  0
  191.3320  174.5620  137.9170 N   0  0  0  0  0  2  0  0  0  0  0  0
  187.5630  178.7400  140.2850 O   0  0  0  0  0  0  0  0  0  0  0  0
  184.6450  179.2100  138.4000 C   0  0  1  0  0  3  0  0  0  0  0  0
  186.3950  177.9760  140.4470 C   0  0  1  0  0  3  0  0  0  0  0  0
  184.9100  179.8960  139.7440 C   0  0  0  0  0  2  0  0  0  0  0  0
  185.2260  178.8790  140.8450 C   0  0  0  0  0  2  0  0  0  0  0  0
  186.0600  177.2420  139.1480 C   0  0  0  0  0  2  0  0  0  0  0  0
  185.6640  178.1990  138.1210 N   0  0  0  0  0  0  0  0  0  0  0  0
  180.7010  177.6490  138.1830 N   0  0  0  0  0  0  0  0  0  0  0  0
  180.9030  178.8530  138.7800 C   0  0  0  0  0  3  0  0  0  0  0  0
  183.2530  178.6570  138.3010 C   0  0  0  0  0  0  0  0  0  0  0  0
  181.7140  176.9530  137.6610 N   0  0  0  0  0  0  0  0  0  0  0  0
  182.1930  179.3770  138.8500 C   0  0  0  0  0  3  0  0  0  0  0  0
  182.9890  177.4200  137.7050 C   0  0  0  0  0  3  0  0  0  0  0  0
  186.9200  178.2490  135.8930 N   0  0  0  0  0  0  0  0  0  0  0  0
  186.3520  178.2270  136.9010 C   0  0  0  0  0  0  0  0  0  0  0  0
  1 10  1  0  0  0  0
  1 21  1  1  0  0  0
  2 23  1  6  0  0  0
  2  6  1  0  0  0  0
  3  4  1  0  0  0  0
  5 25  1  6  0  0  0
  5 13  1  0  0  0  0
  6 11  1  0  0  0  0
  6  3  1  1  0  0  0
  7  4  1  1  0  0  0
  7  8  1  0  0  0  0
  8  1  1  0  0  0  0
  9  8  2  0  0  0  0
  9 14  1  0  0  0  0
 11  5  1  0  0  0  0
 12  2  1  0  0  0  0
 12 11  1  0  0  0  0
 12  5  1  0  0  0  0
 13  7  1  0  0  0  0
 13  9  1  0  0  0  0
 14 10  1  0  0  0  0
 15 14  1  0  0  0  0
 17 21  2  0  0  0  0
 17 20  1  0  0  0  0
 18 19  1  0  0  0  0
 18 16  1  0  0  0  0
 20 18  2  0  0  0  0
 21 22  1  0  0  0  0
 22 19  2  0  0  0  0
 24 23  2  0  0  0  0
 25 27  1  0  0  0  0
 26 28  1  0  0  0  0
 27 29  1  0  0  0  0
 28 29  1  0  0  0  0
 30 27  1  0  0  0  0
 31 26  1  0  0  0  0
 31 30  1  0  0  0  0
 32 33  1  0  0  0  0
 33 36  2  0  0  0  0
 34 26  1  0  0  0  0
 34 36  1  0  0  0  0
 35 37  1  0  0  0  0
 35 32  2  0  0  0  0
 37 34  2  0  0  0  0
 38 39  3  0  0  0  0
 39 31  1  0  0  0  0
M  END
>  <MODEL>
7

>  <REMARK>
 VINA RESULT:      -3.9      4.540     10.131
  Name = 
  6 active torsions:
  status: ('A' for Active; 'I' for Inactive)
    1  A    between atoms: C_4  and  C_6
    2  A    between atoms: C_5  and  C_35
    3  A    between atoms: C_7  and  C_11
    4  A    between atoms: C_14  and  O_36
    5  A    between atoms: C_19  and  O_36
    6  A    between atoms: C_26  and  N_34
                            x       y       z     vdW  Elec       q    Type
                         _______ _______ _______ _____ _____    ______ ____

>  <TORSDO>
F 6

$$$$
=
 OpenBabel11032420593D

 39 46  0  0  1  0  0  0  0  0999 V2000
  189.2210  178.1290  146.9770 C   0  0  1  0  0  3  0  0  0  0  0  0
  189.3390  176.7390  141.0190 C   0  0  1  0  0  3  0  0  0  0  0  0
  191.1580  178.2640  142.1710 C   0  0  0  0  0  2  0  0  0  0  0  0
  190.9370  177.8410  143.6320 C   0  0  0  0  0  2  0  0  0  0  0  0
  187.8830  178.1320  142.4970 C   0  0  1  0  0  0  0  0  0  0  0  0
  189.9890  178.0900  141.1550 C   0  0  2  0  0  3  0  0  0  0  0  0
  189.6460  178.4510  144.1070 C   0  0  2  0  0  3  0  0  0  0  0  0
  189.2050  178.1810  145.5070 C   0  0  0  0  0  0  0  0  0  0  0  0
  188.0980  177.6120  145.0700 C   0  0  0  0  0  0  0  0  0  0  0  0
  187.9500  177.3750  147.3060 N   0  0  0  0  0  2  0  0  0  0  0  0
  188.7330  178.7950  141.4640 N   0  0  1  0  0  0  0  0  0  0  0  0
  188.0330  177.5130  141.1830 C   0  0  1  0  0  3  0  0  0  0  0  0
  188.6440  177.5390  143.6880 C   0  0  1  0  0  3  0  0  0  0  0  0
  187.3050  177.0580  146.0700 N   0  0  0  0  0  0  0  0  0  0  0  0
  186.6070  175.8010  145.8810 C   0  0  0  0  0  1  0  0  0  0  0  0
  193.8140  175.4750  148.8590 F   0  0  0  0  0  0  0  0  0  0  0  0
  190.8480  176.1930  146.8600 C   0  0  0  0  0  3  0  0  0  0  0  0
  192.7020  176.0940  148.3940 C   0  0  0  0  0  0  0  0  0  0  0  0
  192.2810  177.2540  148.9670 N   0  0  0  0  0  0  0  0  0  0  0  0
  191.9920  175.5430  147.3260 C   0  0  0  0  0  3  0  0  0  0  0  0
  190.4240  177.3820  147.4680 C   0  0  0  0  0  0  0  0  0  0  0  0
  191.1680  177.9030  148.5290 C   0  0  0  0  0  3  0  0  0  0  0  0
  189.4750  176.2530  139.6150 C   0  0  0  0  0  3  0  0  0  0  0  0
  190.6350  176.0420  139.1140 N   0  0  0  0  0  2  0  0  0  0  0  0
  186.7140  178.8790  142.7290 O   0  0  0  0  0  0  0  0  0  0  0  0
  183.3030  179.6280  142.4140 C   0  0  1  0  0  3  0  0  0  0  0  0
  185.6820  177.9700  143.0190 C   0  0  1  0  0  3  0  0  0  0  0  0
  184.1000  179.8140  143.7100 C   0  0  0  0  0  2  0  0  0  0  0  0
  184.7950  178.5190  144.1370 C   0  0  0  0  0  2  0  0  0  0  0  0
  184.8380  177.7130  141.7700 C   0  0  0  0  0  2  0  0  0  0  0  0
  184.0970  178.9170  141.4120 N   0  0  0  0  0  0  0  0  0  0  0  0
  179.5050  177.8330  143.0380 N   0  0  0  0  0  0  0  0  0  0  0  0
  179.9680  177.9740  141.7680 C   0  0  0  0  0  3  0  0  0  0  0  0
  181.9700  178.9790  142.6480 C   0  0  0  0  0  0  0  0  0  0  0  0
  180.2200  178.2410  144.0890 N   0  0  0  0  0  0  0  0  0  0  0  0
  181.2160  178.5560  141.5540 C   0  0  0  0  0  3  0  0  0  0  0  0
  181.4420  178.8150  143.9320 C   0  0  0  0  0  3  0  0  0  0  0  0
  184.3700  179.9160  139.0730 N   0  0  0  0  0  0  0  0  0  0  0  0
  184.2460  179.4640  140.1310 C   0  0  0  0  0  0  0  0  0  0  0  0
  1 10  1  0  0  0  0
  1 21  1  6  0  0  0
  2 23  1  6  0  0  0
  2  6  1  0  0  0  0
  2 12  1  0  0  0  0
  3  4  1  0  0  0  0
  5 25  1  1  0  0  0
  5 13  1  0  0  0  0
  6 11  1  0  0  0  0
  6  3  1  1  0  0  0
  7  4  1  1  0  0  0
  7  8  1  0  0  0  0
  8  1  1  0  0  0  0
  9  8  2  0  0  0  0
  9 14  1  0  0  0  0
 11  5  1  0  0  0  0
 12 11  1  0  0  0  0
 12  5  1  0  0  0  0
 13  7  1  0  0  0  0
 13  9  1  0  0  0  0
 14 10  1  0  0  0  0
 15 14  1  0  0  0  0
 17 20  2  0  0  0  0
 17 21  1  0  0  0  0
 18 16  1  0  0  0  0
 18 19  2  0  0  0  0
 20 18  1  0  0  0  0
 21 22  2  0  0  0  0
 22 19  1  0  0  0  0
 24 23  2  0  0  0  0
 25 27  1  0  0  0  0
 26 34  1  0  0  0  0
 26 28  1  0  0  0  0
 27 29  1  0  0  0  0
 28 29  1  0  0  0  0
 30 27  1  0  0  0  0
 31 30  1  0  0  0  0
 31 26  1  0  0  0  0
 32 35  1  0  0  0  0
 33 32  2  0  0  0  0
 34 37  1  0  0  0  0
 36 33  1  0  0  0  0
 36 34  2  0  0  0  0
 37 35  2  0  0  0  0
 38 39  3  0  0  0  0
 39 31  1  0  0  0  0
M  END
>  <MODEL>
8

>  <REMARK>
 VINA RESULT:      -3.7      5.986     11.924
  Name = 
  6 active torsions:
  status: ('A' for Active; 'I' for Inactive)
    1  A    between atoms: C_4  and  C_6
    2  A    between atoms: C_5  and  C_35
    3  A    between atoms: C_7  and  C_11
    4  A    between atoms: C_14  and  O_36
    5  A    between atoms: C_19  and  O_36
    6  A    between atoms: C_26  and  N_34
                            x       y       z     vdW  Elec       q    Type
                         _______ _______ _______ _____ _____    ______ ____

>  <TORSDO>
F 6

$$$$
=
 OpenBabel11032420593D

 39 46  0  0  1  0  0  0  0  0999 V2000
  183.5010  173.9370  135.1810 C   0  0  1  0  0  3  0  0  0  0  0  0
  184.4620  178.0830  139.5780 C   0  0  1  0  0  3  0  0  0  0  0  0
  182.3990  178.1870  137.9380 C   0  0  0  0  0  2  0  0  0  0  0  0
  182.3910  176.7250  137.4670 C   0  0  0  0  0  2  0  0  0  0  0  0
  185.5740  177.4790  137.4240 C   0  0  1  0  0  0  0  0  0  0  0  0
  183.7290  178.7960  138.4730 C   0  0  2  0  0  3  0  0  0  0  0  0
  183.5500  176.5280  136.5270 C   0  0  2  0  0  3  0  0  0  0  0  0
  183.7620  175.1760  135.9320 C   0  0  0  0  0  0  0  0  0  0  0  0
  184.9540  175.0950  136.4900 C   0  0  0  0  0  0  0  0  0  0  0  0
  184.7350  173.1050  135.4550 N   0  0  0  0  0  2  0  0  0  0  0  0
  184.8770  178.7930  137.5500 N   0  0  1  0  0  0  0  0  0  0  0  0
  185.6800  178.2330  138.6700 C   0  0  1  0  0  3  0  0  0  0  0  0
  184.6540  176.2540  137.3740 C   0  0  1  0  0  3  0  0  0  0  0  0
  185.5950  173.8740  136.3000 N   0  0  0  0  0  0  0  0  0  0  0  0
  186.3790  173.2530  137.3490 C   0  0  0  0  0  1  0  0  0  0  0  0
  178.9310  171.2260  137.0360 F   0  0  0  0  0  0  0  0  0  0  0  0
  181.0770  173.9520  135.9100 C   0  0  0  0  0  3  0  0  0  0  0  0
  180.0220  171.8990  136.5960 C   0  0  0  0  0  0  0  0  0  0  0  0
  181.1880  171.2350  136.3770 N   0  0  0  0  0  0  0  0  0  0  0  0
  179.9440  173.2740  136.3640 C   0  0  0  0  0  3  0  0  0  0  0  0
  182.2730  173.2530  135.6990 C   0  0  0  0  0  0  0  0  0  0  0  0
  182.3030  171.8770  135.9360 C   0  0  0  0  0  3  0  0  0  0  0  0
  184.5900  178.9850  140.7600 C   0  0  0  0  0  3  0  0  0  0  0  0
  185.7470  179.3510  141.1720 N   0  0  0  0  0  2  0  0  0  0  0  0
  186.6470  177.5720  136.5190 O   0  0  0  0  0  0  0  0  0  0  0  0
  190.1170  177.3860  136.9830 C   0  0  1  0  0  3  0  0  0  0  0  0
  187.3640  176.3650  136.5890 C   0  0  1  0  0  3  0  0  0  0  0  0
  189.4430  177.4160  135.6080 C   0  0  0  0  0  2  0  0  0  0  0  0
  188.4010  176.3040  135.4650 C   0  0  0  0  0  2  0  0  0  0  0  0
  188.0650  176.2450  137.9430 C   0  0  0  0  0  2  0  0  0  0  0  0
  189.1250  177.2410  138.0480 N   0  0  0  0  0  0  0  0  0  0  0  0
  193.1360  174.4100  137.2420 N   0  0  0  0  0  0  0  0  0  0  0  0
  192.0900  174.2180  136.3960 C   0  0  0  0  0  3  0  0  0  0  0  0
  191.1990  176.3490  137.0700 C   0  0  0  0  0  0  0  0  0  0  0  0
  193.2350  175.5130  137.9870 N   0  0  0  0  0  0  0  0  0  0  0  0
  191.0980  175.1920  136.3000 C   0  0  0  0  0  3  0  0  0  0  0  0
  192.2940  176.4920  137.9290 C   0  0  0  0  0  3  0  0  0  0  0  0
  189.1130  178.8940  140.0000 N   0  0  0  0  0  0  0  0  0  0  0  0
  189.1190  178.1470  139.1170 C   0  0  0  0  0  0  0  0  0  0  0  0
  1 10  1  0  0  0  0
  1 21  1  1  0  0  0
  1  8  1  0  0  0  0
  2 23  1  1  0  0  0
  4  3  1  0  0  0  0
  5 25  1  6  0  0  0
  5 11  1  0  0  0  0
  5 12  1  0  0  0  0
  6  3  1  6  0  0  0
  6  2  1  0  0  0  0
  7 13  1  0  0  0  0
  7  4  1  1  0  0  0
  8  9  2  0  0  0  0
  8  7  1  0  0  0  0
  9 13  1  0  0  0  0
 10 14  1  0  0  0  0
 11  6  1  0  0  0  0
 11 12  1  0  0  0  0
 12  2  1  0  0  0  0
 13  5  1  0  0  0  0
 14  9  1  0  0  0  0
 14 15  1  0  0  0  0
 17 20  1  0  0  0  0
 18 16  1  0  0  0  0
 19 18  1  0  0  0  0
 20 18  2  0  0  0  0
 21 17  2  0  0  0  0
 21 22  1  0  0  0  0
 22 19  2  0  0  0  0
 23 24  2  0  0  0  0
 25 27  1  0  0  0  0
 26 34  1  0  0  0  0
 26 31  1  0  0  0  0
 27 30  1  0  0  0  0
 28 26  1  0  0  0  0
 29 28  1  0  0  0  0
 29 27  1  0  0  0  0
 30 31  1  0  0  0  0
 31 39  1  0  0  0  0
 32 35  1  0  0  0  0
 33 32  2  0  0  0  0
 34 37  1  0  0  0  0
 36 33  1  0  0  0  0
 36 34  2  0  0  0  0
 37 35  2  0  0  0  0
 39 38  3  0  0  0  0
M  END
>  <MODEL>
9

>  <REMARK>
 VINA RESULT:      -3.7      2.770      5.101
  Name = 
  6 active torsions:
  status: ('A' for Active; 'I' for Inactive)
    1  A    between atoms: C_4  and  C_6
    2  A    between atoms: C_5  and  C_35
    3  A    between atoms: C_7  and  C_11
    4  A    between atoms: C_14  and  O_36
    5  A    between atoms: C_19  and  O_36
    6  A    between atoms: C_26  and  N_34
                            x       y       z     vdW  Elec       q    Type
                         _______ _______ _______ _____ _____    ______ ____

>  <TORSDO>
F 6

$$$$
