=
 OpenBabel11042412393D

 43 47  0  0  1  0  0  0  0  0999 V2000
  189.4920  177.1080  147.1540 C   0  0  0  0  0  2  0  0  0  0  0  0
  188.5990  177.7920  144.3020 C   0  0  0  0  0  2  0  0  0  0  0  0
  189.7320  176.7870  144.5600 C   0  0  2  0  0  3  0  0  0  0  0  0
  186.4480  178.3370  145.5540 N   0  0  0  0  0  0  0  0  0  0  0  0
  185.0410  178.6930  147.3370 O   0  0  0  0  0  0  0  0  0  0  0  0
  190.3650  177.0190  145.9220 C   0  0  0  0  0  0  0  0  0  0  0  0
  188.1360  177.6290  146.7890 C   0  0  0  0  0  0  0  0  0  0  0  0
  187.1530  177.9100  147.6130 O   0  0  0  0  0  0  0  0  0  0  0  0
  191.5770  177.0870  146.0380 O   0  0  0  0  0  0  0  0  0  0  0  0
  187.7130  177.8810  145.5040 C   0  0  0  0  0  0  0  0  0  0  0  0
  186.1510  178.3270  146.8690 C   0  0  0  0  0  0  0  0  0  0  0  0
  183.2160  179.4820  144.1880 C   0  0  0  0  0  2  0  0  0  0  0  0
  184.1400  178.4240  144.7550 C   0  0  0  0  0  2  0  0  0  0  0  0
  182.2730  178.8800  143.1460 C   0  0  2  0  0  3  0  0  0  0  0  0
  182.8560  178.8180  141.7250 C   0  0  2  0  0  3  0  0  0  0  0  0
  181.8970  178.3170  140.8470 O   0  0  0  0  0  1  0  0  0  0  0  0
  185.5890  178.7700  144.4510 C   0  0  2  0  0  3  0  0  0  0  0  0
  186.0680  178.1550  143.1380 C   0  0  0  0  0  2  0  0  0  0  0  0
  184.0860  177.9280  141.6560 C   0  0  0  0  0  2  0  0  0  0  0  0
  185.3420  178.7300  141.9370 C   0  0  0  0  0  2  0  0  0  0  0  0
  180.1740  178.7010  144.0470 C   0  0  0  0  0  1  0  0  0  0  0  0
  180.9880  179.4650  143.1930 O   0  0  0  0  0  0  0  0  0  0  0  0
  190.6790  176.8930  143.5370 O   0  0  0  0  0  0  0  0  0  0  0  0
  190.0790  177.6840  142.5490 C   0  0  0  0  0  2  0  0  0  0  0  0
  190.4350  177.1800  141.1520 C   0  0  0  0  0  2  0  0  0  0  0  0
  189.3170  177.2330  140.3160 O   0  0  0  0  0  0  0  0  0  0  0  0
  189.7840  177.8000  139.1280 C   0  0  0  0  0  2  0  0  0  0  0  0
  189.7400  176.7920  137.9790 C   0  0  2  0  0  3  0  0  0  0  0  0
  191.0070  176.6610  137.3990 O   0  0  0  0  0  0  0  0  0  0  0  0
  190.9190  175.5170  136.6040 C   0  0  0  0  0  2  0  0  0  0  0  0
  192.7120  173.6860  136.5040 C   0  0  2  0  0  3  0  0  0  0  0  0
  193.0090  174.3180  135.1470 C   0  0  0  0  0  1  0  0  0  0  0  0
  191.5910  174.3510  137.3090 C   0  0  1  0  0  3  0  0  0  0  0  0
  193.0360  174.6820  137.5990 C   0  0  0  0  0  2  0  0  0  0  0  0
  188.7410  177.2260  136.9180 C   0  0  0  0  0  2  0  0  0  0  0  0
  187.4090  176.7150  137.2350 N   0  0  0  0  0  0  0  0  0  0  0  0
  185.2780  179.3590  138.4540 O   0  0  0  0  0  1  0  0  0  0  0  0
  185.0420  177.3130  137.2820 C   0  0  0  0  0  2  0  0  0  0  0  0
  186.4600  177.8150  137.0900 C   0  0  1  0  0  3  0  0  0  0  0  0
  185.7360  178.0430  138.4080 C   0  0  1  0  0  3  0  0  0  0  0  0
  187.0670  175.6320  136.3000 C   0  0  0  0  0  2  0  0  0  0  0  0
  187.2740  174.2300  136.8860 C   0  0  0  0  0  2  0  0  0  0  0  0
  185.9420  173.6660  137.3240 C   0  0  0  0  0  1  0  0  0  0  0  0
  2  3  1  0  0  0  0
  2 10  1  0  0  0  0
  3 23  1  6  0  0  0
  3  6  1  0  0  0  0
  4 11  1  0  0  0  0
  6  9  2  0  0  0  0
  6  1  1  0  0  0  0
  7  1  1  0  0  0  0
  7  8  1  0  0  0  0
 10  4  1  0  0  0  0
 10  7  2  0  0  0  0
 11  5  2  0  0  0  0
 11  8  1  0  0  0  0
 12 13  1  0  0  0  0
 14 22  1  6  0  0  0
 14 12  1  0  0  0  0
 15 16  1  6  0  0  0
 15 14  1  0  0  0  0
 17 18  1  6  0  0  0
 17 13  1  0  0  0  0
 17  4  1  0  0  0  0
 19 15  1  0  0  0  0
 19 20  1  0  0  0  0
 20 18  1  0  0  0  0
 22 21  1  0  0  0  0
 24 23  1  0  0  0  0
 25 24  1  0  0  0  0
 26 25  1  0  0  0  0
 27 26  1  0  0  0  0
 28 35  1  6  0  0  0
 28 27  1  0  0  0  0
 29 28  1  0  0  0  0
 30 29  1  0  0  0  0
 31 32  1  6  0  0  0
 31 33  1  0  0  0  0
 31 34  1  0  0  0  0
 33 30  1  6  0  0  0
 33 34  1  0  0  0  0
 35 36  1  0  0  0  0
 38 40  1  0  0  0  0
 39 36  1  1  0  0  0
 39 38  1  0  0  0  0
 39 40  1  0  0  0  0
 40 37  1  6  0  0  0
 41 42  1  0  0  0  0
 41 36  1  0  0  0  0
 42 43  1  0  0  0  0
M  END
>  <MODEL>
1

>  <REMARK>
 VINA RESULT:      -7.8      0.000      0.000
  Name = 
  16 active torsions:
  status: ('A' for Active; 'I' for Inactive)
    1  A    between atoms: C_7  and  O_39
    2  A    between atoms: N_9  and  C_20
    3  A    between atoms: C_11  and  C_24
    4  A    between atoms: C_11  and  O_30
    5  A    between atoms: C_13  and  O_42
    6  A    between atoms: C_15  and  C_17
    7  A    between atoms: C_15  and  N_33
    8  A    between atoms: C_16  and  C_18
    9  A    between atoms: C_16  and  O_21
   10  A    between atoms: O_21  and  C_22
   11  A    between atoms: C_22  and  C_26
   12  A    between atoms: C_22  and  C_43
   13  A    between atoms: C_24  and  O_39
   14  A    between atoms: C_26  and  N_33
   15  A    between atoms: O_30  and  C_43
   16  A    between atoms: C_32  and  N_33
                            x       y       z     vdW  Elec       q    Type
                         _______ _______ _______ _____ _____    ______ ____

>  <TORSDO>
F 16

$$$$
=
 OpenBabel11042412393D

 43 47  0  0  1  0  0  0  0  0999 V2000
  189.5380  177.1270  147.2110 C   0  0  0  0  0  2  0  0  0  0  0  0
  188.6900  177.7940  144.3420 C   0  0  0  0  0  2  0  0  0  0  0  0
  189.8230  176.7950  144.6240 C   0  0  2  0  0  3  0  0  0  0  0  0
  186.5150  178.3350  145.5540 N   0  0  0  0  0  0  0  0  0  0  0  0
  185.0770  178.6930  147.3130 O   0  0  0  0  0  0  0  0  0  0  0  0
  190.4320  177.0360  145.9940 C   0  0  0  0  0  0  0  0  0  0  0  0
  188.1860  177.6400  146.8210 C   0  0  0  0  0  0  0  0  0  0  0  0
  187.1880  177.9210  147.6270 O   0  0  0  0  0  0  0  0  0  0  0  0
  191.6410  177.1110  146.1300 O   0  0  0  0  0  0  0  0  0  0  0  0
  187.7840  177.8850  145.5280 C   0  0  0  0  0  0  0  0  0  0  0  0
  186.1970  178.3300  146.8640 C   0  0  0  0  0  0  0  0  0  0  0  0
  183.3120  179.4940  144.1350 C   0  0  0  0  0  2  0  0  0  0  0  0
  184.2170  178.4350  144.7310 C   0  0  0  0  0  2  0  0  0  0  0  0
  182.3720  178.8850  143.0950 C   0  0  2  0  0  3  0  0  0  0  0  0
  182.9690  178.7910  141.6810 C   0  0  2  0  0  3  0  0  0  0  0  0
  182.0140  178.2860  140.8020 O   0  0  0  0  0  1  0  0  0  0  0  0
  185.6730  178.7580  144.4350 C   0  0  2  0  0  3  0  0  0  0  0  0
  186.1580  178.1140  143.1380 C   0  0  0  0  0  2  0  0  0  0  0  0
  184.1890  177.8860  141.6400 C   0  0  0  0  0  2  0  0  0  0  0  0
  185.4510  178.6770  141.9200 C   0  0  0  0  0  2  0  0  0  0  0  0
  180.2470  178.7150  143.9310 C   0  0  0  0  0  1  0  0  0  0  0  0
  181.0940  179.4850  143.1180 O   0  0  0  0  0  0  0  0  0  0  0  0
  190.7860  176.9000  143.6160 O   0  0  0  0  0  0  0  0  0  0  0  0
  190.0870  176.7560  142.4100 C   0  0  0  0  0  2  0  0  0  0  0  0
  190.9880  177.0610  141.2150 C   0  0  0  0  0  2  0  0  0  0  0  0
  190.5590  176.3510  140.0900 O   0  0  0  0  0  0  0  0  0  0  0  0
  189.9900  177.3140  139.2530 C   0  0  0  0  0  2  0  0  0  0  0  0
  190.1040  176.9080  137.7840 C   0  0  2  0  0  3  0  0  0  0  0  0
  189.0800  177.5000  137.0360 O   0  0  0  0  0  0  0  0  0  0  0  0
  187.9580  177.4490  137.8650 C   0  0  0  0  0  2  0  0  0  0  0  0
  185.6660  177.3430  136.7200 C   0  0  2  0  0  3  0  0  0  0  0  0
  185.8240  175.8450  136.9690 C   0  0  0  0  0  1  0  0  0  0  0  0
  186.8150  178.2190  137.2270 C   0  0  1  0  0  3  0  0  0  0  0  0
  185.5580  178.0600  138.0490 C   0  0  0  0  0  2  0  0  0  0  0  0
  190.0300  175.3960  137.6350 C   0  0  0  0  0  2  0  0  0  0  0  0
  191.1040  174.9190  136.7660 N   0  0  0  0  0  0  0  0  0  0  0  0
  194.3710  175.5970  138.1380 O   0  0  0  0  0  1  0  0  0  0  0  0
  193.3420  173.9430  136.7870 C   0  0  0  0  0  2  0  0  0  0  0  0
  192.2660  174.6350  137.6020 C   0  0  1  0  0  3  0  0  0  0  0  0
  193.4660  175.4180  137.0920 C   0  0  1  0  0  3  0  0  0  0  0  0
  190.6670  173.6920  136.0810 C   0  0  0  0  0  2  0  0  0  0  0  0
  189.1430  173.5490  135.9930 C   0  0  0  0  0  2  0  0  0  0  0  0
  188.7950  172.1900  135.4310 C   0  0  0  0  0  1  0  0  0  0  0  0
  2  3  1  0  0  0  0
  2 10  1  0  0  0  0
  3 23  1  6  0  0  0
  3  6  1  0  0  0  0
  4 11  1  0  0  0  0
  6  9  2  0  0  0  0
  6  1  1  0  0  0  0
  7  1  1  0  0  0  0
  7  8  1  0  0  0  0
 10  4  1  0  0  0  0
 10  7  2  0  0  0  0
 11  5  2  0  0  0  0
 11  8  1  0  0  0  0
 12 13  1  0  0  0  0
 14 22  1  6  0  0  0
 14 12  1  0  0  0  0
 15 16  1  6  0  0  0
 15 14  1  0  0  0  0
 17 18  1  6  0  0  0
 17 13  1  0  0  0  0
 17  4  1  0  0  0  0
 19 15  1  0  0  0  0
 19 20  1  0  0  0  0
 20 18  1  0  0  0  0
 22 21  1  0  0  0  0
 24 23  1  0  0  0  0
 25 24  1  0  0  0  0
 26 25  1  0  0  0  0
 27 26  1  0  0  0  0
 28 35  1  1  0  0  0
 28 27  1  0  0  0  0
 29 28  1  0  0  0  0
 29 30  1  0  0  0  0
 31 32  1  1  0  0  0
 31 33  1  0  0  0  0
 31 34  1  0  0  0  0
 33 30  1  1  0  0  0
 33 34  1  0  0  0  0
 36 35  1  0  0  0  0
 38 40  1  0  0  0  0
 38 39  1  0  0  0  0
 39 36  1  6  0  0  0
 40 39  1  0  0  0  0
 40 37  1  1  0  0  0
 41 36  1  0  0  0  0
 42 41  1  0  0  0  0
 43 42  1  0  0  0  0
M  END
>  <MODEL>
2

>  <REMARK>
 VINA RESULT:      -7.7      1.222      3.725
  Name = 
  16 active torsions:
  status: ('A' for Active; 'I' for Inactive)
    1  A    between atoms: C_7  and  O_39
    2  A    between atoms: N_9  and  C_20
    3  A    between atoms: C_11  and  C_24
    4  A    between atoms: C_11  and  O_30
    5  A    between atoms: C_13  and  O_42
    6  A    between atoms: C_15  and  C_17
    7  A    between atoms: C_15  and  N_33
    8  A    between atoms: C_16  and  C_18
    9  A    between atoms: C_16  and  O_21
   10  A    between atoms: O_21  and  C_22
   11  A    between atoms: C_22  and  C_26
   12  A    between atoms: C_22  and  C_43
   13  A    between atoms: C_24  and  O_39
   14  A    between atoms: C_26  and  N_33
   15  A    between atoms: O_30  and  C_43
   16  A    between atoms: C_32  and  N_33
                            x       y       z     vdW  Elec       q    Type
                         _______ _______ _______ _____ _____    ______ ____

>  <TORSDO>
F 16

$$$$
=
 OpenBabel11042412393D

 43 47  0  0  1  0  0  0  0  0999 V2000
  189.5720  177.1190  147.2900 C   0  0  0  0  0  2  0  0  0  0  0  0
  188.7680  177.7900  144.4090 C   0  0  0  0  0  2  0  0  0  0  0  0
  189.8950  176.7890  144.7070 C   0  0  2  0  0  3  0  0  0  0  0  0
  186.5760  178.3330  145.5900 N   0  0  0  0  0  0  0  0  0  0  0  0
  185.1130  178.6920  147.3270 O   0  0  0  0  0  0  0  0  0  0  0  0
  190.4840  177.0280  146.0860 C   0  0  0  0  0  0  0  0  0  0  0  0
  188.2260  177.6340  146.8810 C   0  0  0  0  0  0  0  0  0  0  0  0
  187.2180  177.9160  147.6720 O   0  0  0  0  0  0  0  0  0  0  0  0
  191.6910  177.1000  146.2410 O   0  0  0  0  0  0  0  0  0  0  0  0
  187.8440  177.8810  145.5820 C   0  0  0  0  0  0  0  0  0  0  0  0
  186.2380  178.3270  146.8950 C   0  0  0  0  0  0  0  0  0  0  0  0
  183.3970  179.5020  144.1250 C   0  0  0  0  0  2  0  0  0  0  0  0
  184.2910  178.4400  144.7330 C   0  0  0  0  0  2  0  0  0  0  0  0
  182.4710  178.8950  143.0710 C   0  0  2  0  0  3  0  0  0  0  0  0
  183.0880  178.7990  141.6660 C   0  0  2  0  0  3  0  0  0  0  0  0
  182.1430  178.2980  140.7730 O   0  0  0  0  0  1  0  0  0  0  0  0
  185.7520  178.7590  144.4590 C   0  0  2  0  0  3  0  0  0  0  0  0
  186.2530  178.1130  143.1690 C   0  0  0  0  0  2  0  0  0  0  0  0
  184.3050  177.8910  141.6420 C   0  0  0  0  0  2  0  0  0  0  0  0
  185.5660  178.6790  141.9400 C   0  0  0  0  0  2  0  0  0  0  0  0
  180.3270  178.7190  143.8570 C   0  0  0  0  0  1  0  0  0  0  0  0
  181.1940  179.5000  143.0760 O   0  0  0  0  0  0  0  0  0  0  0  0
  190.8730  176.8930  143.7140 O   0  0  0  0  0  0  0  0  0  0  0  0
  190.2630  177.5780  142.6540 C   0  0  0  0  0  2  0  0  0  0  0  0
  190.5570  176.8970  141.3190 C   0  0  0  0  0  2  0  0  0  0  0  0
  189.5400  177.1700  140.4010 O   0  0  0  0  0  0  0  0  0  0  0  0
  189.9520  176.5530  139.2170 C   0  0  0  0  0  2  0  0  0  0  0  0
  190.1280  177.5740  138.0930 C   0  0  2  0  0  3  0  0  0  0  0  0
  189.0160  178.4210  138.0290 O   0  0  0  0  0  0  0  0  0  0  0  0
  188.3560  178.0550  136.8550 C   0  0  0  0  0  2  0  0  0  0  0  0
  185.8710  177.4190  136.8730 C   0  0  2  0  0  3  0  0  0  0  0  0
  186.4310  175.9990  136.8390 C   0  0  0  0  0  1  0  0  0  0  0  0
  186.9170  178.5380  136.9050 C   0  0  1  0  0  3  0  0  0  0  0  0
  186.2570  178.0750  138.1830 C   0  0  0  0  0  2  0  0  0  0  0  0
  190.3100  176.8760  136.7540 C   0  0  0  0  0  2  0  0  0  0  0  0
  190.7550  175.4990  136.9550 N   0  0  0  0  0  0  0  0  0  0  0  0
  188.2540  172.9410  136.4890 O   0  0  0  0  0  1  0  0  0  0  0  0
  190.5450  173.2700  135.9800 C   0  0  0  0  0  2  0  0  0  0  0  0
  189.8940  174.6280  136.1610 C   0  0  1  0  0  3  0  0  0  0  0  0
  189.4480  173.4430  137.0050 C   0  0  1  0  0  3  0  0  0  0  0  0
  192.1500  175.3680  136.5060 C   0  0  0  0  0  2  0  0  0  0  0  0
  193.1680  175.3960  137.6530 C   0  0  0  0  0  2  0  0  0  0  0  0
  194.5280  174.9950  137.1310 C   0  0  0  0  0  1  0  0  0  0  0  0
  2  3  1  0  0  0  0
  2 10  1  0  0  0  0
  3 23  1  6  0  0  0
  3  6  1  0  0  0  0
  4 11  1  0  0  0  0
  6  9  2  0  0  0  0
  6  1  1  0  0  0  0
  7  1  1  0  0  0  0
  7  8  1  0  0  0  0
 10  4  1  0  0  0  0
 10  7  2  0  0  0  0
 11  5  2  0  0  0  0
 11  8  1  0  0  0  0
 12 13  1  0  0  0  0
 14 22  1  6  0  0  0
 14 12  1  0  0  0  0
 15 16  1  6  0  0  0
 15 14  1  0  0  0  0
 17 18  1  6  0  0  0
 17 13  1  0  0  0  0
 17  4  1  0  0  0  0
 19 15  1  0  0  0  0
 19 20  1  0  0  0  0
 20 18  1  0  0  0  0
 22 21  1  0  0  0  0
 24 23  1  0  0  0  0
 25 24  1  0  0  0  0
 26 25  1  0  0  0  0
 27 26  1  0  0  0  0
 28 35  1  6  0  0  0
 28 27  1  0  0  0  0
 29 28  1  0  0  0  0
 30 29  1  0  0  0  0
 31 32  1  1  0  0  0
 31 33  1  0  0  0  0
 31 34  1  0  0  0  0
 33 30  1  1  0  0  0
 33 34  1  0  0  0  0
 35 36  1  0  0  0  0
 38 39  1  0  0  0  0
 38 40  1  0  0  0  0
 39 36  1  1  0  0  0
 39 40  1  0  0  0  0
 40 37  1  6  0  0  0
 41 36  1  0  0  0  0
 41 42  1  0  0  0  0
 43 42  1  0  0  0  0
M  END
>  <MODEL>
3

>  <REMARK>
 VINA RESULT:      -7.7      1.243      3.565
  Name = 
  16 active torsions:
  status: ('A' for Active; 'I' for Inactive)
    1  A    between atoms: C_7  and  O_39
    2  A    between atoms: N_9  and  C_20
    3  A    between atoms: C_11  and  C_24
    4  A    between atoms: C_11  and  O_30
    5  A    between atoms: C_13  and  O_42
    6  A    between atoms: C_15  and  C_17
    7  A    between atoms: C_15  and  N_33
    8  A    between atoms: C_16  and  C_18
    9  A    between atoms: C_16  and  O_21
   10  A    between atoms: O_21  and  C_22
   11  A    between atoms: C_22  and  C_26
   12  A    between atoms: C_22  and  C_43
   13  A    between atoms: C_24  and  O_39
   14  A    between atoms: C_26  and  N_33
   15  A    between atoms: O_30  and  C_43
   16  A    between atoms: C_32  and  N_33
                            x       y       z     vdW  Elec       q    Type
                         _______ _______ _______ _____ _____    ______ ____

>  <TORSDO>
F 16

$$$$
=
 OpenBabel11042412393D

 43 47  0  0  1  0  0  0  0  0999 V2000
  182.0580  177.7510  137.8560 C   0  0  0  0  0  2  0  0  0  0  0  0
  185.0760  178.2300  138.0980 C   0  0  0  0  0  2  0  0  0  0  0  0
  184.1280  178.5230  139.2720 C   0  0  2  0  0  3  0  0  0  0  0  0
  185.0840  176.4450  136.2810 N   0  0  0  0  0  0  0  0  0  0  0  0
  184.2530  174.9970  134.6990 O   0  0  0  0  0  0  0  0  0  0  0  0
  182.7090  178.7560  138.7800 C   0  0  0  0  0  0  0  0  0  0  0  0
  183.0990  177.0540  137.0340 C   0  0  0  0  0  0  0  0  0  0  0  0
  182.8900  176.1830  136.0750 O   0  0  0  0  0  0  0  0  0  0  0  0
  182.0720  179.7220  139.1620 O   0  0  0  0  0  0  0  0  0  0  0  0
  184.4560  177.2250  137.1820 C   0  0  0  0  0  0  0  0  0  0  0  0
  184.0770  175.8230  135.6350 C   0  0  0  0  0  0  0  0  0  0  0  0
  188.3280  174.7410  136.7190 C   0  0  0  0  0  2  0  0  0  0  0  0
  187.1860  175.6100  137.2050 C   0  0  0  0  0  2  0  0  0  0  0  0
  189.6570  175.2070  137.3140 C   0  0  2  0  0  3  0  0  0  0  0  0
  190.3480  176.3270  136.5190 C   0  0  2  0  0  3  0  0  0  0  0  0
  191.5750  176.6290  137.1060 O   0  0  0  0  0  1  0  0  0  0  0  0
  186.5190  176.3110  136.0320 C   0  0  2  0  0  3  0  0  0  0  0  0
  187.1350  177.6800  135.7480 C   0  0  0  0  0  2  0  0  0  0  0  0
  189.5080  177.5930  136.4770 C   0  0  0  0  0  2  0  0  0  0  0  0
  188.5750  177.5750  135.2830 C   0  0  0  0  0  2  0  0  0  0  0  0
  190.6020  173.2970  136.4740 C   0  0  0  0  0  1  0  0  0  0  0  0
  190.5160  174.1240  137.6060 O   0  0  0  0  0  0  0  0  0  0  0  0
  184.6060  179.6290  139.9810 O   0  0  0  0  0  0  0  0  0  0  0  0
  185.2850  179.1030  141.0870 C   0  0  0  0  0  2  0  0  0  0  0  0
  184.3280  178.3560  142.0140 C   0  0  0  0  0  2  0  0  0  0  0  0
  184.9480  178.0860  143.2370 O   0  0  0  0  0  0  0  0  0  0  0  0
  186.3100  178.2830  142.9990 C   0  0  0  0  0  2  0  0  0  0  0  0
  187.1630  177.6080  144.0730 C   0  0  2  0  0  3  0  0  0  0  0  0
  186.9400  178.2070  145.3180 O   0  0  0  0  0  0  0  0  0  0  0  0
  187.1710  177.1930  146.2490 C   0  0  0  0  0  2  0  0  0  0  0  0
  188.5600  177.5870  148.3680 C   0  0  2  0  0  3  0  0  0  0  0  0
  189.6410  176.8710  147.5620 C   0  0  0  0  0  1  0  0  0  0  0  0
  187.2230  177.7830  147.6470 C   0  0  1  0  0  3  0  0  0  0  0  0
  188.2320  178.9060  147.7000 C   0  0  0  0  0  2  0  0  0  0  0  0
  188.6410  177.7000  143.7260 C   0  0  0  0  0  2  0  0  0  0  0  0
  188.9240  176.9460  142.5070 N   0  0  0  0  0  0  0  0  0  0  0  0
  188.5760  178.7590  139.4070 O   0  0  0  0  0  1  0  0  0  0  0  0
  190.0530  177.1650  140.3530 C   0  0  0  0  0  2  0  0  0  0  0  0
  189.3470  177.8930  141.4810 C   0  0  1  0  0  3  0  0  0  0  0  0
  188.6160  177.5990  140.1800 C   0  0  1  0  0  3  0  0  0  0  0  0
  190.0010  175.9790  142.7710 C   0  0  0  0  0  2  0  0  0  0  0  0
  190.7330  176.2240  144.0960 C   0  0  0  0  0  2  0  0  0  0  0  0
  191.9340  175.3110  144.1860 C   0  0  0  0  0  1  0  0  0  0  0  0
  1  6  1  0  0  0  0
  2  3  1  0  0  0  0
  3 23  1  6  0  0  0
  4 10  1  0  0  0  0
  5 11  2  0  0  0  0
  6  9  2  0  0  0  0
  6  3  1  0  0  0  0
  7 10  2  0  0  0  0
  7  1  1  0  0  0  0
  8  7  1  0  0  0  0
 10  2  1  0  0  0  0
 11  8  1  0  0  0  0
 11  4  1  0  0  0  0
 12 13  1  0  0  0  0
 12 14  1  0  0  0  0
 14 22  1  6  0  0  0
 15 16  1  1  0  0  0
 15 14  1  0  0  0  0
 17 18  1  1  0  0  0
 17  4  1  0  0  0  0
 17 13  1  0  0  0  0
 19 15  1  0  0  0  0
 20 18  1  0  0  0  0
 20 19  1  0  0  0  0
 21 22  1  0  0  0  0
 23 24  1  0  0  0  0
 24 25  1  0  0  0  0
 25 26  1  0  0  0  0
 27 26  1  0  0  0  0
 28 27  1  6  0  0  0
 28 29  1  0  0  0  0
 29 30  1  0  0  0  0
 31 32  1  6  0  0  0
 33 30  1  6  0  0  0
 33 34  1  0  0  0  0
 33 31  1  0  0  0  0
 34 31  1  0  0  0  0
 35 28  1  0  0  0  0
 36 41  1  0  0  0  0
 36 35  1  0  0  0  0
 38 39  1  0  0  0  0
 39 36  1  1  0  0  0
 40 37  1  6  0  0  0
 40 38  1  0  0  0  0
 40 39  1  0  0  0  0
 41 42  1  0  0  0  0
 42 43  1  0  0  0  0
M  END
>  <MODEL>
4

>  <REMARK>
 VINA RESULT:      -7.5      2.222      9.340
  Name = 
  16 active torsions:
  status: ('A' for Active; 'I' for Inactive)
    1  A    between atoms: C_7  and  O_39
    2  A    between atoms: N_9  and  C_20
    3  A    between atoms: C_11  and  C_24
    4  A    between atoms: C_11  and  O_30
    5  A    between atoms: C_13  and  O_42
    6  A    between atoms: C_15  and  C_17
    7  A    between atoms: C_15  and  N_33
    8  A    between atoms: C_16  and  C_18
    9  A    between atoms: C_16  and  O_21
   10  A    between atoms: O_21  and  C_22
   11  A    between atoms: C_22  and  C_26
   12  A    between atoms: C_22  and  C_43
   13  A    between atoms: C_24  and  O_39
   14  A    between atoms: C_26  and  N_33
   15  A    between atoms: O_30  and  C_43
   16  A    between atoms: C_32  and  N_33
                            x       y       z     vdW  Elec       q    Type
                         _______ _______ _______ _____ _____    ______ ____

>  <TORSDO>
F 16

$$$$
=
 OpenBabel11042412393D

 43 47  0  0  1  0  0  0  0  0999 V2000
  189.6150  177.1110  147.0700 C   0  0  0  0  0  2  0  0  0  0  0  0
  188.6790  177.7830  144.2290 C   0  0  0  0  0  2  0  0  0  0  0  0
  189.8200  176.7830  144.4750 C   0  0  2  0  0  3  0  0  0  0  0  0
  186.5430  178.3230  145.5090 N   0  0  0  0  0  0  0  0  0  0  0  0
  185.1600  178.6800  147.3110 O   0  0  0  0  0  0  0  0  0  0  0  0
  190.4710  177.0220  145.8260 C   0  0  0  0  0  0  0  0  0  0  0  0
  188.2510  177.6250  146.7230 C   0  0  0  0  0  0  0  0  0  0  0  0
  187.2790  177.9060  147.5600 O   0  0  0  0  0  0  0  0  0  0  0  0
  191.6840  177.0950  145.9250 O   0  0  0  0  0  0  0  0  0  0  0  0
  187.8100  177.8720  145.4430 C   0  0  0  0  0  0  0  0  0  0  0  0
  186.2650  178.3160  146.8280 C   0  0  0  0  0  0  0  0  0  0  0  0
  183.2920  179.4640  144.1870 C   0  0  0  0  0  2  0  0  0  0  0  0
  184.2230  178.4080  144.7480 C   0  0  0  0  0  2  0  0  0  0  0  0
  182.3310  178.8550  143.1660 C   0  0  2  0  0  3  0  0  0  0  0  0
  182.8900  178.7790  141.7360 C   0  0  2  0  0  3  0  0  0  0  0  0
  181.9160  178.2730  140.8790 O   0  0  0  0  0  1  0  0  0  0  0  0
  185.6680  178.7480  144.4170 C   0  0  2  0  0  3  0  0  0  0  0  0
  186.1230  178.1210  143.1010 C   0  0  0  0  0  2  0  0  0  0  0  0
  184.1170  177.8870  141.6540 C   0  0  0  0  0  2  0  0  0  0  0  0
  185.3780  178.6880  141.9070 C   0  0  0  0  0  2  0  0  0  0  0  0
  180.1440  178.5010  143.7480 C   0  0  0  0  0  1  0  0  0  0  0  0
  181.0470  179.4430  143.2290 O   0  0  0  0  0  0  0  0  0  0  0  0
  190.7510  176.8890  143.4380 O   0  0  0  0  0  0  0  0  0  0  0  0
  190.0560  176.5480  142.2700 C   0  0  0  0  0  2  0  0  0  0  0  0
  190.7790  177.0710  141.0300 C   0  0  0  0  0  2  0  0  0  0  0  0
  190.5630  176.2160  139.9460 O   0  0  0  0  0  0  0  0  0  0  0  0
  191.3720  176.7210  138.9250 C   0  0  0  0  0  2  0  0  0  0  0  0
  190.9260  176.2030  137.5580 C   0  0  2  0  0  3  0  0  0  0  0  0
  192.0090  176.1740  136.6730 O   0  0  0  0  0  0  0  0  0  0  0  0
  192.8350  175.1570  137.1540 C   0  0  0  0  0  2  0  0  0  0  0  0
  195.2930  174.4530  137.3520 C   0  0  2  0  0  3  0  0  0  0  0  0
  194.6970  173.2860  138.1350 C   0  0  0  0  0  1  0  0  0  0  0  0
  194.2800  175.4590  136.7970 C   0  0  1  0  0  3  0  0  0  0  0  0
  194.8360  174.3710  135.9100 C   0  0  0  0  0  2  0  0  0  0  0  0
  189.8250  177.0810  136.9810 C   0  0  0  0  0  2  0  0  0  0  0  0
  188.6280  176.2860  136.7160 N   0  0  0  0  0  0  0  0  0  0  0  0
  189.4860  172.9670  135.5910 O   0  0  0  0  0  1  0  0  0  0  0  0
  187.7310  174.0160  136.7900 C   0  0  0  0  0  2  0  0  0  0  0  0
  188.9730  174.8800  136.9020 C   0  0  1  0  0  3  0  0  0  0  0  0
  188.6860  174.1090  135.6230 C   0  0  1  0  0  3  0  0  0  0  0  0
  187.5680  176.6710  137.6610 C   0  0  0  0  0  2  0  0  0  0  0  0
  186.4860  177.5600  137.0370 C   0  0  0  0  0  2  0  0  0  0  0  0
  185.6960  178.2380  138.1320 C   0  0  0  0  0  1  0  0  0  0  0  0
  2  3  1  0  0  0  0
  2 10  1  0  0  0  0
  3 23  1  6  0  0  0
  3  6  1  0  0  0  0
  4 11  1  0  0  0  0
  6  9  2  0  0  0  0
  6  1  1  0  0  0  0
  7  1  1  0  0  0  0
  7  8  1  0  0  0  0
 10  4  1  0  0  0  0
 10  7  2  0  0  0  0
 11  5  2  0  0  0  0
 11  8  1  0  0  0  0
 12 13  1  0  0  0  0
 14 22  1  6  0  0  0
 14 12  1  0  0  0  0
 15 16  1  6  0  0  0
 15 14  1  0  0  0  0
 17 18  1  6  0  0  0
 17 13  1  0  0  0  0
 17  4  1  0  0  0  0
 19 15  1  0  0  0  0
 19 20  1  0  0  0  0
 20 18  1  0  0  0  0
 22 21  1  0  0  0  0
 24 23  1  0  0  0  0
 25 24  1  0  0  0  0
 26 25  1  0  0  0  0
 27 26  1  0  0  0  0
 28 35  1  6  0  0  0
 28 27  1  0  0  0  0
 29 30  1  0  0  0  0
 29 28  1  0  0  0  0
 31 32  1  1  0  0  0
 33 30  1  1  0  0  0
 33 31  1  0  0  0  0
 34 33  1  0  0  0  0
 34 31  1  0  0  0  0
 36 35  1  0  0  0  0
 36 41  1  0  0  0  0
 38 39  1  0  0  0  0
 39 36  1  6  0  0  0
 40 37  1  1  0  0  0
 40 38  1  0  0  0  0
 40 39  1  0  0  0  0
 42 41  1  0  0  0  0
 42 43  1  0  0  0  0
M  END
>  <MODEL>
5

>  <REMARK>
 VINA RESULT:      -7.4      1.187      2.280
  Name = 
  16 active torsions:
  status: ('A' for Active; 'I' for Inactive)
    1  A    between atoms: C_7  and  O_39
    2  A    between atoms: N_9  and  C_20
    3  A    between atoms: C_11  and  C_24
    4  A    between atoms: C_11  and  O_30
    5  A    between atoms: C_13  and  O_42
    6  A    between atoms: C_15  and  C_17
    7  A    between atoms: C_15  and  N_33
    8  A    between atoms: C_16  and  C_18
    9  A    between atoms: C_16  and  O_21
   10  A    between atoms: O_21  and  C_22
   11  A    between atoms: C_22  and  C_26
   12  A    between atoms: C_22  and  C_43
   13  A    between atoms: C_24  and  O_39
   14  A    between atoms: C_26  and  N_33
   15  A    between atoms: O_30  and  C_43
   16  A    between atoms: C_32  and  N_33
                            x       y       z     vdW  Elec       q    Type
                         _______ _______ _______ _____ _____    ______ ____

>  <TORSDO>
F 16

$$$$
=
 OpenBabel11042412393D

 43 47  0  0  1  0  0  0  0  0999 V2000
  188.6980  175.6570  136.7720 C   0  0  0  0  0  2  0  0  0  0  0  0
  186.6900  177.3950  138.3020 C   0  0  0  0  0  2  0  0  0  0  0  0
  188.1010  177.9100  137.9770 C   0  0  2  0  0  3  0  0  0  0  0  0
  185.0640  175.8890  137.0460 N   0  0  0  0  0  0  0  0  0  0  0  0
  184.3390  174.1460  135.7320 O   0  0  0  0  0  0  0  0  0  0  0  0
  189.0610  176.7550  137.7460 C   0  0  0  0  0  0  0  0  0  0  0  0
  187.2100  175.5030  136.6970 C   0  0  0  0  0  0  0  0  0  0  0  0
  186.5450  174.5970  136.0180 O   0  0  0  0  0  0  0  0  0  0  0  0
  190.1450  176.7290  138.3040 O   0  0  0  0  0  0  0  0  0  0  0  0
  186.3050  176.3190  137.3370 C   0  0  0  0  0  0  0  0  0  0  0  0
  185.2680  174.8360  136.2290 C   0  0  0  0  0  0  0  0  0  0  0  0
  182.6000  178.6060  137.4560 C   0  0  0  0  0  2  0  0  0  0  0  0
  183.9000  177.9040  137.7910 C   0  0  0  0  0  2  0  0  0  0  0  0
  182.0030  179.2690  138.6980 C   0  0  2  0  0  3  0  0  0  0  0  0
  181.1270  178.3390  139.5530 C   0  0  2  0  0  3  0  0  0  0  0  0
  180.5830  179.0560  140.6160 O   0  0  0  0  0  1  0  0  0  0  0  0
  183.7820  176.4130  137.5180 C   0  0  2  0  0  3  0  0  0  0  0  0
  183.3130  175.6340  138.7450 C   0  0  0  0  0  2  0  0  0  0  0  0
  181.9190  177.1700  140.1130 C   0  0  0  0  0  2  0  0  0  0  0  0
  181.8980  176.0000  139.1500 C   0  0  0  0  0  2  0  0  0  0  0  0
  182.2860  181.5410  138.6310 C   0  0  0  0  0  1  0  0  0  0  0  0
  181.3760  180.4980  138.3930 O   0  0  0  0  0  0  0  0  0  0  0  0
  188.5390  178.7320  139.0190 O   0  0  0  0  0  0  0  0  0  0  0  0
  187.9740  178.1960  140.1840 C   0  0  0  0  0  2  0  0  0  0  0  0
  189.0520  177.8600  141.2120 C   0  0  0  0  0  2  0  0  0  0  0  0
  188.6390  178.2380  142.4920 O   0  0  0  0  0  0  0  0  0  0  0  0
  187.4730  177.5040  142.7230 C   0  0  0  0  0  2  0  0  0  0  0  0
  187.3500  177.1080  144.1940 C   0  0  2  0  0  3  0  0  0  0  0  0
  186.0570  177.3690  144.6610 O   0  0  0  0  0  0  0  0  0  0  0  0
  185.5200  178.2700  143.7390 C   0  0  0  0  0  2  0  0  0  0  0  0
  183.4270  179.6690  144.2240 C   0  0  2  0  0  3  0  0  0  0  0  0
  182.7600  178.6370  143.3190 C   0  0  0  0  0  1  0  0  0  0  0  0
  184.9230  179.4580  144.4730 C   0  0  1  0  0  3  0  0  0  0  0  0
  183.9090  178.9860  145.4870 C   0  0  0  0  0  2  0  0  0  0  0  0
  188.3570  177.8690  145.0440 C   0  0  0  0  0  2  0  0  0  0  0  0
  189.3810  176.9600  145.5530 N   0  0  0  0  0  0  0  0  0  0  0  0
  192.0640  176.8900  143.1420 O   0  0  0  0  0  1  0  0  0  0  0  0
  191.7620  176.4270  145.4460 C   0  0  0  0  0  2  0  0  0  0  0  0
  190.6660  177.3760  145.0000 C   0  0  1  0  0  3  0  0  0  0  0  0
  191.1870  176.3050  144.0550 C   0  0  1  0  0  3  0  0  0  0  0  0
  189.4180  177.0410  147.0220 C   0  0  0  0  0  2  0  0  0  0  0  0
  188.6810  178.2600  147.5860 C   0  0  0  0  0  2  0  0  0  0  0  0
  187.9480  177.8680  148.8480 C   0  0  0  0  0  1  0  0  0  0  0  0
  1  6  1  0  0  0  0
  3  2  1  0  0  0  0
  3 23  1  1  0  0  0
  4 10  1  0  0  0  0
  5 11  2  0  0  0  0
  6  3  1  0  0  0  0
  6  9  2  0  0  0  0
  7  1  1  0  0  0  0
  7 10  2  0  0  0  0
  8 11  1  0  0  0  0
  8  7  1  0  0  0  0
 10  2  1  0  0  0  0
 11  4  1  0  0  0  0
 12 13  1  0  0  0  0
 12 14  1  0  0  0  0
 14 22  1  6  0  0  0
 14 15  1  0  0  0  0
 15 19  1  0  0  0  0
 15 16  1  1  0  0  0
 17  4  1  1  0  0  0
 17 13  1  0  0  0  0
 17 18  1  0  0  0  0
 18 20  1  0  0  0  0
 20 19  1  0  0  0  0
 22 21  1  0  0  0  0
 23 24  1  0  0  0  0
 24 25  1  0  0  0  0
 25 26  1  0  0  0  0
 26 27  1  0  0  0  0
 28 27  1  6  0  0  0
 28 29  1  0  0  0  0
 28 35  1  0  0  0  0
 30 29  1  0  0  0  0
 31 32  1  6  0  0  0
 31 33  1  0  0  0  0
 31 34  1  0  0  0  0
 33 30  1  6  0  0  0
 33 34  1  0  0  0  0
 35 36  1  0  0  0  0
 36 41  1  0  0  0  0
 39 38  1  0  0  0  0
 39 36  1  1  0  0  0
 40 37  1  6  0  0  0
 40 39  1  0  0  0  0
 40 38  1  0  0  0  0
 41 42  1  0  0  0  0
 42 43  1  0  0  0  0
M  END
>  <MODEL>
6

>  <REMARK>
 VINA RESULT:      -7.2      2.317      8.553
  Name = 
  16 active torsions:
  status: ('A' for Active; 'I' for Inactive)
    1  A    between atoms: C_7  and  O_39
    2  A    between atoms: N_9  and  C_20
    3  A    between atoms: C_11  and  C_24
    4  A    between atoms: C_11  and  O_30
    5  A    between atoms: C_13  and  O_42
    6  A    between atoms: C_15  and  C_17
    7  A    between atoms: C_15  and  N_33
    8  A    between atoms: C_16  and  C_18
    9  A    between atoms: C_16  and  O_21
   10  A    between atoms: O_21  and  C_22
   11  A    between atoms: C_22  and  C_26
   12  A    between atoms: C_22  and  C_43
   13  A    between atoms: C_24  and  O_39
   14  A    between atoms: C_26  and  N_33
   15  A    between atoms: O_30  and  C_43
   16  A    between atoms: C_32  and  N_33
                            x       y       z     vdW  Elec       q    Type
                         _______ _______ _______ _____ _____    ______ ____

>  <TORSDO>
F 16

$$$$
=
 OpenBabel11042412393D

 43 47  0  0  1  0  0  0  0  0999 V2000
  183.0480  178.9730  145.1310 C   0  0  0  0  0  2  0  0  0  0  0  0
  184.3380  178.9840  142.3510 C   0  0  0  0  0  2  0  0  0  0  0  0
  185.0800  178.4120  143.5690 C   0  0  2  0  0  3  0  0  0  0  0  0
  181.8830  179.0020  141.6690 N   0  0  0  0  0  0  0  0  0  0  0  0
  179.5990  179.1370  141.8990 O   0  0  0  0  0  0  0  0  0  0  0  0
  184.5360  178.9980  144.8610 C   0  0  0  0  0  0  0  0  0  0  0  0
  182.2870  179.0050  143.8410 C   0  0  0  0  0  0  0  0  0  0  0  0
  180.9840  179.0760  143.6960 O   0  0  0  0  0  0  0  0  0  0  0  0
  185.2920  179.4460  145.7060 O   0  0  0  0  0  0  0  0  0  0  0  0
  182.8630  178.9510  142.5920 C   0  0  0  0  0  0  0  0  0  0  0  0
  180.7530  179.0700  142.4010 C   0  0  0  0  0  0  0  0  0  0  0  0
  181.6870  180.6740  138.3850 C   0  0  0  0  0  2  0  0  0  0  0  0
  181.0670  180.0510  139.6190 C   0  0  0  0  0  2  0  0  0  0  0  0
  180.8270  180.4070  137.1500 C   0  0  2  0  0  3  0  0  0  0  0  0
  181.1160  179.0670  136.4550 C   0  0  2  0  0  3  0  0  0  0  0  0
  180.3290  178.9540  135.3100 O   0  0  0  0  0  1  0  0  0  0  0  0
  182.0020  179.0080  140.2110 C   0  0  2  0  0  3  0  0  0  0  0  0
  181.7380  177.6100  139.6550 C   0  0  0  0  0  2  0  0  0  0  0  0
  180.8220  177.8840  137.3610 C   0  0  0  0  0  2  0  0  0  0  0  0
  182.0480  177.5150  138.1730 C   0  0  0  0  0  2  0  0  0  0  0  0
  180.7670  182.6930  137.0060 C   0  0  0  0  0  1  0  0  0  0  0  0
  180.8230  181.5040  136.2590 O   0  0  0  0  0  0  0  0  0  0  0  0
  186.4470  178.6700  143.4340 O   0  0  0  0  0  0  0  0  0  0  0  0
  186.8340  178.0360  142.2460 C   0  0  0  0  0  2  0  0  0  0  0  0
  188.2900  177.5780  142.3180 C   0  0  0  0  0  2  0  0  0  0  0  0
  188.3640  176.2760  142.8210 O   0  0  0  0  0  0  0  0  0  0  0  0
  189.7280  176.0460  143.0170 C   0  0  0  0  0  2  0  0  0  0  0  0
  190.5530  177.2880  142.6810 C   0  0  2  0  0  3  0  0  0  0  0  0
  191.6080  176.9540  141.8250 O   0  0  0  0  0  0  0  0  0  0  0  0
  191.2500  177.4950  140.5890 C   0  0  0  0  0  2  0  0  0  0  0  0
  189.6010  176.9180  138.7110 C   0  0  2  0  0  3  0  0  0  0  0  0
  189.3620  178.4260  138.7180 C   0  0  0  0  0  1  0  0  0  0  0  0
  190.6450  176.4130  139.7120 C   0  0  1  0  0  3  0  0  0  0  0  0
  191.0230  176.6420  138.2680 C   0  0  0  0  0  2  0  0  0  0  0  0
  191.1110  177.9250  143.9450 C   0  0  0  0  0  2  0  0  0  0  0  0
  190.5770  177.2550  145.1290 N   0  0  0  0  0  0  0  0  0  0  0  0
  192.9340  175.2480  146.9810 O   0  0  0  0  0  1  0  0  0  0  0  0
  191.1450  176.7310  147.4460 C   0  0  0  0  0  2  0  0  0  0  0  0
  191.6800  177.0430  146.0600 C   0  0  1  0  0  3  0  0  0  0  0  0
  191.6520  175.6100  146.5690 C   0  0  1  0  0  3  0  0  0  0  0  0
  189.5520  178.1070  145.7520 C   0  0  0  0  0  2  0  0  0  0  0  0
  188.2540  177.3620  146.0810 C   0  0  0  0  0  2  0  0  0  0  0  0
  187.6860  177.8870  147.3790 C   0  0  0  0  0  1  0  0  0  0  0  0
  2 10  1  0  0  0  0
  2  3  1  0  0  0  0
  3 23  1  6  0  0  0
  3  6  1  0  0  0  0
  4 11  1  0  0  0  0
  4 10  1  0  0  0  0
  5 11  2  0  0  0  0
  6  1  1  0  0  0  0
  6  9  2  0  0  0  0
  7  1  1  0  0  0  0
  8  7  1  0  0  0  0
 10  7  2  0  0  0  0
 11  8  1  0  0  0  0
 12 13  1  0  0  0  0
 14 22  1  6  0  0  0
 14 12  1  0  0  0  0
 15 16  1  6  0  0  0
 15 14  1  0  0  0  0
 15 19  1  0  0  0  0
 17 13  1  6  0  0  0
 17  4  1  0  0  0  0
 18 17  1  0  0  0  0
 19 20  1  0  0  0  0
 20 18  1  0  0  0  0
 22 21  1  0  0  0  0
 24 25  1  0  0  0  0
 24 23  1  0  0  0  0
 25 26  1  0  0  0  0
 26 27  1  0  0  0  0
 28 27  1  1  0  0  0
 28 35  1  0  0  0  0
 29 28  1  0  0  0  0
 30 29  1  0  0  0  0
 31 32  1  1  0  0  0
 31 33  1  0  0  0  0
 33 30  1  1  0  0  0
 34 31  1  0  0  0  0
 34 33  1  0  0  0  0
 35 36  1  0  0  0  0
 36 41  1  0  0  0  0
 39 36  1  6  0  0  0
 39 40  1  0  0  0  0
 39 38  1  0  0  0  0
 40 37  1  1  0  0  0
 40 38  1  0  0  0  0
 41 42  1  0  0  0  0
 42 43  1  0  0  0  0
M  END
>  <MODEL>
7

>  <REMARK>
 VINA RESULT:      -7.0      2.843      6.893
  Name = 
  16 active torsions:
  status: ('A' for Active; 'I' for Inactive)
    1  A    between atoms: C_7  and  O_39
    2  A    between atoms: N_9  and  C_20
    3  A    between atoms: C_11  and  C_24
    4  A    between atoms: C_11  and  O_30
    5  A    between atoms: C_13  and  O_42
    6  A    between atoms: C_15  and  C_17
    7  A    between atoms: C_15  and  N_33
    8  A    between atoms: C_16  and  C_18
    9  A    between atoms: C_16  and  O_21
   10  A    between atoms: O_21  and  C_22
   11  A    between atoms: C_22  and  C_26
   12  A    between atoms: C_22  and  C_43
   13  A    between atoms: C_24  and  O_39
   14  A    between atoms: C_26  and  N_33
   15  A    between atoms: O_30  and  C_43
   16  A    between atoms: C_32  and  N_33
                            x       y       z     vdW  Elec       q    Type
                         _______ _______ _______ _____ _____    ______ ____

>  <TORSDO>
F 16

$$$$
=
 OpenBabel11042412393D

 43 47  0  0  1  0  0  0  0  0999 V2000
  182.9680  179.0240  144.7680 C   0  0  0  0  0  2  0  0  0  0  0  0
  183.8210  178.5100  141.8700 C   0  0  0  0  0  2  0  0  0  0  0  0
  184.7010  178.0640  143.0480 C   0  0  2  0  0  3  0  0  0  0  0  0
  181.2980  178.6390  141.5430 N   0  0  0  0  0  0  0  0  0  0  0  0
  179.0880  179.0030  142.0640 O   0  0  0  0  0  0  0  0  0  0  0  0
  184.3960  178.8800  144.2930 C   0  0  0  0  0  0  0  0  0  0  0  0
  182.0240  178.9290  143.6080 C   0  0  0  0  0  0  0  0  0  0  0  0
  180.7220  179.0910  143.6370 O   0  0  0  0  0  0  0  0  0  0  0  0
  185.2980  179.3820  144.9410 O   0  0  0  0  0  0  0  0  0  0  0  0
  182.4000  178.6410  142.3160 C   0  0  0  0  0  0  0  0  0  0  0  0
  180.2970  178.9120  142.4040 C   0  0  0  0  0  0  0  0  0  0  0  0
  180.5940  176.5150  138.6080 C   0  0  0  0  0  2  0  0  0  0  0  0
  181.4470  176.9520  139.7810 C   0  0  0  0  0  2  0  0  0  0  0  0
  181.4670  176.0620  137.4380 C   0  0  2  0  0  3  0  0  0  0  0  0
  181.9230  177.2010  136.5100 C   0  0  2  0  0  3  0  0  0  0  0  0
  182.6530  176.6750  135.4470 O   0  0  0  0  0  1  0  0  0  0  0  0
  181.1950  178.4180  140.1010 C   0  0  2  0  0  3  0  0  0  0  0  0
  182.1510  179.3460  139.3550 C   0  0  0  0  0  2  0  0  0  0  0  0
  182.7910  178.2130  137.2390 C   0  0  0  0  0  2  0  0  0  0  0  0
  181.9370  179.3040  137.8540 C   0  0  0  0  0  2  0  0  0  0  0  0
  181.3710  173.7780  137.3060 C   0  0  0  0  0  1  0  0  0  0  0  0
  180.8980  174.9730  136.7410 O   0  0  0  0  0  0  0  0  0  0  0  0
  186.0460  178.1800  142.6840 O   0  0  0  0  0  0  0  0  0  0  0  0
  186.0590  178.9980  141.5460 C   0  0  0  0  0  2  0  0  0  0  0  0
  186.9560  178.4100  140.4590 C   0  0  0  0  0  2  0  0  0  0  0  0
  188.2490  178.9310  140.5610 O   0  0  0  0  0  0  0  0  0  0  0  0
  188.9320  178.0350  141.3860 C   0  0  0  0  0  2  0  0  0  0  0  0
  189.6410  176.9580  140.5650 C   0  0  2  0  0  3  0  0  0  0  0  0
  190.5210  176.2310  141.3750 O   0  0  0  0  0  0  0  0  0  0  0  0
  190.2410  176.6550  142.6760 C   0  0  0  0  0  2  0  0  0  0  0  0
  191.3560  177.5200  144.8180 C   0  0  2  0  0  3  0  0  0  0  0  0
  189.9090  177.6670  145.2830 C   0  0  0  0  0  1  0  0  0  0  0  0
  191.5390  176.9480  143.4090 C   0  0  1  0  0  3  0  0  0  0  0  0
  191.6670  176.0510  144.6170 C   0  0  0  0  0  2  0  0  0  0  0  0
  190.4140  177.5790  139.4110 C   0  0  0  0  0  2  0  0  0  0  0  0
  189.9060  177.0820  138.1350 N   0  0  0  0  0  0  0  0  0  0  0  0
  187.3880  179.3250  136.8510 O   0  0  0  0  0  1  0  0  0  0  0  0
  188.9650  177.7780  135.9910 C   0  0  0  0  0  2  0  0  0  0  0  0
  189.4310  178.2270  137.3640 C   0  0  1  0  0  3  0  0  0  0  0  0
  187.9470  178.0660  137.0710 C   0  0  1  0  0  3  0  0  0  0  0  0
  190.9920  176.4040  137.4090 C   0  0  0  0  0  2  0  0  0  0  0  0
  190.8370  174.8790  137.3600 C   0  0  0  0  0  2  0  0  0  0  0  0
  192.1990  174.2380  137.2350 C   0  0  0  0  0  1  0  0  0  0  0  0
  2 10  1  0  0  0  0
  2  3  1  0  0  0  0
  3 23  1  6  0  0  0
  3  6  1  0  0  0  0
  4 10  1  0  0  0  0
  4 11  1  0  0  0  0
  5 11  2  0  0  0  0
  6  1  1  0  0  0  0
  6  9  2  0  0  0  0
  7  8  1  0  0  0  0
  7  1  1  0  0  0  0
 10  7  2  0  0  0  0
 11  8  1  0  0  0  0
 12 13  1  0  0  0  0
 13 17  1  0  0  0  0
 14 22  1  6  0  0  0
 14 12  1  0  0  0  0
 15 16  1  6  0  0  0
 15 19  1  0  0  0  0
 15 14  1  0  0  0  0
 17 18  1  6  0  0  0
 17  4  1  0  0  0  0
 19 20  1  0  0  0  0
 20 18  1  0  0  0  0
 22 21  1  0  0  0  0
 24 23  1  0  0  0  0
 25 26  1  0  0  0  0
 25 24  1  0  0  0  0
 26 27  1  0  0  0  0
 28 35  1  6  0  0  0
 28 29  1  0  0  0  0
 28 27  1  0  0  0  0
 29 30  1  0  0  0  0
 31 32  1  6  0  0  0
 33 30  1  6  0  0  0
 33 34  1  0  0  0  0
 33 31  1  0  0  0  0
 34 31  1  0  0  0  0
 36 35  1  0  0  0  0
 38 40  1  0  0  0  0
 38 39  1  0  0  0  0
 39 36  1  1  0  0  0
 40 37  1  6  0  0  0
 40 39  1  0  0  0  0
 41 36  1  0  0  0  0
 42 41  1  0  0  0  0
 43 42  1  0  0  0  0
M  END
>  <MODEL>
8

>  <REMARK>
 VINA RESULT:      -7.0      2.591      5.914
  Name = 
  16 active torsions:
  status: ('A' for Active; 'I' for Inactive)
    1  A    between atoms: C_7  and  O_39
    2  A    between atoms: N_9  and  C_20
    3  A    between atoms: C_11  and  C_24
    4  A    between atoms: C_11  and  O_30
    5  A    between atoms: C_13  and  O_42
    6  A    between atoms: C_15  and  C_17
    7  A    between atoms: C_15  and  N_33
    8  A    between atoms: C_16  and  C_18
    9  A    between atoms: C_16  and  O_21
   10  A    between atoms: O_21  and  C_22
   11  A    between atoms: C_22  and  C_26
   12  A    between atoms: C_22  and  C_43
   13  A    between atoms: C_24  and  O_39
   14  A    between atoms: C_26  and  N_33
   15  A    between atoms: O_30  and  C_43
   16  A    between atoms: C_32  and  N_33
                            x       y       z     vdW  Elec       q    Type
                         _______ _______ _______ _____ _____    ______ ____

>  <TORSDO>
F 16

$$$$
=
 OpenBabel11042412393D

 43 47  0  0  1  0  0  0  0  0999 V2000
  189.7330  174.0420  136.8420 C   0  0  0  0  0  2  0  0  0  0  0  0
  187.8650  176.3110  137.7120 C   0  0  0  0  0  2  0  0  0  0  0  0
  189.3430  176.5790  137.3890 C   0  0  2  0  0  3  0  0  0  0  0  0
  186.1430  174.7050  136.7420 N   0  0  0  0  0  0  0  0  0  0  0  0
  185.2890  172.7640  135.8500 O   0  0  0  0  0  0  0  0  0  0  0  0
  190.1700  175.3130  137.5370 C   0  0  0  0  0  0  0  0  0  0  0  0
  188.2440  174.0260  136.6820 C   0  0  0  0  0  0  0  0  0  0  0  0
  187.5140  173.0480  136.1990 O   0  0  0  0  0  0  0  0  0  0  0  0
  191.2100  175.3220  138.1730 O   0  0  0  0  0  0  0  0  0  0  0  0
  187.4090  175.0670  137.0190 C   0  0  0  0  0  0  0  0  0  0  0  0
  186.2650  173.4620  136.2340 C   0  0  0  0  0  0  0  0  0  0  0  0
  182.9710  175.3370  138.5190 C   0  0  0  0  0  2  0  0  0  0  0  0
  183.8450  174.5560  137.5610 C   0  0  0  0  0  2  0  0  0  0  0  0
  181.5160  175.3430  138.0480 C   0  0  2  0  0  3  0  0  0  0  0  0
  181.1810  176.4570  137.0440 C   0  0  2  0  0  3  0  0  0  0  0  0
  179.8230  176.4130  136.7330 O   0  0  0  0  0  1  0  0  0  0  0  0
  184.9090  175.4600  136.9580 C   0  0  2  0  0  3  0  0  0  0  0  0
  184.4490  176.1030  135.6510 C   0  0  0  0  0  2  0  0  0  0  0  0
  181.9760  176.3190  135.7570 C   0  0  0  0  0  2  0  0  0  0  0  0
  183.2930  177.0630  135.8600 C   0  0  0  0  0  2  0  0  0  0  0  0
  180.7470  176.4400  139.9060 C   0  0  0  0  0  1  0  0  0  0  0  0
  180.6090  175.2780  139.1290 O   0  0  0  0  0  0  0  0  0  0  0  0
  189.8180  177.5940  138.2260 O   0  0  0  0  0  0  0  0  0  0  0  0
  189.1680  177.4060  139.4530 C   0  0  0  0  0  2  0  0  0  0  0  0
  190.0920  177.7430  140.6200 C   0  0  0  0  0  2  0  0  0  0  0  0
  189.7120  177.0340  141.7620 O   0  0  0  0  0  0  0  0  0  0  0  0
  188.9920  177.9510  142.5310 C   0  0  0  0  0  2  0  0  0  0  0  0
  187.5780  177.4450  142.8170 C   0  0  2  0  0  3  0  0  0  0  0  0
  186.6750  178.5140  142.8340 O   0  0  0  0  0  0  0  0  0  0  0  0
  186.2230  178.6200  141.5170 C   0  0  0  0  0  2  0  0  0  0  0  0
  184.1000  178.9930  140.1280 C   0  0  2  0  0  3  0  0  0  0  0  0
  184.9930  178.5130  138.9870 C   0  0  0  0  0  1  0  0  0  0  0  0
  184.7600  179.0300  141.5100 C   0  0  1  0  0  3  0  0  0  0  0  0
  183.8950  177.8580  141.1100 C   0  0  0  0  0  2  0  0  0  0  0  0
  187.5250  176.7160  144.1510 C   0  0  0  0  0  2  0  0  0  0  0  0
  187.6150  177.6700  145.2540 N   0  0  0  0  0  0  0  0  0  0  0  0
  184.3990  178.8930  146.3400 O   0  0  0  0  0  1  0  0  0  0  0  0
  186.4970  178.3710  147.3100 C   0  0  0  0  0  2  0  0  0  0  0  0
  186.3660  177.6040  146.0070 C   0  0  1  0  0  3  0  0  0  0  0  0
  185.7750  178.9990  146.1410 C   0  0  1  0  0  3  0  0  0  0  0  0
  188.7440  177.3040  146.1240 C   0  0  0  0  0  2  0  0  0  0  0  0
  190.0840  177.8930  145.6670 C   0  0  0  0  0  2  0  0  0  0  0  0
  191.1220  176.7970  145.6060 C   0  0  0  0  0  1  0  0  0  0  0  0
  1  6  1  0  0  0  0
  3  6  1  0  0  0  0
  3  2  1  0  0  0  0
  3 23  1  1  0  0  0
  4 17  1  0  0  0  0
  4 10  1  0  0  0  0
  5 11  2  0  0  0  0
  6  9  2  0  0  0  0
  7  1  1  0  0  0  0
  7 10  2  0  0  0  0
  8 11  1  0  0  0  0
  8  7  1  0  0  0  0
 10  2  1  0  0  0  0
 11  4  1  0  0  0  0
 13 12  1  0  0  0  0
 14 12  1  0  0  0  0
 14 22  1  1  0  0  0
 15 16  1  6  0  0  0
 15 14  1  0  0  0  0
 17 18  1  6  0  0  0
 17 13  1  0  0  0  0
 18 20  1  0  0  0  0
 19 20  1  0  0  0  0
 19 15  1  0  0  0  0
 22 21  1  0  0  0  0
 23 24  1  0  0  0  0
 24 25  1  0  0  0  0
 25 26  1  0  0  0  0
 26 27  1  0  0  0  0
 28 27  1  1  0  0  0
 28 29  1  0  0  0  0
 28 35  1  0  0  0  0
 30 29  1  0  0  0  0
 31 32  1  6  0  0  0
 31 34  1  0  0  0  0
 31 33  1  0  0  0  0
 33 30  1  6  0  0  0
 34 33  1  0  0  0  0
 35 36  1  0  0  0  0
 36 41  1  0  0  0  0
 39 36  1  6  0  0  0
 39 40  1  0  0  0  0
 39 38  1  0  0  0  0
 40 37  1  1  0  0  0
 40 38  1  0  0  0  0
 42 41  1  0  0  0  0
 43 42  1  0  0  0  0
M  END
>  <MODEL>
9

>  <REMARK>
 VINA RESULT:      -7.0      2.483      8.222
  Name = 
  16 active torsions:
  status: ('A' for Active; 'I' for Inactive)
    1  A    between atoms: C_7  and  O_39
    2  A    between atoms: N_9  and  C_20
    3  A    between atoms: C_11  and  C_24
    4  A    between atoms: C_11  and  O_30
    5  A    between atoms: C_13  and  O_42
    6  A    between atoms: C_15  and  C_17
    7  A    between atoms: C_15  and  N_33
    8  A    between atoms: C_16  and  C_18
    9  A    between atoms: C_16  and  O_21
   10  A    between atoms: O_21  and  C_22
   11  A    between atoms: C_22  and  C_26
   12  A    between atoms: C_22  and  C_43
   13  A    between atoms: C_24  and  O_39
   14  A    between atoms: C_26  and  N_33
   15  A    between atoms: O_30  and  C_43
   16  A    between atoms: C_32  and  N_33
                            x       y       z     vdW  Elec       q    Type
                         _______ _______ _______ _____ _____    ______ ____

>  <TORSDO>
F 16

$$$$
