=
 OpenBabel11032419343D

 31 34  0  0  0  0  0  0  0  0999 V2000
  188.4970  177.4770  147.5100 C   0  0  0  0  0  0  0  0  0  0  0  0
  187.3910  178.0190  143.9440 C   0  0  0  0  0  0  0  0  0  0  0  0
  186.0130  178.4370  144.0040 C   0  0  0  0  0  0  0  0  0  0  0  0
  183.9170  178.1760  145.4130 C   0  0  0  0  0  2  0  0  0  0  0  0
  188.1920  177.7180  145.0950 C   0  0  0  0  0  0  0  0  0  0  0  0
  189.8200  177.0860  147.3210 C   0  0  0  0  0  3  0  0  0  0  0  0
  185.3370  178.7180  145.3290 C   0  0  0  0  0  2  0  0  0  0  0  0
  189.3480  177.4730  142.5210 C   0  0  0  0  0  0  0  0  0  0  0  0
  187.9620  177.5530  148.8250 N   0  0  0  0  0  1  0  0  0  0  0  0
  185.9500  178.5370  141.5640 C   0  0  0  0  0  3  0  0  0  0  0  0
  182.9170  179.2140  144.8940 C   0  0  0  0  0  2  0  0  0  0  0  0
  190.0970  177.1930  143.6600 C   0  0  0  0  0  3  0  0  0  0  0  0
  188.0050  177.8800  142.6570 C   0  0  0  0  0  0  0  0  0  0  0  0
  187.6980  177.7880  146.4100 C   0  0  0  0  0  3  0  0  0  0  0  0
  183.4350  179.9600  143.7470 N   0  0  0  0  0  2  0  0  0  0  0  0
  189.5420  177.3090  144.9260 C   0  0  0  0  0  0  0  0  0  0  0  0
  190.3410  177.0040  146.0330 C   0  0  0  0  0  3  0  0  0  0  0  0
  187.2740  178.1450  141.4990 C   0  0  0  0  0  3  0  0  0  0  0  0
  185.3100  178.6960  142.7900 C   0  0  0  0  0  0  0  0  0  0  0  0
  183.8380  179.0110  142.7150 C   0  0  0  0  0  2  0  0  0  0  0  0
  192.6970  174.9950  137.3160 C   0  0  0  0  0  0  0  0  0  0  0  0
  190.6760  176.8520  138.5760 O   0  0  0  0  0  1  0  0  0  0  0  0
  193.9300  177.4590  139.6910 O   0  0  0  0  0  0  0  0  0  0  0  0
  192.2000  177.3830  141.7350 O   0  0  0  0  0  0  0  0  0  0  0  0
  193.1450  174.4490  136.0070 C   0  0  0  0  0  1  0  0  0  0  0  0
  191.3050  177.2180  140.8600 C   0  0  0  0  0  0  0  0  0  0  0  0
  191.7240  174.4570  137.9070 O   0  0  0  0  0  0  0  0  0  0  0  0
  193.0360  176.8280  139.0690 C   0  0  0  0  0  0  0  0  0  0  0  0
  191.6650  176.9090  139.5010 N   0  0  0  0  0  0  0  0  0  0  0  0
  189.9180  177.3170  141.2080 N   0  0  0  0  0  2  0  0  0  0  0  0
  193.4160  176.0850  137.9020 N   0  0  0  0  0  2  0  0  0  0  0  0
  1  9  1  0  0  0  0
  2  3  1  0  0  0  0
  2  5  1  0  0  0  0
  3  7  1  0  0  0  0
  5 14  1  0  0  0  0
  6  1  1  0  0  0  0
  7  4  1  0  0  0  0
  8 13  1  0  0  0  0
  8 12  2  0  0  0  0
 10 19  1  0  0  0  0
 11  4  1  0  0  0  0
 12 16  1  0  0  0  0
 13  2  2  0  0  0  0
 14  1  2  0  0  0  0
 15 11  1  0  0  0  0
 16  5  2  0  0  0  0
 16 17  1  0  0  0  0
 17  6  2  0  0  0  0
 18 10  2  0  0  0  0
 18 13  1  0  0  0  0
 19  3  2  0  0  0  0
 20 19  1  0  0  0  0
 20 15  1  0  0  0  0
 21 31  1  0  0  0  0
 21 27  2  0  0  0  0
 22 29  1  0  0  0  0
 25 21  1  0  0  0  0
 26 30  1  0  0  0  0
 26 24  2  0  0  0  0
 28 29  1  0  0  0  0
 28 23  2  0  0  0  0
 29 26  1  0  0  0  0
 30  8  1  0  0  0  0
 31 28  1  0  0  0  0
M  END
>  <MODEL>
1

>  <REMARK>
 VINA RESULT:     -11.5      0.000      0.000
  Name = 
  1 active torsions:
  status: ('A' for Active; 'I' for Inactive)
    1  A    between atoms: C_15  and  N_23
                            x       y       z     vdW  Elec       q    Type
                         _______ _______ _______ _____ _____    ______ ____

>  <TORSDO>
F 1

$$$$
=
 OpenBabel11032419343D

 31 34  0  0  0  0  0  0  0  0999 V2000
  186.5720  178.0300  147.0160 C   0  0  0  0  0  0  0  0  0  0  0  0
  187.3270  178.0180  143.3190 C   0  0  0  0  0  0  0  0  0  0  0  0
  188.6510  177.4660  143.1750 C   0  0  0  0  0  0  0  0  0  0  0  0
  190.8680  177.2760  144.4000 C   0  0  0  0  0  2  0  0  0  0  0  0
  186.6580  178.1870  144.5750 C   0  0  0  0  0  0  0  0  0  0  0  0
  185.2890  178.5710  147.0220 C   0  0  0  0  0  3  0  0  0  0  0  0
  189.3940  176.8950  144.3650 C   0  0  0  0  0  2  0  0  0  0  0  0
  185.3370  178.9870  142.2020 C   0  0  0  0  0  0  0  0  0  0  0  0
  187.1970  177.6730  148.2410 N   0  0  0  0  0  1  0  0  0  0  0  0
  188.5110  177.7900  140.7590 C   0  0  0  0  0  3  0  0  0  0  0  0
  191.7030  176.2540  143.6220 C   0  0  0  0  0  2  0  0  0  0  0  0
  184.7150  179.1340  143.4380 C   0  0  0  0  0  3  0  0  0  0  0  0
  186.6330  178.4370  142.1380 C   0  0  0  0  0  0  0  0  0  0  0  0
  187.2430  177.8410  145.8070 C   0  0  0  0  0  3  0  0  0  0  0  0
  191.0180  175.7740  142.4220 N   0  0  0  0  0  2  0  0  0  0  0  0
  185.3520  178.7460  144.6080 C   0  0  0  0  0  0  0  0  0  0  0  0
  184.6810  178.9270  145.8220 C   0  0  0  0  0  3  0  0  0  0  0  0
  187.2380  178.3110  140.8870 C   0  0  0  0  0  3  0  0  0  0  0  0
  189.2240  177.3580  141.8730 C   0  0  0  0  0  0  0  0  0  0  0  0
  190.6420  176.9220  141.6060 C   0  0  0  0  0  2  0  0  0  0  0  0
  180.6600  180.9250  137.8620 C   0  0  0  0  0  0  0  0  0  0  0  0
  183.5230  180.6300  138.7780 O   0  0  0  0  0  1  0  0  0  0  0  0
  181.9600  177.5500  138.2610 O   0  0  0  0  0  0  0  0  0  0  0  0
  183.2920  177.5860  140.5840 O   0  0  0  0  0  0  0  0  0  0  0  0
  179.8020  181.6340  136.8760 C   0  0  0  0  0  1  0  0  0  0  0  0
  183.6540  178.7510  140.2600 C   0  0  0  0  0  0  0  0  0  0  0  0
  180.9750  181.5050  138.9340 O   0  0  0  0  0  0  0  0  0  0  0  0
  182.0070  178.8050  138.3530 C   0  0  0  0  0  0  0  0  0  0  0  0
  183.0240  179.4290  139.1580 N   0  0  0  0  0  0  0  0  0  0  0  0
  184.6860  179.4240  140.9940 N   0  0  0  0  0  2  0  0  0  0  0  0
  181.0650  179.5780  137.5960 N   0  0  0  0  0  2  0  0  0  0  0  0
  1  6  1  0  0  0  0
  1  9  1  0  0  0  0
  2  5  1  0  0  0  0
  3  2  1  0  0  0  0
  3  7  1  0  0  0  0
  5 16  2  0  0  0  0
  5 14  1  0  0  0  0
  7  4  1  0  0  0  0
  8 12  2  0  0  0  0
 10 18  2  0  0  0  0
 10 19  1  0  0  0  0
 11  4  1  0  0  0  0
 12 16  1  0  0  0  0
 13  8  1  0  0  0  0
 13  2  2  0  0  0  0
 14  1  2  0  0  0  0
 15 11  1  0  0  0  0
 16 17  1  0  0  0  0
 17  6  2  0  0  0  0
 18 13  1  0  0  0  0
 19  3  2  0  0  0  0
 20 19  1  0  0  0  0
 20 15  1  0  0  0  0
 21 27  2  0  0  0  0
 22 29  1  0  0  0  0
 23 28  2  0  0  0  0
 25 21  1  0  0  0  0
 26 24  2  0  0  0  0
 26 30  1  0  0  0  0
 28 29  1  0  0  0  0
 29 26  1  0  0  0  0
 30  8  1  0  0  0  0
 31 21  1  0  0  0  0
 31 28  1  0  0  0  0
M  END
>  <MODEL>
2

>  <REMARK>
 VINA RESULT:     -11.3      4.176      7.613
  Name = 
  1 active torsions:
  status: ('A' for Active; 'I' for Inactive)
    1  A    between atoms: C_15  and  N_23
                            x       y       z     vdW  Elec       q    Type
                         _______ _______ _______ _____ _____    ______ ____

>  <TORSDO>
F 1

$$$$
=
 OpenBabel11032419343D

 31 34  0  0  0  0  0  0  0  0999 V2000
  190.8630  177.3780  142.1120 C   0  0  0  0  0  0  0  0  0  0  0  0
  187.5240  177.9800  143.7640 C   0  0  0  0  0  0  0  0  0  0  0  0
  187.7610  177.9470  145.1860 C   0  0  0  0  0  0  0  0  0  0  0  0
  189.2830  176.8900  146.9220 C   0  0  0  0  0  2  0  0  0  0  0  0
  188.5450  177.8030  142.7730 C   0  0  0  0  0  0  0  0  0  0  0  0
  190.5070  177.4370  140.7670 C   0  0  0  0  0  3  0  0  0  0  0  0
  189.1660  177.8460  145.7430 C   0  0  0  0  0  2  0  0  0  0  0  0
  185.8780  178.2340  141.9270 C   0  0  0  0  0  0  0  0  0  0  0  0
  192.2130  177.1290  142.4780 N   0  0  0  0  0  1  0  0  0  0  0  0
  185.3790  178.3140  145.5800 C   0  0  0  0  0  3  0  0  0  0  0  0
  189.0140  177.6270  148.2370 C   0  0  0  0  0  2  0  0  0  0  0  0
  186.8950  178.0610  140.9930 C   0  0  0  0  0  3  0  0  0  0  0  0
  186.1850  178.1920  143.3030 C   0  0  0  0  0  0  0  0  0  0  0  0
  189.8930  177.5600  143.0980 C   0  0  0  0  0  3  0  0  0  0  0  0
  187.9540  178.6280  148.1060 N   0  0  0  0  0  2  0  0  0  0  0  0
  188.2050  177.8500  141.3950 C   0  0  0  0  0  0  0  0  0  0  0  0
  189.1820  177.6720  140.4100 C   0  0  0  0  0  3  0  0  0  0  0  0
  185.1450  178.3570  144.2180 C   0  0  0  0  0  3  0  0  0  0  0  0
  186.6640  178.1220  146.0800 C   0  0  0  0  0  0  0  0  0  0  0  0
  186.7610  177.9790  147.5770 C   0  0  0  0  0  2  0  0  0  0  0  0
  180.3000  178.1300  138.2750 C   0  0  0  0  0  0  0  0  0  0  0  0
  181.8080  178.4360  140.8740 O   0  0  0  0  0  1  0  0  0  0  0  0
  182.6450  180.8990  138.5440 O   0  0  0  0  0  0  0  0  0  0  0  0
  184.8330  179.8520  139.6800 O   0  0  0  0  0  0  0  0  0  0  0  0
  178.9360  177.9300  137.7170 C   0  0  0  0  0  1  0  0  0  0  0  0
  184.0370  179.1620  140.3760 C   0  0  0  0  0  0  0  0  0  0  0  0
  180.9570  177.1320  138.6710 O   0  0  0  0  0  0  0  0  0  0  0  0
  182.0830  179.8430  138.9360 C   0  0  0  0  0  0  0  0  0  0  0  0
  182.6410  179.0970  140.0340 N   0  0  0  0  0  0  0  0  0  0  0  0
  184.5130  178.4180  141.5050 N   0  0  0  0  0  2  0  0  0  0  0  0
  180.8590  179.4480  138.3010 N   0  0  0  0  0  2  0  0  0  0  0  0
  1  9  1  0  0  0  0
  1 14  1  0  0  0  0
  2  3  1  0  0  0  0
  3  7  1  0  0  0  0
  3 19  2  0  0  0  0
  4 11  1  0  0  0  0
  5 14  2  0  0  0  0
  5  2  1  0  0  0  0
  6  1  2  0  0  0  0
  7  4  1  0  0  0  0
  8 13  1  0  0  0  0
 10 19  1  0  0  0  0
 12 16  1  0  0  0  0
 12  8  2  0  0  0  0
 13  2  2  0  0  0  0
 13 18  1  0  0  0  0
 15 11  1  0  0  0  0
 16  5  1  0  0  0  0
 17  6  1  0  0  0  0
 17 16  2  0  0  0  0
 18 10  2  0  0  0  0
 19 20  1  0  0  0  0
 20 15  1  0  0  0  0
 21 31  1  0  0  0  0
 21 27  2  0  0  0  0
 23 28  2  0  0  0  0
 24 26  2  0  0  0  0
 25 21  1  0  0  0  0
 26 30  1  0  0  0  0
 28 29  1  0  0  0  0
 29 26  1  0  0  0  0
 29 22  1  0  0  0  0
 30  8  1  0  0  0  0
 31 28  1  0  0  0  0
M  END
>  <MODEL>
3

>  <REMARK>
 VINA RESULT:     -10.7      4.013      7.469
  Name = 
  1 active torsions:
  status: ('A' for Active; 'I' for Inactive)
    1  A    between atoms: C_15  and  N_23
                            x       y       z     vdW  Elec       q    Type
                         _______ _______ _______ _____ _____    ______ ____

>  <TORSDO>
F 1

$$$$
=
 OpenBabel11032419343D

 31 34  0  0  0  0  0  0  0  0999 V2000
  191.6170  177.4060  140.9760 C   0  0  0  0  0  0  0  0  0  0  0  0
  188.6630  177.7080  143.3040 C   0  0  0  0  0  0  0  0  0  0  0  0
  189.1680  177.4790  144.6350 C   0  0  0  0  0  0  0  0  0  0  0  0
  190.9850  176.2170  145.8810 C   0  0  0  0  0  2  0  0  0  0  0  0
  189.4740  177.6900  142.1210 C   0  0  0  0  0  0  0  0  0  0  0  0
  191.0110  177.6470  139.7460 C   0  0  0  0  0  3  0  0  0  0  0  0
  190.6520  177.3270  144.8930 C   0  0  0  0  0  2  0  0  0  0  0  0
  186.6970  178.1860  141.8700 C   0  0  0  0  0  0  0  0  0  0  0  0
  193.0110  177.1340  141.0390 N   0  0  0  0  0  1  0  0  0  0  0  0
  186.9090  177.7430  145.5240 C   0  0  0  0  0  3  0  0  0  0  0  0
  190.9790  176.7570  147.3150 C   0  0  0  0  0  2  0  0  0  0  0  0
  187.5150  178.1660  140.7440 C   0  0  0  0  0  3  0  0  0  0  0  0
  187.2620  177.9570  143.1410 C   0  0  0  0  0  0  0  0  0  0  0  0
  190.8570  177.4300  142.1460 C   0  0  0  0  0  3  0  0  0  0  0  0
  189.9230  177.7460  147.5310 N   0  0  0  0  0  2  0  0  0  0  0  0
  188.8760  177.9240  140.8540 C   0  0  0  0  0  0  0  0  0  0  0  0
  189.6450  177.9050  139.6860 C   0  0  0  0  0  3  0  0  0  0  0  0
  186.4190  177.9720  144.2520 C   0  0  0  0  0  3  0  0  0  0  0  0
  188.2630  177.5070  145.7370 C   0  0  0  0  0  0  0  0  0  0  0  0
  188.6440  177.1560  147.1530 C   0  0  0  0  0  2  0  0  0  0  0  0
  180.3960  177.8590  139.7140 C   0  0  0  0  0  0  0  0  0  0  0  0
  182.5040  178.5320  141.7700 O   0  0  0  0  0  1  0  0  0  0  0  0
  182.8370  180.4140  138.8470 O   0  0  0  0  0  0  0  0  0  0  0  0
  185.1960  179.4220  139.6380 O   0  0  0  0  0  0  0  0  0  0  0  0
  178.9310  177.6730  139.5410 C   0  0  0  0  0  1  0  0  0  0  0  0
  184.5690  178.9510  140.6280 C   0  0  0  0  0  0  0  0  0  0  0  0
  181.0920  176.9030  140.1470 O   0  0  0  0  0  0  0  0  0  0  0  0
  182.3490  179.5060  139.5710 C   0  0  0  0  0  0  0  0  0  0  0  0
  183.1300  178.9420  140.6410 N   0  0  0  0  0  0  0  0  0  0  0  0
  185.2780  178.4030  141.7470 N   0  0  0  0  0  2  0  0  0  0  0  0
  180.9930  179.1030  139.3330 N   0  0  0  0  0  2  0  0  0  0  0  0
  1  9  1  0  0  0  0
  1 14  1  0  0  0  0
  2  3  1  0  0  0  0
  3  7  1  0  0  0  0
  3 19  2  0  0  0  0
  4 11  1  0  0  0  0
  5 14  2  0  0  0  0
  5  2  1  0  0  0  0
  6  1  2  0  0  0  0
  7  4  1  0  0  0  0
  8 13  1  0  0  0  0
 10 19  1  0  0  0  0
 11 15  1  0  0  0  0
 12 16  1  0  0  0  0
 12  8  2  0  0  0  0
 13  2  2  0  0  0  0
 13 18  1  0  0  0  0
 16  5  1  0  0  0  0
 17  6  1  0  0  0  0
 17 16  2  0  0  0  0
 18 10  2  0  0  0  0
 19 20  1  0  0  0  0
 20 15  1  0  0  0  0
 21 27  2  0  0  0  0
 23 28  2  0  0  0  0
 24 26  2  0  0  0  0
 25 21  1  0  0  0  0
 26 29  1  0  0  0  0
 26 30  1  0  0  0  0
 28 29  1  0  0  0  0
 29 22  1  0  0  0  0
 30  8  1  0  0  0  0
 31 28  1  0  0  0  0
 31 21  1  0  0  0  0
M  END
>  <MODEL>
4

>  <REMARK>
 VINA RESULT:     -10.2      3.754      7.763
  Name = 
  1 active torsions:
  status: ('A' for Active; 'I' for Inactive)
    1  A    between atoms: C_15  and  N_23
                            x       y       z     vdW  Elec       q    Type
                         _______ _______ _______ _____ _____    ______ ____

>  <TORSDO>
F 1

$$$$
=
 OpenBabel11032419343D

 31 34  0  0  0  0  0  0  0  0999 V2000
  185.8650  178.6980  146.6140 C   0  0  0  0  0  0  0  0  0  0  0  0
  188.5160  177.2360  144.3620 C   0  0  0  0  0  0  0  0  0  0  0  0
  189.6190  176.8700  145.2150 C   0  0  0  0  0  0  0  0  0  0  0  0
  190.7550  177.5320  147.3870 C   0  0  0  0  0  2  0  0  0  0  0  0
  187.2950  177.8220  144.8320 C   0  0  0  0  0  0  0  0  0  0  0  0
  184.8700  179.0030  145.6880 C   0  0  0  0  0  3  0  0  0  0  0  0
  189.5070  176.9660  146.7220 C   0  0  0  0  0  2  0  0  0  0  0  0
  187.6070  177.3490  142.0570 C   0  0  0  0  0  0  0  0  0  0  0  0
  185.6640  178.9850  147.9910 N   0  0  0  0  0  1  0  0  0  0  0  0
  190.8700  176.1200  143.2560 C   0  0  0  0  0  3  0  0  0  0  0  0
  191.7420  176.4090  147.7170 C   0  0  0  0  0  2  0  0  0  0  0  0
  186.4330  177.9130  142.5490 C   0  0  0  0  0  3  0  0  0  0  0  0
  188.6440  177.0140  142.9520 C   0  0  0  0  0  0  0  0  0  0  0  0
  187.0580  178.1150  146.1880 C   0  0  0  0  0  3  0  0  0  0  0  0
  191.7720  175.3740  146.6830 N   0  0  0  0  0  2  0  0  0  0  0  0
  186.2680  178.1490  143.9050 C   0  0  0  0  0  0  0  0  0  0  0  0
  185.0710  178.7280  144.3380 C   0  0  0  0  0  3  0  0  0  0  0  0
  189.8130  176.4600  142.4330 C   0  0  0  0  0  3  0  0  0  0  0  0
  190.7920  176.3050  144.6330 C   0  0  0  0  0  0  0  0  0  0  0  0
  192.0550  176.0050  145.3990 C   0  0  0  0  0  2  0  0  0  0  0  0
  190.4390  176.6200  136.0650 C   0  0  0  0  0  0  0  0  0  0  0  0
  188.1380  176.3500  138.0030 O   0  0  0  0  0  1  0  0  0  0  0  0
  189.0040  179.6810  137.4090 O   0  0  0  0  0  0  0  0  0  0  0  0
  188.6860  179.2120  140.0270 O   0  0  0  0  0  0  0  0  0  0  0  0
  190.9270  176.1560  134.7390 C   0  0  0  0  0  1  0  0  0  0  0  0
  188.3680  178.0370  139.6900 C   0  0  0  0  0  0  0  0  0  0  0  0
  190.6330  175.9000  137.0800 O   0  0  0  0  0  0  0  0  0  0  0  0
  189.1450  178.4330  137.3250 C   0  0  0  0  0  0  0  0  0  0  0  0
  188.5990  177.5770  138.3470 N   0  0  0  0  0  0  0  0  0  0  0  0
  187.7870  177.1380  140.6440 N   0  0  0  0  0  2  0  0  0  0  0  0
  189.8060  177.8990  136.1690 N   0  0  0  0  0  2  0  0  0  0  0  0
  1  9  1  0  0  0  0
  2  5  1  0  0  0  0
  2  3  1  0  0  0  0
  3  7  1  0  0  0  0
  4 11  1  0  0  0  0
  5 14  2  0  0  0  0
  6  1  2  0  0  0  0
  7  4  1  0  0  0  0
  8 12  2  0  0  0  0
  8 13  1  0  0  0  0
 10 19  1  0  0  0  0
 12 16  1  0  0  0  0
 13  2  2  0  0  0  0
 14  1  1  0  0  0  0
 15 11  1  0  0  0  0
 16 17  2  0  0  0  0
 16  5  1  0  0  0  0
 17  6  1  0  0  0  0
 18 13  1  0  0  0  0
 18 10  2  0  0  0  0
 19  3  2  0  0  0  0
 19 20  1  0  0  0  0
 20 15  1  0  0  0  0
 21 31  1  0  0  0  0
 21 27  2  0  0  0  0
 22 29  1  0  0  0  0
 25 21  1  0  0  0  0
 26 24  2  0  0  0  0
 26 30  1  0  0  0  0
 28 23  2  0  0  0  0
 28 29  1  0  0  0  0
 29 26  1  0  0  0  0
 30  8  1  0  0  0  0
 31 28  1  0  0  0  0
M  END
>  <MODEL>
5

>  <REMARK>
 VINA RESULT:     -10.1      2.398      4.807
  Name = 
  1 active torsions:
  status: ('A' for Active; 'I' for Inactive)
    1  A    between atoms: C_15  and  N_23
                            x       y       z     vdW  Elec       q    Type
                         _______ _______ _______ _____ _____    ______ ____

>  <TORSDO>
F 1

$$$$
=
 OpenBabel11032419343D

 31 34  0  0  0  0  0  0  0  0999 V2000
  185.7480  178.6890  142.1250 C   0  0  0  0  0  0  0  0  0  0  0  0
  189.2110  177.3960  142.8820 C   0  0  0  0  0  0  0  0  0  0  0  0
  189.3110  177.3160  144.3180 C   0  0  0  0  0  0  0  0  0  0  0  0
  188.4350  178.4130  146.4350 C   0  0  0  0  0  2  0  0  0  0  0  0
  188.0410  177.8360  142.1800 C   0  0  0  0  0  0  0  0  0  0  0  0
  185.7740  178.7160  140.7330 C   0  0  0  0  0  3  0  0  0  0  0  0
  188.1100  177.5800  145.2020 C   0  0  0  0  0  2  0  0  0  0  0  0
  190.3270  177.0780  140.6910 C   0  0  0  0  0  0  0  0  0  0  0  0
  184.5820  179.1090  142.8210 N   0  0  0  0  0  1  0  0  0  0  0  0
  191.6150  176.5370  144.1030 C   0  0  0  0  0  3  0  0  0  0  0  0
  188.8590  177.5080  147.5960 C   0  0  0  0  0  2  0  0  0  0  0  0
  189.1730  177.5070  140.0420 C   0  0  0  0  0  3  0  0  0  0  0  0
  190.3510  177.0240  142.1000 C   0  0  0  0  0  0  0  0  0  0  0  0
  186.8670  178.2530  142.8350 C   0  0  0  0  0  3  0  0  0  0  0  0
  189.6650  176.3720  147.1490 N   0  0  0  0  0  2  0  0  0  0  0  0
  188.0470  177.8800  140.7600 C   0  0  0  0  0  0  0  0  0  0  0  0
  186.9200  178.3130  140.0530 C   0  0  0  0  0  3  0  0  0  0  0  0
  191.5240  176.6010  142.7250 C   0  0  0  0  0  3  0  0  0  0  0  0
  190.5330  176.8760  144.9080 C   0  0  0  0  0  0  0  0  0  0  0  0
  190.8040  176.8750  146.3910 C   0  0  0  0  0  2  0  0  0  0  0  0
  194.7200  176.4230  135.7180 C   0  0  0  0  0  0  0  0  0  0  0  0
  193.9310  176.3780  138.6330 O   0  0  0  0  0  1  0  0  0  0  0  0
  192.2620  173.9510  136.7570 O   0  0  0  0  0  0  0  0  0  0  0  0
  190.5700  175.2780  138.3540 O   0  0  0  0  0  0  0  0  0  0  0  0
  195.9010  176.4480  134.8140 C   0  0  0  0  0  1  0  0  0  0  0  0
  191.5880  175.8950  138.7750 C   0  0  0  0  0  0  0  0  0  0  0  0
  194.2970  177.5030  136.2080 O   0  0  0  0  0  0  0  0  0  0  0  0
  193.0120  174.9490  136.9240 C   0  0  0  0  0  0  0  0  0  0  0  0
  192.8430  175.7890  138.0800 N   0  0  0  0  0  0  0  0  0  0  0  0
  191.5050  176.7250  139.9420 N   0  0  0  0  0  2  0  0  0  0  0  0
  194.0580  175.1800  135.9690 N   0  0  0  0  0  2  0  0  0  0  0  0
  1  9  1  0  0  0  0
  1 14  1  0  0  0  0
  2  3  1  0  0  0  0
  3 19  2  0  0  0  0
  3  7  1  0  0  0  0
  4 11  1  0  0  0  0
  5 14  2  0  0  0  0
  5  2  1  0  0  0  0
  6  1  2  0  0  0  0
  7  4  1  0  0  0  0
  8 13  1  0  0  0  0
 10 19  1  0  0  0  0
 12  8  2  0  0  0  0
 12 16  1  0  0  0  0
 13 18  1  0  0  0  0
 13  2  2  0  0  0  0
 15 11  1  0  0  0  0
 16  5  1  0  0  0  0
 17  6  1  0  0  0  0
 17 16  2  0  0  0  0
 18 10  2  0  0  0  0
 19 20  1  0  0  0  0
 20 15  1  0  0  0  0
 21 31  1  0  0  0  0
 21 27  2  0  0  0  0
 23 28  2  0  0  0  0
 24 26  2  0  0  0  0
 25 21  1  0  0  0  0
 26 30  1  0  0  0  0
 28 29  1  0  0  0  0
 29 22  1  0  0  0  0
 29 26  1  0  0  0  0
 30  8  1  0  0  0  0
 31 28  1  0  0  0  0
M  END
>  <MODEL>
6

>  <REMARK>
 VINA RESULT:      -9.9      1.746      4.790
  Name = 
  1 active torsions:
  status: ('A' for Active; 'I' for Inactive)
    1  A    between atoms: C_15  and  N_23
                            x       y       z     vdW  Elec       q    Type
                         _______ _______ _______ _____ _____    ______ ____

>  <TORSDO>
F 1

$$$$
=
 OpenBabel11032419343D

 31 34  0  0  0  0  0  0  0  0999 V2000
  188.1290  177.9310  147.2230 C   0  0  0  0  0  0  0  0  0  0  0  0
  187.4060  177.9430  143.5190 C   0  0  0  0  0  0  0  0  0  0  0  0
  188.6750  177.7800  142.8560 C   0  0  0  0  0  0  0  0  0  0  0  0
  191.1470  178.2860  143.1440 C   0  0  0  0  0  2  0  0  0  0  0  0
  187.2410  177.9810  144.9430 C   0  0  0  0  0  0  0  0  0  0  0  0
  186.8470  178.0890  147.7430 C   0  0  0  0  0  3  0  0  0  0  0  0
  189.9400  177.5040  143.6420 C   0  0  0  0  0  2  0  0  0  0  0  0
  184.9560  178.2530  143.2930 C   0  0  0  0  0  0  0  0  0  0  0  0
  189.2430  177.8290  148.0990 N   0  0  0  0  0  1  0  0  0  0  0  0
  187.5500  177.9260  140.6930 C   0  0  0  0  0  3  0  0  0  0  0  0
  191.8780  177.5030  142.0490 C   0  0  0  0  0  2  0  0  0  0  0  0
  184.8320  178.2820  144.6790 C   0  0  0  0  0  3  0  0  0  0  0  0
  186.2310  178.0880  142.7130 C   0  0  0  0  0  0  0  0  0  0  0  0
  188.3190  177.8770  145.8420 C   0  0  0  0  0  3  0  0  0  0  0  0
  190.9550  176.7870  141.1680 N   0  0  0  0  0  2  0  0  0  0  0  0
  185.9440  178.1490  145.4970 C   0  0  0  0  0  0  0  0  0  0  0  0
  185.7580  178.1970  146.8830 C   0  0  0  0  0  3  0  0  0  0  0  0
  186.3280  178.0730  141.3220 C   0  0  0  0  0  3  0  0  0  0  0  0
  188.7200  177.7710  141.4300 C   0  0  0  0  0  0  0  0  0  0  0  0
  189.9940  177.7390  140.6240 C   0  0  0  0  0  2  0  0  0  0  0  0
  179.9850  181.0540  139.8430 C   0  0  0  0  0  0  0  0  0  0  0  0
  181.8340  178.7630  140.5170 O   0  0  0  0  0  1  0  0  0  0  0  0
  179.7510  179.6300  143.1830 O   0  0  0  0  0  0  0  0  0  0  0  0
  182.2870  179.3250  143.9900 O   0  0  0  0  0  0  0  0  0  0  0  0
  179.0270  181.5350  138.8130 C   0  0  0  0  0  1  0  0  0  0  0  0
  182.5380  179.0030  142.7950 C   0  0  0  0  0  0  0  0  0  0  0  0
  181.2170  181.2530  139.6790 O   0  0  0  0  0  0  0  0  0  0  0  0
  180.2590  179.7690  142.0390 C   0  0  0  0  0  0  0  0  0  0  0  0
  181.5630  179.2270  141.7610 N   0  0  0  0  0  0  0  0  0  0  0  0
  183.8030  178.4260  142.4460 N   0  0  0  0  0  2  0  0  0  0  0  0
  179.4820  180.4240  141.0260 N   0  0  0  0  0  2  0  0  0  0  0  0
  1  6  1  0  0  0  0
  1  9  1  0  0  0  0
  2  5  1  0  0  0  0
  3  2  1  0  0  0  0
  3  7  1  0  0  0  0
  4  7  1  0  0  0  0
  5 16  2  0  0  0  0
  5 14  1  0  0  0  0
  8 12  2  0  0  0  0
 10 18  2  0  0  0  0
 10 19  1  0  0  0  0
 11  4  1  0  0  0  0
 12 16  1  0  0  0  0
 13  8  1  0  0  0  0
 13  2  2  0  0  0  0
 14  1  2  0  0  0  0
 15 11  1  0  0  0  0
 16 17  1  0  0  0  0
 17  6  2  0  0  0  0
 18 13  1  0  0  0  0
 19  3  2  0  0  0  0
 20 15  1  0  0  0  0
 20 19  1  0  0  0  0
 21 31  1  0  0  0  0
 22 29  1  0  0  0  0
 25 21  1  0  0  0  0
 26 24  2  0  0  0  0
 27 21  2  0  0  0  0
 28 23  2  0  0  0  0
 29 28  1  0  0  0  0
 29 26  1  0  0  0  0
 30 26  1  0  0  0  0
 30  8  1  0  0  0  0
 31 28  1  0  0  0  0
M  END
>  <MODEL>
7

>  <REMARK>
 VINA RESULT:      -9.8      4.394      8.225
  Name = 
  1 active torsions:
  status: ('A' for Active; 'I' for Inactive)
    1  A    between atoms: C_15  and  N_23
                            x       y       z     vdW  Elec       q    Type
                         _______ _______ _______ _____ _____    ______ ____

>  <TORSDO>
F 1

$$$$
=
 OpenBabel11032419343D

 31 34  0  0  0  0  0  0  0  0999 V2000
  191.0520  177.2110  139.8330 C   0  0  0  0  0  0  0  0  0  0  0  0
  188.9340  177.7050  142.9160 C   0  0  0  0  0  0  0  0  0  0  0  0
  189.7330  177.2690  144.0340 C   0  0  0  0  0  0  0  0  0  0  0  0
  191.5780  175.6320  144.6390 C   0  0  0  0  0  2  0  0  0  0  0  0
  189.3790  177.6890  141.5530 C   0  0  0  0  0  0  0  0  0  0  0  0
  190.1860  177.6630  138.8410 C   0  0  0  0  0  3  0  0  0  0  0  0
  191.1840  176.8740  143.8510 C   0  0  0  0  0  2  0  0  0  0  0  0
  186.7650  178.6130  142.1280 C   0  0  0  0  0  0  0  0  0  0  0  0
  192.3430  176.7300  139.4810 N   0  0  0  0  0  1  0  0  0  0  0  0
  187.8790  177.7710  145.5410 C   0  0  0  0  0  3  0  0  0  0  0  0
  192.0520  176.0170  146.0440 C   0  0  0  0  0  2  0  0  0  0  0  0
  187.2310  178.5880  140.8170 C   0  0  0  0  0  3  0  0  0  0  0  0
  187.6050  178.1730  143.1720 C   0  0  0  0  0  0  0  0  0  0  0  0
  190.6520  177.2260  141.1690 C   0  0  0  0  0  3  0  0  0  0  0  0
  191.2780  177.1230  146.6070 N   0  0  0  0  0  2  0  0  0  0  0  0
  188.5090  178.1380  140.5230 C   0  0  0  0  0  0  0  0  0  0  0  0
  188.9190  178.1260  139.1850 C   0  0  0  0  0  3  0  0  0  0  0  0
  187.1090  178.1990  144.4760 C   0  0  0  0  0  3  0  0  0  0  0  0
  189.1790  177.3170  145.3470 C   0  0  0  0  0  0  0  0  0  0  0  0
  189.8640  176.7700  146.5740 C   0  0  0  0  0  2  0  0  0  0  0  0
  180.3440  178.5960  143.9260 C   0  0  0  0  0  0  0  0  0  0  0  0
  182.9740  179.9680  143.3550 O   0  0  0  0  0  1  0  0  0  0  0  0
  181.6270  178.4260  140.5260 O   0  0  0  0  0  0  0  0  0  0  0  0
  184.2330  177.8650  140.7910 O   0  0  0  0  0  0  0  0  0  0  0  0
  179.0160  178.8040  144.5620 C   0  0  0  0  0  1  0  0  0  0  0  0
  184.2060  178.6250  141.7990 C   0  0  0  0  0  0  0  0  0  0  0  0
  181.3250  178.2630  144.6420 O   0  0  0  0  0  0  0  0  0  0  0  0
  181.6870  178.7100  141.7510 C   0  0  0  0  0  0  0  0  0  0  0  0
  182.9500  179.0640  142.3450 N   0  0  0  0  0  0  0  0  0  0  0  0
  185.4240  179.0480  142.4250 N   0  0  0  0  0  2  0  0  0  0  0  0
  180.4670  178.7250  142.5060 N   0  0  0  0  0  2  0  0  0  0  0  0
  1 14  1  0  0  0  0
  2 13  2  0  0  0  0
  2  3  1  0  0  0  0
  3 19  2  0  0  0  0
  4 11  1  0  0  0  0
  5  2  1  0  0  0  0
  6 17  1  0  0  0  0
  6  1  2  0  0  0  0
  7  3  1  0  0  0  0
  7  4  1  0  0  0  0
  8 30  1  0  0  0  0
  8 13  1  0  0  0  0
  9  1  1  0  0  0  0
 11 15  1  0  0  0  0
 12  8  2  0  0  0  0
 13 18  1  0  0  0  0
 14  5  2  0  0  0  0
 16 12  1  0  0  0  0
 16  5  1  0  0  0  0
 17 16  2  0  0  0  0
 18 10  2  0  0  0  0
 19 10  1  0  0  0  0
 19 20  1  0  0  0  0
 20 15  1  0  0  0  0
 21 25  1  0  0  0  0
 21 27  2  0  0  0  0
 23 28  2  0  0  0  0
 24 26  2  0  0  0  0
 26 29  1  0  0  0  0
 26 30  1  0  0  0  0
 28 29  1  0  0  0  0
 28 31  1  0  0  0  0
 29 22  1  0  0  0  0
 31 21  1  0  0  0  0
M  END
>  <MODEL>
8

>  <REMARK>
 VINA RESULT:      -9.8      3.833      8.576
  Name = 
  1 active torsions:
  status: ('A' for Active; 'I' for Inactive)
    1  A    between atoms: C_15  and  N_23
                            x       y       z     vdW  Elec       q    Type
                         _______ _______ _______ _____ _____    ______ ____

>  <TORSDO>
F 1

$$$$
=
 OpenBabel11032419343D

 31 34  0  0  0  0  0  0  0  0999 V2000
  183.9580  178.6520  138.7560 C   0  0  0  0  0  0  0  0  0  0  0  0
  187.6040  177.9170  139.3920 C   0  0  0  0  0  0  0  0  0  0  0  0
  188.1690  177.5280  138.1230 C   0  0  0  0  0  0  0  0  0  0  0  0
  187.5450  176.4140  135.9280 C   0  0  0  0  0  2  0  0  0  0  0  0
  186.2330  178.2890  139.5820 C   0  0  0  0  0  0  0  0  0  0  0  0
  183.5340  179.0130  140.0320 C   0  0  0  0  0  3  0  0  0  0  0  0
  187.3580  177.6140  136.8470 C   0  0  0  0  0  2  0  0  0  0  0  0
  187.9730  178.2880  141.8160 C   0  0  0  0  0  0  0  0  0  0  0  0
  183.0330  178.6430  137.6770 N   0  0  0  0  0  1  0  0  0  0  0  0
  190.3290  177.1750  139.2060 C   0  0  0  0  0  3  0  0  0  0  0  0
  188.7230  176.6460  134.9770 C   0  0  0  0  0  2  0  0  0  0  0  0
  186.6370  178.6470  141.9630 C   0  0  0  0  0  3  0  0  0  0  0  0
  188.4570  177.9210  140.5420 C   0  0  0  0  0  0  0  0  0  0  0  0
  185.2900  178.2980  138.5370 C   0  0  0  0  0  3  0  0  0  0  0  0
  189.8280  177.3530  135.6240 N   0  0  0  0  0  2  0  0  0  0  0  0
  185.7750  178.6520  140.8770 C   0  0  0  0  0  0  0  0  0  0  0  0
  184.4400  179.0130  141.0890 C   0  0  0  0  0  3  0  0  0  0  0  0
  189.7970  177.5550  140.4240 C   0  0  0  0  0  3  0  0  0  0  0  0
  189.5460  177.1630  138.0560 C   0  0  0  0  0  0  0  0  0  0  0  0
  190.2170  176.6170  136.8220 C   0  0  0  0  0  2  0  0  0  0  0  0
  191.7300  176.0650  146.8560 C   0  0  0  0  0  0  0  0  0  0  0  0
  190.8500  178.1790  144.8860 O   0  0  0  0  0  1  0  0  0  0  0  0
  188.3020  177.2620  147.0920 O   0  0  0  0  0  0  0  0  0  0  0  0
  187.4170  177.3440  144.5650 O   0  0  0  0  0  0  0  0  0  0  0  0
  192.8140  175.7220  147.8140 C   0  0  0  0  0  1  0  0  0  0  0  0
  188.5790  177.7330  144.2610 C   0  0  0  0  0  0  0  0  0  0  0  0
  191.8800  175.8000  145.6350 O   0  0  0  0  0  0  0  0  0  0  0  0
  189.4410  177.1710  146.5630 C   0  0  0  0  0  0  0  0  0  0  0  0
  189.6490  177.6460  145.2190 N   0  0  0  0  0  0  0  0  0  0  0  0
  188.8560  178.2500  142.9530 N   0  0  0  0  0  2  0  0  0  0  0  0
  190.5170  176.6420  147.3510 N   0  0  0  0  0  2  0  0  0  0  0  0
  1  6  1  0  0  0  0
  2  5  2  0  0  0  0
  2 13  1  0  0  0  0
  3  2  1  0  0  0  0
  4  7  1  0  0  0  0
  5 16  1  0  0  0  0
  6 17  2  0  0  0  0
  7  3  1  0  0  0  0
  8 12  1  0  0  0  0
  8 30  1  0  0  0  0
  9  1  1  0  0  0  0
 10 18  2  0  0  0  0
 11 15  1  0  0  0  0
 11  4  1  0  0  0  0
 13  8  2  0  0  0  0
 14  1  2  0  0  0  0
 14  5  1  0  0  0  0
 15 20  1  0  0  0  0
 16 17  1  0  0  0  0
 16 12  2  0  0  0  0
 18 13  1  0  0  0  0
 19  3  2  0  0  0  0
 19 10  1  0  0  0  0
 20 19  1  0  0  0  0
 21 31  1  0  0  0  0
 21 25  1  0  0  0  0
 22 29  1  0  0  0  0
 26 24  2  0  0  0  0
 26 29  1  0  0  0  0
 27 21  2  0  0  0  0
 28 23  2  0  0  0  0
 28 31  1  0  0  0  0
 29 28  1  0  0  0  0
 30 26  1  0  0  0  0
M  END
>  <MODEL>
9

>  <REMARK>
 VINA RESULT:      -9.6      3.447      7.842
  Name = 
  1 active torsions:
  status: ('A' for Active; 'I' for Inactive)
    1  A    between atoms: C_15  and  N_23
                            x       y       z     vdW  Elec       q    Type
                         _______ _______ _______ _____ _____    ______ ____

>  <TORSDO>
F 1

$$$$
