=
 OpenBabel11032420463D

 47 52  0  0  1  0  0  0  0  0999 V2000
  184.5650  178.6150  146.9490 N   0  0  0  0  0  0  0  0  0  0  0  0
  186.0120  178.4500  147.1190 C   0  0  0  0  0  0  0  0  0  0  0  0
  188.7160  177.4580  144.5760 C   0  0  0  0  0  3  0  0  0  0  0  0
  185.9780  178.1560  144.5480 C   0  0  2  0  0  3  0  0  0  0  0  0
  182.2160  178.6500  141.2360 S   0  0  0  0  0  0  0  0  0  0  0  0
  183.9470  178.6290  145.8050 C   0  0  0  0  0  3  0  0  0  0  0  0
  181.6600  179.0220  144.0060 C   0  0  0  0  0  1  0  0  0  0  0  0
  186.7020  177.8840  143.3210 N   0  0  0  0  0  0  0  0  0  0  0  0
  184.7280  178.2310  141.9990 C   0  0  0  0  0  0  0  0  0  0  0  0
  183.9460  178.3100  140.7370 C   0  0  2  0  0  3  0  0  0  0  0  0
  186.0270  177.9430  142.0500 C   0  0  0  0  0  2  0  0  0  0  0  0
  182.6830  178.7180  142.9670 C   0  0  1  0  0  3  0  0  0  0  0  0
  188.1000  177.5290  143.3910 C   0  0  0  0  0  0  0  0  0  0  0  0
  186.5740  179.6750  147.6630 N   0  0  0  0  0  1  0  0  0  0  0  0
  183.9690  178.4760  143.2120 C   0  0  0  0  0  0  0  0  0  0  0  0
  186.7070  178.0950  145.8310 C   0  0  0  0  0  0  0  0  0  0  0  0
  188.0000  177.7570  145.8320 C   0  0  0  0  0  3  0  0  0  0  0  0
  184.6620  178.4320  144.5290 C   0  0  0  0  0  0  0  0  0  0  0  0
  185.1690  178.0060  138.1360 N   0  0  0  0  0  0  0  0  0  0  0  0
  185.0320  179.1980  138.6270 C   0  0  0  0  0  3  0  0  0  0  0  0
  184.4440  179.4020  139.9140 N   0  0  0  0  0  2  0  0  0  0  0  0
  187.1480  178.0950  136.6070 C   0  0  0  0  0  2  0  0  0  0  0  0
  184.8760  177.1580  135.8620 C   0  0  0  0  0  2  0  0  0  0  0  0
  187.6310  177.6760  135.2190 C   0  0  0  0  0  2  0  0  0  0  0  0
  185.2660  175.7040  135.6380 C   0  0  0  0  0  2  0  0  0  0  0  0
  186.3710  175.6000  134.5940 C   0  0  0  0  0  2  0  0  0  0  0  0
  187.6930  176.1570  135.1050 C   0  0  0  0  0  2  0  0  0  0  0  0
  185.7360  177.7650  136.8710 N   0  0  0  0  0  0  0  0  0  0  0  0
  188.8790  177.2160  142.1530 C   0  0  0  0  0  2  0  0  0  0  0  0
  190.3680  177.0900  142.4800 C   0  0  1  0  0  3  0  0  0  0  0  0
  191.6880  175.6270  143.8840 C   0  0  0  0  0  1  0  0  0  0  0  0
  190.8060  175.7120  142.7240 N   0  0  0  0  0  2  0  0  0  0  0  0
  191.2890  177.8610  141.5290 C   0  0  0  0  0  2  0  0  0  0  0  0
  191.4170  177.2090  140.2330 N   0  0  0  0  0  0  0  0  0  0  0  0
  190.8160  176.0070  138.3960 C   0  0  0  0  0  0  0  0  0  0  0  0
  192.6220  176.8570  139.5700 C   0  0  0  0  0  0  0  0  0  0  0  0
  192.2820  176.0990  138.3840 C   0  0  0  0  0  0  0  0  0  0  0  0
  193.7810  177.1320  139.9890 O   0  0  0  0  0  0  0  0  0  0  0  0
  190.3440  176.6420  139.4710 C   0  0  0  0  0  3  0  0  0  0  0  0
  193.0860  175.6130  137.4920 N   0  0  0  0  0  0  0  0  0  0  0  0
  190.3190  174.1060  136.8960 C   0  0  0  0  0  1  0  0  0  0  0  0
  189.9960  175.3680  137.4610 O   0  0  0  0  0  0  0  0  0  0  0  0
  194.4510  175.7670  137.5950 O   0  0  0  0  0  0  0  0  0  0  0  0
  195.7140  173.9770  138.5820 C   0  0  0  0  0  1  0  0  0  0  0  0
  195.3160  174.6830  137.2980 C   0  0  2  0  0  3  0  0  0  0  0  0
  196.5530  175.1740  136.5510 C   0  0  0  0  0  2  0  0  0  0  0  0
  197.6520  175.2670  137.4140 O   0  0  0  0  0  1  0  0  0  0  0  0
  1  2  2  0  0  0  0
  2 14  1  0  0  0  0
  3 17  1  0  0  0  0
  4 18  1  1  0  0  0
  4 16  1  0  0  0  0
  5 12  1  0  0  0  0
  6  1  1  0  0  0  0
  8 13  1  0  0  0  0
  8  4  1  0  0  0  0
  9 11  1  0  0  0  0
  9 15  2  0  0  0  0
 10 21  1  6  0  0  0
 10  5  1  0  0  0  0
 10  9  1  0  0  0  0
 11  8  1  0  0  0  0
 12 15  1  0  0  0  0
 12  7  1  1  0  0  0
 13  3  2  0  0  0  0
 15 18  1  0  0  0  0
 16 17  2  0  0  0  0
 16  2  1  0  0  0  0
 18  6  2  0  0  0  0
 19 20  2  0  0  0  0
 20 21  1  0  0  0  0
 22 28  1  0  0  0  0
 23 28  1  0  0  0  0
 24 22  1  0  0  0  0
 25 23  1  0  0  0  0
 26 27  1  0  0  0  0
 26 25  1  0  0  0  0
 27 24  1  0  0  0  0
 28 19  1  0  0  0  0
 29 30  1  0  0  0  0
 29 13  1  0  0  0  0
 30 33  1  6  0  0  0
 30 32  1  0  0  0  0
 32 31  1  0  0  0  0
 34 33  1  0  0  0  0
 35 39  2  0  0  0  0
 36 38  2  0  0  0  0
 36 34  1  0  0  0  0
 37 35  1  0  0  0  0
 37 36  1  0  0  0  0
 39 34  1  0  0  0  0
 40 43  1  0  0  0  0
 40 37  2  0  0  0  0
 41 42  1  0  0  0  0
 42 35  1  0  0  0  0
 45 43  1  0  0  0  0
 45 44  1  1  0  0  0
 46 45  1  0  0  0  0
 46 47  1  0  0  0  0
M  END
>  <MODEL>
1

>  <REMARK>
 VINA RESULT:      -9.2      0.000      0.000
  Name = 
  11 active torsions:
  status: ('A' for Active; 'I' for Inactive)
    1  A    between atoms: N_3  and  C_45
    2  A    between atoms: N_8  and  N_47
    3  A    between atoms: O_11  and  C_15
    4  A    between atoms: C_14  and  C_41
    5  A    between atoms: C_20  and  C_32
    6  A    between atoms: C_20  and  C_35
    7  A    between atoms: C_28  and  N_40
    8  A    between atoms: O_31  and  N_33
    9  A    between atoms: O_31  and  C_41
   10  A    between atoms: C_35  and  N_42
   11  A    between atoms: C_35  and  C_45
                            x       y       z     vdW  Elec       q    Type
                         _______ _______ _______ _____ _____    ______ ____

>  <TORSDO>
F 11

$$$$
=
 OpenBabel11032420463D

 47 52  0  0  1  0  0  0  0  0999 V2000
  184.1470  178.6400  146.5830 N   0  0  0  0  0  0  0  0  0  0  0  0
  185.5950  178.4700  146.7500 C   0  0  0  0  0  0  0  0  0  0  0  0
  188.3050  177.5780  144.1760 C   0  0  0  0  0  3  0  0  0  0  0  0
  185.5660  178.2740  144.1690 C   0  0  2  0  0  3  0  0  0  0  0  0
  181.8090  178.8870  140.8710 S   0  0  0  0  0  0  0  0  0  0  0  0
  183.5320  178.6970  145.4390 C   0  0  0  0  0  3  0  0  0  0  0  0
  181.2470  179.1540  143.6510 C   0  0  0  0  0  1  0  0  0  0  0  0
  186.2920  178.0490  142.9340 N   0  0  0  0  0  0  0  0  0  0  0  0
  184.3210  178.4430  141.6220 C   0  0  0  0  0  0  0  0  0  0  0  0
  183.5410  178.5680  140.3630 C   0  0  2  0  0  3  0  0  0  0  0  0
  185.6200  178.1540  141.6650 C   0  0  0  0  0  2  0  0  0  0  0  0
  182.2730  178.8910  142.6040 C   0  0  1  0  0  3  0  0  0  0  0  0
  187.6910  177.6930  142.9930 C   0  0  0  0  0  0  0  0  0  0  0  0
  186.1530  179.6750  147.3410 N   0  0  0  0  0  1  0  0  0  0  0  0
  183.5590  178.6410  142.8420 C   0  0  0  0  0  0  0  0  0  0  0  0
  186.2920  178.1650  145.4500 C   0  0  0  0  0  0  0  0  0  0  0  0
  187.5850  177.8280  145.4420 C   0  0  0  0  0  3  0  0  0  0  0  0
  184.2490  178.5480  144.1580 C   0  0  0  0  0  0  0  0  0  0  0  0
  181.9710  180.1270  138.5040 N   0  0  0  0  0  0  0  0  0  0  0  0
  183.2160  180.4370  138.6830 C   0  0  0  0  0  3  0  0  0  0  0  0
  184.0390  179.6910  139.5820 N   0  0  0  0  0  2  0  0  0  0  0  0
  181.1090  182.3150  137.6460 C   0  0  0  0  0  2  0  0  0  0  0  0
  180.3030  180.0610  136.7170 C   0  0  0  0  0  2  0  0  0  0  0  0
  180.2160  182.9320  136.5720 C   0  0  0  0  0  2  0  0  0  0  0  0
  180.8440  180.1680  135.2980 C   0  0  0  0  0  2  0  0  0  0  0  0
  180.2660  181.3900  134.5940 C   0  0  0  0  0  2  0  0  0  0  0  0
  180.7960  182.6910  135.1830 C   0  0  0  0  0  2  0  0  0  0  0  0
  181.1260  180.8410  137.6330 N   0  0  0  0  0  0  0  0  0  0  0  0
  188.4720  177.4270  141.7460 C   0  0  0  0  0  2  0  0  0  0  0  0
  189.9440  177.1800  142.0840 C   0  0  1  0  0  3  0  0  0  0  0  0
  191.2860  175.7070  143.4560 C   0  0  0  0  0  1  0  0  0  0  0  0
  190.2440  175.7890  142.4360 N   0  0  0  0  0  2  0  0  0  0  0  0
  190.9300  177.7800  141.0760 C   0  0  0  0  0  2  0  0  0  0  0  0
  190.6690  177.3340  139.7150 N   0  0  0  0  0  0  0  0  0  0  0  0
  190.9850  176.2380  137.7440 C   0  0  0  0  0  0  0  0  0  0  0  0
  189.7870  177.9300  138.7760 C   0  0  0  0  0  0  0  0  0  0  0  0
  189.9490  177.2510  137.5070 C   0  0  0  0  0  0  0  0  0  0  0  0
  189.0330  178.9130  139.0200 O   0  0  0  0  0  0  0  0  0  0  0  0
  191.3900  176.3120  139.0140 C   0  0  0  0  0  3  0  0  0  0  0  0
  189.3130  177.4710  136.4000 N   0  0  0  0  0  0  0  0  0  0  0  0
  191.2200  173.9310  136.8890 C   0  0  0  0  0  1  0  0  0  0  0  0
  191.5050  175.3210  136.8260 O   0  0  0  0  0  0  0  0  0  0  0  0
  188.3560  178.4580  136.3040 O   0  0  0  0  0  0  0  0  0  0  0  0
  186.1790  178.0420  137.2300 C   0  0  0  0  0  1  0  0  0  0  0  0
  187.0190  178.1260  135.9680 C   0  0  2  0  0  3  0  0  0  0  0  0
  186.9700  176.8060  135.2040 C   0  0  0  0  0  2  0  0  0  0  0  0
  185.6740  176.2790  135.2010 O   0  0  0  0  0  1  0  0  0  0  0  0
  1  2  2  0  0  0  0
  2 14  1  0  0  0  0
  3 17  1  0  0  0  0
  4 18  1  1  0  0  0
  4 16  1  0  0  0  0
  5 12  1  0  0  0  0
  6  1  1  0  0  0  0
  8 13  1  0  0  0  0
  8  4  1  0  0  0  0
  9 11  1  0  0  0  0
  9 15  2  0  0  0  0
 10 21  1  6  0  0  0
 10  5  1  0  0  0  0
 10  9  1  0  0  0  0
 11  8  1  0  0  0  0
 12 15  1  0  0  0  0
 12  7  1  1  0  0  0
 13  3  2  0  0  0  0
 15 18  1  0  0  0  0
 16  2  1  0  0  0  0
 17 16  2  0  0  0  0
 18  6  2  0  0  0  0
 19 20  2  0  0  0  0
 20 21  1  0  0  0  0
 23 28  1  0  0  0  0
 24 22  1  0  0  0  0
 25 23  1  0  0  0  0
 26 27  1  0  0  0  0
 26 25  1  0  0  0  0
 27 24  1  0  0  0  0
 28 22  1  0  0  0  0
 28 19  1  0  0  0  0
 29 30  1  0  0  0  0
 29 13  1  0  0  0  0
 30 33  1  6  0  0  0
 30 32  1  0  0  0  0
 32 31  1  0  0  0  0
 34 33  1  0  0  0  0
 35 39  2  0  0  0  0
 36 38  2  0  0  0  0
 36 34  1  0  0  0  0
 37 35  1  0  0  0  0
 37 36  1  0  0  0  0
 39 34  1  0  0  0  0
 40 37  2  0  0  0  0
 42 41  1  0  0  0  0
 42 35  1  0  0  0  0
 43 40  1  0  0  0  0
 45 43  1  0  0  0  0
 45 44  1  1  0  0  0
 46 45  1  0  0  0  0
 47 46  1  0  0  0  0
M  END
>  <MODEL>
2

>  <REMARK>
 VINA RESULT:      -9.0      2.624      4.572
  Name = 
  11 active torsions:
  status: ('A' for Active; 'I' for Inactive)
    1  A    between atoms: N_3  and  C_45
    2  A    between atoms: N_8  and  N_47
    3  A    between atoms: O_11  and  C_15
    4  A    between atoms: C_14  and  C_41
    5  A    between atoms: C_20  and  C_32
    6  A    between atoms: C_20  and  C_35
    7  A    between atoms: C_28  and  N_40
    8  A    between atoms: O_31  and  N_33
    9  A    between atoms: O_31  and  C_41
   10  A    between atoms: C_35  and  N_42
   11  A    between atoms: C_35  and  C_45
                            x       y       z     vdW  Elec       q    Type
                         _______ _______ _______ _____ _____    ______ ____

>  <TORSDO>
F 11

$$$$
=
 OpenBabel11032420463D

 47 52  0  0  1  0  0  0  0  0999 V2000
  188.0210  177.8100  148.6110 N   0  0  0  0  0  0  0  0  0  0  0  0
  189.4260  177.4770  148.3510 C   0  0  0  0  0  0  0  0  0  0  0  0
  191.1540  176.3480  145.1100 C   0  0  0  0  0  3  0  0  0  0  0  0
  188.6280  177.3430  145.8920 C   0  0  2  0  0  3  0  0  0  0  0  0
  184.1690  178.4440  143.8240 S   0  0  0  0  0  0  0  0  0  0  0  0
  187.1110  177.9600  147.6950 C   0  0  0  0  0  3  0  0  0  0  0  0
  184.4720  178.7080  146.6440 C   0  0  0  0  0  1  0  0  0  0  0  0
  188.9350  177.0670  144.5020 N   0  0  0  0  0  0  0  0  0  0  0  0
  186.7240  177.7070  143.8160 C   0  0  0  0  0  0  0  0  0  0  0  0
  185.6320  177.9460  142.8370 C   0  0  2  0  0  3  0  0  0  0  0  0
  187.9390  177.2760  143.4820 C   0  0  0  0  0  2  0  0  0  0  0  0
  185.1140  178.3560  145.3460 C   0  0  1  0  0  3  0  0  0  0  0  0
  190.2400  176.5580  144.1560 C   0  0  0  0  0  0  0  0  0  0  0  0
  190.2640  178.5980  148.7410 N   0  0  0  0  0  1  0  0  0  0  0  0
  186.3760  177.9610  145.2030 C   0  0  0  0  0  0  0  0  0  0  0  0
  189.6770  177.1250  146.9080 C   0  0  0  0  0  0  0  0  0  0  0  0
  190.8660  176.6480  146.5270 C   0  0  0  0  0  3  0  0  0  0  0  0
  187.4040  177.7620  146.2620 C   0  0  0  0  0  0  0  0  0  0  0  0
  184.4110  178.4600  140.2690 N   0  0  0  0  0  0  0  0  0  0  0  0
  185.3610  179.2420  140.6770 C   0  0  0  0  0  3  0  0  0  0  0  0
  186.0050  179.0250  141.9330 N   0  0  0  0  0  2  0  0  0  0  0  0
  183.4460  177.4940  138.1710 C   0  0  0  0  0  2  0  0  0  0  0  0
  183.3570  180.0060  138.6950 C   0  0  0  0  0  2  0  0  0  0  0  0
  182.6330  177.8550  136.9290 C   0  0  0  0  0  2  0  0  0  0  0  0
  181.8510  180.1790  138.8380 C   0  0  0  0  0  2  0  0  0  0  0  0
  181.1400  179.7710  137.5530 C   0  0  0  0  0  2  0  0  0  0  0  0
  181.2170  178.2690  137.3120 C   0  0  0  0  0  2  0  0  0  0  0  0
  183.7470  178.6450  139.0410 N   0  0  0  0  0  0  0  0  0  0  0  0
  190.5910  176.2360  142.7380 C   0  0  0  0  0  2  0  0  0  0  0  0
  191.0500  177.4970  142.0050 C   0  0  1  0  0  3  0  0  0  0  0  0
  191.1480  179.4120  143.4800 C   0  0  0  0  0  1  0  0  0  0  0  0
  191.9150  178.3670  142.8080 N   0  0  0  0  0  2  0  0  0  0  0  0
  191.5870  177.2450  140.5910 C   0  0  0  0  0  2  0  0  0  0  0  0
  190.5260  177.2190  139.5940 N   0  0  0  0  0  0  0  0  0  0  0  0
  188.5830  177.7820  138.5500 C   0  0  0  0  0  0  0  0  0  0  0  0
  190.2500  176.1790  138.6680 C   0  0  0  0  0  0  0  0  0  0  0  0
  189.0230  176.5060  137.9710 C   0  0  0  0  0  0  0  0  0  0  0  0
  190.9480  175.1360  138.5270 O   0  0  0  0  0  0  0  0  0  0  0  0
  189.4550  178.1650  139.4860 C   0  0  0  0  0  3  0  0  0  0  0  0
  188.4390  175.8340  137.0300 N   0  0  0  0  0  0  0  0  0  0  0  0
  186.8760  178.5040  136.9160 C   0  0  0  0  0  1  0  0  0  0  0  0
  187.4420  178.5190  138.2170 O   0  0  0  0  0  0  0  0  0  0  0  0
  188.9560  174.6430  136.5710 O   0  0  0  0  0  0  0  0  0  0  0  0
  186.8160  174.4040  135.5040 C   0  0  0  0  0  1  0  0  0  0  0  0
  188.1300  173.7320  135.8630 C   0  0  2  0  0  3  0  0  0  0  0  0
  187.8790  172.4780  136.6950 C   0  0  0  0  0  2  0  0  0  0  0  0
  186.6890  172.5910  137.4220 O   0  0  0  0  0  1  0  0  0  0  0  0
  2  1  2  0  0  0  0
  2 14  1  0  0  0  0
  3 17  1  0  0  0  0
  4 18  1  1  0  0  0
  4 16  1  0  0  0  0
  5 12  1  0  0  0  0
  6  1  1  0  0  0  0
  8  4  1  0  0  0  0
  9 15  2  0  0  0  0
 10 21  1  6  0  0  0
 10  9  1  0  0  0  0
 10  5  1  0  0  0  0
 11  9  1  0  0  0  0
 11  8  1  0  0  0  0
 12  7  1  1  0  0  0
 13  8  1  0  0  0  0
 13  3  2  0  0  0  0
 15 12  1  0  0  0  0
 15 18  1  0  0  0  0
 16  2  1  0  0  0  0
 17 16  2  0  0  0  0
 18  6  2  0  0  0  0
 19 20  2  0  0  0  0
 20 21  1  0  0  0  0
 22 28  1  0  0  0  0
 23 25  1  0  0  0  0
 23 28  1  0  0  0  0
 24 27  1  0  0  0  0
 24 22  1  0  0  0  0
 26 25  1  0  0  0  0
 27 26  1  0  0  0  0
 28 19  1  0  0  0  0
 29 13  1  0  0  0  0
 30 33  1  6  0  0  0
 30 29  1  0  0  0  0
 30 32  1  0  0  0  0
 32 31  1  0  0  0  0
 34 33  1  0  0  0  0
 35 39  2  0  0  0  0
 36 34  1  0  0  0  0
 37 35  1  0  0  0  0
 37 36  1  0  0  0  0
 38 36  2  0  0  0  0
 39 34  1  0  0  0  0
 40 37  2  0  0  0  0
 41 42  1  0  0  0  0
 42 35  1  0  0  0  0
 43 40  1  0  0  0  0
 45 44  1  1  0  0  0
 45 43  1  0  0  0  0
 45 46  1  0  0  0  0
 46 47  1  0  0  0  0
M  END
>  <MODEL>
3

>  <REMARK>
 VINA RESULT:      -8.8      2.689      4.508
  Name = 
  11 active torsions:
  status: ('A' for Active; 'I' for Inactive)
    1  A    between atoms: N_3  and  C_45
    2  A    between atoms: N_8  and  N_47
    3  A    between atoms: O_11  and  C_15
    4  A    between atoms: C_14  and  C_41
    5  A    between atoms: C_20  and  C_32
    6  A    between atoms: C_20  and  C_35
    7  A    between atoms: C_28  and  N_40
    8  A    between atoms: O_31  and  N_33
    9  A    between atoms: O_31  and  C_41
   10  A    between atoms: C_35  and  N_42
   11  A    between atoms: C_35  and  C_45
                            x       y       z     vdW  Elec       q    Type
                         _______ _______ _______ _____ _____    ______ ____

>  <TORSDO>
F 11

$$$$
=
 OpenBabel11032420463D

 47 52  0  0  1  0  0  0  0  0999 V2000
  184.1800  178.6270  146.5760 N   0  0  0  0  0  0  0  0  0  0  0  0
  185.6240  178.5090  146.8090 C   0  0  0  0  0  0  0  0  0  0  0  0
  188.4780  177.7050  144.3660 C   0  0  0  0  0  3  0  0  0  0  0  0
  185.7200  178.3040  144.2310 C   0  0  2  0  0  3  0  0  0  0  0  0
  182.0990  178.7760  140.7620 S   0  0  0  0  0  0  0  0  0  0  0  0
  183.6170  178.6590  145.4050 C   0  0  0  0  0  3  0  0  0  0  0  0
  181.4020  179.0300  143.5120 C   0  0  0  0  0  1  0  0  0  0  0  0
  186.5100  178.1020  143.0320 N   0  0  0  0  0  0  0  0  0  0  0  0
  184.5880  178.4230  141.6290 C   0  0  0  0  0  0  0  0  0  0  0  0
  183.8630  178.5170  140.3350 C   0  0  2  0  0  3  0  0  0  0  0  0
  185.8930  178.1800  141.7320 C   0  0  0  0  0  2  0  0  0  0  0  0
  182.4830  178.8010  142.5140 C   0  0  1  0  0  3  0  0  0  0  0  0
  187.9160  177.7950  143.1560 C   0  0  0  0  0  0  0  0  0  0  0  0
  186.1120  179.7340  147.4200 N   0  0  0  0  0  1  0  0  0  0  0  0
  183.7640  178.5980  142.8120 C   0  0  0  0  0  0  0  0  0  0  0  0
  186.3900  178.2240  145.5440 C   0  0  0  0  0  0  0  0  0  0  0  0
  187.6940  177.9340  145.5960 C   0  0  0  0  0  3  0  0  0  0  0  0
  184.3970  178.5320  144.1580 C   0  0  0  0  0  0  0  0  0  0  0  0
  182.2360  180.2460  138.6870 N   0  0  0  0  0  0  0  0  0  0  0  0
  183.5060  180.4860  138.7810 C   0  0  0  0  0  3  0  0  0  0  0  0
  184.3570  179.6550  139.5730 N   0  0  0  0  0  2  0  0  0  0  0  0
  181.4580  182.5150  137.9720 C   0  0  0  0  0  2  0  0  0  0  0  0
  180.3990  180.3540  137.0770 C   0  0  0  0  0  2  0  0  0  0  0  0
  180.5110  183.2280  137.0080 C   0  0  0  0  0  2  0  0  0  0  0  0
  180.8020  180.4660  135.6130 C   0  0  0  0  0  2  0  0  0  0  0  0
  180.2500  181.7470  135.0000 C   0  0  0  0  0  2  0  0  0  0  0  0
  180.9320  182.9880  135.5620 C   0  0  0  0  0  2  0  0  0  0  0  0
  181.3640  181.0450  137.9230 N   0  0  0  0  0  0  0  0  0  0  0  0
  188.7620  177.5540  141.9460 C   0  0  0  0  0  2  0  0  0  0  0  0
  190.1830  177.1670  142.3620 C   0  0  1  0  0  3  0  0  0  0  0  0
  191.2720  175.3920  143.5930 C   0  0  0  0  0  1  0  0  0  0  0  0
  190.3930  175.7200  142.4740 N   0  0  0  0  0  2  0  0  0  0  0  0
  191.2860  177.8820  141.5740 C   0  0  0  0  0  2  0  0  0  0  0  0
  191.3280  177.4660  140.1790 N   0  0  0  0  0  0  0  0  0  0  0  0
  190.5750  176.7080  138.1690 C   0  0  0  0  0  0  0  0  0  0  0  0
  192.4760  177.0860  139.4370 C   0  0  0  0  0  0  0  0  0  0  0  0
  192.0400  176.6080  138.1410 C   0  0  0  0  0  0  0  0  0  0  0  0
  193.6610  177.1270  139.8710 O   0  0  0  0  0  0  0  0  0  0  0  0
  190.1900  177.1930  139.3520 C   0  0  0  0  0  3  0  0  0  0  0  0
  192.7750  176.1930  137.1570 N   0  0  0  0  0  0  0  0  0  0  0  0
  189.1450  177.3190  136.2490 C   0  0  0  0  0  1  0  0  0  0  0  0
  189.6790  176.3640  137.1530 O   0  0  0  0  0  0  0  0  0  0  0  0
  194.1470  176.1460  137.2550 O   0  0  0  0  0  0  0  0  0  0  0  0
  195.3890  174.3960  138.3380 C   0  0  0  0  0  1  0  0  0  0  0  0
  194.8380  174.9280  137.0260 C   0  0  2  0  0  3  0  0  0  0  0  0
  195.9630  175.1320  136.0160 C   0  0  0  0  0  2  0  0  0  0  0  0
  197.0270  174.2590  136.2720 O   0  0  0  0  0  1  0  0  0  0  0  0
  1  2  2  0  0  0  0
  2 14  1  0  0  0  0
  3 17  1  0  0  0  0
  4 18  1  1  0  0  0
  4 16  1  0  0  0  0
  5 12  1  0  0  0  0
  6  1  1  0  0  0  0
  8 13  1  0  0  0  0
  8  4  1  0  0  0  0
  9 11  1  0  0  0  0
  9 15  2  0  0  0  0
 10 21  1  6  0  0  0
 10  5  1  0  0  0  0
 10  9  1  0  0  0  0
 11  8  1  0  0  0  0
 12 15  1  0  0  0  0
 12  7  1  1  0  0  0
 13  3  2  0  0  0  0
 15 18  1  0  0  0  0
 16 17  2  0  0  0  0
 16  2  1  0  0  0  0
 18  6  2  0  0  0  0
 19 20  2  0  0  0  0
 20 21  1  0  0  0  0
 23 28  1  0  0  0  0
 24 22  1  0  0  0  0
 25 23  1  0  0  0  0
 26 27  1  0  0  0  0
 26 25  1  0  0  0  0
 27 24  1  0  0  0  0
 28 22  1  0  0  0  0
 28 19  1  0  0  0  0
 29 30  1  0  0  0  0
 29 13  1  0  0  0  0
 30 33  1  6  0  0  0
 30 32  1  0  0  0  0
 32 31  1  0  0  0  0
 34 33  1  0  0  0  0
 35 39  2  0  0  0  0
 36 38  2  0  0  0  0
 36 34  1  0  0  0  0
 37 35  1  0  0  0  0
 37 36  1  0  0  0  0
 39 34  1  0  0  0  0
 40 43  1  0  0  0  0
 40 37  2  0  0  0  0
 41 42  1  0  0  0  0
 42 35  1  0  0  0  0
 45 43  1  0  0  0  0
 45 44  1  1  0  0  0
 46 47  1  0  0  0  0
 46 45  1  0  0  0  0
M  END
>  <MODEL>
4

>  <REMARK>
 VINA RESULT:      -8.7      2.272      3.110
  Name = 
  11 active torsions:
  status: ('A' for Active; 'I' for Inactive)
    1  A    between atoms: N_3  and  C_45
    2  A    between atoms: N_8  and  N_47
    3  A    between atoms: O_11  and  C_15
    4  A    between atoms: C_14  and  C_41
    5  A    between atoms: C_20  and  C_32
    6  A    between atoms: C_20  and  C_35
    7  A    between atoms: C_28  and  N_40
    8  A    between atoms: O_31  and  N_33
    9  A    between atoms: O_31  and  C_41
   10  A    between atoms: C_35  and  N_42
   11  A    between atoms: C_35  and  C_45
                            x       y       z     vdW  Elec       q    Type
                         _______ _______ _______ _____ _____    ______ ____

>  <TORSDO>
F 11

$$$$
=
 OpenBabel11032420463D

 47 52  0  0  1  0  0  0  0  0999 V2000
  189.4130  177.6700  144.9370 N   0  0  0  0  0  0  0  0  0  0  0  0
  190.6120  177.6010  144.0950 C   0  0  0  0  0  0  0  0  0  0  0  0
  190.9560  177.3410  140.2770 C   0  0  0  0  0  3  0  0  0  0  0  0
  188.9000  177.7930  142.1630 C   0  0  2  0  0  3  0  0  0  0  0  0
  183.9250  178.5710  142.2480 S   0  0  0  0  0  0  0  0  0  0  0  0
  188.2030  177.8440  144.4950 C   0  0  0  0  0  3  0  0  0  0  0  0
  185.3220  178.3670  144.7230 C   0  0  0  0  0  1  0  0  0  0  0  0
  188.6380  177.8190  140.7370 N   0  0  0  0  0  0  0  0  0  0  0  0
  186.3020  178.2350  141.1050 C   0  0  0  0  0  0  0  0  0  0  0  0
  184.8950  178.4810  140.6950 C   0  0  2  0  0  3  0  0  0  0  0  0
  187.3040  178.0560  140.2470 C   0  0  0  0  0  2  0  0  0  0  0  0
  185.4070  178.3530  143.2360 C   0  0  1  0  0  3  0  0  0  0  0  0
  189.7240  177.5790  139.8150 C   0  0  0  0  0  0  0  0  0  0  0  0
  191.4610  178.7470  144.3770 N   0  0  0  0  0  1  0  0  0  0  0  0
  186.5270  178.1820  142.5380 C   0  0  0  0  0  0  0  0  0  0  0  0
  190.2830  177.5550  142.6260 C   0  0  0  0  0  0  0  0  0  0  0  0
  191.2450  177.3360  141.7260 C   0  0  0  0  0  3  0  0  0  0  0  0
  187.9050  177.9520  143.0530 C   0  0  0  0  0  0  0  0  0  0  0  0
  182.8150  179.1790  138.8130 N   0  0  0  0  0  0  0  0  0  0  0  0
  183.7440  180.0460  139.0690 C   0  0  0  0  0  3  0  0  0  0  0  0
  184.8010  179.7470  139.9830 N   0  0  0  0  0  2  0  0  0  0  0  0
  181.2300  180.8060  137.7630 C   0  0  0  0  0  2  0  0  0  0  0  0
  181.2290  178.3080  137.1690 C   0  0  0  0  0  2  0  0  0  0  0  0
  180.1520  180.9320  136.6880 C   0  0  0  0  0  2  0  0  0  0  0  0
  181.6630  178.3970  135.7130 C   0  0  0  0  0  2  0  0  0  0  0  0
  180.6810  179.2430  134.9110 C   0  0  0  0  0  2  0  0  0  0  0  0
  180.7450  180.7140  135.3010 C   0  0  0  0  0  2  0  0  0  0  0  0
  181.7540  179.4380  137.9250 N   0  0  0  0  0  0  0  0  0  0  0  0
  189.4930  177.5720  138.3370 C   0  0  0  0  0  2  0  0  0  0  0  0
  190.0250  176.2760  137.7230 C   0  0  1  0  0  3  0  0  0  0  0  0
  187.7470  176.1130  136.9250 C   0  0  0  0  0  1  0  0  0  0  0  0
  188.9750  175.3820  137.2250 N   0  0  0  0  0  2  0  0  0  0  0  0
  191.1760  176.4750  136.7310 C   0  0  0  0  0  2  0  0  0  0  0  0
  192.2090  175.4590  136.8730 N   0  0  0  0  0  0  0  0  0  0  0  0
  193.2090  173.4180  136.7430 C   0  0  0  0  0  0  0  0  0  0  0  0
  193.3510  175.5150  137.7140 C   0  0  0  0  0  0  0  0  0  0  0  0
  194.0250  174.2350  137.6500 C   0  0  0  0  0  0  0  0  0  0  0  0
  193.6760  176.5090  138.4220 O   0  0  0  0  0  0  0  0  0  0  0  0
  192.1680  174.1380  136.3180 C   0  0  0  0  0  3  0  0  0  0  0  0
  195.1180  173.8800  138.2490 N   0  0  0  0  0  0  0  0  0  0  0  0
  194.5830  171.7000  135.6160 C   0  0  0  0  0  1  0  0  0  0  0  0
  193.4350  172.0940  136.3530 O   0  0  0  0  0  0  0  0  0  0  0  0
  195.7950  174.7430  139.0810 O   0  0  0  0  0  0  0  0  0  0  0  0
  197.5440  175.4040  140.5900 C   0  0  0  0  0  1  0  0  0  0  0  0
  197.1230  174.4520  139.4840 C   0  0  2  0  0  3  0  0  0  0  0  0
  198.0780  174.5550  138.2980 C   0  0  0  0  0  2  0  0  0  0  0  0
  197.7320  175.6300  137.4720 O   0  0  0  0  0  1  0  0  0  0  0  0
  2 14  1  0  0  0  0
  2  1  2  0  0  0  0
  3 17  1  0  0  0  0
  4 16  1  1  0  0  0
  4 18  1  0  0  0  0
  5 12  1  0  0  0  0
  6  1  1  0  0  0  0
  8  4  1  0  0  0  0
  9 15  2  0  0  0  0
 10 21  1  1  0  0  0
 10  9  1  0  0  0  0
 10  5  1  0  0  0  0
 11  8  1  0  0  0  0
 11  9  1  0  0  0  0
 12  7  1  1  0  0  0
 13  3  2  0  0  0  0
 13  8  1  0  0  0  0
 15 18  1  0  0  0  0
 15 12  1  0  0  0  0
 16  2  1  0  0  0  0
 17 16  2  0  0  0  0
 18  6  2  0  0  0  0
 19 20  2  0  0  0  0
 20 21  1  0  0  0  0
 22 28  1  0  0  0  0
 23 28  1  0  0  0  0
 24 22  1  0  0  0  0
 25 23  1  0  0  0  0
 26 27  1  0  0  0  0
 26 25  1  0  0  0  0
 27 24  1  0  0  0  0
 28 19  1  0  0  0  0
 29 13  1  0  0  0  0
 30 33  1  6  0  0  0
 30 29  1  0  0  0  0
 31 32  1  0  0  0  0
 32 30  1  0  0  0  0
 33 34  1  0  0  0  0
 34 36  1  0  0  0  0
 35 37  1  0  0  0  0
 36 38  2  0  0  0  0
 37 36  1  0  0  0  0
 37 40  2  0  0  0  0
 39 35  2  0  0  0  0
 39 34  1  0  0  0  0
 40 43  1  0  0  0  0
 41 42  1  0  0  0  0
 42 35  1  0  0  0  0
 43 45  1  0  0  0  0
 45 44  1  1  0  0  0
 46 45  1  0  0  0  0
 47 46  1  0  0  0  0
M  END
>  <MODEL>
5

>  <REMARK>
 VINA RESULT:      -8.6      2.537      4.354
  Name = 
  11 active torsions:
  status: ('A' for Active; 'I' for Inactive)
    1  A    between atoms: N_3  and  C_45
    2  A    between atoms: N_8  and  N_47
    3  A    between atoms: O_11  and  C_15
    4  A    between atoms: C_14  and  C_41
    5  A    between atoms: C_20  and  C_32
    6  A    between atoms: C_20  and  C_35
    7  A    between atoms: C_28  and  N_40
    8  A    between atoms: O_31  and  N_33
    9  A    between atoms: O_31  and  C_41
   10  A    between atoms: C_35  and  N_42
   11  A    between atoms: C_35  and  C_45
                            x       y       z     vdW  Elec       q    Type
                         _______ _______ _______ _____ _____    ______ ____

>  <TORSDO>
F 11

$$$$
=
 OpenBabel11032420463D

 47 52  0  0  1  0  0  0  0  0999 V2000
  181.6660  178.6510  139.2620 N   0  0  0  0  0  0  0  0  0  0  0  0
  182.6700  178.3310  138.2420 C   0  0  2  0  0  3  0  0  0  0  0  0
  186.5020  178.1900  138.4830 C   0  0  0  0  0  3  0  0  0  0  0  0
  184.3070  178.4510  140.2430 C   0  0  0  0  0  0  0  0  0  0  0  0
  183.4340  179.0360  145.1690 S   0  0  0  0  0  0  0  0  0  0  0  0
  181.9110  178.7700  140.5340 C   0  0  0  0  0  3  0  0  0  0  0  0
  181.2210  179.0530  143.3740 C   0  0  0  0  0  1  0  0  0  0  0  0
  185.6690  178.3840  140.7370 N   0  0  0  0  0  0  0  0  0  0  0  0
  184.9300  178.6350  143.0070 C   0  0  0  0  0  0  0  0  0  0  0  0
  185.1070  178.7420  144.4800 C   0  0  2  0  0  3  0  0  0  0  0  0
  185.9360  178.4730  142.1500 C   0  0  0  0  0  2  0  0  0  0  0  0
  182.6960  178.9270  143.5370 C   0  0  1  0  0  3  0  0  0  0  0  0
  186.7550  178.2530  139.7950 C   0  0  0  0  0  0  0  0  0  0  0  0
  182.3760  177.0260  137.6720 N   0  0  0  0  0  1  0  0  0  0  0  0
  183.5590  178.7390  142.5410 C   0  0  0  0  0  0  0  0  0  0  0  0
  184.0730  178.3480  138.7880 C   0  0  0  0  0  0  0  0  0  0  0  0
  185.1200  178.2310  137.9650 C   0  0  0  0  0  3  0  0  0  0  0  0
  183.2730  178.6330  141.0840 C   0  0  0  0  0  0  0  0  0  0  0  0
  187.9170  178.1110  144.7180 N   0  0  0  0  0  0  0  0  0  0  0  0
  187.0440  177.2370  145.1120 C   0  0  0  0  0  3  0  0  0  0  0  0
  185.6430  177.4950  145.0050 N   0  0  0  0  0  2  0  0  0  0  0  0
  189.8920  177.3170  146.0350 C   0  0  0  0  0  2  0  0  0  0  0  0
  190.1130  178.2480  143.6520 C   0  0  0  0  0  2  0  0  0  0  0  0
  191.3940  177.0560  145.9350 C   0  0  0  0  0  2  0  0  0  0  0  0
  190.5850  176.9910  142.9350 C   0  0  0  0  0  2  0  0  0  0  0  0
  191.8860  176.4830  143.5430 C   0  0  0  0  0  2  0  0  0  0  0  0
  191.6820  175.9300  144.9480 C   0  0  0  0  0  2  0  0  0  0  0  0
  189.3050  177.8970  144.8140 N   0  0  0  0  0  0  0  0  0  0  0  0
  188.1770  178.2050  140.2580 C   0  0  0  0  0  2  0  0  0  0  0  0
  189.1200  178.0520  139.0640 C   0  0  1  0  0  3  0  0  0  0  0  0
  189.2290  178.7180  136.7400 C   0  0  0  0  0  1  0  0  0  0  0  0
  189.0640  179.1710  138.1180 N   0  0  0  0  0  2  0  0  0  0  0  0
  190.5490  177.6430  139.4380 C   0  0  0  0  0  2  0  0  0  0  0  0
  191.0650  176.5880  138.5780 N   0  0  0  0  0  0  0  0  0  0  0  0
  191.0820  174.6690  137.3540 C   0  0  0  0  0  0  0  0  0  0  0  0
  192.4270  176.2870  138.3200 C   0  0  0  0  0  0  0  0  0  0  0  0
  192.4820  175.0740  137.5300 C   0  0  0  0  0  0  0  0  0  0  0  0
  193.4070  176.9540  138.7550 O   0  0  0  0  0  0  0  0  0  0  0  0
  190.2880  175.5460  137.9720 C   0  0  0  0  0  3  0  0  0  0  0  0
  193.5320  174.4760  137.0620 N   0  0  0  0  0  0  0  0  0  0  0  0
  189.7590  173.6630  135.5240 C   0  0  0  0  0  1  0  0  0  0  0  0
  190.5990  173.5520  136.6630 O   0  0  0  0  0  0  0  0  0  0  0  0
  194.8000  174.9580  137.2990 O   0  0  0  0  0  0  0  0  0  0  0  0
  195.9470  174.4680  139.3530 C   0  0  0  0  0  1  0  0  0  0  0  0
  195.7850  174.1210  137.8830 C   0  0  2  0  0  3  0  0  0  0  0  0
  197.1150  174.2660  137.1490 C   0  0  0  0  0  2  0  0  0  0  0  0
  197.6500  175.5460  137.3350 O   0  0  0  0  0  1  0  0  0  0  0  0
  1  6  2  0  0  0  0
  2 14  1  1  0  0  0
  2 16  1  0  0  0  0
  2  1  1  0  0  0  0
  3 13  2  0  0  0  0
  4  8  1  0  0  0  0
  4 18  2  0  0  0  0
  6 18  1  0  0  0  0
  8 11  1  0  0  0  0
  9 10  1  0  0  0  0
 10 21  1  1  0  0  0
 10  5  1  0  0  0  0
 11  9  1  0  0  0  0
 12  7  1  6  0  0  0
 12  5  1  0  0  0  0
 13 29  1  0  0  0  0
 13  8  1  0  0  0  0
 15  9  2  0  0  0  0
 15 12  1  0  0  0  0
 16  4  1  0  0  0  0
 17  3  1  0  0  0  0
 17 16  2  0  0  0  0
 18 15  1  0  0  0  0
 19 28  1  0  0  0  0
 19 20  2  0  0  0  0
 21 20  1  0  0  0  0
 23 28  1  0  0  0  0
 24 22  1  0  0  0  0
 25 26  1  0  0  0  0
 25 23  1  0  0  0  0
 26 27  1  0  0  0  0
 27 24  1  0  0  0  0
 28 22  1  0  0  0  0
 30 33  1  1  0  0  0
 30 29  1  0  0  0  0
 31 32  1  0  0  0  0
 32 30  1  0  0  0  0
 34 33  1  0  0  0  0
 35 37  1  0  0  0  0
 35 39  2  0  0  0  0
 36 34  1  0  0  0  0
 36 38  2  0  0  0  0
 37 36  1  0  0  0  0
 39 34  1  0  0  0  0
 40 43  1  0  0  0  0
 40 37  2  0  0  0  0
 41 42  1  0  0  0  0
 42 35  1  0  0  0  0
 43 45  1  0  0  0  0
 45 44  1  1  0  0  0
 46 47  1  0  0  0  0
 46 45  1  0  0  0  0
M  END
>  <MODEL>
6

>  <REMARK>
 VINA RESULT:      -8.6      1.966      5.767
  Name = 
  11 active torsions:
  status: ('A' for Active; 'I' for Inactive)
    1  A    between atoms: N_3  and  C_45
    2  A    between atoms: N_8  and  N_47
    3  A    between atoms: O_11  and  C_15
    4  A    between atoms: C_14  and  C_41
    5  A    between atoms: C_20  and  C_32
    6  A    between atoms: C_20  and  C_35
    7  A    between atoms: C_28  and  N_40
    8  A    between atoms: O_31  and  N_33
    9  A    between atoms: O_31  and  C_41
   10  A    between atoms: C_35  and  N_42
   11  A    between atoms: C_35  and  C_45
                            x       y       z     vdW  Elec       q    Type
                         _______ _______ _______ _____ _____    ______ ____

>  <TORSDO>
F 11

$$$$
=
 OpenBabel11032420463D

 47 52  0  0  1  0  0  0  0  0999 V2000
  184.1820  178.6290  146.6000 N   0  0  0  0  0  0  0  0  0  0  0  0
  185.6240  178.4090  146.7550 C   0  0  0  0  0  0  0  0  0  0  0  0
  188.2810  177.4270  144.1590 C   0  0  0  0  0  3  0  0  0  0  0  0
  185.5680  178.2170  144.1740 C   0  0  2  0  0  3  0  0  0  0  0  0
  181.8090  178.9640  140.9060 S   0  0  0  0  0  0  0  0  0  0  0  0
  183.5600  178.7080  145.4610 C   0  0  0  0  0  3  0  0  0  0  0  0
  181.2790  179.2460  143.6910 C   0  0  0  0  0  1  0  0  0  0  0  0
  186.2770  177.9690  142.9340 N   0  0  0  0  0  0  0  0  0  0  0  0
  184.3100  178.4330  141.6370 C   0  0  0  0  0  0  0  0  0  0  0  0
  183.5250  178.5860  140.3840 C   0  0  2  0  0  3  0  0  0  0  0  0
  185.5980  178.1000  141.6690 C   0  0  0  0  0  2  0  0  0  0  0  0
  182.2870  178.9490  142.6350 C   0  0  1  0  0  3  0  0  0  0  0  0
  187.6620  177.5650  142.9810 C   0  0  0  0  0  0  0  0  0  0  0  0
  186.2290  179.5930  147.3430 N   0  0  0  0  0  1  0  0  0  0  0  0
  183.5650  178.6560  142.8630 C   0  0  0  0  0  0  0  0  0  0  0  0
  186.3000  178.0810  145.4500 C   0  0  0  0  0  0  0  0  0  0  0  0
  187.5810  177.7010  145.4300 C   0  0  0  0  0  3  0  0  0  0  0  0
  184.2620  178.5370  144.1740 C   0  0  0  0  0  0  0  0  0  0  0  0
  181.9670  180.2890  138.6450 N   0  0  0  0  0  0  0  0  0  0  0  0
  183.2380  180.5120  138.7630 C   0  0  0  0  0  3  0  0  0  0  0  0
  184.0560  179.6930  139.6010 N   0  0  0  0  0  2  0  0  0  0  0  0
  181.1360  182.5470  137.9550 C   0  0  0  0  0  2  0  0  0  0  0  0
  180.2830  180.3790  136.8740 C   0  0  0  0  0  2  0  0  0  0  0  0
  180.2440  183.2540  136.9360 C   0  0  0  0  0  2  0  0  0  0  0  0
  180.8130  180.5790  135.4610 C   0  0  0  0  0  2  0  0  0  0  0  0
  180.2500  181.8580  134.8530 C   0  0  0  0  0  2  0  0  0  0  0  0
  180.8090  183.1040  135.5280 C   0  0  0  0  0  2  0  0  0  0  0  0
  181.1270  181.0780  137.8360 N   0  0  0  0  0  0  0  0  0  0  0  0
  188.4250  177.2750  141.7270 C   0  0  0  0  0  2  0  0  0  0  0  0
  189.9020  177.0410  142.0460 C   0  0  1  0  0  3  0  0  0  0  0  0
  191.1990  175.6730  143.5640 C   0  0  0  0  0  1  0  0  0  0  0  0
  190.2020  175.6780  142.4970 N   0  0  0  0  0  2  0  0  0  0  0  0
  190.8670  177.5510  140.9710 C   0  0  0  0  0  2  0  0  0  0  0  0
  190.2570  177.5780  139.6490 N   0  0  0  0  0  0  0  0  0  0  0  0
  188.9250  178.2800  137.9420 C   0  0  0  0  0  0  0  0  0  0  0  0
  190.2200  176.5180  138.7050 C   0  0  0  0  0  0  0  0  0  0  0  0
  189.3890  176.9310  137.5930 C   0  0  0  0  0  0  0  0  0  0  0  0
  190.7870  175.4000  138.8550 O   0  0  0  0  0  0  0  0  0  0  0  0
  189.4280  178.6250  139.1290 C   0  0  0  0  0  3  0  0  0  0  0  0
  189.1180  176.2680  136.5130 N   0  0  0  0  0  0  0  0  0  0  0  0
  186.9530  178.6260  136.4930 C   0  0  0  0  0  1  0  0  0  0  0  0
  188.0890  179.1130  137.1920 O   0  0  0  0  0  0  0  0  0  0  0  0
  189.6180  175.0020  136.3020 O   0  0  0  0  0  0  0  0  0  0  0  0
  189.3640  172.6660  135.7970 C   0  0  0  0  0  1  0  0  0  0  0  0
  188.8050  173.8650  136.5440 C   0  0  2  0  0  3  0  0  0  0  0  0
  187.3650  174.1350  136.1190 C   0  0  0  0  0  2  0  0  0  0  0  0
  186.5840  174.5130  137.2170 O   0  0  0  0  0  1  0  0  0  0  0  0
  1  2  2  0  0  0  0
  2 14  1  0  0  0  0
  3 17  1  0  0  0  0
  4 18  1  1  0  0  0
  4 16  1  0  0  0  0
  5 12  1  0  0  0  0
  6  1  1  0  0  0  0
  8 13  1  0  0  0  0
  8  4  1  0  0  0  0
  9 11  1  0  0  0  0
  9 15  2  0  0  0  0
 10 21  1  6  0  0  0
 10  5  1  0  0  0  0
 10  9  1  0  0  0  0
 11  8  1  0  0  0  0
 12 15  1  0  0  0  0
 12  7  1  1  0  0  0
 13  3  2  0  0  0  0
 15 18  1  0  0  0  0
 16  2  1  0  0  0  0
 17 16  2  0  0  0  0
 18  6  2  0  0  0  0
 19 20  2  0  0  0  0
 20 21  1  0  0  0  0
 23 28  1  0  0  0  0
 24 22  1  0  0  0  0
 25 23  1  0  0  0  0
 26 25  1  0  0  0  0
 26 27  1  0  0  0  0
 27 24  1  0  0  0  0
 28 22  1  0  0  0  0
 28 19  1  0  0  0  0
 29 30  1  0  0  0  0
 29 13  1  0  0  0  0
 30 33  1  6  0  0  0
 30 32  1  0  0  0  0
 32 31  1  0  0  0  0
 34 33  1  0  0  0  0
 35 39  2  0  0  0  0
 36 38  2  0  0  0  0
 36 34  1  0  0  0  0
 37 35  1  0  0  0  0
 37 36  1  0  0  0  0
 39 34  1  0  0  0  0
 40 37  2  0  0  0  0
 41 42  1  0  0  0  0
 42 35  1  0  0  0  0
 43 40  1  0  0  0  0
 43 45  1  0  0  0  0
 45 44  1  6  0  0  0
 46 45  1  0  0  0  0
 46 47  1  0  0  0  0
M  END
>  <MODEL>
7

>  <REMARK>
 VINA RESULT:      -8.5      2.639      4.369
  Name = 
  11 active torsions:
  status: ('A' for Active; 'I' for Inactive)
    1  A    between atoms: N_3  and  C_45
    2  A    between atoms: N_8  and  N_47
    3  A    between atoms: O_11  and  C_15
    4  A    between atoms: C_14  and  C_41
    5  A    between atoms: C_20  and  C_32
    6  A    between atoms: C_20  and  C_35
    7  A    between atoms: C_28  and  N_40
    8  A    between atoms: O_31  and  N_33
    9  A    between atoms: O_31  and  C_41
   10  A    between atoms: C_35  and  N_42
   11  A    between atoms: C_35  and  C_45
                            x       y       z     vdW  Elec       q    Type
                         _______ _______ _______ _____ _____    ______ ____

>  <TORSDO>
F 11

$$$$
=
 OpenBabel11032420463D

 47 52  0  0  1  0  0  0  0  0999 V2000
  182.8410  174.9150  136.6180 N   0  0  0  0  0  0  0  0  0  0  0  0
  183.1070  176.3160  136.9610 C   0  0  0  0  0  0  0  0  0  0  0  0
  186.3880  178.0530  137.9530 C   0  0  0  0  0  3  0  0  0  0  0  0
  185.5750  175.5370  136.9550 C   0  0  2  0  0  3  0  0  0  0  0  0
  187.6190  171.1160  135.6740 S   0  0  0  0  0  0  0  0  0  0  0  0
  183.7550  174.0150  136.4050 C   0  0  0  0  0  3  0  0  0  0  0  0
  184.7870  171.3990  135.5590 C   0  0  0  0  0  1  0  0  0  0  0  0
  186.9750  175.8510  137.1660 N   0  0  0  0  0  0  0  0  0  0  0  0
  187.6440  173.6580  136.4530 C   0  0  0  0  0  0  0  0  0  0  0  0
  188.6190  172.5780  136.1460 C   0  0  2  0  0  3  0  0  0  0  0  0
  187.9910  174.8680  136.8880 C   0  0  0  0  0  2  0  0  0  0  0  0
  186.0960  172.0450  135.8550 C   0  0  1  0  0  3  0  0  0  0  0  0
  187.3370  177.1510  137.6800 C   0  0  0  0  0  0  0  0  0  0  0  0
  182.6530  177.1700  135.8760 N   0  0  0  0  0  1  0  0  0  0  0  0
  186.2500  173.3020  136.2640 C   0  0  0  0  0  0  0  0  0  0  0  0
  184.5630  176.5740  137.2430 C   0  0  0  0  0  0  0  0  0  0  0  0
  184.9590  177.7580  137.7210 C   0  0  0  0  0  3  0  0  0  0  0  0
  185.1940  174.3170  136.5350 C   0  0  0  0  0  0  0  0  0  0  0  0
  191.4080  173.3060  136.3490 N   0  0  0  0  0  0  0  0  0  0  0  0
  190.8420  173.3170  135.1830 C   0  0  0  0  0  3  0  0  0  0  0  0
  189.4630  172.9770  135.0290 N   0  0  0  0  0  2  0  0  0  0  0  0
  193.1550  174.7250  137.4440 C   0  0  0  0  0  2  0  0  0  0  0  0
  193.7470  172.8160  135.8310 C   0  0  0  0  0  2  0  0  0  0  0  0
  194.6650  174.8750  137.6180 C   0  0  0  0  0  2  0  0  0  0  0  0
  194.4620  171.8840  136.7990 C   0  0  0  0  0  2  0  0  0  0  0  0
  195.6620  172.5810  137.4280 C   0  0  0  0  0  2  0  0  0  0  0  0
  195.2410  173.6890  138.3840 C   0  0  0  0  0  2  0  0  0  0  0  0
  192.7650  173.6270  136.5400 N   0  0  0  0  0  0  0  0  0  0  0  0
  188.7670  177.5080  137.9350 C   0  0  0  0  0  2  0  0  0  0  0  0
  189.1600  177.1340  139.3650 C   0  0  1  0  0  3  0  0  0  0  0  0
  191.5350  177.1170  139.8310 C   0  0  0  0  0  1  0  0  0  0  0  0
  190.3750  176.3160  139.4500 N   0  0  0  0  0  2  0  0  0  0  0  0
  189.1480  178.3080  140.3500 C   0  0  0  0  0  2  0  0  0  0  0  0
  188.4320  177.9920  141.5780 N   0  0  0  0  0  0  0  0  0  0  0  0
  186.7300  177.9440  143.0880 C   0  0  0  0  0  0  0  0  0  0  0  0
  188.9970  177.5620  142.8070 C   0  0  0  0  0  0  0  0  0  0  0  0
  187.9390  177.5060  143.7960 C   0  0  0  0  0  0  0  0  0  0  0  0
  190.2220  177.3190  142.9920 O   0  0  0  0  0  0  0  0  0  0  0  0
  187.0390  178.2270  141.8210 C   0  0  0  0  0  3  0  0  0  0  0  0
  188.0280  177.1380  145.0350 N   0  0  0  0  0  0  0  0  0  0  0  0
  184.3020  178.2930  142.7850 C   0  0  0  0  0  1  0  0  0  0  0  0
  185.4370  178.0680  143.6070 O   0  0  0  0  0  0  0  0  0  0  0  0
  189.2280  176.7470  145.5850 O   0  0  0  0  0  0  0  0  0  0  0  0
  188.4640  177.7570  147.6270 C   0  0  0  0  0  1  0  0  0  0  0  0
  189.4010  176.7450  146.9930 C   0  0  2  0  0  3  0  0  0  0  0  0
  190.8510  177.0570  147.3550 C   0  0  0  0  0  2  0  0  0  0  0  0
  191.7320  176.4240  146.4720 O   0  0  0  0  0  1  0  0  0  0  0  0
  1  2  2  0  0  0  0
  2 16  1  0  0  0  0
  4 18  1  1  0  0  0
  4  8  1  0  0  0  0
  4 16  1  0  0  0  0
  5 12  1  0  0  0  0
  5 10  1  0  0  0  0
  6 18  2  0  0  0  0
  6  1  1  0  0  0  0
  8 13  1  0  0  0  0
  9 11  1  0  0  0  0
 10 21  1  6  0  0  0
 10  9  1  0  0  0  0
 11  8  1  0  0  0  0
 12  7  1  1  0  0  0
 12 15  1  0  0  0  0
 13 29  1  0  0  0  0
 13  3  2  0  0  0  0
 14  2  1  0  0  0  0
 15  9  2  0  0  0  0
 15 18  1  0  0  0  0
 16 17  2  0  0  0  0
 17  3  1  0  0  0  0
 19 28  1  0  0  0  0
 20 19  2  0  0  0  0
 21 20  1  0  0  0  0
 22 24  1  0  0  0  0
 23 28  1  0  0  0  0
 23 25  1  0  0  0  0
 24 27  1  0  0  0  0
 25 26  1  0  0  0  0
 26 27  1  0  0  0  0
 28 22  1  0  0  0  0
 30 29  1  6  0  0  0
 30 32  1  0  0  0  0
 30 33  1  0  0  0  0
 32 31  1  0  0  0  0
 33 34  1  0  0  0  0
 34 39  1  0  0  0  0
 34 36  1  0  0  0  0
 35 42  1  0  0  0  0
 35 37  1  0  0  0  0
 36 38  2  0  0  0  0
 36 37  1  0  0  0  0
 37 40  2  0  0  0  0
 39 35  2  0  0  0  0
 40 43  1  0  0  0  0
 41 42  1  0  0  0  0
 43 45  1  0  0  0  0
 45 46  1  0  0  0  0
 45 44  1  1  0  0  0
 47 46  1  0  0  0  0
M  END
>  <MODEL>
8

>  <REMARK>
 VINA RESULT:      -8.1      3.380      8.582
  Name = 
  11 active torsions:
  status: ('A' for Active; 'I' for Inactive)
    1  A    between atoms: N_3  and  C_45
    2  A    between atoms: N_8  and  N_47
    3  A    between atoms: O_11  and  C_15
    4  A    between atoms: C_14  and  C_41
    5  A    between atoms: C_20  and  C_32
    6  A    between atoms: C_20  and  C_35
    7  A    between atoms: C_28  and  N_40
    8  A    between atoms: O_31  and  N_33
    9  A    between atoms: O_31  and  C_41
   10  A    between atoms: C_35  and  N_42
   11  A    between atoms: C_35  and  C_45
                            x       y       z     vdW  Elec       q    Type
                         _______ _______ _______ _____ _____    ______ ____

>  <TORSDO>
F 11

$$$$
=
 OpenBabel11032420463D

 47 52  0  0  1  0  0  0  0  0999 V2000
  180.1660  178.7710  140.7230 N   0  0  0  0  0  0  0  0  0  0  0  0
  180.4130  178.4740  139.3080 C   0  0  2  0  0  3  0  0  0  0  0  0
  183.7170  178.2020  137.3640 C   0  0  0  0  0  3  0  0  0  0  0  0
  182.8910  178.4390  140.0560 C   0  0  0  0  0  0  0  0  0  0  0  0
  184.9400  178.7940  144.6430 S   0  0  0  0  0  0  0  0  0  0  0  0
  181.0830  178.8170  141.6440 C   0  0  0  0  0  3  0  0  0  0  0  0
  182.1080  178.9730  144.3920 C   0  0  0  0  0  1  0  0  0  0  0  0
  184.2910  178.3050  139.7040 N   0  0  0  0  0  0  0  0  0  0  0  0
  184.9560  178.4600  142.0050 C   0  0  0  0  0  0  0  0  0  0  0  0
  185.9280  178.4850  143.1300 C   0  0  2  0  0  3  0  0  0  0  0  0
  185.3030  178.3120  140.7290 C   0  0  0  0  0  2  0  0  0  0  0  0
  183.4150  178.7930  143.6990 C   0  0  1  0  0  3  0  0  0  0  0  0
  184.6600  178.1890  138.3120 C   0  0  0  0  0  0  0  0  0  0  0  0
  179.7810  177.2100  138.9670 N   0  0  0  0  0  1  0  0  0  0  0  0
  183.5660  178.6300  142.3870 C   0  0  0  0  0  0  0  0  0  0  0  0
  181.8820  178.4190  138.9780 C   0  0  0  0  0  0  0  0  0  0  0  0
  182.2850  178.3130  137.7080 C   0  0  0  0  0  3  0  0  0  0  0  0
  182.5120  178.6090  141.3350 C   0  0  0  0  0  0  0  0  0  0  0  0
  188.2540  177.9470  144.7590 N   0  0  0  0  0  0  0  0  0  0  0  0
  187.7390  176.9810  144.0650 C   0  0  0  0  0  3  0  0  0  0  0  0
  186.5970  177.1960  143.2340 N   0  0  0  0  0  2  0  0  0  0  0  0
  189.2020  177.5170  147.0340 C   0  0  0  0  0  2  0  0  0  0  0  0
  190.6870  177.8310  144.9630 C   0  0  0  0  0  2  0  0  0  0  0  0
  190.5120  177.2500  147.7750 C   0  0  0  0  0  2  0  0  0  0  0  0
  191.2970  176.4390  144.8800 C   0  0  0  0  0  2  0  0  0  0  0  0
  192.0530  176.1060  146.1600 C   0  0  0  0  0  2  0  0  0  0  0  0
  191.1130  175.9170  147.3440 C   0  0  0  0  0  2  0  0  0  0  0  0
  189.3740  177.7730  145.5930 N   0  0  0  0  0  0  0  0  0  0  0  0
  186.0940  178.0740  137.9020 C   0  0  0  0  0  2  0  0  0  0  0  0
  186.2420  177.0520  136.7740 C   0  0  1  0  0  3  0  0  0  0  0  0
  187.7850  178.6420  135.8010 C   0  0  0  0  0  1  0  0  0  0  0  0
  186.7820  177.6150  135.5320 N   0  0  0  0  0  2  0  0  0  0  0  0
  186.9220  175.7440  137.1940 C   0  0  0  0  0  2  0  0  0  0  0  0
  188.2820  175.9550  137.6670 N   0  0  0  0  0  0  0  0  0  0  0  0
  189.9940  176.8520  138.8700 C   0  0  0  0  0  0  0  0  0  0  0  0
  189.4810  175.5540  137.0220 C   0  0  0  0  0  0  0  0  0  0  0  0
  190.6000  176.0960  137.7660 C   0  0  0  0  0  0  0  0  0  0  0  0
  189.5350  174.8780  135.9570 O   0  0  0  0  0  0  0  0  0  0  0  0
  188.6650  176.7650  138.7860 C   0  0  0  0  0  3  0  0  0  0  0  0
  191.8640  175.9430  137.5270 N   0  0  0  0  0  0  0  0  0  0  0  0
  190.7020  177.1280  141.2220 C   0  0  0  0  0  1  0  0  0  0  0  0
  190.6540  177.5690  139.8730 O   0  0  0  0  0  0  0  0  0  0  0  0
  192.3080  175.2060  136.4520 O   0  0  0  0  0  0  0  0  0  0  0  0
  194.3540  174.8990  137.6750 C   0  0  0  0  0  1  0  0  0  0  0  0
  193.6880  174.9100  136.3100 C   0  0  2  0  0  3  0  0  0  0  0  0
  194.3630  175.9270  135.3940 C   0  0  0  0  0  2  0  0  0  0  0  0
  194.6810  177.0950  136.0960 O   0  0  0  0  0  1  0  0  0  0  0  0
  1  6  2  0  0  0  0
  2 14  1  1  0  0  0
  2  1  1  0  0  0  0
  3 17  1  0  0  0  0
  3 13  2  0  0  0  0
  4 18  2  0  0  0  0
  8  4  1  0  0  0  0
  8 11  1  0  0  0  0
  9 15  2  0  0  0  0
  9 10  1  0  0  0  0
 10 21  1  1  0  0  0
 10  5  1  0  0  0  0
 11  9  1  0  0  0  0
 12  7  1  6  0  0  0
 12  5  1  0  0  0  0
 13  8  1  0  0  0  0
 15 12  1  0  0  0  0
 16  2  1  0  0  0  0
 16  4  1  0  0  0  0
 17 16  2  0  0  0  0
 18  6  1  0  0  0  0
 18 15  1  0  0  0  0
 19 28  1  0  0  0  0
 20 19  2  0  0  0  0
 21 20  1  0  0  0  0
 22 24  1  0  0  0  0
 23 28  1  0  0  0  0
 25 23  1  0  0  0  0
 25 26  1  0  0  0  0
 26 27  1  0  0  0  0
 27 24  1  0  0  0  0
 28 22  1  0  0  0  0
 29 13  1  0  0  0  0
 30 33  1  1  0  0  0
 30 29  1  0  0  0  0
 32 31  1  0  0  0  0
 32 30  1  0  0  0  0
 33 34  1  0  0  0  0
 34 39  1  0  0  0  0
 35 42  1  0  0  0  0
 36 34  1  0  0  0  0
 36 37  1  0  0  0  0
 37 35  1  0  0  0  0
 38 36  2  0  0  0  0
 39 35  2  0  0  0  0
 40 37  2  0  0  0  0
 42 41  1  0  0  0  0
 43 40  1  0  0  0  0
 45 43  1  0  0  0  0
 45 44  1  1  0  0  0
 46 47  1  0  0  0  0
 46 45  1  0  0  0  0
M  END
>  <MODEL>
9

>  <REMARK>
 VINA RESULT:      -8.0      2.264      6.804
  Name = 
  11 active torsions:
  status: ('A' for Active; 'I' for Inactive)
    1  A    between atoms: N_3  and  C_45
    2  A    between atoms: N_8  and  N_47
    3  A    between atoms: O_11  and  C_15
    4  A    between atoms: C_14  and  C_41
    5  A    between atoms: C_20  and  C_32
    6  A    between atoms: C_20  and  C_35
    7  A    between atoms: C_28  and  N_40
    8  A    between atoms: O_31  and  N_33
    9  A    between atoms: O_31  and  C_41
   10  A    between atoms: C_35  and  N_42
   11  A    between atoms: C_35  and  C_45
                            x       y       z     vdW  Elec       q    Type
                         _______ _______ _______ _____ _____    ______ ____

>  <TORSDO>
F 11

$$$$
