=
 OpenBabel11032420373D

 27 29  0  0  1  0  0  0  0  0999 V2000
  189.4510  177.5220  143.9880 C   0  0  2  0  0  3  0  0  0  0  0  0
  186.9630  177.9780  143.9390 C   0  0  0  0  0  3  0  0  0  0  0  0
  186.8680  177.8950  146.7220 C   0  0  0  0  0  3  0  0  0  0  0  0
  188.0810  177.6950  146.0620 C   0  0  0  0  0  3  0  0  0  0  0  0
  185.7030  178.1370  145.9910 C   0  0  0  0  0  3  0  0  0  0  0  0
  185.7380  178.1820  144.5920 C   0  0  0  0  0  0  0  0  0  0  0  0
  188.1340  177.7360  144.6710 C   0  0  0  0  0  0  0  0  0  0  0  0
  184.5010  178.4160  143.8160 C   0  0  0  0  0  0  0  0  0  0  0  0
  182.1860  178.8650  142.3310 C   0  0  0  0  0  3  0  0  0  0  0  0
  182.1500  179.0190  143.7160 C   0  0  0  0  0  3  0  0  0  0  0  0
  183.3450  178.5000  141.7140 N   0  0  0  0  0  0  0  0  0  0  0  0
  184.4870  178.2760  142.4180 C   0  0  0  0  0  3  0  0  0  0  0  0
  183.3130  178.7930  144.4570 C   0  0  0  0  0  3  0  0  0  0  0  0
  190.6820  177.6990  144.8990 C   0  0  2  0  0  3  0  0  0  0  0  0
  191.6230  179.1530  144.3480 S   0  0  0  0  0  1  0  0  0  0  0  0
  191.5190  176.5820  144.8630 O   0  0  0  0  0  0  0  0  0  0  0  0
  191.8260  176.3230  146.2030 C   0  0  0  0  0  1  0  0  0  0  0  0
  189.4940  178.2690  142.6410 C   0  0  0  0  0  2  0  0  0  0  0  0
  190.7780  176.2140  139.8890 O   0  0  0  0  0  0  0  0  0  0  0  0
  190.7540  176.8950  140.9490 C   0  0  0  0  0  0  0  0  0  0  0  0
  189.5110  177.3980  141.4680 N   0  0  0  0  0  0  0  0  0  0  0  0
  191.9460  177.1600  141.6060 O   0  0  0  0  0  1  0  0  0  0  0  0
  188.2950  177.3280  140.6670 C   0  0  0  0  0  2  0  0  0  0  0  0
  187.9920  176.6290  138.0960 O   0  0  0  0  0  1  0  0  0  0  0  0
  187.0000  178.4780  139.0140 O   0  0  0  0  0  0  0  0  0  0  0  0
  188.0760  178.0180  138.2300 C   0  0  1  0  0  3  0  0  0  0  0  0
  188.2590  178.4610  139.6460 C   0  0  2  0  0  3  0  0  0  0  0  0
  1 18  1  6  0  0  0
  1  7  1  0  0  0  0
  1 14  1  0  0  0  0
  2  6  2  0  0  0  0
  2  7  1  0  0  0  0
  4  3  1  0  0  0  0
  5  3  2  0  0  0  0
  6  5  1  0  0  0  0
  7  4  2  0  0  0  0
  8 13  1  0  0  0  0
  8  6  1  0  0  0  0
  9 10  1  0  0  0  0
 10 13  2  0  0  0  0
 11  9  2  0  0  0  0
 11 12  1  0  0  0  0
 12  8  2  0  0  0  0
 14 15  1  6  0  0  0
 16 14  1  0  0  0  0
 16 17  1  0  0  0  0
 19 20  2  0  0  0  0
 20 21  1  0  0  0  0
 20 22  1  0  0  0  0
 21 18  1  0  0  0  0
 23 21  1  0  0  0  0
 25 27  1  0  0  0  0
 26 24  1  1  0  0  0
 26 25  1  0  0  0  0
 26 27  1  0  0  0  0
 27 23  1  1  0  0  0
M  END
>  <MODEL>
1

>  <REMARK>
 VINA RESULT:      -8.2      0.000      0.000
  Name = 
  8 active torsions:
  status: ('A' for Active; 'I' for Inactive)
    1  A    between atoms: C_1  and  N_17
    2  A    between atoms: C_1  and  C_26
    3  A    between atoms: O_5  and  C_8
    4  A    between atoms: C_6  and  C_22
    5  A    between atoms: C_8  and  C_24
    6  A    between atoms: C_14  and  N_17
    7  A    between atoms: C_14  and  C_24
    8  A    between atoms: C_24  and  C_27
                            x       y       z     vdW  Elec       q    Type
                         _______ _______ _______ _____ _____    ______ ____

>  <TORSDO>
F 8

$$$$
=
 OpenBabel11032420373D

 27 29  0  0  1  0  0  0  0  0999 V2000
  189.0160  177.1630  142.9980 C   0  0  2  0  0  3  0  0  0  0  0  0
  186.5910  177.8090  143.3210 C   0  0  0  0  0  3  0  0  0  0  0  0
  186.9540  177.8850  146.0820 C   0  0  0  0  0  3  0  0  0  0  0  0
  188.0230  177.5550  145.2500 C   0  0  0  0  0  3  0  0  0  0  0  0
  185.7020  178.1780  145.5340 C   0  0  0  0  0  3  0  0  0  0  0  0
  185.5090  178.1440  144.1480 C   0  0  0  0  0  0  0  0  0  0  0  0
  187.8490  177.5160  143.8690 C   0  0  0  0  0  0  0  0  0  0  0  0
  184.1790  178.4310  143.5680 C   0  0  0  0  0  0  0  0  0  0  0  0
  181.6870  178.9830  142.4500 C   0  0  0  0  0  3  0  0  0  0  0  0
  181.8460  179.0510  143.8340 C   0  0  0  0  0  3  0  0  0  0  0  0
  182.7430  178.6510  141.6570 N   0  0  0  0  0  0  0  0  0  0  0  0
  183.9690  178.3790  142.1800 C   0  0  0  0  0  3  0  0  0  0  0  0
  183.0970  178.7730  144.3900 C   0  0  0  0  0  3  0  0  0  0  0  0
  190.2920  176.7680  143.7670 C   0  0  2  0  0  3  0  0  0  0  0  0
  191.5090  178.1090  143.6250 S   0  0  0  0  0  1  0  0  0  0  0  0
  190.8570  175.5930  143.2650 O   0  0  0  0  0  0  0  0  0  0  0  0
  191.8780  175.2740  144.1680 C   0  0  0  0  0  1  0  0  0  0  0  0
  189.1980  178.2060  141.8790 C   0  0  0  0  0  2  0  0  0  0  0  0
  187.7730  177.4350  138.5900 O   0  0  0  0  0  0  0  0  0  0  0  0
  187.9200  177.9670  139.7230 C   0  0  0  0  0  0  0  0  0  0  0  0
  189.0750  177.6680  140.5260 N   0  0  0  0  0  0  0  0  0  0  0  0
  186.9490  178.8390  140.1890 O   0  0  0  0  0  1  0  0  0  0  0  0
  189.9720  176.5820  140.1530 C   0  0  0  0  0  2  0  0  0  0  0  0
  191.1230  174.9660  138.3480 O   0  0  0  0  0  1  0  0  0  0  0  0
  190.9180  177.2270  138.0490 O   0  0  0  0  0  0  0  0  0  0  0  0
  191.7940  176.1900  138.4230 C   0  0  1  0  0  3  0  0  0  0  0  0
  191.1990  177.1250  139.4260 C   0  0  2  0  0  3  0  0  0  0  0  0
  1 18  1  1  0  0  0
  1 14  1  0  0  0  0
  1  7  1  0  0  0  0
  2  7  2  0  0  0  0
  2  6  1  0  0  0  0
  4  3  2  0  0  0  0
  5  3  1  0  0  0  0
  6  5  2  0  0  0  0
  7  4  1  0  0  0  0
  8  6  1  0  0  0  0
  8 13  1  0  0  0  0
  9 10  1  0  0  0  0
 10 13  2  0  0  0  0
 11 12  1  0  0  0  0
 11  9  2  0  0  0  0
 12  8  2  0  0  0  0
 14 15  1  6  0  0  0
 16 14  1  0  0  0  0
 16 17  1  0  0  0  0
 19 20  2  0  0  0  0
 20 22  1  0  0  0  0
 20 21  1  0  0  0  0
 21 18  1  0  0  0  0
 23 21  1  0  0  0  0
 25 26  1  0  0  0  0
 25 27  1  0  0  0  0
 26 24  1  1  0  0  0
 26 27  1  0  0  0  0
 27 23  1  1  0  0  0
M  END
>  <MODEL>
2

>  <REMARK>
 VINA RESULT:      -8.0      1.253      2.236
  Name = 
  8 active torsions:
  status: ('A' for Active; 'I' for Inactive)
    1  A    between atoms: C_1  and  N_17
    2  A    between atoms: C_1  and  C_26
    3  A    between atoms: O_5  and  C_8
    4  A    between atoms: C_6  and  C_22
    5  A    between atoms: C_8  and  C_24
    6  A    between atoms: C_14  and  N_17
    7  A    between atoms: C_14  and  C_24
    8  A    between atoms: C_24  and  C_27
                            x       y       z     vdW  Elec       q    Type
                         _______ _______ _______ _____ _____    ______ ____

>  <TORSDO>
F 8

$$$$
=
 OpenBabel11032420373D

 27 29  0  0  1  0  0  0  0  0999 V2000
  185.3390  179.0070  141.5760 C   0  0  2  0  0  3  0  0  0  0  0  0
  186.1190  178.5300  143.9350 C   0  0  0  0  0  3  0  0  0  0  0  0
  183.5470  178.9840  144.9040 C   0  0  0  0  0  3  0  0  0  0  0  0
  183.8060  179.1030  143.5390 C   0  0  0  0  0  3  0  0  0  0  0  0
  184.5740  178.6370  145.7860 C   0  0  0  0  0  3  0  0  0  0  0  0
  185.8700  178.4060  145.3100 C   0  0  0  0  0  0  0  0  0  0  0  0
  185.0890  178.8760  143.0480 C   0  0  0  0  0  0  0  0  0  0  0  0
  186.9640  178.0610  146.2450 C   0  0  0  0  0  0  0  0  0  0  0  0
  189.0160  177.4350  148.0220 C   0  0  0  0  0  3  0  0  0  0  0  0
  189.1550  177.1060  146.6740 C   0  0  0  0  0  3  0  0  0  0  0  0
  187.8870  178.0600  148.4600 N   0  0  0  0  0  0  0  0  0  0  0  0
  186.8730  178.3750  147.6110 C   0  0  0  0  0  3  0  0  0  0  0  0
  188.1230  177.4210  145.7870 C   0  0  0  0  0  3  0  0  0  0  0  0
  184.0680  179.2040  140.7260 C   0  0  2  0  0  3  0  0  0  0  0  0
  183.4450  177.5780  140.2050 S   0  0  0  0  0  1  0  0  0  0  0  0
  184.3190  179.9740  139.5890 O   0  0  0  0  0  0  0  0  0  0  0  0
  183.1470  179.8810  138.8290 C   0  0  0  0  0  1  0  0  0  0  0  0
  186.3140  177.9180  141.0890 C   0  0  0  0  0  2  0  0  0  0  0  0
  188.9480  178.9260  138.7450 O   0  0  0  0  0  1  0  0  0  0  0  0
  187.8200  178.5660  139.1790 C   0  0  0  0  0  0  0  0  0  0  0  0
  187.5900  178.4300  140.5910 N   0  0  0  0  0  0  0  0  0  0  0  0
  186.8060  178.2940  138.2730 O   0  0  0  0  0  0  0  0  0  0  0  0
  188.7030  178.4820  141.5300 C   0  0  0  0  0  2  0  0  0  0  0  0
  191.0870  177.4440  140.8700 O   0  0  0  0  0  1  0  0  0  0  0  0
  190.1280  177.1630  142.9310 O   0  0  0  0  0  0  0  0  0  0  0  0
  190.3640  176.5620  141.6800 C   0  0  1  0  0  3  0  0  0  0  0  0
  189.0190  177.0890  142.0660 C   0  0  2  0  0  3  0  0  0  0  0  0
  1 18  1  6  0  0  0
  1  7  1  0  0  0  0
  2  6  1  0  0  0  0
  3  5  1  0  0  0  0
  4  3  2  0  0  0  0
  6  5  2  0  0  0  0
  6  8  1  0  0  0  0
  7  4  1  0  0  0  0
  7  2  2  0  0  0  0
  8 12  1  0  0  0  0
  9 11  1  0  0  0  0
 10  9  2  0  0  0  0
 12 11  2  0  0  0  0
 13  8  2  0  0  0  0
 13 10  1  0  0  0  0
 14 15  1  6  0  0  0
 14  1  1  0  0  0  0
 16 14  1  0  0  0  0
 17 16  1  0  0  0  0
 19 20  1  0  0  0  0
 20 21  1  0  0  0  0
 21 18  1  0  0  0  0
 21 23  1  0  0  0  0
 22 20  2  0  0  0  0
 26 24  1  6  0  0  0
 26 27  1  0  0  0  0
 26 25  1  0  0  0  0
 27 23  1  6  0  0  0
 27 25  1  0  0  0  0
M  END
>  <MODEL>
3

>  <REMARK>
 VINA RESULT:      -7.8      2.775      5.791
  Name = 
  8 active torsions:
  status: ('A' for Active; 'I' for Inactive)
    1  A    between atoms: C_1  and  N_17
    2  A    between atoms: C_1  and  C_26
    3  A    between atoms: O_5  and  C_8
    4  A    between atoms: C_6  and  C_22
    5  A    between atoms: C_8  and  C_24
    6  A    between atoms: C_14  and  N_17
    7  A    between atoms: C_14  and  C_24
    8  A    between atoms: C_24  and  C_27
                            x       y       z     vdW  Elec       q    Type
                         _______ _______ _______ _____ _____    ______ ____

>  <TORSDO>
F 8

$$$$
=
 OpenBabel11032420373D

 27 29  0  0  1  0  0  0  0  0999 V2000
  188.1360  177.2780  145.5380 C   0  0  2  0  0  3  0  0  0  0  0  0
  186.2960  178.0310  143.9740 C   0  0  0  0  0  3  0  0  0  0  0  0
  184.6150  178.5100  146.1430 C   0  0  0  0  0  3  0  0  0  0  0  0
  185.9060  178.0300  146.3590 C   0  0  0  0  0  3  0  0  0  0  0  0
  184.1630  178.7520  144.8440 C   0  0  0  0  0  3  0  0  0  0  0  0
  184.9990  178.5150  143.7460 C   0  0  0  0  0  0  0  0  0  0  0  0
  186.7520  177.7900  145.2780 C   0  0  0  0  0  0  0  0  0  0  0  0
  184.5150  178.7480  142.3680 C   0  0  0  0  0  0  0  0  0  0  0  0
  183.6210  179.2090  139.7690 C   0  0  0  0  0  3  0  0  0  0  0  0
  182.7200  178.7560  140.7310 C   0  0  0  0  0  3  0  0  0  0  0  0
  184.9250  179.4250  140.1020 N   0  0  0  0  0  0  0  0  0  0  0  0
  185.3830  179.2070  141.3640 C   0  0  0  0  0  3  0  0  0  0  0  0
  183.1720  178.5260  142.0330 C   0  0  0  0  0  3  0  0  0  0  0  0
  188.4450  176.9910  147.0210 C   0  0  2  0  0  3  0  0  0  0  0  0
  188.7540  178.5630  147.8780 S   0  0  0  0  0  1  0  0  0  0  0  0
  189.5660  176.1710  147.1680 O   0  0  0  0  0  0  0  0  0  0  0  0
  190.5560  177.0110  147.6910 C   0  0  0  0  0  1  0  0  0  0  0  0
  189.1810  178.1220  144.7820 C   0  0  0  0  0  2  0  0  0  0  0  0
  192.1180  176.8560  142.9890 O   0  0  0  0  0  0  0  0  0  0  0  0
  191.4230  177.4380  143.8650 C   0  0  0  0  0  0  0  0  0  0  0  0
  189.9880  177.3670  143.8260 N   0  0  0  0  0  0  0  0  0  0  0  0
  192.0630  178.1550  144.8650 O   0  0  0  0  0  1  0  0  0  0  0  0
  189.3080  176.8220  142.6580 C   0  0  0  0  0  2  0  0  0  0  0  0
  190.3900  176.2800  140.2640 O   0  0  0  0  0  1  0  0  0  0  0  0
  188.3910  177.3700  140.5140 O   0  0  0  0  0  0  0  0  0  0  0  0
  189.7670  177.5320  140.2600 C   0  0  1  0  0  3  0  0  0  0  0  0
  189.1570  177.8890  141.5780 C   0  0  2  0  0  3  0  0  0  0  0  0
  1 18  1  1  0  0  0
  1 14  1  0  0  0  0
  2  7  1  0  0  0  0
  3  4  1  0  0  0  0
  5  3  2  0  0  0  0
  6  2  2  0  0  0  0
  6  5  1  0  0  0  0
  7  1  1  0  0  0  0
  7  4  2  0  0  0  0
  8  6  1  0  0  0  0
  9 11  2  0  0  0  0
  9 10  1  0  0  0  0
 10 13  2  0  0  0  0
 11 12  1  0  0  0  0
 12  8  2  0  0  0  0
 13  8  1  0  0  0  0
 14 16  1  0  0  0  0
 14 15  1  1  0  0  0
 16 17  1  0  0  0  0
 19 20  2  0  0  0  0
 20 22  1  0  0  0  0
 21 20  1  0  0  0  0
 21 18  1  0  0  0  0
 23 21  1  0  0  0  0
 25 27  1  0  0  0  0
 26 24  1  1  0  0  0
 26 25  1  0  0  0  0
 26 27  1  0  0  0  0
 27 23  1  1  0  0  0
M  END
>  <MODEL>
4

>  <REMARK>
 VINA RESULT:      -7.8      1.800      2.576
  Name = 
  8 active torsions:
  status: ('A' for Active; 'I' for Inactive)
    1  A    between atoms: C_1  and  N_17
    2  A    between atoms: C_1  and  C_26
    3  A    between atoms: O_5  and  C_8
    4  A    between atoms: C_6  and  C_22
    5  A    between atoms: C_8  and  C_24
    6  A    between atoms: C_14  and  N_17
    7  A    between atoms: C_14  and  C_24
    8  A    between atoms: C_24  and  C_27
                            x       y       z     vdW  Elec       q    Type
                         _______ _______ _______ _____ _____    ______ ____

>  <TORSDO>
F 8

$$$$
=
 OpenBabel11032420373D

 27 29  0  0  1  0  0  0  0  0999 V2000
  188.3190  178.2650  140.1780 C   0  0  2  0  0  3  0  0  0  0  0  0
  187.1830  178.2980  142.4380 C   0  0  0  0  0  3  0  0  0  0  0  0
  184.7190  178.7520  141.2200 C   0  0  0  0  0  3  0  0  0  0  0  0
  185.8670  178.6270  140.4380 C   0  0  0  0  0  3  0  0  0  0  0  0
  184.8020  178.6490  142.6110 C   0  0  0  0  0  3  0  0  0  0  0  0
  186.0350  178.4210  143.2340 C   0  0  0  0  0  0  0  0  0  0  0  0
  187.1020  178.3990  141.0410 C   0  0  0  0  0  0  0  0  0  0  0  0
  186.1280  178.3350  144.7080 C   0  0  0  0  0  0  0  0  0  0  0  0
  186.2910  178.2010  147.4860 C   0  0  0  0  0  3  0  0  0  0  0  0
  187.2320  177.5220  146.7120 C   0  0  0  0  0  3  0  0  0  0  0  0
  185.3050  178.9230  146.8850 N   0  0  0  0  0  0  0  0  0  0  0  0
  185.2060  179.0030  145.5310 C   0  0  0  0  0  3  0  0  0  0  0  0
  187.1460  177.5920  145.3200 C   0  0  0  0  0  3  0  0  0  0  0  0
  188.0420  178.3410  138.6630 C   0  0  2  0  0  3  0  0  0  0  0  0
  188.0880  176.6630  137.9670 S   0  0  0  0  0  1  0  0  0  0  0  0
  188.9870  179.1270  138.0020 O   0  0  0  0  0  0  0  0  0  0  0  0
  189.0520  178.5950  136.7090 C   0  0  0  0  0  1  0  0  0  0  0  0
  189.1930  177.0850  140.6460 C   0  0  0  0  0  2  0  0  0  0  0  0
  192.8220  177.5030  140.3310 O   0  0  0  0  0  1  0  0  0  0  0  0
  191.6240  177.2710  140.0180 C   0  0  0  0  0  0  0  0  0  0  0  0
  190.5690  177.4480  140.9790 N   0  0  0  0  0  0  0  0  0  0  0  0
  191.3370  176.8340  138.7340 O   0  0  0  0  0  0  0  0  0  0  0  0
  190.8810  177.6750  142.3840 C   0  0  0  0  0  2  0  0  0  0  0  0
  191.6810  177.7800  144.9420 O   0  0  0  0  0  1  0  0  0  0  0  0
  190.0180  176.3860  144.2080 O   0  0  0  0  0  0  0  0  0  0  0  0
  191.3780  176.4670  144.5660 C   0  0  1  0  0  3  0  0  0  0  0  0
  190.9380  176.3520  143.1420 C   0  0  2  0  0  3  0  0  0  0  0  0
  1 18  1  6  0  0  0
  1  7  1  0  0  0  0
  2  6  1  0  0  0  0
  3  5  1  0  0  0  0
  4  7  1  0  0  0  0
  4  3  2  0  0  0  0
  5  6  2  0  0  0  0
  6  8  1  0  0  0  0
  7  2  2  0  0  0  0
  8 13  2  0  0  0  0
  8 12  1  0  0  0  0
 10  9  2  0  0  0  0
 11  9  1  0  0  0  0
 12 11  2  0  0  0  0
 13 10  1  0  0  0  0
 14 15  1  6  0  0  0
 14  1  1  0  0  0  0
 16 14  1  0  0  0  0
 17 16  1  0  0  0  0
 18 21  1  0  0  0  0
 20 19  1  0  0  0  0
 20 21  1  0  0  0  0
 21 23  1  0  0  0  0
 22 20  2  0  0  0  0
 25 26  1  0  0  0  0
 26 24  1  6  0  0  0
 27 23  1  6  0  0  0
 27 25  1  0  0  0  0
 27 26  1  0  0  0  0
M  END
>  <MODEL>
5

>  <REMARK>
 VINA RESULT:      -7.5      2.378      5.253
  Name = 
  8 active torsions:
  status: ('A' for Active; 'I' for Inactive)
    1  A    between atoms: C_1  and  N_17
    2  A    between atoms: C_1  and  C_26
    3  A    between atoms: O_5  and  C_8
    4  A    between atoms: C_6  and  C_22
    5  A    between atoms: C_8  and  C_24
    6  A    between atoms: C_14  and  N_17
    7  A    between atoms: C_14  and  C_24
    8  A    between atoms: C_24  and  C_27
                            x       y       z     vdW  Elec       q    Type
                         _______ _______ _______ _____ _____    ______ ____

>  <TORSDO>
F 8

$$$$
=
 OpenBabel11032420373D

 27 29  0  0  1  0  0  0  0  0999 V2000
  186.9760  178.2150  143.2510 C   0  0  2  0  0  3  0  0  0  0  0  0
  184.5190  178.4220  142.6860 C   0  0  0  0  0  3  0  0  0  0  0  0
  185.1490  178.9390  140.0230 C   0  0  0  0  0  3  0  0  0  0  0  0
  186.1700  178.7160  140.9470 C   0  0  0  0  0  3  0  0  0  0  0  0
  183.8130  178.9040  140.4290 C   0  0  0  0  0  3  0  0  0  0  0  0
  183.4840  178.6440  141.7650 C   0  0  0  0  0  0  0  0  0  0  0  0
  185.8600  178.4550  142.2800 C   0  0  0  0  0  0  0  0  0  0  0  0
  182.0710  178.6290  142.2020 C   0  0  0  0  0  0  0  0  0  0  0  0
  179.4020  178.6150  143.0010 C   0  0  0  0  0  3  0  0  0  0  0  0
  180.4050  178.6270  143.9690 C   0  0  0  0  0  3  0  0  0  0  0  0
  179.7290  178.6130  141.6780 N   0  0  0  0  0  0  0  0  0  0  0  0
  181.0250  178.6200  141.2650 C   0  0  0  0  0  3  0  0  0  0  0  0
  181.7420  178.6330  143.5640 C   0  0  0  0  0  3  0  0  0  0  0  0
  188.2760  177.6840  142.6150 C   0  0  2  0  0  3  0  0  0  0  0  0
  188.5900  176.0010  143.2250 S   0  0  0  0  0  1  0  0  0  0  0  0
  189.3730  178.4880  142.9300 O   0  0  0  0  0  0  0  0  0  0  0  0
  190.4890  177.6820  142.6790 C   0  0  0  0  0  1  0  0  0  0  0  0
  186.4670  177.4480  144.4870 C   0  0  0  0  0  2  0  0  0  0  0  0
  185.9200  179.5500  147.4410 O   0  0  0  0  0  1  0  0  0  0  0  0
  185.6820  178.8990  146.3890 C   0  0  0  0  0  0  0  0  0  0  0  0
  186.7160  178.1230  145.7600 N   0  0  0  0  0  0  0  0  0  0  0  0
  184.4100  178.9480  145.8400 O   0  0  0  0  0  0  0  0  0  0  0  0
  188.1020  178.2540  146.1900 C   0  0  0  0  0  2  0  0  0  0  0  0
  190.6110  177.3070  146.2400 O   0  0  0  0  0  1  0  0  0  0  0  0
  189.4070  177.7570  148.1360 O   0  0  0  0  0  0  0  0  0  0  0  0
  189.8420  176.7420  147.2620 C   0  0  1  0  0  3  0  0  0  0  0  0
  188.4280  177.2280  147.2700 C   0  0  2  0  0  3  0  0  0  0  0  0
  1 18  1  1  0  0  0
  3  5  2  0  0  0  0
  3  4  1  0  0  0  0
  4  7  2  0  0  0  0
  5  6  1  0  0  0  0
  6  8  1  0  0  0  0
  6  2  2  0  0  0  0
  7  2  1  0  0  0  0
  7  1  1  0  0  0  0
  8 13  1  0  0  0  0
  9 10  1  0  0  0  0
 11  9  2  0  0  0  0
 12 11  1  0  0  0  0
 12  8  2  0  0  0  0
 13 10  2  0  0  0  0
 14 16  1  0  0  0  0
 14 15  1  1  0  0  0
 14  1  1  0  0  0  0
 17 16  1  0  0  0  0
 18 21  1  0  0  0  0
 20 19  1  0  0  0  0
 21 23  1  0  0  0  0
 21 20  1  0  0  0  0
 22 20  2  0  0  0  0
 26 24  1  6  0  0  0
 26 27  1  0  0  0  0
 26 25  1  0  0  0  0
 27 23  1  6  0  0  0
 27 25  1  0  0  0  0
M  END
>  <MODEL>
6

>  <REMARK>
 VINA RESULT:      -7.1      2.968      5.688
  Name = 
  8 active torsions:
  status: ('A' for Active; 'I' for Inactive)
    1  A    between atoms: C_1  and  N_17
    2  A    between atoms: C_1  and  C_26
    3  A    between atoms: O_5  and  C_8
    4  A    between atoms: C_6  and  C_22
    5  A    between atoms: C_8  and  C_24
    6  A    between atoms: C_14  and  N_17
    7  A    between atoms: C_14  and  C_24
    8  A    between atoms: C_24  and  C_27
                            x       y       z     vdW  Elec       q    Type
                         _______ _______ _______ _____ _____    ______ ____

>  <TORSDO>
F 8

$$$$
=
 OpenBabel11032420373D

 27 29  0  0  1  0  0  0  0  0999 V2000
  182.7750  179.0030  142.6880 C   0  0  2  0  0  3  0  0  0  0  0  0
  185.0700  178.2640  143.4550 C   0  0  0  0  0  3  0  0  0  0  0  0
  184.3520  178.7060  146.1100 C   0  0  0  0  0  3  0  0  0  0  0  0
  183.4320  178.9530  145.0910 C   0  0  0  0  0  3  0  0  0  0  0  0
  185.6310  178.2370  145.8020 C   0  0  0  0  0  3  0  0  0  0  0  0
  186.0030  178.0100  144.4710 C   0  0  0  0  0  0  0  0  0  0  0  0
  183.7850  178.7330  143.7620 C   0  0  0  0  0  0  0  0  0  0  0  0
  187.3650  177.5360  144.1410 C   0  0  0  0  0  0  0  0  0  0  0  0
  189.9180  176.6240  143.5000 C   0  0  0  0  0  3  0  0  0  0  0  0
  189.6420  177.0190  144.8090 C   0  0  0  0  0  3  0  0  0  0  0  0
  188.9450  176.6830  142.5490 N   0  0  0  0  0  0  0  0  0  0  0  0
  187.6920  177.1240  142.8390 C   0  0  0  0  0  3  0  0  0  0  0  0
  188.3610  177.4760  145.1250 C   0  0  0  0  0  3  0  0  0  0  0  0
  181.3140  179.0390  143.1760 C   0  0  2  0  0  3  0  0  0  0  0  0
  180.3600  177.7710  142.2900 S   0  0  0  0  0  1  0  0  0  0  0  0
  180.7230  180.2840  142.9520 O   0  0  0  0  0  0  0  0  0  0  0  0
  179.3460  180.0360  142.9820 C   0  0  0  0  0  1  0  0  0  0  0  0
  183.0510  178.1300  141.4480 C   0  0  0  0  0  2  0  0  0  0  0  0
  184.5640  180.1090  138.7570 O   0  0  0  0  0  0  0  0  0  0  0  0
  184.4620  179.3910  139.7880 C   0  0  0  0  0  0  0  0  0  0  0  0
  183.1840  178.8790  140.2000 N   0  0  0  0  0  0  0  0  0  0  0  0
  185.6020  179.1070  140.5260 O   0  0  0  0  0  1  0  0  0  0  0  0
  181.9590  179.3620  139.5750 C   0  0  0  0  0  2  0  0  0  0  0  0
  181.1350  180.2400  137.1790 O   0  0  0  0  0  1  0  0  0  0  0  0
  182.2200  178.2450  137.4730 O   0  0  0  0  0  0  0  0  0  0  0  0
  180.9650  178.8570  137.2900 C   0  0  1  0  0  3  0  0  0  0  0  0
  181.3980  178.3170  138.6150 C   0  0  2  0  0  3  0  0  0  0  0  0
  1 18  1  6  0  0  0
  1 14  1  0  0  0  0
  1  7  1  0  0  0  0
  2  7  2  0  0  0  0
  2  6  1  0  0  0  0
  4  3  2  0  0  0  0
  5  3  1  0  0  0  0
  6  5  2  0  0  0  0
  7  4  1  0  0  0  0
  8  6  1  0  0  0  0
  8 13  1  0  0  0  0
  9 10  1  0  0  0  0
 10 13  2  0  0  0  0
 11 12  1  0  0  0  0
 11  9  2  0  0  0  0
 12  8  2  0  0  0  0
 14 15  1  6  0  0  0
 16 17  1  0  0  0  0
 16 14  1  0  0  0  0
 19 20  2  0  0  0  0
 20 21  1  0  0  0  0
 20 22  1  0  0  0  0
 21 18  1  0  0  0  0
 23 21  1  0  0  0  0
 25 27  1  0  0  0  0
 26 24  1  1  0  0  0
 26 25  1  0  0  0  0
 26 27  1  0  0  0  0
 27 23  1  1  0  0  0
M  END
>  <MODEL>
7

>  <REMARK>
 VINA RESULT:      -7.0      3.674      6.996
  Name = 
  8 active torsions:
  status: ('A' for Active; 'I' for Inactive)
    1  A    between atoms: C_1  and  N_17
    2  A    between atoms: C_1  and  C_26
    3  A    between atoms: O_5  and  C_8
    4  A    between atoms: C_6  and  C_22
    5  A    between atoms: C_8  and  C_24
    6  A    between atoms: C_14  and  N_17
    7  A    between atoms: C_14  and  C_24
    8  A    between atoms: C_24  and  C_27
                            x       y       z     vdW  Elec       q    Type
                         _______ _______ _______ _____ _____    ______ ____

>  <TORSDO>
F 8

$$$$
=
 OpenBabel11032420373D

 27 29  0  0  1  0  0  0  0  0999 V2000
  183.3190  178.5360  141.1420 C   0  0  2  0  0  3  0  0  0  0  0  0
  185.0060  178.1980  142.9960 C   0  0  0  0  0  3  0  0  0  0  0  0
  183.1360  179.0330  144.8840 C   0  0  0  0  0  3  0  0  0  0  0  0
  182.7890  178.9920  143.5340 C   0  0  0  0  0  3  0  0  0  0  0  0
  184.4180  178.6560  145.2910 C   0  0  0  0  0  3  0  0  0  0  0  0
  185.3660  178.2340  144.3510 C   0  0  0  0  0  0  0  0  0  0  0  0
  183.7190  178.5750  142.5850 C   0  0  0  0  0  0  0  0  0  0  0  0
  186.7310  177.8560  144.7780 C   0  0  0  0  0  0  0  0  0  0  0  0
  189.3040  177.1250  145.5590 C   0  0  0  0  0  3  0  0  0  0  0  0
  188.3770  177.5040  146.5290 C   0  0  0  0  0  3  0  0  0  0  0  0
  188.9500  177.1120  144.2440 N   0  0  0  0  0  0  0  0  0  0  0  0
  187.7000  177.4640  143.8390 C   0  0  0  0  0  3  0  0  0  0  0  0
  187.0880  177.8700  146.1330 C   0  0  0  0  0  3  0  0  0  0  0  0
  184.2120  179.3760  140.2070 C   0  0  2  0  0  3  0  0  0  0  0  0
  183.2110  179.9830  138.8180 S   0  0  0  0  0  1  0  0  0  0  0  0
  185.2780  178.6300  139.7000 O   0  0  0  0  0  0  0  0  0  0  0  0
  184.9680  178.4370  138.3490 C   0  0  0  0  0  1  0  0  0  0  0  0
  181.8000  178.7440  140.9900 C   0  0  0  0  0  2  0  0  0  0  0  0
  179.2470  176.1350  141.3290 O   0  0  0  0  0  0  0  0  0  0  0  0
  179.8510  177.2300  141.4850 C   0  0  0  0  0  0  0  0  0  0  0  0
  181.0450  177.5190  140.7380 N   0  0  0  0  0  0  0  0  0  0  0  0
  179.3520  178.1510  142.3940 O   0  0  0  0  0  1  0  0  0  0  0  0
  181.7030  176.4730  139.9650 C   0  0  0  0  0  2  0  0  0  0  0  0
  183.3420  175.2120  138.2580 O   0  0  0  0  0  1  0  0  0  0  0  0
  181.0830  175.3810  137.9270 O   0  0  0  0  0  0  0  0  0  0  0  0
  182.3410  175.9040  137.5710 C   0  0  1  0  0  3  0  0  0  0  0  0
  181.4050  176.6370  138.4780 C   0  0  2  0  0  3  0  0  0  0  0  0
  1 18  1  1  0  0  0
  1  7  1  0  0  0  0
  2  6  1  0  0  0  0
  3  5  1  0  0  0  0
  4  3  2  0  0  0  0
  6  8  1  0  0  0  0
  6  5  2  0  0  0  0
  7  2  2  0  0  0  0
  7  4  1  0  0  0  0
  8 13  1  0  0  0  0
  9 10  1  0  0  0  0
 11  9  2  0  0  0  0
 12 11  1  0  0  0  0
 12  8  2  0  0  0  0
 13 10  2  0  0  0  0
 14 15  1  6  0  0  0
 14  1  1  0  0  0  0
 16 14  1  0  0  0  0
 17 16  1  0  0  0  0
 19 20  2  0  0  0  0
 20 22  1  0  0  0  0
 21 18  1  0  0  0  0
 21 20  1  0  0  0  0
 23 21  1  0  0  0  0
 25 27  1  0  0  0  0
 26 25  1  0  0  0  0
 26 24  1  1  0  0  0
 26 27  1  0  0  0  0
 27 23  1  1  0  0  0
M  END
>  <MODEL>
8

>  <REMARK>
 VINA RESULT:      -7.0      4.004      7.271
  Name = 
  8 active torsions:
  status: ('A' for Active; 'I' for Inactive)
    1  A    between atoms: C_1  and  N_17
    2  A    between atoms: C_1  and  C_26
    3  A    between atoms: O_5  and  C_8
    4  A    between atoms: C_6  and  C_22
    5  A    between atoms: C_8  and  C_24
    6  A    between atoms: C_14  and  N_17
    7  A    between atoms: C_14  and  C_24
    8  A    between atoms: C_24  and  C_27
                            x       y       z     vdW  Elec       q    Type
                         _______ _______ _______ _____ _____    ______ ____

>  <TORSDO>
F 8

$$$$
=
 OpenBabel11032420373D

 27 29  0  0  1  0  0  0  0  0999 V2000
  187.9600  177.5210  140.8150 C   0  0  2  0  0  3  0  0  0  0  0  0
  188.4950  177.5150  143.2880 C   0  0  0  0  0  3  0  0  0  0  0  0
  191.1110  176.7290  142.7450 C   0  0  0  0  0  3  0  0  0  0  0  0
  190.2130  176.9220  141.6960 C   0  0  0  0  0  3  0  0  0  0  0  0
  190.7030  176.9290  144.0660 C   0  0  0  0  0  3  0  0  0  0  0  0
  189.3900  177.3260  144.3500 C   0  0  0  0  0  0  0  0  0  0  0  0
  188.9040  177.3170  141.9610 C   0  0  0  0  0  0  0  0  0  0  0  0
  188.9500  177.5160  145.7500 C   0  0  0  0  0  0  0  0  0  0  0  0
  188.1400  177.8550  148.3940 C   0  0  0  0  0  3  0  0  0  0  0  0
  187.2020  177.9830  147.3700 C   0  0  0  0  0  3  0  0  0  0  0  0
  189.4380  177.5640  148.0990 N   0  0  0  0  0  0  0  0  0  0  0  0
  189.8550  177.3940  146.8160 C   0  0  0  0  0  3  0  0  0  0  0  0
  187.6130  177.8130  146.0460 C   0  0  0  0  0  3  0  0  0  0  0  0
  188.6000  177.3610  139.4220 C   0  0  2  0  0  3  0  0  0  0  0  0
  189.0530  179.0020  138.7850 S   0  0  0  0  0  1  0  0  0  0  0  0
  187.7270  176.7530  138.5170 O   0  0  0  0  0  0  0  0  0  0  0  0
  188.5600  176.1370  137.5770 C   0  0  0  0  0  1  0  0  0  0  0  0
  187.1110  178.7900  141.0260 C   0  0  0  0  0  2  0  0  0  0  0  0
  183.5460  178.7540  140.1700 O   0  0  0  0  0  1  0  0  0  0  0  0
  184.7940  178.8860  140.0480 C   0  0  0  0  0  0  0  0  0  0  0  0
  185.6740  178.5440  141.1320 N   0  0  0  0  0  0  0  0  0  0  0  0
  185.3060  179.3730  138.8550 O   0  0  0  0  0  0  0  0  0  0  0  0
  185.1390  178.2600  142.4570 C   0  0  0  0  0  2  0  0  0  0  0  0
  182.8060  178.7080  143.7030 O   0  0  0  0  0  1  0  0  0  0  0  0
  184.8370  179.2100  144.6350 O   0  0  0  0  0  0  0  0  0  0  0  0
  183.7180  179.7370  143.9630 C   0  0  1  0  0  3  0  0  0  0  0  0
  185.0330  179.5410  143.2790 C   0  0  2  0  0  3  0  0  0  0  0  0
  1 18  1  6  0  0  0
  1  7  1  0  0  0  0
  2  6  1  0  0  0  0
  3  5  1  0  0  0  0
  4  7  1  0  0  0  0
  4  3  2  0  0  0  0
  5  6  2  0  0  0  0
  6  8  1  0  0  0  0
  7  2  2  0  0  0  0
  8 13  2  0  0  0  0
  8 12  1  0  0  0  0
 10  9  2  0  0  0  0
 11  9  1  0  0  0  0
 12 11  2  0  0  0  0
 13 10  1  0  0  0  0
 14 15  1  6  0  0  0
 14  1  1  0  0  0  0
 16 14  1  0  0  0  0
 17 16  1  0  0  0  0
 18 21  1  0  0  0  0
 20 19  1  0  0  0  0
 20 21  1  0  0  0  0
 21 23  1  0  0  0  0
 22 20  2  0  0  0  0
 26 24  1  6  0  0  0
 26 25  1  0  0  0  0
 27 23  1  6  0  0  0
 27 26  1  0  0  0  0
 27 25  1  0  0  0  0
M  END
>  <MODEL>
9

>  <REMARK>
 VINA RESULT:      -6.9      2.845      6.084
  Name = 
  8 active torsions:
  status: ('A' for Active; 'I' for Inactive)
    1  A    between atoms: C_1  and  N_17
    2  A    between atoms: C_1  and  C_26
    3  A    between atoms: O_5  and  C_8
    4  A    between atoms: C_6  and  C_22
    5  A    between atoms: C_8  and  C_24
    6  A    between atoms: C_14  and  N_17
    7  A    between atoms: C_14  and  C_24
    8  A    between atoms: C_24  and  C_27
                            x       y       z     vdW  Elec       q    Type
                         _______ _______ _______ _____ _____    ______ ____

>  <TORSDO>
F 8

$$$$
