=
 OpenBabel11042413143D

 63 68  0  0  1  0  0  0  0  0999 V2000
  183.1480  180.1100  140.2080 C   0  0  0  0  0  1  0  0  0  0  0  0
  185.9580  176.8380  136.7620 O   0  0  0  0  0  0  0  0  0  0  0  0
  185.8280  175.7410  134.7530 O   0  0  0  0  0  1  0  0  0  0  0  0
  187.1360  176.3390  137.3400 C   0  0  1  0  0  3  0  0  0  0  0  0
  180.7100  176.6220  139.4320 O   0  0  0  0  0  1  0  0  0  0  0  0
  189.1870  177.2330  140.5610 C   0  0  0  0  0  2  0  0  0  0  0  0
  188.9220  178.7070  140.3390 C   0  0  1  0  0  3  0  0  0  0  0  0
  188.7760  176.4550  139.3240 C   0  0  2  0  0  3  0  0  0  0  0  0
  189.5920  176.1010  136.9160 N   0  0  0  0  0  0  0  0  0  0  0  0
  182.3870  177.6670  138.1370 C   0  0  0  0  0  2  0  0  0  0  0  0
  185.4640  178.4380  139.1760 C   0  0  0  0  0  2  0  0  0  0  0  0
  188.3310  176.6120  136.4800 C   0  0  0  0  0  0  0  0  0  0  0  0
  187.0080  178.3980  139.0220 C   0  0  2  0  0  0  0  0  0  0  0  0
  183.4500  177.1070  135.6220 O   0  0  0  0  0  0  0  0  0  0  0  0
  189.8950  176.3540  138.3000 C   0  0  0  0  0  0  0  0  0  0  0  0
  185.3800  175.7590  136.0760 C   0  0  2  0  0  3  0  0  0  0  0  0
  191.0980  176.4210  138.6800 O   0  0  0  0  0  0  0  0  0  0  0  0
  183.4930  178.7570  140.8360 C   0  0  2  0  0  3  0  0  0  0  0  0
  184.9570  178.3260  140.6310 C   0  0  1  0  0  3  0  0  0  0  0  0
  183.8720  175.8630  136.1100 C   0  0  0  0  0  2  0  0  0  0  0  0
  182.0530  177.0440  135.6890 C   0  0  0  0  0  2  0  0  0  0  0  0
  185.2410  176.9560  141.2310 C   0  0  0  0  0  1  0  0  0  0  0  0
  187.3980  176.9020  138.7640 C   0  0  1  0  0  3  0  0  0  0  0  0
  188.2770  177.4520  135.5450 O   0  0  0  0  0  0  0  0  0  0  0  0
  181.5600  177.7200  139.4110 C   0  0  2  0  0  3  0  0  0  0  0  0
  187.5350  178.9050  140.2400 O   0  0  0  0  0  0  0  0  0  0  0  0
  182.4440  177.6370  140.6470 C   0  0  0  0  0  2  0  0  0  0  0  0
  181.4920  177.7980  136.9010 C   0  0  2  0  0  3  0  0  0  0  0  0
  190.0680  172.6100  136.4870 C   0  0  0  0  0  2  0  0  0  0  0  0
  188.8390  173.3290  135.9560 C   0  0  2  0  0  3  0  0  0  0  0  0
  190.6180  175.6700  135.9380 C   0  0  1  0  0  3  0  0  0  0  0  0
  191.6070  174.6070  136.4610 C   0  0  0  0  0  2  0  0  0  0  0  0
  190.0190  175.2130  134.5940 C   0  0  0  0  0  3  0  0  0  0  0  0
  190.9350  173.5440  137.3150 C   0  0  0  0  0  2  0  0  0  0  0  0
  187.6950  172.3440  135.8360 C   0  0  0  0  0  1  0  0  0  0  0  0
  189.1270  173.9570  134.5940 C   0  0  0  0  0  3  0  0  0  0  0  0
  187.4950  179.3040  137.8550 C   0  0  0  0  0  2  0  0  0  0  0  0
  186.4030  179.8380  136.9280 C   0  0  0  0  0  1  0  0  0  0  0  0
  181.2120  179.2320  136.5670 C   0  0  0  0  0  3  0  0  0  0  0  0
  180.7950  180.0340  137.4810 N   0  0  0  0  0  0  0  0  0  0  0  0
  180.4370  181.6740  137.1240 S   0  0  0  0  0  0  0  0  0  0  0  0
  181.4150  182.5740  137.8290 O   0  0  0  0  0  0  0  0  0  0  0  0
  179.0430  181.9900  137.5850 O   0  0  0  0  0  0  0  0  0  0  0  0
  180.6140  181.9130  135.4090 N   0  0  0  0  0  2  0  0  0  0  0  0
  179.5680  182.8090  134.9320 C   0  0  0  0  0  2  0  0  0  0  0  0
  180.0070  184.2570  135.0980 C   0  0  0  0  0  2  0  0  0  0  0  0
  179.0330  184.9700  135.7940 O   0  0  0  0  0  1  0  0  0  0  0  0
  189.4290  179.4710  141.5510 C   0  0  0  0  0  2  0  0  0  0  0  0
  189.6670  178.6020  142.6210 O   0  0  0  0  0  0  0  0  0  0  0  0
  191.0390  178.6910  142.8890 C   0  0  2  0  0  3  0  0  0  0  0  0
  191.6690  177.3260  142.6790 C   0  0  0  0  0  1  0  0  0  0  0  0
  191.2640  179.1670  144.3210 C   0  0  0  0  0  2  0  0  0  0  0  0
  190.1960  178.6750  145.1870 N   0  0  0  0  0  2  0  0  0  0  0  0
  190.3930  177.3440  145.3410 O   0  0  0  0  0  0  0  0  0  0  0  0
  189.1790  176.8630  145.8470 C   0  0  0  0  0  2  0  0  0  0  0  0
  188.0840  177.9110  145.6930 C   0  0  0  0  0  2  0  0  0  0  0  0
  187.9700  178.6280  147.9860 O   0  0  0  0  0  0  0  0  0  0  0  0
  187.5560  177.2930  148.1780 C   0  0  0  0  0  2  0  0  0  0  0  0
  187.2230  178.0520  146.9470 C   0  0  2  0  0  0  0  0  0  0  0  0
  185.8520  178.7050  146.8620 C   0  0  0  0  0  2  0  0  0  0  0  0
  184.0450  179.0320  145.2350 C   0  0  0  0  0  2  0  0  0  0  0  0
  184.8620  177.9660  144.8140 O   0  0  0  0  0  0  0  0  0  0  0  0
  185.5070  179.0620  145.4240 C   0  0  2  0  0  3  0  0  0  0  0  0
  2  4  1  0  0  0  0
  4 12  1  6  0  0  0
  4 23  1  0  0  0  0
  7  6  1  0  0  0  0
  7 48  1  1  0  0  0
  8  6  1  1  0  0  0
  9 15  1  0  0  0  0
 10 25  1  0  0  0  0
 11 19  1  0  0  0  0
 12  9  1  0  0  0  0
 13 37  1  6  0  0  0
 13 11  1  0  0  0  0
 13 26  1  0  0  0  0
 14 21  1  0  0  0  0
 14 20  1  0  0  0  0
 15 17  2  0  0  0  0
 15  8  1  0  0  0  0
 16  3  1  6  0  0  0
 16 20  1  0  0  0  0
 16  2  1  0  0  0  0
 18  1  1  6  0  0  0
 19 18  1  0  0  0  0
 19 22  1  6  0  0  0
 21 28  1  0  0  0  0
 23 13  1  0  0  0  0
 23  8  1  0  0  0  0
 24 12  2  0  0  0  0
 25  5  1  0  0  0  0
 25 27  1  0  0  0  0
 26  7  1  0  0  0  0
 27 18  1  0  0  0  0
 28 10  1  0  0  0  0
 29 34  1  0  0  0  0
 30 29  1  0  0  0  0
 31 32  1  0  0  0  0
 31  9  1  0  0  0  0
 32 34  1  0  0  0  0
 33 31  1  0  0  0  0
 35 30  1  0  0  0  0
 36 33  2  0  0  0  0
 36 30  1  0  0  0  0
 38 37  1  0  0  0  0
 39 28  1  0  0  0  0
 39 40  2  0  0  0  0
 41 40  1  0  0  0  0
 41 43  2  0  0  0  0
 41 42  2  0  0  0  0
 44 41  1  0  0  0  0
 45 46  1  0  0  0  0
 45 44  1  0  0  0  0
 46 47  1  0  0  0  0
 48 49  1  0  0  0  0
 49 50  1  0  0  0  0
 50 52  1  0  0  0  0
 51 50  1  0  0  0  0
 52 53  1  0  0  0  0
 53 54  1  0  0  0  0
 54 55  1  0  0  0  0
 56 55  1  0  0  0  0
 56 59  1  0  0  0  0
 57 58  1  0  0  0  0
 59 57  1  0  0  0  0
 59 58  1  0  0  0  0
 60 59  1  0  0  0  0
 61 63  1  0  0  0  0
 62 61  1  0  0  0  0
 62 63  1  0  0  0  0
 63 60  1  0  0  0  0
M  END
>  <MODEL>
1

>  <REMARK>
 VINA RESULT:      -0.8      0.000      0.000
  Name = 
  18 active torsions:
  status: ('A' for Active; 'I' for Inactive)
    1  A    between atoms: C_3  and  C_20
    2  A    between atoms: S_4  and  N_14
    3  A    between atoms: S_4  and  N_55
    4  A    between atoms: C_12  and  C_48
    5  A    between atoms: N_14  and  C_20
    6  A    between atoms: N_15  and  C_22
    7  A    between atoms: C_17  and  C_44
    8  A    between atoms: C_17  and  N_61
    9  A    between atoms: C_23  and  C_59
   10  A    between atoms: C_24  and  C_27
   11  A    between atoms: O_35  and  C_44
   12  A    between atoms: O_35  and  C_48
   13  A    between atoms: O_39  and  C_56
   14  A    between atoms: O_39  and  N_61
   15  A    between atoms: C_49  and  C_56
   16  A    between atoms: C_49  and  C_58
   17  A    between atoms: C_58  and  C_62
   18  A    between atoms: C_62  and  C_63
                            x       y       z     vdW  Elec       q    Type
                         _______ _______ _______ _____ _____    ______ ____

>  <TORSDO>
F 18

$$$$
=
 OpenBabel11042413143D

 63 68  0  0  1  0  0  0  0  0999 V2000
  182.6180  180.5020  140.0460 C   0  0  0  0  0  1  0  0  0  0  0  0
  183.5030  176.0360  136.9250 O   0  0  0  0  0  0  0  0  0  0  0  0
  182.4630  174.5000  135.5760 O   0  0  0  0  0  1  0  0  0  0  0  0
  184.7930  175.5090  137.0980 C   0  0  1  0  0  3  0  0  0  0  0  0
  179.9420  177.3930  141.4190 O   0  0  0  0  0  1  0  0  0  0  0  0
  188.0790  176.8370  138.7760 C   0  0  0  0  0  2  0  0  0  0  0  0
  187.8060  178.2290  138.2450 C   0  0  1  0  0  3  0  0  0  0  0  0
  187.1380  175.8500  138.1110 C   0  0  2  0  0  3  0  0  0  0  0  0
  186.8060  174.7610  135.8100 N   0  0  0  0  0  0  0  0  0  0  0  0
  180.9280  177.7750  139.3060 C   0  0  0  0  0  2  0  0  0  0  0  0
  184.1790  178.2570  138.7240 C   0  0  0  0  0  2  0  0  0  0  0  0
  185.5030  175.3490  135.7900 C   0  0  0  0  0  0  0  0  0  0  0  0
  185.4980  177.9210  137.9770 C   0  0  2  0  0  0  0  0  0  0  0  0
  180.7620  176.4220  136.8750 O   0  0  0  0  0  0  0  0  0  0  0  0
  187.6930  175.3050  136.8040 C   0  0  0  0  0  0  0  0  0  0  0  0
  182.6390  174.9300  136.8930 C   0  0  2  0  0  3  0  0  0  0  0  0
  188.9420  175.2630  136.6250 O   0  0  0  0  0  0  0  0  0  0  0  0
  183.1450  179.3160  140.8570 C   0  0  2  0  0  3  0  0  0  0  0  0
  184.3530  178.6070  140.2180 C   0  0  1  0  0  3  0  0  0  0  0  0
  181.3020  175.2910  137.5010 C   0  0  0  0  0  2  0  0  0  0  0  0
  179.5330  176.6140  137.5170 C   0  0  0  0  0  2  0  0  0  0  0  0
  184.8130  177.4080  141.0360 C   0  0  0  0  0  1  0  0  0  0  0  0
  185.6730  176.3650  138.0500 C   0  0  1  0  0  3  0  0  0  0  0  0
  185.0810  175.9200  134.7510 O   0  0  0  0  0  0  0  0  0  0  0  0
  180.7430  178.2900  140.7240 C   0  0  2  0  0  3  0  0  0  0  0  0
  186.5240  178.6250  138.6620 O   0  0  0  0  0  0  0  0  0  0  0  0
  182.0730  178.3780  141.4570 C   0  0  0  0  0  2  0  0  0  0  0  0
  179.5890  177.7350  138.5620 C   0  0  2  0  0  3  0  0  0  0  0  0
  189.1410  172.1940  136.5540 C   0  0  0  0  0  2  0  0  0  0  0  0
  187.6750  172.0900  136.9420 C   0  0  2  0  0  3  0  0  0  0  0  0
  187.2830  173.9290  134.6810 C   0  0  1  0  0  3  0  0  0  0  0  0
  188.8140  173.7580  134.6030 C   0  0  0  0  0  2  0  0  0  0  0  0
  186.5970  172.5510  134.6130 C   0  0  0  0  0  3  0  0  0  0  0  0
  189.4580  173.5600  135.9660 C   0  0  0  0  0  2  0  0  0  0  0  0
  187.5360  171.1600  138.1290 C   0  0  0  0  0  1  0  0  0  0  0  0
  186.8430  171.5670  135.7730 C   0  0  0  0  0  3  0  0  0  0  0  0
  185.4640  178.4040  136.4990 C   0  0  0  0  0  2  0  0  0  0  0  0
  186.6300  179.2920  136.0650 C   0  0  0  0  0  1  0  0  0  0  0  0
  179.2520  179.0630  137.9540 C   0  0  0  0  0  3  0  0  0  0  0  0
  180.1920  179.8390  137.5440 N   0  0  0  0  0  0  0  0  0  0  0  0
  179.8400  181.3770  136.8710 S   0  0  0  0  0  0  0  0  0  0  0  0
  178.9550  182.1530  137.8100 O   0  0  0  0  0  0  0  0  0  0  0  0
  179.1390  181.1970  135.5560 O   0  0  0  0  0  0  0  0  0  0  0  0
  181.3350  182.2490  136.6870 N   0  0  0  0  0  2  0  0  0  0  0  0
  181.1210  183.4080  135.8300 C   0  0  0  0  0  2  0  0  0  0  0  0
  180.6820  184.6010  136.6670 C   0  0  0  0  0  2  0  0  0  0  0  0
  179.5790  185.2140  136.0750 O   0  0  0  0  0  1  0  0  0  0  0  0
  188.8220  179.1800  138.8560 C   0  0  0  0  0  2  0  0  0  0  0  0
  189.7240  178.4870  139.6710 O   0  0  0  0  0  0  0  0  0  0  0  0
  189.0150  178.1580  140.8330 C   0  0  2  0  0  3  0  0  0  0  0  0
  188.3550  179.4130  141.3750 C   0  0  0  0  0  1  0  0  0  0  0  0
  189.9590  177.5610  141.8720 C   0  0  0  0  0  2  0  0  0  0  0  0
  189.4530  177.8200  143.2170 N   0  0  0  0  0  2  0  0  0  0  0  0
  188.4690  176.9210  143.4500 O   0  0  0  0  0  0  0  0  0  0  0  0
  188.5270  176.6810  144.8290 C   0  0  0  0  0  2  0  0  0  0  0  0
  188.3510  177.9800  145.6040 C   0  0  0  0  0  2  0  0  0  0  0  0
  187.3850  178.9090  147.6020 O   0  0  0  0  0  0  0  0  0  0  0  0
  187.5260  177.5800  148.0530 C   0  0  0  0  0  2  0  0  0  0  0  0
  187.2270  177.9030  146.6360 C   0  0  2  0  0  0  0  0  0  0  0  0
  185.7770  177.8360  146.1810 C   0  0  0  0  0  2  0  0  0  0  0  0
  184.5460  179.3360  144.6800 C   0  0  0  0  0  2  0  0  0  0  0  0
  184.3470  178.0040  144.2710 O   0  0  0  0  0  0  0  0  0  0  0  0
  185.6300  178.3390  144.7540 C   0  0  2  0  0  3  0  0  0  0  0  0
  2  4  1  0  0  0  0
  4 12  1  6  0  0  0
  4 23  1  0  0  0  0
  7 26  1  0  0  0  0
  7  6  1  0  0  0  0
  7 48  1  1  0  0  0
  8  6  1  6  0  0  0
  9 15  1  0  0  0  0
 10 25  1  0  0  0  0
 11 19  1  0  0  0  0
 12  9  1  0  0  0  0
 13 37  1  6  0  0  0
 13 23  1  0  0  0  0
 13 26  1  0  0  0  0
 13 11  1  0  0  0  0
 14 20  1  0  0  0  0
 14 21  1  0  0  0  0
 15  8  1  0  0  0  0
 16  3  1  6  0  0  0
 16  2  1  0  0  0  0
 16 20  1  0  0  0  0
 17 15  2  0  0  0  0
 18  1  1  6  0  0  0
 18 27  1  0  0  0  0
 19 18  1  0  0  0  0
 19 22  1  1  0  0  0
 21 28  1  0  0  0  0
 23  8  1  0  0  0  0
 24 12  2  0  0  0  0
 25  5  1  0  0  0  0
 25 27  1  0  0  0  0
 28 10  1  0  0  0  0
 29 30  1  0  0  0  0
 30 35  1  0  0  0  0
 31  9  1  0  0  0  0
 32 31  1  0  0  0  0
 32 34  1  0  0  0  0
 33 31  1  0  0  0  0
 33 36  2  0  0  0  0
 34 29  1  0  0  0  0
 36 30  1  0  0  0  0
 38 37  1  0  0  0  0
 39 28  1  0  0  0  0
 40 39  2  0  0  0  0
 41 40  1  0  0  0  0
 41 42  2  0  0  0  0
 43 41  2  0  0  0  0
 44 41  1  0  0  0  0
 45 46  1  0  0  0  0
 45 44  1  0  0  0  0
 47 46  1  0  0  0  0
 48 49  1  0  0  0  0
 49 50  1  0  0  0  0
 50 51  1  0  0  0  0
 50 52  1  0  0  0  0
 52 53  1  0  0  0  0
 53 54  1  0  0  0  0
 54 55  1  0  0  0  0
 55 56  1  0  0  0  0
 56 59  1  0  0  0  0
 57 58  1  0  0  0  0
 59 57  1  0  0  0  0
 59 58  1  0  0  0  0
 60 59  1  0  0  0  0
 61 63  1  0  0  0  0
 62 61  1  0  0  0  0
 62 63  1  0  0  0  0
 63 60  1  0  0  0  0
M  END
>  <MODEL>
2

>  <REMARK>
 VINA RESULT:       1.0      1.616      2.339
  Name = 
  18 active torsions:
  status: ('A' for Active; 'I' for Inactive)
    1  A    between atoms: C_3  and  C_20
    2  A    between atoms: S_4  and  N_14
    3  A    between atoms: S_4  and  N_55
    4  A    between atoms: C_12  and  C_48
    5  A    between atoms: N_14  and  C_20
    6  A    between atoms: N_15  and  C_22
    7  A    between atoms: C_17  and  C_44
    8  A    between atoms: C_17  and  N_61
    9  A    between atoms: C_23  and  C_59
   10  A    between atoms: C_24  and  C_27
   11  A    between atoms: O_35  and  C_44
   12  A    between atoms: O_35  and  C_48
   13  A    between atoms: O_39  and  C_56
   14  A    between atoms: O_39  and  N_61
   15  A    between atoms: C_49  and  C_56
   16  A    between atoms: C_49  and  C_58
   17  A    between atoms: C_58  and  C_62
   18  A    between atoms: C_62  and  C_63
                            x       y       z     vdW  Elec       q    Type
                         _______ _______ _______ _____ _____    ______ ____

>  <TORSDO>
F 18

$$$$
=
 OpenBabel11042413143D

 63 68  0  0  1  0  0  0  0  0999 V2000
  183.8160  179.8270  140.4870 C   0  0  0  0  0  1  0  0  0  0  0  0
  186.6320  176.6730  136.9400 O   0  0  0  0  0  0  0  0  0  0  0  0
  186.4750  175.5680  134.9360 O   0  0  0  0  0  1  0  0  0  0  0  0
  187.8510  176.2240  137.4740 C   0  0  1  0  0  3  0  0  0  0  0  0
  181.5000  176.2390  139.8000 O   0  0  0  0  0  1  0  0  0  0  0  0
  189.9790  177.2070  140.6170 C   0  0  0  0  0  2  0  0  0  0  0  0
  189.6450  178.6690  140.4050 C   0  0  1  0  0  3  0  0  0  0  0  0
  189.5570  176.4110  139.3970 C   0  0  2  0  0  3  0  0  0  0  0  0
  190.2980  176.0890  136.9600 N   0  0  0  0  0  0  0  0  0  0  0  0
  183.0830  177.3520  138.4450 C   0  0  0  0  0  2  0  0  0  0  0  0
  186.1610  178.2530  139.3710 C   0  0  0  0  0  2  0  0  0  0  0  0
  189.0010  176.5450  136.5710 C   0  0  0  0  0  0  0  0  0  0  0  0
  187.6980  178.2780  139.1590 C   0  0  2  0  0  0  0  0  0  0  0  0
  184.0760  176.8340  135.8920 O   0  0  0  0  0  0  0  0  0  0  0  0
  190.6410  176.3570  138.3320 C   0  0  0  0  0  0  0  0  0  0  0  0
  186.0760  175.5690  136.2750 C   0  0  2  0  0  3  0  0  0  0  0  0
  191.8520  176.4740  138.6670 O   0  0  0  0  0  0  0  0  0  0  0  0
  184.2400  178.4910  141.1020 C   0  0  2  0  0  3  0  0  0  0  0  0
  185.7120  178.1220  140.8430 C   0  0  1  0  0  3  0  0  0  0  0  0
  184.5670  175.6100  136.3640 C   0  0  0  0  0  2  0  0  0  0  0  0
  182.6860  176.7120  136.0100 C   0  0  0  0  0  2  0  0  0  0  0  0
  186.0760  176.7660  141.4320 C   0  0  0  0  0  1  0  0  0  0  0  0
  188.1410  176.8000  138.8870 C   0  0  1  0  0  3  0  0  0  0  0  0
  188.8770  177.3820  135.6390 O   0  0  0  0  0  0  0  0  0  0  0  0
  182.3020  177.3710  139.7480 C   0  0  2  0  0  3  0  0  0  0  0  0
  188.2470  178.8080  140.3570 O   0  0  0  0  0  0  0  0  0  0  0  0
  183.2330  177.3280  140.9510 C   0  0  0  0  0  2  0  0  0  0  0  0
  182.1380  177.4430  137.2420 C   0  0  2  0  0  3  0  0  0  0  0  0
  190.8280  172.6180  136.4380 C   0  0  0  0  0  2  0  0  0  0  0  0
  189.5710  173.3250  135.9570 C   0  0  2  0  0  3  0  0  0  0  0  0
  191.3050  175.7000  135.9450 C   0  0  1  0  0  3  0  0  0  0  0  0
  192.3270  174.6450  136.4160 C   0  0  0  0  0  2  0  0  0  0  0  0
  190.6770  175.2620  134.6070 C   0  0  0  0  0  3  0  0  0  0  0  0
  191.7000  173.5500  137.2640 C   0  0  0  0  0  2  0  0  0  0  0  0
  188.4430  172.3200  135.8460 C   0  0  0  0  0  1  0  0  0  0  0  0
  189.8100  173.9880  134.6030 C   0  0  0  0  0  3  0  0  0  0  0  0
  188.1040  179.2020  137.9760 C   0  0  0  0  0  2  0  0  0  0  0  0
  186.9640  179.6430  137.0560 C   0  0  0  0  0  1  0  0  0  0  0  0
  181.7860  178.8640  136.9190 C   0  0  0  0  0  3  0  0  0  0  0  0
  180.6120  179.3120  137.1870 N   0  0  0  0  0  0  0  0  0  0  0  0
  180.1680  180.9240  136.8020 S   0  0  0  0  0  0  0  0  0  0  0  0
  178.9350  181.3100  137.5730 O   0  0  0  0  0  0  0  0  0  0  0  0
  179.8900  181.0250  135.3300 O   0  0  0  0  0  0  0  0  0  0  0  0
  181.4650  181.9790  137.2840 N   0  0  0  0  0  2  0  0  0  0  0  0
  181.4040  183.2120  136.5090 C   0  0  0  0  0  2  0  0  0  0  0  0
  180.1130  183.9560  136.8160 C   0  0  0  0  0  2  0  0  0  0  0  0
  180.0870  184.3240  138.1610 O   0  0  0  0  0  1  0  0  0  0  0  0
  190.1630  179.4550  141.5990 C   0  0  0  0  0  2  0  0  0  0  0  0
  190.9100  178.6320  142.4490 O   0  0  0  0  0  0  0  0  0  0  0  0
  190.5370  178.9880  143.7510 C   0  0  2  0  0  3  0  0  0  0  0  0
  191.6060  178.5040  144.7150 C   0  0  0  0  0  1  0  0  0  0  0  0
  189.1870  178.3690  144.0980 C   0  0  0  0  0  2  0  0  0  0  0  0
  189.3770  177.0430  144.6790 N   0  0  0  0  0  2  0  0  0  0  0  0
  188.4820  176.2190  144.0850 O   0  0  0  0  0  0  0  0  0  0  0  0
  187.2390  176.8230  144.3100 C   0  0  0  0  0  2  0  0  0  0  0  0
  187.4160  178.1560  145.0260 C   0  0  0  0  0  2  0  0  0  0  0  0
  185.3870  177.7090  146.2390 O   0  0  0  0  0  0  0  0  0  0  0  0
  185.5090  179.0770  146.5590 C   0  0  0  0  0  2  0  0  0  0  0  0
  186.6940  178.2040  146.3720 C   0  0  2  0  0  0  0  0  0  0  0  0
  187.3530  177.6200  147.6120 C   0  0  0  0  0  2  0  0  0  0  0  0
  189.7310  177.5140  148.2020 C   0  0  0  0  0  2  0  0  0  0  0  0
  189.0050  178.0310  149.2920 O   0  0  0  0  0  0  0  0  0  0  0  0
  188.5850  178.4200  148.0020 C   0  0  2  0  0  3  0  0  0  0  0  0
  2  4  1  0  0  0  0
  4 12  1  6  0  0  0
  4 23  1  0  0  0  0
  7  6  1  0  0  0  0
  7 48  1  1  0  0  0
  8  6  1  1  0  0  0
  9 15  1  0  0  0  0
 10 25  1  0  0  0  0
 11 19  1  0  0  0  0
 12  9  1  0  0  0  0
 13 37  1  6  0  0  0
 13 11  1  0  0  0  0
 13 26  1  0  0  0  0
 14 21  1  0  0  0  0
 14 20  1  0  0  0  0
 15 17  2  0  0  0  0
 15  8  1  0  0  0  0
 16  3  1  6  0  0  0
 16 20  1  0  0  0  0
 16  2  1  0  0  0  0
 18  1  1  6  0  0  0
 19 18  1  0  0  0  0
 19 22  1  6  0  0  0
 21 28  1  0  0  0  0
 23 13  1  0  0  0  0
 23  8  1  0  0  0  0
 24 12  2  0  0  0  0
 25  5  1  0  0  0  0
 25 27  1  0  0  0  0
 26  7  1  0  0  0  0
 27 18  1  0  0  0  0
 28 10  1  0  0  0  0
 29 34  1  0  0  0  0
 30 29  1  0  0  0  0
 31 32  1  0  0  0  0
 31  9  1  0  0  0  0
 32 34  1  0  0  0  0
 33 31  1  0  0  0  0
 35 30  1  0  0  0  0
 36 33  2  0  0  0  0
 36 30  1  0  0  0  0
 38 37  1  0  0  0  0
 39 40  2  0  0  0  0
 39 28  1  0  0  0  0
 41 40  1  0  0  0  0
 41 44  1  0  0  0  0
 41 42  2  0  0  0  0
 43 41  2  0  0  0  0
 45 46  1  0  0  0  0
 45 44  1  0  0  0  0
 46 47  1  0  0  0  0
 48 49  1  0  0  0  0
 49 50  1  0  0  0  0
 50 52  1  0  0  0  0
 50 51  1  0  0  0  0
 52 53  1  0  0  0  0
 54 55  1  0  0  0  0
 54 53  1  0  0  0  0
 55 56  1  0  0  0  0
 56 59  1  0  0  0  0
 57 59  1  0  0  0  0
 57 58  1  0  0  0  0
 59 58  1  0  0  0  0
 59 60  1  0  0  0  0
 60 63  1  0  0  0  0
 61 62  1  0  0  0  0
 63 61  1  0  0  0  0
 63 62  1  0  0  0  0
M  END
>  <MODEL>
3

>  <REMARK>
 VINA RESULT:       1.5      1.171      1.835
  Name = 
  18 active torsions:
  status: ('A' for Active; 'I' for Inactive)
    1  A    between atoms: C_3  and  C_20
    2  A    between atoms: S_4  and  N_14
    3  A    between atoms: S_4  and  N_55
    4  A    between atoms: C_12  and  C_48
    5  A    between atoms: N_14  and  C_20
    6  A    between atoms: N_15  and  C_22
    7  A    between atoms: C_17  and  C_44
    8  A    between atoms: C_17  and  N_61
    9  A    between atoms: C_23  and  C_59
   10  A    between atoms: C_24  and  C_27
   11  A    between atoms: O_35  and  C_44
   12  A    between atoms: O_35  and  C_48
   13  A    between atoms: O_39  and  C_56
   14  A    between atoms: O_39  and  N_61
   15  A    between atoms: C_49  and  C_56
   16  A    between atoms: C_49  and  C_58
   17  A    between atoms: C_58  and  C_62
   18  A    between atoms: C_62  and  C_63
                            x       y       z     vdW  Elec       q    Type
                         _______ _______ _______ _____ _____    ______ ____

>  <TORSDO>
F 18

$$$$
=
 OpenBabel11042413143D

 63 68  0  0  1  0  0  0  0  0999 V2000
  188.8640  176.3400  139.5480 C   0  0  0  0  0  1  0  0  0  0  0  0
  183.9330  177.9820  137.6880 O   0  0  0  0  0  0  0  0  0  0  0  0
  182.5970  178.0400  135.8250 O   0  0  0  0  0  1  0  0  0  0  0  0
  183.2620  178.8040  138.6070 C   0  0  1  0  0  3  0  0  0  0  0  0
  189.5360  178.8400  136.0820 O   0  0  0  0  0  1  0  0  0  0  0  0
  183.7950  179.6660  142.3950 C   0  0  0  0  0  2  0  0  0  0  0  0
  184.1820  178.2300  142.6830 C   0  0  1  0  0  3  0  0  0  0  0  0
  183.2060  179.7590  141.0000 C   0  0  2  0  0  3  0  0  0  0  0  0
  181.0590  179.0750  139.7680 N   0  0  0  0  0  0  0  0  0  0  0  0
  187.6900  177.5020  136.7000 C   0  0  0  0  0  2  0  0  0  0  0  0
  186.1000  177.5960  139.6340 C   0  0  0  0  0  2  0  0  0  0  0  0
  181.8830  178.2970  138.8960 C   0  0  0  0  0  0  0  0  0  0  0  0
  184.8070  177.7180  140.4820 C   0  0  2  0  0  0  0  0  0  0  0  0
  185.2450  176.9770  135.4680 O   0  0  0  0  0  0  0  0  0  0  0  0
  181.7070  179.5020  140.9810 C   0  0  0  0  0  0  0  0  0  0  0  0
  183.7380  178.5730  136.4310 C   0  0  2  0  0  3  0  0  0  0  0  0
  181.0200  179.7350  142.0140 O   0  0  0  0  0  0  0  0  0  0  0  0
  188.6840  177.8580  139.6300 C   0  0  2  0  0  3  0  0  0  0  0  0
  187.3380  178.2970  140.2350 C   0  0  1  0  0  3  0  0  0  0  0  0
  184.9450  178.3430  135.5500 C   0  0  0  0  0  2  0  0  0  0  0  0
  186.3510  176.9210  134.6110 C   0  0  0  0  0  2  0  0  0  0  0  0
  187.1840  179.8110  140.2540 C   0  0  0  0  0  1  0  0  0  0  0  0
  184.0310  178.9700  139.9460 C   0  0  1  0  0  3  0  0  0  0  0  0
  181.5450  177.1260  138.5840 O   0  0  0  0  0  0  0  0  0  0  0  0
  189.1020  177.9430  137.0490 C   0  0  2  0  0  3  0  0  0  0  0  0
  185.2370  177.8690  141.8280 O   0  0  0  0  0  0  0  0  0  0  0  0
  189.1400  178.6600  138.3900 C   0  0  0  0  0  2  0  0  0  0  0  0
  187.6710  176.7390  135.3710 C   0  0  2  0  0  3  0  0  0  0  0  0
  179.7350  181.7980  137.9180 C   0  0  0  0  0  2  0  0  0  0  0  0
  180.4960  180.6640  137.2520 C   0  0  2  0  0  3  0  0  0  0  0  0
  179.5900  179.1220  139.5870 C   0  0  1  0  0  3  0  0  0  0  0  0
  178.9390  180.4810  139.9160 C   0  0  0  0  0  2  0  0  0  0  0  0
  179.1370  178.6470  138.1930 C   0  0  0  0  0  3  0  0  0  0  0  0
  179.7630  181.6640  139.4320 C   0  0  0  0  0  2  0  0  0  0  0  0
  181.1030  181.1600  135.9570 C   0  0  0  0  0  1  0  0  0  0  0  0
  179.5690  179.4830  136.9720 C   0  0  0  0  0  3  0  0  0  0  0  0
  183.9270  176.4400  140.3830 C   0  0  0  0  0  2  0  0  0  0  0  0
  183.9520  175.7190  139.0340 C   0  0  0  0  0  1  0  0  0  0  0  0
  187.9940  175.2880  135.5590 C   0  0  0  0  0  3  0  0  0  0  0  0
  187.5820  174.6680  136.6070 N   0  0  0  0  0  0  0  0  0  0  0  0
  187.9620  173.0150  136.8660 S   0  0  0  0  0  0  0  0  0  0  0  0
  186.8890  172.3720  137.7030 O   0  0  0  0  0  0  0  0  0  0  0  0
  189.2810  172.9130  137.5780 O   0  0  0  0  0  0  0  0  0  0  0  0
  188.0030  172.2130  135.3220 N   0  0  0  0  0  2  0  0  0  0  0  0
  186.7330  171.5380  135.0890 C   0  0  0  0  0  2  0  0  0  0  0  0
  186.9170  170.0310  135.1990 C   0  0  0  0  0  2  0  0  0  0  0  0
  188.2720  169.7260  135.3070 O   0  0  0  0  0  1  0  0  0  0  0  0
  184.6790  178.1480  144.1170 C   0  0  0  0  0  2  0  0  0  0  0  0
  185.8900  177.4490  144.1830 O   0  0  0  0  0  0  0  0  0  0  0  0
  186.2450  177.4270  145.5380 C   0  0  2  0  0  3  0  0  0  0  0  0
  185.2570  178.2770  146.3170 C   0  0  0  0  0  1  0  0  0  0  0  0
  187.6640  177.9590  145.7170 C   0  0  0  0  0  2  0  0  0  0  0  0
  188.2130  178.3690  144.4280 N   0  0  0  0  0  2  0  0  0  0  0  0
  189.5430  178.5500  144.6040 O   0  0  0  0  0  0  0  0  0  0  0  0
  190.0350  178.8310  143.3230 C   0  0  0  0  0  2  0  0  0  0  0  0
  191.4580  178.3090  143.1720 C   0  0  0  0  0  2  0  0  0  0  0  0
  190.3870  176.1610  143.3390 O   0  0  0  0  0  0  0  0  0  0  0  0
  191.6400  175.7970  143.8760 C   0  0  0  0  0  2  0  0  0  0  0  0
  191.5060  176.8250  142.8130 C   0  0  2  0  0  0  0  0  0  0  0  0
  191.7420  176.3950  141.3730 C   0  0  0  0  0  2  0  0  0  0  0  0
  192.4360  177.1240  139.1360 C   0  0  0  0  0  2  0  0  0  0  0  0
  193.5190  177.2570  140.0250 O   0  0  0  0  0  0  0  0  0  0  0  0
  192.2370  177.5600  140.5310 C   0  0  2  0  0  3  0  0  0  0  0  0
  4  2  1  6  0  0  0
  4 12  1  0  0  0  0
  4 23  1  0  0  0  0
  5 25  1  0  0  0  0
  6  7  1  0  0  0  0
  7 48  1  1  0  0  0
  8  6  1  1  0  0  0
  9 15  1  0  0  0  0
 10 25  1  0  0  0  0
 11 19  1  0  0  0  0
 11 13  1  0  0  0  0
 12  9  1  0  0  0  0
 13 37  1  6  0  0  0
 13 26  1  0  0  0  0
 14 20  1  0  0  0  0
 15  8  1  0  0  0  0
 15 17  2  0  0  0  0
 16  3  1  6  0  0  0
 16  2  1  0  0  0  0
 18  1  1  6  0  0  0
 18 19  1  0  0  0  0
 19 22  1  6  0  0  0
 20 16  1  0  0  0  0
 21 28  1  0  0  0  0
 21 14  1  0  0  0  0
 23 13  1  0  0  0  0
 23  8  1  0  0  0  0
 24 12  2  0  0  0  0
 25 27  1  0  0  0  0
 26  7  1  0  0  0  0
 27 18  1  0  0  0  0
 28 39  1  0  0  0  0
 28 10  1  0  0  0  0
 29 34  1  0  0  0  0
 30 29  1  0  0  0  0
 31  9  1  0  0  0  0
 31 32  1  0  0  0  0
 33 31  1  0  0  0  0
 34 32  1  0  0  0  0
 35 30  1  0  0  0  0
 36 30  1  0  0  0  0
 36 33  2  0  0  0  0
 38 37  1  0  0  0  0
 39 40  2  0  0  0  0
 40 41  1  0  0  0  0
 41 43  2  0  0  0  0
 41 42  2  0  0  0  0
 44 41  1  0  0  0  0
 45 46  1  0  0  0  0
 45 44  1  0  0  0  0
 46 47  1  0  0  0  0
 48 49  1  0  0  0  0
 49 50  1  0  0  0  0
 50 52  1  0  0  0  0
 50 51  1  0  0  0  0
 53 54  1  0  0  0  0
 53 52  1  0  0  0  0
 55 54  1  0  0  0  0
 56 55  1  0  0  0  0
 57 58  1  0  0  0  0
 59 56  1  0  0  0  0
 59 57  1  0  0  0  0
 59 58  1  0  0  0  0
 60 59  1  0  0  0  0
 61 62  1  0  0  0  0
 61 63  1  0  0  0  0
 62 63  1  0  0  0  0
 63 60  1  0  0  0  0
M  END
>  <MODEL>
4

>  <REMARK>
 VINA RESULT:       1.6      2.834      8.412
  Name = 
  18 active torsions:
  status: ('A' for Active; 'I' for Inactive)
    1  A    between atoms: C_3  and  C_20
    2  A    between atoms: S_4  and  N_14
    3  A    between atoms: S_4  and  N_55
    4  A    between atoms: C_12  and  C_48
    5  A    between atoms: N_14  and  C_20
    6  A    between atoms: N_15  and  C_22
    7  A    between atoms: C_17  and  C_44
    8  A    between atoms: C_17  and  N_61
    9  A    between atoms: C_23  and  C_59
   10  A    between atoms: C_24  and  C_27
   11  A    between atoms: O_35  and  C_44
   12  A    between atoms: O_35  and  C_48
   13  A    between atoms: O_39  and  C_56
   14  A    between atoms: O_39  and  N_61
   15  A    between atoms: C_49  and  C_56
   16  A    between atoms: C_49  and  C_58
   17  A    between atoms: C_58  and  C_62
   18  A    between atoms: C_62  and  C_63
                            x       y       z     vdW  Elec       q    Type
                         _______ _______ _______ _____ _____    ______ ____

>  <TORSDO>
F 18

$$$$
=
 OpenBabel11042413143D

 63 68  0  0  1  0  0  0  0  0999 V2000
  189.7920  177.2040  140.5380 C   0  0  0  0  0  1  0  0  0  0  0  0
  184.3220  177.8500  140.1750 O   0  0  0  0  0  0  0  0  0  0  0  0
  182.5220  177.5430  138.7880 O   0  0  0  0  0  1  0  0  0  0  0  0
  183.8030  178.6150  141.2320 C   0  0  1  0  0  3  0  0  0  0  0  0
  188.9790  179.5130  136.9710 O   0  0  0  0  0  1  0  0  0  0  0  0
  185.2290  179.8370  144.6740 C   0  0  0  0  0  2  0  0  0  0  0  0
  185.9370  178.5120  144.8680 C   0  0  1  0  0  3  0  0  0  0  0  0
  184.2590  179.7250  143.5130 C   0  0  2  0  0  3  0  0  0  0  0  0
  182.0130  178.5990  142.9840 N   0  0  0  0  0  0  0  0  0  0  0  0
  187.6620  177.9340  138.1360 C   0  0  0  0  0  2  0  0  0  0  0  0
  186.9870  177.9810  141.4050 C   0  0  0  0  0  2  0  0  0  0  0  0
  182.6810  177.9070  141.9260 C   0  0  0  0  0  0  0  0  0  0  0  0
  185.9900  177.9480  142.5940 C   0  0  2  0  0  0  0  0  0  0  0  0
  185.1060  176.9150  137.6910 O   0  0  0  0  0  0  0  0  0  0  0  0
  182.8910  179.2190  143.9410 C   0  0  0  0  0  0  0  0  0  0  0  0
  183.6710  178.3040  139.0180 C   0  0  2  0  0  3  0  0  0  0  0  0
  182.4970  179.4110  145.1250 O   0  0  0  0  0  0  0  0  0  0  0  0
  189.3690  178.6710  140.6340 C   0  0  2  0  0  3  0  0  0  0  0  0
  188.1950  178.9230  141.5990 C   0  0  1  0  0  3  0  0  0  0  0  0
  184.5970  178.2130  137.8260 C   0  0  0  0  0  2  0  0  0  0  0  0
  185.9120  176.9810  136.5480 C   0  0  0  0  0  2  0  0  0  0  0  0
  187.7800  180.3870  141.6270 C   0  0  0  0  0  1  0  0  0  0  0  0
  184.8790  179.0080  142.2810 C   0  0  1  0  0  3  0  0  0  0  0  0
  182.4880  176.6760  141.7540 O   0  0  0  0  0  0  0  0  0  0  0  0
  189.0100  178.6310  138.0430 C   0  0  2  0  0  3  0  0  0  0  0  0
  186.7520  178.2700  143.7490 O   0  0  0  0  0  0  0  0  0  0  0  0
  189.2980  179.4440  139.2970 C   0  0  0  0  0  2  0  0  0  0  0  0
  187.4040  177.0810  136.8900 C   0  0  2  0  0  3  0  0  0  0  0  0
  179.7320  180.8160  141.4100 C   0  0  0  0  0  2  0  0  0  0  0  0
  180.4810  179.7440  140.6350 C   0  0  2  0  0  3  0  0  0  0  0  0
  180.5710  178.3850  143.2420 C   0  0  1  0  0  3  0  0  0  0  0  0
  179.7890  179.6520  143.6460 C   0  0  0  0  0  2  0  0  0  0  0  0
  179.8480  177.6700  142.0840 C   0  0  0  0  0  3  0  0  0  0  0  0
  180.2040  180.8820  142.8530 C   0  0  0  0  0  2  0  0  0  0  0  0
  180.5980  180.1630  139.1850 C   0  0  0  0  0  1  0  0  0  0  0  0
  179.7570  178.4030  140.7310 C   0  0  0  0  0  3  0  0  0  0  0  0
  185.3670  176.5360  142.7870 C   0  0  0  0  0  2  0  0  0  0  0  0
  186.1560  175.5790  143.6810 C   0  0  0  0  0  1  0  0  0  0  0  0
  188.0270  175.7230  137.0070 C   0  0  0  0  0  3  0  0  0  0  0  0
  189.2300  175.5310  136.5990 N   0  0  0  0  0  0  0  0  0  0  0  0
  189.9610  173.9810  136.6910 S   0  0  0  0  0  0  0  0  0  0  0  0
  190.3480  173.5190  135.3120 O   0  0  0  0  0  0  0  0  0  0  0  0
  188.9880  173.0070  137.2900 O   0  0  0  0  0  0  0  0  0  0  0  0
  191.4080  174.1130  137.6490 N   0  0  0  0  0  2  0  0  0  0  0  0
  192.5250  174.4970  136.7950 C   0  0  0  0  0  2  0  0  0  0  0  0
  192.8600  175.9660  137.0040 C   0  0  0  0  0  2  0  0  0  0  0  0
  193.7030  176.1070  138.1060 O   0  0  0  0  0  1  0  0  0  0  0  0
  186.8300  178.6230  146.0930 C   0  0  0  0  0  2  0  0  0  0  0  0
  186.9470  177.3860  146.7370 O   0  0  0  0  0  0  0  0  0  0  0  0
  187.8830  177.5740  147.7610 C   0  0  2  0  0  3  0  0  0  0  0  0
  188.2240  179.0510  147.8480 C   0  0  0  0  0  1  0  0  0  0  0  0
  189.1380  176.7530  147.4820 C   0  0  0  0  0  2  0  0  0  0  0  0
  190.3240  177.4880  147.9120 N   0  0  0  0  0  2  0  0  0  0  0  0
  191.3880  176.6740  147.7140 O   0  0  0  0  0  0  0  0  0  0  0  0
  191.0380  175.8970  146.6030 C   0  0  0  0  0  2  0  0  0  0  0  0
  192.0470  176.0910  145.4780 C   0  0  0  0  0  2  0  0  0  0  0  0
  189.9980  176.1560  144.2200 O   0  0  0  0  0  0  0  0  0  0  0  0
  190.7110  175.2700  143.3860 C   0  0  0  0  0  2  0  0  0  0  0  0
  191.3830  176.3640  144.1300 C   0  0  2  0  0  0  0  0  0  0  0  0
  191.6710  177.6600  143.3860 C   0  0  0  0  0  2  0  0  0  0  0  0
  191.3490  179.9130  144.2990 C   0  0  0  0  0  2  0  0  0  0  0  0
  190.7130  178.9780  145.1370 O   0  0  0  0  0  0  0  0  0  0  0  0
  190.6570  178.7330  143.7490 C   0  0  2  0  0  3  0  0  0  0  0  0
  4  2  1  6  0  0  0
  4 12  1  0  0  0  0
  4 23  1  0  0  0  0
  5 25  1  0  0  0  0
  6  7  1  0  0  0  0
  7 48  1  1  0  0  0
  8 15  1  0  0  0  0
  8  6  1  1  0  0  0
  9 31  1  0  0  0  0
  9 15  1  0  0  0  0
 11 19  1  0  0  0  0
 11 13  1  0  0  0  0
 12  9  1  0  0  0  0
 13 37  1  1  0  0  0
 13 26  1  0  0  0  0
 14 20  1  0  0  0  0
 15 17  2  0  0  0  0
 16  3  1  6  0  0  0
 16  2  1  0  0  0  0
 18  1  1  6  0  0  0
 18 19  1  0  0  0  0
 19 22  1  6  0  0  0
 20 16  1  0  0  0  0
 21 28  1  0  0  0  0
 21 14  1  0  0  0  0
 23 13  1  0  0  0  0
 23  8  1  0  0  0  0
 24 12  2  0  0  0  0
 25 10  1  0  0  0  0
 25 27  1  0  0  0  0
 26  7  1  0  0  0  0
 27 18  1  0  0  0  0
 28 39  1  0  0  0  0
 28 10  1  0  0  0  0
 29 34  1  0  0  0  0
 30 36  1  0  0  0  0
 30 29  1  0  0  0  0
 31 32  1  0  0  0  0
 33 31  1  0  0  0  0
 34 32  1  0  0  0  0
 35 30  1  0  0  0  0
 36 33  2  0  0  0  0
 37 38  1  0  0  0  0
 40 41  1  0  0  0  0
 40 39  2  0  0  0  0
 41 43  2  0  0  0  0
 41 44  1  0  0  0  0
 42 41  2  0  0  0  0
 45 46  1  0  0  0  0
 45 44  1  0  0  0  0
 46 47  1  0  0  0  0
 48 49  1  0  0  0  0
 49 50  1  0  0  0  0
 50 51  1  0  0  0  0
 52 50  1  0  0  0  0
 52 53  1  0  0  0  0
 54 53  1  0  0  0  0
 55 54  1  0  0  0  0
 56 55  1  0  0  0  0
 58 59  1  0  0  0  0
 58 57  1  0  0  0  0
 59 57  1  0  0  0  0
 59 56  1  0  0  0  0
 60 63  1  0  0  0  0
 60 59  1  0  0  0  0
 61 62  1  0  0  0  0
 63 61  1  0  0  0  0
 63 62  1  0  0  0  0
M  END
>  <MODEL>
5

>  <REMARK>
 VINA RESULT:       2.1      3.299      8.568
  Name = 
  18 active torsions:
  status: ('A' for Active; 'I' for Inactive)
    1  A    between atoms: C_3  and  C_20
    2  A    between atoms: S_4  and  N_14
    3  A    between atoms: S_4  and  N_55
    4  A    between atoms: C_12  and  C_48
    5  A    between atoms: N_14  and  C_20
    6  A    between atoms: N_15  and  C_22
    7  A    between atoms: C_17  and  C_44
    8  A    between atoms: C_17  and  N_61
    9  A    between atoms: C_23  and  C_59
   10  A    between atoms: C_24  and  C_27
   11  A    between atoms: O_35  and  C_44
   12  A    between atoms: O_35  and  C_48
   13  A    between atoms: O_39  and  C_56
   14  A    between atoms: O_39  and  N_61
   15  A    between atoms: C_49  and  C_56
   16  A    between atoms: C_49  and  C_58
   17  A    between atoms: C_58  and  C_62
   18  A    between atoms: C_62  and  C_63
                            x       y       z     vdW  Elec       q    Type
                         _______ _______ _______ _____ _____    ______ ____

>  <TORSDO>
F 18

$$$$
