=
 OpenBabel11042409533D

 33 36  0  0  1  0  0  0  0  0999 V2000
  192.0610  175.6220  138.3460 C   0  0  0  0  0  1  0  0  0  0  0  0
  190.3980  176.9170  139.6740 C   0  0  1  0  0  3  0  0  0  0  0  0
  192.1980  177.2530  141.1200 N   0  0  0  0  0  0  0  0  0  0  0  0
  192.7390  177.5120  139.8030 C   0  0  0  0  0  2  0  0  0  0  0  0
  191.6780  177.0060  138.8370 C   0  0  1  0  0  3  0  0  0  0  0  0
  188.3860  175.4870  143.1320 O   0  0  0  0  0  0  0  0  0  0  0  0
  190.2870  176.4330  142.2160 N   0  0  0  0  0  2  0  0  0  0  0  0
  188.8840  176.4380  142.4730 C   0  0  0  0  0  0  0  0  0  0  0  0
  190.9410  176.9840  141.0680 C   0  0  0  0  0  0  0  0  0  0  0  0
  188.2000  176.8350  136.1020 C   0  0  2  0  0  3  0  0  0  0  0  0
  189.5640  178.0880  139.3890 N   0  0  1  0  0  0  0  0  0  0  0  0
  189.3070  178.2030  137.9290 C   0  0  2  0  0  3  0  0  0  0  0  0
  188.2980  177.6310  138.8070 C   0  0  2  0  0  3  0  0  0  0  0  0
  186.3650  178.1940  137.3770 C   0  0  2  0  0  3  0  0  0  0  0  0
  188.5420  176.4900  134.7950 O   0  0  0  0  0  1  0  0  0  0  0  0
  187.2080  178.0290  136.0810 C   0  0  0  0  0  2  0  0  0  0  0  0
  189.4940  177.0620  136.9310 C   0  0  0  0  0  2  0  0  0  0  0  0
  187.1830  178.6300  138.6120 C   0  0  0  0  0  2  0  0  0  0  0  0
  185.6400  177.0020  137.6630 O   0  0  0  0  0  0  0  0  0  0  0  0
  183.4970  176.3530  136.9670 C   0  0  0  0  0  2  0  0  0  0  0  0
  184.2560  176.9830  137.8510 C   0  0  0  0  0  0  0  0  0  0  0  0
  183.6100  177.6420  139.0300 C   0  0  0  0  0  2  0  0  0  0  0  0
  182.2890  179.3740  138.0620 O   0  0  0  0  0  0  0  0  0  0  0  0
  183.3050  179.0720  138.7420 C   0  0  0  0  0  0  0  0  0  0  0  0
  184.1310  180.0750  139.2320 O   0  0  0  0  0  1  0  0  0  0  0  0
  188.1060  177.5470  142.1150 O   0  0  0  0  0  0  0  0  0  0  0  0
  184.5890  178.6240  142.5000 C   0  0  0  0  0  3  0  0  0  0  0  0
  184.4460  178.6260  143.8900 C   0  0  0  0  0  0  0  0  0  0  0  0
  186.9040  177.9280  142.7330 C   0  0  0  0  0  0  0  0  0  0  0  0
  182.9070  179.0470  144.6090 Cl  0  0  0  0  0  0  0  0  0  0  0  0
  185.8160  178.2760  141.9250 C   0  0  0  0  0  3  0  0  0  0  0  0
  185.5280  178.2850  144.7050 C   0  0  0  0  0  3  0  0  0  0  0  0
  186.7520  177.9360  144.1300 C   0  0  0  0  0  3  0  0  0  0  0  0
  2  9  1  1  0  0  0
  4  3  1  0  0  0  0
  5  1  1  1  0  0  0
  5  2  1  0  0  0  0
  5  4  1  0  0  0  0
  7  8  1  0  0  0  0
  8  6  2  0  0  0  0
  9  3  2  0  0  0  0
  9  7  1  0  0  0  0
 10 15  1  6  0  0  0
 10 17  1  0  0  0  0
 11  2  1  6  0  0  0
 12 17  1  6  0  0  0
 12 13  1  0  0  0  0
 12 11  1  0  0  0  0
 13 18  1  1  0  0  0
 13 11  1  0  0  0  0
 14 19  1  1  0  0  0
 14 18  1  0  0  0  0
 16 10  1  0  0  0  0
 16 14  1  0  0  0  0
 19 21  1  0  0  0  0
 20 21  2  0  0  0  0
 21 22  1  0  0  0  0
 23 24  2  0  0  0  0
 24 22  1  0  0  0  0
 24 25  1  0  0  0  0
 26  8  1  0  0  0  0
 26 29  1  0  0  0  0
 27 28  1  0  0  0  0
 28 30  1  0  0  0  0
 28 32  2  0  0  0  0
 29 33  2  0  0  0  0
 31 27  2  0  0  0  0
 31 29  1  0  0  0  0
 33 32  1  0  0  0  0
M  END
>  <MODEL>
1

>  <REMARK>
 VINA RESULT:      -7.3      0.000      0.000
  Name = 
  7 active torsions:
  status: ('A' for Active; 'I' for Inactive)
    1  A    between atoms: O_2  and  C_12
    2  A    between atoms: O_2  and  C_31
    3  A    between atoms: N_6  and  C_9
    4  A    between atoms: O_8  and  C_13
    5  A    between atoms: O_8  and  C_19
    6  A    between atoms: C_17  and  C_19
    7  A    between atoms: C_17  and  C_24
                            x       y       z     vdW  Elec       q    Type
                         _______ _______ _______ _____ _____    ______ ____

>  <TORSDO>
F 7

$$$$
=
 OpenBabel11042409533D

 33 36  0  0  1  0  0  0  0  0999 V2000
  179.9860  178.2080  144.2040 C   0  0  0  0  0  1  0  0  0  0  0  0
  181.6770  178.4500  142.3910 C   0  0  1  0  0  3  0  0  0  0  0  0
  179.8170  178.9480  141.0740 N   0  0  0  0  0  0  0  0  0  0  0  0
  179.6270  179.7290  142.2770 C   0  0  0  0  0  2  0  0  0  0  0  0
  180.6550  179.1890  143.2610 C   0  0  1  0  0  3  0  0  0  0  0  0
  182.5140  175.5270  139.4230 O   0  0  0  0  0  0  0  0  0  0  0  0
  181.1710  177.2680  140.1430 N   0  0  0  0  0  2  0  0  0  0  0  0
  182.4440  176.7340  139.7790 C   0  0  0  0  0  0  0  0  0  0  0  0
  180.9290  178.3030  141.1020 C   0  0  0  0  0  0  0  0  0  0  0  0
  184.5390  178.3910  145.4590 C   0  0  2  0  0  3  0  0  0  0  0  0
  182.8520  179.3070  142.2100 N   0  0  1  0  0  0  0  0  0  0  0  0
  183.4680  179.6330  143.5240 C   0  0  2  0  0  3  0  0  0  0  0  0
  184.0360  178.5860  142.6890 C   0  0  2  0  0  3  0  0  0  0  0  0
  186.3290  178.7570  143.5880 C   0  0  2  0  0  3  0  0  0  0  0  0
  184.4300  178.4630  146.8460 O   0  0  0  0  0  1  0  0  0  0  0  0
  185.8050  179.1600  144.9950 C   0  0  0  0  0  2  0  0  0  0  0  0
  183.2050  178.8570  144.8120 C   0  0  0  0  0  2  0  0  0  0  0  0
  185.4020  179.1720  142.4250 C   0  0  0  0  0  2  0  0  0  0  0  0
  186.5970  177.3600  143.5300 O   0  0  0  0  0  0  0  0  0  0  0  0
  188.4860  176.0450  143.0800 C   0  0  0  0  0  2  0  0  0  0  0  0
  187.8130  176.8030  143.9330 C   0  0  0  0  0  0  0  0  0  0  0  0
  188.3810  177.0500  145.2960 C   0  0  0  0  0  2  0  0  0  0  0  0
  189.9710  178.7020  144.6420 O   0  0  0  0  0  0  0  0  0  0  0  0
  189.7650  177.5960  145.2080 C   0  0  0  0  0  0  0  0  0  0  0  0
  190.8300  176.8940  145.7580 O   0  0  0  0  0  1  0  0  0  0  0  0
  183.5610  177.5740  139.6910 O   0  0  0  0  0  0  0  0  0  0  0  0
  186.6180  178.2600  137.7260 C   0  0  0  0  0  3  0  0  0  0  0  0
  186.2590  177.7710  136.4670 C   0  0  0  0  0  0  0  0  0  0  0  0
  184.4320  177.6510  138.5930 C   0  0  0  0  0  0  0  0  0  0  0  0
  187.4060  177.8330  135.1460 Cl  0  0  0  0  0  0  0  0  0  0  0  0
  185.7060  178.2000  138.7840 C   0  0  0  0  0  3  0  0  0  0  0  0
  184.9890  177.2270  136.2640 C   0  0  0  0  0  3  0  0  0  0  0  0
  184.0790  177.1650  137.3230 C   0  0  0  0  0  3  0  0  0  0  0  0
  2  9  1  6  0  0  0
  2  5  1  0  0  0  0
  3  9  2  0  0  0  0
  3  4  1  0  0  0  0
  4  5  1  0  0  0  0
  5  1  1  1  0  0  0
  6  8  2  0  0  0  0
  7  9  1  0  0  0  0
  8  7  1  0  0  0  0
 10 15  1  1  0  0  0
 11  2  1  1  0  0  0
 11 13  1  0  0  0  0
 11 12  1  0  0  0  0
 12 17  1  1  0  0  0
 13 18  1  6  0  0  0
 13 12  1  0  0  0  0
 14 19  1  1  0  0  0
 14 16  1  0  0  0  0
 16 10  1  0  0  0  0
 17 10  1  0  0  0  0
 18 14  1  0  0  0  0
 19 21  1  0  0  0  0
 20 21  2  0  0  0  0
 21 22  1  0  0  0  0
 23 24  2  0  0  0  0
 24 22  1  0  0  0  0
 24 25  1  0  0  0  0
 26  8  1  0  0  0  0
 27 31  1  0  0  0  0
 28 27  2  0  0  0  0
 29 31  2  0  0  0  0
 29 26  1  0  0  0  0
 30 28  1  0  0  0  0
 32 28  1  0  0  0  0
 32 33  2  0  0  0  0
 33 29  1  0  0  0  0
M  END
>  <MODEL>
2

>  <REMARK>
 VINA RESULT:      -7.0      4.158      8.867
  Name = 
  7 active torsions:
  status: ('A' for Active; 'I' for Inactive)
    1  A    between atoms: O_2  and  C_12
    2  A    between atoms: O_2  and  C_31
    3  A    between atoms: N_6  and  C_9
    4  A    between atoms: O_8  and  C_13
    5  A    between atoms: O_8  and  C_19
    6  A    between atoms: C_17  and  C_19
    7  A    between atoms: C_17  and  C_24
                            x       y       z     vdW  Elec       q    Type
                         _______ _______ _______ _____ _____    ______ ____

>  <TORSDO>
F 7

$$$$
=
 OpenBabel11042409533D

 33 36  0  0  1  0  0  0  0  0999 V2000
  190.1900  178.3200  148.5370 C   0  0  0  0  0  1  0  0  0  0  0  0
  189.9220  177.5140  146.1950 C   0  0  1  0  0  3  0  0  0  0  0  0
  192.1030  176.7370  146.4850 N   0  0  0  0  0  0  0  0  0  0  0  0
  191.4120  176.3330  147.6900 C   0  0  0  0  0  2  0  0  0  0  0  0
  190.0920  177.0880  147.6570 C   0  0  1  0  0  3  0  0  0  0  0  0
  191.4820  179.4530  142.7510 O   0  0  0  0  0  0  0  0  0  0  0  0
  191.8470  178.0360  144.5430 N   0  0  0  0  0  2  0  0  0  0  0  0
  191.1460  178.3980  143.3540 C   0  0  0  0  0  0  0  0  0  0  0  0
  191.3080  177.3220  145.6600 C   0  0  0  0  0  0  0  0  0  0  0  0
  185.8910  178.6750  146.1260 C   0  0  2  0  0  3  0  0  0  0  0  0
  188.9860  176.5970  145.5400 N   0  0  1  0  0  0  0  0  0  0  0  0
  187.6050  176.8070  146.0520 C   0  0  2  0  0  3  0  0  0  0  0  0
  188.0110  177.3870  144.7810 C   0  0  2  0  0  3  0  0  0  0  0  0
  185.7440  177.4780  143.8060 C   0  0  2  0  0  3  0  0  0  0  0  0
  185.0440  179.1870  147.1080 O   0  0  0  0  0  1  0  0  0  0  0  0
  185.0960  177.7170  145.1990 C   0  0  0  0  0  2  0  0  0  0  0  0
  187.1470  178.0570  146.8000 C   0  0  0  0  0  2  0  0  0  0  0  0
  187.0600  176.6720  143.8500 C   0  0  0  0  0  2  0  0  0  0  0  0
  185.9440  178.7110  143.1240 O   0  0  0  0  0  0  0  0  0  0  0  0
  183.8700  179.4960  142.3610 C   0  0  0  0  0  2  0  0  0  0  0  0
  185.1180  179.1470  142.0850 C   0  0  0  0  0  0  0  0  0  0  0  0
  185.6080  179.2430  140.6740 C   0  0  0  0  0  2  0  0  0  0  0  0
  184.1630  180.1930  139.0340 O   0  0  0  0  0  0  0  0  0  0  0  0
  184.4750  179.1770  139.7080 C   0  0  0  0  0  0  0  0  0  0  0  0
  183.7670  177.9930  139.5410 O   0  0  0  0  0  1  0  0  0  0  0  0
  190.2010  177.5250  142.8000 O   0  0  0  0  0  0  0  0  0  0  0  0
  188.5920  177.4850  139.4700 C   0  0  0  0  0  3  0  0  0  0  0  0
  189.6010  176.9360  138.6760 C   0  0  0  0  0  0  0  0  0  0  0  0
  190.0180  177.2940  141.4270 C   0  0  0  0  0  0  0  0  0  0  0  0
  189.3440  176.7280  136.9570 Cl  0  0  0  0  0  0  0  0  0  0  0  0
  188.8010  177.6630  140.8420 C   0  0  0  0  0  3  0  0  0  0  0  0
  190.8170  176.5600  139.2510 C   0  0  0  0  0  3  0  0  0  0  0  0
  191.0260  176.7400  140.6210 C   0  0  0  0  0  3  0  0  0  0  0  0
  2  9  1  6  0  0  0
  2  5  1  0  0  0  0
  3  4  1  0  0  0  0
  5  4  1  0  0  0  0
  5  1  1  1  0  0  0
  6  8  2  0  0  0  0
  7  9  1  0  0  0  0
  8  7  1  0  0  0  0
  9  3  2  0  0  0  0
 10 17  1  0  0  0  0
 10 15  1  1  0  0  0
 11 12  1  0  0  0  0
 11  2  1  1  0  0  0
 12 17  1  1  0  0  0
 13 18  1  6  0  0  0
 13 11  1  0  0  0  0
 13 12  1  0  0  0  0
 14 19  1  1  0  0  0
 14 18  1  0  0  0  0
 14 16  1  0  0  0  0
 16 10  1  0  0  0  0
 21 20  2  0  0  0  0
 21 19  1  0  0  0  0
 22 21  1  0  0  0  0
 23 24  2  0  0  0  0
 24 22  1  0  0  0  0
 25 24  1  0  0  0  0
 26  8  1  0  0  0  0
 27 31  1  0  0  0  0
 28 32  1  0  0  0  0
 28 27  2  0  0  0  0
 29 26  1  0  0  0  0
 30 28  1  0  0  0  0
 31 29  2  0  0  0  0
 32 33  2  0  0  0  0
 33 29  1  0  0  0  0
M  END
>  <MODEL>
3

>  <REMARK>
 VINA RESULT:      -6.9      3.408      6.780
  Name = 
  7 active torsions:
  status: ('A' for Active; 'I' for Inactive)
    1  A    between atoms: O_2  and  C_12
    2  A    between atoms: O_2  and  C_31
    3  A    between atoms: N_6  and  C_9
    4  A    between atoms: O_8  and  C_13
    5  A    between atoms: O_8  and  C_19
    6  A    between atoms: C_17  and  C_19
    7  A    between atoms: C_17  and  C_24
                            x       y       z     vdW  Elec       q    Type
                         _______ _______ _______ _____ _____    ______ ____

>  <TORSDO>
F 7

$$$$
=
 OpenBabel11042409533D

 33 36  0  0  1  0  0  0  0  0999 V2000
  191.5690  175.5200  143.6660 C   0  0  0  0  0  1  0  0  0  0  0  0
  189.6710  177.1340  143.6700 C   0  0  1  0  0  3  0  0  0  0  0  0
  190.4870  177.6920  145.7830 N   0  0  0  0  0  0  0  0  0  0  0  0
  191.6640  177.6450  144.9430 C   0  0  0  0  0  2  0  0  0  0  0  0
  191.1960  176.9910  143.6510 C   0  0  1  0  0  3  0  0  0  0  0  0
  185.9720  176.5500  145.6760 O   0  0  0  0  0  0  0  0  0  0  0  0
  188.1880  177.2010  145.7920 N   0  0  0  0  0  2  0  0  0  0  0  0
  186.8740  177.3190  145.2490 C   0  0  0  0  0  0  0  0  0  0  0  0
  189.4160  177.4710  145.1070 C   0  0  0  0  0  0  0  0  0  0  0  0
  190.5660  176.7390  139.5900 C   0  0  2  0  0  3  0  0  0  0  0  0
  189.2900  178.2520  142.8030 N   0  0  1  0  0  0  0  0  0  0  0  0
  190.1210  178.2620  141.5690 C   0  0  2  0  0  3  0  0  0  0  0  0
  188.7740  177.7110  141.5410 C   0  0  2  0  0  3  0  0  0  0  0  0
  188.3850  178.1070  139.1350 C   0  0  2  0  0  3  0  0  0  0  0  0
  191.7130  176.3220  138.9160 O   0  0  0  0  0  1  0  0  0  0  0  0
  189.8880  177.8910  138.8010 C   0  0  0  0  0  2  0  0  0  0  0  0
  190.9260  177.0660  141.0660 C   0  0  0  0  0  2  0  0  0  0  0  0
  188.1250  178.6530  140.5560 C   0  0  0  0  0  2  0  0  0  0  0  0
  187.6440  176.9110  138.9240 O   0  0  0  0  0  0  0  0  0  0  0  0
  187.2630  175.4710  137.1120 C   0  0  0  0  0  2  0  0  0  0  0  0
  187.0000  176.6190  137.7180 C   0  0  0  0  0  0  0  0  0  0  0  0
  186.0140  177.5630  137.1020 C   0  0  0  0  0  2  0  0  0  0  0  0
  184.0590  177.2380  138.4260 O   0  0  0  0  0  0  0  0  0  0  0  0
  185.0020  178.0060  138.1010 C   0  0  0  0  0  0  0  0  0  0  0  0
  185.1010  179.2620  138.6860 O   0  0  0  0  0  1  0  0  0  0  0  0
  186.5690  178.3590  144.3620 O   0  0  0  0  0  0  0  0  0  0  0  0
  183.8790  178.3380  141.8240 C   0  0  0  0  0  3  0  0  0  0  0  0
  182.8170  178.9060  142.5340 C   0  0  0  0  0  0  0  0  0  0  0  0
  185.3150  178.5760  143.7680 C   0  0  0  0  0  0  0  0  0  0  0  0
  181.2560  179.0960  141.7660 Cl  0  0  0  0  0  0  0  0  0  0  0  0
  185.1230  178.1750  142.4410 C   0  0  0  0  0  3  0  0  0  0  0  0
  183.0000  179.3150  143.8570 C   0  0  0  0  0  3  0  0  0  0  0  0
  184.2430  179.1490  144.4730 C   0  0  0  0  0  3  0  0  0  0  0  0
  2  9  1  1  0  0  0
  4  3  1  0  0  0  0
  5  1  1  1  0  0  0
  5  2  1  0  0  0  0
  5  4  1  0  0  0  0
  8  6  2  0  0  0  0
  8  7  1  0  0  0  0
  9  3  2  0  0  0  0
  9  7  1  0  0  0  0
 10 15  1  6  0  0  0
 10 17  1  0  0  0  0
 11  2  1  1  0  0  0
 12 17  1  1  0  0  0
 12 11  1  0  0  0  0
 13 18  1  6  0  0  0
 13 12  1  0  0  0  0
 13 11  1  0  0  0  0
 14 19  1  1  0  0  0
 14 18  1  0  0  0  0
 16 14  1  0  0  0  0
 16 10  1  0  0  0  0
 20 21  2  0  0  0  0
 21 19  1  0  0  0  0
 22 21  1  0  0  0  0
 22 24  1  0  0  0  0
 24 23  2  0  0  0  0
 24 25  1  0  0  0  0
 26  8  1  0  0  0  0
 27 31  2  0  0  0  0
 27 28  1  0  0  0  0
 28 32  2  0  0  0  0
 29 26  1  0  0  0  0
 29 33  2  0  0  0  0
 30 28  1  0  0  0  0
 31 29  1  0  0  0  0
 32 33  1  0  0  0  0
M  END
>  <MODEL>
4

>  <REMARK>
 VINA RESULT:      -6.8      2.315      3.502
  Name = 
  7 active torsions:
  status: ('A' for Active; 'I' for Inactive)
    1  A    between atoms: O_2  and  C_12
    2  A    between atoms: O_2  and  C_31
    3  A    between atoms: N_6  and  C_9
    4  A    between atoms: O_8  and  C_13
    5  A    between atoms: O_8  and  C_19
    6  A    between atoms: C_17  and  C_19
    7  A    between atoms: C_17  and  C_24
                            x       y       z     vdW  Elec       q    Type
                         _______ _______ _______ _____ _____    ______ ____

>  <TORSDO>
F 7

$$$$
=
 OpenBabel11042409533D

 33 36  0  0  1  0  0  0  0  0999 V2000
  191.5750  175.6200  143.6340 C   0  0  0  0  0  1  0  0  0  0  0  0
  189.6460  177.1940  143.5630 C   0  0  1  0  0  3  0  0  0  0  0  0
  190.4670  177.8890  145.6330 N   0  0  0  0  0  0  0  0  0  0  0  0
  191.6380  177.8170  144.7860 C   0  0  0  0  0  2  0  0  0  0  0  0
  191.1730  177.0800  143.5380 C   0  0  1  0  0  3  0  0  0  0  0  0
  185.9750  176.6550  145.6340 O   0  0  0  0  0  0  0  0  0  0  0  0
  188.1790  177.3550  145.6910 N   0  0  0  0  0  2  0  0  0  0  0  0
  186.8580  177.4160  145.1550 C   0  0  0  0  0  0  0  0  0  0  0  0
  189.3950  177.6090  144.9800 C   0  0  0  0  0  0  0  0  0  0  0  0
  190.7410  176.7030  139.5430 C   0  0  2  0  0  3  0  0  0  0  0  0
  189.2350  178.2530  142.6370 N   0  0  1  0  0  0  0  0  0  0  0  0
  190.1170  178.2690  141.4390 C   0  0  2  0  0  3  0  0  0  0  0  0
  188.8090  177.6340  141.3770 C   0  0  2  0  0  3  0  0  0  0  0  0
  188.5030  177.9140  138.9430 C   0  0  2  0  0  3  0  0  0  0  0  0
  191.9390  176.3340  138.9340 O   0  0  0  0  0  1  0  0  0  0  0  0
  190.0290  177.7800  138.6810 C   0  0  0  0  0  2  0  0  0  0  0  0
  191.0150  177.1080  141.0180 C   0  0  0  0  0  2  0  0  0  0  0  0
  188.1470  178.4950  140.3290 C   0  0  0  0  0  2  0  0  0  0  0  0
  187.8450  176.6670  138.7500 O   0  0  0  0  0  0  0  0  0  0  0  0
  186.5790  177.0470  136.8120 C   0  0  0  0  0  2  0  0  0  0  0  0
  187.3720  176.2430  137.5050 C   0  0  0  0  0  0  0  0  0  0  0  0
  187.7460  174.9120  136.9300 C   0  0  0  0  0  2  0  0  0  0  0  0
  189.8250  175.5350  135.9430 O   0  0  0  0  0  0  0  0  0  0  0  0
  189.2230  174.7970  136.7660 C   0  0  0  0  0  0  0  0  0  0  0  0
  189.9410  173.8850  137.5290 O   0  0  0  0  0  1  0  0  0  0  0  0
  186.5250  178.3970  144.2120 O   0  0  0  0  0  0  0  0  0  0  0  0
  183.8040  178.2850  141.7100 C   0  0  0  0  0  3  0  0  0  0  0  0
  182.7320  178.8110  142.4350 C   0  0  0  0  0  0  0  0  0  0  0  0
  185.2570  178.5700  143.6350 C   0  0  0  0  0  0  0  0  0  0  0  0
  181.1550  178.9460  141.6890 Cl  0  0  0  0  0  0  0  0  0  0  0  0
  185.0620  178.1660  142.3100 C   0  0  0  0  0  3  0  0  0  0  0  0
  182.9180  179.2220  143.7570 C   0  0  0  0  0  3  0  0  0  0  0  0
  184.1740  179.1010  144.3560 C   0  0  0  0  0  3  0  0  0  0  0  0
  2  9  1  1  0  0  0
  4  3  1  0  0  0  0
  5  2  1  0  0  0  0
  5  1  1  1  0  0  0
  5  4  1  0  0  0  0
  8  6  2  0  0  0  0
  8  7  1  0  0  0  0
  9  3  2  0  0  0  0
  9  7  1  0  0  0  0
 10 15  1  6  0  0  0
 10 17  1  0  0  0  0
 11  2  1  1  0  0  0
 12 17  1  1  0  0  0
 12 11  1  0  0  0  0
 13 18  1  6  0  0  0
 13 12  1  0  0  0  0
 13 11  1  0  0  0  0
 14 19  1  1  0  0  0
 14 18  1  0  0  0  0
 16 14  1  0  0  0  0
 16 10  1  0  0  0  0
 20 21  2  0  0  0  0
 21 19  1  0  0  0  0
 22 21  1  0  0  0  0
 23 24  2  0  0  0  0
 24 22  1  0  0  0  0
 24 25  1  0  0  0  0
 26  8  1  0  0  0  0
 27 31  2  0  0  0  0
 27 28  1  0  0  0  0
 28 32  2  0  0  0  0
 29 26  1  0  0  0  0
 29 33  2  0  0  0  0
 30 28  1  0  0  0  0
 31 29  1  0  0  0  0
 32 33  1  0  0  0  0
M  END
>  <MODEL>
5

>  <REMARK>
 VINA RESULT:      -6.6      2.480      4.301
  Name = 
  7 active torsions:
  status: ('A' for Active; 'I' for Inactive)
    1  A    between atoms: O_2  and  C_12
    2  A    between atoms: O_2  and  C_31
    3  A    between atoms: N_6  and  C_9
    4  A    between atoms: O_8  and  C_13
    5  A    between atoms: O_8  and  C_19
    6  A    between atoms: C_17  and  C_19
    7  A    between atoms: C_17  and  C_24
                            x       y       z     vdW  Elec       q    Type
                         _______ _______ _______ _____ _____    ______ ____

>  <TORSDO>
F 7

$$$$
=
 OpenBabel11042409533D

 33 36  0  0  1  0  0  0  0  0999 V2000
  189.4410  178.6280  136.4810 C   0  0  0  0  0  1  0  0  0  0  0  0
  187.8590  177.8800  138.2540 C   0  0  1  0  0  3  0  0  0  0  0  0
  186.4700  177.3830  136.4470 N   0  0  0  0  0  0  0  0  0  0  0  0
  187.7610  176.8490  136.0680 C   0  0  0  0  0  2  0  0  0  0  0  0
  188.7360  177.4270  137.0840 C   0  0  1  0  0  3  0  0  0  0  0  0
  184.5480  180.1280  139.6820 O   0  0  0  0  0  0  0  0  0  0  0  0
  185.4110  178.7070  138.0740 N   0  0  0  0  0  2  0  0  0  0  0  0
  185.0870  179.0180  139.4280 C   0  0  0  0  0  0  0  0  0  0  0  0
  186.4980  177.8890  137.6280 C   0  0  0  0  0  0  0  0  0  0  0  0
  191.5030  177.5710  140.3090 C   0  0  2  0  0  3  0  0  0  0  0  0
  187.9300  176.8740  139.3170 N   0  0  1  0  0  0  0  0  0  0  0  0
  189.3420  176.4740  139.5630 C   0  0  2  0  0  3  0  0  0  0  0  0
  188.6880  177.4330  140.4410 C   0  0  2  0  0  3  0  0  0  0  0  0
  190.0870  176.9610  142.4210 C   0  0  2  0  0  3  0  0  0  0  0  0
  192.8260  177.5220  139.8730 O   0  0  0  0  0  1  0  0  0  0  0  0
  191.3240  176.6380  141.5370 C   0  0  0  0  0  2  0  0  0  0  0  0
  190.5550  177.2840  139.1130 C   0  0  0  0  0  2  0  0  0  0  0  0
  188.7310  176.6690  141.7430 C   0  0  0  0  0  2  0  0  0  0  0  0
  190.1290  178.3100  142.8750 O   0  0  0  0  0  0  0  0  0  0  0  0
  191.3060  179.7360  144.3180 C   0  0  0  0  0  2  0  0  0  0  0  0
  190.5420  178.6650  144.1620 C   0  0  0  0  0  0  0  0  0  0  0  0
  190.1340  177.8760  145.3670 C   0  0  0  0  0  2  0  0  0  0  0  0
  191.8410  176.2380  145.0750 O   0  0  0  0  0  0  0  0  0  0  0  0
  191.2600  177.0320  145.8590 C   0  0  0  0  0  0  0  0  0  0  0  0
  191.6790  177.1280  147.1800 O   0  0  0  0  0  1  0  0  0  0  0  0
  185.2420  178.0500  140.4290 O   0  0  0  0  0  0  0  0  0  0  0  0
  183.4590  178.6490  143.6140 C   0  0  0  0  0  3  0  0  0  0  0  0
  184.5090  178.6150  144.5350 C   0  0  0  0  0  0  0  0  0  0  0  0
  185.0280  178.2610  141.8010 C   0  0  0  0  0  0  0  0  0  0  0  0
  184.1810  178.8210  146.2420 Cl  0  0  0  0  0  0  0  0  0  0  0  0
  183.7200  178.4730  142.2510 C   0  0  0  0  0  3  0  0  0  0  0  0
  185.8190  178.4110  144.0950 C   0  0  0  0  0  3  0  0  0  0  0  0
  186.0780  178.2320  142.7340 C   0  0  0  0  0  3  0  0  0  0  0  0
  2  9  1  6  0  0  0
  3  9  2  0  0  0  0
  4  3  1  0  0  0  0
  4  5  1  0  0  0  0
  5  1  1  6  0  0  0
  5  2  1  0  0  0  0
  7  8  1  0  0  0  0
  8  6  2  0  0  0  0
  8 26  1  0  0  0  0
  9  7  1  0  0  0  0
 10 15  1  6  0  0  0
 10 16  1  0  0  0  0
 11  2  1  6  0  0  0
 11 12  1  0  0  0  0
 11 13  1  0  0  0  0
 12 17  1  6  0  0  0
 12 13  1  0  0  0  0
 13 18  1  1  0  0  0
 14 19  1  6  0  0  0
 16 14  1  0  0  0  0
 17 10  1  0  0  0  0
 18 14  1  0  0  0  0
 19 21  1  0  0  0  0
 21 20  2  0  0  0  0
 21 22  1  0  0  0  0
 22 24  1  0  0  0  0
 23 24  2  0  0  0  0
 24 25  1  0  0  0  0
 26 29  1  0  0  0  0
 27 28  1  0  0  0  0
 28 30  1  0  0  0  0
 29 31  1  0  0  0  0
 29 33  2  0  0  0  0
 31 27  2  0  0  0  0
 32 28  2  0  0  0  0
 33 32  1  0  0  0  0
M  END
>  <MODEL>
6

>  <REMARK>
 VINA RESULT:      -6.6      2.530      6.175
  Name = 
  7 active torsions:
  status: ('A' for Active; 'I' for Inactive)
    1  A    between atoms: O_2  and  C_12
    2  A    between atoms: O_2  and  C_31
    3  A    between atoms: N_6  and  C_9
    4  A    between atoms: O_8  and  C_13
    5  A    between atoms: O_8  and  C_19
    6  A    between atoms: C_17  and  C_19
    7  A    between atoms: C_17  and  C_24
                            x       y       z     vdW  Elec       q    Type
                         _______ _______ _______ _____ _____    ______ ____

>  <TORSDO>
F 7

$$$$
=
 OpenBabel11042409533D

 33 36  0  0  1  0  0  0  0  0999 V2000
  181.0480  177.3240  139.2780 C   0  0  0  0  0  1  0  0  0  0  0  0
  183.4510  177.7500  138.7790 C   0  0  1  0  0  3  0  0  0  0  0  0
  182.6880  177.9900  136.5870 N   0  0  0  0  0  0  0  0  0  0  0  0
  181.7540  178.7590  137.3810 C   0  0  0  0  0  2  0  0  0  0  0  0
  182.0500  178.3680  138.8210 C   0  0  1  0  0  3  0  0  0  0  0  0
  186.1440  174.9120  137.1210 O   0  0  0  0  0  0  0  0  0  0  0  0
  184.4800  176.4800  136.7700 N   0  0  0  0  0  2  0  0  0  0  0  0
  185.7650  176.1060  137.2640 C   0  0  0  0  0  0  0  0  0  0  0  0
  183.6240  177.4900  137.3140 C   0  0  0  0  0  0  0  0  0  0  0  0
  183.6310  178.4120  142.9180 C   0  0  2  0  0  3  0  0  0  0  0  0
  184.4210  178.7460  139.2430 N   0  0  1  0  0  0  0  0  0  0  0  0
  184.0190  179.2870  140.5690 C   0  0  2  0  0  3  0  0  0  0  0  0
  185.0410  178.2550  140.4790 C   0  0  2  0  0  3  0  0  0  0  0  0
  186.1880  178.8450  142.5840 C   0  0  2  0  0  3  0  0  0  0  0  0
  182.6430  178.6050  143.8820 O   0  0  0  0  0  1  0  0  0  0  0  0
  184.8570  179.3060  143.2430 C   0  0  0  0  0  2  0  0  0  0  0  0
  183.0180  178.6140  141.5040 C   0  0  0  0  0  2  0  0  0  0  0  0
  186.2220  179.0030  141.0490 C   0  0  0  0  0  2  0  0  0  0  0  0
  186.4920  177.5030  142.9470 O   0  0  0  0  0  0  0  0  0  0  0  0
  187.6980  177.6510  144.9540 C   0  0  0  0  0  2  0  0  0  0  0  0
  187.6000  177.1600  143.7270 C   0  0  0  0  0  0  0  0  0  0  0  0
  188.6700  176.2430  143.2190 C   0  0  0  0  0  2  0  0  0  0  0  0
  191.0330  176.5110  143.0680 O   0  0  0  0  0  1  0  0  0  0  0  0
  189.8970  177.0060  142.8520 C   0  0  0  0  0  0  0  0  0  0  0  0
  189.7900  178.2590  142.2610 O   0  0  0  0  0  0  0  0  0  0  0  0
  186.6360  177.0790  137.7720 O   0  0  0  0  0  0  0  0  0  0  0  0
  190.0940  176.9070  139.0710 C   0  0  0  0  0  3  0  0  0  0  0  0
  190.8290  176.7330  137.8950 C   0  0  0  0  0  0  0  0  0  0  0  0
  188.0370  176.9870  137.7830 C   0  0  0  0  0  0  0  0  0  0  0  0
  192.5690  176.5590  137.9690 Cl  0  0  0  0  0  0  0  0  0  0  0  0
  188.7020  177.0340  139.0130 C   0  0  0  0  0  3  0  0  0  0  0  0
  190.1740  176.6900  136.6620 C   0  0  0  0  0  3  0  0  0  0  0  0
  188.7840  176.8140  136.6050 C   0  0  0  0  0  3  0  0  0  0  0  0
  2  9  1  6  0  0  0
  2  5  1  0  0  0  0
  3  9  2  0  0  0  0
  3  4  1  0  0  0  0
  4  5  1  0  0  0  0
  5  1  1  6  0  0  0
  6  8  2  0  0  0  0
  7  8  1  0  0  0  0
  7  9  1  0  0  0  0
  8 26  1  0  0  0  0
 10 16  1  0  0  0  0
 10 15  1  1  0  0  0
 11  2  1  1  0  0  0
 11 13  1  0  0  0  0
 11 12  1  0  0  0  0
 12 17  1  1  0  0  0
 13 12  1  0  0  0  0
 13 18  1  6  0  0  0
 14 19  1  6  0  0  0
 14 16  1  0  0  0  0
 17 10  1  0  0  0  0
 18 14  1  0  0  0  0
 19 21  1  0  0  0  0
 21 20  2  0  0  0  0
 22 21  1  0  0  0  0
 24 23  1  0  0  0  0
 24 22  1  0  0  0  0
 25 24  2  0  0  0  0
 26 29  1  0  0  0  0
 28 30  1  0  0  0  0
 28 27  2  0  0  0  0
 29 31  2  0  0  0  0
 31 27  1  0  0  0  0
 32 28  1  0  0  0  0
 33 32  2  0  0  0  0
 33 29  1  0  0  0  0
M  END
>  <MODEL>
7

>  <REMARK>
 VINA RESULT:      -6.4      3.486      7.888
  Name = 
  7 active torsions:
  status: ('A' for Active; 'I' for Inactive)
    1  A    between atoms: O_2  and  C_12
    2  A    between atoms: O_2  and  C_31
    3  A    between atoms: N_6  and  C_9
    4  A    between atoms: O_8  and  C_13
    5  A    between atoms: O_8  and  C_19
    6  A    between atoms: C_17  and  C_19
    7  A    between atoms: C_17  and  C_24
                            x       y       z     vdW  Elec       q    Type
                         _______ _______ _______ _____ _____    ______ ____

>  <TORSDO>
F 7

$$$$
=
 OpenBabel11042409533D

 33 36  0  0  1  0  0  0  0  0999 V2000
  179.7810  177.1230  141.2800 C   0  0  0  0  0  1  0  0  0  0  0  0
  181.8020  177.4970  139.8730 C   0  0  1  0  0  3  0  0  0  0  0  0
  180.2980  177.2680  138.1050 N   0  0  0  0  0  0  0  0  0  0  0  0
  179.6340  178.1600  139.0310 C   0  0  0  0  0  2  0  0  0  0  0  0
  180.4530  178.0770  140.3100 C   0  0  1  0  0  3  0  0  0  0  0  0
  183.9990  174.4460  137.8930 O   0  0  0  0  0  0  0  0  0  0  0  0
  182.1750  175.8700  137.8930 N   0  0  0  0  0  2  0  0  0  0  0  0
  183.5820  175.6350  137.9450 C   0  0  0  0  0  0  0  0  0  0  0  0
  181.4730  176.9490  138.5190 C   0  0  0  0  0  0  0  0  0  0  0  0
  183.9170  178.4840  143.3600 C   0  0  2  0  0  3  0  0  0  0  0  0
  182.7740  178.5890  139.7650 N   0  0  1  0  0  0  0  0  0  0  0  0
  183.0210  179.2010  141.0980 C   0  0  2  0  0  3  0  0  0  0  0  0
  183.9630  178.2370  140.5490 C   0  0  2  0  0  3  0  0  0  0  0  0
  185.9290  179.0640  141.7930 C   0  0  2  0  0  3  0  0  0  0  0  0
  183.5130  178.6830  144.6790 O   0  0  0  0  0  1  0  0  0  0  0  0
  185.0530  179.4820  143.0070 C   0  0  0  0  0  2  0  0  0  0  0  0
  182.6750  178.5350  142.4270 C   0  0  0  0  0  2  0  0  0  0  0  0
  185.1930  179.1050  140.4370 C   0  0  0  0  0  2  0  0  0  0  0  0
  186.5000  177.7770  142.0030 O   0  0  0  0  0  0  0  0  0  0  0  0
  188.7880  178.2410  142.2380 C   0  0  0  0  0  2  0  0  0  0  0  0
  187.7180  177.5850  142.6620 C   0  0  0  0  0  0  0  0  0  0  0  0
  187.8410  176.6700  143.8410 C   0  0  0  0  0  2  0  0  0  0  0  0
  186.8620  177.8400  145.6730 O   0  0  0  0  0  0  0  0  0  0  0  0
  187.9170  177.4440  145.1130 C   0  0  0  0  0  0  0  0  0  0  0  0
  189.1500  177.7210  145.6890 O   0  0  0  0  0  1  0  0  0  0  0  0
  184.4780  176.7110  137.9170 O   0  0  0  0  0  0  0  0  0  0  0  0
  186.7460  177.5060  135.1050 C   0  0  0  0  0  3  0  0  0  0  0  0
  187.9610  176.9980  135.5710 C   0  0  0  0  0  0  0  0  0  0  0  0
  185.6480  176.7710  137.1430 C   0  0  0  0  0  0  0  0  0  0  0  0
  189.4050  177.1550  134.5950 Cl  0  0  0  0  0  0  0  0  0  0  0  0
  185.5940  177.3920  135.8910 C   0  0  0  0  0  3  0  0  0  0  0  0
  188.0250  176.3720  136.8180 C   0  0  0  0  0  3  0  0  0  0  0  0
  186.8740  176.2600  137.6020 C   0  0  0  0  0  3  0  0  0  0  0  0
  2  9  1  6  0  0  0
  2  5  1  0  0  0  0
  3  9  2  0  0  0  0
  3  4  1  0  0  0  0
  4  5  1  0  0  0  0
  5  1  1  1  0  0  0
  6  8  2  0  0  0  0
  7  8  1  0  0  0  0
  7  9  1  0  0  0  0
 10 15  1  1  0  0  0
 11  2  1  1  0  0  0
 11 13  1  0  0  0  0
 11 12  1  0  0  0  0
 12 17  1  1  0  0  0
 13 18  1  6  0  0  0
 13 12  1  0  0  0  0
 14 19  1  1  0  0  0
 14 16  1  0  0  0  0
 16 10  1  0  0  0  0
 17 10  1  0  0  0  0
 18 14  1  0  0  0  0
 19 21  1  0  0  0  0
 20 21  2  0  0  0  0
 21 22  1  0  0  0  0
 22 24  1  0  0  0  0
 24 23  2  0  0  0  0
 24 25  1  0  0  0  0
 26  8  1  0  0  0  0
 27 28  2  0  0  0  0
 27 31  1  0  0  0  0
 28 32  1  0  0  0  0
 29 33  1  0  0  0  0
 29 26  1  0  0  0  0
 30 28  1  0  0  0  0
 31 29  2  0  0  0  0
 32 33  2  0  0  0  0
M  END
>  <MODEL>
8

>  <REMARK>
 VINA RESULT:      -6.3      4.062      8.413
  Name = 
  7 active torsions:
  status: ('A' for Active; 'I' for Inactive)
    1  A    between atoms: O_2  and  C_12
    2  A    between atoms: O_2  and  C_31
    3  A    between atoms: N_6  and  C_9
    4  A    between atoms: O_8  and  C_13
    5  A    between atoms: O_8  and  C_19
    6  A    between atoms: C_17  and  C_19
    7  A    between atoms: C_17  and  C_24
                            x       y       z     vdW  Elec       q    Type
                         _______ _______ _______ _____ _____    ______ ____

>  <TORSDO>
F 7

$$$$
=
 OpenBabel11042409533D

 33 36  0  0  1  0  0  0  0  0999 V2000
  179.5450  180.4200  141.2780 C   0  0  0  0  0  1  0  0  0  0  0  0
  181.5240  179.0240  141.8600 C   0  0  1  0  0  3  0  0  0  0  0  0
  180.5270  178.9450  143.9680 N   0  0  0  0  0  0  0  0  0  0  0  0
  179.4430  178.6810  143.0450 C   0  0  0  0  0  2  0  0  0  0  0  0
  180.0040  179.0290  141.6740 C   0  0  1  0  0  3  0  0  0  0  0  0
  184.9520  180.3990  143.9600 O   0  0  0  0  0  0  0  0  0  0  0  0
  182.7780  179.6130  144.0480 N   0  0  0  0  0  2  0  0  0  0  0  0
  184.1470  179.4740  143.6690 C   0  0  0  0  0  0  0  0  0  0  0  0
  181.6480  179.0790  143.3520 C   0  0  0  0  0  0  0  0  0  0  0  0
  182.1440  178.7940  137.7170 C   0  0  2  0  0  3  0  0  0  0  0  0
  182.0600  177.7610  141.3460 N   0  0  1  0  0  0  0  0  0  0  0  0
  181.7120  177.5930  139.9090 C   0  0  2  0  0  3  0  0  0  0  0  0
  183.0350  178.0600  140.2920 C   0  0  2  0  0  3  0  0  0  0  0  0
  184.1880  177.2570  138.2620 C   0  0  2  0  0  3  0  0  0  0  0  0
  181.3530  179.1550  136.6280 O   0  0  0  0  0  1  0  0  0  0  0  0
  182.9260  177.4950  137.3860 C   0  0  0  0  0  2  0  0  0  0  0  0
  181.2630  178.7310  138.9950 C   0  0  0  0  0  2  0  0  0  0  0  0
  183.8810  176.9370  139.7410 C   0  0  0  0  0  2  0  0  0  0  0  0
  185.0800  178.3620  138.1720 O   0  0  0  0  0  0  0  0  0  0  0  0
  186.5290  178.2310  136.3320 C   0  0  0  0  0  2  0  0  0  0  0  0
  186.3710  178.2550  137.6470 C   0  0  0  0  0  0  0  0  0  0  0  0
  187.5780  178.1790  138.5300 C   0  0  0  0  0  2  0  0  0  0  0  0
  189.0570  179.7910  137.5830 O   0  0  0  0  0  1  0  0  0  0  0  0
  188.8090  178.5740  137.7870 C   0  0  0  0  0  0  0  0  0  0  0  0
  189.6900  177.6030  137.3300 O   0  0  0  0  0  0  0  0  0  0  0  0
  184.6050  178.2750  143.1080 O   0  0  0  0  0  0  0  0  0  0  0  0
  188.0950  177.5670  142.1110 C   0  0  0  0  0  3  0  0  0  0  0  0
  188.5960  176.9480  143.2590 C   0  0  0  0  0  0  0  0  0  0  0  0
  185.9240  177.8000  143.1750 C   0  0  0  0  0  0  0  0  0  0  0  0
  190.2680  176.4320  143.3150 Cl  0  0  0  0  0  0  0  0  0  0  0  0
  186.7630  177.9910  142.0710 C   0  0  0  0  0  3  0  0  0  0  0  0
  187.7660  176.7480  144.3650 C   0  0  0  0  0  3  0  0  0  0  0  0
  186.4360  177.1740  144.3240 C   0  0  0  0  0  3  0  0  0  0  0  0
  2  9  1  1  0  0  0
  4  3  1  0  0  0  0
  5  1  1  1  0  0  0
  5  2  1  0  0  0  0
  5  4  1  0  0  0  0
  8  6  2  0  0  0  0
  8  7  1  0  0  0  0
  9  3  2  0  0  0  0
  9  7  1  0  0  0  0
 10 15  1  6  0  0  0
 10 17  1  0  0  0  0
 11  2  1  6  0  0  0
 12 17  1  6  0  0  0
 12 13  1  0  0  0  0
 12 11  1  0  0  0  0
 13 18  1  1  0  0  0
 13 11  1  0  0  0  0
 14 19  1  1  0  0  0
 14 18  1  0  0  0  0
 16 10  1  0  0  0  0
 16 14  1  0  0  0  0
 20 21  2  0  0  0  0
 21 19  1  0  0  0  0
 21 22  1  0  0  0  0
 23 24  1  0  0  0  0
 24 22  1  0  0  0  0
 25 24  2  0  0  0  0
 26 29  1  0  0  0  0
 26  8  1  0  0  0  0
 27 28  1  0  0  0  0
 28 30  1  0  0  0  0
 28 32  2  0  0  0  0
 29 33  2  0  0  0  0
 31 27  2  0  0  0  0
 31 29  1  0  0  0  0
 33 32  1  0  0  0  0
M  END
>  <MODEL>
9

>  <REMARK>
 VINA RESULT:      -6.1      3.802      7.065
  Name = 
  7 active torsions:
  status: ('A' for Active; 'I' for Inactive)
    1  A    between atoms: O_2  and  C_12
    2  A    between atoms: O_2  and  C_31
    3  A    between atoms: N_6  and  C_9
    4  A    between atoms: O_8  and  C_13
    5  A    between atoms: O_8  and  C_19
    6  A    between atoms: C_17  and  C_19
    7  A    between atoms: C_17  and  C_24
                            x       y       z     vdW  Elec       q    Type
                         _______ _______ _______ _____ _____    ______ ____

>  <TORSDO>
F 7

$$$$
