=
 OpenBabel11042412203D

 44 49  0  0  1  0  0  0  0  0999 V2000
  185.6060  178.7060  141.6520 C   0  0  2  0  0  3  0  0  0  0  0  0
  185.0230  179.2070  140.3430 C   0  0  0  0  0  1  0  0  0  0  0  0
  184.8890  179.3650  142.8200 C   0  0  0  0  0  2  0  0  0  0  0  0
  183.6610  178.5500  143.1840 C   0  0  1  0  0  3  0  0  0  0  0  0
  183.1930  178.9510  144.5660 C   0  0  0  0  0  2  0  0  0  0  0  0
  182.4660  179.4710  143.3400 C   0  0  2  0  0  3  0  0  0  0  0  0
  181.1950  178.6640  143.1060 C   0  0  1  0  0  3  0  0  0  0  0  0
  180.3650  178.7050  144.2290 O   0  0  0  0  0  1  0  0  0  0  0  0
  180.4450  179.1310  141.8570 C   0  0  0  0  0  2  0  0  0  0  0  0
  181.3020  179.1120  140.5900 C   0  0  0  0  0  2  0  0  0  0  0  0
  180.7670  177.6820  138.1590 O   0  0  0  0  0  0  0  0  0  0  0  0
  181.5080  177.1340  139.0200 C   0  0  0  0  0  0  0  0  0  0  0  0
  181.7440  177.7560  140.2840 N   0  0  0  0  0  2  0  0  0  0  0  0
  182.3000  175.5740  138.6480 S   0  0  0  0  0  0  0  0  0  0  0  0
  182.6370  176.0910  136.9370 C   0  0  0  0  0  2  0  0  0  0  0  0
  185.3000  172.9930  138.0850 N   0  0  0  0  0  1  0  0  0  0  0  0
  185.1400  175.9520  136.9230 C   0  0  0  0  0  0  0  0  0  0  0  0
  187.1220  175.1650  135.8240 N   0  0  0  0  0  1  0  0  0  0  0  0
  186.2220  174.9390  136.9450 C   0  0  2  0  0  3  0  0  0  0  0  0
  185.3300  177.1460  137.2870 O   0  0  0  0  0  0  0  0  0  0  0  0
  183.8780  175.4960  136.4730 N   0  0  0  0  0  0  0  0  0  0  0  0
  183.9280  173.8230  135.9230 S   0  0  0  0  0  0  0  0  0  0  0  0
  185.5320  173.5820  136.7770 C   0  0  2  0  0  3  0  0  0  0  0  0
  186.9750  179.0000  141.6960 O   0  0  0  0  0  0  0  0  0  0  0  0
  188.0620  177.9250  143.5220 C   0  0  1  0  0  3  0  0  0  0  0  0
  189.5770  177.7270  143.4680 C   0  0  1  0  0  3  0  0  0  0  0  0
  190.0130  177.9340  142.0970 N   0  0  0  0  0  2  0  0  0  0  0  0
  187.5950  177.8010  142.0870 C   0  0  2  0  0  3  0  0  0  0  0  0
  188.8700  177.5300  141.2850 C   0  0  1  0  0  3  0  0  0  0  0  0
  188.8630  178.0990  139.8500 C   0  0  0  0  0  3  0  0  0  0  0  0
  189.9940  177.5360  139.0010 C   0  0  0  0  0  2  0  0  0  0  0  0
  188.5760  177.0250  138.8070 C   0  0  0  0  0  2  0  0  0  0  0  0
  190.3240  178.6120  144.3740 N   0  0  0  0  0  2  0  0  0  0  0  0
  191.3760  177.9550  144.9360 O   0  0  0  0  0  0  0  0  0  0  0  0
  192.6220  175.2050  146.1420 C   0  0  0  0  0  2  0  0  0  0  0  0
  192.6080  175.8320  148.4320 O   0  0  0  0  0  0  0  0  0  0  0  0
  190.9890  176.8440  147.0310 C   0  0  0  0  0  2  0  0  0  0  0  0
  191.6560  175.5870  145.0330 C   0  0  0  0  0  2  0  0  0  0  0  0
  190.8480  176.7900  145.5140 C   0  0  2  0  0  3  0  0  0  0  0  0
  192.1220  175.9450  147.3180 C   0  0  0  0  0  0  0  0  0  0  0  0
  187.4070  176.8430  144.3690 C   0  0  0  0  0  2  0  0  0  0  0  0
  187.3420  177.2760  145.8250 C   0  0  0  0  0  3  0  0  0  0  0  0
  185.8890  177.3720  146.2520 C   0  0  0  0  0  2  0  0  0  0  0  0
  186.6630  178.6260  145.9010 C   0  0  0  0  0  2  0  0  0  0  0  0
  1  2  1  6  0  0  0
  1 24  1  0  0  0  0
  1  3  1  0  0  0  0
  4  3  1  6  0  0  0
  4  6  1  0  0  0  0
  4  5  1  0  0  0  0
  6  7  1  1  0  0  0
  6  5  1  0  0  0  0
  7  8  1  1  0  0  0
  9  7  1  0  0  0  0
 10  9  1  0  0  0  0
 11 12  2  0  0  0  0
 12 13  1  0  0  0  0
 13 10  1  0  0  0  0
 14 12  1  0  0  0  0
 15 14  1  0  0  0  0
 17 19  1  0  0  0  0
 17 20  2  0  0  0  0
 19 18  1  6  0  0  0
 21 17  1  0  0  0  0
 21 15  1  0  0  0  0
 22 21  1  0  0  0  0
 22 23  1  0  0  0  0
 23 19  1  0  0  0  0
 23 16  1  1  0  0  0
 25 41  1  1  0  0  0
 26 25  1  0  0  0  0
 26 33  1  1  0  0  0
 27 26  1  0  0  0  0
 28 24  1  6  0  0  0
 28 25  1  0  0  0  0
 29 30  1  6  0  0  0
 29 28  1  0  0  0  0
 29 27  1  0  0  0  0
 31 30  1  0  0  0  0
 32 31  1  0  0  0  0
 32 30  1  0  0  0  0
 33 34  1  0  0  0  0
 35 40  1  0  0  0  0
 37 40  1  0  0  0  0
 38 39  1  0  0  0  0
 38 35  1  0  0  0  0
 39 34  1  6  0  0  0
 39 37  1  0  0  0  0
 40 36  2  0  0  0  0
 41 42  1  0  0  0  0
 42 44  1  0  0  0  0
 42 43  1  0  0  0  0
 44 43  1  0  0  0  0
M  END
>  <MODEL>
1

>  <REMARK>
 VINA RESULT:      -7.1      0.000      0.000
  Name = 
  17 active torsions:
  status: ('A' for Active; 'I' for Inactive)
    1  A    between atoms: C_1  and  C_16
    2  A    between atoms: C_2  and  C_36
    3  A    between atoms: C_5  and  C_16
    4  A    between atoms: C_7  and  C_37
    5  A    between atoms: C_8  and  N_31
    6  A    between atoms: C_11  and  N_25
    7  A    between atoms: C_11  and  C_40
    8  A    between atoms: C_14  and  O_18
    9  A    between atoms: C_14  and  C_37
   10  A    between atoms: O_18  and  C_19
   11  A    between atoms: C_21  and  C_27
   12  A    between atoms: C_21  and  C_40
   13  A    between atoms: C_23  and  S_26
   14  A    between atoms: S_26  and  C_30
   15  A    between atoms: O_29  and  N_31
   16  A    between atoms: O_29  and  C_41
   17  A    between atoms: C_30  and  N_33
                            x       y       z     vdW  Elec       q    Type
                         _______ _______ _______ _____ _____    ______ ____

>  <TORSDO>
F 17

$$$$
=
 OpenBabel11042412203D

 44 49  0  0  1  0  0  0  0  0999 V2000
  188.9780  177.9660  138.0770 C   0  0  2  0  0  3  0  0  0  0  0  0
  188.8380  179.0890  137.0660 C   0  0  0  0  0  1  0  0  0  0  0  0
  187.6750  177.1860  138.1630 C   0  0  0  0  0  2  0  0  0  0  0  0
  187.4490  176.4340  136.8630 C   0  0  1  0  0  3  0  0  0  0  0  0
  188.6630  175.5810  136.5680 C   0  0  0  0  0  2  0  0  0  0  0  0
  187.4090  174.9440  137.1370 C   0  0  2  0  0  3  0  0  0  0  0  0
  186.6180  174.2650  136.0260 C   0  0  1  0  0  3  0  0  0  0  0  0
  186.7290  172.8750  136.1140 O   0  0  0  0  0  1  0  0  0  0  0  0
  185.1500  174.6960  136.0250 C   0  0  0  0  0  2  0  0  0  0  0  0
  184.2080  173.6550  136.6320 C   0  0  0  0  0  2  0  0  0  0  0  0
  181.6500  174.8850  136.2080 O   0  0  0  0  0  0  0  0  0  0  0  0
  182.0690  174.7790  137.3930 C   0  0  0  0  0  0  0  0  0  0  0  0
  183.3700  174.2540  137.6640 N   0  0  0  0  0  2  0  0  0  0  0  0
  181.0170  175.2620  138.7560 S   0  0  0  0  0  0  0  0  0  0  0  0
  182.3860  176.1350  139.5740 C   0  0  0  0  0  2  0  0  0  0  0  0
  184.8740  179.5370  140.0680 N   0  0  0  0  0  1  0  0  0  0  0  0
  181.8790  178.5900  139.5530 C   0  0  0  0  0  0  0  0  0  0  0  0
  181.8950  180.6540  138.3300 N   0  0  0  0  0  1  0  0  0  0  0  0
  182.5670  179.8910  139.3700 C   0  0  2  0  0  3  0  0  0  0  0  0
  180.7770  178.4920  140.1610 O   0  0  0  0  0  0  0  0  0  0  0  0
  182.5390  177.4640  139.0060 N   0  0  0  0  0  0  0  0  0  0  0  0
  183.9940  177.9050  138.1170 S   0  0  0  0  0  0  0  0  0  0  0  0
  183.9900  179.5550  138.9150 C   0  0  2  0  0  3  0  0  0  0  0  0
  189.3040  178.5030  139.3290 O   0  0  0  0  0  0  0  0  0  0  0  0
  189.3330  177.8340  141.6150 C   0  0  1  0  0  3  0  0  0  0  0  0
  190.6730  177.4900  142.2670 C   0  0  1  0  0  3  0  0  0  0  0  0
  191.6550  177.3010  141.2140 N   0  0  0  0  0  2  0  0  0  0  0  0
  189.4720  177.3920  140.1730 C   0  0  2  0  0  3  0  0  0  0  0  0
  190.8840  176.8100  140.0770 C   0  0  1  0  0  3  0  0  0  0  0  0
  191.5660  176.9930  138.7050 C   0  0  0  0  0  3  0  0  0  0  0  0
  193.0290  176.5740  138.7270 C   0  0  0  0  0  2  0  0  0  0  0  0
  191.9910  175.6640  138.0920 C   0  0  0  0  0  2  0  0  0  0  0  0
  191.1440  178.5050  143.2210 N   0  0  0  0  0  2  0  0  0  0  0  0
  191.8190  177.9240  144.2520 O   0  0  0  0  0  0  0  0  0  0  0  0
  191.6670  176.2180  147.0160 C   0  0  0  0  0  2  0  0  0  0  0  0
  190.0480  177.5580  148.1230 O   0  0  0  0  0  0  0  0  0  0  0  0
  189.9850  177.5340  145.7550 C   0  0  0  0  0  2  0  0  0  0  0  0
  191.8130  175.9130  145.5350 C   0  0  0  0  0  2  0  0  0  0  0  0
  190.9730  176.9290  144.7640 C   0  0  2  0  0  3  0  0  0  0  0  0
  190.5170  177.1430  147.0740 C   0  0  0  0  0  0  0  0  0  0  0  0
  188.1980  177.0680  142.2780 C   0  0  0  0  0  2  0  0  0  0  0  0
  187.4930  177.9450  143.3000 C   0  0  0  0  0  3  0  0  0  0  0  0
  186.6060  177.0780  144.1730 C   0  0  0  0  0  2  0  0  0  0  0  0
  186.0030  177.8870  143.0440 C   0  0  0  0  0  2  0  0  0  0  0  0
  1  2  1  6  0  0  0
  1  3  1  0  0  0  0
  1 24  1  0  0  0  0
  4  6  1  0  0  0  0
  4  3  1  1  0  0  0
  5  4  1  0  0  0  0
  5  6  1  0  0  0  0
  6  7  1  6  0  0  0
  7  8  1  1  0  0  0
  9  7  1  0  0  0  0
  9 10  1  0  0  0  0
 10 13  1  0  0  0  0
 11 12  2  0  0  0  0
 12 13  1  0  0  0  0
 12 14  1  0  0  0  0
 14 15  1  0  0  0  0
 17 20  2  0  0  0  0
 19 18  1  6  0  0  0
 19 17  1  0  0  0  0
 21 17  1  0  0  0  0
 21 15  1  0  0  0  0
 22 23  1  0  0  0  0
 22 21  1  0  0  0  0
 23 19  1  0  0  0  0
 23 16  1  1  0  0  0
 25 26  1  0  0  0  0
 25 41  1  1  0  0  0
 26 33  1  1  0  0  0
 27 26  1  0  0  0  0
 28 24  1  6  0  0  0
 28 25  1  0  0  0  0
 29 30  1  6  0  0  0
 29 28  1  0  0  0  0
 29 27  1  0  0  0  0
 30 31  1  0  0  0  0
 32 30  1  0  0  0  0
 32 31  1  0  0  0  0
 33 34  1  0  0  0  0
 35 40  1  0  0  0  0
 37 40  1  0  0  0  0
 38 35  1  0  0  0  0
 39 34  1  1  0  0  0
 39 38  1  0  0  0  0
 39 37  1  0  0  0  0
 40 36  2  0  0  0  0
 41 42  1  0  0  0  0
 42 43  1  0  0  0  0
 44 42  1  0  0  0  0
 44 43  1  0  0  0  0
M  END
>  <MODEL>
2

>  <REMARK>
 VINA RESULT:      -6.7      2.223      5.130
  Name = 
  17 active torsions:
  status: ('A' for Active; 'I' for Inactive)
    1  A    between atoms: C_1  and  C_16
    2  A    between atoms: C_2  and  C_36
    3  A    between atoms: C_5  and  C_16
    4  A    between atoms: C_7  and  C_37
    5  A    between atoms: C_8  and  N_31
    6  A    between atoms: C_11  and  N_25
    7  A    between atoms: C_11  and  C_40
    8  A    between atoms: C_14  and  O_18
    9  A    between atoms: C_14  and  C_37
   10  A    between atoms: O_18  and  C_19
   11  A    between atoms: C_21  and  C_27
   12  A    between atoms: C_21  and  C_40
   13  A    between atoms: C_23  and  S_26
   14  A    between atoms: S_26  and  C_30
   15  A    between atoms: O_29  and  N_31
   16  A    between atoms: O_29  and  C_41
   17  A    between atoms: C_30  and  N_33
                            x       y       z     vdW  Elec       q    Type
                         _______ _______ _______ _____ _____    ______ ____

>  <TORSDO>
F 17

$$$$
=
 OpenBabel11042412203D

 44 49  0  0  1  0  0  0  0  0999 V2000
  191.0380  175.7470  138.7820 C   0  0  2  0  0  3  0  0  0  0  0  0
  191.7890  177.0010  138.3730 C   0  0  0  0  0  1  0  0  0  0  0  0
  191.0430  174.7470  137.6360 C   0  0  0  0  0  2  0  0  0  0  0  0
  189.6450  174.6390  137.0540 C   0  0  1  0  0  3  0  0  0  0  0  0
  189.6950  174.9780  135.5800 C   0  0  0  0  0  2  0  0  0  0  0  0
  189.6070  173.5300  136.0210 C   0  0  2  0  0  3  0  0  0  0  0  0
  188.1730  173.0310  135.8930 C   0  0  1  0  0  3  0  0  0  0  0  0
  188.1140  171.8880  135.0920 O   0  0  0  0  0  1  0  0  0  0  0  0
  187.5340  172.7740  137.2590 C   0  0  0  0  0  2  0  0  0  0  0  0
  186.0870  173.2590  137.3560 C   0  0  0  0  0  2  0  0  0  0  0  0
  183.9950  174.4710  135.8100 O   0  0  0  0  0  0  0  0  0  0  0  0
  184.8780  175.2220  136.3060 C   0  0  0  0  0  0  0  0  0  0  0  0
  185.9910  174.6730  137.0130 N   0  0  0  0  0  2  0  0  0  0  0  0
  184.7260  176.9970  136.1510 S   0  0  0  0  0  0  0  0  0  0  0  0
  184.7260  177.2090  137.9570 C   0  0  0  0  0  2  0  0  0  0  0  0
  181.3310  179.0740  136.2240 N   0  0  0  0  0  1  0  0  0  0  0  0
  183.3620  179.1870  138.6720 C   0  0  0  0  0  0  0  0  0  0  0  0
  181.3680  180.0020  139.7280 N   0  0  0  0  0  1  0  0  0  0  0  0
  182.0240  179.7860  138.4480 C   0  0  2  0  0  3  0  0  0  0  0  0
  184.3420  179.8680  139.0850 O   0  0  0  0  0  0  0  0  0  0  0  0
  183.4730  177.8060  138.3880 N   0  0  0  0  0  0  0  0  0  0  0  0
  181.9290  177.0870  137.9400 S   0  0  0  0  0  0  0  0  0  0  0  0
  181.2320  178.7560  137.6380 C   0  0  2  0  0  3  0  0  0  0  0  0
  189.7220  176.0830  139.1270 O   0  0  0  0  0  0  0  0  0  0  0  0
  189.5330  177.2750  141.1800 C   0  0  1  0  0  3  0  0  0  0  0  0
  188.3040  178.1540  141.4140 C   0  0  1  0  0  3  0  0  0  0  0  0
  187.6450  178.3620  140.1360 N   0  0  0  0  0  2  0  0  0  0  0  0
  189.8070  177.3660  139.6940 C   0  0  2  0  0  3  0  0  0  0  0  0
  188.7230  178.3010  139.1540 C   0  0  1  0  0  3  0  0  0  0  0  0
  188.2670  177.9970  137.7110 C   0  0  0  0  0  3  0  0  0  0  0  0
  187.7240  179.2320  137.0050 C   0  0  0  0  0  2  0  0  0  0  0  0
  189.1170  178.7220  136.6750 C   0  0  0  0  0  2  0  0  0  0  0  0
  187.3540  177.5960  142.3880 N   0  0  0  0  0  2  0  0  0  0  0  0
  186.5470  178.5720  142.8910 O   0  0  0  0  0  0  0  0  0  0  0  0
  186.8330  177.8290  146.0430 C   0  0  0  0  0  2  0  0  0  0  0  0
  185.6860  179.7170  146.9160 O   0  0  0  0  0  0  0  0  0  0  0  0
  185.0760  179.0000  144.7420 C   0  0  0  0  0  2  0  0  0  0  0  0
  186.5950  177.0740  144.7460 C   0  0  0  0  0  2  0  0  0  0  0  0
  185.7290  177.9520  143.8470 C   0  0  2  0  0  3  0  0  0  0  0  0
  185.8470  178.9280  145.9980 C   0  0  0  0  0  0  0  0  0  0  0  0
  190.7310  177.8050  141.9550 C   0  0  0  0  0  2  0  0  0  0  0  0
  190.6360  177.4030  143.4180 C   0  0  0  0  0  3  0  0  0  0  0  0
  190.3930  178.6420  144.2600 C   0  0  0  0  0  2  0  0  0  0  0  0
  191.7810  178.0410  144.1720 C   0  0  0  0  0  2  0  0  0  0  0  0
  1  2  1  6  0  0  0
  1 24  1  0  0  0  0
  3  1  1  0  0  0  0
  4  3  1  1  0  0  0
  5  6  1  0  0  0  0
  5  4  1  0  0  0  0
  6  7  1  6  0  0  0
  6  4  1  0  0  0  0
  7  8  1  6  0  0  0
  7  9  1  0  0  0  0
  9 10  1  0  0  0  0
 11 12  2  0  0  0  0
 12 13  1  0  0  0  0
 13 10  1  0  0  0  0
 14 12  1  0  0  0  0
 14 15  1  0  0  0  0
 15 21  1  0  0  0  0
 17 20  2  0  0  0  0
 19 17  1  0  0  0  0
 19 18  1  1  0  0  0
 21 17  1  0  0  0  0
 22 21  1  0  0  0  0
 23 16  1  6  0  0  0
 23 22  1  0  0  0  0
 23 19  1  0  0  0  0
 25 26  1  0  0  0  0
 25 41  1  1  0  0  0
 26 33  1  1  0  0  0
 27 26  1  0  0  0  0
 28 24  1  6  0  0  0
 28 25  1  0  0  0  0
 29 30  1  6  0  0  0
 29 28  1  0  0  0  0
 29 27  1  0  0  0  0
 31 30  1  0  0  0  0
 32 31  1  0  0  0  0
 32 30  1  0  0  0  0
 33 34  1  0  0  0  0
 37 40  1  0  0  0  0
 38 35  1  0  0  0  0
 39 34  1  6  0  0  0
 39 37  1  0  0  0  0
 39 38  1  0  0  0  0
 40 35  1  0  0  0  0
 40 36  2  0  0  0  0
 41 42  1  0  0  0  0
 42 44  1  0  0  0  0
 42 43  1  0  0  0  0
 44 43  1  0  0  0  0
M  END
>  <MODEL>
3

>  <REMARK>
 VINA RESULT:      -6.6      2.862      6.597
  Name = 
  17 active torsions:
  status: ('A' for Active; 'I' for Inactive)
    1  A    between atoms: C_1  and  C_16
    2  A    between atoms: C_2  and  C_36
    3  A    between atoms: C_5  and  C_16
    4  A    between atoms: C_7  and  C_37
    5  A    between atoms: C_8  and  N_31
    6  A    between atoms: C_11  and  N_25
    7  A    between atoms: C_11  and  C_40
    8  A    between atoms: C_14  and  O_18
    9  A    between atoms: C_14  and  C_37
   10  A    between atoms: O_18  and  C_19
   11  A    between atoms: C_21  and  C_27
   12  A    between atoms: C_21  and  C_40
   13  A    between atoms: C_23  and  S_26
   14  A    between atoms: S_26  and  C_30
   15  A    between atoms: O_29  and  N_31
   16  A    between atoms: O_29  and  C_41
   17  A    between atoms: C_30  and  N_33
                            x       y       z     vdW  Elec       q    Type
                         _______ _______ _______ _____ _____    ______ ____

>  <TORSDO>
F 17

$$$$
=
 OpenBabel11042412203D

 44 49  0  0  1  0  0  0  0  0999 V2000
  190.8120  175.7010  138.8050 C   0  0  2  0  0  3  0  0  0  0  0  0
  191.6580  176.9220  138.4970 C   0  0  0  0  0  1  0  0  0  0  0  0
  190.8410  174.7420  137.6250 C   0  0  0  0  0  2  0  0  0  0  0  0
  189.6240  174.9810  136.7490 C   0  0  1  0  0  3  0  0  0  0  0  0
  189.8520  174.3370  135.3990 C   0  0  0  0  0  2  0  0  0  0  0  0
  188.9630  173.6560  136.4220 C   0  0  2  0  0  3  0  0  0  0  0  0
  187.4980  173.9100  136.0930 C   0  0  1  0  0  3  0  0  0  0  0  0
  186.8020  172.7060  135.9570 O   0  0  0  0  0  1  0  0  0  0  0  0
  186.8280  174.8140  137.1300 C   0  0  0  0  0  2  0  0  0  0  0  0
  185.5030  175.4100  136.6540 C   0  0  0  0  0  2  0  0  0  0  0  0
  184.0330  177.4220  138.0790 O   0  0  0  0  0  0  0  0  0  0  0  0
  183.7000  176.2170  138.2400 C   0  0  0  0  0  0  0  0  0  0  0  0
  184.4450  175.1640  137.6260 N   0  0  0  0  0  2  0  0  0  0  0  0
  182.2620  175.8160  139.2250 S   0  0  0  0  0  0  0  0  0  0  0  0
  181.7870  177.5680  139.3410 C   0  0  0  0  0  2  0  0  0  0  0  0
  179.8430  180.7190  141.4150 N   0  0  0  0  0  1  0  0  0  0  0  0
  182.1860  178.5720  141.6030 C   0  0  0  0  0  0  0  0  0  0  0  0
  181.5340  178.7030  143.9080 N   0  0  0  0  0  1  0  0  0  0  0  0
  181.4840  179.3860  142.6250 C   0  0  2  0  0  3  0  0  0  0  0  0
  183.4450  178.5070  141.5450 O   0  0  0  0  0  0  0  0  0  0  0  0
  181.3540  177.8770  140.6930 N   0  0  0  0  0  0  0  0  0  0  0  0
  179.6440  178.0560  141.0760 S   0  0  0  0  0  0  0  0  0  0  0  0
  180.0290  179.4850  142.1580 C   0  0  2  0  0  3  0  0  0  0  0  0
  189.4960  176.1000  139.0720 O   0  0  0  0  0  0  0  0  0  0  0  0
  189.1210  177.2610  141.1180 C   0  0  1  0  0  3  0  0  0  0  0  0
  187.9540  178.2450  141.2070 C   0  0  1  0  0  3  0  0  0  0  0  0
  187.5060  178.5400  139.8570 N   0  0  0  0  0  2  0  0  0  0  0  0
  189.6120  177.3580  139.6890 C   0  0  2  0  0  3  0  0  0  0  0  0
  188.7030  178.4000  139.0340 C   0  0  1  0  0  3  0  0  0  0  0  0
  188.4330  178.1700  137.5320 C   0  0  0  0  0  3  0  0  0  0  0  0
  187.0260  178.5870  137.1280 C   0  0  0  0  0  2  0  0  0  0  0  0
  188.2080  179.4770  136.7820 C   0  0  0  0  0  2  0  0  0  0  0  0
  186.8290  177.7570  142.0170 N   0  0  0  0  0  2  0  0  0  0  0  0
  186.5340  178.6360  143.0150 O   0  0  0  0  0  0  0  0  0  0  0  0
  186.9700  177.8710  146.1450 C   0  0  0  0  0  2  0  0  0  0  0  0
  185.6450  179.6050  147.0800 O   0  0  0  0  0  0  0  0  0  0  0  0
  185.0680  178.8660  144.9050 C   0  0  0  0  0  2  0  0  0  0  0  0
  186.7870  177.1180  144.8380 C   0  0  0  0  0  2  0  0  0  0  0  0
  185.8100  177.9130  143.9750 C   0  0  2  0  0  3  0  0  0  0  0  0
  185.8700  178.8560  146.1430 C   0  0  0  0  0  0  0  0  0  0  0  0
  190.2380  177.6620  142.0710 C   0  0  0  0  0  2  0  0  0  0  0  0
  190.0670  176.9650  143.4110 C   0  0  0  0  0  3  0  0  0  0  0  0
  190.4390  177.9270  144.5240 C   0  0  0  0  0  2  0  0  0  0  0  0
  191.4190  176.8600  144.0800 C   0  0  0  0  0  2  0  0  0  0  0  0
  1  2  1  6  0  0  0
  1 24  1  0  0  0  0
  3  1  1  0  0  0  0
  4  3  1  1  0  0  0
  5  6  1  0  0  0  0
  5  4  1  0  0  0  0
  6  7  1  6  0  0  0
  6  4  1  0  0  0  0
  7  8  1  1  0  0  0
  7  9  1  0  0  0  0
 10  9  1  0  0  0  0
 10 13  1  0  0  0  0
 11 12  2  0  0  0  0
 12 14  1  0  0  0  0
 13 12  1  0  0  0  0
 14 15  1  0  0  0  0
 15 21  1  0  0  0  0
 17 19  1  0  0  0  0
 19 18  1  1  0  0  0
 20 17  2  0  0  0  0
 21 22  1  0  0  0  0
 21 17  1  0  0  0  0
 22 23  1  0  0  0  0
 23 16  1  6  0  0  0
 23 19  1  0  0  0  0
 25 26  1  0  0  0  0
 25 41  1  1  0  0  0
 26 33  1  1  0  0  0
 27 26  1  0  0  0  0
 28 24  1  6  0  0  0
 28 25  1  0  0  0  0
 29 30  1  6  0  0  0
 29 28  1  0  0  0  0
 29 27  1  0  0  0  0
 31 30  1  0  0  0  0
 32 31  1  0  0  0  0
 32 30  1  0  0  0  0
 33 34  1  0  0  0  0
 37 40  1  0  0  0  0
 38 35  1  0  0  0  0
 39 34  1  6  0  0  0
 39 38  1  0  0  0  0
 39 37  1  0  0  0  0
 40 35  1  0  0  0  0
 40 36  2  0  0  0  0
 41 42  1  0  0  0  0
 42 44  1  0  0  0  0
 42 43  1  0  0  0  0
 44 43  1  0  0  0  0
M  END
>  <MODEL>
4

>  <REMARK>
 VINA RESULT:      -6.6      2.503      6.709
  Name = 
  17 active torsions:
  status: ('A' for Active; 'I' for Inactive)
    1  A    between atoms: C_1  and  C_16
    2  A    between atoms: C_2  and  C_36
    3  A    between atoms: C_5  and  C_16
    4  A    between atoms: C_7  and  C_37
    5  A    between atoms: C_8  and  N_31
    6  A    between atoms: C_11  and  N_25
    7  A    between atoms: C_11  and  C_40
    8  A    between atoms: C_14  and  O_18
    9  A    between atoms: C_14  and  C_37
   10  A    between atoms: O_18  and  C_19
   11  A    between atoms: C_21  and  C_27
   12  A    between atoms: C_21  and  C_40
   13  A    between atoms: C_23  and  S_26
   14  A    between atoms: S_26  and  C_30
   15  A    between atoms: O_29  and  N_31
   16  A    between atoms: O_29  and  C_41
   17  A    between atoms: C_30  and  N_33
                            x       y       z     vdW  Elec       q    Type
                         _______ _______ _______ _____ _____    ______ ____

>  <TORSDO>
F 17

$$$$
=
 OpenBabel11042412203D

 44 49  0  0  1  0  0  0  0  0999 V2000
  185.6540  176.9820  136.2240 C   0  0  2  0  0  3  0  0  0  0  0  0
  186.4890  178.2390  136.3780 C   0  0  0  0  0  1  0  0  0  0  0  0
  185.0020  176.6310  137.5530 C   0  0  0  0  0  2  0  0  0  0  0  0
  184.5630  177.9050  138.2520 C   0  0  1  0  0  3  0  0  0  0  0  0
  183.1390  178.2250  137.8500 C   0  0  0  0  0  2  0  0  0  0  0  0
  183.4220  177.5980  139.2020 C   0  0  2  0  0  3  0  0  0  0  0  0
  183.3910  178.6650  140.2890 C   0  0  1  0  0  3  0  0  0  0  0  0
  182.1340  178.7210  140.8970 O   0  0  0  0  0  1  0  0  0  0  0  0
  184.4920  178.4520  141.3290 C   0  0  0  0  0  2  0  0  0  0  0  0
  184.0150  178.6420  142.7700 C   0  0  0  0  0  2  0  0  0  0  0  0
  183.9000  179.1560  145.5910 O   0  0  0  0  0  0  0  0  0  0  0  0
  184.9790  178.7150  145.1120 C   0  0  0  0  0  0  0  0  0  0  0  0
  185.1280  178.5190  143.7040 N   0  0  0  0  0  2  0  0  0  0  0  0
  186.3330  178.3000  146.2030 S   0  0  0  0  0  0  0  0  0  0  0  0
  187.0180  177.1250  144.9950 C   0  0  0  0  0  2  0  0  0  0  0  0
  190.2670  175.5650  142.7550 N   0  0  0  0  0  1  0  0  0  0  0  0
  189.4750  177.0090  145.4790 C   0  0  0  0  0  0  0  0  0  0  0  0
  191.6590  177.9340  145.1210 N   0  0  0  0  0  1  0  0  0  0  0  0
  190.7660  176.8410  144.7700 C   0  0  2  0  0  3  0  0  0  0  0  0
  189.3450  176.7520  146.7090 O   0  0  0  0  0  0  0  0  0  0  0  0
  188.3950  177.4720  144.6900 N   0  0  0  0  0  0  0  0  0  0  0  0
  188.8860  177.8580  143.0430 S   0  0  0  0  0  0  0  0  0  0  0  0
  190.4380  176.9110  143.2760 C   0  0  2  0  0  3  0  0  0  0  0  0
  186.4710  175.9280  135.7930 O   0  0  0  0  0  0  0  0  0  0  0  0
  188.4000  175.4450  137.1040 C   0  0  1  0  0  3  0  0  0  0  0  0
  188.9480  174.0170  137.1140 C   0  0  1  0  0  3  0  0  0  0  0  0
  187.9280  173.1360  136.5710 N   0  0  0  0  0  2  0  0  0  0  0  0
  186.8990  175.2910  136.9700 C   0  0  2  0  0  3  0  0  0  0  0  0
  186.6650  173.7790  136.9180 C   0  0  1  0  0  3  0  0  0  0  0  0
  185.4590  173.3420  136.0600 C   0  0  0  0  0  3  0  0  0  0  0  0
  185.3220  171.8270  135.9870 C   0  0  0  0  0  2  0  0  0  0  0  0
  184.3950  172.6290  136.8860 C   0  0  0  0  0  2  0  0  0  0  0  0
  190.2030  173.8590  136.3630 N   0  0  0  0  0  2  0  0  0  0  0  0
  191.2290  173.5380  137.1990 O   0  0  0  0  0  0  0  0  0  0  0  0
  192.8800  176.3330  137.0150 C   0  0  0  0  0  2  0  0  0  0  0  0
  194.4810  175.8640  138.7050 O   0  0  0  0  0  0  0  0  0  0  0  0
  193.5580  174.0100  137.5540 C   0  0  0  0  0  2  0  0  0  0  0  0
  192.2010  175.3840  136.0420 C   0  0  0  0  0  2  0  0  0  0  0  0
  192.4040  173.9620  136.5600 C   0  0  2  0  0  3  0  0  0  0  0  0
  193.7210  175.4470  137.8450 C   0  0  0  0  0  0  0  0  0  0  0  0
  188.7270  176.1570  138.4080 C   0  0  0  0  0  2  0  0  0  0  0  0
  189.6270  177.3540  138.1470 C   0  0  0  0  0  3  0  0  0  0  0  0
  190.3230  177.7450  139.4370 C   0  0  0  0  0  2  0  0  0  0  0  0
  189.1200  178.5280  138.9540 C   0  0  0  0  0  2  0  0  0  0  0  0
  1  2  1  1  0  0  0
  1  3  1  0  0  0  0
  4  3  1  6  0  0  0
  4  6  1  0  0  0  0
  5  4  1  0  0  0  0
  5  6  1  0  0  0  0
  6  7  1  1  0  0  0
  7  8  1  1  0  0  0
  7  9  1  0  0  0  0
  9 10  1  0  0  0  0
 10 13  1  0  0  0  0
 12 11  2  0  0  0  0
 12 14  1  0  0  0  0
 13 12  1  0  0  0  0
 15 14  1  0  0  0  0
 17 20  2  0  0  0  0
 19 18  1  1  0  0  0
 19 17  1  0  0  0  0
 21 15  1  0  0  0  0
 21 17  1  0  0  0  0
 22 23  1  0  0  0  0
 22 21  1  0  0  0  0
 23 16  1  1  0  0  0
 23 19  1  0  0  0  0
 24  1  1  0  0  0  0
 25 26  1  0  0  0  0
 25 41  1  1  0  0  0
 26 33  1  6  0  0  0
 27 29  1  0  0  0  0
 27 26  1  0  0  0  0
 28 24  1  6  0  0  0
 28 25  1  0  0  0  0
 29 30  1  6  0  0  0
 29 28  1  0  0  0  0
 30 32  1  0  0  0  0
 31 30  1  0  0  0  0
 31 32  1  0  0  0  0
 33 34  1  0  0  0  0
 35 40  1  0  0  0  0
 37 40  1  0  0  0  0
 38 39  1  0  0  0  0
 38 35  1  0  0  0  0
 39 34  1  1  0  0  0
 39 37  1  0  0  0  0
 40 36  2  0  0  0  0
 42 41  1  0  0  0  0
 42 44  1  0  0  0  0
 42 43  1  0  0  0  0
 44 43  1  0  0  0  0
M  END
>  <MODEL>
5

>  <REMARK>
 VINA RESULT:      -6.5      3.400      7.723
  Name = 
  17 active torsions:
  status: ('A' for Active; 'I' for Inactive)
    1  A    between atoms: C_1  and  C_16
    2  A    between atoms: C_2  and  C_36
    3  A    between atoms: C_5  and  C_16
    4  A    between atoms: C_7  and  C_37
    5  A    between atoms: C_8  and  N_31
    6  A    between atoms: C_11  and  N_25
    7  A    between atoms: C_11  and  C_40
    8  A    between atoms: C_14  and  O_18
    9  A    between atoms: C_14  and  C_37
   10  A    between atoms: O_18  and  C_19
   11  A    between atoms: C_21  and  C_27
   12  A    between atoms: C_21  and  C_40
   13  A    between atoms: C_23  and  S_26
   14  A    between atoms: S_26  and  C_30
   15  A    between atoms: O_29  and  N_31
   16  A    between atoms: O_29  and  C_41
   17  A    between atoms: C_30  and  N_33
                            x       y       z     vdW  Elec       q    Type
                         _______ _______ _______ _____ _____    ______ ____

>  <TORSDO>
F 17

$$$$
=
 OpenBabel11042412203D

 44 49  0  0  1  0  0  0  0  0999 V2000
  185.9420  178.5280  141.0300 C   0  0  2  0  0  3  0  0  0  0  0  0
  185.5560  179.0110  139.6440 C   0  0  0  0  0  1  0  0  0  0  0  0
  185.0300  179.1640  142.0680 C   0  0  0  0  0  2  0  0  0  0  0  0
  183.7820  178.3150  142.2330 C   0  0  1  0  0  3  0  0  0  0  0  0
  182.8700  178.9680  143.2480 C   0  0  0  0  0  2  0  0  0  0  0  0
  182.5690  179.0960  141.7660 C   0  0  2  0  0  3  0  0  0  0  0  0
  181.4780  178.1110  141.3680 C   0  0  1  0  0  3  0  0  0  0  0  0
  180.2940  178.7800  141.0510 O   0  0  0  0  0  1  0  0  0  0  0  0
  181.9190  177.2060  140.2150 C   0  0  0  0  0  2  0  0  0  0  0  0
  182.0320  177.9370  138.8760 C   0  0  0  0  0  2  0  0  0  0  0  0
  181.9050  177.8030  136.0120 O   0  0  0  0  0  0  0  0  0  0  0  0
  182.9210  177.3230  136.5840 C   0  0  0  0  0  0  0  0  0  0  0  0
  183.0050  177.2820  138.0100 N   0  0  0  0  0  2  0  0  0  0  0  0
  184.2870  176.7110  135.6060 S   0  0  0  0  0  0  0  0  0  0  0  0
  184.6820  175.4460  136.8510 C   0  0  0  0  0  2  0  0  0  0  0  0
  181.1890  173.0610  137.2040 N   0  0  0  0  0  1  0  0  0  0  0  0
  184.3720  172.9820  137.1950 C   0  0  0  0  0  0  0  0  0  0  0  0
  183.8850  170.8430  136.2220 N   0  0  0  0  0  1  0  0  0  0  0  0
  183.3400  171.9310  137.0200 C   0  0  2  0  0  3  0  0  0  0  0  0
  185.3380  172.8480  137.9960 O   0  0  0  0  0  0  0  0  0  0  0  0
  184.2010  174.1470  136.4100 N   0  0  0  0  0  0  0  0  0  0  0  0
  182.8380  174.0170  135.3020 S   0  0  0  0  0  0  0  0  0  0  0  0
  182.1890  172.5940  136.2580 C   0  0  2  0  0  3  0  0  0  0  0  0
  187.2770  178.8650  141.2860 O   0  0  0  0  0  0  0  0  0  0  0  0
  188.2870  178.0370  143.2780 C   0  0  1  0  0  3  0  0  0  0  0  0
  189.7930  177.7750  143.2900 C   0  0  1  0  0  3  0  0  0  0  0  0
  190.2610  177.7570  141.9140 N   0  0  0  0  0  2  0  0  0  0  0  0
  187.8410  177.7160  141.8670 C   0  0  2  0  0  3  0  0  0  0  0  0
  189.1170  177.2790  141.1450 C   0  0  1  0  0  3  0  0  0  0  0  0
  189.1580  177.6250  139.6410 C   0  0  0  0  0  3  0  0  0  0  0  0
  190.4810  177.2360  138.9960 C   0  0  0  0  0  2  0  0  0  0  0  0
  189.2470  176.3800  138.7670 C   0  0  0  0  0  2  0  0  0  0  0  0
  190.5600  178.7580  144.0700 N   0  0  0  0  0  2  0  0  0  0  0  0
  191.4730  178.1380  144.8680 O   0  0  0  0  0  0  0  0  0  0  0  0
  192.4320  175.2520  146.0180 C   0  0  0  0  0  2  0  0  0  0  0  0
  192.4280  175.8170  148.3250 O   0  0  0  0  0  0  0  0  0  0  0  0
  190.9400  177.0130  146.9230 C   0  0  0  0  0  2  0  0  0  0  0  0
  191.5300  175.7530  144.9030 C   0  0  0  0  0  2  0  0  0  0  0  0
  190.8270  177.0130  145.4030 C   0  0  2  0  0  3  0  0  0  0  0  0
  191.9780  176.0050  147.2050 C   0  0  0  0  0  0  0  0  0  0  0  0
  187.5730  177.1210  144.2620 C   0  0  0  0  0  2  0  0  0  0  0  0
  187.3370  177.8410  145.5800 C   0  0  0  0  0  3  0  0  0  0  0  0
  186.0660  177.3100  146.2160 C   0  0  0  0  0  2  0  0  0  0  0  0
  186.0530  178.6330  145.4780 C   0  0  0  0  0  2  0  0  0  0  0  0
  1  2  1  6  0  0  0
  1 24  1  0  0  0  0
  1  3  1  0  0  0  0
  4  3  1  6  0  0  0
  4  5  1  0  0  0  0
  6  7  1  1  0  0  0
  6  4  1  0  0  0  0
  6  5  1  0  0  0  0
  7  8  1  6  0  0  0
  9  7  1  0  0  0  0
 10  9  1  0  0  0  0
 11 12  2  0  0  0  0
 12 13  1  0  0  0  0
 13 10  1  0  0  0  0
 14 12  1  0  0  0  0
 14 15  1  0  0  0  0
 17 20  2  0  0  0  0
 19 18  1  6  0  0  0
 19 17  1  0  0  0  0
 21 15  1  0  0  0  0
 21 17  1  0  0  0  0
 22 23  1  0  0  0  0
 22 21  1  0  0  0  0
 23 19  1  0  0  0  0
 23 16  1  1  0  0  0
 25 26  1  0  0  0  0
 25 41  1  1  0  0  0
 26 33  1  1  0  0  0
 27 26  1  0  0  0  0
 28 24  1  6  0  0  0
 28 25  1  0  0  0  0
 29 30  1  6  0  0  0
 29 28  1  0  0  0  0
 29 27  1  0  0  0  0
 31 30  1  0  0  0  0
 32 31  1  0  0  0  0
 32 30  1  0  0  0  0
 33 34  1  0  0  0  0
 35 40  1  0  0  0  0
 37 40  1  0  0  0  0
 38 39  1  0  0  0  0
 38 35  1  0  0  0  0
 39 34  1  6  0  0  0
 39 37  1  0  0  0  0
 40 36  2  0  0  0  0
 41 42  1  0  0  0  0
 42 43  1  0  0  0  0
 44 42  1  0  0  0  0
 44 43  1  0  0  0  0
M  END
>  <MODEL>
6

>  <REMARK>
 VINA RESULT:      -6.4      1.618      2.062
  Name = 
  17 active torsions:
  status: ('A' for Active; 'I' for Inactive)
    1  A    between atoms: C_1  and  C_16
    2  A    between atoms: C_2  and  C_36
    3  A    between atoms: C_5  and  C_16
    4  A    between atoms: C_7  and  C_37
    5  A    between atoms: C_8  and  N_31
    6  A    between atoms: C_11  and  N_25
    7  A    between atoms: C_11  and  C_40
    8  A    between atoms: C_14  and  O_18
    9  A    between atoms: C_14  and  C_37
   10  A    between atoms: O_18  and  C_19
   11  A    between atoms: C_21  and  C_27
   12  A    between atoms: C_21  and  C_40
   13  A    between atoms: C_23  and  S_26
   14  A    between atoms: S_26  and  C_30
   15  A    between atoms: O_29  and  N_31
   16  A    between atoms: O_29  and  C_41
   17  A    between atoms: C_30  and  N_33
                            x       y       z     vdW  Elec       q    Type
                         _______ _______ _______ _____ _____    ______ ____

>  <TORSDO>
F 17

$$$$
=
 OpenBabel11042412203D

 44 49  0  0  1  0  0  0  0  0999 V2000
  187.4710  177.5970  143.2610 C   0  0  2  0  0  3  0  0  0  0  0  0
  187.2830  176.8230  144.5530 C   0  0  0  0  0  1  0  0  0  0  0  0
  186.1160  177.9120  142.6470 C   0  0  0  0  0  2  0  0  0  0  0  0
  185.1640  178.3770  143.7350 C   0  0  1  0  0  3  0  0  0  0  0  0
  184.8420  179.8400  143.5170 C   0  0  0  0  0  2  0  0  0  0  0  0
  183.8380  178.7750  143.1160 C   0  0  2  0  0  3  0  0  0  0  0  0
  182.7510  178.6580  144.1760 C   0  0  1  0  0  3  0  0  0  0  0  0
  183.2270  179.0600  145.4260 O   0  0  0  0  0  1  0  0  0  0  0  0
  181.4940  179.4420  143.7930 C   0  0  0  0  0  2  0  0  0  0  0  0
  180.5050  178.6340  142.9510 C   0  0  0  0  0  2  0  0  0  0  0  0
  181.2890  177.2430  140.5660 O   0  0  0  0  0  0  0  0  0  0  0  0
  180.7630  178.3830  140.4430 C   0  0  0  0  0  0  0  0  0  0  0  0
  180.4290  179.1620  141.5940 N   0  0  0  0  0  2  0  0  0  0  0  0
  180.4030  179.0260  138.8140 S   0  0  0  0  0  0  0  0  0  0  0  0
  182.0900  179.6830  138.6410 C   0  0  0  0  0  2  0  0  0  0  0  0
  182.9360  175.5300  138.4360 N   0  0  0  0  0  1  0  0  0  0  0  0
  184.2210  178.4340  138.2160 C   0  0  0  0  0  0  0  0  0  0  0  0
  185.5930  177.2350  136.6550 N   0  0  0  0  0  1  0  0  0  0  0  0
  184.6860  177.0940  137.7830 C   0  0  2  0  0  3  0  0  0  0  0  0
  184.9570  179.2190  138.8770 O   0  0  0  0  0  0  0  0  0  0  0  0
  182.8990  178.7750  137.8460 N   0  0  0  0  0  0  0  0  0  0  0  0
  182.1460  177.5450  136.8350 S   0  0  0  0  0  0  0  0  0  0  0  0
  183.4320  176.3370  137.3350 C   0  0  2  0  0  3  0  0  0  0  0  0
  188.2420  176.8380  142.3700 O   0  0  0  0  0  0  0  0  0  0  0  0
  189.0090  177.1920  140.1440 C   0  0  1  0  0  3  0  0  0  0  0  0
  190.5130  177.1780  139.8690 C   0  0  1  0  0  3  0  0  0  0  0  0
  191.2070  177.3010  141.1390 N   0  0  0  0  0  2  0  0  0  0  0  0
  188.8670  177.7780  141.5330 C   0  0  2  0  0  3  0  0  0  0  0  0
  190.3000  178.0760  141.9790 C   0  0  1  0  0  3  0  0  0  0  0  0
  190.5450  177.9380  143.4960 C   0  0  0  0  0  3  0  0  0  0  0  0
  191.9690  178.3090  143.8870 C   0  0  0  0  0  2  0  0  0  0  0  0
  190.8330  179.2800  144.1570 C   0  0  0  0  0  2  0  0  0  0  0  0
  190.9740  175.9760  139.1570 N   0  0  0  0  0  2  0  0  0  0  0  0
  192.2410  176.1480  138.6860 O   0  0  0  0  0  0  0  0  0  0  0  0
  193.5260  174.2920  136.3470 C   0  0  0  0  0  2  0  0  0  0  0  0
  191.6930  172.8050  136.0830 O   0  0  0  0  0  0  0  0  0  0  0  0
  191.2020  174.9900  136.8550 C   0  0  0  0  0  2  0  0  0  0  0  0
  193.5240  175.7670  136.7110 C   0  0  0  0  0  2  0  0  0  0  0  0
  192.1500  176.1030  137.2870 C   0  0  2  0  0  3  0  0  0  0  0  0
  192.0990  173.9140  136.3930 C   0  0  0  0  0  0  0  0  0  0  0  0
  188.2860  178.0770  139.1390 C   0  0  0  0  0  2  0  0  0  0  0  0
  189.2710  178.6480  138.1310 C   0  0  0  0  0  3  0  0  0  0  0  0
  188.5030  179.3750  137.0420 C   0  0  0  0  0  2  0  0  0  0  0  0
  189.0390  177.9800  136.7930 C   0  0  0  0  0  2  0  0  0  0  0  0
  1  2  1  1  0  0  0
  3  1  1  0  0  0  0
  4  3  1  6  0  0  0
  5  4  1  0  0  0  0
  6  5  1  0  0  0  0
  6  4  1  0  0  0  0
  6  7  1  1  0  0  0
  7  8  1  1  0  0  0
  9  7  1  0  0  0  0
 10  9  1  0  0  0  0
 12 11  2  0  0  0  0
 12 13  1  0  0  0  0
 13 10  1  0  0  0  0
 14 12  1  0  0  0  0
 15 14  1  0  0  0  0
 17 20  2  0  0  0  0
 19 18  1  6  0  0  0
 19 17  1  0  0  0  0
 21 17  1  0  0  0  0
 21 15  1  0  0  0  0
 22 23  1  0  0  0  0
 22 21  1  0  0  0  0
 23 19  1  0  0  0  0
 23 16  1  1  0  0  0
 24  1  1  0  0  0  0
 25 41  1  6  0  0  0
 25 28  1  0  0  0  0
 26 33  1  1  0  0  0
 26 25  1  0  0  0  0
 26 27  1  0  0  0  0
 27 29  1  0  0  0  0
 28 29  1  0  0  0  0
 28 24  1  1  0  0  0
 29 30  1  1  0  0  0
 30 31  1  0  0  0  0
 30 32  1  0  0  0  0
 31 32  1  0  0  0  0
 34 33  1  0  0  0  0
 35 40  1  0  0  0  0
 35 38  1  0  0  0  0
 36 40  2  0  0  0  0
 37 39  1  0  0  0  0
 38 39  1  0  0  0  0
 39 34  1  1  0  0  0
 40 37  1  0  0  0  0
 42 41  1  0  0  0  0
 43 42  1  0  0  0  0
 44 43  1  0  0  0  0
 44 42  1  0  0  0  0
M  END
>  <MODEL>
7

>  <REMARK>
 VINA RESULT:      -6.1      2.820      5.482
  Name = 
  17 active torsions:
  status: ('A' for Active; 'I' for Inactive)
    1  A    between atoms: C_1  and  C_16
    2  A    between atoms: C_2  and  C_36
    3  A    between atoms: C_5  and  C_16
    4  A    between atoms: C_7  and  C_37
    5  A    between atoms: C_8  and  N_31
    6  A    between atoms: C_11  and  N_25
    7  A    between atoms: C_11  and  C_40
    8  A    between atoms: C_14  and  O_18
    9  A    between atoms: C_14  and  C_37
   10  A    between atoms: O_18  and  C_19
   11  A    between atoms: C_21  and  C_27
   12  A    between atoms: C_21  and  C_40
   13  A    between atoms: C_23  and  S_26
   14  A    between atoms: S_26  and  C_30
   15  A    between atoms: O_29  and  N_31
   16  A    between atoms: O_29  and  C_41
   17  A    between atoms: C_30  and  N_33
                            x       y       z     vdW  Elec       q    Type
                         _______ _______ _______ _____ _____    ______ ____

>  <TORSDO>
F 17

$$$$
=
 OpenBabel11042412203D

 44 49  0  0  1  0  0  0  0  0999 V2000
  187.3740  177.7210  143.1250 C   0  0  2  0  0  3  0  0  0  0  0  0
  187.2850  177.1310  144.5200 C   0  0  0  0  0  1  0  0  0  0  0  0
  185.9780  177.8650  142.5370 C   0  0  0  0  0  2  0  0  0  0  0  0
  185.0060  178.2580  143.6350 C   0  0  1  0  0  3  0  0  0  0  0  0
  184.7740  179.7520  143.5790 C   0  0  0  0  0  2  0  0  0  0  0  0
  183.7330  178.8020  143.0170 C   0  0  2  0  0  3  0  0  0  0  0  0
  182.5930  178.6280  144.0130 C   0  0  1  0  0  3  0  0  0  0  0  0
  182.9890  179.0170  145.2950 O   0  0  0  0  0  1  0  0  0  0  0  0
  181.3350  179.3810  143.5780 C   0  0  0  0  0  2  0  0  0  0  0  0
  180.2210  178.4650  143.0690 C   0  0  0  0  0  2  0  0  0  0  0  0
  179.2860  176.1760  141.6120 O   0  0  0  0  0  0  0  0  0  0  0  0
  179.7690  177.1400  140.9580 C   0  0  0  0  0  0  0  0  0  0  0  0
  180.3290  178.2710  141.6280 N   0  0  0  0  0  2  0  0  0  0  0  0
  179.7310  177.1100  139.1700 S   0  0  0  0  0  0  0  0  0  0  0  0
  179.9690  175.3070  139.1410 C   0  0  0  0  0  2  0  0  0  0  0  0
  182.9310  176.9620  136.5930 N   0  0  0  0  0  1  0  0  0  0  0  0
  181.5390  174.2460  137.5010 C   0  0  0  0  0  0  0  0  0  0  0  0
  183.7570  173.4590  137.0330 N   0  0  0  0  0  1  0  0  0  0  0  0
  182.8100  174.5370  136.7930 C   0  0  2  0  0  3  0  0  0  0  0  0
  180.7120  173.3930  137.0740 O   0  0  0  0  0  0  0  0  0  0  0  0
  181.3100  174.9900  138.6830 N   0  0  0  0  0  0  0  0  0  0  0  0
  182.6760  176.0210  139.1020 S   0  0  0  0  0  0  0  0  0  0  0  0
  183.3470  175.8330  137.4070 C   0  0  2  0  0  3  0  0  0  0  0  0
  188.1570  176.8880  142.3150 O   0  0  0  0  0  0  0  0  0  0  0  0
  188.8890  177.1790  140.0670 C   0  0  1  0  0  3  0  0  0  0  0  0
  190.3720  176.9900  139.7430 C   0  0  1  0  0  3  0  0  0  0  0  0
  191.1160  177.0130  140.9910 N   0  0  0  0  0  2  0  0  0  0  0  0
  188.8620  177.7580  141.4660 C   0  0  2  0  0  3  0  0  0  0  0  0
  190.3340  177.8780  141.8670 C   0  0  1  0  0  3  0  0  0  0  0  0
  190.6090  177.6920  143.3740 C   0  0  0  0  0  3  0  0  0  0  0  0
  191.9940  178.1830  143.7730 C   0  0  0  0  0  2  0  0  0  0  0  0
  190.7700  179.0220  144.0990 C   0  0  0  0  0  2  0  0  0  0  0  0
  190.6640  175.7530  139.0040 N   0  0  0  0  0  2  0  0  0  0  0  0
  191.1030  176.0320  137.7450 O   0  0  0  0  0  0  0  0  0  0  0  0
  193.2090  175.5970  135.3070 C   0  0  0  0  0  2  0  0  0  0  0  0
  194.8800  177.1050  136.0630 O   0  0  0  0  0  0  0  0  0  0  0  0
  193.5040  176.1100  137.7140 C   0  0  0  0  0  2  0  0  0  0  0  0
  192.2580  174.7290  136.1150 C   0  0  0  0  0  2  0  0  0  0  0  0
  192.2540  175.2540  137.5480 C   0  0  2  0  0  3  0  0  0  0  0  0
  193.9620  176.3460  136.3320 C   0  0  0  0  0  0  0  0  0  0  0  0
  188.2450  178.1570  139.0960 C   0  0  0  0  0  2  0  0  0  0  0  0
  187.1690  177.4600  138.2780 C   0  0  0  0  0  3  0  0  0  0  0  0
  186.8280  178.3150  137.0720 C   0  0  0  0  0  2  0  0  0  0  0  0
  185.9220  178.3160  138.2860 C   0  0  0  0  0  2  0  0  0  0  0  0
  1  2  1  1  0  0  0
  3  1  1  0  0  0  0
  4  3  1  6  0  0  0
  5  4  1  0  0  0  0
  6  5  1  0  0  0  0
  6  4  1  0  0  0  0
  6  7  1  1  0  0  0
  7  8  1  1  0  0  0
  9  7  1  0  0  0  0
 10  9  1  0  0  0  0
 12 11  2  0  0  0  0
 12 13  1  0  0  0  0
 13 10  1  0  0  0  0
 14 12  1  0  0  0  0
 15 14  1  0  0  0  0
 17 21  1  0  0  0  0
 19 18  1  1  0  0  0
 19 23  1  0  0  0  0
 19 17  1  0  0  0  0
 20 17  2  0  0  0  0
 21 22  1  0  0  0  0
 21 15  1  0  0  0  0
 23 16  1  6  0  0  0
 23 22  1  0  0  0  0
 24  1  1  0  0  0  0
 25 41  1  6  0  0  0
 25 28  1  0  0  0  0
 26 33  1  1  0  0  0
 26 25  1  0  0  0  0
 26 27  1  0  0  0  0
 27 29  1  0  0  0  0
 28 29  1  0  0  0  0
 28 24  1  1  0  0  0
 29 30  1  1  0  0  0
 30 31  1  0  0  0  0
 30 32  1  0  0  0  0
 31 32  1  0  0  0  0
 34 33  1  0  0  0  0
 35 38  1  0  0  0  0
 35 40  1  0  0  0  0
 36 40  2  0  0  0  0
 38 39  1  0  0  0  0
 39 37  1  0  0  0  0
 39 34  1  6  0  0  0
 40 37  1  0  0  0  0
 42 44  1  0  0  0  0
 42 41  1  0  0  0  0
 43 42  1  0  0  0  0
 43 44  1  0  0  0  0
M  END
>  <MODEL>
8

>  <REMARK>
 VINA RESULT:      -5.9      2.957      5.536
  Name = 
  17 active torsions:
  status: ('A' for Active; 'I' for Inactive)
    1  A    between atoms: C_1  and  C_16
    2  A    between atoms: C_2  and  C_36
    3  A    between atoms: C_5  and  C_16
    4  A    between atoms: C_7  and  C_37
    5  A    between atoms: C_8  and  N_31
    6  A    between atoms: C_11  and  N_25
    7  A    between atoms: C_11  and  C_40
    8  A    between atoms: C_14  and  O_18
    9  A    between atoms: C_14  and  C_37
   10  A    between atoms: O_18  and  C_19
   11  A    between atoms: C_21  and  C_27
   12  A    between atoms: C_21  and  C_40
   13  A    between atoms: C_23  and  S_26
   14  A    between atoms: S_26  and  C_30
   15  A    between atoms: O_29  and  N_31
   16  A    between atoms: O_29  and  C_41
   17  A    between atoms: C_30  and  N_33
                            x       y       z     vdW  Elec       q    Type
                         _______ _______ _______ _____ _____    ______ ____

>  <TORSDO>
F 17

$$$$
=
 OpenBabel11042412203D

 44 49  0  0  1  0  0  0  0  0999 V2000
  184.3930  179.0370  140.0340 C   0  0  2  0  0  3  0  0  0  0  0  0
  182.8830  178.8920  140.0420 C   0  0  0  0  0  1  0  0  0  0  0  0
  184.9200  178.8600  138.6180 C   0  0  0  0  0  2  0  0  0  0  0  0
  184.9150  177.3850  138.2580 C   0  0  1  0  0  3  0  0  0  0  0  0
  184.1500  177.1940  136.9660 C   0  0  0  0  0  2  0  0  0  0  0  0
  185.6670  177.1750  136.9580 C   0  0  2  0  0  3  0  0  0  0  0  0
  186.1710  175.7380  136.9130 C   0  0  1  0  0  3  0  0  0  0  0  0
  185.1580  174.8680  136.5020 O   0  0  0  0  0  1  0  0  0  0  0  0
  187.4080  175.5950  136.0230 C   0  0  0  0  0  2  0  0  0  0  0  0
  188.4360  174.6010  136.5650 C   0  0  0  0  0  2  0  0  0  0  0  0
  190.9240  174.3780  137.9800 O   0  0  0  0  0  0  0  0  0  0  0  0
  190.9620  174.6630  136.7520 C   0  0  0  0  0  0  0  0  0  0  0  0
  189.7580  174.8720  136.0120 N   0  0  0  0  0  2  0  0  0  0  0  0
  192.5380  174.7800  135.9150 S   0  0  0  0  0  0  0  0  0  0  0  0
  193.4380  174.7870  137.4950 C   0  0  0  0  0  2  0  0  0  0  0  0
  196.6470  173.2080  135.2100 N   0  0  0  0  0  1  0  0  0  0  0  0
  195.8620  174.4460  138.0360 C   0  0  0  0  0  0  0  0  0  0  0  0
  198.1170  175.2370  137.8310 N   0  0  0  0  0  1  0  0  0  0  0  0
  197.1620  174.2500  137.3510 C   0  0  2  0  0  3  0  0  0  0  0  0
  195.6700  174.0850  139.2310 O   0  0  0  0  0  0  0  0  0  0  0  0
  194.8460  175.0580  137.2640 N   0  0  0  0  0  0  0  0  0  0  0  0
  195.4220  175.5590  135.6770 S   0  0  0  0  0  0  0  0  0  0  0  0
  196.8940  174.4830  135.8620 C   0  0  2  0  0  3  0  0  0  0  0  0
  184.9590  178.0780  140.8850 O   0  0  0  0  0  0  0  0  0  0  0  0
  187.1820  178.0240  141.7370 C   0  0  1  0  0  3  0  0  0  0  0  0
  187.3990  177.7150  143.2180 C   0  0  1  0  0  3  0  0  0  0  0  0
  186.1270  177.8670  143.9040 N   0  0  0  0  0  2  0  0  0  0  0  0
  185.8760  178.7870  141.6790 C   0  0  2  0  0  3  0  0  0  0  0  0
  185.4150  178.8820  143.1360 C   0  0  1  0  0  3  0  0  0  0  0  0
  183.8840  178.8860  143.3300 C   0  0  0  0  0  3  0  0  0  0  0  0
  183.4820  178.5310  144.7540 C   0  0  0  0  0  2  0  0  0  0  0  0
  183.4290  179.9770  144.2910 C   0  0  0  0  0  2  0  0  0  0  0  0
  187.9510  176.3750  143.4700 N   0  0  0  0  0  2  0  0  0  0  0  0
  189.2670  176.4500  143.8120 O   0  0  0  0  0  0  0  0  0  0  0  0
  189.6830  176.6870  147.0280 C   0  0  0  0  0  2  0  0  0  0  0  0
  192.0340  177.0260  147.0160 O   0  0  0  0  0  0  0  0  0  0  0  0
  190.8360  177.7360  145.0990 C   0  0  0  0  0  2  0  0  0  0  0  0
  188.6420  177.1280  146.0120 C   0  0  0  0  0  2  0  0  0  0  0  0
  189.3760  177.5070  144.7280 C   0  0  2  0  0  3  0  0  0  0  0  0
  190.9610  177.1400  146.4430 C   0  0  0  0  0  0  0  0  0  0  0  0
  188.3080  178.8950  141.1980 C   0  0  0  0  0  2  0  0  0  0  0  0
  189.2300  178.0770  140.3070 C   0  0  0  0  0  3  0  0  0  0  0  0
  188.8490  178.3040  138.8550 C   0  0  0  0  0  2  0  0  0  0  0  0
  188.4040  177.0450  139.5710 C   0  0  0  0  0  2  0  0  0  0  0  0
  1  2  1  6  0  0  0
  1 24  1  0  0  0  0
  3  1  1  0  0  0  0
  4  3  1  6  0  0  0
  5  4  1  0  0  0  0
  6  7  1  1  0  0  0
  6  5  1  0  0  0  0
  6  4  1  0  0  0  0
  7  8  1  6  0  0  0
  9 10  1  0  0  0  0
  9  7  1  0  0  0  0
 12 11  2  0  0  0  0
 13 10  1  0  0  0  0
 13 12  1  0  0  0  0
 14 12  1  0  0  0  0
 14 15  1  0  0  0  0
 17 20  2  0  0  0  0
 19 18  1  1  0  0  0
 19 17  1  0  0  0  0
 21 15  1  0  0  0  0
 21 17  1  0  0  0  0
 22 23  1  0  0  0  0
 22 21  1  0  0  0  0
 23 16  1  6  0  0  0
 23 19  1  0  0  0  0
 25 41  1  1  0  0  0
 25 26  1  0  0  0  0
 26 33  1  6  0  0  0
 26 27  1  0  0  0  0
 28 24  1  6  0  0  0
 28 25  1  0  0  0  0
 28 29  1  0  0  0  0
 29 30  1  6  0  0  0
 29 27  1  0  0  0  0
 30 32  1  0  0  0  0
 30 31  1  0  0  0  0
 32 31  1  0  0  0  0
 33 34  1  0  0  0  0
 37 40  1  0  0  0  0
 38 35  1  0  0  0  0
 39 34  1  6  0  0  0
 39 37  1  0  0  0  0
 39 38  1  0  0  0  0
 40 36  2  0  0  0  0
 40 35  1  0  0  0  0
 42 41  1  0  0  0  0
 43 44  1  0  0  0  0
 43 42  1  0  0  0  0
 44 42  1  0  0  0  0
M  END
>  <MODEL>
9

>  <REMARK>
 VINA RESULT:      -5.9      4.430      7.568
  Name = 
  17 active torsions:
  status: ('A' for Active; 'I' for Inactive)
    1  A    between atoms: C_1  and  C_16
    2  A    between atoms: C_2  and  C_36
    3  A    between atoms: C_5  and  C_16
    4  A    between atoms: C_7  and  C_37
    5  A    between atoms: C_8  and  N_31
    6  A    between atoms: C_11  and  N_25
    7  A    between atoms: C_11  and  C_40
    8  A    between atoms: C_14  and  O_18
    9  A    between atoms: C_14  and  C_37
   10  A    between atoms: O_18  and  C_19
   11  A    between atoms: C_21  and  C_27
   12  A    between atoms: C_21  and  C_40
   13  A    between atoms: C_23  and  S_26
   14  A    between atoms: S_26  and  C_30
   15  A    between atoms: O_29  and  N_31
   16  A    between atoms: O_29  and  C_41
   17  A    between atoms: C_30  and  N_33
                            x       y       z     vdW  Elec       q    Type
                         _______ _______ _______ _____ _____    ______ ____

>  <TORSDO>
F 17

$$$$
