=
 OpenBabel11032419263D

 30 33  0  0  1  0  0  0  0  0999 V2000
  190.1220  176.6340  136.1410 C   0  0  0  0  0  3  0  0  0  0  0  0
  189.6470  177.2190  140.4640 C   0  0  0  0  0  0  0  0  0  0  0  0
  189.2670  177.3960  136.7570 N   0  0  0  0  0  0  0  0  0  0  0  0
  191.6290  175.8200  137.9260 N   0  0  0  0  0  0  0  0  0  0  0  0
  187.5180  178.2330  139.9460 C   0  0  0  0  0  0  0  0  0  0  0  0
  188.9200  177.3610  138.1490 C   0  0  0  0  0  0  0  0  0  0  0  0
  190.9450  176.9970  141.2060 C   0  0  1  0  0  3  0  0  0  0  0  0
  186.3770  178.8600  140.3260 F   0  0  0  0  0  0  0  0  0  0  0  0
  191.1440  176.3960  138.9810 C   0  0  0  0  0  0  0  0  0  0  0  0
  187.7660  178.0310  138.5790 C   0  0  0  0  0  3  0  0  0  0  0  0
  188.4610  177.8320  140.9130 C   0  0  0  0  0  0  0  0  0  0  0  0
  191.8170  176.4890  140.1860 O   0  0  0  0  0  0  0  0  0  0  0  0
  189.8110  176.9140  139.1300 C   0  0  0  0  0  0  0  0  0  0  0  0
  190.8170  175.4630  136.7670 C   0  0  0  0  0  2  0  0  0  0  0  0
  187.9750  175.9300  143.0850 O   0  0  0  0  0  0  0  0  0  0  0  0
  188.2040  178.1230  142.2930 N   0  0  0  0  0  2  0  0  0  0  0  0
  188.0150  177.1640  143.3390 C   0  0  0  0  0  0  0  0  0  0  0  0
  187.8300  177.6570  144.7420 C   0  0  1  0  0  3  0  0  0  0  0  0
  184.6260  178.6260  146.5620 C   0  0  0  0  0  3  0  0  0  0  0  0
  185.9500  178.2340  146.3300 C   0  0  0  0  0  3  0  0  0  0  0  0
  184.2260  178.7020  144.1750 C   0  0  0  0  0  3  0  0  0  0  0  0
  183.7650  178.8620  145.4850 C   0  0  0  0  0  3  0  0  0  0  0  0
  185.5490  178.3090  143.9410 C   0  0  0  0  0  3  0  0  0  0  0  0
  186.4160  178.0770  145.0160 C   0  0  0  0  0  0  0  0  0  0  0  0
  189.2930  177.3150  146.3570 C   0  0  0  0  0  1  0  0  0  0  0  0
  188.2570  176.6960  145.6620 O   0  0  0  0  0  0  0  0  0  0  0  0
  191.4380  178.2250  141.6690 O   0  0  0  0  0  0  0  0  0  0  0  0
  191.9100  177.9820  142.9630 C   0  0  0  0  0  3  0  0  0  0  0  0
  191.3180  178.9980  143.9220 C   0  0  0  0  0  1  0  0  0  0  0  0
  191.4800  176.5990  143.4000 C   0  0  0  0  0  1  0  0  0  0  0  0
  1  3  2  0  0  0  0
  1 14  1  0  0  0  0
  2 11  1  0  0  0  0
  2  7  1  0  0  0  0
  3  6  1  0  0  0  0
  4  9  2  0  0  0  0
  5  8  1  0  0  0  0
  5 11  2  0  0  0  0
  6 10  2  0  0  0  0
  6 13  1  0  0  0  0
  7 27  1  6  0  0  0
  9 13  1  0  0  0  0
  9 12  1  0  0  0  0
 10  5  1  0  0  0  0
 11 16  1  0  0  0  0
 12  7  1  0  0  0  0
 13  2  2  0  0  0  0
 14  4  1  0  0  0  0
 15 17  2  0  0  0  0
 16 17  1  0  0  0  0
 18 17  1  6  0  0  0
 18 24  1  0  0  0  0
 18 26  1  0  0  0  0
 20 19  1  0  0  0  0
 21 22  1  0  0  0  0
 22 19  2  0  0  0  0
 23 21  2  0  0  0  0
 23 24  1  0  0  0  0
 24 20  2  0  0  0  0
 26 25  1  0  0  0  0
 27 28  1  0  0  0  0
 28 30  1  0  0  0  0
 28 29  1  0  0  0  0
M  END
>  <MODEL>
1

>  <REMARK>
 VINA RESULT:      -8.4      0.000      0.000
  Name = 
  6 active torsions:
  status: ('A' for Active; 'I' for Inactive)
    1  A    between atoms: O_2  and  C_3
    2  A    between atoms: O_2  and  C_14
    3  A    between atoms: N_11  and  C_20
    4  A    between atoms: C_12  and  C_22
    5  A    between atoms: O_19  and  C_22
    6  A    between atoms: C_22  and  C_29
                            x       y       z     vdW  Elec       q    Type
                         _______ _______ _______ _____ _____    ______ ____

>  <TORSDO>
F 6

$$$$
=
 OpenBabel11032419263D

 30 33  0  0  1  0  0  0  0  0999 V2000
  189.8280  177.1170  137.1330 C   0  0  0  0  0  3  0  0  0  0  0  0
  188.6070  177.5400  141.3280 C   0  0  0  0  0  0  0  0  0  0  0  0
  188.8860  177.8700  137.6220 N   0  0  0  0  0  0  0  0  0  0  0  0
  190.9890  176.2080  139.1190 N   0  0  0  0  0  0  0  0  0  0  0  0
  186.6130  178.6120  140.4880 C   0  0  0  0  0  0  0  0  0  0  0  0
  188.2990  177.7860  138.9290 C   0  0  0  0  0  0  0  0  0  0  0  0
  189.7520  177.2670  142.2760 C   0  0  1  0  0  3  0  0  0  0  0  0
  185.4290  179.2430  140.6880 F   0  0  0  0  0  0  0  0  0  0  0  0
  190.3330  176.7500  140.0960 C   0  0  0  0  0  0  0  0  0  0  0  0
  187.0950  178.4590  139.1780 C   0  0  0  0  0  3  0  0  0  0  0  0
  187.3670  178.1560  141.5870 C   0  0  0  0  0  0  0  0  0  0  0  0
  190.7850  176.7850  141.4030 O   0  0  0  0  0  0  0  0  0  0  0  0
  189.0000  177.2860  140.0310 C   0  0  0  0  0  0  0  0  0  0  0  0
  190.3900  175.9110  137.8230 C   0  0  0  0  0  2  0  0  0  0  0  0
  186.8580  176.1890  143.6950 O   0  0  0  0  0  0  0  0  0  0  0  0
  186.8750  178.3970  142.9120 N   0  0  0  0  0  2  0  0  0  0  0  0
  186.6800  177.4140  143.9340 C   0  0  0  0  0  0  0  0  0  0  0  0
  186.2250  177.8650  145.2890 C   0  0  1  0  0  3  0  0  0  0  0  0
  189.6640  177.4910  146.8840 C   0  0  0  0  0  3  0  0  0  0  0  0
  188.6410  177.4910  145.9290 C   0  0  0  0  0  3  0  0  0  0  0  0
  188.0900  178.2200  148.5740 C   0  0  0  0  0  3  0  0  0  0  0  0
  189.3900  177.8560  148.2060 C   0  0  0  0  0  3  0  0  0  0  0  0
  187.0670  178.2190  147.6200 C   0  0  0  0  0  3  0  0  0  0  0  0
  187.3370  177.8580  146.2950 C   0  0  0  0  0  0  0  0  0  0  0  0
  184.2550  178.8570  145.2620 C   0  0  0  0  0  1  0  0  0  0  0  0
  185.6210  179.1220  145.2130 O   0  0  0  0  0  0  0  0  0  0  0  0
  190.1690  178.4670  142.8680 O   0  0  0  0  0  0  0  0  0  0  0  0
  191.4640  178.2270  143.3400 C   0  0  0  0  0  3  0  0  0  0  0  0
  191.8470  179.2950  144.3480 C   0  0  0  0  0  1  0  0  0  0  0  0
  191.5050  176.8800  144.0260 C   0  0  0  0  0  1  0  0  0  0  0  0
  1  3  2  0  0  0  0
  1 14  1  0  0  0  0
  2 11  1  0  0  0  0
  2  7  1  0  0  0  0
  3  6  1  0  0  0  0
  4  9  2  0  0  0  0
  5  8  1  0  0  0  0
  5 11  2  0  0  0  0
  6 10  2  0  0  0  0
  6 13  1  0  0  0  0
  7 27  1  6  0  0  0
  9 12  1  0  0  0  0
 10  5  1  0  0  0  0
 11 16  1  0  0  0  0
 12  7  1  0  0  0  0
 13  9  1  0  0  0  0
 13  2  2  0  0  0  0
 14  4  1  0  0  0  0
 15 17  2  0  0  0  0
 16 17  1  0  0  0  0
 18 17  1  6  0  0  0
 18 24  1  0  0  0  0
 19 22  1  0  0  0  0
 20 24  1  0  0  0  0
 20 19  2  0  0  0  0
 22 21  2  0  0  0  0
 23 21  1  0  0  0  0
 24 23  2  0  0  0  0
 26 25  1  0  0  0  0
 26 18  1  0  0  0  0
 27 28  1  0  0  0  0
 28 30  1  0  0  0  0
 28 29  1  0  0  0  0
M  END
>  <MODEL>
2

>  <REMARK>
 VINA RESULT:      -8.2      1.401      2.623
  Name = 
  6 active torsions:
  status: ('A' for Active; 'I' for Inactive)
    1  A    between atoms: O_2  and  C_3
    2  A    between atoms: O_2  and  C_14
    3  A    between atoms: N_11  and  C_20
    4  A    between atoms: C_12  and  C_22
    5  A    between atoms: O_19  and  C_22
    6  A    between atoms: C_22  and  C_29
                            x       y       z     vdW  Elec       q    Type
                         _______ _______ _______ _____ _____    ______ ____

>  <TORSDO>
F 6

$$$$
=
 OpenBabel11032419263D

 30 33  0  0  1  0  0  0  0  0999 V2000
  189.6730  177.1650  137.2960 C   0  0  0  0  0  3  0  0  0  0  0  0
  187.8820  178.2900  141.1420 C   0  0  0  0  0  0  0  0  0  0  0  0
  189.9320  176.6780  138.4740 N   0  0  0  0  0  0  0  0  0  0  0  0
  187.7260  178.6490  137.6530 N   0  0  0  0  0  0  0  0  0  0  0  0
  189.7070  177.0940  142.1760 C   0  0  0  0  0  0  0  0  0  0  0  0
  189.5710  177.2400  139.7440 C   0  0  0  0  0  0  0  0  0  0  0  0
  186.4760  178.8180  140.9720 C   0  0  1  0  0  3  0  0  0  0  0  0
  190.3530  176.6320  143.2750 F   0  0  0  0  0  0  0  0  0  0  0  0
  187.5040  178.5140  138.9220 C   0  0  0  0  0  0  0  0  0  0  0  0
  190.1940  176.7570  140.9030 C   0  0  0  0  0  3  0  0  0  0  0  0
  188.5360  177.8650  142.3140 C   0  0  0  0  0  0  0  0  0  0  0  0
  186.3370  178.9140  139.5470 O   0  0  0  0  0  0  0  0  0  0  0  0
  188.4480  178.0570  139.9060 C   0  0  0  0  0  0  0  0  0  0  0  0
  189.0490  178.5060  137.0530 C   0  0  0  0  0  2  0  0  0  0  0  0
  186.8070  176.1510  143.9420 O   0  0  0  0  0  0  0  0  0  0  0  0
  188.0300  178.1250  143.6300 N   0  0  0  0  0  2  0  0  0  0  0  0
  187.2220  177.2430  144.4160 C   0  0  0  0  0  0  0  0  0  0  0  0
  186.8470  177.6570  145.8070 C   0  0  1  0  0  3  0  0  0  0  0  0
  189.0450  178.2540  148.8600 C   0  0  0  0  0  3  0  0  0  0  0  0
  187.9320  178.2460  148.0120 C   0  0  0  0  0  3  0  0  0  0  0  0
  190.3520  177.1280  147.1600 C   0  0  0  0  0  3  0  0  0  0  0  0
  190.2540  177.6940  148.4360 C   0  0  0  0  0  3  0  0  0  0  0  0
  189.2390  177.1210  146.3110 C   0  0  0  0  0  3  0  0  0  0  0  0
  188.0260  177.6760  146.7330 C   0  0  0  0  0  0  0  0  0  0  0  0
  184.9260  178.6240  146.2990 C   0  0  0  0  0  1  0  0  0  0  0  0
  186.1960  178.8930  145.7930 O   0  0  0  0  0  0  0  0  0  0  0  0
  185.5580  177.8800  141.4650 O   0  0  0  0  0  0  0  0  0  0  0  0
  184.3280  178.5440  141.5190 C   0  0  0  0  0  3  0  0  0  0  0  0
  183.2920  177.7690  140.7260 C   0  0  0  0  0  1  0  0  0  0  0  0
  183.8690  178.6280  142.9580 C   0  0  0  0  0  1  0  0  0  0  0  0
  1  3  2  0  0  0  0
  2 11  1  0  0  0  0
  3  6  1  0  0  0  0
  4  9  2  0  0  0  0
  5 11  2  0  0  0  0
  5  8  1  0  0  0  0
  6 13  1  0  0  0  0
  6 10  2  0  0  0  0
  7  2  1  0  0  0  0
  7 27  1  6  0  0  0
  9 12  1  0  0  0  0
  9 13  1  0  0  0  0
 10  5  1  0  0  0  0
 11 16  1  0  0  0  0
 12  7  1  0  0  0  0
 13  2  2  0  0  0  0
 14  1  1  0  0  0  0
 14  4  1  0  0  0  0
 15 17  2  0  0  0  0
 16 17  1  0  0  0  0
 18 17  1  6  0  0  0
 18 24  1  0  0  0  0
 20 19  2  0  0  0  0
 21 22  2  0  0  0  0
 22 19  1  0  0  0  0
 23 24  2  0  0  0  0
 23 21  1  0  0  0  0
 24 20  1  0  0  0  0
 26 18  1  0  0  0  0
 26 25  1  0  0  0  0
 27 28  1  0  0  0  0
 28 30  1  0  0  0  0
 29 28  1  0  0  0  0
M  END
>  <MODEL>
3

>  <REMARK>
 VINA RESULT:      -8.0      2.322      4.530
  Name = 
  6 active torsions:
  status: ('A' for Active; 'I' for Inactive)
    1  A    between atoms: O_2  and  C_3
    2  A    between atoms: O_2  and  C_14
    3  A    between atoms: N_11  and  C_20
    4  A    between atoms: C_12  and  C_22
    5  A    between atoms: O_19  and  C_22
    6  A    between atoms: C_22  and  C_29
                            x       y       z     vdW  Elec       q    Type
                         _______ _______ _______ _____ _____    ______ ____

>  <TORSDO>
F 6

$$$$
=
 OpenBabel11032419263D

 30 33  0  0  1  0  0  0  0  0999 V2000
  187.9490  177.2620  136.4490 C   0  0  0  0  0  3  0  0  0  0  0  0
  188.1670  178.2650  140.7160 C   0  0  0  0  0  0  0  0  0  0  0  0
  188.7660  176.7880  137.3440 N   0  0  0  0  0  0  0  0  0  0  0  0
  186.3390  178.6260  137.7400 N   0  0  0  0  0  0  0  0  0  0  0  0
  190.3230  177.1790  140.7130 C   0  0  0  0  0  0  0  0  0  0  0  0
  189.0300  177.3240  138.6480 C   0  0  0  0  0  0  0  0  0  0  0  0
  186.8270  178.7090  141.2570 C   0  0  1  0  0  3  0  0  0  0  0  0
  191.4400  176.7530  141.3540 F   0  0  0  0  0  0  0  0  0  0  0  0
  186.7600  178.4740  138.9560 C   0  0  0  0  0  0  0  0  0  0  0  0
  190.1570  176.8760  139.3520 C   0  0  0  0  0  3  0  0  0  0  0  0
  189.3240  177.8770  141.4190 C   0  0  0  0  0  0  0  0  0  0  0  0
  186.0170  178.8010  140.0760 O   0  0  0  0  0  0  0  0  0  0  0  0
  188.0820  178.0710  139.3540 C   0  0  0  0  0  0  0  0  0  0  0  0
  187.2180  178.5650  136.5770 C   0  0  0  0  0  2  0  0  0  0  0  0
  188.8620  175.9880  143.6080 O   0  0  0  0  0  0  0  0  0  0  0  0
  189.4980  178.1020  142.8240 N   0  0  0  0  0  2  0  0  0  0  0  0
  189.3060  177.1400  143.8660 C   0  0  0  0  0  0  0  0  0  0  0  0
  189.6080  177.5380  145.2790 C   0  0  1  0  0  3  0  0  0  0  0  0
  185.9700  178.2190  146.1790 C   0  0  0  0  0  3  0  0  0  0  0  0
  187.1150  177.9220  145.4310 C   0  0  0  0  0  3  0  0  0  0  0  0
  187.3170  178.3820  148.1840 C   0  0  0  0  0  3  0  0  0  0  0  0
  186.0700  178.4470  147.5550 C   0  0  0  0  0  3  0  0  0  0  0  0
  188.4630  178.0870  147.4360 C   0  0  0  0  0  3  0  0  0  0  0  0
  188.3670  177.8530  146.0600 C   0  0  0  0  0  0  0  0  0  0  0  0
  191.6810  176.8280  145.5380 C   0  0  0  0  0  1  0  0  0  0  0  0
  190.3690  176.5540  145.9160 O   0  0  0  0  0  0  0  0  0  0  0  0
  186.3070  177.7160  142.0990 O   0  0  0  0  0  0  0  0  0  0  0  0
  185.1420  178.2570  142.6510 C   0  0  0  0  0  3  0  0  0  0  0  0
  185.3140  179.7530  142.8440 C   0  0  0  0  0  1  0  0  0  0  0  0
  183.9850  178.0240  141.7050 C   0  0  0  0  0  1  0  0  0  0  0  0
  1 14  1  0  0  0  0
  1  3  2  0  0  0  0
  2  7  1  0  0  0  0
  2 11  1  0  0  0  0
  3  6  1  0  0  0  0
  4  9  2  0  0  0  0
  5  8  1  0  0  0  0
  5 11  2  0  0  0  0
  6 10  2  0  0  0  0
  6 13  1  0  0  0  0
  7 27  1  1  0  0  0
  9 13  1  0  0  0  0
  9 12  1  0  0  0  0
 10  5  1  0  0  0  0
 11 16  1  0  0  0  0
 12  7  1  0  0  0  0
 13  2  2  0  0  0  0
 14  4  1  0  0  0  0
 15 17  2  0  0  0  0
 16 17  1  0  0  0  0
 18 17  1  6  0  0  0
 18 26  1  0  0  0  0
 18 24  1  0  0  0  0
 19 22  1  0  0  0  0
 20 24  1  0  0  0  0
 20 19  2  0  0  0  0
 22 21  2  0  0  0  0
 23 21  1  0  0  0  0
 24 23  2  0  0  0  0
 25 26  1  0  0  0  0
 27 28  1  0  0  0  0
 28 29  1  0  0  0  0
 30 28  1  0  0  0  0
M  END
>  <MODEL>
4

>  <REMARK>
 VINA RESULT:      -8.0      2.174      3.921
  Name = 
  6 active torsions:
  status: ('A' for Active; 'I' for Inactive)
    1  A    between atoms: O_2  and  C_3
    2  A    between atoms: O_2  and  C_14
    3  A    between atoms: N_11  and  C_20
    4  A    between atoms: C_12  and  C_22
    5  A    between atoms: O_19  and  C_22
    6  A    between atoms: C_22  and  C_29
                            x       y       z     vdW  Elec       q    Type
                         _______ _______ _______ _____ _____    ______ ____

>  <TORSDO>
F 6

$$$$
=
 OpenBabel11032419263D

 30 33  0  0  1  0  0  0  0  0999 V2000
  189.0720  177.9870  148.1020 C   0  0  0  0  0  3  0  0  0  0  0  0
  188.6460  176.8080  143.8960 C   0  0  0  0  0  0  0  0  0  0  0  0
  190.0040  177.8850  147.2000 N   0  0  0  0  0  0  0  0  0  0  0  0
  186.9610  177.6720  146.8530 N   0  0  0  0  0  0  0  0  0  0  0  0
  191.0430  176.5240  143.8840 C   0  0  0  0  0  0  0  0  0  0  0  0
  189.9120  177.2250  145.9290 C   0  0  0  0  0  0  0  0  0  0  0  0
  187.2760  177.1490  143.3540 C   0  0  1  0  0  3  0  0  0  0  0  0
  192.2010  176.2290  143.2420 F   0  0  0  0  0  0  0  0  0  0  0  0
  187.3800  177.5030  145.6390 C   0  0  0  0  0  0  0  0  0  0  0  0
  191.0890  176.9400  145.2240 C   0  0  0  0  0  3  0  0  0  0  0  0
  189.8160  176.4560  143.1960 C   0  0  0  0  0  0  0  0  0  0  0  0
  186.5650  177.5820  144.5240 O   0  0  0  0  0  0  0  0  0  0  0  0
  188.6990  177.0880  145.2450 C   0  0  0  0  0  0  0  0  0  0  0  0
  187.7420  177.3000  148.0270 C   0  0  0  0  0  2  0  0  0  0  0  0
  190.4510  178.1660  140.9060 O   0  0  0  0  0  0  0  0  0  0  0  0
  189.8190  176.0990  141.8080 N   0  0  0  0  0  2  0  0  0  0  0  0
  190.1790  176.9500  140.7150 C   0  0  0  0  0  0  0  0  0  0  0  0
  190.1930  176.3780  139.3300 C   0  0  1  0  0  3  0  0  0  0  0  0
  188.5120  179.0240  137.1650 C   0  0  0  0  0  3  0  0  0  0  0  0
  189.4310  178.3980  138.0160 C   0  0  0  0  0  3  0  0  0  0  0  0
  187.1750  177.0060  137.1180 C   0  0  0  0  0  3  0  0  0  0  0  0
  187.3850  178.3280  136.7150 C   0  0  0  0  0  3  0  0  0  0  0  0
  188.0920  176.3790  137.9690 C   0  0  0  0  0  3  0  0  0  0  0  0
  189.2240  177.0700  138.4190 C   0  0  0  0  0  0  0  0  0  0  0  0
  191.5410  175.2840  137.9690 C   0  0  0  0  0  1  0  0  0  0  0  0
  191.4860  176.4000  138.8010 O   0  0  0  0  0  0  0  0  0  0  0  0
  187.3800  178.2180  142.4540 O   0  0  0  0  0  0  0  0  0  0  0  0
  186.1440  178.2870  141.8030 C   0  0  0  0  0  3  0  0  0  0  0  0
  185.2950  179.3780  142.4300 C   0  0  0  0  0  1  0  0  0  0  0  0
  186.3650  178.6280  140.3450 C   0  0  0  0  0  1  0  0  0  0  0  0
  2 13  1  0  0  0  0
  3  1  2  0  0  0  0
  4 14  1  0  0  0  0
  5 10  2  0  0  0  0
  6  3  1  0  0  0  0
  7 27  1  6  0  0  0
  7  2  1  0  0  0  0
  7 12  1  0  0  0  0
  8  5  1  0  0  0  0
  9  4  2  0  0  0  0
 10  6  1  0  0  0  0
 11  5  1  0  0  0  0
 11  2  2  0  0  0  0
 12  9  1  0  0  0  0
 13  9  1  0  0  0  0
 13  6  2  0  0  0  0
 14  1  1  0  0  0  0
 16 11  1  0  0  0  0
 17 15  2  0  0  0  0
 17 16  1  0  0  0  0
 18 26  1  6  0  0  0
 18 17  1  0  0  0  0
 19 20  1  0  0  0  0
 20 24  2  0  0  0  0
 21 23  2  0  0  0  0
 22 21  1  0  0  0  0
 22 19  2  0  0  0  0
 23 24  1  0  0  0  0
 24 18  1  0  0  0  0
 25 26  1  0  0  0  0
 28 29  1  0  0  0  0
 28 27  1  0  0  0  0
 30 28  1  0  0  0  0
M  END
>  <MODEL>
5

>  <REMARK>
 VINA RESULT:      -7.8      2.471      7.433
  Name = 
  6 active torsions:
  status: ('A' for Active; 'I' for Inactive)
    1  A    between atoms: O_2  and  C_3
    2  A    between atoms: O_2  and  C_14
    3  A    between atoms: N_11  and  C_20
    4  A    between atoms: C_12  and  C_22
    5  A    between atoms: O_19  and  C_22
    6  A    between atoms: C_22  and  C_29
                            x       y       z     vdW  Elec       q    Type
                         _______ _______ _______ _____ _____    ______ ____

>  <TORSDO>
F 6

$$$$
=
 OpenBabel11032419263D

 30 33  0  0  1  0  0  0  0  0999 V2000
  191.6790  177.0100  146.1770 C   0  0  0  0  0  3  0  0  0  0  0  0
  187.6910  177.3170  144.3710 C   0  0  0  0  0  0  0  0  0  0  0  0
  191.3760  177.3300  144.9530 N   0  0  0  0  0  0  0  0  0  0  0  0
  189.5040  176.9130  147.3510 N   0  0  0  0  0  0  0  0  0  0  0  0
  188.8170  177.3230  142.2360 C   0  0  0  0  0  0  0  0  0  0  0  0
  190.1140  177.1440  144.2950 C   0  0  0  0  0  0  0  0  0  0  0  0
  186.6370  177.6700  145.3960 C   0  0  1  0  0  3  0  0  0  0  0  0
  188.7960  177.3990  140.8820 F   0  0  0  0  0  0  0  0  0  0  0  0
  188.6680  177.2220  146.4100 C   0  0  0  0  0  0  0  0  0  0  0  0
  190.0530  177.2530  142.8990 C   0  0  0  0  0  3  0  0  0  0  0  0
  187.6130  177.3610  142.9660 C   0  0  0  0  0  0  0  0  0  0  0  0
  187.3540  177.5890  146.6370 O   0  0  0  0  0  0  0  0  0  0  0  0
  188.9040  177.1180  144.9950 C   0  0  0  0  0  0  0  0  0  0  0  0
  190.7780  176.2480  147.1010 C   0  0  0  0  0  2  0  0  0  0  0  0
  186.4470  179.8200  141.8860 O   0  0  0  0  0  0  0  0  0  0  0  0
  186.3770  177.5080  142.2550 N   0  0  0  0  0  2  0  0  0  0  0  0
  185.8580  178.7210  141.7010 C   0  0  0  0  0  0  0  0  0  0  0  0
  184.5780  178.6680  140.9230 C   0  0  1  0  0  3  0  0  0  0  0  0
  182.3570  179.0000  144.0010 C   0  0  0  0  0  3  0  0  0  0  0  0
  183.4980  178.9350  143.1930 C   0  0  0  0  0  3  0  0  0  0  0  0
  180.9560  178.6750  142.0540 C   0  0  0  0  0  3  0  0  0  0  0  0
  181.0870  178.8720  143.4320 C   0  0  0  0  0  3  0  0  0  0  0  0
  182.0960  178.6090  141.2450 C   0  0  0  0  0  3  0  0  0  0  0  0
  183.3700  178.7420  141.8090 C   0  0  0  0  0  0  0  0  0  0  0  0
  184.5630  178.9810  138.7400 C   0  0  0  0  0  1  0  0  0  0  0  0
  184.5510  179.6700  139.9500 O   0  0  0  0  0  0  0  0  0  0  0  0
  186.2070  178.9880  145.1940 O   0  0  0  0  0  0  0  0  0  0  0  0
  185.3010  179.2550  146.2250 C   0  0  0  0  0  3  0  0  0  0  0  0
  184.5800  177.9770  146.6160 C   0  0  0  0  0  1  0  0  0  0  0  0
  186.0530  179.7720  147.4320 C   0  0  0  0  0  1  0  0  0  0  0  0
  1 14  1  0  0  0  0
  2 13  1  0  0  0  0
  2  7  1  0  0  0  0
  3  1  2  0  0  0  0
  5 10  2  0  0  0  0
  5 11  1  0  0  0  0
  6  3  1  0  0  0  0
  6 13  2  0  0  0  0
  7 27  1  6  0  0  0
  7 12  1  0  0  0  0
  8  5  1  0  0  0  0
  9 12  1  0  0  0  0
  9  4  2  0  0  0  0
 10  6  1  0  0  0  0
 11  2  2  0  0  0  0
 13  9  1  0  0  0  0
 14  4  1  0  0  0  0
 16 11  1  0  0  0  0
 17 15  2  0  0  0  0
 17 16  1  0  0  0  0
 18 26  1  6  0  0  0
 18 17  1  0  0  0  0
 18 24  1  0  0  0  0
 20 19  2  0  0  0  0
 21 22  2  0  0  0  0
 22 19  1  0  0  0  0
 23 24  2  0  0  0  0
 23 21  1  0  0  0  0
 24 20  1  0  0  0  0
 25 26  1  0  0  0  0
 27 28  1  0  0  0  0
 28 29  1  0  0  0  0
 28 30  1  0  0  0  0
M  END
>  <MODEL>
6

>  <REMARK>
 VINA RESULT:      -7.4      3.462      6.256
  Name = 
  6 active torsions:
  status: ('A' for Active; 'I' for Inactive)
    1  A    between atoms: O_2  and  C_3
    2  A    between atoms: O_2  and  C_14
    3  A    between atoms: N_11  and  C_20
    4  A    between atoms: C_12  and  C_22
    5  A    between atoms: O_19  and  C_22
    6  A    between atoms: C_22  and  C_29
                            x       y       z     vdW  Elec       q    Type
                         _______ _______ _______ _____ _____    ______ ____

>  <TORSDO>
F 6

$$$$
=
 OpenBabel11032419263D

 30 33  0  0  1  0  0  0  0  0999 V2000
  189.5010  177.8440  147.6030 C   0  0  0  0  0  3  0  0  0  0  0  0
  188.4100  177.0800  143.4210 C   0  0  0  0  0  0  0  0  0  0  0  0
  190.2500  177.9560  146.5460 N   0  0  0  0  0  0  0  0  0  0  0  0
  187.2350  177.4050  146.7140 N   0  0  0  0  0  0  0  0  0  0  0  0
  190.7780  177.1000  142.9520 C   0  0  0  0  0  0  0  0  0  0  0  0
  189.9880  177.4300  145.2370 C   0  0  0  0  0  0  0  0  0  0  0  0
  186.9350  177.3050  143.1770 C   0  0  1  0  0  3  0  0  0  0  0  0
  191.8180  177.0220  142.0840 F   0  0  0  0  0  0  0  0  0  0  0  0
  187.4320  177.4200  145.4340 C   0  0  0  0  0  0  0  0  0  0  0  0
  191.0340  177.3710  144.3060 C   0  0  0  0  0  3  0  0  0  0  0  0
  189.4560  176.9540  142.4870 C   0  0  0  0  0  0  0  0  0  0  0  0
  186.4170  177.5170  144.4980 O   0  0  0  0  0  0  0  0  0  0  0  0
  188.6890  177.2180  144.7640 C   0  0  0  0  0  0  0  0  0  0  0  0
  188.2580  177.0080  147.6750 C   0  0  0  0  0  2  0  0  0  0  0  0
  189.0170  178.9900  140.4290 O   0  0  0  0  0  0  0  0  0  0  0  0
  189.2330  176.7510  141.0860 N   0  0  0  0  0  2  0  0  0  0  0  0
  189.0670  177.7740  140.0980 C   0  0  0  0  0  0  0  0  0  0  0  0
  188.9160  177.3710  138.6630 C   0  0  1  0  0  3  0  0  0  0  0  0
  190.6660  174.3200  137.2000 C   0  0  0  0  0  3  0  0  0  0  0  0
  189.6540  175.2010  137.5980 C   0  0  0  0  0  3  0  0  0  0  0  0
  192.3380  175.8490  138.0520 C   0  0  0  0  0  3  0  0  0  0  0  0
  192.0070  174.6440  137.4250 C   0  0  0  0  0  3  0  0  0  0  0  0
  191.3270  176.7300  138.4530 C   0  0  0  0  0  3  0  0  0  0  0  0
  189.9830  176.4120  138.2250 C   0  0  0  0  0  0  0  0  0  0  0  0
  187.0380  177.7700  137.5760 C   0  0  0  0  0  1  0  0  0  0  0  0
  187.6420  176.8490  138.4290 O   0  0  0  0  0  0  0  0  0  0  0  0
  186.7560  178.4690  142.4170 O   0  0  0  0  0  0  0  0  0  0  0  0
  185.4130  178.4670  142.0290 C   0  0  0  0  0  3  0  0  0  0  0  0
  184.6110  179.3650  142.9530 C   0  0  0  0  0  1  0  0  0  0  0  0
  185.2990  179.0020  140.6190 C   0  0  0  0  0  1  0  0  0  0  0  0
  1 14  1  0  0  0  0
  2 13  1  0  0  0  0
  3  1  2  0  0  0  0
  4 14  1  0  0  0  0
  5 10  2  0  0  0  0
  6  3  1  0  0  0  0
  7 27  1  6  0  0  0
  7  2  1  0  0  0  0
  7 12  1  0  0  0  0
  8  5  1  0  0  0  0
  9  4  2  0  0  0  0
 10  6  1  0  0  0  0
 11  5  1  0  0  0  0
 11  2  2  0  0  0  0
 12  9  1  0  0  0  0
 13  6  2  0  0  0  0
 13  9  1  0  0  0  0
 16 11  1  0  0  0  0
 17 15  2  0  0  0  0
 17 16  1  0  0  0  0
 18 26  1  1  0  0  0
 18 17  1  0  0  0  0
 19 22  2  0  0  0  0
 19 20  1  0  0  0  0
 20 24  2  0  0  0  0
 21 23  2  0  0  0  0
 22 21  1  0  0  0  0
 24 23  1  0  0  0  0
 24 18  1  0  0  0  0
 25 26  1  0  0  0  0
 28 27  1  0  0  0  0
 28 29  1  0  0  0  0
 30 28  1  0  0  0  0
M  END
>  <MODEL>
7

>  <REMARK>
 VINA RESULT:      -7.4      2.351      7.714
  Name = 
  6 active torsions:
  status: ('A' for Active; 'I' for Inactive)
    1  A    between atoms: O_2  and  C_3
    2  A    between atoms: O_2  and  C_14
    3  A    between atoms: N_11  and  C_20
    4  A    between atoms: C_12  and  C_22
    5  A    between atoms: O_19  and  C_22
    6  A    between atoms: C_22  and  C_29
                            x       y       z     vdW  Elec       q    Type
                         _______ _______ _______ _____ _____    ______ ____

>  <TORSDO>
F 6

$$$$
=
 OpenBabel11032419263D

 30 33  0  0  1  0  0  0  0  0999 V2000
  182.3950  178.6580  138.0550 C   0  0  0  0  0  3  0  0  0  0  0  0
  186.4230  178.2090  139.7380 C   0  0  0  0  0  0  0  0  0  0  0  0
  182.8830  179.2140  139.1260 N   0  0  0  0  0  0  0  0  0  0  0  0
  184.3300  177.5350  137.0010 N   0  0  0  0  0  0  0  0  0  0  0  0
  185.5360  179.2040  141.7510 C   0  0  0  0  0  0  0  0  0  0  0  0
  184.0780  178.8420  139.8280 C   0  0  0  0  0  0  0  0  0  0  0  0
  187.4450  177.8900  138.6710 C   0  0  1  0  0  3  0  0  0  0  0  0
  185.6920  179.6670  143.0160 F   0  0  0  0  0  0  0  0  0  0  0  0
  185.2960  177.8270  137.8130 C   0  0  0  0  0  0  0  0  0  0  0  0
  184.2860  179.3340  141.1230 C   0  0  0  0  0  3  0  0  0  0  0  0
  186.6280  178.6410  141.0630 C   0  0  0  0  0  0  0  0  0  0  0  0
  186.6360  177.6760  137.5040 O   0  0  0  0  0  0  0  0  0  0  0  0
  185.1600  178.2280  139.1880 C   0  0  0  0  0  0  0  0  0  0  0  0
  182.9390  177.4120  137.4250 C   0  0  0  0  0  2  0  0  0  0  0  0
  187.6580  176.5540  142.8400 O   0  0  0  0  0  0  0  0  0  0  0  0
  187.9050  178.5930  141.7120 N   0  0  0  0  0  2  0  0  0  0  0  0
  188.3950  177.5330  142.5410 C   0  0  0  0  0  0  0  0  0  0  0  0
  189.7910  177.6240  143.0770 C   0  0  1  0  0  3  0  0  0  0  0  0
  191.0000  176.7500  146.5830 C   0  0  0  0  0  3  0  0  0  0  0  0
  190.9750  176.9080  145.1920 C   0  0  0  0  0  3  0  0  0  0  0  0
  188.7620  177.6610  146.7300 C   0  0  0  0  0  3  0  0  0  0  0  0
  189.8950  177.1280  147.3520 C   0  0  0  0  0  3  0  0  0  0  0  0
  188.7350  177.8190  145.3390 C   0  0  0  0  0  3  0  0  0  0  0  0
  189.8410  177.4460  144.5660 C   0  0  0  0  0  0  0  0  0  0  0  0
  191.5490  177.5020  141.7510 C   0  0  0  0  0  1  0  0  0  0  0  0
  190.6270  176.7100  142.4320 O   0  0  0  0  0  0  0  0  0  0  0  0
  188.2720  179.0020  138.4630 O   0  0  0  0  0  0  0  0  0  0  0  0
  189.4960  178.4890  138.0240 C   0  0  0  0  0  3  0  0  0  0  0  0
  189.7730  177.1650  138.7130 C   0  0  0  0  0  1  0  0  0  0  0  0
  189.4310  178.2500  136.5310 C   0  0  0  0  0  1  0  0  0  0  0  0
  1  3  2  0  0  0  0
  2 11  1  0  0  0  0
  3  6  1  0  0  0  0
  4 14  1  0  0  0  0
  4  9  2  0  0  0  0
  5  8  1  0  0  0  0
  6 10  2  0  0  0  0
  7 27  1  6  0  0  0
  7  2  1  0  0  0  0
  9 13  1  0  0  0  0
 10  5  1  0  0  0  0
 11 16  1  0  0  0  0
 11  5  2  0  0  0  0
 12  9  1  0  0  0  0
 12  7  1  0  0  0  0
 13  2  2  0  0  0  0
 13  6  1  0  0  0  0
 14  1  1  0  0  0  0
 16 17  1  0  0  0  0
 17 15  2  0  0  0  0
 17 18  1  0  0  0  0
 18 26  1  6  0  0  0
 18 24  1  0  0  0  0
 19 22  1  0  0  0  0
 20 19  2  0  0  0  0
 21 22  2  0  0  0  0
 23 21  1  0  0  0  0
 24 20  1  0  0  0  0
 24 23  2  0  0  0  0
 25 26  1  0  0  0  0
 28 27  1  0  0  0  0
 28 29  1  0  0  0  0
 30 28  1  0  0  0  0
M  END
>  <MODEL>
8

>  <REMARK>
 VINA RESULT:      -7.1      2.920      5.152
  Name = 
  6 active torsions:
  status: ('A' for Active; 'I' for Inactive)
    1  A    between atoms: O_2  and  C_3
    2  A    between atoms: O_2  and  C_14
    3  A    between atoms: N_11  and  C_20
    4  A    between atoms: C_12  and  C_22
    5  A    between atoms: O_19  and  C_22
    6  A    between atoms: C_22  and  C_29
                            x       y       z     vdW  Elec       q    Type
                         _______ _______ _______ _____ _____    ______ ____

>  <TORSDO>
F 6

$$$$
=
 OpenBabel11032419263D

 30 33  0  0  1  0  0  0  0  0999 V2000
  184.6860  178.2730  146.5940 C   0  0  0  0  0  3  0  0  0  0  0  0
  188.2860  178.0980  144.0890 C   0  0  0  0  0  0  0  0  0  0  0  0
  184.7640  178.0360  145.3170 N   0  0  0  0  0  0  0  0  0  0  0  0
  187.0370  178.2970  147.3640 N   0  0  0  0  0  0  0  0  0  0  0  0
  186.7980  178.2310  142.1930 C   0  0  0  0  0  0  0  0  0  0  0  0
  185.8900  178.2690  144.4580 C   0  0  0  0  0  0  0  0  0  0  0  0
  189.5030  177.6800  144.8840 C   0  0  1  0  0  3  0  0  0  0  0  0
  186.5770  178.2460  140.8550 F   0  0  0  0  0  0  0  0  0  0  0  0
  187.6890  178.0540  146.2720 C   0  0  0  0  0  0  0  0  0  0  0  0
  185.7010  178.2540  143.0690 C   0  0  0  0  0  3  0  0  0  0  0  0
  188.1120  178.1480  142.6930 C   0  0  0  0  0  0  0  0  0  0  0  0
  189.0190  177.6760  146.2360 O   0  0  0  0  0  0  0  0  0  0  0  0
  187.2060  178.2520  144.9310 C   0  0  0  0  0  0  0  0  0  0  0  0
  185.7450  178.9740  147.3900 C   0  0  0  0  0  2  0  0  0  0  0  0
  189.3110  175.7190  141.5800 O   0  0  0  0  0  0  0  0  0  0  0  0
  189.2010  178.0520  141.7650 N   0  0  0  0  0  2  0  0  0  0  0  0
  189.7330  176.8470  141.2060 C   0  0  0  0  0  0  0  0  0  0  0  0
  190.8300  176.9470  140.1900 C   0  0  1  0  0  3  0  0  0  0  0  0
  188.9560  178.6110  137.3210 C   0  0  0  0  0  3  0  0  0  0  0  0
  189.4300  178.3350  138.6090 C   0  0  0  0  0  3  0  0  0  0  0  0
  190.2320  176.7480  136.4480 C   0  0  0  0  0  3  0  0  0  0  0  0
  189.3570  177.8190  136.2410 C   0  0  0  0  0  3  0  0  0  0  0  0
  190.7050  176.4700  137.7350 C   0  0  0  0  0  3  0  0  0  0  0  0
  190.3100  177.2630  138.8190 C   0  0  0  0  0  0  0  0  0  0  0  0
  193.0030  177.3250  140.1920 C   0  0  0  0  0  1  0  0  0  0  0  0
  191.7900  177.8790  140.5920 O   0  0  0  0  0  0  0  0  0  0  0  0
  189.8770  176.3790  144.5220 O   0  0  0  0  0  0  0  0  0  0  0  0
  191.2760  176.3800  144.4950 C   0  0  0  0  0  3  0  0  0  0  0  0
  191.7800  177.7720  144.1620 C   0  0  0  0  0  1  0  0  0  0  0  0
  191.8020  175.9910  145.8580 C   0  0  0  0  0  1  0  0  0  0  0  0
  1 14  1  0  0  0  0
  2  7  1  0  0  0  0
  2 13  1  0  0  0  0
  3  1  2  0  0  0  0
  4 14  1  0  0  0  0
  5 11  1  0  0  0  0
  5 10  2  0  0  0  0
  6 13  2  0  0  0  0
  6  3  1  0  0  0  0
  7 27  1  6  0  0  0
  7 12  1  0  0  0  0
  8  5  1  0  0  0  0
  9  4  2  0  0  0  0
 10  6  1  0  0  0  0
 11  2  2  0  0  0  0
 12  9  1  0  0  0  0
 13  9  1  0  0  0  0
 16 11  1  0  0  0  0
 17 15  2  0  0  0  0
 17 16  1  0  0  0  0
 18 26  1  1  0  0  0
 18 17  1  0  0  0  0
 19 20  1  0  0  0  0
 20 24  2  0  0  0  0
 21 23  2  0  0  0  0
 22 21  1  0  0  0  0
 22 19  2  0  0  0  0
 23 24  1  0  0  0  0
 24 18  1  0  0  0  0
 25 26  1  0  0  0  0
 28 27  1  0  0  0  0
 28 30  1  0  0  0  0
 29 28  1  0  0  0  0
M  END
>  <MODEL>
9

>  <REMARK>
 VINA RESULT:      -7.0      1.831      6.958
  Name = 
  6 active torsions:
  status: ('A' for Active; 'I' for Inactive)
    1  A    between atoms: O_2  and  C_3
    2  A    between atoms: O_2  and  C_14
    3  A    between atoms: N_11  and  C_20
    4  A    between atoms: C_12  and  C_22
    5  A    between atoms: O_19  and  C_22
    6  A    between atoms: C_22  and  C_29
                            x       y       z     vdW  Elec       q    Type
                         _______ _______ _______ _____ _____    ______ ____

>  <TORSDO>
F 6

$$$$
