=
 OpenBabel11042410483D

 31 35  0  0  1  0  0  0  0  0999 V2000
  182.3960  178.7480  141.8030 C   0  0  0  0  0  0  0  0  0  0  0  0
  184.3350  178.7120  143.4430 C   0  0  0  0  0  0  0  0  0  0  0  0
  180.3590  175.9910  141.0570 C   0  0  0  0  0  3  0  0  0  0  0  0
  182.0520  177.2630  137.3550 C   0  0  0  0  0  3  0  0  0  0  0  0
  180.8690  176.5070  137.4280 C   0  0  0  0  0  0  0  0  0  0  0  0
  182.2060  177.2590  139.7800 C   0  0  0  0  0  0  0  0  0  0  0  0
  185.3580  178.2540  145.6410 N   0  0  0  0  0  0  0  0  0  0  0  0
  185.3020  178.6280  141.0870 C   0  0  0  0  0  3  0  0  0  0  0  0
  185.4450  178.4680  142.5670 C   0  0  0  0  0  0  0  0  0  0  0  0
  184.2320  178.5550  138.5760 S   0  0  0  0  0  0  0  0  0  0  0  0
  184.2500  178.2850  140.3520 C   0  0  0  0  0  0  0  0  0  0  0  0
  183.2760  178.9620  145.4690 O   0  0  0  0  0  0  0  0  0  0  0  0
  182.7090  177.6300  138.5390 C   0  0  0  0  0  0  0  0  0  0  0  0
  181.0340  176.4990  139.8430 C   0  0  0  0  0  0  0  0  0  0  0  0
  180.3750  176.1400  138.6920 C   0  0  0  0  0  0  0  0  0  0  0  0
  187.7630  178.0340  141.9210 N   0  0  0  0  0  1  0  0  0  0  0  0
  184.3360  178.6490  144.8570 C   0  0  0  0  0  0  0  0  0  0  0  0
  179.1580  175.3490  138.9820 C   0  0  0  0  0  3  0  0  0  0  0  0
  179.1270  175.2560  140.5140 C   0  0  0  0  0  2  0  0  0  0  0  0
  186.6250  177.8760  145.4020 C   0  0  0  0  0  0  0  0  0  0  0  0
  183.0290  177.6850  140.9520 C   0  0  1  0  0  3  0  0  0  0  0  0
  187.2060  177.8770  144.1910 N   0  0  0  0  0  0  0  0  0  0  0  0
  186.7700  178.1460  142.9450 C   0  0  0  0  0  0  0  0  0  0  0  0
  183.0190  179.1800  142.8980 C   0  0  0  0  0  3  0  0  0  0  0  0
  181.1490  179.3780  141.4430 C   0  0  0  0  0  0  0  0  0  0  0  0
  180.1090  179.9100  141.1430 C   0  0  0  0  0  0  0  0  0  0  0  0
  178.9330  180.5140  140.8040 O   0  0  0  0  0  1  0  0  0  0  0  0
  187.4320  177.5040  146.5280 C   0  0  0  0  0  0  0  0  0  0  0  0
  188.0840  177.2030  147.4370 N   0  0  0  0  0  0  0  0  0  0  0  0
  180.5930  174.8980  135.7230 O   0  0  0  0  0  1  0  0  0  0  0  0
  180.1470  176.1380  136.1770 C   0  0  0  0  0  2  0  0  0  0  0  0
  1 24  2  0  0  0  0
  2 17  1  0  0  0  0
  4  5  2  0  0  0  0
  4 13  1  0  0  0  0
  5 15  1  0  0  0  0
  6 14  1  0  0  0  0
  8  9  1  0  0  0  0
  9 23  1  0  0  0  0
  9  2  2  0  0  0  0
 10 11  1  0  0  0  0
 11 21  1  0  0  0  0
 11  8  2  0  0  0  0
 13 10  1  0  0  0  0
 13  6  2  0  0  0  0
 14  3  2  0  0  0  0
 15 18  2  0  0  0  0
 15 14  1  0  0  0  0
 16 23  1  0  0  0  0
 17 12  2  0  0  0  0
 17  7  1  0  0  0  0
 18 19  1  0  0  0  0
 19  3  1  0  0  0  0
 20  7  2  0  0  0  0
 20 28  1  0  0  0  0
 21  6  1  6  0  0  0
 21  1  1  0  0  0  0
 22 20  1  0  0  0  0
 23 22  2  0  0  0  0
 24  2  1  0  0  0  0
 25  1  1  0  0  0  0
 26 25  3  0  0  0  0
 27 26  1  0  0  0  0
 28 29  3  0  0  0  0
 30 31  1  0  0  0  0
 31  5  1  0  0  0  0
M  END
>  <MODEL>
1

>  <REMARK>
 VINA RESULT:      -6.8      0.000      0.000
  Name = 
  3 active torsions:
  status: ('A' for Active; 'I' for Inactive)
    1  A    between atoms: C_1  and  C_11
    2  A    between atoms: C_2  and  C_26
    3  A    between atoms: C_6  and  C_29
                            x       y       z     vdW  Elec       q    Type
                         _______ _______ _______ _____ _____    ______ ____

>  <TORSDO>
F 3

$$$$
=
 OpenBabel11042410483D

 31 35  0  0  1  0  0  0  0  0999 V2000
  189.5160  177.2600  138.6240 C   0  0  0  0  0  0  0  0  0  0  0  0
  188.8940  177.8830  141.0060 C   0  0  0  0  0  0  0  0  0  0  0  0
  189.0030  174.1020  137.1860 C   0  0  0  0  0  3  0  0  0  0  0  0
  193.1830  174.8910  136.8800 C   0  0  0  0  0  3  0  0  0  0  0  0
  192.5210  173.9710  136.0460 C   0  0  1  0  0  3  0  0  0  0  0  0
  191.0840  175.3910  137.9960 C   0  0  0  0  0  0  0  0  0  0  0  0
  187.3300  178.0500  142.9070 N   0  0  0  0  0  0  0  0  0  0  0  0
  191.4120  177.5030  140.9280 C   0  0  0  0  0  3  0  0  0  0  0  0
  190.1350  177.6650  141.6910 C   0  0  0  0  0  0  0  0  0  0  0  0
  193.1800  176.7530  138.9880 S   0  0  0  0  0  0  0  0  0  0  0  0
  191.5730  176.8450  139.7850 C   0  0  0  0  0  0  0  0  0  0  0  0
  186.6480  178.3410  140.8290 O   0  0  0  0  0  0  0  0  0  0  0  0
  192.4510  175.5910  137.8500 C   0  0  0  0  0  0  0  0  0  0  0  0
  190.4350  174.4680  137.1700 C   0  0  0  0  0  0  0  0  0  0  0  0
  191.1380  173.7820  136.2100 C   0  0  0  0  0  0  0  0  0  0  0  0
  191.6810  177.5180  143.5810 N   0  0  0  0  0  1  0  0  0  0  0  0
  187.6240  178.1000  141.5930 C   0  0  0  0  0  0  0  0  0  0  0  0
  190.2650  172.8660  135.4420 C   0  0  0  0  0  3  0  0  0  0  0  0
  188.8730  173.0730  136.0550 C   0  0  0  0  0  3  0  0  0  0  0  0
  188.0570  177.8560  144.0190 C   0  0  0  0  0  0  0  0  0  0  0  0
  190.4410  176.1750  139.0930 C   0  0  1  0  0  3  0  0  0  0  0  0
  189.3930  177.7190  144.0430 N   0  0  0  0  0  0  0  0  0  0  0  0
  190.3440  177.6570  143.0910 C   0  0  0  0  0  0  0  0  0  0  0  0
  188.8540  178.0000  139.5130 C   0  0  0  0  0  3  0  0  0  0  0  0
  189.3570  177.5820  137.2260 C   0  0  0  0  0  0  0  0  0  0  0  0
  189.2210  177.8460  136.0570 C   0  0  0  0  0  0  0  0  0  0  0  0
  189.0680  178.1420  134.7340 O   0  0  0  0  0  1  0  0  0  0  0  0
  187.3650  177.8580  145.2760 C   0  0  0  0  0  0  0  0  0  0  0  0
  186.8070  177.8590  146.2900 N   0  0  0  0  0  0  0  0  0  0  0  0
  194.5910  173.7300  134.9370 O   0  0  0  0  0  1  0  0  0  0  0  0
  193.2850  173.2440  134.9930 C   0  0  0  0  0  2  0  0  0  0  0  0
  1 21  1  0  0  0  0
  1 24  2  0  0  0  0
  2 17  1  0  0  0  0
  2  9  2  0  0  0  0
  4 13  2  0  0  0  0
  5 31  1  6  0  0  0
  5 15  1  0  0  0  0
  5  4  1  0  0  0  0
  7 20  2  0  0  0  0
  8  9  1  0  0  0  0
  9 23  1  0  0  0  0
 10 11  1  0  0  0  0
 11  8  2  0  0  0  0
 12 17  2  0  0  0  0
 13  6  1  0  0  0  0
 13 10  1  0  0  0  0
 14  3  1  0  0  0  0
 14  6  2  0  0  0  0
 15 14  1  0  0  0  0
 17  7  1  0  0  0  0
 18 19  1  0  0  0  0
 18 15  2  0  0  0  0
 19  3  2  0  0  0  0
 20 22  1  0  0  0  0
 20 28  1  0  0  0  0
 21  6  1  6  0  0  0
 21 11  1  0  0  0  0
 23 16  1  0  0  0  0
 23 22  2  0  0  0  0
 24  2  1  0  0  0  0
 25  1  1  0  0  0  0
 26 25  3  0  0  0  0
 27 26  1  0  0  0  0
 28 29  3  0  0  0  0
 30 31  1  0  0  0  0
M  END
>  <MODEL>
2

>  <REMARK>
 VINA RESULT:      -6.8      6.837      8.575
  Name = 
  3 active torsions:
  status: ('A' for Active; 'I' for Inactive)
    1  A    between atoms: C_1  and  C_11
    2  A    between atoms: C_2  and  C_26
    3  A    between atoms: C_6  and  C_29
                            x       y       z     vdW  Elec       q    Type
                         _______ _______ _______ _____ _____    ______ ____

>  <TORSDO>
F 3

$$$$
=
 OpenBabel11042410483D

 31 35  0  0  1  0  0  0  0  0999 V2000
  183.4740  177.6730  138.5910 C   0  0  0  0  0  0  0  0  0  0  0  0
  184.4600  175.7240  137.2960 C   0  0  0  0  0  0  0  0  0  0  0  0
  184.0520  178.3100  141.9920 C   0  0  0  0  0  3  0  0  0  0  0  0
  179.8280  177.9220  141.5490 C   0  0  0  0  0  3  0  0  0  0  0  0
  180.4190  178.6060  142.6270 C   0  0  0  0  0  0  0  0  0  0  0  0
  182.0310  177.4450  140.6440 C   0  0  0  0  0  0  0  0  0  0  0  0
  186.3250  174.3070  136.5210 N   0  0  0  0  0  0  0  0  0  0  0  0
  182.0290  175.1660  137.8200 C   0  0  0  0  0  3  0  0  0  0  0  0
  183.4010  174.7600  137.3830 C   0  0  0  0  0  0  0  0  0  0  0  0
  180.0220  176.4240  139.1760 S   0  0  0  0  0  0  0  0  0  0  0  0
  181.7300  176.0370  138.7770 C   0  0  0  0  0  0  0  0  0  0  0  0
  186.5680  176.4840  136.7830 O   0  0  0  0  0  0  0  0  0  0  0  0
  180.6470  177.3460  140.5670 C   0  0  0  0  0  0  0  0  0  0  0  0
  182.6110  178.1190  141.7230 C   0  0  0  0  0  0  0  0  0  0  0  0
  181.8200  178.6950  142.6870 C   0  0  0  0  0  0  0  0  0  0  0  0
  182.2650  172.6150  137.0810 N   0  0  0  0  0  1  0  0  0  0  0  0
  185.7850  175.4960  136.8550 C   0  0  0  0  0  0  0  0  0  0  0  0
  182.6290  179.3630  143.7310 C   0  0  0  0  0  3  0  0  0  0  0  0
  184.0800  179.1340  143.2860 C   0  0  0  0  0  2  0  0  0  0  0  0
  185.8460  173.0550  136.4370 C   0  0  0  0  0  0  0  0  0  0  0  0
  182.7790  176.7520  139.5510 C   0  0  1  0  0  3  0  0  0  0  0  0
  184.5620  172.7150  136.6350 N   0  0  0  0  0  0  0  0  0  0  0  0
  183.4620  173.3950  137.0110 C   0  0  0  0  0  0  0  0  0  0  0  0
  184.2050  177.1690  137.5980 C   0  0  0  0  0  3  0  0  0  0  0  0
  183.3300  179.1080  138.6620 C   0  0  0  0  0  0  0  0  0  0  0  0
  183.2060  180.3060  138.7170 C   0  0  0  0  0  0  0  0  0  0  0  0
  183.0650  181.6620  138.7760 O   0  0  0  0  0  1  0  0  0  0  0  0
  186.7580  172.0180  136.0470 C   0  0  0  0  0  0  0  0  0  0  0  0
  187.4930  171.1810  135.7330 N   0  0  0  0  0  0  0  0  0  0  0  0
  179.0440  178.2750  144.5170 O   0  0  0  0  0  1  0  0  0  0  0  0
  179.5550  179.2480  143.6590 C   0  0  0  0  0  2  0  0  0  0  0  0
  1 25  1  0  0  0  0
  2  9  2  0  0  0  0
  2 24  1  0  0  0  0
  3 19  1  0  0  0  0
  4  5  2  0  0  0  0
  5 15  1  0  0  0  0
  5 31  1  0  0  0  0
  6 14  1  0  0  0  0
  7 17  1  0  0  0  0
  8 11  2  0  0  0  0
  9  8  1  0  0  0  0
 10 13  1  0  0  0  0
 11 10  1  0  0  0  0
 11 21  1  0  0  0  0
 12 17  2  0  0  0  0
 13  6  2  0  0  0  0
 13  4  1  0  0  0  0
 14  3  2  0  0  0  0
 14 15  1  0  0  0  0
 15 18  2  0  0  0  0
 17  2  1  0  0  0  0
 19 18  1  0  0  0  0
 20  7  2  0  0  0  0
 20 22  1  0  0  0  0
 21  1  1  6  0  0  0
 21  6  1  0  0  0  0
 22 23  2  0  0  0  0
 23 16  1  0  0  0  0
 23  9  1  0  0  0  0
 24  1  2  0  0  0  0
 25 26  3  0  0  0  0
 26 27  1  0  0  0  0
 28 20  1  0  0  0  0
 29 28  3  0  0  0  0
 31 30  1  0  0  0  0
M  END
>  <MODEL>
3

>  <REMARK>
 VINA RESULT:      -6.1      4.241      7.099
  Name = 
  3 active torsions:
  status: ('A' for Active; 'I' for Inactive)
    1  A    between atoms: C_1  and  C_11
    2  A    between atoms: C_2  and  C_26
    3  A    between atoms: C_6  and  C_29
                            x       y       z     vdW  Elec       q    Type
                         _______ _______ _______ _____ _____    ______ ____

>  <TORSDO>
F 3

$$$$
=
 OpenBabel11042410483D

 31 35  0  0  1  0  0  0  0  0999 V2000
  190.8130  178.1420  142.3170 C   0  0  0  0  0  0  0  0  0  0  0  0
  191.4880  177.1160  140.0950 C   0  0  0  0  0  0  0  0  0  0  0  0
  190.6410  176.3960  145.3550 C   0  0  0  0  0  3  0  0  0  0  0  0
  186.7590  178.0350  144.6960 C   0  0  0  0  0  3  0  0  0  0  0  0
  187.2200  177.6660  145.9720 C   0  0  0  0  0  0  0  0  0  0  0  0
  188.8820  177.3550  143.7300 C   0  0  0  0  0  0  0  0  0  0  0  0
  192.9910  175.8220  138.6260 N   0  0  0  0  0  0  0  0  0  0  0  0
  188.9520  177.3680  140.1030 C   0  0  0  0  0  3  0  0  0  0  0  0
  190.2090  176.7940  139.5300 C   0  0  0  0  0  0  0  0  0  0  0  0
  187.1200  178.2680  141.9160 S   0  0  0  0  0  0  0  0  0  0  0  0
  188.6810  177.5520  141.3900 C   0  0  0  0  0  0  0  0  0  0  0  0
  193.7840  177.1280  140.2180 O   0  0  0  0  0  0  0  0  0  0  0  0
  187.6010  177.8720  143.5860 C   0  0  0  0  0  0  0  0  0  0  0  0
  189.3300  176.9810  145.0010 C   0  0  0  0  0  0  0  0  0  0  0  0
  188.5190  177.1440  146.0990 C   0  0  0  0  0  0  0  0  0  0  0  0
  188.6140  175.8850  137.9140 N   0  0  0  0  0  1  0  0  0  0  0  0
  192.7550  176.6880  139.6310 C   0  0  0  0  0  0  0  0  0  0  0  0
  189.1860  176.6970  147.3420 C   0  0  0  0  0  3  0  0  0  0  0  0
  190.5680  176.2220  146.8770 C   0  0  0  0  0  2  0  0  0  0  0  0
  192.2050  175.1660  137.7570 C   0  0  0  0  0  0  0  0  0  0  0  0
  189.6530  177.2010  142.4590 C   0  0  1  0  0  3  0  0  0  0  0  0
  190.8730  175.3130  137.6720 N   0  0  0  0  0  0  0  0  0  0  0  0
  189.9620  176.0120  138.3760 C   0  0  0  0  0  0  0  0  0  0  0  0
  191.5980  178.0720  141.2430 C   0  0  0  0  0  3  0  0  0  0  0  0
  191.0830  179.1810  143.2830 C   0  0  0  0  0  0  0  0  0  0  0  0
  191.3050  180.0440  144.0950 C   0  0  0  0  0  0  0  0  0  0  0  0
  191.5560  181.0210  145.0140 O   0  0  0  0  0  1  0  0  0  0  0  0
  192.8410  174.2940  136.8120 C   0  0  0  0  0  0  0  0  0  0  0  0
  193.3540  173.5910  136.0490 N   0  0  0  0  0  0  0  0  0  0  0  0
  185.5320  178.9800  146.9680 O   0  0  0  0  0  1  0  0  0  0  0  0
  186.3440  177.8640  147.1620 C   0  0  0  0  0  2  0  0  0  0  0  0
  1 21  1  0  0  0  0
  1 25  1  0  0  0  0
  2 24  1  0  0  0  0
  3 19  1  0  0  0  0
  4  5  2  0  0  0  0
  5 15  1  0  0  0  0
  5 31  1  0  0  0  0
  6 14  1  0  0  0  0
  7 17  1  0  0  0  0
  8 11  2  0  0  0  0
  9  2  2  0  0  0  0
  9  8  1  0  0  0  0
 10 13  1  0  0  0  0
 11 10  1  0  0  0  0
 13  6  2  0  0  0  0
 13  4  1  0  0  0  0
 14  3  2  0  0  0  0
 14 15  1  0  0  0  0
 15 18  2  0  0  0  0
 16 23  1  0  0  0  0
 17  2  1  0  0  0  0
 17 12  2  0  0  0  0
 19 18  1  0  0  0  0
 20  7  2  0  0  0  0
 21 11  1  6  0  0  0
 21  6  1  0  0  0  0
 22 20  1  0  0  0  0
 22 23  2  0  0  0  0
 23  9  1  0  0  0  0
 24  1  2  0  0  0  0
 25 26  3  0  0  0  0
 26 27  1  0  0  0  0
 28 20  1  0  0  0  0
 29 28  3  0  0  0  0
 30 31  1  0  0  0  0
M  END
>  <MODEL>
4

>  <REMARK>
 VINA RESULT:      -6.1      6.795      9.772
  Name = 
  3 active torsions:
  status: ('A' for Active; 'I' for Inactive)
    1  A    between atoms: C_1  and  C_11
    2  A    between atoms: C_2  and  C_26
    3  A    between atoms: C_6  and  C_29
                            x       y       z     vdW  Elec       q    Type
                         _______ _______ _______ _____ _____    ______ ____

>  <TORSDO>
F 3

$$$$
=
 OpenBabel11042410483D

 31 35  0  0  1  0  0  0  0  0999 V2000
  182.7740  178.6520  142.0990 C   0  0  0  0  0  0  0  0  0  0  0  0
  185.1450  178.5220  142.9980 C   0  0  0  0  0  0  0  0  0  0  0  0
  180.7550  175.8750  141.3790 C   0  0  0  0  0  3  0  0  0  0  0  0
  181.0550  178.1060  137.7570 C   0  0  0  0  0  3  0  0  0  0  0  0
  180.0050  177.2040  138.0080 C   0  0  0  0  0  0  0  0  0  0  0  0
  182.0040  177.6110  139.9380 C   0  0  0  0  0  0  0  0  0  0  0  0
  186.8620  177.7480  144.5920 N   0  0  0  0  0  0  0  0  0  0  0  0
  185.2800  179.0610  140.5110 C   0  0  0  0  0  3  0  0  0  0  0  0
  185.9130  178.6130  141.7900 C   0  0  0  0  0  0  0  0  0  0  0  0
  183.4440  179.3810  138.5160 S   0  0  0  0  0  0  0  0  0  0  0  0
  184.0640  178.7480  140.0780 C   0  0  0  0  0  0  0  0  0  0  0  0
  184.8050  178.2020  145.2490 O   0  0  0  0  0  0  0  0  0  0  0  0
  182.0470  178.2960  138.7300 C   0  0  0  0  0  0  0  0  0  0  0  0
  180.9620  176.7090  140.1760 C   0  0  0  0  0  0  0  0  0  0  0  0
  179.9790  176.5190  139.2350 C   0  0  0  0  0  0  0  0  0  0  0  0
  187.9060  178.6280  140.3730 N   0  0  0  0  0  1  0  0  0  0  0  0
  185.6180  178.1630  144.2830 C   0  0  0  0  0  0  0  0  0  0  0  0
  178.9700  175.5350  139.6880 C   0  0  0  0  0  3  0  0  0  0  0  0
  179.4530  175.1180  141.0840 C   0  0  0  0  0  2  0  0  0  0  0  0
  187.9960  177.5950  143.8890 C   0  0  0  0  0  0  0  0  0  0  0  0
  183.1440  177.8830  140.8640 C   0  0  1  0  0  3  0  0  0  0  0  0
  188.1420  177.9260  142.5960 N   0  0  0  0  0  0  0  0  0  0  0  0
  187.3040  178.3930  141.6490 C   0  0  0  0  0  0  0  0  0  0  0  0
  183.7010  178.9200  143.0170 C   0  0  0  0  0  3  0  0  0  0  0  0
  181.4460  179.1770  142.3060 C   0  0  0  0  0  0  0  0  0  0  0  0
  180.3360  179.6150  142.4860 C   0  0  0  0  0  0  0  0  0  0  0  0
  179.0810  180.1100  142.6920 O   0  0  0  0  0  1  0  0  0  0  0  0
  189.1490  177.1010  144.5850 C   0  0  0  0  0  0  0  0  0  0  0  0
  190.0800  176.7030  145.1460 N   0  0  0  0  0  0  0  0  0  0  0  0
  179.4770  177.0790  135.7110 O   0  0  0  0  0  1  0  0  0  0  0  0
  178.9310  177.0180  136.9920 C   0  0  0  0  0  2  0  0  0  0  0  0
  1 25  1  0  0  0  0
  1 24  2  0  0  0  0
  2 24  1  0  0  0  0
  2 17  1  0  0  0  0
  4  5  2  0  0  0  0
  4 13  1  0  0  0  0
  5 15  1  0  0  0  0
  6 14  1  0  0  0  0
  8  9  1  0  0  0  0
  9  2  2  0  0  0  0
 10 13  1  0  0  0  0
 10 11  1  0  0  0  0
 11  8  2  0  0  0  0
 11 21  1  0  0  0  0
 13  6  2  0  0  0  0
 14  3  2  0  0  0  0
 15 18  2  0  0  0  0
 15 14  1  0  0  0  0
 16 23  1  0  0  0  0
 17  7  1  0  0  0  0
 17 12  2  0  0  0  0
 18 19  1  0  0  0  0
 19  3  1  0  0  0  0
 20 28  1  0  0  0  0
 20  7  2  0  0  0  0
 21  6  1  6  0  0  0
 21  1  1  0  0  0  0
 22 20  1  0  0  0  0
 23  9  1  0  0  0  0
 23 22  2  0  0  0  0
 25 26  3  0  0  0  0
 26 27  1  0  0  0  0
 28 29  3  0  0  0  0
 30 31  1  0  0  0  0
 31  5  1  0  0  0  0
M  END
>  <MODEL>
5

>  <REMARK>
 VINA RESULT:      -6.0      1.349      1.442
  Name = 
  3 active torsions:
  status: ('A' for Active; 'I' for Inactive)
    1  A    between atoms: C_1  and  C_11
    2  A    between atoms: C_2  and  C_26
    3  A    between atoms: C_6  and  C_29
                            x       y       z     vdW  Elec       q    Type
                         _______ _______ _______ _____ _____    ______ ____

>  <TORSDO>
F 3

$$$$
=
 OpenBabel11042410483D

 31 35  0  0  1  0  0  0  0  0999 V2000
  187.7970  177.7760  138.6620 C   0  0  0  0  0  0  0  0  0  0  0  0
  187.3630  178.3020  141.1080 C   0  0  0  0  0  0  0  0  0  0  0  0
  186.9550  174.7560  137.0880 C   0  0  0  0  0  3  0  0  0  0  0  0
  191.1610  175.2420  136.5710 C   0  0  0  0  0  3  0  0  0  0  0  0
  190.3820  174.4260  135.7300 C   0  0  1  0  0  3  0  0  0  0  0  0
  189.1750  175.8330  137.8390 C   0  0  0  0  0  0  0  0  0  0  0  0
  185.9280  178.4750  143.1080 N   0  0  0  0  0  0  0  0  0  0  0  0
  189.8350  177.7370  140.8560 C   0  0  0  0  0  3  0  0  0  0  0  0
  188.6200  177.9500  141.7030 C   0  0  0  0  0  0  0  0  0  0  0  0
  191.4250  176.9710  138.7730 S   0  0  0  0  0  0  0  0  0  0  0  0
  189.8780  177.1380  139.6710 C   0  0  0  0  0  0  0  0  0  0  0  0
  185.1540  178.9390  141.0940 O   0  0  0  0  0  0  0  0  0  0  0  0
  190.5430  175.9370  137.6200 C   0  0  0  0  0  0  0  0  0  0  0  0
  188.4090  175.0130  137.0040 C   0  0  0  0  0  0  0  0  0  0  0  0
  188.9990  174.3330  135.9670 C   0  0  0  0  0  0  0  0  0  0  0  0
  190.2540  177.5760  143.4840 N   0  0  0  0  0  1  0  0  0  0  0  0
  186.1500  178.5800  141.7830 C   0  0  0  0  0  0  0  0  0  0  0  0
  188.0140  173.5330  135.2050 C   0  0  0  0  0  3  0  0  0  0  0  0
  186.6810  173.8090  135.9130 C   0  0  0  0  0  3  0  0  0  0  0  0
  186.6990  178.1610  144.1610 C   0  0  0  0  0  0  0  0  0  0  0  0
  188.6590  176.5980  139.0140 C   0  0  1  0  0  3  0  0  0  0  0  0
  188.0190  177.9210  144.0950 N   0  0  0  0  0  0  0  0  0  0  0  0
  188.9070  177.8440  143.0850 C   0  0  0  0  0  0  0  0  0  0  0  0
  187.2480  178.5100  139.6290 C   0  0  0  0  0  3  0  0  0  0  0  0
  187.5860  178.1910  137.2960 C   0  0  0  0  0  0  0  0  0  0  0  0
  187.4140  178.5340  136.1530 C   0  0  0  0  0  0  0  0  0  0  0  0
  187.2210  178.9210  134.8580 O   0  0  0  0  0  1  0  0  0  0  0  0
  186.0820  178.1410  145.4560 C   0  0  0  0  0  0  0  0  0  0  0  0
  185.5840  178.1250  146.5010 N   0  0  0  0  0  0  0  0  0  0  0  0
  192.3410  173.3860  134.9230 O   0  0  0  0  0  1  0  0  0  0  0  0
  191.0250  173.7070  134.5940 C   0  0  0  0  0  2  0  0  0  0  0  0
  1 21  1  0  0  0  0
  1 24  2  0  0  0  0
  2  9  2  0  0  0  0
  2 17  1  0  0  0  0
  4 13  2  0  0  0  0
  5 31  1  6  0  0  0
  5 15  1  0  0  0  0
  5  4  1  0  0  0  0
  7 20  2  0  0  0  0
  8  9  1  0  0  0  0
  9 23  1  0  0  0  0
 10 11  1  0  0  0  0
 11  8  2  0  0  0  0
 12 17  2  0  0  0  0
 13  6  1  0  0  0  0
 13 10  1  0  0  0  0
 14  3  1  0  0  0  0
 14  6  2  0  0  0  0
 15 14  1  0  0  0  0
 17  7  1  0  0  0  0
 18 19  1  0  0  0  0
 18 15  2  0  0  0  0
 19  3  2  0  0  0  0
 20 28  1  0  0  0  0
 21  6  1  6  0  0  0
 21 11  1  0  0  0  0
 22 20  1  0  0  0  0
 23 16  1  0  0  0  0
 23 22  2  0  0  0  0
 24  2  1  0  0  0  0
 25  1  1  0  0  0  0
 26 25  3  0  0  0  0
 27 26  1  0  0  0  0
 28 29  3  0  0  0  0
 31 30  1  0  0  0  0
M  END
>  <MODEL>
6

>  <REMARK>
 VINA RESULT:      -5.8      5.570      6.993
  Name = 
  3 active torsions:
  status: ('A' for Active; 'I' for Inactive)
    1  A    between atoms: C_1  and  C_11
    2  A    between atoms: C_2  and  C_26
    3  A    between atoms: C_6  and  C_29
                            x       y       z     vdW  Elec       q    Type
                         _______ _______ _______ _____ _____    ______ ____

>  <TORSDO>
F 3

$$$$
=
 OpenBabel11042410483D

 31 35  0  0  1  0  0  0  0  0999 V2000
  183.6710  178.4470  140.6250 C   0  0  0  0  0  0  0  0  0  0  0  0
  185.4360  178.4730  142.4500 C   0  0  0  0  0  0  0  0  0  0  0  0
  181.8280  175.6200  139.6680 C   0  0  0  0  0  3  0  0  0  0  0  0
  183.8290  176.9870  136.1580 C   0  0  0  0  0  3  0  0  0  0  0  0
  182.6750  176.1850  136.1100 C   0  0  0  0  0  0  0  0  0  0  0  0
  183.7420  176.9690  138.5860 C   0  0  0  0  0  0  0  0  0  0  0  0
  186.2530  178.0370  144.7370 N   0  0  0  0  0  0  0  0  0  0  0  0
  186.6350  178.4460  140.2020 C   0  0  0  0  0  3  0  0  0  0  0  0
  186.6370  178.2790  141.6880 C   0  0  0  0  0  0  0  0  0  0  0  0
  185.8250  178.3520  137.5960 S   0  0  0  0  0  0  0  0  0  0  0  0
  185.6760  178.0680  139.3640 C   0  0  0  0  0  0  0  0  0  0  0  0
  184.1720  178.6650  144.3610 O   0  0  0  0  0  0  0  0  0  0  0  0
  184.3510  177.3690  137.4030 C   0  0  0  0  0  0  0  0  0  0  0  0
  182.6000  176.1630  138.5290 C   0  0  0  0  0  0  0  0  0  0  0  0
  182.0740  175.7890  137.3170 C   0  0  0  0  0  0  0  0  0  0  0  0
  189.0230  177.9410  141.2750 N   0  0  0  0  0  1  0  0  0  0  0  0
  185.2990  178.3980  143.8570 C   0  0  0  0  0  0  0  0  0  0  0  0
  180.8660  174.9490  137.4800 C   0  0  0  0  0  3  0  0  0  0  0  0
  180.6860  174.8430  139.0000 C   0  0  0  0  0  2  0  0  0  0  0  0
  187.5510  177.7100  144.6240 C   0  0  0  0  0  0  0  0  0  0  0  0
  184.4260  177.4170  139.8370 C   0  0  1  0  0  3  0  0  0  0  0  0
  188.2490  177.7440  143.4770 N   0  0  0  0  0  0  0  0  0  0  0  0
  187.9300  178.0060  142.1950 C   0  0  0  0  0  0  0  0  0  0  0  0
  184.1640  178.8940  141.7790 C   0  0  0  0  0  3  0  0  0  0  0  0
  182.4410  179.0310  140.1450 C   0  0  0  0  0  0  0  0  0  0  0  0
  181.4170  179.5240  139.7420 C   0  0  0  0  0  0  0  0  0  0  0  0
  180.2590  180.0830  139.2850 O   0  0  0  0  0  1  0  0  0  0  0  0
  188.2560  177.3600  145.8230 C   0  0  0  0  0  0  0  0  0  0  0  0
  188.8250  177.0770  146.7910 N   0  0  0  0  0  0  0  0  0  0  0  0
  180.8580  176.4150  134.6210 O   0  0  0  0  0  1  0  0  0  0  0  0
  182.0970  175.7990  134.7910 C   0  0  0  0  0  2  0  0  0  0  0  0
  1 24  2  0  0  0  0
  2 17  1  0  0  0  0
  4 13  1  0  0  0  0
  5  4  2  0  0  0  0
  5 15  1  0  0  0  0
  8  9  1  0  0  0  0
  9 23  1  0  0  0  0
  9  2  2  0  0  0  0
 10 11  1  0  0  0  0
 11 21  1  0  0  0  0
 11  8  2  0  0  0  0
 13 10  1  0  0  0  0
 13  6  2  0  0  0  0
 14  6  1  0  0  0  0
 14  3  2  0  0  0  0
 15 18  2  0  0  0  0
 15 14  1  0  0  0  0
 16 23  1  0  0  0  0
 17 12  2  0  0  0  0
 17  7  1  0  0  0  0
 18 19  1  0  0  0  0
 19  3  1  0  0  0  0
 20  7  2  0  0  0  0
 20 28  1  0  0  0  0
 21  6  1  6  0  0  0
 21  1  1  0  0  0  0
 22 20  1  0  0  0  0
 23 22  2  0  0  0  0
 24  2  1  0  0  0  0
 25  1  1  0  0  0  0
 26 25  3  0  0  0  0
 27 26  1  0  0  0  0
 28 29  3  0  0  0  0
 30 31  1  0  0  0  0
 31  5  1  0  0  0  0
M  END
>  <MODEL>
7

>  <REMARK>
 VINA RESULT:      -5.5      1.509      1.796
  Name = 
  3 active torsions:
  status: ('A' for Active; 'I' for Inactive)
    1  A    between atoms: C_1  and  C_11
    2  A    between atoms: C_2  and  C_26
    3  A    between atoms: C_6  and  C_29
                            x       y       z     vdW  Elec       q    Type
                         _______ _______ _______ _____ _____    ______ ____

>  <TORSDO>
F 3

$$$$
=
 OpenBabel11042410483D

 31 35  0  0  1  0  0  0  0  0999 V2000
  183.7540  178.1530  138.4040 C   0  0  0  0  0  0  0  0  0  0  0  0
  186.1930  178.2570  139.1020 C   0  0  0  0  0  0  0  0  0  0  0  0
  181.4540  175.7540  139.5280 C   0  0  0  0  0  3  0  0  0  0  0  0
  181.5210  175.4450  135.2750 C   0  0  0  0  0  3  0  0  0  0  0  0
  180.4380  174.9950  136.0510 C   0  0  0  0  0  0  0  0  0  0  0  0
  182.6670  176.1710  137.2910 C   0  0  0  0  0  0  0  0  0  0  0  0
  188.0110  178.3210  140.7690 N   0  0  0  0  0  0  0  0  0  0  0  0
  186.0900  177.2510  136.7630 C   0  0  0  0  0  3  0  0  0  0  0  0
  186.8260  177.5380  138.0330 C   0  0  0  0  0  0  0  0  0  0  0  0
  184.0740  176.6030  135.0400 S   0  0  0  0  0  0  0  0  0  0  0  0
  184.8120  176.9060  136.6490 C   0  0  0  0  0  0  0  0  0  0  0  0
  186.0830  179.3310  141.1320 O   0  0  0  0  0  0  0  0  0  0  0  0
  182.6280  176.0290  135.9090 C   0  0  0  0  0  0  0  0  0  0  0  0
  181.5900  175.7130  138.0560 C   0  0  0  0  0  0  0  0  0  0  0  0
  180.4960  175.1470  137.4480 C   0  0  0  0  0  0  0  0  0  0  0  0
  188.6430  176.4810  136.7840 N   0  0  0  0  0  1  0  0  0  0  0  0
  186.7770  178.6410  140.3330 C   0  0  0  0  0  0  0  0  0  0  0  0
  179.4700  174.7410  138.4340 C   0  0  0  0  0  3  0  0  0  0  0  0
  180.0720  175.1410  139.7880 C   0  0  0  0  0  2  0  0  0  0  0  0
  189.0440  177.6480  140.2350 C   0  0  0  0  0  0  0  0  0  0  0  0
  183.9210  176.7750  137.8320 C   0  0  1  0  0  3  0  0  0  0  0  0
  189.0700  177.1560  138.9860 N   0  0  0  0  0  0  0  0  0  0  0  0
  188.1710  177.1000  137.9840 C   0  0  0  0  0  0  0  0  0  0  0  0
  184.7960  178.7760  138.9510 C   0  0  0  0  0  3  0  0  0  0  0  0
  182.5030  178.8690  138.3270 C   0  0  0  0  0  0  0  0  0  0  0  0
  181.4600  179.4720  138.2650 C   0  0  0  0  0  0  0  0  0  0  0  0
  180.2810  180.1570  138.1960 O   0  0  0  0  0  1  0  0  0  0  0  0
  190.2250  177.4980  141.0350 C   0  0  0  0  0  0  0  0  0  0  0  0
  191.1780  177.3770  141.6800 N   0  0  0  0  0  0  0  0  0  0  0  0
  179.5840  173.1720  134.8200 O   0  0  0  0  0  1  0  0  0  0  0  0
  179.2450  174.4010  135.3840 C   0  0  0  0  0  2  0  0  0  0  0  0
  1 24  2  0  0  0  0
  2 17  1  0  0  0  0
  3 19  1  0  0  0  0
  4 13  1  0  0  0  0
  4  5  2  0  0  0  0
  5 15  1  0  0  0  0
  6 21  1  0  0  0  0
  6 14  1  0  0  0  0
  8  9  1  0  0  0  0
  9  2  2  0  0  0  0
 10 13  1  0  0  0  0
 10 11  1  0  0  0  0
 11  8  2  0  0  0  0
 13  6  2  0  0  0  0
 14  3  2  0  0  0  0
 15 14  1  0  0  0  0
 15 18  2  0  0  0  0
 16 23  1  0  0  0  0
 17  7  1  0  0  0  0
 17 12  2  0  0  0  0
 18 19  1  0  0  0  0
 20  7  2  0  0  0  0
 20 28  1  0  0  0  0
 21 11  1  6  0  0  0
 21  1  1  0  0  0  0
 22 20  1  0  0  0  0
 23  9  1  0  0  0  0
 23 22  2  0  0  0  0
 24  2  1  0  0  0  0
 25  1  1  0  0  0  0
 26 25  3  0  0  0  0
 27 26  1  0  0  0  0
 28 29  3  0  0  0  0
 30 31  1  0  0  0  0
 31  5  1  0  0  0  0
M  END
>  <MODEL>
8

>  <REMARK>
 VINA RESULT:      -5.4      3.335      4.060
  Name = 
  3 active torsions:
  status: ('A' for Active; 'I' for Inactive)
    1  A    between atoms: C_1  and  C_11
    2  A    between atoms: C_2  and  C_26
    3  A    between atoms: C_6  and  C_29
                            x       y       z     vdW  Elec       q    Type
                         _______ _______ _______ _____ _____    ______ ____

>  <TORSDO>
F 3

$$$$
=
 OpenBabel11042410483D

 31 35  0  0  1  0  0  0  0  0999 V2000
  184.7890  178.5590  138.5990 C   0  0  0  0  0  0  0  0  0  0  0  0
  186.9240  177.4280  137.8190 C   0  0  0  0  0  0  0  0  0  0  0  0
  183.6580  178.6170  141.9190 C   0  0  0  0  0  3  0  0  0  0  0  0
  180.5410  176.8260  139.6250 C   0  0  0  0  0  3  0  0  0  0  0  0
  180.3120  177.4300  140.8750 C   0  0  0  0  0  0  0  0  0  0  0  0
  182.8990  177.3880  139.7830 C   0  0  0  0  0  0  0  0  0  0  0  0
  189.3500  176.9870  137.9120 N   0  0  0  0  0  0  0  0  0  0  0  0
  184.9660  175.9270  137.1830 C   0  0  0  0  0  3  0  0  0  0  0  0
  186.4300  176.1500  137.3910 C   0  0  0  0  0  0  0  0  0  0  0  0
  182.2610  176.0470  137.5410 S   0  0  0  0  0  0  0  0  0  0  0  0
  183.9780  176.4020  137.9340 C   0  0  0  0  0  0  0  0  0  0  0  0
  188.5300  178.9930  138.3260 O   0  0  0  0  0  0  0  0  0  0  0  0
  181.8390  176.8120  139.0940 C   0  0  0  0  0  0  0  0  0  0  0  0
  182.6650  177.9780  141.0290 C   0  0  0  0  0  0  0  0  0  0  0  0
  181.3970  178.0060  141.5570 C   0  0  0  0  0  0  0  0  0  0  0  0
  186.5210  173.8580  136.5450 N   0  0  0  0  0  1  0  0  0  0  0  0
  188.2770  177.7970  138.0080 C   0  0  0  0  0  0  0  0  0  0  0  0
  181.3680  178.6820  142.8740 C   0  0  0  0  0  3  0  0  0  0  0  0
  182.8250  179.0960  143.1160 C   0  0  0  0  0  2  0  0  0  0  0  0
  189.5180  175.6960  137.5820 C   0  0  0  0  0  0  0  0  0  0  0  0
  184.2310  177.2660  139.1170 C   0  0  1  0  0  3  0  0  0  0  0  0
  188.5330  174.8790  137.1750 N   0  0  0  0  0  0  0  0  0  0  0  0
  187.1990  175.0150  137.0420 C   0  0  0  0  0  0  0  0  0  0  0  0
  185.9890  178.5810  138.0210 C   0  0  0  0  0  3  0  0  0  0  0  0
  184.0400  179.7920  138.6460 C   0  0  0  0  0  0  0  0  0  0  0  0
  183.4090  180.8190  138.6810 C   0  0  0  0  0  0  0  0  0  0  0  0
  182.6950  181.9820  138.7190 O   0  0  0  0  0  1  0  0  0  0  0  0
  190.8520  175.1710  137.6070 C   0  0  0  0  0  0  0  0  0  0  0  0
  191.9290  174.7460  137.6270 N   0  0  0  0  0  0  0  0  0  0  0  0
  178.9340  178.1670  142.6430 O   0  0  0  0  0  1  0  0  0  0  0  0
  178.9310  177.4760  141.4330 C   0  0  0  0  0  2  0  0  0  0  0  0
  1 25  1  0  0  0  0
  1 21  1  0  0  0  0
  2 17  1  0  0  0  0
  2 24  1  0  0  0  0
  3 19  1  0  0  0  0
  4  5  2  0  0  0  0
  5 31  1  0  0  0  0
  5 15  1  0  0  0  0
  6 14  1  0  0  0  0
  7 17  1  0  0  0  0
  8  9  1  0  0  0  0
  8 11  2  0  0  0  0
  9  2  2  0  0  0  0
 10 11  1  0  0  0  0
 10 13  1  0  0  0  0
 13  4  1  0  0  0  0
 13  6  2  0  0  0  0
 14 15  1  0  0  0  0
 14  3  2  0  0  0  0
 15 18  2  0  0  0  0
 16 23  1  0  0  0  0
 17 12  2  0  0  0  0
 18 19  1  0  0  0  0
 20 28  1  0  0  0  0
 20  7  2  0  0  0  0
 21 11  1  6  0  0  0
 21  6  1  0  0  0  0
 22 20  1  0  0  0  0
 23 22  2  0  0  0  0
 23  9  1  0  0  0  0
 24  1  2  0  0  0  0
 25 26  3  0  0  0  0
 26 27  1  0  0  0  0
 28 29  3  0  0  0  0
 31 30  1  0  0  0  0
M  END
>  <MODEL>
9

>  <REMARK>
 VINA RESULT:      -4.4      4.001      5.968
  Name = 
  3 active torsions:
  status: ('A' for Active; 'I' for Inactive)
    1  A    between atoms: C_1  and  C_11
    2  A    between atoms: C_2  and  C_26
    3  A    between atoms: C_6  and  C_29
                            x       y       z     vdW  Elec       q    Type
                         _______ _______ _______ _____ _____    ______ ____

>  <TORSDO>
F 3

$$$$
