=
 OpenBabel11042412483D

 66 71  0  0  1  0  0  0  0  0999 V2000
  189.7030  176.9710  137.9970 C   0  0  1  0  0  3  0  0  0  0  0  0
  189.5050  178.0030  139.0770 C   0  0  0  0  0  0  0  0  0  0  0  0
  189.0720  179.1120  138.8130 O   0  0  0  0  0  0  0  0  0  0  0  0
  189.9000  177.6890  140.4870 C   0  0  0  0  0  2  0  0  0  0  0  0
  188.9280  178.2620  141.4050 N   0  0  0  0  0  2  0  0  0  0  0  0
  189.5540  178.3530  142.7220 C   0  0  0  0  0  2  0  0  0  0  0  0
  188.9890  177.9190  145.7030 N   0  0  0  0  0  0  0  0  0  0  0  0
  190.1320  177.1780  147.6540 C   0  0  0  0  0  3  0  0  0  0  0  0
  186.8760  177.0590  143.4900 C   0  0  0  0  0  2  0  0  0  0  0  0
  190.9860  176.4010  146.8560 C   0  0  0  0  0  0  0  0  0  0  0  0
  188.1440  176.2650  143.1730 C   0  0  0  0  0  2  0  0  0  0  0  0
  189.7530  177.1240  144.9100 C   0  0  0  0  0  0  0  0  0  0  0  0
  189.4570  177.0110  143.4500 C   0  0  2  0  0  3  0  0  0  0  0  0
  187.0310  179.3230  147.4640 N   0  0  0  0  0  2  0  0  0  0  0  0
  188.2370  178.7100  147.8690 N   0  0  0  0  0  2  0  0  0  0  0  0
  189.1140  177.9260  147.0520 C   0  0  0  0  0  0  0  0  0  0  0  0
  190.7740  176.3560  145.4730 C   0  0  0  0  0  3  0  0  0  0  0  0
  186.0990  178.8890  146.4560 C   0  0  0  0  0  3  0  0  0  0  0  0
  186.4100  176.8250  144.8870 C   0  0  0  0  0  3  0  0  0  0  0  0
  186.2540  177.8400  145.6920 C   0  0  0  0  0  0  0  0  0  0  0  0
  192.9300  176.3780  148.2230 F   0  0  0  0  0  0  0  0  0  0  0  0
  191.5480  174.6070  148.2770 F   0  0  0  0  0  0  0  0  0  0  0  0
  192.8320  174.9800  146.4590 F   0  0  0  0  0  0  0  0  0  0  0  0
  192.0890  175.5840  147.4640 C   0  0  0  0  0  0  0  0  0  0  0  0
  191.0330  176.2130  138.1050 C   0  0  1  0  0  3  0  0  0  0  0  0
  190.8610  174.7080  138.0100 C   0  0  0  0  0  1  0  0  0  0  0  0
  192.0420  176.7090  137.0760 C   0  0  0  0  0  2  0  0  0  0  0  0
  192.6460  175.5780  136.3800 N   0  0  0  0  0  2  0  0  0  0  0  0
  194.0920  175.7660  136.3810 C   0  0  1  0  0  3  0  0  0  0  0  0
  194.8230  174.4580  136.0380 C   0  0  2  0  0  3  0  0  0  0  0  0
  196.1130  172.4150  136.9190 C   0  0  1  0  0  3  0  0  0  0  0  0
  193.7360  170.3240  135.6920 O   0  0  0  0  0  0  0  0  0  0  0  0
  196.6600  174.6680  137.5740 O   0  0  0  0  0  1  0  0  0  0  0  0
  193.1130  172.5580  136.0720 C   0  0  0  0  0  2  0  0  0  0  0  0
  195.0640  171.3830  137.3170 C   0  0  0  0  0  2  0  0  0  0  0  0
  193.9210  173.5230  135.2180 C   0  0  0  0  0  2  0  0  0  0  0  0
  195.5980  173.8280  137.2200 C   0  0  1  0  0  3  0  0  0  0  0  0
  193.9400  171.3400  136.3350 C   0  0  0  0  0  0  0  0  0  0  0  0
  197.2810  172.1540  137.6400 O   0  0  0  0  0  1  0  0  0  0  0  0
  194.4970  176.9460  135.4970 C   0  0  0  0  0  2  0  0  0  0  0  0
  195.8790  177.1320  135.5090 O   0  0  0  0  0  1  0  0  0  0  0  0
  188.4800  176.0950  137.6900 C   0  0  0  0  0  2  0  0  0  0  0  0
  188.1000  176.1930  136.2890 N   0  0  0  0  0  2  0  0  0  0  0  0
  186.7480  176.0810  135.8510 C   0  0  0  0  0  0  0  0  0  0  0  0
  186.4950  176.1170  134.6160 O   0  0  0  0  0  0  0  0  0  0  0  0
  185.6200  175.9560  136.8300 C   0  0  0  0  0  2  0  0  0  0  0  0
  184.3290  176.4240  136.2350 C   0  0  0  0  0  0  0  0  0  0  0  0
  184.3390  177.2940  135.3210 O   0  0  0  0  0  0  0  0  0  0  0  0
  182.9610  174.5440  136.7300 O   0  0  0  0  0  0  0  0  0  0  0  0
  183.0540  175.8000  136.6450 C   0  0  0  0  0  0  0  0  0  0  0  0
  181.8620  176.6560  136.9670 C   0  0  2  0  0  3  0  0  0  0  0  0
  181.9190  177.2040  138.3570 C   0  0  0  0  0  0  0  0  0  0  0  0
  182.1260  178.2940  140.9380 C   0  0  0  0  0  0  0  0  0  0  0  0
  181.0020  178.5640  140.1440 C   0  0  0  0  0  3  0  0  0  0  0  0
  183.0360  176.9230  139.1510 C   0  0  0  0  0  3  0  0  0  0  0  0
  180.8980  178.0230  138.8590 C   0  0  0  0  0  3  0  0  0  0  0  0
  183.1440  177.4670  140.4340 C   0  0  0  0  0  3  0  0  0  0  0  0
  182.2400  178.9200  142.2980 C   0  0  1  0  0  0  0  0  0  0  0  0
  182.8530  178.1310  143.3670 C   0  0  2  0  0  3  0  0  0  0  0  0
  182.8300  178.8340  144.7070 C   0  0  0  0  0  2  0  0  0  0  0  0
  183.6200  179.2300  142.7260 N   0  0  2  0  0  0  0  0  0  0  0  0
  183.6110  179.9250  144.0110 C   0  0  0  0  0  2  0  0  0  0  0  0
  181.2800  179.8830  142.6570 O   0  0  0  0  0  1  0  0  0  0  0  0
  180.6670  175.9540  136.7650 O   0  0  0  0  0  0  0  0  0  0  0  0
  180.5350  175.8820  135.4560 O   0  0  0  0  0  0  0  0  0  0  0  0
  179.7350  174.7540  135.2420 C   0  0  0  0  0  1  0  0  0  0  0  0
  1 42  1  1  0  0  0
  1 25  1  0  0  0  0
  1  2  1  0  0  0  0
  2  4  1  0  0  0  0
  3  2  2  0  0  0  0
  4  5  1  0  0  0  0
  5  6  1  0  0  0  0
  7 16  2  0  0  0  0
  9 19  1  0  0  0  0
 10 24  1  0  0  0  0
 10  8  2  0  0  0  0
 11 13  1  0  0  0  0
 11  9  1  0  0  0  0
 12 17  2  0  0  0  0
 12  7  1  0  0  0  0
 13  6  1  1  0  0  0
 13 12  1  0  0  0  0
 14 15  1  0  0  0  0
 16  8  1  0  0  0  0
 16 15  1  0  0  0  0
 17 10  1  0  0  0  0
 18 14  1  0  0  0  0
 19 20  2  0  0  0  0
 20 18  2  0  0  0  0
 23 24  1  0  0  0  0
 24 21  1  0  0  0  0
 24 22  1  0  0  0  0
 25 26  1  6  0  0  0
 27 25  1  0  0  0  0
 28 29  1  0  0  0  0
 28 27  1  0  0  0  0
 29 40  1  6  0  0  0
 30 29  1  1  0  0  0
 30 37  1  0  0  0  0
 31 37  1  0  0  0  0
 31 35  1  0  0  0  0
 31 39  1  1  0  0  0
 32 38  2  0  0  0  0
 34 38  1  0  0  0  0
 36 30  1  0  0  0  0
 36 34  1  0  0  0  0
 37 33  1  6  0  0  0
 38 35  1  0  0  0  0
 40 41  1  0  0  0  0
 43 42  1  0  0  0  0
 44 43  1  0  0  0  0
 44 46  1  0  0  0  0
 45 44  2  0  0  0  0
 47 50  1  0  0  0  0
 47 46  1  0  0  0  0
 48 47  2  0  0  0  0
 50 49  2  0  0  0  0
 51 50  1  1  0  0  0
 51 52  1  0  0  0  0
 52 56  2  0  0  0  0
 52 55  1  0  0  0  0
 53 58  1  0  0  0  0
 54 53  2  0  0  0  0
 55 57  2  0  0  0  0
 56 54  1  0  0  0  0
 57 53  1  0  0  0  0
 58 63  1  1  0  0  0
 58 61  1  0  0  0  0
 58 59  1  0  0  0  0
 59 60  1  1  0  0  0
 61 59  1  0  0  0  0
 61 62  1  1  0  0  0
 62 60  1  0  0  0  0
 64 51  1  0  0  0  0
 65 64  1  0  0  0  0
 66 65  1  0  0  0  0
M  END
>  <MODEL>
1

>  <REMARK>
 VINA RESULT:      -7.1      0.000      0.000
  Name = 
  22 active torsions:
  status: ('A' for Active; 'I' for Inactive)
    1  A    between atoms: C_1  and  C_34
    2  A    between atoms: N_3  and  C_36
    3  A    between atoms: C_4  and  C_6
    4  A    between atoms: O_5  and  C_34
    5  A    between atoms: O_5  and  O_41
    6  A    between atoms: C_9  and  C_26
    7  A    between atoms: C_9  and  N_60
    8  A    between atoms: CA_10  and  C_14
    9  A    between atoms: CA_10  and  C_15
   10  A    between atoms: CA_10  and  N_64
   11  A    between atoms: C_11  and  C_25
   12  A    between atoms: C_11  and  N_64
   13  A    between atoms: C_13  and  C_58
   14  A    between atoms: C_17  and  C_30
   15  A    between atoms: C_17  and  C_53
   16  A    between atoms: C_21  and  C_24
   17  A    between atoms: C_21  and  C_34
   18  A    between atoms: C_24  and  C_47
   19  A    between atoms: C_25  and  C_30
   20  A    between atoms: C_30  and  C_36
   21  A    between atoms: C_31  and  C_47
   22  A    between atoms: C_53  and  N_60
                            x       y       z     vdW  Elec       q    Type
                         _______ _______ _______ _____ _____    ______ ____

>  <TORSDO>
F 22

$$$$
=
 OpenBabel11042412483D

 66 71  0  0  1  0  0  0  0  0999 V2000
  185.0800  178.4490  143.2920 C   0  0  1  0  0  3  0  0  0  0  0  0
  186.3290  178.0410  142.5560 C   0  0  0  0  0  0  0  0  0  0  0  0
  186.8600  176.9640  142.7700 O   0  0  0  0  0  0  0  0  0  0  0  0
  186.9690  178.9910  141.5920 C   0  0  0  0  0  2  0  0  0  0  0  0
  187.9830  178.2920  140.8170 N   0  0  0  0  0  2  0  0  0  0  0  0
  187.4300  178.0240  139.4920 C   0  0  0  0  0  2  0  0  0  0  0  0
  188.8040  175.9120  137.7470 N   0  0  0  0  0  0  0  0  0  0  0  0
  190.9520  174.9210  137.4910 C   0  0  0  0  0  3  0  0  0  0  0  0
  186.7900  178.0230  136.4860 C   0  0  0  0  0  2  0  0  0  0  0  0
  191.5480  176.0870  137.9940 C   0  0  0  0  0  0  0  0  0  0  0  0
  187.9090  178.8540  137.1170 C   0  0  0  0  0  2  0  0  0  0  0  0
  189.3540  177.0790  138.1710 C   0  0  0  0  0  0  0  0  0  0  0  0
  188.4890  178.2730  138.4150 C   0  0  2  0  0  3  0  0  0  0  0  0
  187.6150  173.5230  136.4100 N   0  0  0  0  0  2  0  0  0  0  0  0
  188.9550  173.6700  136.8330 N   0  0  0  0  0  2  0  0  0  0  0  0
  189.5600  174.8580  137.3560 C   0  0  0  0  0  0  0  0  0  0  0  0
  190.7390  177.1850  138.3110 C   0  0  0  0  0  3  0  0  0  0  0  0
  186.7420  174.5120  135.8360 C   0  0  0  0  0  3  0  0  0  0  0  0
  187.3200  177.0370  135.5010 C   0  0  0  0  0  3  0  0  0  0  0  0
  187.0500  175.7690  135.6510 C   0  0  0  0  0  0  0  0  0  0  0  0
  193.6270  174.9430  138.1260 F   0  0  0  0  0  0  0  0  0  0  0  0
  193.5590  176.9530  137.1230 F   0  0  0  0  0  0  0  0  0  0  0  0
  193.3360  176.8020  139.3640 F   0  0  0  0  0  0  0  0  0  0  0  0
  193.0370  176.1940  138.1530 C   0  0  0  0  0  0  0  0  0  0  0  0
  185.3400  178.9450  144.7210 C   0  0  1  0  0  3  0  0  0  0  0  0
  184.4210  178.3030  145.7440 C   0  0  0  0  0  1  0  0  0  0  0  0
  186.8010  178.7640  145.1160 C   0  0  0  0  0  2  0  0  0  0  0  0
  187.0230  177.4110  145.6150 N   0  0  0  0  0  2  0  0  0  0  0  0
  187.9290  177.4930  146.7540 C   0  0  1  0  0  3  0  0  0  0  0  0
  189.3830  177.6860  146.2950 C   0  0  2  0  0  3  0  0  0  0  0  0
  191.7780  176.7480  146.2640 C   0  0  1  0  0  3  0  0  0  0  0  0
  191.7080  176.5480  142.8760 O   0  0  0  0  0  0  0  0  0  0  0  0
  190.4880  176.9300  148.2910 O   0  0  0  0  0  1  0  0  0  0  0  0
  189.6420  176.6020  143.9940 C   0  0  0  0  0  2  0  0  0  0  0  0
  191.8440  175.7760  145.0930 C   0  0  0  0  0  2  0  0  0  0  0  0
  189.4550  177.8940  144.7740 C   0  0  0  0  0  2  0  0  0  0  0  0
  190.3900  176.6890  146.9160 C   0  0  1  0  0  3  0  0  0  0  0  0
  191.1030  176.3000  143.9050 C   0  0  0  0  0  0  0  0  0  0  0  0
  192.7680  176.3940  147.1850 O   0  0  0  0  0  1  0  0  0  0  0  0
  187.4580  178.5410  147.7610 C   0  0  0  0  0  2  0  0  0  0  0  0
  187.6380  178.0970  149.0710 O   0  0  0  0  0  1  0  0  0  0  0  0
  184.0850  179.2940  142.4840 C   0  0  0  0  0  2  0  0  0  0  0  0
  182.7130  179.0130  142.8780 N   0  0  0  0  0  2  0  0  0  0  0  0
  181.7110  178.6210  141.9440 C   0  0  0  0  0  0  0  0  0  0  0  0
  180.5270  178.4490  142.3440 O   0  0  0  0  0  0  0  0  0  0  0  0
  182.0430  178.3750  140.5030 C   0  0  0  0  0  2  0  0  0  0  0  0
  180.9390  177.6410  139.8070 C   0  0  0  0  0  0  0  0  0  0  0  0
  180.6850  176.4470  140.1220 O   0  0  0  0  0  0  0  0  0  0  0  0
  179.0180  178.9040  139.2000 O   0  0  0  0  0  0  0  0  0  0  0  0
  180.0860  178.3430  138.8260 C   0  0  0  0  0  0  0  0  0  0  0  0
  180.4850  178.3970  137.3790 C   0  0  2  0  0  3  0  0  0  0  0  0
  181.1210  177.1250  136.9190 C   0  0  0  0  0  0  0  0  0  0  0  0
  182.3840  174.7340  136.1570 C   0  0  0  0  0  0  0  0  0  0  0  0
  180.9960  174.7700  136.3530 C   0  0  0  0  0  3  0  0  0  0  0  0
  182.5060  177.0950  136.7130 C   0  0  0  0  0  3  0  0  0  0  0  0
  180.3670  175.9590  136.7340 C   0  0  0  0  0  3  0  0  0  0  0  0
  183.1360  175.9060  136.3380 C   0  0  0  0  0  3  0  0  0  0  0  0
  183.0470  173.4370  135.7920 C   0  0  1  0  0  0  0  0  0  0  0  0
  183.4530  172.5450  136.8790 C   0  0  2  0  0  3  0  0  0  0  0  0
  184.1870  171.3150  136.3900 C   0  0  0  0  0  2  0  0  0  0  0  0
  182.2450  172.2290  136.0750 N   0  0  2  0  0  0  0  0  0  0  0  0
  182.9340  171.0340  135.5930 C   0  0  0  0  0  2  0  0  0  0  0  0
  183.7800  173.3910  134.5940 O   0  0  0  0  0  1  0  0  0  0  0  0
  181.3300  179.4860  137.1280 O   0  0  0  0  0  0  0  0  0  0  0  0
  180.5540  180.3940  136.5710 O   0  0  0  0  0  0  0  0  0  0  0  0
  180.8270  180.3030  135.2020 C   0  0  0  0  0  1  0  0  0  0  0  0
  1 42  1  6  0  0  0
  1 25  1  0  0  0  0
  2  3  2  0  0  0  0
  2  1  1  0  0  0  0
  4  2  1  0  0  0  0
  5  4  1  0  0  0  0
  6  5  1  0  0  0  0
  7 12  1  0  0  0  0
  8 10  2  0  0  0  0
  9 11  1  0  0  0  0
 10 24  1  0  0  0  0
 10 17  1  0  0  0  0
 11 13  1  0  0  0  0
 12 17  2  0  0  0  0
 12 13  1  0  0  0  0
 13  6  1  1  0  0  0
 14 15  1  0  0  0  0
 15 16  1  0  0  0  0
 16  8  1  0  0  0  0
 16  7  2  0  0  0  0
 18 14  1  0  0  0  0
 19 20  2  0  0  0  0
 19  9  1  0  0  0  0
 20 18  2  0  0  0  0
 21 24  1  0  0  0  0
 22 24  1  0  0  0  0
 24 23  1  0  0  0  0
 25 27  1  0  0  0  0
 25 26  1  1  0  0  0
 27 28  1  0  0  0  0
 28 29  1  0  0  0  0
 29 40  1  1  0  0  0
 30 29  1  6  0  0  0
 30 37  1  0  0  0  0
 31 37  1  0  0  0  0
 31 39  1  1  0  0  0
 32 38  2  0  0  0  0
 34 36  1  0  0  0  0
 35 31  1  0  0  0  0
 36 30  1  0  0  0  0
 37 33  1  1  0  0  0
 38 34  1  0  0  0  0
 38 35  1  0  0  0  0
 40 41  1  0  0  0  0
 42 43  1  0  0  0  0
 44 45  2  0  0  0  0
 44 43  1  0  0  0  0
 46 44  1  0  0  0  0
 47 48  2  0  0  0  0
 47 46  1  0  0  0  0
 50 49  2  0  0  0  0
 50 47  1  0  0  0  0
 51 64  1  1  0  0  0
 51 50  1  0  0  0  0
 52 51  1  0  0  0  0
 53 57  2  0  0  0  0
 53 54  1  0  0  0  0
 54 56  2  0  0  0  0
 55 52  2  0  0  0  0
 56 52  1  0  0  0  0
 57 55  1  0  0  0  0
 58 63  1  6  0  0  0
 58 61  1  0  0  0  0
 58 53  1  0  0  0  0
 58 59  1  0  0  0  0
 59 60  1  6  0  0  0
 61 62  1  6  0  0  0
 61 59  1  0  0  0  0
 62 60  1  0  0  0  0
 65 64  1  0  0  0  0
 66 65  1  0  0  0  0
M  END
>  <MODEL>
2

>  <REMARK>
 VINA RESULT:      -7.0      3.621      8.861
  Name = 
  22 active torsions:
  status: ('A' for Active; 'I' for Inactive)
    1  A    between atoms: C_1  and  C_34
    2  A    between atoms: N_3  and  C_36
    3  A    between atoms: C_4  and  C_6
    4  A    between atoms: O_5  and  C_34
    5  A    between atoms: O_5  and  O_41
    6  A    between atoms: C_9  and  C_26
    7  A    between atoms: C_9  and  N_60
    8  A    between atoms: CA_10  and  C_14
    9  A    between atoms: CA_10  and  C_15
   10  A    between atoms: CA_10  and  N_64
   11  A    between atoms: C_11  and  C_25
   12  A    between atoms: C_11  and  N_64
   13  A    between atoms: C_13  and  C_58
   14  A    between atoms: C_17  and  C_30
   15  A    between atoms: C_17  and  C_53
   16  A    between atoms: C_21  and  C_24
   17  A    between atoms: C_21  and  C_34
   18  A    between atoms: C_24  and  C_47
   19  A    between atoms: C_25  and  C_30
   20  A    between atoms: C_30  and  C_36
   21  A    between atoms: C_31  and  C_47
   22  A    between atoms: C_53  and  N_60
                            x       y       z     vdW  Elec       q    Type
                         _______ _______ _______ _____ _____    ______ ____

>  <TORSDO>
F 22

$$$$
=
 OpenBabel11042412483D

 66 71  0  0  1  0  0  0  0  0999 V2000
  190.1400  176.0430  137.1120 C   0  0  1  0  0  3  0  0  0  0  0  0
  190.3640  176.7600  138.4180 C   0  0  0  0  0  0  0  0  0  0  0  0
  191.2600  177.5790  138.5370 O   0  0  0  0  0  0  0  0  0  0  0  0
  189.5200  176.4230  139.6070 C   0  0  0  0  0  2  0  0  0  0  0  0
  190.3700  176.2240  140.7710 N   0  0  0  0  0  2  0  0  0  0  0  0
  189.5080  176.1350  141.9460 C   0  0  0  0  0  2  0  0  0  0  0  0
  188.8480  177.0100  144.8080 N   0  0  0  0  0  0  0  0  0  0  0  0
  186.9540  177.6690  146.0890 C   0  0  0  0  0  3  0  0  0  0  0  0
  191.4350  178.0980  143.3160 C   0  0  0  0  0  2  0  0  0  0  0  0
  186.3290  178.1330  144.9220 C   0  0  0  0  0  0  0  0  0  0  0  0
  190.2520  178.5330  142.4500 C   0  0  0  0  0  2  0  0  0  0  0  0
  188.3000  177.5120  143.6730 C   0  0  0  0  0  0  0  0  0  0  0  0
  189.0860  177.5340  142.4020 C   0  0  2  0  0  3  0  0  0  0  0  0
  190.2400  176.3050  147.3530 N   0  0  0  0  0  2  0  0  0  0  0  0
  188.8800  176.6570  147.2080 N   0  0  0  0  0  2  0  0  0  0  0  0
  188.2400  177.1200  146.0140 C   0  0  0  0  0  0  0  0  0  0  0  0
  187.0230  178.0760  143.7070 C   0  0  0  0  0  3  0  0  0  0  0  0
  191.3820  176.8330  146.6550 C   0  0  0  0  0  3  0  0  0  0  0  0
  191.3030  178.5850  144.7190 C   0  0  0  0  0  3  0  0  0  0  0  0
  191.3330  177.7280  145.7030 C   0  0  0  0  0  0  0  0  0  0  0  0
  184.9830  180.0680  144.6170 F   0  0  0  0  0  0  0  0  0  0  0  0
  184.1330  178.0610  144.0690 F   0  0  0  0  0  0  0  0  0  0  0  0
  184.4250  178.6080  146.2390 F   0  0  0  0  0  0  0  0  0  0  0  0
  184.9510  178.7280  144.9610 C   0  0  0  0  0  0  0  0  0  0  0  0
  190.8660  174.6950  137.0160 C   0  0  1  0  0  3  0  0  0  0  0  0
  190.9300  174.1600  135.5970 C   0  0  0  0  0  1  0  0  0  0  0  0
  192.2580  174.7670  137.6310 C   0  0  0  0  0  2  0  0  0  0  0  0
  193.2370  174.1670  136.7300 N   0  0  0  0  0  2  0  0  0  0  0  0
  194.3820  175.0650  136.6430 C   0  0  1  0  0  3  0  0  0  0  0  0
  195.6180  174.3390  136.0880 C   0  0  2  0  0  3  0  0  0  0  0  0
  197.9380  173.3460  136.5830 C   0  0  1  0  0  3  0  0  0  0  0  0
  196.8610  170.2560  135.6770 O   0  0  0  0  0  0  0  0  0  0  0  0
  197.3100  175.5670  137.2730 O   0  0  0  0  0  1  0  0  0  0  0  0
  195.2280  171.8220  136.3100 C   0  0  0  0  0  2  0  0  0  0  0  0
  197.6990  171.9310  137.0980 C   0  0  0  0  0  2  0  0  0  0  0  0
  195.2170  173.0310  135.3880 C   0  0  0  0  0  2  0  0  0  0  0  0
  196.8160  174.2750  137.0650 C   0  0  1  0  0  3  0  0  0  0  0  0
  196.6090  171.2490  136.3370 C   0  0  0  0  0  0  0  0  0  0  0  0
  199.1760  173.7830  137.0600 O   0  0  0  0  0  1  0  0  0  0  0  0
  194.0260  176.3410  135.8820 C   0  0  0  0  0  2  0  0  0  0  0  0
  193.5750  176.0490  134.5940 O   0  0  0  0  0  1  0  0  0  0  0  0
  188.6900  176.0360  136.6050 C   0  0  0  0  0  2  0  0  0  0  0  0
  187.9800  174.8510  137.0580 N   0  0  0  0  0  2  0  0  0  0  0  0
  186.6110  174.6070  136.7390 C   0  0  0  0  0  0  0  0  0  0  0  0
  186.0390  173.5880  137.2120 O   0  0  0  0  0  0  0  0  0  0  0  0
  185.8500  175.5200  135.8260 C   0  0  0  0  0  2  0  0  0  0  0  0
  184.5540  174.9060  135.3980 C   0  0  0  0  0  0  0  0  0  0  0  0
  184.5590  173.8600  134.6930 O   0  0  0  0  0  0  0  0  0  0  0  0
  182.8560  176.5690  135.4410 O   0  0  0  0  0  0  0  0  0  0  0  0
  183.2740  175.4620  135.8820 C   0  0  0  0  0  0  0  0  0  0  0  0
  182.4590  174.7130  136.8970 C   0  0  2  0  0  3  0  0  0  0  0  0
  181.9720  175.6000  137.9970 C   0  0  0  0  0  0  0  0  0  0  0  0
  181.0260  177.1680  140.1280 C   0  0  0  0  0  0  0  0  0  0  0  0
  182.3710  177.2420  139.7370 C   0  0  0  0  0  3  0  0  0  0  0  0
  180.6260  175.5330  138.3780 C   0  0  0  0  0  3  0  0  0  0  0  0
  182.8430  176.4610  138.6780 C   0  0  0  0  0  3  0  0  0  0  0  0
  180.1550  176.3090  139.4400 C   0  0  0  0  0  3  0  0  0  0  0  0
  180.5490  177.9810  141.2970 C   0  0  1  0  0  0  0  0  0  0  0  0
  181.5540  178.6610  142.1160 C   0  0  2  0  0  3  0  0  0  0  0  0
  180.9590  179.3720  143.3110 C   0  0  0  0  0  2  0  0  0  0  0  0
  180.7320  179.4400  141.1550 N   0  0  2  0  0  0  0  0  0  0  0  0
  180.1470  180.1410  142.2950 C   0  0  0  0  0  2  0  0  0  0  0  0
  179.3470  177.5950  141.9160 O   0  0  0  0  0  1  0  0  0  0  0  0
  183.1750  173.6300  137.4220 O   0  0  0  0  0  0  0  0  0  0  0  0
  182.7990  172.5940  136.6980 O   0  0  0  0  0  0  0  0  0  0  0  0
  181.5220  172.2750  137.1730 C   0  0  0  0  0  1  0  0  0  0  0  0
  1 42  1  1  0  0  0
  1  2  1  0  0  0  0
  2  3  2  0  0  0  0
  2  4  1  0  0  0  0
  4  5  1  0  0  0  0
  5  6  1  0  0  0  0
  7 16  2  0  0  0  0
  9 19  1  0  0  0  0
 10 24  1  0  0  0  0
 10  8  2  0  0  0  0
 11  9  1  0  0  0  0
 12 17  2  0  0  0  0
 12  7  1  0  0  0  0
 13  6  1  1  0  0  0
 13 11  1  0  0  0  0
 13 12  1  0  0  0  0
 15 14  1  0  0  0  0
 16  8  1  0  0  0  0
 16 15  1  0  0  0  0
 17 10  1  0  0  0  0
 18 14  1  0  0  0  0
 19 20  2  0  0  0  0
 20 18  2  0  0  0  0
 21 24  1  0  0  0  0
 22 24  1  0  0  0  0
 24 23  1  0  0  0  0
 25 26  1  6  0  0  0
 25  1  1  0  0  0  0
 25 27  1  0  0  0  0
 28 27  1  0  0  0  0
 29 40  1  6  0  0  0
 29 28  1  0  0  0  0
 30 29  1  1  0  0  0
 30 37  1  0  0  0  0
 31 39  1  1  0  0  0
 31 37  1  0  0  0  0
 31 35  1  0  0  0  0
 32 38  2  0  0  0  0
 34 38  1  0  0  0  0
 36 30  1  0  0  0  0
 36 34  1  0  0  0  0
 37 33  1  6  0  0  0
 38 35  1  0  0  0  0
 41 40  1  0  0  0  0
 42 43  1  0  0  0  0
 44 43  1  0  0  0  0
 44 45  2  0  0  0  0
 46 44  1  0  0  0  0
 47 46  1  0  0  0  0
 47 50  1  0  0  0  0
 48 47  2  0  0  0  0
 49 50  2  0  0  0  0
 51 50  1  6  0  0  0
 51 64  1  0  0  0  0
 51 52  1  0  0  0  0
 52 55  2  0  0  0  0
 52 56  1  0  0  0  0
 53 58  1  0  0  0  0
 54 53  1  0  0  0  0
 55 57  1  0  0  0  0
 56 54  2  0  0  0  0
 57 53  2  0  0  0  0
 58 63  1  1  0  0  0
 58 59  1  0  0  0  0
 59 60  1  1  0  0  0
 61 58  1  0  0  0  0
 61 59  1  0  0  0  0
 61 62  1  1  0  0  0
 62 60  1  0  0  0  0
 65 66  1  0  0  0  0
 65 64  1  0  0  0  0
M  END
>  <MODEL>
3

>  <REMARK>
 VINA RESULT:      -6.9      2.599      3.502
  Name = 
  22 active torsions:
  status: ('A' for Active; 'I' for Inactive)
    1  A    between atoms: C_1  and  C_34
    2  A    between atoms: N_3  and  C_36
    3  A    between atoms: C_4  and  C_6
    4  A    between atoms: O_5  and  C_34
    5  A    between atoms: O_5  and  O_41
    6  A    between atoms: C_9  and  C_26
    7  A    between atoms: C_9  and  N_60
    8  A    between atoms: CA_10  and  C_14
    9  A    between atoms: CA_10  and  C_15
   10  A    between atoms: CA_10  and  N_64
   11  A    between atoms: C_11  and  C_25
   12  A    between atoms: C_11  and  N_64
   13  A    between atoms: C_13  and  C_58
   14  A    between atoms: C_17  and  C_30
   15  A    between atoms: C_17  and  C_53
   16  A    between atoms: C_21  and  C_24
   17  A    between atoms: C_21  and  C_34
   18  A    between atoms: C_24  and  C_47
   19  A    between atoms: C_25  and  C_30
   20  A    between atoms: C_30  and  C_36
   21  A    between atoms: C_31  and  C_47
   22  A    between atoms: C_53  and  N_60
                            x       y       z     vdW  Elec       q    Type
                         _______ _______ _______ _____ _____    ______ ____

>  <TORSDO>
F 22

$$$$
=
 OpenBabel11042412483D

 66 71  0  0  1  0  0  0  0  0999 V2000
  185.2650  178.2050  143.7560 C   0  0  1  0  0  3  0  0  0  0  0  0
  186.3830  177.9270  142.7850 C   0  0  0  0  0  0  0  0  0  0  0  0
  187.0690  176.9230  142.8890 O   0  0  0  0  0  0  0  0  0  0  0  0
  186.7010  178.9200  141.7120 C   0  0  0  0  0  2  0  0  0  0  0  0
  187.9000  178.5050  141.0000 N   0  0  0  0  0  2  0  0  0  0  0  0
  187.4910  177.9790  139.7010 C   0  0  0  0  0  2  0  0  0  0  0  0
  188.8540  175.9820  137.8170 N   0  0  0  0  0  0  0  0  0  0  0  0
  190.9960  174.9970  137.4950 C   0  0  0  0  0  3  0  0  0  0  0  0
  186.8540  178.1860  136.7020 C   0  0  0  0  0  2  0  0  0  0  0  0
  191.5990  176.1230  138.0760 C   0  0  0  0  0  0  0  0  0  0  0  0
  187.9770  178.9650  137.3880 C   0  0  0  0  0  2  0  0  0  0  0  0
  189.4100  177.1130  138.3190 C   0  0  0  0  0  0  0  0  0  0  0  0
  188.5530  178.2940  138.6440 C   0  0  2  0  0  3  0  0  0  0  0  0
  187.6520  173.6960  136.3210 N   0  0  0  0  0  2  0  0  0  0  0  0
  188.9920  173.8060  136.7530 N   0  0  0  0  0  2  0  0  0  0  0  0
  189.6040  174.9520  137.3550 C   0  0  0  0  0  0  0  0  0  0  0  0
  190.7960  177.2010  138.4670 C   0  0  0  0  0  3  0  0  0  0  0  0
  186.7850  174.7270  135.8150 C   0  0  0  0  0  3  0  0  0  0  0  0
  187.3780  177.2660  135.6520 C   0  0  0  0  0  3  0  0  0  0  0  0
  187.1010  175.9920  135.7160 C   0  0  0  0  0  0  0  0  0  0  0  0
  193.4160  176.7410  139.4770 F   0  0  0  0  0  0  0  0  0  0  0  0
  193.6390  174.9460  138.1440 F   0  0  0  0  0  0  0  0  0  0  0  0
  193.6240  177.0190  137.2510 F   0  0  0  0  0  0  0  0  0  0  0  0
  193.0880  176.2100  138.2430 C   0  0  0  0  0  0  0  0  0  0  0  0
  185.7470  178.7260  145.1170 C   0  0  1  0  0  3  0  0  0  0  0  0
  184.9860  178.1190  146.2820 C   0  0  0  0  0  1  0  0  0  0  0  0
  187.2480  178.5310  145.2890 C   0  0  0  0  0  2  0  0  0  0  0  0
  187.5240  177.2010  145.8230 N   0  0  0  0  0  2  0  0  0  0  0  0
  188.4760  177.3420  146.9180 C   0  0  1  0  0  3  0  0  0  0  0  0
  189.9230  177.3640  146.3980 C   0  0  2  0  0  3  0  0  0  0  0  0
  192.0410  176.0080  145.8600 C   0  0  1  0  0  3  0  0  0  0  0  0
  191.8300  176.8850  142.5870 O   0  0  0  0  0  0  0  0  0  0  0  0
  190.8840  175.8160  147.9650 O   0  0  0  0  0  1  0  0  0  0  0  0
  189.8630  177.0150  143.8650 C   0  0  0  0  0  2  0  0  0  0  0  0
  191.8510  175.4550  144.4530 C   0  0  0  0  0  2  0  0  0  0  0  0
  189.9960  178.0130  145.0070 C   0  0  0  0  0  2  0  0  0  0  0  0
  190.6950  176.0380  146.5960 C   0  0  1  0  0  3  0  0  0  0  0  0
  191.2150  176.4610  143.5510 C   0  0  0  0  0  0  0  0  0  0  0  0
  192.9510  175.1900  146.5350 O   0  0  0  0  0  1  0  0  0  0  0  0
  188.1240  178.5350  147.8060 C   0  0  0  0  0  2  0  0  0  0  0  0
  187.3620  178.1370  148.9040 O   0  0  0  0  0  1  0  0  0  0  0  0
  184.0520  178.9420  143.1720 C   0  0  0  0  0  2  0  0  0  0  0  0
  182.8810  178.7830  144.0180 N   0  0  0  0  0  2  0  0  0  0  0  0
  181.5510  178.8280  143.5060 C   0  0  0  0  0  0  0  0  0  0  0  0
  180.5780  178.7410  144.3040 O   0  0  0  0  0  0  0  0  0  0  0  0
  181.2880  178.9410  142.0350 C   0  0  0  0  0  2  0  0  0  0  0  0
  180.2700  177.9380  141.5850 C   0  0  0  0  0  0  0  0  0  0  0  0
  179.4670  177.4420  142.4220 O   0  0  0  0  0  0  0  0  0  0  0  0
  179.1090  177.0120  139.7290 O   0  0  0  0  0  0  0  0  0  0  0  0
  180.1400  177.6050  140.1520 C   0  0  0  0  0  0  0  0  0  0  0  0
  181.2320  177.9750  139.1870 C   0  0  2  0  0  3  0  0  0  0  0  0
  180.8890  179.1880  138.3840 C   0  0  0  0  0  0  0  0  0  0  0  0
  180.3350  181.5280  136.9310 C   0  0  0  0  0  0  0  0  0  0  0  0
  180.7100  180.3520  136.2640 C   0  0  0  0  0  3  0  0  0  0  0  0
  180.5030  180.3570  139.0520 C   0  0  0  0  0  3  0  0  0  0  0  0
  180.9870  179.1880  136.9860 C   0  0  0  0  0  3  0  0  0  0  0  0
  180.2310  181.5220  138.3310 C   0  0  0  0  0  3  0  0  0  0  0  0
  180.0850  182.7790  136.1400 C   0  0  1  0  0  0  0  0  0  0  0  0
  179.7910  184.0090  136.8770 C   0  0  2  0  0  3  0  0  0  0  0  0
  179.4710  185.1790  135.9720 C   0  0  0  0  0  2  0  0  0  0  0  0
  181.1320  183.8140  136.2680 N   0  0  2  0  0  0  0  0  0  0  0  0
  180.8440  184.9430  135.3860 C   0  0  0  0  0  2  0  0  0  0  0  0
  179.5460  182.6420  134.8490 O   0  0  0  0  0  1  0  0  0  0  0  0
  181.5460  176.9020  138.3440 O   0  0  0  0  0  0  0  0  0  0  0  0
  182.1060  176.0060  139.1330 O   0  0  0  0  0  0  0  0  0  0  0  0
  183.3050  175.6720  138.4930 C   0  0  0  0  0  1  0  0  0  0  0  0
  1 42  1  6  0  0  0
  1 25  1  0  0  0  0
  2  3  2  0  0  0  0
  2  1  1  0  0  0  0
  4  2  1  0  0  0  0
  5  4  1  0  0  0  0
  6  5  1  0  0  0  0
  7 12  1  0  0  0  0
  8 10  2  0  0  0  0
  9 11  1  0  0  0  0
 10 24  1  0  0  0  0
 10 17  1  0  0  0  0
 11 13  1  0  0  0  0
 12 17  2  0  0  0  0
 12 13  1  0  0  0  0
 13  6  1  1  0  0  0
 14 15  1  0  0  0  0
 15 16  1  0  0  0  0
 16  8  1  0  0  0  0
 16  7  2  0  0  0  0
 18 14  1  0  0  0  0
 19 20  2  0  0  0  0
 19  9  1  0  0  0  0
 20 18  2  0  0  0  0
 22 24  1  0  0  0  0
 23 24  1  0  0  0  0
 24 21  1  0  0  0  0
 25 27  1  0  0  0  0
 25 26  1  1  0  0  0
 27 28  1  0  0  0  0
 28 29  1  0  0  0  0
 29 40  1  6  0  0  0
 30 37  1  0  0  0  0
 30 29  1  6  0  0  0
 31 39  1  1  0  0  0
 31 37  1  0  0  0  0
 32 38  2  0  0  0  0
 34 36  1  0  0  0  0
 35 31  1  0  0  0  0
 36 30  1  0  0  0  0
 37 33  1  1  0  0  0
 38 34  1  0  0  0  0
 38 35  1  0  0  0  0
 40 41  1  0  0  0  0
 42 43  1  0  0  0  0
 44 43  1  0  0  0  0
 44 45  2  0  0  0  0
 46 44  1  0  0  0  0
 47 46  1  0  0  0  0
 47 48  2  0  0  0  0
 49 50  2  0  0  0  0
 50 47  1  0  0  0  0
 51 64  1  6  0  0  0
 51 50  1  0  0  0  0
 52 55  1  0  0  0  0
 52 51  1  0  0  0  0
 53 57  1  0  0  0  0
 54 53  2  0  0  0  0
 54 56  1  0  0  0  0
 56 52  2  0  0  0  0
 57 55  2  0  0  0  0
 58 63  1  6  0  0  0
 58 61  1  0  0  0  0
 58 59  1  0  0  0  0
 58 53  1  0  0  0  0
 59 60  1  6  0  0  0
 61 62  1  6  0  0  0
 61 59  1  0  0  0  0
 62 60  1  0  0  0  0
 64 65  1  0  0  0  0
 66 65  1  0  0  0  0
M  END
>  <MODEL>
4

>  <REMARK>
 VINA RESULT:      -6.9      3.937      8.760
  Name = 
  22 active torsions:
  status: ('A' for Active; 'I' for Inactive)
    1  A    between atoms: C_1  and  C_34
    2  A    between atoms: N_3  and  C_36
    3  A    between atoms: C_4  and  C_6
    4  A    between atoms: O_5  and  C_34
    5  A    between atoms: O_5  and  O_41
    6  A    between atoms: C_9  and  C_26
    7  A    between atoms: C_9  and  N_60
    8  A    between atoms: CA_10  and  C_14
    9  A    between atoms: CA_10  and  C_15
   10  A    between atoms: CA_10  and  N_64
   11  A    between atoms: C_11  and  C_25
   12  A    between atoms: C_11  and  N_64
   13  A    between atoms: C_13  and  C_58
   14  A    between atoms: C_17  and  C_30
   15  A    between atoms: C_17  and  C_53
   16  A    between atoms: C_21  and  C_24
   17  A    between atoms: C_21  and  C_34
   18  A    between atoms: C_24  and  C_47
   19  A    between atoms: C_25  and  C_30
   20  A    between atoms: C_30  and  C_36
   21  A    between atoms: C_31  and  C_47
   22  A    between atoms: C_53  and  N_60
                            x       y       z     vdW  Elec       q    Type
                         _______ _______ _______ _____ _____    ______ ____

>  <TORSDO>
F 22

$$$$
=
 OpenBabel11042412483D

 66 71  0  0  1  0  0  0  0  0999 V2000
  189.8610  176.9430  137.4580 C   0  0  1  0  0  3  0  0  0  0  0  0
  190.2240  177.0870  138.9140 C   0  0  0  0  0  0  0  0  0  0  0  0
  190.8070  178.0790  139.3190 O   0  0  0  0  0  0  0  0  0  0  0  0
  189.9240  175.9750  139.8690 C   0  0  0  0  0  2  0  0  0  0  0  0
  190.2960  176.3750  141.2170 N   0  0  0  0  0  2  0  0  0  0  0  0
  189.0880  176.3630  142.0390 C   0  0  0  0  0  2  0  0  0  0  0  0
  189.0470  177.0120  145.0340 N   0  0  0  0  0  0  0  0  0  0  0  0
  187.4820  177.6620  146.7050 C   0  0  0  0  0  3  0  0  0  0  0  0
  191.3820  178.0740  143.1580 C   0  0  0  0  0  2  0  0  0  0  0  0
  186.6860  178.2670  145.7210 C   0  0  0  0  0  0  0  0  0  0  0  0
  190.0930  178.6560  142.5740 C   0  0  0  0  0  2  0  0  0  0  0  0
  188.3340  177.6470  144.0690 C   0  0  0  0  0  0  0  0  0  0  0  0
  188.8670  177.7370  142.6750 C   0  0  2  0  0  3  0  0  0  0  0  0
  190.8340  175.9950  147.1970 N   0  0  0  0  0  2  0  0  0  0  0  0
  189.5020  176.4400  147.3470 N   0  0  0  0  0  2  0  0  0  0  0  0
  188.6860  177.0470  146.3400 C   0  0  0  0  0  0  0  0  0  0  0  0
  187.1330  178.2810  144.3940 C   0  0  0  0  0  3  0  0  0  0  0  0
  191.8610  176.5160  146.3350 C   0  0  0  0  0  3  0  0  0  0  0  0
  191.5540  178.4380  144.5940 C   0  0  0  0  0  3  0  0  0  0  0  0
  191.7030  177.4950  145.4830 C   0  0  0  0  0  0  0  0  0  0  0  0
  184.3490  178.0270  146.0810 F   0  0  0  0  0  0  0  0  0  0  0  0
  185.4900  179.5090  147.3270 F   0  0  0  0  0  0  0  0  0  0  0  0
  185.1080  179.9290  145.1420 F   0  0  0  0  0  0  0  0  0  0  0  0
  185.3900  178.9380  146.0720 C   0  0  0  0  0  0  0  0  0  0  0  0
  190.7980  176.0120  136.6780 C   0  0  1  0  0  3  0  0  0  0  0  0
  190.7210  176.2230  135.1760 C   0  0  0  0  0  1  0  0  0  0  0  0
  192.2360  176.1310  137.1680 C   0  0  0  0  0  2  0  0  0  0  0  0
  193.1590  175.6790  136.1320 N   0  0  0  0  0  2  0  0  0  0  0  0
  194.3070  175.0630  136.7870 C   0  0  1  0  0  3  0  0  0  0  0  0
  194.0380  173.5840  137.1060 C   0  0  2  0  0  3  0  0  0  0  0  0
  193.7540  171.1980  136.1900 C   0  0  1  0  0  3  0  0  0  0  0  0
  196.4360  170.1380  137.9800 O   0  0  0  0  0  0  0  0  0  0  0  0
  192.5780  173.0860  135.2630 O   0  0  0  0  0  1  0  0  0  0  0  0
  196.2850  172.4390  137.5270 C   0  0  0  0  0  2  0  0  0  0  0  0
  195.1570  170.6150  136.0670 C   0  0  0  0  0  2  0  0  0  0  0  0
  195.0390  173.0560  138.1450 C   0  0  0  0  0  2  0  0  0  0  0  0
  193.7800  172.6970  135.8650 C   0  0  1  0  0  3  0  0  0  0  0  0
  196.0130  171.0000  137.2290 C   0  0  0  0  0  0  0  0  0  0  0  0
  192.9160  170.5180  135.3020 O   0  0  0  0  0  1  0  0  0  0  0  0
  195.5890  175.2960  135.9870 C   0  0  0  0  0  2  0  0  0  0  0  0
  195.7690  176.6510  135.7080 O   0  0  0  0  0  1  0  0  0  0  0  0
  188.3650  176.7490  137.1690 C   0  0  0  0  0  2  0  0  0  0  0  0
  188.0070  175.3400  137.1710 N   0  0  0  0  0  2  0  0  0  0  0  0
  186.6540  174.8910  137.1370 C   0  0  0  0  0  0  0  0  0  0  0  0
  186.4120  173.6550  137.1990 O   0  0  0  0  0  0  0  0  0  0  0  0
  185.5170  175.8580  136.9940 C   0  0  0  0  0  2  0  0  0  0  0  0
  184.9130  175.7880  135.6260 C   0  0  0  0  0  0  0  0  0  0  0  0
  185.4810  175.1140  134.7230 O   0  0  0  0  0  0  0  0  0  0  0  0
  183.5290  177.4230  134.5970 O   0  0  0  0  0  0  0  0  0  0  0  0
  183.6050  176.4210  135.3600 C   0  0  0  0  0  0  0  0  0  0  0  0
  182.3570  175.8730  135.9920 C   0  0  2  0  0  3  0  0  0  0  0  0
  182.0550  176.5240  137.3030 C   0  0  0  0  0  0  0  0  0  0  0  0
  181.6000  177.7230  139.8040 C   0  0  0  0  0  0  0  0  0  0  0  0
  181.4930  178.4780  138.6260 C   0  0  0  0  0  3  0  0  0  0  0  0
  182.1500  175.7650  138.4760 C   0  0  0  0  0  3  0  0  0  0  0  0
  181.7210  177.8830  137.3820 C   0  0  0  0  0  3  0  0  0  0  0  0
  181.9280  176.3600  139.7200 C   0  0  0  0  0  3  0  0  0  0  0  0
  181.3960  178.3910  141.1320 C   0  0  1  0  0  0  0  0  0  0  0  0
  180.2460  179.2830  141.2830 C   0  0  2  0  0  3  0  0  0  0  0  0
  180.1980  179.9630  142.6340 C   0  0  0  0  0  2  0  0  0  0  0  0
  180.2130  177.9260  141.8860 N   0  0  2  0  0  0  0  0  0  0  0  0
  180.1630  178.5630  143.2010 C   0  0  0  0  0  2  0  0  0  0  0  0
  182.5340  178.6450  141.9190 O   0  0  0  0  0  1  0  0  0  0  0  0
  182.4340  174.4830  136.1420 O   0  0  0  0  0  0  0  0  0  0  0  0
  181.9220  173.9950  135.0300 O   0  0  0  0  0  0  0  0  0  0  0  0
  180.5730  173.7740  135.3280 C   0  0  0  0  0  1  0  0  0  0  0  0
  1 42  1  1  0  0  0
  1  2  1  0  0  0  0
  2  3  2  0  0  0  0
  2  4  1  0  0  0  0
  4  5  1  0  0  0  0
  5  6  1  0  0  0  0
  7 16  2  0  0  0  0
  9 19  1  0  0  0  0
 10 24  1  0  0  0  0
 10  8  2  0  0  0  0
 11 13  1  0  0  0  0
 11  9  1  0  0  0  0
 12 17  2  0  0  0  0
 12  7  1  0  0  0  0
 13  6  1  1  0  0  0
 13 12  1  0  0  0  0
 14 15  1  0  0  0  0
 16  8  1  0  0  0  0
 16 15  1  0  0  0  0
 17 10  1  0  0  0  0
 18 14  1  0  0  0  0
 19 20  2  0  0  0  0
 20 18  2  0  0  0  0
 23 24  1  0  0  0  0
 24 21  1  0  0  0  0
 24 22  1  0  0  0  0
 25 26  1  6  0  0  0
 25 27  1  0  0  0  0
 25  1  1  0  0  0  0
 28 29  1  0  0  0  0
 28 27  1  0  0  0  0
 29 40  1  6  0  0  0
 30 29  1  6  0  0  0
 30 36  1  0  0  0  0
 31 39  1  6  0  0  0
 34 36  1  0  0  0  0
 35 31  1  0  0  0  0
 35 38  1  0  0  0  0
 37 33  1  1  0  0  0
 37 31  1  0  0  0  0
 37 30  1  0  0  0  0
 38 34  1  0  0  0  0
 38 32  2  0  0  0  0
 41 40  1  0  0  0  0
 42 43  1  0  0  0  0
 44 43  1  0  0  0  0
 44 45  2  0  0  0  0
 46 44  1  0  0  0  0
 47 46  1  0  0  0  0
 48 47  2  0  0  0  0
 49 50  2  0  0  0  0
 50 47  1  0  0  0  0
 51 50  1  1  0  0  0
 51 64  1  0  0  0  0
 51 52  1  0  0  0  0
 52 56  2  0  0  0  0
 52 55  1  0  0  0  0
 53 58  1  0  0  0  0
 54 53  2  0  0  0  0
 55 57  2  0  0  0  0
 56 54  1  0  0  0  0
 57 53  1  0  0  0  0
 58 59  1  0  0  0  0
 58 61  1  0  0  0  0
 58 63  1  1  0  0  0
 59 61  1  0  0  0  0
 59 60  1  1  0  0  0
 60 62  1  0  0  0  0
 61 62  1  1  0  0  0
 65 66  1  0  0  0  0
 65 64  1  0  0  0  0
M  END
>  <MODEL>
5

>  <REMARK>
 VINA RESULT:      -6.7      2.374      3.445
  Name = 
  22 active torsions:
  status: ('A' for Active; 'I' for Inactive)
    1  A    between atoms: C_1  and  C_34
    2  A    between atoms: N_3  and  C_36
    3  A    between atoms: C_4  and  C_6
    4  A    between atoms: O_5  and  C_34
    5  A    between atoms: O_5  and  O_41
    6  A    between atoms: C_9  and  C_26
    7  A    between atoms: C_9  and  N_60
    8  A    between atoms: CA_10  and  C_14
    9  A    between atoms: CA_10  and  C_15
   10  A    between atoms: CA_10  and  N_64
   11  A    between atoms: C_11  and  C_25
   12  A    between atoms: C_11  and  N_64
   13  A    between atoms: C_13  and  C_58
   14  A    between atoms: C_17  and  C_30
   15  A    between atoms: C_17  and  C_53
   16  A    between atoms: C_21  and  C_24
   17  A    between atoms: C_21  and  C_34
   18  A    between atoms: C_24  and  C_47
   19  A    between atoms: C_25  and  C_30
   20  A    between atoms: C_30  and  C_36
   21  A    between atoms: C_31  and  C_47
   22  A    between atoms: C_53  and  N_60
                            x       y       z     vdW  Elec       q    Type
                         _______ _______ _______ _____ _____    ______ ____

>  <TORSDO>
F 22

$$$$
=
 OpenBabel11042412483D

 66 71  0  0  1  0  0  0  0  0999 V2000
  190.7750  177.2950  138.6390 C   0  0  1  0  0  3  0  0  0  0  0  0
  191.5140  177.3460  139.9510 C   0  0  0  0  0  0  0  0  0  0  0  0
  192.7250  177.4850  139.9830 O   0  0  0  0  0  0  0  0  0  0  0  0
  190.7660  177.1640  141.2350 C   0  0  0  0  0  2  0  0  0  0  0  0
  189.9390  178.3340  141.4890 N   0  0  0  0  0  2  0  0  0  0  0  0
  189.7640  178.4540  142.9340 C   0  0  0  0  0  2  0  0  0  0  0  0
  189.1670  177.8290  145.8750 N   0  0  0  0  0  0  0  0  0  0  0  0
  190.2880  176.9610  147.7860 C   0  0  0  0  0  3  0  0  0  0  0  0
  187.0760  177.1180  143.5890 C   0  0  0  0  0  2  0  0  0  0  0  0
  191.1490  176.2360  146.9490 C   0  0  0  0  0  0  0  0  0  0  0  0
  188.3460  176.3440  143.2340 C   0  0  0  0  0  2  0  0  0  0  0  0
  189.9380  177.0860  145.0410 C   0  0  0  0  0  0  0  0  0  0  0  0
  189.6580  177.0670  143.5730 C   0  0  2  0  0  3  0  0  0  0  0  0
  187.1910  179.1210  147.7020 N   0  0  0  0  0  2  0  0  0  0  0  0
  188.3930  178.4800  148.0790 N   0  0  0  0  0  2  0  0  0  0  0  0
  189.2770  177.7490  147.2230 C   0  0  0  0  0  0  0  0  0  0  0  0
  190.9520  176.2800  145.5630 C   0  0  0  0  0  3  0  0  0  0  0  0
  186.2700  178.7550  146.6590 C   0  0  0  0  0  3  0  0  0  0  0  0
  186.5950  176.7950  144.9630 C   0  0  0  0  0  3  0  0  0  0  0  0
  186.4310  177.7570  145.8300 C   0  0  0  0  0  0  0  0  0  0  0  0
  193.0870  176.1240  148.3200 F   0  0  0  0  0  0  0  0  0  0  0  0
  191.6940  174.3610  148.2690 F   0  0  0  0  0  0  0  0  0  0  0  0
  192.9890  174.8280  146.4800 F   0  0  0  0  0  0  0  0  0  0  0  0
  192.2450  175.3790  147.5140 C   0  0  0  0  0  0  0  0  0  0  0  0
  191.2340  176.1580  137.7170 C   0  0  1  0  0  3  0  0  0  0  0  0
  191.1910  176.5380  136.2480 C   0  0  0  0  0  1  0  0  0  0  0  0
  192.6180  175.6500  138.1050 C   0  0  0  0  0  2  0  0  0  0  0  0
  192.6980  174.2080  137.9030 N   0  0  0  0  0  2  0  0  0  0  0  0
  193.5340  173.9600  136.7350 C   0  0  1  0  0  3  0  0  0  0  0  0
  194.9250  173.4490  137.1440 C   0  0  2  0  0  3  0  0  0  0  0  0
  197.4710  173.6640  136.8570 C   0  0  1  0  0  3  0  0  0  0  0  0
  197.8220  174.4720  140.1360 O   0  0  0  0  0  0  0  0  0  0  0  0
  195.9690  173.4980  134.9800 O   0  0  0  0  0  1  0  0  0  0  0  0
  195.7080  174.8050  139.1650 C   0  0  0  0  0  2  0  0  0  0  0  0
  197.9190  174.7700  137.8060 C   0  0  0  0  0  2  0  0  0  0  0  0
  195.1010  173.5010  138.6700 C   0  0  0  0  0  2  0  0  0  0  0  0
  196.0870  173.9960  136.2830 C   0  0  1  0  0  3  0  0  0  0  0  0
  197.1980  174.6940  139.1120 C   0  0  0  0  0  0  0  0  0  0  0  0
  198.4150  173.5560  135.8330 O   0  0  0  0  0  1  0  0  0  0  0  0
  192.8210  173.0600  135.7260 C   0  0  0  0  0  2  0  0  0  0  0  0
  191.4420  173.2690  135.7530 O   0  0  0  0  0  1  0  0  0  0  0  0
  189.2530  177.4800  138.7320 C   0  0  0  0  0  2  0  0  0  0  0  0
  188.5540  176.2350  138.4530 N   0  0  0  0  0  2  0  0  0  0  0  0
  187.5920  176.1120  137.4080 C   0  0  0  0  0  0  0  0  0  0  0  0
  186.9800  175.0200  137.2570 O   0  0  0  0  0  0  0  0  0  0  0  0
  187.3210  177.2440  136.4630 C   0  0  0  0  0  2  0  0  0  0  0  0
  186.6510  178.3870  137.1610 C   0  0  0  0  0  0  0  0  0  0  0  0
  186.9240  179.5720  136.8260 O   0  0  0  0  0  0  0  0  0  0  0  0
  185.8760  178.1900  139.3990 O   0  0  0  0  0  0  0  0  0  0  0  0
  185.6030  178.1280  138.1680 C   0  0  0  0  0  0  0  0  0  0  0  0
  184.2030  177.7950  137.7350 C   0  0  2  0  0  3  0  0  0  0  0  0
  183.2260  177.8860  138.8620 C   0  0  0  0  0  0  0  0  0  0  0  0
  181.3590  178.1690  140.9430 C   0  0  0  0  0  0  0  0  0  0  0  0
  181.2100  177.1490  139.9920 C   0  0  0  0  0  3  0  0  0  0  0  0
  183.3830  178.8980  139.8170 C   0  0  0  0  0  3  0  0  0  0  0  0
  182.1370  177.0080  138.9560 C   0  0  0  0  0  3  0  0  0  0  0  0
  182.4540  179.0430  140.8500 C   0  0  0  0  0  3  0  0  0  0  0  0
  180.3280  178.3320  142.0220 C   0  0  1  0  0  0  0  0  0  0  0  0
  180.7780  178.7900  143.3370 C   0  0  2  0  0  3  0  0  0  0  0  0
  179.6640  178.8290  144.3620 C   0  0  0  0  0  2  0  0  0  0  0  0
  180.0690  179.7280  142.4290 N   0  0  2  0  0  0  0  0  0  0  0  0
  178.9840  179.7830  143.4060 C   0  0  0  0  0  2  0  0  0  0  0  0
  179.1860  177.5130  141.9660 O   0  0  0  0  0  1  0  0  0  0  0  0
  184.1460  176.5290  137.1390 O   0  0  0  0  0  0  0  0  0  0  0  0
  183.9770  176.7690  135.8540 O   0  0  0  0  0  0  0  0  0  0  0  0
  182.8680  175.9960  135.4920 C   0  0  0  0  0  1  0  0  0  0  0  0
  1 42  1  1  0  0  0
  1  2  1  0  0  0  0
  2  3  2  0  0  0  0
  2  4  1  0  0  0  0
  4  5  1  0  0  0  0
  5  6  1  0  0  0  0
  7 16  2  0  0  0  0
  9 19  1  0  0  0  0
 10 24  1  0  0  0  0
 10  8  2  0  0  0  0
 11 13  1  0  0  0  0
 11  9  1  0  0  0  0
 12 17  2  0  0  0  0
 12  7  1  0  0  0  0
 13  6  1  1  0  0  0
 13 12  1  0  0  0  0
 14 15  1  0  0  0  0
 16  8  1  0  0  0  0
 16 15  1  0  0  0  0
 17 10  1  0  0  0  0
 18 14  1  0  0  0  0
 19 20  2  0  0  0  0
 20 18  2  0  0  0  0
 23 24  1  0  0  0  0
 24 22  1  0  0  0  0
 24 21  1  0  0  0  0
 25 26  1  6  0  0  0
 25 27  1  0  0  0  0
 25  1  1  0  0  0  0
 28 27  1  0  0  0  0
 29 40  1  6  0  0  0
 29 28  1  0  0  0  0
 30 29  1  1  0  0  0
 30 36  1  0  0  0  0
 31 39  1  6  0  0  0
 31 35  1  0  0  0  0
 35 38  1  0  0  0  0
 36 34  1  0  0  0  0
 37 33  1  6  0  0  0
 37 31  1  0  0  0  0
 37 30  1  0  0  0  0
 38 34  1  0  0  0  0
 38 32  2  0  0  0  0
 40 41  1  0  0  0  0
 43 42  1  0  0  0  0
 44 43  1  0  0  0  0
 45 44  2  0  0  0  0
 46 47  1  0  0  0  0
 46 44  1  0  0  0  0
 47 50  1  0  0  0  0
 48 47  2  0  0  0  0
 50 49  2  0  0  0  0
 51 64  1  1  0  0  0
 51 50  1  0  0  0  0
 51 52  1  0  0  0  0
 52 56  2  0  0  0  0
 52 55  1  0  0  0  0
 53 58  1  0  0  0  0
 54 53  2  0  0  0  0
 55 57  2  0  0  0  0
 56 54  1  0  0  0  0
 57 53  1  0  0  0  0
 58 63  1  6  0  0  0
 58 61  1  0  0  0  0
 58 59  1  0  0  0  0
 59 60  1  1  0  0  0
 61 59  1  0  0  0  0
 61 62  1  1  0  0  0
 62 60  1  0  0  0  0
 65 64  1  0  0  0  0
 66 65  1  0  0  0  0
M  END
>  <MODEL>
6

>  <REMARK>
 VINA RESULT:      -6.6      1.831      2.678
  Name = 
  22 active torsions:
  status: ('A' for Active; 'I' for Inactive)
    1  A    between atoms: C_1  and  C_34
    2  A    between atoms: N_3  and  C_36
    3  A    between atoms: C_4  and  C_6
    4  A    between atoms: O_5  and  C_34
    5  A    between atoms: O_5  and  O_41
    6  A    between atoms: C_9  and  C_26
    7  A    between atoms: C_9  and  N_60
    8  A    between atoms: CA_10  and  C_14
    9  A    between atoms: CA_10  and  C_15
   10  A    between atoms: CA_10  and  N_64
   11  A    between atoms: C_11  and  C_25
   12  A    between atoms: C_11  and  N_64
   13  A    between atoms: C_13  and  C_58
   14  A    between atoms: C_17  and  C_30
   15  A    between atoms: C_17  and  C_53
   16  A    between atoms: C_21  and  C_24
   17  A    between atoms: C_21  and  C_34
   18  A    between atoms: C_24  and  C_47
   19  A    between atoms: C_25  and  C_30
   20  A    between atoms: C_30  and  C_36
   21  A    between atoms: C_31  and  C_47
   22  A    between atoms: C_53  and  N_60
                            x       y       z     vdW  Elec       q    Type
                         _______ _______ _______ _____ _____    ______ ____

>  <TORSDO>
F 22

$$$$
=
 OpenBabel11042412483D

 66 71  0  0  1  0  0  0  0  0999 V2000
  187.6120  177.6450  138.9680 C   0  0  1  0  0  3  0  0  0  0  0  0
  189.0590  177.5810  138.5540 C   0  0  0  0  0  0  0  0  0  0  0  0
  189.6040  178.5390  138.0300 O   0  0  0  0  0  0  0  0  0  0  0  0
  189.8290  176.3090  138.7280 C   0  0  0  0  0  2  0  0  0  0  0  0
  191.2460  176.5620  138.5210 N   0  0  0  0  0  2  0  0  0  0  0  0
  191.7500  175.5560  137.5900 C   0  0  0  0  0  2  0  0  0  0  0  0
  194.1410  173.6440  137.7450 N   0  0  0  0  0  0  0  0  0  0  0  0
  196.1290  173.3610  139.0210 C   0  0  0  0  0  3  0  0  0  0  0  0
  193.0140  174.6360  134.9440 C   0  0  0  0  0  2  0  0  0  0  0  0
  196.1620  174.7410  139.2720 C   0  0  0  0  0  0  0  0  0  0  0  0
  193.4300  175.9060  135.6890 C   0  0  0  0  0  2  0  0  0  0  0  0
  194.1830  174.9900  137.9120 C   0  0  0  0  0  0  0  0  0  0  0  0
  193.1990  175.8670  137.2070 C   0  0  2  0  0  3  0  0  0  0  0  0
  194.2810  170.7540  137.0100 N   0  0  0  0  0  2  0  0  0  0  0  0
  195.0820  171.4190  137.9650 N   0  0  0  0  0  2  0  0  0  0  0  0
  195.1070  172.8260  138.2290 C   0  0  0  0  0  0  0  0  0  0  0  0
  195.1920  175.5640  138.6880 C   0  0  0  0  0  3  0  0  0  0  0  0
  193.7990  171.2460  135.7460 C   0  0  0  0  0  3  0  0  0  0  0  0
  194.1410  173.6670  134.8280 C   0  0  0  0  0  3  0  0  0  0  0  0
  193.9960  172.4540  135.2850 C   0  0  0  0  0  0  0  0  0  0  0  0
  197.5430  174.5440  141.1970 F   0  0  0  0  0  0  0  0  0  0  0  0
  198.3840  175.5210  139.3560 F   0  0  0  0  0  0  0  0  0  0  0  0
  196.8230  176.5890  140.5880 F   0  0  0  0  0  0  0  0  0  0  0  0
  197.2420  175.3530  140.1160 C   0  0  0  0  0  0  0  0  0  0  0  0
  187.3350  178.6600  140.0840 C   0  0  1  0  0  3  0  0  0  0  0  0
  185.8980  178.6190  140.5740 C   0  0  0  0  0  1  0  0  0  0  0  0
  188.3080  178.4920  141.2450 C   0  0  0  0  0  2  0  0  0  0  0  0
  188.0630  177.2260  141.9270 N   0  0  0  0  0  2  0  0  0  0  0  0
  188.8950  177.1880  143.1230 C   0  0  1  0  0  3  0  0  0  0  0  0
  188.0520  176.9140  144.3790 C   0  0  2  0  0  3  0  0  0  0  0  0
  187.7020  177.3780  146.8840 C   0  0  1  0  0  3  0  0  0  0  0  0
  184.6530  178.7310  146.2590 O   0  0  0  0  0  0  0  0  0  0  0  0
  189.8410  176.7410  145.9740 O   0  0  0  0  0  1  0  0  0  0  0  0
  186.1830  178.6570  144.4770 C   0  0  0  0  0  2  0  0  0  0  0  0
  186.8910  178.6650  146.9740 C   0  0  0  0  0  2  0  0  0  0  0  0
  186.5690  177.2290  144.1230 C   0  0  0  0  0  2  0  0  0  0  0  0
  188.6670  177.4500  145.6930 C   0  0  1  0  0  3  0  0  0  0  0  0
  185.8260  178.7140  145.9280 C   0  0  0  0  0  0  0  0  0  0  0  0
  188.4090  177.2200  148.0790 O   0  0  0  0  0  1  0  0  0  0  0  0
  190.0690  176.2240  142.9500 C   0  0  0  0  0  2  0  0  0  0  0  0
  191.0090  176.7330  142.0540 O   0  0  0  0  0  1  0  0  0  0  0  0
  186.5970  177.6540  137.8160 C   0  0  0  0  0  2  0  0  0  0  0  0
  186.7570  176.4860  136.9640 N   0  0  0  0  0  2  0  0  0  0  0  0
  185.6480  175.7720  136.4230 C   0  0  0  0  0  0  0  0  0  0  0  0
  185.8570  174.7330  135.7390 O   0  0  0  0  0  0  0  0  0  0  0  0
  184.2420  176.2510  136.6230 C   0  0  0  0  0  2  0  0  0  0  0  0
  183.3510  175.1420  137.0900 C   0  0  0  0  0  0  0  0  0  0  0  0
  183.7430  174.3640  138.0020 O   0  0  0  0  0  0  0  0  0  0  0  0
  181.7820  174.4870  135.4280 O   0  0  0  0  0  0  0  0  0  0  0  0
  181.9790  175.0180  136.5560 C   0  0  0  0  0  0  0  0  0  0  0  0
  180.8080  175.5200  137.3540 C   0  0  2  0  0  3  0  0  0  0  0  0
  180.6480  177.0020  137.2510 C   0  0  0  0  0  0  0  0  0  0  0  0
  180.4620  179.8010  137.0930 C   0  0  0  0  0  0  0  0  0  0  0  0
  180.2610  179.0130  135.9510 C   0  0  0  0  0  3  0  0  0  0  0  0
  180.8370  177.7860  138.3950 C   0  0  0  0  0  3  0  0  0  0  0  0
  180.3550  177.6200  136.0280 C   0  0  0  0  0  3  0  0  0  0  0  0
  180.7490  179.1780  138.3180 C   0  0  0  0  0  3  0  0  0  0  0  0
  180.4010  181.2970  136.9800 C   0  0  1  0  0  0  0  0  0  0  0  0
  179.9030  182.0530  138.1310 C   0  0  2  0  0  3  0  0  0  0  0  0
  179.8060  183.5390  137.8640 C   0  0  0  0  0  2  0  0  0  0  0  0
  181.3590  182.0240  137.8390 N   0  0  2  0  0  0  0  0  0  0  0  0
  181.2890  183.4610  137.5800 C   0  0  0  0  0  2  0  0  0  0  0  0
  180.2190  181.8500  135.7010 O   0  0  0  0  0  1  0  0  0  0  0  0
  180.9060  175.1290  138.6950 O   0  0  0  0  0  0  0  0  0  0  0  0
  180.2190  174.0070  138.7710 O   0  0  0  0  0  0  0  0  0  0  0  0
  178.9840  174.3080  138.1870 C   0  0  0  0  0  1  0  0  0  0  0  0
  1 42  1  6  0  0  0
  1 25  1  0  0  0  0
  2  4  1  0  0  0  0
  2  1  1  0  0  0  0
  3  2  2  0  0  0  0
  5  4  1  0  0  0  0
  6  5  1  0  0  0  0
  7 12  1  0  0  0  0
  7 16  2  0  0  0  0
  8 10  2  0  0  0  0
  9 11  1  0  0  0  0
 10 24  1  0  0  0  0
 11 13  1  0  0  0  0
 12 17  2  0  0  0  0
 13  6  1  6  0  0  0
 13 12  1  0  0  0  0
 14 15  1  0  0  0  0
 15 16  1  0  0  0  0
 16  8  1  0  0  0  0
 17 10  1  0  0  0  0
 18 14  1  0  0  0  0
 19  9  1  0  0  0  0
 19 20  2  0  0  0  0
 20 18  2  0  0  0  0
 22 24  1  0  0  0  0
 24 23  1  0  0  0  0
 24 21  1  0  0  0  0
 25 26  1  1  0  0  0
 25 27  1  0  0  0  0
 27 28  1  0  0  0  0
 28 29  1  0  0  0  0
 29 40  1  6  0  0  0
 30 29  1  6  0  0  0
 30 37  1  0  0  0  0
 31 35  1  0  0  0  0
 31 39  1  1  0  0  0
 34 38  1  0  0  0  0
 36 30  1  0  0  0  0
 36 34  1  0  0  0  0
 37 33  1  1  0  0  0
 37 31  1  0  0  0  0
 38 32  2  0  0  0  0
 38 35  1  0  0  0  0
 41 40  1  0  0  0  0
 43 42  1  0  0  0  0
 44 46  1  0  0  0  0
 44 43  1  0  0  0  0
 45 44  2  0  0  0  0
 46 47  1  0  0  0  0
 47 48  2  0  0  0  0
 49 50  2  0  0  0  0
 50 47  1  0  0  0  0
 51 50  1  6  0  0  0
 51 64  1  0  0  0  0
 52 51  1  0  0  0  0
 52 55  1  0  0  0  0
 53 57  1  0  0  0  0
 54 56  1  0  0  0  0
 54 53  2  0  0  0  0
 56 52  2  0  0  0  0
 57 55  2  0  0  0  0
 58 63  1  6  0  0  0
 58 53  1  0  0  0  0
 58 61  1  0  0  0  0
 58 59  1  0  0  0  0
 59 60  1  6  0  0  0
 61 62  1  6  0  0  0
 61 59  1  0  0  0  0
 62 60  1  0  0  0  0
 64 65  1  0  0  0  0
 66 65  1  0  0  0  0
M  END
>  <MODEL>
7

>  <REMARK>
 VINA RESULT:      -6.4      3.514      8.617
  Name = 
  22 active torsions:
  status: ('A' for Active; 'I' for Inactive)
    1  A    between atoms: C_1  and  C_34
    2  A    between atoms: N_3  and  C_36
    3  A    between atoms: C_4  and  C_6
    4  A    between atoms: O_5  and  C_34
    5  A    between atoms: O_5  and  O_41
    6  A    between atoms: C_9  and  C_26
    7  A    between atoms: C_9  and  N_60
    8  A    between atoms: CA_10  and  C_14
    9  A    between atoms: CA_10  and  C_15
   10  A    between atoms: CA_10  and  N_64
   11  A    between atoms: C_11  and  C_25
   12  A    between atoms: C_11  and  N_64
   13  A    between atoms: C_13  and  C_58
   14  A    between atoms: C_17  and  C_30
   15  A    between atoms: C_17  and  C_53
   16  A    between atoms: C_21  and  C_24
   17  A    between atoms: C_21  and  C_34
   18  A    between atoms: C_24  and  C_47
   19  A    between atoms: C_25  and  C_30
   20  A    between atoms: C_30  and  C_36
   21  A    between atoms: C_31  and  C_47
   22  A    between atoms: C_53  and  N_60
                            x       y       z     vdW  Elec       q    Type
                         _______ _______ _______ _____ _____    ______ ____

>  <TORSDO>
F 22

$$$$
=
 OpenBabel11042412483D

 66 71  0  0  1  0  0  0  0  0999 V2000
  190.6170  176.9300  137.8040 C   0  0  1  0  0  3  0  0  0  0  0  0
  191.4170  176.9790  139.0800 C   0  0  0  0  0  0  0  0  0  0  0  0
  192.5690  176.5780  139.1130 O   0  0  0  0  0  0  0  0  0  0  0  0
  190.7780  177.4690  140.3420 C   0  0  0  0  0  2  0  0  0  0  0  0
  190.8570  176.4350  141.3620 N   0  0  0  0  0  2  0  0  0  0  0  0
  189.5430  176.3250  141.9920 C   0  0  0  0  0  2  0  0  0  0  0  0
  188.1210  177.2030  144.5610 N   0  0  0  0  0  0  0  0  0  0  0  0
  185.9390  177.8250  145.2780 C   0  0  0  0  0  3  0  0  0  0  0  0
  190.9900  178.3420  143.8040 C   0  0  0  0  0  2  0  0  0  0  0  0
  185.6410  178.2670  143.9810 C   0  0  0  0  0  0  0  0  0  0  0  0
  190.0740  178.7430  142.6470 C   0  0  0  0  0  2  0  0  0  0  0  0
  187.8870  177.6850  143.3140 C   0  0  0  0  0  0  0  0  0  0  0  0
  188.9850  177.7170  142.3010 C   0  0  2  0  0  3  0  0  0  0  0  0
  188.7920  176.5460  147.3940 N   0  0  0  0  0  2  0  0  0  0  0  0
  187.5140  176.8660  146.8850 N   0  0  0  0  0  2  0  0  0  0  0  0
  187.2080  177.3060  145.5580 C   0  0  0  0  0  0  0  0  0  0  0  0
  186.6360  178.2190  142.9970 C   0  0  0  0  0  3  0  0  0  0  0  0
  190.0680  177.0970  147.0220 C   0  0  0  0  0  3  0  0  0  0  0  0
  190.4760  178.8340  145.1150 C   0  0  0  0  0  3  0  0  0  0  0  0
  190.2580  177.9840  146.0810 C   0  0  0  0  0  0  0  0  0  0  0  0
  184.3030  180.2120  143.7050 F   0  0  0  0  0  0  0  0  0  0  0  0
  183.9400  178.4490  142.3600 F   0  0  0  0  0  0  0  0  0  0  0  0
  183.3440  178.3510  144.5350 F   0  0  0  0  0  0  0  0  0  0  0  0
  184.2910  178.8310  143.6410 C   0  0  0  0  0  0  0  0  0  0  0  0
  191.0190  175.7830  136.8680 C   0  0  1  0  0  3  0  0  0  0  0  0
  190.9020  176.1530  135.4000 C   0  0  0  0  0  1  0  0  0  0  0  0
  192.4180  175.2680  137.1870 C   0  0  0  0  0  2  0  0  0  0  0  0
  192.4710  173.8200  137.0160 N   0  0  0  0  0  2  0  0  0  0  0  0
  193.6110  173.5070  136.1620 C   0  0  1  0  0  3  0  0  0  0  0  0
  194.8080  174.4190  136.4760 C   0  0  2  0  0  3  0  0  0  0  0  0
  197.0980  174.6510  137.6230 C   0  0  1  0  0  3  0  0  0  0  0  0
  198.5820  175.2870  134.6370 O   0  0  0  0  0  0  0  0  0  0  0  0
  195.1730  173.7460  138.7550 O   0  0  0  0  0  1  0  0  0  0  0  0
  196.5200  174.1620  134.5950 C   0  0  0  0  0  2  0  0  0  0  0  0
  198.1300  174.1270  136.6310 C   0  0  0  0  0  2  0  0  0  0  0  0
  195.4030  175.0080  135.1880 C   0  0  0  0  0  2  0  0  0  0  0  0
  195.8020  173.8360  137.5080 C   0  0  1  0  0  3  0  0  0  0  0  0
  197.8130  174.5550  135.2350 C   0  0  0  0  0  0  0  0  0  0  0  0
  197.6330  174.5440  138.9090 O   0  0  0  0  0  1  0  0  0  0  0  0
  193.9440  172.0160  136.2110 C   0  0  0  0  0  2  0  0  0  0  0  0
  193.4860  171.3610  135.0680 O   0  0  0  0  0  1  0  0  0  0  0  0
  189.1040  177.1330  137.9680 C   0  0  0  0  0  2  0  0  0  0  0  0
  188.4050  175.8590  138.0280 N   0  0  0  0  0  2  0  0  0  0  0  0
  187.4570  175.4550  137.0430 C   0  0  0  0  0  0  0  0  0  0  0  0
  186.8440  174.3620  137.1870 O   0  0  0  0  0  0  0  0  0  0  0  0
  187.2020  176.2860  135.8220 C   0  0  0  0  0  2  0  0  0  0  0  0
  186.0130  177.1770  136.0090 C   0  0  0  0  0  0  0  0  0  0  0  0
  185.6470  177.9380  135.0720 O   0  0  0  0  0  0  0  0  0  0  0  0
  185.6200  177.6470  138.3060 O   0  0  0  0  0  0  0  0  0  0  0  0
  185.2120  177.0940  137.2470 C   0  0  0  0  0  0  0  0  0  0  0  0
  183.9030  176.3550  137.2530 C   0  0  2  0  0  3  0  0  0  0  0  0
  182.9080  176.9760  138.1790 C   0  0  0  0  0  0  0  0  0  0  0  0
  181.1050  178.1070  140.0130 C   0  0  0  0  0  0  0  0  0  0  0  0
  181.7570  178.9160  139.0710 C   0  0  0  0  0  3  0  0  0  0  0  0
  182.2500  176.1650  139.1110 C   0  0  0  0  0  3  0  0  0  0  0  0
  182.6550  178.3550  138.1590 C   0  0  0  0  0  3  0  0  0  0  0  0
  181.3560  176.7260  140.0270 C   0  0  0  0  0  3  0  0  0  0  0  0
  180.1780  178.7360  141.0130 C   0  0  1  0  0  0  0  0  0  0  0  0
  180.7700  179.5190  142.0990 C   0  0  2  0  0  3  0  0  0  0  0  0
  179.7440  180.0250  143.0890 C   0  0  0  0  0  2  0  0  0  0  0  0
  180.1150  180.2110  140.9600 N   0  0  2  0  0  0  0  0  0  0  0  0
  179.1150  180.7130  141.8990 C   0  0  0  0  0  2  0  0  0  0  0  0
  178.9470  178.1010  141.2550 O   0  0  0  0  0  1  0  0  0  0  0  0
  184.0870  175.0030  137.5670 O   0  0  0  0  0  0  0  0  0  0  0  0
  183.2770  174.3540  136.7540 O   0  0  0  0  0  0  0  0  0  0  0  0
  183.8680  174.4780  135.4920 C   0  0  0  0  0  1  0  0  0  0  0  0
  1 42  1  1  0  0  0
  1  2  1  0  0  0  0
  2  3  2  0  0  0  0
  2  4  1  0  0  0  0
  4  5  1  0  0  0  0
  5  6  1  0  0  0  0
  7 16  2  0  0  0  0
  8 16  1  0  0  0  0
  9 19  1  0  0  0  0
 10  8  2  0  0  0  0
 11  9  1  0  0  0  0
 12  7  1  0  0  0  0
 13  6  1  1  0  0  0
 13 11  1  0  0  0  0
 13 12  1  0  0  0  0
 15 14  1  0  0  0  0
 16 15  1  0  0  0  0
 17 12  2  0  0  0  0
 17 10  1  0  0  0  0
 18 14  1  0  0  0  0
 19 20  2  0  0  0  0
 20 18  2  0  0  0  0
 22 24  1  0  0  0  0
 24 21  1  0  0  0  0
 24 10  1  0  0  0  0
 24 23  1  0  0  0  0
 25 26  1  6  0  0  0
 25 27  1  0  0  0  0
 25  1  1  0  0  0  0
 28 27  1  0  0  0  0
 29 40  1  1  0  0  0
 29 28  1  0  0  0  0
 30 29  1  6  0  0  0
 30 37  1  0  0  0  0
 31 39  1  1  0  0  0
 32 38  2  0  0  0  0
 34 36  1  0  0  0  0
 34 38  1  0  0  0  0
 35 31  1  0  0  0  0
 36 30  1  0  0  0  0
 37 31  1  0  0  0  0
 37 33  1  1  0  0  0
 38 35  1  0  0  0  0
 41 40  1  0  0  0  0
 42 43  1  0  0  0  0
 44 45  2  0  0  0  0
 44 43  1  0  0  0  0
 46 47  1  0  0  0  0
 46 44  1  0  0  0  0
 47 50  1  0  0  0  0
 48 47  2  0  0  0  0
 50 49  2  0  0  0  0
 51 50  1  1  0  0  0
 51 64  1  0  0  0  0
 51 52  1  0  0  0  0
 52 55  1  0  0  0  0
 53 57  1  0  0  0  0
 53 58  1  0  0  0  0
 54 53  2  0  0  0  0
 55 57  2  0  0  0  0
 56 52  2  0  0  0  0
 56 54  1  0  0  0  0
 58 63  1  1  0  0  0
 58 59  1  0  0  0  0
 59 60  1  1  0  0  0
 61 58  1  0  0  0  0
 61 62  1  1  0  0  0
 61 59  1  0  0  0  0
 62 60  1  0  0  0  0
 65 64  1  0  0  0  0
 66 65  1  0  0  0  0
M  END
>  <MODEL>
8

>  <REMARK>
 VINA RESULT:      -6.3      2.834      4.015
  Name = 
  22 active torsions:
  status: ('A' for Active; 'I' for Inactive)
    1  A    between atoms: C_1  and  C_34
    2  A    between atoms: N_3  and  C_36
    3  A    between atoms: C_4  and  C_6
    4  A    between atoms: O_5  and  C_34
    5  A    between atoms: O_5  and  O_41
    6  A    between atoms: C_9  and  C_26
    7  A    between atoms: C_9  and  N_60
    8  A    between atoms: CA_10  and  C_14
    9  A    between atoms: CA_10  and  C_15
   10  A    between atoms: CA_10  and  N_64
   11  A    between atoms: C_11  and  C_25
   12  A    between atoms: C_11  and  N_64
   13  A    between atoms: C_13  and  C_58
   14  A    between atoms: C_17  and  C_30
   15  A    between atoms: C_17  and  C_53
   16  A    between atoms: C_21  and  C_24
   17  A    between atoms: C_21  and  C_34
   18  A    between atoms: C_24  and  C_47
   19  A    between atoms: C_25  and  C_30
   20  A    between atoms: C_30  and  C_36
   21  A    between atoms: C_31  and  C_47
   22  A    between atoms: C_53  and  N_60
                            x       y       z     vdW  Elec       q    Type
                         _______ _______ _______ _____ _____    ______ ____

>  <TORSDO>
F 22

$$$$
=
 OpenBabel11042412483D

 66 71  0  0  1  0  0  0  0  0999 V2000
  190.8900  177.2420  138.6430 C   0  0  1  0  0  3  0  0  0  0  0  0
  191.0820  177.2860  140.1370 C   0  0  0  0  0  0  0  0  0  0  0  0
  192.1840  177.4820  140.6210 O   0  0  0  0  0  0  0  0  0  0  0  0
  189.9210  177.0280  141.0450 C   0  0  0  0  0  2  0  0  0  0  0  0
  189.2990  178.2900  141.4150 N   0  0  0  0  0  2  0  0  0  0  0  0
  189.4290  178.4470  142.8620 C   0  0  0  0  0  2  0  0  0  0  0  0
  188.9420  177.9240  145.8420 N   0  0  0  0  0  0  0  0  0  0  0  0
  190.1370  177.1300  147.7410 C   0  0  0  0  0  3  0  0  0  0  0  0
  186.7740  177.1230  143.6600 C   0  0  0  0  0  2  0  0  0  0  0  0
  190.9700  176.3790  146.8990 C   0  0  0  0  0  0  0  0  0  0  0  0
  188.0350  176.3420  143.2880 C   0  0  0  0  0  2  0  0  0  0  0  0
  189.6870  177.1550  145.0070 C   0  0  0  0  0  0  0  0  0  0  0  0
  189.3540  177.0830  143.5520 C   0  0  2  0  0  3  0  0  0  0  0  0
  187.0270  179.2710  147.6940 N   0  0  0  0  0  2  0  0  0  0  0  0
  188.2450  178.6500  148.0490 N   0  0  0  0  0  2  0  0  0  0  0  0
  189.1010  177.8930  147.1880 C   0  0  0  0  0  0  0  0  0  0  0  0
  190.7230  176.3730  145.5210 C   0  0  0  0  0  3  0  0  0  0  0  0
  186.0710  178.8650  146.6980 C   0  0  0  0  0  3  0  0  0  0  0  0
  186.3450  176.8470  145.0620 C   0  0  0  0  0  3  0  0  0  0  0  0
  186.2070  177.8380  145.9000 C   0  0  0  0  0  0  0  0  0  0  0  0
  192.8010  174.9340  146.4370 F   0  0  0  0  0  0  0  0  0  0  0  0
  192.9530  176.3540  148.1720 F   0  0  0  0  0  0  0  0  0  0  0  0
  191.5770  174.5690  148.2930 F   0  0  0  0  0  0  0  0  0  0  0  0
  192.0910  175.5470  147.4540 C   0  0  0  0  0  0  0  0  0  0  0  0
  191.6100  176.0710  137.9630 C   0  0  1  0  0  3  0  0  0  0  0  0
  191.0960  175.7970  136.5610 C   0  0  0  0  0  1  0  0  0  0  0  0
  193.1210  176.2740  137.9560 C   0  0  0  0  0  2  0  0  0  0  0  0
  193.7510  175.3250  137.0440 N   0  0  0  0  0  2  0  0  0  0  0  0
  194.5990  174.4370  137.8310 C   0  0  1  0  0  3  0  0  0  0  0  0
  195.0150  173.2010  137.0180 C   0  0  2  0  0  3  0  0  0  0  0  0
  195.4620  170.6690  137.0220 C   0  0  1  0  0  3  0  0  0  0  0  0
  192.9840  170.1790  134.7540 O   0  0  0  0  0  0  0  0  0  0  0  0
  196.4130  172.1500  138.6670 O   0  0  0  0  0  1  0  0  0  0  0  0
  192.9050  172.1540  136.0250 C   0  0  0  0  0  2  0  0  0  0  0  0
  194.1120  169.9940  136.8080 C   0  0  0  0  0  2  0  0  0  0  0  0
  194.1220  173.0330  135.7790 C   0  0  0  0  0  2  0  0  0  0  0  0
  195.2840  171.9370  137.8680 C   0  0  1  0  0  3  0  0  0  0  0  0
  193.2880  170.7270  135.8000 C   0  0  0  0  0  0  0  0  0  0  0  0
  196.3070  169.7630  137.6670 O   0  0  0  0  0  1  0  0  0  0  0  0
  195.7760  175.1960  138.4420 C   0  0  0  0  0  2  0  0  0  0  0  0
  195.5210  175.5340  139.7720 O   0  0  0  0  0  1  0  0  0  0  0  0
  189.4550  177.4920  138.1560 C   0  0  0  0  0  2  0  0  0  0  0  0
  188.6320  176.3020  138.3090 N   0  0  0  0  0  2  0  0  0  0  0  0
  187.6500  175.9190  137.3490 C   0  0  0  0  0  0  0  0  0  0  0  0
  186.9310  174.9070  137.5720 O   0  0  0  0  0  0  0  0  0  0  0  0
  187.4790  176.6750  136.0660 C   0  0  0  0  0  2  0  0  0  0  0  0
  186.6750  177.9210  136.2720 C   0  0  0  0  0  0  0  0  0  0  0  0
  186.8090  178.8920  135.4780 O   0  0  0  0  0  0  0  0  0  0  0  0
  185.9460  178.4650  138.4690 O   0  0  0  0  0  0  0  0  0  0  0  0
  185.6560  177.9790  137.3400 C   0  0  0  0  0  0  0  0  0  0  0  0
  184.2670  177.4640  137.0890 C   0  0  2  0  0  3  0  0  0  0  0  0
  183.3010  177.9060  138.1410 C   0  0  0  0  0  0  0  0  0  0  0  0
  181.4320  178.8080  140.0350 C   0  0  0  0  0  0  0  0  0  0  0  0
  181.5160  177.4440  139.7160 C   0  0  0  0  0  3  0  0  0  0  0  0
  183.2280  179.2660  138.4650 C   0  0  0  0  0  3  0  0  0  0  0  0
  182.4450  176.9950  138.7730 C   0  0  0  0  0  3  0  0  0  0  0  0
  182.2960  179.7170  139.4040 C   0  0  0  0  0  3  0  0  0  0  0  0
  180.3980  179.2760  141.0170 C   0  0  1  0  0  0  0  0  0  0  0  0
  180.0450  178.3820  142.1210 C   0  0  2  0  0  3  0  0  0  0  0  0
  178.9310  178.9260  142.9890 C   0  0  0  0  0  2  0  0  0  0  0  0
  180.9120  179.5610  142.3730 N   0  0  2  0  0  0  0  0  0  0  0  0
  179.8510  180.1030  143.2180 C   0  0  0  0  0  2  0  0  0  0  0  0
  179.4180  180.1740  140.5580 O   0  0  0  0  0  1  0  0  0  0  0  0
  184.2580  176.0680  136.9720 O   0  0  0  0  0  0  0  0  0  0  0  0
  183.1220  175.7880  136.3650 O   0  0  0  0  0  0  0  0  0  0  0  0
  183.4920  175.0020  135.2680 C   0  0  0  0  0  1  0  0  0  0  0  0
  1 42  1  1  0  0  0
  1  2  1  0  0  0  0
  2  3  2  0  0  0  0
  2  4  1  0  0  0  0
  4  5  1  0  0  0  0
  5  6  1  0  0  0  0
  7 16  2  0  0  0  0
  9 19  1  0  0  0  0
 10 24  1  0  0  0  0
 10  8  2  0  0  0  0
 11 13  1  0  0  0  0
 11  9  1  0  0  0  0
 12 17  2  0  0  0  0
 12  7  1  0  0  0  0
 13  6  1  1  0  0  0
 13 12  1  0  0  0  0
 14 15  1  0  0  0  0
 16  8  1  0  0  0  0
 16 15  1  0  0  0  0
 17 10  1  0  0  0  0
 18 14  1  0  0  0  0
 19 20  2  0  0  0  0
 20 18  2  0  0  0  0
 21 24  1  0  0  0  0
 24 22  1  0  0  0  0
 24 23  1  0  0  0  0
 25 26  1  6  0  0  0
 25  1  1  0  0  0  0
 27 25  1  0  0  0  0
 28 29  1  0  0  0  0
 28 27  1  0  0  0  0
 29 40  1  6  0  0  0
 30 29  1  1  0  0  0
 30 37  1  0  0  0  0
 31 39  1  1  0  0  0
 31 37  1  0  0  0  0
 32 38  2  0  0  0  0
 35 31  1  0  0  0  0
 36 34  1  0  0  0  0
 36 30  1  0  0  0  0
 37 33  1  6  0  0  0
 38 34  1  0  0  0  0
 38 35  1  0  0  0  0
 40 41  1  0  0  0  0
 42 43  1  0  0  0  0
 44 45  2  0  0  0  0
 44 43  1  0  0  0  0
 46 47  1  0  0  0  0
 46 44  1  0  0  0  0
 47 50  1  0  0  0  0
 48 47  2  0  0  0  0
 50 49  2  0  0  0  0
 51 64  1  1  0  0  0
 51 50  1  0  0  0  0
 51 52  1  0  0  0  0
 52 55  2  0  0  0  0
 52 56  1  0  0  0  0
 53 58  1  0  0  0  0
 54 53  1  0  0  0  0
 55 57  1  0  0  0  0
 56 54  2  0  0  0  0
 57 53  2  0  0  0  0
 58 63  1  6  0  0  0
 58 59  1  0  0  0  0
 58 61  1  0  0  0  0
 59 61  1  0  0  0  0
 59 60  1  1  0  0  0
 60 62  1  0  0  0  0
 61 62  1  1  0  0  0
 65 64  1  0  0  0  0
 66 65  1  0  0  0  0
M  END
>  <MODEL>
9

>  <REMARK>
 VINA RESULT:      -6.3      1.721      2.211
  Name = 
  22 active torsions:
  status: ('A' for Active; 'I' for Inactive)
    1  A    between atoms: C_1  and  C_34
    2  A    between atoms: N_3  and  C_36
    3  A    between atoms: C_4  and  C_6
    4  A    between atoms: O_5  and  C_34
    5  A    between atoms: O_5  and  O_41
    6  A    between atoms: C_9  and  C_26
    7  A    between atoms: C_9  and  N_60
    8  A    between atoms: CA_10  and  C_14
    9  A    between atoms: CA_10  and  C_15
   10  A    between atoms: CA_10  and  N_64
   11  A    between atoms: C_11  and  C_25
   12  A    between atoms: C_11  and  N_64
   13  A    between atoms: C_13  and  C_58
   14  A    between atoms: C_17  and  C_30
   15  A    between atoms: C_17  and  C_53
   16  A    between atoms: C_21  and  C_24
   17  A    between atoms: C_21  and  C_34
   18  A    between atoms: C_24  and  C_47
   19  A    between atoms: C_25  and  C_30
   20  A    between atoms: C_30  and  C_36
   21  A    between atoms: C_31  and  C_47
   22  A    between atoms: C_53  and  N_60
                            x       y       z     vdW  Elec       q    Type
                         _______ _______ _______ _____ _____    ______ ____

>  <TORSDO>
F 22

$$$$
