=
 OpenBabel11032419073D

 42 47  0  0  1  0  0  0  0  0999 V2000
  183.8590  178.2930  140.9670 N   0  0  0  0  0  1  0  0  0  0  0  0
  185.8930  178.3230  146.2830 C   0  0  0  0  0  3  0  0  0  0  0  0
  187.5510  177.5530  144.1190 N   0  0  0  0  0  0  0  0  0  0  0  0
  185.3710  178.3660  144.9120 C   0  0  0  0  0  0  0  0  0  0  0  0
  190.7740  176.8800  144.8820 S   0  0  0  0  0  0  0  0  0  0  0  0
  187.1870  178.1020  146.5120 C   0  0  0  0  0  0  0  0  0  0  0  0
  188.8310  177.4410  148.1640 N   0  0  0  0  0  0  0  0  0  0  0  0
  183.5290  178.7330  143.3760 C   0  0  0  0  0  0  0  0  0  0  0  0
  186.1910  177.9530  143.8500 C   0  0  2  0  0  3  0  0  0  0  0  0
  191.0080  176.5440  147.3390 C   0  0  0  0  0  3  0  0  0  0  0  0
  189.7300  177.0670  147.1140 C   0  0  0  0  0  0  0  0  0  0  0  0
  185.6720  177.9330  142.5480 C   0  0  0  0  0  3  0  0  0  0  0  0
  189.4130  177.2750  145.7820 C   0  0  0  0  0  0  0  0  0  0  0  0
  184.3520  178.3220  142.3050 C   0  0  0  0  0  0  0  0  0  0  0  0
  188.1840  178.0420  145.3590 C   0  0  0  0  0  0  0  0  0  0  0  0
  184.0490  178.7430  144.6750 C   0  0  0  0  0  3  0  0  0  0  0  0
  187.6490  177.9180  147.9050 C   0  0  0  0  0  3  0  0  0  0  0  0
  191.7400  176.3620  146.1660 C   0  0  0  0  0  3  0  0  0  0  0  0
  179.7380  178.7500  143.9680 C   0  0  0  0  0  3  0  0  0  0  0  0
  181.2030  178.6010  144.2960 C   0  0  0  0  0  2  0  0  0  0  0  0
  182.1010  179.1570  143.1920 C   0  0  2  0  0  3  0  0  0  0  0  0
  181.5660  178.7630  141.8220 C   0  0  0  0  0  2  0  0  0  0  0  0
  179.3100  179.0440  142.7840 N   0  0  0  0  0  0  0  0  0  0  0  0
  180.1770  179.3690  141.6650 C   0  0  0  0  0  2  0  0  0  0  0  0
  188.3410  177.0520  143.0710 N   0  0  0  0  0  2  0  0  0  0  0  0
  188.7060  178.1750  142.2240 C   0  0  0  0  0  2  0  0  0  0  0  0
  190.0320  177.8890  141.5530 C   0  0  0  0  0  2  0  0  0  0  0  0
  189.8740  176.7180  140.6080 C   0  0  0  0  0  2  0  0  0  0  0  0
  190.8450  176.8690  139.4540 C   0  0  0  0  0  2  0  0  0  0  0  0
  190.7650  176.7700  137.0790 O   0  0  0  0  0  1  0  0  0  0  0  0
  190.0990  177.2810  138.1960 C   0  0  1  0  0  3  0  0  0  0  0  0
  187.0940  175.6100  137.0770 C   0  0  0  0  0  2  0  0  0  0  0  0
  188.4870  175.7430  137.2680 O   0  0  0  0  0  0  0  0  0  0  0  0
  188.6680  176.7510  138.2350 C   0  0  2  0  0  3  0  0  0  0  0  0
  186.4630  176.9790  136.8610 C   0  0  1  0  0  0  0  0  0  0  0  0
  187.4720  178.0540  137.8710 P   0  0  1  0  0  0  0  0  0  0  0  0
  186.6930  178.6030  139.2690 O   0  0  0  0  0  1  0  0  0  0  0  0
  188.0670  179.1970  137.0780 O   0  0  0  0  0  0  0  0  0  0  0  0
  186.5650  177.3480  135.5180 O   0  0  0  0  0  1  0  0  0  0  0  0
  185.0100  177.0100  137.3180 C   0  0  0  0  0  2  0  0  0  0  0  0
  184.4190  175.6820  137.2540 N   0  0  0  0  0  2  0  0  0  0  0  0
  183.3850  175.6380  138.2710 C   0  0  0  0  0  1  0  0  0  0  0  0
  1 14  1  0  0  0  0
  2  6  1  0  0  0  0
  3 15  1  0  0  0  0
  4  2  2  0  0  0  0
  5 13  1  0  0  0  0
  5 18  1  0  0  0  0
  6 17  1  0  0  0  0
  8 16  2  0  0  0  0
  9 12  1  1  0  0  0
  9  3  1  0  0  0  0
  9  4  1  0  0  0  0
 11 10  1  0  0  0  0
 11  7  1  0  0  0  0
 13 11  2  0  0  0  0
 14 12  2  0  0  0  0
 14  8  1  0  0  0  0
 15 13  1  0  0  0  0
 15  6  2  0  0  0  0
 16  4  1  0  0  0  0
 17  7  2  0  0  0  0
 18 10  2  0  0  0  0
 19 20  1  0  0  0  0
 21  8  1  1  0  0  0
 21 20  1  0  0  0  0
 22 21  1  0  0  0  0
 23 19  2  0  0  0  0
 24 22  1  0  0  0  0
 24 23  1  0  0  0  0
 25  3  1  0  0  0  0
 26 25  1  0  0  0  0
 27 26  1  0  0  0  0
 28 27  1  0  0  0  0
 29 28  1  0  0  0  0
 31 30  1  6  0  0  0
 31 29  1  0  0  0  0
 32 33  1  0  0  0  0
 33 34  1  0  0  0  0
 34 31  1  6  0  0  0
 35 39  1  6  0  0  0
 35 32  1  0  0  0  0
 35 40  1  0  0  0  0
 35 36  1  0  0  0  0
 36 38  2  6  0  0  0
 36 34  1  0  0  0  0
 36 37  1  0  0  0  0
 41 40  1  0  0  0  0
 41 42  1  0  0  0  0
M  END
>  <MODEL>
1

>  <REMARK>
 VINA RESULT:     -10.1      0.000      0.000
  Name = 
  10 active torsions:
  status: ('A' for Active; 'I' for Inactive)
    1  A    between atoms: C_5  and  C_36
    2  A    between atoms: N_6  and  N_21
    3  A    between atoms: C_7  and  C_25
    4  A    between atoms: N_8  and  C_25
    5  A    between atoms: C_13  and  C_20
    6  A    between atoms: C_15  and  C_17
    7  A    between atoms: C_15  and  C_41
    8  A    between atoms: C_17  and  C_22
    9  A    between atoms: N_21  and  C_22
   10  A    between atoms: C_36  and  C_41
                            x       y       z     vdW  Elec       q    Type
                         _______ _______ _______ _____ _____    ______ ____

>  <TORSDO>
F 10

$$$$
=
 OpenBabel11032419073D

 42 47  0  0  1  0  0  0  0  0999 V2000
  183.7240  178.2600  140.9060 N   0  0  0  0  0  1  0  0  0  0  0  0
  185.7200  178.3450  146.2350 C   0  0  0  0  0  3  0  0  0  0  0  0
  187.4080  177.6040  144.0840 N   0  0  0  0  0  0  0  0  0  0  0  0
  185.2070  178.3740  144.8600 C   0  0  0  0  0  0  0  0  0  0  0  0
  190.6390  176.9980  144.8710 S   0  0  0  0  0  0  0  0  0  0  0  0
  187.0170  178.1510  146.4730 C   0  0  0  0  0  0  0  0  0  0  0  0
  188.6620  177.5270  148.1380 N   0  0  0  0  0  0  0  0  0  0  0  0
  183.3680  178.6990  143.3110 C   0  0  0  0  0  0  0  0  0  0  0  0
  186.0420  177.9750  143.8050 C   0  0  2  0  0  3  0  0  0  0  0  0
  190.8630  176.6730  147.3310 C   0  0  0  0  0  3  0  0  0  0  0  0
  189.5760  177.1700  147.0950 C   0  0  0  0  0  0  0  0  0  0  0  0
  185.5330  177.9410  142.4990 C   0  0  0  0  0  3  0  0  0  0  0  0
  189.2640  177.3670  145.7610 C   0  0  0  0  0  0  0  0  0  0  0  0
  184.2060  178.3030  142.2460 C   0  0  0  0  0  0  0  0  0  0  0  0
  188.0230  178.1080  145.3270 C   0  0  0  0  0  0  0  0  0  0  0  0
  183.8790  178.7230  144.6130 C   0  0  0  0  0  3  0  0  0  0  0  0
  187.4730  177.9800  147.8690 C   0  0  0  0  0  3  0  0  0  0  0  0
  191.6060  176.5030  146.1630 C   0  0  0  0  0  3  0  0  0  0  0  0
  179.5920  178.7610  143.9870 C   0  0  0  0  0  3  0  0  0  0  0  0
  181.0650  178.6550  144.2940 C   0  0  0  0  0  2  0  0  0  0  0  0
  181.9330  179.0930  143.1160 C   0  0  2  0  0  3  0  0  0  0  0  0
  181.3700  178.5520  141.8100 C   0  0  0  0  0  2  0  0  0  0  0  0
  179.1350  178.9240  142.7880 N   0  0  0  0  0  0  0  0  0  0  0  0
  179.9730  179.1300  141.6210 C   0  0  0  0  0  2  0  0  0  0  0  0
  188.2160  177.1160  143.0430 N   0  0  0  0  0  2  0  0  0  0  0  0
  188.4970  178.2290  142.1510 C   0  0  0  0  0  2  0  0  0  0  0  0
  189.3290  177.7400  140.9850 C   0  0  0  0  0  2  0  0  0  0  0  0
  188.6460  178.1160  139.6880 C   0  0  0  0  0  2  0  0  0  0  0  0
  188.5350  176.8900  138.8050 C   0  0  0  0  0  2  0  0  0  0  0  0
  189.8840  178.2590  137.4030 O   0  0  0  0  0  1  0  0  0  0  0  0
  189.6030  176.9280  137.7240 C   0  0  1  0  0  3  0  0  0  0  0  0
  193.0410  176.5390  138.7740 C   0  0  0  0  0  2  0  0  0  0  0  0
  191.7770  177.1700  138.7430 O   0  0  0  0  0  0  0  0  0  0  0  0
  190.8710  176.2320  138.2110 C   0  0  2  0  0  3  0  0  0  0  0  0
  193.3350  175.8920  137.4270 C   0  0  1  0  0  0  0  0  0  0  0  0
  191.7180  175.3840  136.8590 P   0  0  1  0  0  0  0  0  0  0  0  0
  191.4730  173.7110  136.9110 O   0  0  0  0  0  1  0  0  0  0  0  0
  191.3810  175.9560  135.5010 O   0  0  0  0  0  0  0  0  0  0  0  0
  193.8780  176.8330  136.5500 O   0  0  0  0  0  1  0  0  0  0  0  0
  194.2630  174.6910  137.5690 C   0  0  0  0  0  2  0  0  0  0  0  0
  195.3200  174.9640  138.5300 N   0  0  0  0  0  2  0  0  0  0  0  0
  195.9350  173.6880  138.8430 C   0  0  0  0  0  1  0  0  0  0  0  0
  1 14  1  0  0  0  0
  2  6  1  0  0  0  0
  3 15  1  0  0  0  0
  4  2  2  0  0  0  0
  5 13  1  0  0  0  0
  5 18  1  0  0  0  0
  6 17  1  0  0  0  0
  8 16  2  0  0  0  0
  9 12  1  1  0  0  0
  9  3  1  0  0  0  0
  9  4  1  0  0  0  0
 11 10  1  0  0  0  0
 11  7  1  0  0  0  0
 13 11  2  0  0  0  0
 14 12  2  0  0  0  0
 14  8  1  0  0  0  0
 15 13  1  0  0  0  0
 15  6  2  0  0  0  0
 16  4  1  0  0  0  0
 17  7  2  0  0  0  0
 18 10  2  0  0  0  0
 19 20  1  0  0  0  0
 21  8  1  1  0  0  0
 21 20  1  0  0  0  0
 22 21  1  0  0  0  0
 23 19  2  0  0  0  0
 24 22  1  0  0  0  0
 24 23  1  0  0  0  0
 25  3  1  0  0  0  0
 26 25  1  0  0  0  0
 27 26  1  0  0  0  0
 28 27  1  0  0  0  0
 29 28  1  0  0  0  0
 31 30  1  1  0  0  0
 31 29  1  0  0  0  0
 33 32  1  0  0  0  0
 34 31  1  6  0  0  0
 34 33  1  0  0  0  0
 35 39  1  6  0  0  0
 35 40  1  0  0  0  0
 35 32  1  0  0  0  0
 36 38  2  6  0  0  0
 36 37  1  0  0  0  0
 36 35  1  0  0  0  0
 36 34  1  0  0  0  0
 40 41  1  0  0  0  0
 41 42  1  0  0  0  0
M  END
>  <MODEL>
2

>  <REMARK>
 VINA RESULT:      -9.6      2.245      3.948
  Name = 
  10 active torsions:
  status: ('A' for Active; 'I' for Inactive)
    1  A    between atoms: C_5  and  C_36
    2  A    between atoms: N_6  and  N_21
    3  A    between atoms: C_7  and  C_25
    4  A    between atoms: N_8  and  C_25
    5  A    between atoms: C_13  and  C_20
    6  A    between atoms: C_15  and  C_17
    7  A    between atoms: C_15  and  C_41
    8  A    between atoms: C_17  and  C_22
    9  A    between atoms: N_21  and  C_22
   10  A    between atoms: C_36  and  C_41
                            x       y       z     vdW  Elec       q    Type
                         _______ _______ _______ _____ _____    ______ ____

>  <TORSDO>
F 10

$$$$
=
 OpenBabel11032419073D

 42 47  0  0  1  0  0  0  0  0999 V2000
  188.3550  178.0260  138.7520 N   0  0  0  0  0  1  0  0  0  0  0  0
  191.2280  176.6330  143.4630 C   0  0  0  0  0  3  0  0  0  0  0  0
  188.6470  177.7840  143.6470 N   0  0  0  0  0  0  0  0  0  0  0  0
  190.4780  176.9430  142.2410 C   0  0  0  0  0  0  0  0  0  0  0  0
  187.3620  178.0640  146.7610 S   0  0  0  0  0  0  0  0  0  0  0  0
  190.6450  176.7160  144.6590 C   0  0  0  0  0  0  0  0  0  0  0  0
  191.0170  176.8720  147.0480 N   0  0  0  0  0  0  0  0  0  0  0  0
  190.3620  177.0580  139.8200 C   0  0  0  0  0  0  0  0  0  0  0  0
  189.2120  177.5420  142.3420 C   0  0  0  0  0  0  0  0  0  0  0  0
  189.1750  177.8020  148.4500 C   0  0  0  0  0  3  0  0  0  0  0  0
  189.7060  177.4250  147.2110 C   0  0  0  0  0  0  0  0  0  0  0  0
  188.5240  177.8970  141.1740 C   0  0  0  0  0  3  0  0  0  0  0  0
  188.8360  177.5530  146.1420 C   0  0  0  0  0  0  0  0  0  0  0  0
  189.0870  177.6560  139.9180 C   0  0  0  0  0  0  0  0  0  0  0  0
  189.1480  176.9820  144.7800 C   0  0  0  0  0  0  0  0  0  0  0  0
  191.0490  176.7130  140.9890 C   0  0  0  0  0  2  0  0  0  0  0  0
  191.4700  176.5410  145.8740 C   0  0  0  0  0  3  0  0  0  0  0  0
  187.8430  178.2080  148.3730 C   0  0  0  0  0  3  0  0  0  0  0  0
  191.2950  175.0600  136.6810 C   0  0  0  0  0  3  0  0  0  0  0  0
  190.4450  175.5380  137.8320 C   0  0  0  0  0  2  0  0  0  0  0  0
  191.0320  176.7760  138.5070 C   0  0  2  0  0  3  0  0  0  0  0  0
  192.5390  176.6350  138.6590 C   0  0  0  0  0  2  0  0  0  0  0  0
  192.5040  175.4730  136.4820 N   0  0  0  0  0  0  0  0  0  0  0  0
  193.1460  176.5120  137.2670 C   0  0  0  0  0  2  0  0  0  0  0  0
  187.4230  178.4680  143.7510 N   0  0  0  0  0  2  0  0  0  0  0  0
  186.3810  177.5710  143.2770 C   0  0  0  0  0  2  0  0  0  0  0  0
  185.0350  178.2490  143.4140 C   0  0  0  0  0  2  0  0  0  0  0  0
  184.2960  178.1690  142.0970 C   0  0  0  0  0  2  0  0  0  0  0  0
  184.9440  179.1080  141.1000 C   0  0  0  0  0  2  0  0  0  0  0  0
  184.4490  180.3060  139.1050 O   0  0  0  0  0  1  0  0  0  0  0  0
  184.1340  179.1440  139.8140 C   0  0  1  0  0  3  0  0  0  0  0  0
  185.0040  177.2050  136.8880 C   0  0  0  0  0  2  0  0  0  0  0  0
  185.1280  178.2870  137.7880 O   0  0  0  0  0  0  0  0  0  0  0  0
  184.4440  177.9150  138.9620 C   0  0  2  0  0  3  0  0  0  0  0  0
  183.5500  176.7620  136.8010 C   0  0  1  0  0  0  0  0  0  0  0  0
  182.9330  177.0690  138.4500 P   0  0  1  0  0  0  0  0  0  0  0  0
  182.6620  175.6620  139.3500 O   0  0  0  0  0  1  0  0  0  0  0  0
  181.7210  177.9750  138.4510 O   0  0  0  0  0  0  0  0  0  0  0  0
  182.8610  177.5500  135.8770 O   0  0  0  0  0  1  0  0  0  0  0  0
  183.4310  175.2850  136.4440 C   0  0  0  0  0  2  0  0  0  0  0  0
  182.1090  174.9860  135.9160 N   0  0  0  0  0  2  0  0  0  0  0  0
  181.6870  173.7430  136.5350 C   0  0  0  0  0  1  0  0  0  0  0  0
  1 14  1  0  0  0  0
  2  6  1  0  0  0  0
  3 25  1  0  0  0  0
  3 15  1  0  0  0  0
  4  9  1  0  0  0  0
  4  2  2  0  0  0  0
  5 18  1  0  0  0  0
  6 15  2  0  0  0  0
  6 17  1  0  0  0  0
  7 11  1  0  0  0  0
  8 14  2  0  0  0  0
  8 16  1  0  0  0  0
  9  3  1  0  0  0  0
 11 10  1  0  0  0  0
 12  9  2  0  0  0  0
 13  5  1  0  0  0  0
 13 11  2  0  0  0  0
 14 12  1  0  0  0  0
 15 13  1  0  0  0  0
 16  4  1  0  0  0  0
 17  7  2  0  0  0  0
 18 10  2  0  0  0  0
 19 20  1  0  0  0  0
 20 21  1  0  0  0  0
 21 22  1  0  0  0  0
 21  8  1  1  0  0  0
 23 19  2  0  0  0  0
 23 24  1  0  0  0  0
 24 22  1  0  0  0  0
 26 27  1  0  0  0  0
 26 25  1  0  0  0  0
 28 27  1  0  0  0  0
 29 28  1  0  0  0  0
 31 30  1  6  0  0  0
 31 29  1  0  0  0  0
 32 33  1  0  0  0  0
 33 34  1  0  0  0  0
 34 31  1  6  0  0  0
 35 39  1  6  0  0  0
 35 32  1  0  0  0  0
 35 36  1  0  0  0  0
 36 38  2  1  0  0  0
 36 34  1  0  0  0  0
 36 37  1  0  0  0  0
 40 35  1  0  0  0  0
 41 40  1  0  0  0  0
 41 42  1  0  0  0  0
M  END
>  <MODEL>
3

>  <REMARK>
 VINA RESULT:      -9.3      2.833      6.494
  Name = 
  10 active torsions:
  status: ('A' for Active; 'I' for Inactive)
    1  A    between atoms: C_5  and  C_36
    2  A    between atoms: N_6  and  N_21
    3  A    between atoms: C_7  and  C_25
    4  A    between atoms: N_8  and  C_25
    5  A    between atoms: C_13  and  C_20
    6  A    between atoms: C_15  and  C_17
    7  A    between atoms: C_15  and  C_41
    8  A    between atoms: C_17  and  C_22
    9  A    between atoms: N_21  and  C_22
   10  A    between atoms: C_36  and  C_41
                            x       y       z     vdW  Elec       q    Type
                         _______ _______ _______ _____ _____    ______ ____

>  <TORSDO>
F 10

$$$$
=
 OpenBabel11032419073D

 42 47  0  0  1  0  0  0  0  0999 V2000
  185.1710  179.1730  140.0540 N   0  0  0  0  0  1  0  0  0  0  0  0
  186.0250  177.7250  145.4920 C   0  0  0  0  0  3  0  0  0  0  0  0
  188.2150  177.9540  143.7090 N   0  0  0  0  0  0  0  0  0  0  0  0
  185.7970  178.1460  144.1050 C   0  0  0  0  0  0  0  0  0  0  0  0
  191.2830  177.5230  145.0600 S   0  0  0  0  0  0  0  0  0  0  0  0
  187.2630  177.6230  145.9770 C   0  0  0  0  0  0  0  0  0  0  0  0
  188.6380  176.6880  147.7380 N   0  0  0  0  0  0  0  0  0  0  0  0
  184.2700  178.7390  142.3140 C   0  0  0  0  0  0  0  0  0  0  0  0
  186.8850  178.2260  143.2210 C   0  0  2  0  0  3  0  0  0  0  0  0
  191.0780  176.4290  147.2890 C   0  0  0  0  0  3  0  0  0  0  0  0
  189.7910  176.8130  146.8980 C   0  0  0  0  0  0  0  0  0  0  0  0
  186.6580  178.5660  141.8800 C   0  0  0  0  0  3  0  0  0  0  0  0
  189.7150  177.4030  145.6480 C   0  0  0  0  0  0  0  0  0  0  0  0
  185.3630  178.8260  141.4230 C   0  0  0  0  0  0  0  0  0  0  0  0
  188.4620  178.0880  145.1580 C   0  0  0  0  0  0  0  0  0  0  0  0
  184.5010  178.3920  143.6500 C   0  0  0  0  0  3  0  0  0  0  0  0
  187.4590  177.0550  147.3280 C   0  0  0  0  0  3  0  0  0  0  0  0
  192.0550  176.7490  146.3460 C   0  0  0  0  0  3  0  0  0  0  0  0
  180.4650  179.0370  142.6960 C   0  0  0  0  0  3  0  0  0  0  0  0
  181.9180  179.0880  143.0970 C   0  0  0  0  0  2  0  0  0  0  0  0
  182.8530  178.9970  141.8940 C   0  0  2  0  0  3  0  0  0  0  0  0
  182.3550  177.9470  140.9110 C   0  0  0  0  0  2  0  0  0  0  0  0
  180.0750  178.6710  141.5190 N   0  0  0  0  0  0  0  0  0  0  0  0
  180.9770  178.3740  140.4200 C   0  0  0  0  0  2  0  0  0  0  0  0
  189.2910  177.9430  142.8060 N   0  0  0  0  0  2  0  0  0  0  0  0
  189.2790  176.6570  142.1290 C   0  0  0  0  0  2  0  0  0  0  0  0
  190.1500  176.7310  140.8940 C   0  0  0  0  0  2  0  0  0  0  0  0
  189.2940  177.0840  139.6970 C   0  0  0  0  0  2  0  0  0  0  0  0
  190.1440  177.7970  138.6650 C   0  0  0  0  0  2  0  0  0  0  0  0
  191.8450  176.3260  137.8860 O   0  0  0  0  0  1  0  0  0  0  0  0
  190.5740  176.8220  137.5810 C   0  0  1  0  0  3  0  0  0  0  0  0
  189.3450  173.4690  137.0140 C   0  0  0  0  0  2  0  0  0  0  0  0
  190.2460  174.4310  137.5210 O   0  0  0  0  0  0  0  0  0  0  0  0
  189.5770  175.6700  137.4830 C   0  0  2  0  0  3  0  0  0  0  0  0
  188.7420  173.9560  135.7040 C   0  0  1  0  0  0  0  0  0  0  0  0
  188.6550  175.7260  135.9310 P   0  0  1  0  0  0  0  0  0  0  0  0
  187.0810  176.3070  136.1530 O   0  0  0  0  0  1  0  0  0  0  0  0
  189.3800  176.4830  134.8410 O   0  0  0  0  0  0  0  0  0  0  0  0
  189.5940  173.6500  134.6400 O   0  0  0  0  0  1  0  0  0  0  0  0
  187.3560  173.3690  135.4680 C   0  0  0  0  0  2  0  0  0  0  0  0
  187.2210  172.0790  136.1260 N   0  0  0  0  0  2  0  0  0  0  0  0
  187.3730  171.0690  135.0940 C   0  0  0  0  0  1  0  0  0  0  0  0
  1 14  1  0  0  0  0
  2  6  1  0  0  0  0
  3 15  1  0  0  0  0
  4  2  2  0  0  0  0
  5 13  1  0  0  0  0
  5 18  1  0  0  0  0
  6 17  1  0  0  0  0
  8 16  2  0  0  0  0
  9 12  1  6  0  0  0
  9  3  1  0  0  0  0
  9  4  1  0  0  0  0
 11 10  1  0  0  0  0
 11  7  1  0  0  0  0
 13 11  2  0  0  0  0
 14 12  2  0  0  0  0
 14  8  1  0  0  0  0
 15 13  1  0  0  0  0
 15  6  2  0  0  0  0
 16  4  1  0  0  0  0
 17  7  2  0  0  0  0
 18 10  2  0  0  0  0
 19 20  1  0  0  0  0
 21  8  1  1  0  0  0
 21 20  1  0  0  0  0
 22 21  1  0  0  0  0
 23 19  2  0  0  0  0
 24 22  1  0  0  0  0
 24 23  1  0  0  0  0
 25  3  1  0  0  0  0
 26 25  1  0  0  0  0
 27 26  1  0  0  0  0
 28 27  1  0  0  0  0
 29 28  1  0  0  0  0
 31 30  1  1  0  0  0
 31 29  1  0  0  0  0
 32 33  1  0  0  0  0
 34 33  1  0  0  0  0
 34 31  1  6  0  0  0
 35 39  1  6  0  0  0
 35 36  1  0  0  0  0
 35 32  1  0  0  0  0
 36 38  2  6  0  0  0
 36 37  1  0  0  0  0
 36 34  1  0  0  0  0
 40 35  1  0  0  0  0
 40 41  1  0  0  0  0
 42 41  1  0  0  0  0
M  END
>  <MODEL>
4

>  <REMARK>
 VINA RESULT:      -9.1      1.894      2.348
  Name = 
  10 active torsions:
  status: ('A' for Active; 'I' for Inactive)
    1  A    between atoms: C_5  and  C_36
    2  A    between atoms: N_6  and  N_21
    3  A    between atoms: C_7  and  C_25
    4  A    between atoms: N_8  and  C_25
    5  A    between atoms: C_13  and  C_20
    6  A    between atoms: C_15  and  C_17
    7  A    between atoms: C_15  and  C_41
    8  A    between atoms: C_17  and  C_22
    9  A    between atoms: N_21  and  C_22
   10  A    between atoms: C_36  and  C_41
                            x       y       z     vdW  Elec       q    Type
                         _______ _______ _______ _____ _____    ______ ____

>  <TORSDO>
F 10

$$$$
=
 OpenBabel11032419073D

 42 47  0  0  1  0  0  0  0  0999 V2000
  189.3220  177.8750  141.8850 N   0  0  0  0  0  1  0  0  0  0  0  0
  183.8660  178.4630  143.3930 C   0  0  0  0  0  3  0  0  0  0  0  0
  184.6790  178.9750  140.7280 N   0  0  0  0  0  0  0  0  0  0  0  0
  185.2660  178.2620  143.0060 C   0  0  0  0  0  0  0  0  0  0  0  0
  182.2150  179.7310  138.5410 S   0  0  0  0  0  0  0  0  0  0  0  0
  182.9330  178.7090  142.4720 C   0  0  0  0  0  0  0  0  0  0  0  0
  180.6980  179.5580  142.0820 N   0  0  0  0  0  0  0  0  0  0  0  0
  187.5540  177.7200  143.6050 C   0  0  0  0  0  0  0  0  0  0  0  0
  185.6650  178.5480  141.6900 C   0  0  0  0  0  0  0  0  0  0  0  0
  180.1450  180.3510  139.7820 C   0  0  0  0  0  3  0  0  0  0  0  0
  181.0360  179.8050  140.7120 C   0  0  0  0  0  0  0  0  0  0  0  0
  187.0150  178.4160  141.3370 C   0  0  0  0  0  3  0  0  0  0  0  0
  182.2690  179.4450  140.1940 C   0  0  0  0  0  0  0  0  0  0  0  0
  187.9590  178.0020  142.2810 C   0  0  0  0  0  0  0  0  0  0  0  0
  183.2660  178.6340  140.9860 C   0  0  1  0  0  3  0  0  0  0  0  0
  186.2070  177.8600  143.9550 C   0  0  0  0  0  3  0  0  0  0  0  0
  181.5640  179.0540  142.9120 C   0  0  0  0  0  3  0  0  0  0  0  0
  180.6630  180.3950  138.4880 C   0  0  0  0  0  3  0  0  0  0  0  0
  188.8610  177.1390  147.1650 C   0  0  0  0  0  3  0  0  0  0  0  0
  187.8530  177.2760  146.0510 C   0  0  0  0  0  2  0  0  0  0  0  0
  188.5110  177.2780  144.6730 C   0  0  2  0  0  3  0  0  0  0  0  0
  189.7740  178.1270  144.6880 C   0  0  0  0  0  2  0  0  0  0  0  0
  190.1320  177.2950  146.9840 N   0  0  0  0  0  0  0  0  0  0  0  0
  190.7470  177.5120  145.6860 C   0  0  0  0  0  2  0  0  0  0  0  0
  185.0910  179.3510  139.4390 N   0  0  0  0  0  2  0  0  0  0  0  0
  185.2630  178.1330  138.6640 C   0  0  0  0  0  2  0  0  0  0  0  0
  185.9460  178.4630  137.3540 C   0  0  0  0  0  2  0  0  0  0  0  0
  186.8730  177.3310  136.9720 C   0  0  0  0  0  2  0  0  0  0  0  0
  187.7950  177.0220  138.1340 C   0  0  0  0  0  2  0  0  0  0  0  0
  189.2030  178.8700  138.6440 O   0  0  0  0  0  1  0  0  0  0  0  0
  189.1480  177.6800  137.9160 C   0  0  1  0  0  3  0  0  0  0  0  0
  192.5060  176.5290  138.6020 C   0  0  0  0  0  2  0  0  0  0  0  0
  191.4500  177.4670  138.6090 O   0  0  0  0  0  0  0  0  0  0  0  0
  190.2670  176.7430  138.3650 C   0  0  2  0  0  3  0  0  0  0  0  0
  192.4100  175.6420  137.3670 C   0  0  1  0  0  0  0  0  0  0  0  0
  190.6480  175.5150  137.0960 P   0  0  1  0  0  0  0  0  0  0  0  0
  190.0090  173.9950  137.4760 O   0  0  0  0  0  1  0  0  0  0  0  0
  190.2470  175.9590  135.7070 O   0  0  0  0  0  0  0  0  0  0  0  0
  193.0200  176.2680  136.2780 O   0  0  0  0  0  1  0  0  0  0  0  0
  193.0230  174.2690  137.6100 C   0  0  0  0  0  2  0  0  0  0  0  0
  194.4530  174.2840  137.3410 N   0  0  0  0  0  2  0  0  0  0  0  0
  195.0900  173.5920  138.4450 C   0  0  0  0  0  1  0  0  0  0  0  0
  1 14  1  0  0  0  0
  3 15  1  0  0  0  0
  3  9  1  0  0  0  0
  4  2  1  0  0  0  0
  4 16  1  0  0  0  0
  5 13  1  0  0  0  0
  6 17  1  0  0  0  0
  6  2  2  0  0  0  0
  7 17  2  0  0  0  0
  8 16  2  0  0  0  0
  9  4  2  0  0  0  0
 10 11  1  0  0  0  0
 11  7  1  0  0  0  0
 12  9  1  0  0  0  0
 12 14  2  0  0  0  0
 13 11  2  0  0  0  0
 14  8  1  0  0  0  0
 15 13  1  6  0  0  0
 15  6  1  0  0  0  0
 18  5  1  0  0  0  0
 18 10  2  0  0  0  0
 20 19  1  0  0  0  0
 21  8  1  6  0  0  0
 21 22  1  0  0  0  0
 21 20  1  0  0  0  0
 22 24  1  0  0  0  0
 23 19  2  0  0  0  0
 24 23  1  0  0  0  0
 25  3  1  0  0  0  0
 26 25  1  0  0  0  0
 27 26  1  0  0  0  0
 28 27  1  0  0  0  0
 28 29  1  0  0  0  0
 31 29  1  0  0  0  0
 31 30  1  1  0  0  0
 32 33  1  0  0  0  0
 34 31  1  6  0  0  0
 34 33  1  0  0  0  0
 35 39  1  6  0  0  0
 35 40  1  0  0  0  0
 35 32  1  0  0  0  0
 36 38  2  6  0  0  0
 36 35  1  0  0  0  0
 36 37  1  0  0  0  0
 36 34  1  0  0  0  0
 41 40  1  0  0  0  0
 41 42  1  0  0  0  0
M  END
>  <MODEL>
5

>  <REMARK>
 VINA RESULT:      -9.0      2.923      7.348
  Name = 
  10 active torsions:
  status: ('A' for Active; 'I' for Inactive)
    1  A    between atoms: C_5  and  C_36
    2  A    between atoms: N_6  and  N_21
    3  A    between atoms: C_7  and  C_25
    4  A    between atoms: N_8  and  C_25
    5  A    between atoms: C_13  and  C_20
    6  A    between atoms: C_15  and  C_17
    7  A    between atoms: C_15  and  C_41
    8  A    between atoms: C_17  and  C_22
    9  A    between atoms: N_21  and  C_22
   10  A    between atoms: C_36  and  C_41
                            x       y       z     vdW  Elec       q    Type
                         _______ _______ _______ _____ _____    ______ ____

>  <TORSDO>
F 10

$$$$
=
 OpenBabel11032419073D

 42 47  0  0  1  0  0  0  0  0999 V2000
  189.3000  177.7470  142.0450 N   0  0  0  0  0  1  0  0  0  0  0  0
  184.0460  178.4000  144.1300 C   0  0  0  0  0  3  0  0  0  0  0  0
  184.5680  178.8790  141.3880 N   0  0  0  0  0  0  0  0  0  0  0  0
  185.3940  178.1810  143.5950 C   0  0  0  0  0  0  0  0  0  0  0  0
  181.8880  179.6380  139.4730 S   0  0  0  0  0  0  0  0  0  0  0  0
  183.0210  178.6460  143.3140 C   0  0  0  0  0  0  0  0  0  0  0  0
  180.7630  179.5120  143.1590 N   0  0  0  0  0  0  0  0  0  0  0  0
  187.7290  177.6240  143.9480 C   0  0  0  0  0  0  0  0  0  0  0  0
  185.6500  178.4520  142.2410 C   0  0  0  0  0  0  0  0  0  0  0  0
  179.9700  180.2880  140.9250 C   0  0  0  0  0  3  0  0  0  0  0  0
  180.9530  179.7430  141.7580 C   0  0  0  0  0  0  0  0  0  0  0  0
  186.9530  178.3040  141.7450 C   0  0  0  0  0  3  0  0  0  0  0  0
  182.1190  179.3660  141.1140 C   0  0  0  0  0  0  0  0  0  0  0  0
  187.9900  177.8900  142.5860 C   0  0  0  0  0  0  0  0  0  0  0  0
  183.1890  178.5540  141.8000 C   0  0  1  0  0  3  0  0  0  0  0  0
  186.4290  177.7800  144.4410 C   0  0  0  0  0  3  0  0  0  0  0  0
  181.7100  179.0070  143.8950 C   0  0  0  0  0  3  0  0  0  0  0  0
  180.3450  180.3160  139.5820 C   0  0  0  0  0  3  0  0  0  0  0  0
  189.4260  177.0970  147.3480 C   0  0  0  0  0  3  0  0  0  0  0  0
  188.2990  177.2340  146.3550 C   0  0  0  0  0  2  0  0  0  0  0  0
  188.7930  177.1830  144.9100 C   0  0  2  0  0  3  0  0  0  0  0  0
  190.0690  177.9970  144.7550 C   0  0  0  0  0  2  0  0  0  0  0  0
  190.6710  177.2140  147.0170 N   0  0  0  0  0  0  0  0  0  0  0  0
  191.1360  177.3810  145.6520 C   0  0  0  0  0  2  0  0  0  0  0  0
  184.8420  179.2390  140.0570 N   0  0  0  0  0  2  0  0  0  0  0  0
  184.8550  178.0180  139.2690 C   0  0  0  0  0  2  0  0  0  0  0  0
  185.4420  178.3070  137.9040 C   0  0  0  0  0  2  0  0  0  0  0  0
  184.9180  177.2970  136.9080 C   0  0  0  0  0  2  0  0  0  0  0  0
  186.0850  176.6360  136.2030 C   0  0  0  0  0  2  0  0  0  0  0  0
  186.2270  174.4610  137.1560 O   0  0  0  0  0  1  0  0  0  0  0  0
  186.8270  175.7230  137.1650 C   0  0  1  0  0  3  0  0  0  0  0  0
  190.2410  174.5320  137.1700 C   0  0  0  0  0  2  0  0  0  0  0  0
  188.8360  174.3860  137.2080 O   0  0  0  0  0  0  0  0  0  0  0  0
  188.2920  175.6040  136.7540 C   0  0  2  0  0  3  0  0  0  0  0  0
  190.6500  175.8340  137.8450 C   0  0  1  0  0  0  0  0  0  0  0  0
  189.2880  176.9290  137.4720 P   0  0  1  0  0  0  0  0  0  0  0  0
  189.6650  178.1230  136.3340 O   0  0  0  0  0  0  0  0  0  0  0  0
  188.6700  177.5220  138.7190 O   0  0  0  0  0  1  0  0  0  0  0  0
  190.7530  175.6480  139.2250 O   0  0  0  0  0  1  0  0  0  0  0  0
  191.9550  176.3780  137.2770 C   0  0  0  0  0  2  0  0  0  0  0  0
  193.0120  176.3360  138.2760 N   0  0  0  0  0  2  0  0  0  0  0  0
  193.9190  175.2770  137.8750 C   0  0  0  0  0  1  0  0  0  0  0  0
  1 14  1  0  0  0  0
  3 15  1  0  0  0  0
  3  9  1  0  0  0  0
  4  2  1  0  0  0  0
  4 16  1  0  0  0  0
  5 18  1  0  0  0  0
  5 13  1  0  0  0  0
  6 17  1  0  0  0  0
  6  2  2  0  0  0  0
  7 17  2  0  0  0  0
  8 16  2  0  0  0  0
  9  4  2  0  0  0  0
 10 11  1  0  0  0  0
 11  7  1  0  0  0  0
 12  9  1  0  0  0  0
 12 14  2  0  0  0  0
 13 11  2  0  0  0  0
 14  8  1  0  0  0  0
 15 13  1  6  0  0  0
 15  6  1  0  0  0  0
 18 10  2  0  0  0  0
 20 19  1  0  0  0  0
 21  8  1  6  0  0  0
 21 20  1  0  0  0  0
 22 21  1  0  0  0  0
 22 24  1  0  0  0  0
 23 19  2  0  0  0  0
 24 23  1  0  0  0  0
 25  3  1  0  0  0  0
 26 25  1  0  0  0  0
 27 26  1  0  0  0  0
 28 27  1  0  0  0  0
 29 28  1  0  0  0  0
 29 31  1  0  0  0  0
 31 30  1  6  0  0  0
 32 33  1  0  0  0  0
 32 35  1  0  0  0  0
 34 31  1  1  0  0  0
 34 33  1  0  0  0  0
 34 36  1  0  0  0  0
 35 39  1  1  0  0  0
 36 37  2  6  0  0  0
 36 35  1  0  0  0  0
 36 38  1  0  0  0  0
 40 35  1  0  0  0  0
 40 41  1  0  0  0  0
 42 41  1  0  0  0  0
M  END
>  <MODEL>
6

>  <REMARK>
 VINA RESULT:      -9.0      2.527      7.086
  Name = 
  10 active torsions:
  status: ('A' for Active; 'I' for Inactive)
    1  A    between atoms: C_5  and  C_36
    2  A    between atoms: N_6  and  N_21
    3  A    between atoms: C_7  and  C_25
    4  A    between atoms: N_8  and  C_25
    5  A    between atoms: C_13  and  C_20
    6  A    between atoms: C_15  and  C_17
    7  A    between atoms: C_15  and  C_41
    8  A    between atoms: C_17  and  C_22
    9  A    between atoms: N_21  and  C_22
   10  A    between atoms: C_36  and  C_41
                            x       y       z     vdW  Elec       q    Type
                         _______ _______ _______ _____ _____    ______ ____

>  <TORSDO>
F 10

$$$$
=
 OpenBabel11032419073D

 42 47  0  0  1  0  0  0  0  0999 V2000
  189.1270  177.9050  142.0640 N   0  0  0  0  0  1  0  0  0  0  0  0
  183.6590  178.4840  143.5300 C   0  0  0  0  0  3  0  0  0  0  0  0
  184.4930  179.0070  140.8740 N   0  0  0  0  0  0  0  0  0  0  0  0
  185.0620  178.2840  143.1530 C   0  0  0  0  0  0  0  0  0  0  0  0
  182.0470  179.7710  138.6700 S   0  0  0  0  0  0  0  0  0  0  0  0
  182.7340  178.7330  142.6020 C   0  0  0  0  0  0  0  0  0  0  0  0
  180.5010  179.5820  142.1970 N   0  0  0  0  0  0  0  0  0  0  0  0
  187.3460  177.7410  143.7690 C   0  0  0  0  0  0  0  0  0  0  0  0
  185.4720  178.5760  141.8420 C   0  0  0  0  0  0  0  0  0  0  0  0
  179.9670  180.3850  139.8960 C   0  0  0  0  0  3  0  0  0  0  0  0
  180.8510  179.8360  140.8310 C   0  0  0  0  0  0  0  0  0  0  0  0
  186.8250  178.4470  141.4990 C   0  0  0  0  0  3  0  0  0  0  0  0
  182.0870  179.4780  140.3220 C   0  0  0  0  0  0  0  0  0  0  0  0
  187.7610  178.0290  142.4500 C   0  0  0  0  0  0  0  0  0  0  0  0
  183.0790  178.6640  141.1180 C   0  0  1  0  0  3  0  0  0  0  0  0
  185.9950  177.8790  144.1080 C   0  0  0  0  0  3  0  0  0  0  0  0
  181.3610  179.0750  143.0320 C   0  0  0  0  0  3  0  0  0  0  0  0
  180.4960  180.4350  138.6060 C   0  0  0  0  0  3  0  0  0  0  0  0
  188.6560  177.2110  147.3350 C   0  0  0  0  0  3  0  0  0  0  0  0
  187.6460  177.3540  146.2240 C   0  0  0  0  0  2  0  0  0  0  0  0
  188.2940  177.2950  144.8430 C   0  0  2  0  0  3  0  0  0  0  0  0
  189.5860  178.0990  144.8260 C   0  0  0  0  0  2  0  0  0  0  0  0
  189.9300  177.3180  147.1420 N   0  0  0  0  0  0  0  0  0  0  0  0
  190.5430  177.4770  145.8360 C   0  0  0  0  0  2  0  0  0  0  0  0
  184.9160  179.3890  139.5890 N   0  0  0  0  0  2  0  0  0  0  0  0
  185.0360  178.1790  138.7920 C   0  0  0  0  0  2  0  0  0  0  0  0
  186.0500  178.4010  137.6920 C   0  0  0  0  0  2  0  0  0  0  0  0
  186.6800  177.0780  137.3150 C   0  0  0  0  0  2  0  0  0  0  0  0
  187.9610  176.8900  138.1010 C   0  0  0  0  0  2  0  0  0  0  0  0
  189.4410  178.6270  138.7730 O   0  0  0  0  0  1  0  0  0  0  0  0
  188.9990  177.9090  137.6590 C   0  0  1  0  0  3  0  0  0  0  0  0
  190.8030  175.3870  135.7980 C   0  0  0  0  0  2  0  0  0  0  0  0
  189.7240  176.2640  136.0480 O   0  0  0  0  0  0  0  0  0  0  0  0
  190.1780  177.2040  136.9930 C   0  0  2  0  0  3  0  0  0  0  0  0
  191.3970  174.9020  137.1130 C   0  0  1  0  0  0  0  0  0  0  0  0
  191.1740  176.3020  138.2010 P   0  0  1  0  0  0  0  0  0  0  0  0
  192.6120  177.1160  138.5670 O   0  0  0  0  0  0  0  0  0  0  0  0
  190.4030  175.9420  139.4510 O   0  0  0  0  0  1  0  0  0  0  0  0
  190.6770  173.8050  137.5900 O   0  0  0  0  0  1  0  0  0  0  0  0
  192.8740  174.5540  136.9710 C   0  0  0  0  0  2  0  0  0  0  0  0
  193.4910  175.3420  135.9150 N   0  0  0  0  0  2  0  0  0  0  0  0
  194.9260  175.2060  136.0820 C   0  0  0  0  0  1  0  0  0  0  0  0
  1 14  1  0  0  0  0
  3 15  1  0  0  0  0
  3  9  1  0  0  0  0
  4  2  1  0  0  0  0
  4 16  1  0  0  0  0
  5 13  1  0  0  0  0
  6 17  1  0  0  0  0
  6  2  2  0  0  0  0
  7 17  2  0  0  0  0
  8 16  2  0  0  0  0
  9  4  2  0  0  0  0
 10 11  1  0  0  0  0
 11  7  1  0  0  0  0
 12  9  1  0  0  0  0
 12 14  2  0  0  0  0
 13 11  2  0  0  0  0
 14  8  1  0  0  0  0
 15 13  1  6  0  0  0
 15  6  1  0  0  0  0
 18  5  1  0  0  0  0
 18 10  2  0  0  0  0
 20 19  1  0  0  0  0
 21  8  1  6  0  0  0
 21 20  1  0  0  0  0
 22 21  1  0  0  0  0
 22 24  1  0  0  0  0
 23 19  2  0  0  0  0
 24 23  1  0  0  0  0
 25  3  1  0  0  0  0
 26 25  1  0  0  0  0
 27 26  1  0  0  0  0
 28 27  1  0  0  0  0
 28 29  1  0  0  0  0
 31 29  1  0  0  0  0
 31 30  1  1  0  0  0
 32 33  1  0  0  0  0
 32 35  1  0  0  0  0
 33 34  1  0  0  0  0
 34 31  1  1  0  0  0
 34 36  1  0  0  0  0
 35 39  1  1  0  0  0
 35 36  1  0  0  0  0
 36 37  2  1  0  0  0
 36 38  1  0  0  0  0
 40 35  1  0  0  0  0
 41 42  1  0  0  0  0
 41 40  1  0  0  0  0
M  END
>  <MODEL>
7

>  <REMARK>
 VINA RESULT:      -8.9      2.978      7.223
  Name = 
  10 active torsions:
  status: ('A' for Active; 'I' for Inactive)
    1  A    between atoms: C_5  and  C_36
    2  A    between atoms: N_6  and  N_21
    3  A    between atoms: C_7  and  C_25
    4  A    between atoms: N_8  and  C_25
    5  A    between atoms: C_13  and  C_20
    6  A    between atoms: C_15  and  C_17
    7  A    between atoms: C_15  and  C_41
    8  A    between atoms: C_17  and  C_22
    9  A    between atoms: N_21  and  C_22
   10  A    between atoms: C_36  and  C_41
                            x       y       z     vdW  Elec       q    Type
                         _______ _______ _______ _____ _____    ______ ____

>  <TORSDO>
F 10

$$$$
=
 OpenBabel11032419073D

 42 47  0  0  1  0  0  0  0  0999 V2000
  185.1840  179.0010  138.8920 N   0  0  0  0  0  1  0  0  0  0  0  0
  185.6860  177.7580  144.4220 C   0  0  0  0  0  3  0  0  0  0  0  0
  187.9940  178.1060  142.8170 N   0  0  0  0  0  0  0  0  0  0  0  0
  185.5440  178.1260  143.0090 C   0  0  0  0  0  0  0  0  0  0  0  0
  190.9620  177.9390  144.4240 S   0  0  0  0  0  0  0  0  0  0  0  0
  186.8830  177.7610  145.0090 C   0  0  0  0  0  0  0  0  0  0  0  0
  188.1720  176.9760  146.9040 N   0  0  0  0  0  0  0  0  0  0  0  0
  184.1320  178.5580  141.0830 C   0  0  0  0  0  0  0  0  0  0  0  0
  186.6920  178.2650  142.2140 C   0  0  2  0  0  3  0  0  0  0  0  0
  190.6530  176.8890  146.6620 C   0  0  0  0  0  3  0  0  0  0  0  0
  189.3790  177.1660  146.1570 C   0  0  0  0  0  0  0  0  0  0  0  0
  186.5540  178.5540  140.8500 C   0  0  0  0  0  3  0  0  0  0  0  0
  189.3640  177.7170  144.8870 C   0  0  0  0  0  0  0  0  0  0  0  0
  185.2860  178.7040  140.2820 C   0  0  0  0  0  0  0  0  0  0  0  0
  188.1100  178.2940  144.2760 C   0  0  0  0  0  0  0  0  0  0  0  0
  184.2750  178.2620  142.4430 C   0  0  0  0  0  3  0  0  0  0  0  0
  187.0080  177.2440  146.3890 C   0  0  0  0  0  3  0  0  0  0  0  0
  191.6790  177.2570  145.7920 C   0  0  0  0  0  3  0  0  0  0  0  0
  180.2980  178.6730  141.1660 C   0  0  0  0  0  3  0  0  0  0  0  0
  181.7130  178.8410  141.6630 C   0  0  0  0  0  2  0  0  0  0  0  0
  182.7400  178.6980  140.5420 C   0  0  2  0  0  3  0  0  0  0  0  0
  182.3700  177.5410  139.6250 C   0  0  0  0  0  2  0  0  0  0  0  0
  180.0170  178.1860  140.0010 N   0  0  0  0  0  0  0  0  0  0  0  0
  181.0140  177.8460  139.0010 C   0  0  0  0  0  2  0  0  0  0  0  0
  189.1390  178.1530  142.0040 N   0  0  0  0  0  2  0  0  0  0  0  0
  189.0920  177.0020  141.1160 C   0  0  0  0  0  2  0  0  0  0  0  0
  190.5020  176.5680  140.7810 C   0  0  0  0  0  2  0  0  0  0  0  0
  190.9260  177.2020  139.4750 C   0  0  0  0  0  2  0  0  0  0  0  0
  191.6200  176.1650  138.6160 C   0  0  0  0  0  2  0  0  0  0  0  0
  193.5450  177.1990  139.5570 O   0  0  0  0  0  1  0  0  0  0  0  0
  193.0780  176.5470  138.4140 C   0  0  1  0  0  3  0  0  0  0  0  0
  195.9490  174.3490  138.4400 C   0  0  0  0  0  2  0  0  0  0  0  0
  195.0310  175.2590  139.0090 O   0  0  0  0  0  0  0  0  0  0  0  0
  193.9160  175.2980  138.1490 C   0  0  2  0  0  3  0  0  0  0  0  0
  196.1510  174.6630  136.9640 C   0  0  1  0  0  0  0  0  0  0  0  0
  194.5500  175.2770  136.4580 P   0  0  1  0  0  0  0  0  0  0  0  0
  193.6890  174.2020  135.4750 O   0  0  0  0  0  0  0  0  0  0  0  0
  194.6330  176.6550  135.8410 O   0  0  0  0  0  1  0  0  0  0  0  0
  197.1170  175.6590  136.8130 O   0  0  0  0  0  1  0  0  0  0  0  0
  196.5320  173.4200  136.1700 C   0  0  0  0  0  2  0  0  0  0  0  0
  196.3950  172.2220  136.9850 N   0  0  0  0  0  2  0  0  0  0  0  0
  196.2380  171.1110  136.0650 C   0  0  0  0  0  1  0  0  0  0  0  0
  1 14  1  0  0  0  0
  2  6  1  0  0  0  0
  3 15  1  0  0  0  0
  4  2  2  0  0  0  0
  5 13  1  0  0  0  0
  5 18  1  0  0  0  0
  6 17  1  0  0  0  0
  8 16  2  0  0  0  0
  9 12  1  6  0  0  0
  9  3  1  0  0  0  0
  9  4  1  0  0  0  0
 11 10  1  0  0  0  0
 11  7  1  0  0  0  0
 13 11  2  0  0  0  0
 14 12  2  0  0  0  0
 14  8  1  0  0  0  0
 15 13  1  0  0  0  0
 15  6  2  0  0  0  0
 16  4  1  0  0  0  0
 17  7  2  0  0  0  0
 18 10  2  0  0  0  0
 19 20  1  0  0  0  0
 21  8  1  1  0  0  0
 21 20  1  0  0  0  0
 22 21  1  0  0  0  0
 23 19  2  0  0  0  0
 24 22  1  0  0  0  0
 24 23  1  0  0  0  0
 25  3  1  0  0  0  0
 26 25  1  0  0  0  0
 27 26  1  0  0  0  0
 28 27  1  0  0  0  0
 29 28  1  0  0  0  0
 31 29  1  0  0  0  0
 31 30  1  1  0  0  0
 32 33  1  0  0  0  0
 34 31  1  1  0  0  0
 34 33  1  0  0  0  0
 35 39  1  6  0  0  0
 35 32  1  0  0  0  0
 36 37  2  6  0  0  0
 36 35  1  0  0  0  0
 36 34  1  0  0  0  0
 38 36  1  0  0  0  0
 40 35  1  0  0  0  0
 40 41  1  0  0  0  0
 42 41  1  0  0  0  0
M  END
>  <MODEL>
8

>  <REMARK>
 VINA RESULT:      -8.8      3.736      5.341
  Name = 
  10 active torsions:
  status: ('A' for Active; 'I' for Inactive)
    1  A    between atoms: C_5  and  C_36
    2  A    between atoms: N_6  and  N_21
    3  A    between atoms: C_7  and  C_25
    4  A    between atoms: N_8  and  C_25
    5  A    between atoms: C_13  and  C_20
    6  A    between atoms: C_15  and  C_17
    7  A    between atoms: C_15  and  C_41
    8  A    between atoms: C_17  and  C_22
    9  A    between atoms: N_21  and  C_22
   10  A    between atoms: C_36  and  C_41
                            x       y       z     vdW  Elec       q    Type
                         _______ _______ _______ _____ _____    ______ ____

>  <TORSDO>
F 10

$$$$
=
 OpenBabel11032419073D

 42 47  0  0  1  0  0  0  0  0999 V2000
  187.8350  178.1750  138.6470 N   0  0  0  0  0  1  0  0  0  0  0  0
  190.8430  176.7450  143.2620 C   0  0  0  0  0  3  0  0  0  0  0  0
  188.2590  177.8750  143.5300 N   0  0  0  0  0  0  0  0  0  0  0  0
  190.0580  177.0650  142.0650 C   0  0  0  0  0  0  0  0  0  0  0  0
  187.0550  178.1060  146.6800 S   0  0  0  0  0  0  0  0  0  0  0  0
  190.2910  176.8090  144.4750 C   0  0  0  0  0  0  0  0  0  0  0  0
  190.7250  176.9380  146.8540 N   0  0  0  0  0  0  0  0  0  0  0  0
  189.8770  177.2090  139.6490 C   0  0  0  0  0  0  0  0  0  0  0  0
  188.7910  177.6530  142.2070 C   0  0  0  0  0  0  0  0  0  0  0  0
  188.9140  177.8370  148.3160 C   0  0  0  0  0  3  0  0  0  0  0  0
  189.4150  177.4790  147.0600 C   0  0  0  0  0  0  0  0  0  0  0  0
  188.0690  178.0170  141.0630 C   0  0  0  0  0  3  0  0  0  0  0  0
  188.5160  177.6140  146.0150 C   0  0  0  0  0  0  0  0  0  0  0  0
  188.6000  177.7960  139.7890 C   0  0  0  0  0  0  0  0  0  0  0  0
  188.7960  177.0620  144.6390 C   0  0  0  0  0  0  0  0  0  0  0  0
  190.5970  176.8540  140.7950 C   0  0  0  0  0  2  0  0  0  0  0  0
  191.1490  176.6250  145.6650 C   0  0  0  0  0  3  0  0  0  0  0  0
  187.5780  178.2340  148.2800 C   0  0  0  0  0  3  0  0  0  0  0  0
  190.5100  175.4060  136.3230 C   0  0  0  0  0  3  0  0  0  0  0  0
  189.7340  175.9070  137.5150 C   0  0  0  0  0  2  0  0  0  0  0  0
  190.5130  176.9480  138.3150 C   0  0  2  0  0  3  0  0  0  0  0  0
  191.9700  176.5310  138.4550 C   0  0  0  0  0  2  0  0  0  0  0  0
  191.7760  175.6180  136.1700 N   0  0  0  0  0  0  0  0  0  0  0  0
  192.5740  176.4440  137.0590 C   0  0  0  0  0  2  0  0  0  0  0  0
  187.0330  178.5470  143.6750 N   0  0  0  0  0  2  0  0  0  0  0  0
  185.9760  177.5990  143.3660 C   0  0  0  0  0  2  0  0  0  0  0  0
  184.6370  178.3010  143.4270 C   0  0  0  0  0  2  0  0  0  0  0  0
  183.9820  178.2540  142.0640 C   0  0  0  0  0  2  0  0  0  0  0  0
  182.6240  178.9220  142.1370 C   0  0  0  0  0  2  0  0  0  0  0  0
  180.6590  177.6910  141.6050 O   0  0  0  0  0  1  0  0  0  0  0  0
  181.7230  178.3930  141.0330 C   0  0  1  0  0  3  0  0  0  0  0  0
  179.5960  180.1640  138.7060 C   0  0  0  0  0  2  0  0  0  0  0  0
  179.8630  179.2970  139.7890 O   0  0  0  0  0  0  0  0  0  0  0  0
  181.1890  179.5490  140.1900 C   0  0  2  0  0  3  0  0  0  0  0  0
  180.7190  180.0800  137.6800 C   0  0  1  0  0  0  0  0  0  0  0  0
  182.1640  179.7730  138.6860 P   0  0  1  0  0  0  0  0  0  0  0  0
  183.2070  181.1000  138.8020 O   0  0  0  0  0  1  0  0  0  0  0  0
  182.9000  178.5200  138.2670 O   0  0  0  0  0  0  0  0  0  0  0  0
  180.5000  179.0060  136.8150 O   0  0  0  0  0  1  0  0  0  0  0  0
  180.8670  181.3790  136.8990 C   0  0  0  0  0  2  0  0  0  0  0  0
  180.2710  182.4910  137.6240 N   0  0  0  0  0  2  0  0  0  0  0  0
  181.0820  183.6580  137.3330 C   0  0  0  0  0  1  0  0  0  0  0  0
  1 14  1  0  0  0  0
  2  6  1  0  0  0  0
  3 25  1  0  0  0  0
  3 15  1  0  0  0  0
  4  9  1  0  0  0  0
  4  2  2  0  0  0  0
  5 18  1  0  0  0  0
  6 15  2  0  0  0  0
  6 17  1  0  0  0  0
  7 11  1  0  0  0  0
  8 14  2  0  0  0  0
  8 16  1  0  0  0  0
  9  3  1  0  0  0  0
 11 10  1  0  0  0  0
 12  9  2  0  0  0  0
 13  5  1  0  0  0  0
 13 11  2  0  0  0  0
 14 12  1  0  0  0  0
 15 13  1  0  0  0  0
 16  4  1  0  0  0  0
 17  7  2  0  0  0  0
 18 10  2  0  0  0  0
 19 20  1  0  0  0  0
 20 21  1  0  0  0  0
 21 22  1  0  0  0  0
 21  8  1  1  0  0  0
 23 19  2  0  0  0  0
 23 24  1  0  0  0  0
 24 22  1  0  0  0  0
 26 27  1  0  0  0  0
 26 25  1  0  0  0  0
 28 29  1  0  0  0  0
 28 27  1  0  0  0  0
 31 30  1  1  0  0  0
 31 29  1  0  0  0  0
 32 33  1  0  0  0  0
 33 34  1  0  0  0  0
 34 31  1  6  0  0  0
 35 39  1  6  0  0  0
 35 36  1  0  0  0  0
 35 32  1  0  0  0  0
 36 38  2  6  0  0  0
 36 37  1  0  0  0  0
 36 34  1  0  0  0  0
 40 41  1  0  0  0  0
 40 35  1  0  0  0  0
 42 41  1  0  0  0  0
M  END
>  <MODEL>
9

>  <REMARK>
 VINA RESULT:      -8.7      3.375      7.264
  Name = 
  10 active torsions:
  status: ('A' for Active; 'I' for Inactive)
    1  A    between atoms: C_5  and  C_36
    2  A    between atoms: N_6  and  N_21
    3  A    between atoms: C_7  and  C_25
    4  A    between atoms: N_8  and  C_25
    5  A    between atoms: C_13  and  C_20
    6  A    between atoms: C_15  and  C_17
    7  A    between atoms: C_15  and  C_41
    8  A    between atoms: C_17  and  C_22
    9  A    between atoms: N_21  and  C_22
   10  A    between atoms: C_36  and  C_41
                            x       y       z     vdW  Elec       q    Type
                         _______ _______ _______ _____ _____    ______ ____

>  <TORSDO>
F 10

$$$$
