=
 OpenBabel11032419333D

 31 33  0  0  1  0  0  0  0  0999 V2000
  190.9910  176.9050  141.5440 N   0  0  0  0  0  2  0  0  0  0  0  0
  188.3160  178.1520  140.8210 N   0  0  0  0  0  0  0  0  0  0  0  0
  189.1850  177.7120  139.9500 C   0  0  0  0  0  0  0  0  0  0  0  0
  191.7190  177.8990  143.6260 C   0  0  0  0  0  1  0  0  0  0  0  0
  190.6880  175.9500  139.4590 O   0  0  0  0  0  0  0  0  0  0  0  0
  190.3030  176.8060  140.2990 C   0  0  0  0  0  0  0  0  0  0  0  0
  188.2540  177.9350  142.2450 C   0  0  0  0  0  0  0  0  0  0  0  0
  189.3510  177.8630  143.0090 C   0  0  0  0  0  3  0  0  0  0  0  0
  190.7350  177.9830  142.4780 C   0  0  2  0  0  3  0  0  0  0  0  0
  186.9230  177.9050  142.8970 C   0  0  0  0  0  0  0  0  0  0  0  0
  185.1240  178.5900  145.3030 C   0  0  0  0  0  0  0  0  0  0  0  0
  182.7250  178.8120  144.4670 C   0  0  0  0  0  1  0  0  0  0  0  0
  184.5330  178.6630  142.8740 C   0  0  0  0  0  3  0  0  0  0  0  0
  184.1720  178.6340  144.1650 C   0  0  0  0  0  0  0  0  0  0  0  0
  185.9030  178.5590  142.3310 C   0  0  0  0  0  3  0  0  0  0  0  0
  186.2690  177.9060  145.2790 C   0  0  0  0  0  3  0  0  0  0  0  0
  186.6990  177.0670  144.1220 C   0  0  0  0  0  2  0  0  0  0  0  0
  184.8000  179.2740  146.4680 O   0  0  0  0  0  1  0  0  0  0  0  0
  190.1640  177.8400  137.7820 O   0  0  0  0  0  1  0  0  0  0  0  0
  188.9910  178.0630  138.5050 C   0  0  1  0  0  3  0  0  0  0  0  0
  187.8990  176.0820  137.8610 O   0  0  0  0  0  0  0  0  0  0  0  0
  187.8490  177.3020  137.9020 C   0  0  0  0  0  0  0  0  0  0  0  0
  186.6670  178.0270  137.3320 C   0  0  1  0  0  3  0  0  0  0  0  0
  186.9710  178.5080  136.0570 O   0  0  0  0  0  1  0  0  0  0  0  0
  185.4580  177.1080  137.2700 C   0  0  0  0  0  2  0  0  0  0  0  0
  183.2080  176.5630  138.4510 S   0  0  0  0  0  0  0  0  0  0  0  0
  182.2390  179.1490  138.9260 C   0  0  0  0  0  2  0  0  0  0  0  0
  183.6440  179.6870  139.1980 C   0  0  0  0  0  2  0  0  0  0  0  0
  184.7310  178.6690  138.8490 C   0  0  0  0  0  2  0  0  0  0  0  0
  182.1080  177.7030  139.3880 C   0  0  0  0  0  2  0  0  0  0  0  0
  184.2830  177.8040  137.7670 N   0  0  0  0  0  0  0  0  0  0  0  0
  1  9  1  0  0  0  0
  2  7  1  0  0  0  0
  3  6  1  0  0  0  0
  3  2  2  0  0  0  0
  5  6  2  0  0  0  0
  6  1  1  0  0  0  0
  7 10  1  0  0  0  0
  7  8  2  0  0  0  0
  9  8  1  0  0  0  0
  9  4  1  1  0  0  0
 10 17  1  0  0  0  0
 11 18  1  0  0  0  0
 13 14  2  0  0  0  0
 14 12  1  0  0  0  0
 14 11  1  0  0  0  0
 15 13  1  0  0  0  0
 15 10  2  0  0  0  0
 16 11  2  0  0  0  0
 17 16  1  0  0  0  0
 20 19  1  6  0  0  0
 20  3  1  0  0  0  0
 21 22  2  0  0  0  0
 22 20  1  0  0  0  0
 23 24  1  6  0  0  0
 23 22  1  0  0  0  0
 25 23  1  0  0  0  0
 25 31  1  0  0  0  0
 26 30  1  0  0  0  0
 27 28  1  0  0  0  0
 27 30  1  0  0  0  0
 29 28  1  0  0  0  0
 31 26  1  0  0  0  0
 31 29  1  0  0  0  0
M  END
>  <MODEL>
1

>  <REMARK>
 VINA RESULT:      -8.8      0.000      0.000
  Name = 
  6 active torsions:
  status: ('A' for Active; 'I' for Inactive)
    1  A    between atoms: C_3  and  C_14
    2  A    between atoms: C_8  and  C_18
    3  A    between atoms: C_18  and  C_26
    4  A    between atoms: C_19  and  C_26
    5  A    between atoms: C_19  and  C_31
    6  A    between atoms: N_29  and  C_31
                            x       y       z     vdW  Elec       q    Type
                         _______ _______ _______ _____ _____    ______ ____

>  <TORSDO>
F 6

$$$$
=
 OpenBabel11032419333D

 31 33  0  0  1  0  0  0  0  0999 V2000
  189.9220  176.1910  137.7200 N   0  0  0  0  0  2  0  0  0  0  0  0
  188.5260  177.8460  139.8510 N   0  0  0  0  0  0  0  0  0  0  0  0
  188.0890  177.6950  138.6300 C   0  0  0  0  0  0  0  0  0  0  0  0
  192.2950  176.2550  138.1860 C   0  0  0  0  0  1  0  0  0  0  0  0
  187.7650  176.1270  136.8860 O   0  0  0  0  0  0  0  0  0  0  0  0
  188.5660  176.6320  137.7180 C   0  0  0  0  0  0  0  0  0  0  0  0
  189.5470  177.1120  140.5580 C   0  0  0  0  0  0  0  0  0  0  0  0
  190.6540  176.6610  139.9550 C   0  0  0  0  0  3  0  0  0  0  0  0
  190.9420  176.8530  138.5080 C   0  0  2  0  0  3  0  0  0  0  0  0
  189.4140  176.9520  142.0260 C   0  0  0  0  0  0  0  0  0  0  0  0
  190.6810  177.0190  144.8340 C   0  0  0  0  0  0  0  0  0  0  0  0
  188.8460  177.5460  146.5240 C   0  0  0  0  0  1  0  0  0  0  0  0
  188.3930  177.7720  144.1640 C   0  0  0  0  0  3  0  0  0  0  0  0
  189.2740  177.4060  145.1050 C   0  0  0  0  0  0  0  0  0  0  0  0
  188.6010  177.7720  142.7010 C   0  0  0  0  0  3  0  0  0  0  0  0
  191.0600  176.3270  143.7570 C   0  0  0  0  0  3  0  0  0  0  0  0
  190.1040  175.8210  142.7290 C   0  0  0  0  0  2  0  0  0  0  0  0
  191.6580  177.3700  145.7570 O   0  0  0  0  0  1  0  0  0  0  0  0
  186.9710  178.6580  136.7580 O   0  0  0  0  0  1  0  0  0  0  0  0
  186.9780  178.5830  138.1530 C   0  0  1  0  0  3  0  0  0  0  0  0
  185.1380  177.1190  138.1790 O   0  0  0  0  0  0  0  0  0  0  0  0
  185.6470  178.1190  138.6600 C   0  0  0  0  0  0  0  0  0  0  0  0
  184.9300  178.8870  139.7310 C   0  0  1  0  0  3  0  0  0  0  0  0
  184.3960  180.0630  139.1980 O   0  0  0  0  0  1  0  0  0  0  0  0
  183.8260  178.0420  140.3450 C   0  0  0  0  0  2  0  0  0  0  0  0
  185.2480  179.1950  142.1900 S   0  0  0  0  0  0  0  0  0  0  0  0
  183.6540  178.7090  144.4430 C   0  0  0  0  0  2  0  0  0  0  0  0
  182.3650  178.8710  143.6360 C   0  0  0  0  0  2  0  0  0  0  0  0
  182.6300  178.9540  142.1320 C   0  0  0  0  0  2  0  0  0  0  0  0
  184.7510  179.6210  143.9090 C   0  0  0  0  0  2  0  0  0  0  0  0
  183.8280  178.2010  141.7880 N   0  0  0  0  0  0  0  0  0  0  0  0
  1  9  1  0  0  0  0
  2  7  1  0  0  0  0
  3  2  2  0  0  0  0
  5  6  2  0  0  0  0
  6  1  1  0  0  0  0
  6  3  1  0  0  0  0
  7 10  1  0  0  0  0
  8  7  2  0  0  0  0
  9  4  1  6  0  0  0
  9  8  1  0  0  0  0
 10 15  2  0  0  0  0
 10 17  1  0  0  0  0
 11 14  1  0  0  0  0
 11 18  1  0  0  0  0
 13 14  2  0  0  0  0
 14 12  1  0  0  0  0
 15 13  1  0  0  0  0
 16 11  2  0  0  0  0
 17 16  1  0  0  0  0
 20 19  1  6  0  0  0
 20  3  1  0  0  0  0
 20 22  1  0  0  0  0
 21 22  2  0  0  0  0
 22 23  1  0  0  0  0
 23 24  1  6  0  0  0
 23 25  1  0  0  0  0
 25 31  1  0  0  0  0
 26 30  1  0  0  0  0
 28 27  1  0  0  0  0
 29 28  1  0  0  0  0
 30 27  1  0  0  0  0
 31 29  1  0  0  0  0
 31 26  1  0  0  0  0
M  END
>  <MODEL>
2

>  <REMARK>
 VINA RESULT:      -8.5      2.459      4.252
  Name = 
  6 active torsions:
  status: ('A' for Active; 'I' for Inactive)
    1  A    between atoms: C_3  and  C_14
    2  A    between atoms: C_8  and  C_18
    3  A    between atoms: C_18  and  C_26
    4  A    between atoms: C_19  and  C_26
    5  A    between atoms: C_19  and  C_31
    6  A    between atoms: N_29  and  C_31
                            x       y       z     vdW  Elec       q    Type
                         _______ _______ _______ _____ _____    ______ ____

>  <TORSDO>
F 6

$$$$
=
 OpenBabel11032419333D

 31 33  0  0  1  0  0  0  0  0999 V2000
  190.5950  176.5530  140.5540 N   0  0  0  0  0  2  0  0  0  0  0  0
  188.1290  178.3270  140.5640 N   0  0  0  0  0  0  0  0  0  0  0  0
  188.7720  177.9620  139.4870 C   0  0  0  0  0  0  0  0  0  0  0  0
  191.7750  176.9340  142.6320 C   0  0  0  0  0  1  0  0  0  0  0  0
  189.8360  176.1430  138.4090 O   0  0  0  0  0  0  0  0  0  0  0  0
  189.7370  176.8400  139.4530 C   0  0  0  0  0  0  0  0  0  0  0  0
  188.2230  177.8110  141.9080 C   0  0  0  0  0  0  0  0  0  0  0  0
  189.3810  177.4030  142.4400 C   0  0  0  0  0  3  0  0  0  0  0  0
  190.6770  177.4220  141.7110 C   0  0  2  0  0  3  0  0  0  0  0  0
  187.0120  177.8430  142.7620 C   0  0  0  0  0  0  0  0  0  0  0  0
  185.6290  178.6790  145.3850 C   0  0  0  0  0  0  0  0  0  0  0  0
  183.1320  178.9220  144.9280 C   0  0  0  0  0  1  0  0  0  0  0  0
  184.6620  178.6570  143.0800 C   0  0  0  0  0  3  0  0  0  0  0  0
  184.5100  178.6950  144.4110 C   0  0  0  0  0  0  0  0  0  0  0  0
  185.9260  178.4960  142.3330 C   0  0  0  0  0  3  0  0  0  0  0  0
  186.7440  177.9670  145.2140 C   0  0  0  0  0  3  0  0  0  0  0  0
  186.9710  177.0670  144.0460 C   0  0  0  0  0  2  0  0  0  0  0  0
  185.5070  179.4230  146.5530 O   0  0  0  0  0  1  0  0  0  0  0  0
  189.6140  178.8790  137.4550 O   0  0  0  0  0  1  0  0  0  0  0  0
  188.4510  178.6510  138.1940 C   0  0  1  0  0  3  0  0  0  0  0  0
  187.7790  177.4610  136.2800 O   0  0  0  0  0  0  0  0  0  0  0  0
  187.4600  177.8710  137.3860 C   0  0  0  0  0  0  0  0  0  0  0  0
  186.0800  177.6130  137.9140 C   0  0  1  0  0  3  0  0  0  0  0  0
  185.4780  178.8180  138.2840 O   0  0  0  0  0  1  0  0  0  0  0  0
  185.2340  176.9030  136.8710 C   0  0  0  0  0  2  0  0  0  0  0  0
  183.3440  175.1540  137.2210 S   0  0  0  0  0  0  0  0  0  0  0  0
  184.8620  172.8310  137.6090 C   0  0  0  0  0  2  0  0  0  0  0  0
  185.9160  173.2820  136.5960 C   0  0  0  0  0  2  0  0  0  0  0  0
  185.7100  174.7320  136.1540 C   0  0  0  0  0  2  0  0  0  0  0  0
  183.4760  173.3190  137.2100 C   0  0  0  0  0  2  0  0  0  0  0  0
  185.0890  175.5020  137.2230 N   0  0  0  0  0  0  0  0  0  0  0  0
  1  9  1  0  0  0  0
  2  7  1  0  0  0  0
  3  2  2  0  0  0  0
  5  6  2  0  0  0  0
  6  3  1  0  0  0  0
  6  1  1  0  0  0  0
  7  8  2  0  0  0  0
  7 10  1  0  0  0  0
  9  8  1  0  0  0  0
  9  4  1  1  0  0  0
 10 17  1  0  0  0  0
 11 18  1  0  0  0  0
 13 14  2  0  0  0  0
 14 12  1  0  0  0  0
 14 11  1  0  0  0  0
 15 10  2  0  0  0  0
 15 13  1  0  0  0  0
 16 11  2  0  0  0  0
 17 16  1  0  0  0  0
 20 19  1  6  0  0  0
 20  3  1  0  0  0  0
 21 22  2  0  0  0  0
 22 23  1  0  0  0  0
 22 20  1  0  0  0  0
 23 24  1  6  0  0  0
 25 31  1  0  0  0  0
 25 23  1  0  0  0  0
 26 31  1  0  0  0  0
 28 27  1  0  0  0  0
 29 28  1  0  0  0  0
 29 31  1  0  0  0  0
 30 26  1  0  0  0  0
 30 27  1  0  0  0  0
M  END
>  <MODEL>
3

>  <REMARK>
 VINA RESULT:      -8.3      1.724      2.453
  Name = 
  6 active torsions:
  status: ('A' for Active; 'I' for Inactive)
    1  A    between atoms: C_3  and  C_14
    2  A    between atoms: C_8  and  C_18
    3  A    between atoms: C_18  and  C_26
    4  A    between atoms: C_19  and  C_26
    5  A    between atoms: C_19  and  C_31
    6  A    between atoms: N_29  and  C_31
                            x       y       z     vdW  Elec       q    Type
                         _______ _______ _______ _____ _____    ______ ____

>  <TORSDO>
F 6

$$$$
=
 OpenBabel11032419333D

 31 33  0  0  1  0  0  0  0  0999 V2000
  189.4790  176.3370  144.5050 N   0  0  0  0  0  2  0  0  0  0  0  0
  188.3760  178.2080  142.3810 N   0  0  0  0  0  0  0  0  0  0  0  0
  189.4420  177.4680  142.2310 C   0  0  0  0  0  0  0  0  0  0  0  0
  188.9150  177.2720  146.6640 C   0  0  0  0  0  1  0  0  0  0  0  0
  190.3580  175.3200  142.6220 O   0  0  0  0  0  0  0  0  0  0  0  0
  189.7690  176.3220  143.1090 C   0  0  0  0  0  0  0  0  0  0  0  0
  187.3500  178.1460  143.3930 C   0  0  0  0  0  0  0  0  0  0  0  0
  187.6180  177.8410  144.6680 C   0  0  0  0  0  3  0  0  0  0  0  0
  188.9810  177.5220  145.1720 C   0  0  2  0  0  3  0  0  0  0  0  0
  185.9710  178.5460  143.0260 C   0  0  0  0  0  0  0  0  0  0  0  0
  183.4760  178.1740  141.2570 C   0  0  0  0  0  0  0  0  0  0  0  0
  181.4400  178.9650  142.5720 C   0  0  0  0  0  1  0  0  0  0  0  0
  183.5610  178.7110  143.6970 C   0  0  0  0  0  3  0  0  0  0  0  0
  182.8960  178.6580  142.5340 C   0  0  0  0  0  0  0  0  0  0  0  0
  184.9880  178.4020  143.9220 C   0  0  0  0  0  3  0  0  0  0  0  0
  184.7400  178.3960  140.8900 C   0  0  0  0  0  3  0  0  0  0  0  0
  185.7000  179.1990  141.7020 C   0  0  0  0  0  2  0  0  0  0  0  0
  182.6590  177.4720  140.3780 O   0  0  0  0  0  1  0  0  0  0  0  0
  191.6560  177.3930  141.3550 O   0  0  0  0  0  1  0  0  0  0  0  0
  190.3340  177.7270  141.0540 C   0  0  1  0  0  3  0  0  0  0  0  0
  190.4960  176.0120  139.4540 O   0  0  0  0  0  0  0  0  0  0  0  0
  189.8690  176.9880  139.8370 C   0  0  0  0  0  0  0  0  0  0  0  0
  188.6610  177.4520  139.0780 C   0  0  1  0  0  3  0  0  0  0  0  0
  188.6560  178.8460  138.9960 O   0  0  0  0  0  1  0  0  0  0  0  0
  188.6400  176.8440  137.6860 C   0  0  0  0  0  2  0  0  0  0  0  0
  186.1840  176.4710  136.9230 S   0  0  0  0  0  0  0  0  0  0  0  0
  185.9520  173.7020  137.2790 C   0  0  0  0  0  2  0  0  0  0  0  0
  187.3990  173.4680  136.8440 C   0  0  0  0  0  2  0  0  0  0  0  0
  188.1810  174.7750  136.7050 C   0  0  0  0  0  2  0  0  0  0  0  0
  185.3410  174.8820  136.5350 C   0  0  0  0  0  2  0  0  0  0  0  0
  187.6610  175.7740  137.6280 N   0  0  0  0  0  0  0  0  0  0  0  0
  1  9  1  0  0  0  0
  2  7  1  0  0  0  0
  3  2  2  0  0  0  0
  3  6  1  0  0  0  0
  5  6  2  0  0  0  0
  6  1  1  0  0  0  0
  7  8  2  0  0  0  0
  8  9  1  0  0  0  0
  9  4  1  1  0  0  0
 10  7  1  0  0  0  0
 10 15  2  0  0  0  0
 11 14  1  0  0  0  0
 13 15  1  0  0  0  0
 14 12  1  0  0  0  0
 14 13  2  0  0  0  0
 16 11  2  0  0  0  0
 16 17  1  0  0  0  0
 17 10  1  0  0  0  0
 18 11  1  0  0  0  0
 20 19  1  1  0  0  0
 20  3  1  0  0  0  0
 21 22  2  0  0  0  0
 22 20  1  0  0  0  0
 23 24  1  6  0  0  0
 23 22  1  0  0  0  0
 25 23  1  0  0  0  0
 26 31  1  0  0  0  0
 28 27  1  0  0  0  0
 29 28  1  0  0  0  0
 29 31  1  0  0  0  0
 30 26  1  0  0  0  0
 30 27  1  0  0  0  0
 31 25  1  0  0  0  0
M  END
>  <MODEL>
4

>  <REMARK>
 VINA RESULT:      -8.2      2.417      3.797
  Name = 
  6 active torsions:
  status: ('A' for Active; 'I' for Inactive)
    1  A    between atoms: C_3  and  C_14
    2  A    between atoms: C_8  and  C_18
    3  A    between atoms: C_18  and  C_26
    4  A    between atoms: C_19  and  C_26
    5  A    between atoms: C_19  and  C_31
    6  A    between atoms: N_29  and  C_31
                            x       y       z     vdW  Elec       q    Type
                         _______ _______ _______ _____ _____    ______ ____

>  <TORSDO>
F 6

$$$$
=
 OpenBabel11032419333D

 31 33  0  0  1  0  0  0  0  0999 V2000
  189.7730  177.0330  147.3240 N   0  0  0  0  0  2  0  0  0  0  0  0
  188.9020  178.2530  144.6810 N   0  0  0  0  0  0  0  0  0  0  0  0
  190.1200  177.8650  144.9500 C   0  0  0  0  0  0  0  0  0  0  0  0
  188.3590  177.9600  149.0550 C   0  0  0  0  0  1  0  0  0  0  0  0
  191.4140  176.1540  145.9510 O   0  0  0  0  0  0  0  0  0  0  0  0
  190.4610  176.9690  146.0770 C   0  0  0  0  0  0  0  0  0  0  0  0
  187.6750  177.9800  145.3880 C   0  0  0  0  0  0  0  0  0  0  0  0
  187.6180  177.9000  146.7230 C   0  0  0  0  0  3  0  0  0  0  0  0
  188.8000  178.0690  147.6110 C   0  0  2  0  0  3  0  0  0  0  0  0
  186.4150  177.8970  144.6110 C   0  0  0  0  0  0  0  0  0  0  0  0
  183.6860  179.0980  143.8340 C   0  0  0  0  0  0  0  0  0  0  0  0
  183.0850  178.2660  141.4990 C   0  0  0  0  0  1  0  0  0  0  0  0
  185.3090  177.8940  142.3610 C   0  0  0  0  0  3  0  0  0  0  0  0
  184.0770  178.3630  142.6050 C   0  0  0  0  0  0  0  0  0  0  0  0
  186.4700  177.9230  143.2740 C   0  0  0  0  0  3  0  0  0  0  0  0
  184.1630  178.8110  145.0460 C   0  0  0  0  0  3  0  0  0  0  0  0
  185.1060  177.6860  145.3120 C   0  0  0  0  0  2  0  0  0  0  0  0
  182.7560  180.1250  143.7270 O   0  0  0  0  0  1  0  0  0  0  0  0
  192.4250  178.4170  144.7070 O   0  0  0  0  0  1  0  0  0  0  0  0
  191.2220  178.2680  144.0150 C   0  0  1  0  0  3  0  0  0  0  0  0
  191.6720  176.1290  143.1480 O   0  0  0  0  0  0  0  0  0  0  0  0
  191.3790  177.2870  142.8930 C   0  0  0  0  0  0  0  0  0  0  0  0
  191.2020  177.7230  141.4690 C   0  0  1  0  0  3  0  0  0  0  0  0
  192.3860  177.5200  140.7580 O   0  0  0  0  0  1  0  0  0  0  0  0
  190.0610  176.9610  140.8160 C   0  0  0  0  0  2  0  0  0  0  0  0
  190.5300  176.0400  138.4320 S   0  0  0  0  0  0  0  0  0  0  0  0
  189.3860  178.0620  136.8660 C   0  0  0  0  0  2  0  0  0  0  0  0
  188.2570  178.2820  137.8740 C   0  0  0  0  0  2  0  0  0  0  0  0
  188.4910  177.5210  139.1800 C   0  0  0  0  0  2  0  0  0  0  0  0
  189.8130  176.6000  136.8330 C   0  0  0  0  0  2  0  0  0  0  0  0
  189.9170  177.3770  139.4320 N   0  0  0  0  0  0  0  0  0  0  0  0
  1  9  1  0  0  0  0
  2  3  2  0  0  0  0
  2  7  1  0  0  0  0
  3  6  1  0  0  0  0
  5  6  2  0  0  0  0
  6  1  1  0  0  0  0
  7  8  2  0  0  0  0
  8  9  1  0  0  0  0
  9  4  1  1  0  0  0
 10 17  1  0  0  0  0
 10  7  1  0  0  0  0
 11 16  2  0  0  0  0
 12 14  1  0  0  0  0
 13 14  2  0  0  0  0
 13 15  1  0  0  0  0
 14 11  1  0  0  0  0
 15 10  2  0  0  0  0
 16 17  1  0  0  0  0
 18 11  1  0  0  0  0
 20 19  1  1  0  0  0
 20  3  1  0  0  0  0
 22 21  2  0  0  0  0
 22 20  1  0  0  0  0
 23 24  1  6  0  0  0
 23 22  1  0  0  0  0
 25 23  1  0  0  0  0
 26 31  1  0  0  0  0
 27 28  1  0  0  0  0
 28 29  1  0  0  0  0
 29 31  1  0  0  0  0
 30 27  1  0  0  0  0
 30 26  1  0  0  0  0
 31 25  1  0  0  0  0
M  END
>  <MODEL>
5

>  <REMARK>
 VINA RESULT:      -8.0      3.077      5.205
  Name = 
  6 active torsions:
  status: ('A' for Active; 'I' for Inactive)
    1  A    between atoms: C_3  and  C_14
    2  A    between atoms: C_8  and  C_18
    3  A    between atoms: C_18  and  C_26
    4  A    between atoms: C_19  and  C_26
    5  A    between atoms: C_19  and  C_31
    6  A    between atoms: N_29  and  C_31
                            x       y       z     vdW  Elec       q    Type
                         _______ _______ _______ _____ _____    ______ ____

>  <TORSDO>
F 6

$$$$
=
 OpenBabel11032419333D

 31 33  0  0  1  0  0  0  0  0999 V2000
  190.8530  176.6370  141.2820 N   0  0  0  0  0  2  0  0  0  0  0  0
  188.3110  178.2460  140.8590 N   0  0  0  0  0  0  0  0  0  0  0  0
  189.0920  177.8330  139.8970 C   0  0  0  0  0  0  0  0  0  0  0  0
  191.7670  177.2690  143.4310 C   0  0  0  0  0  1  0  0  0  0  0  0
  190.3660  175.9980  139.1130 O   0  0  0  0  0  0  0  0  0  0  0  0
  190.1120  176.7750  140.0720 C   0  0  0  0  0  0  0  0  0  0  0  0
  188.2790  177.8550  142.2470 C   0  0  0  0  0  0  0  0  0  0  0  0
  189.3880  177.5670  142.9380 C   0  0  0  0  0  3  0  0  0  0  0  0
  190.7560  177.6060  142.3550 C   0  0  2  0  0  3  0  0  0  0  0  0
  186.9780  177.8830  142.9590 C   0  0  0  0  0  0  0  0  0  0  0  0
  185.3170  178.6640  145.4330 C   0  0  0  0  0  0  0  0  0  0  0  0
  182.8930  178.9670  144.7020 C   0  0  0  0  0  1  0  0  0  0  0  0
  184.6200  178.7300  143.0320 C   0  0  0  0  0  3  0  0  0  0  0  0
  184.3170  178.7310  144.3380 C   0  0  0  0  0  0  0  0  0  0  0  0
  185.9590  178.5680  142.4300 C   0  0  0  0  0  3  0  0  0  0  0  0
  186.4330  177.9370  145.3670 C   0  0  0  0  0  3  0  0  0  0  0  0
  186.7790  177.0690  144.2030 C   0  0  0  0  0  2  0  0  0  0  0  0
  185.0720  179.3740  146.6020 O   0  0  0  0  0  1  0  0  0  0  0  0
  189.9780  178.0980  137.7010 O   0  0  0  0  0  1  0  0  0  0  0  0
  188.8840  178.3870  138.5190 C   0  0  1  0  0  3  0  0  0  0  0  0
  186.6760  178.6340  137.7460 O   0  0  0  0  0  0  0  0  0  0  0  0
  187.6180  177.8720  137.9040 C   0  0  0  0  0  0  0  0  0  0  0  0
  187.4950  176.4310  137.5070 C   0  0  1  0  0  3  0  0  0  0  0  0
  186.1550  176.0380  137.5460 O   0  0  0  0  0  1  0  0  0  0  0  0
  188.0650  176.2100  136.1160 C   0  0  0  0  0  2  0  0  0  0  0  0
  188.3620  173.7040  135.4970 S   0  0  0  0  0  0  0  0  0  0  0  0
  191.0980  173.3720  135.9990 C   0  0  0  0  0  2  0  0  0  0  0  0
  191.4180  174.7830  135.5040 C   0  0  0  0  0  2  0  0  0  0  0  0
  190.1550  175.6120  135.2630 C   0  0  0  0  0  2  0  0  0  0  0  0
  189.9270  172.7740  135.2300 C   0  0  0  0  0  2  0  0  0  0  0  0
  189.0920  175.1840  136.1610 N   0  0  0  0  0  0  0  0  0  0  0  0
  1  9  1  0  0  0  0
  2  7  1  0  0  0  0
  3  6  1  0  0  0  0
  3  2  2  0  0  0  0
  5  6  2  0  0  0  0
  6  1  1  0  0  0  0
  7  8  2  0  0  0  0
  7 10  1  0  0  0  0
  9  8  1  0  0  0  0
  9  4  1  1  0  0  0
 10 17  1  0  0  0  0
 11 18  1  0  0  0  0
 13 14  2  0  0  0  0
 14 12  1  0  0  0  0
 14 11  1  0  0  0  0
 15 10  2  0  0  0  0
 15 13  1  0  0  0  0
 16 11  2  0  0  0  0
 17 16  1  0  0  0  0
 20 19  1  6  0  0  0
 20  3  1  0  0  0  0
 21 22  2  0  0  0  0
 22 20  1  0  0  0  0
 23 24  1  6  0  0  0
 23 22  1  0  0  0  0
 25 31  1  0  0  0  0
 25 23  1  0  0  0  0
 26 31  1  0  0  0  0
 28 27  1  0  0  0  0
 29 28  1  0  0  0  0
 29 31  1  0  0  0  0
 30 26  1  0  0  0  0
 30 27  1  0  0  0  0
M  END
>  <MODEL>
6

>  <REMARK>
 VINA RESULT:      -7.9      2.475      3.937
  Name = 
  6 active torsions:
  status: ('A' for Active; 'I' for Inactive)
    1  A    between atoms: C_3  and  C_14
    2  A    between atoms: C_8  and  C_18
    3  A    between atoms: C_18  and  C_26
    4  A    between atoms: C_19  and  C_26
    5  A    between atoms: C_19  and  C_31
    6  A    between atoms: N_29  and  C_31
                            x       y       z     vdW  Elec       q    Type
                         _______ _______ _______ _____ _____    ______ ____

>  <TORSDO>
F 6

$$$$
=
 OpenBabel11032419333D

 31 33  0  0  1  0  0  0  0  0999 V2000
  188.1660  178.6290  139.7590 N   0  0  0  0  0  2  0  0  0  0  0  0
  190.0530  176.6110  141.0210 N   0  0  0  0  0  0  0  0  0  0  0  0
  190.0250  176.8990  139.7470 C   0  0  0  0  0  0  0  0  0  0  0  0
  186.1390  178.6560  141.0800 C   0  0  0  0  0  1  0  0  0  0  0  0
  189.8580  178.6670  138.1820 O   0  0  0  0  0  0  0  0  0  0  0  0
  189.3680  178.1060  139.1990 C   0  0  0  0  0  0  0  0  0  0  0  0
  189.4520  177.3050  142.1330 C   0  0  0  0  0  0  0  0  0  0  0  0
  188.2590  177.9050  142.0440 C   0  0  0  0  0  3  0  0  0  0  0  0
  187.4400  177.9330  140.8030 C   0  0  2  0  0  3  0  0  0  0  0  0
  190.1330  177.2530  143.4500 C   0  0  0  0  0  0  0  0  0  0  0  0
  189.9740  177.0200  146.5180 C   0  0  0  0  0  0  0  0  0  0  0  0
  192.1590  176.0070  147.3540 C   0  0  0  0  0  1  0  0  0  0  0  0
  191.6800  176.0180  144.9890 C   0  0  0  0  0  3  0  0  0  0  0  0
  191.2840  176.3920  146.2140 C   0  0  0  0  0  0  0  0  0  0  0  0
  190.9630  176.2380  143.7160 C   0  0  0  0  0  3  0  0  0  0  0  0
  189.3710  177.8940  145.7090 C   0  0  0  0  0  3  0  0  0  0  0  0
  189.9700  178.3760  144.4300 C   0  0  0  0  0  2  0  0  0  0  0  0
  189.3470  176.7060  147.7170 O   0  0  0  0  0  1  0  0  0  0  0  0
  190.1330  175.9650  137.5580 O   0  0  0  0  0  1  0  0  0  0  0  0
  190.7760  176.0150  138.7960 C   0  0  1  0  0  3  0  0  0  0  0  0
  192.7190  177.1270  139.5150 O   0  0  0  0  0  0  0  0  0  0  0  0
  192.1960  176.4640  138.6330 C   0  0  0  0  0  0  0  0  0  0  0  0
  192.9640  176.1250  137.3900 C   0  0  1  0  0  3  0  0  0  0  0  0
  193.9290  177.1040  137.1440 O   0  0  0  0  0  1  0  0  0  0  0  0
  193.6230  174.7620  137.5250 C   0  0  0  0  0  2  0  0  0  0  0  0
  195.8430  174.1260  138.7190 S   0  0  0  0  0  0  0  0  0  0  0  0
  197.7080  174.8770  136.7680 C   0  0  0  0  0  2  0  0  0  0  0  0
  196.7810  174.4420  135.6330 C   0  0  0  0  0  2  0  0  0  0  0  0
  195.3760  174.0990  136.1320 C   0  0  0  0  0  2  0  0  0  0  0  0
  197.5270  173.9900  137.9930 C   0  0  0  0  0  2  0  0  0  0  0  0
  195.0550  174.8840  137.3150 N   0  0  0  0  0  0  0  0  0  0  0  0
  1  9  1  0  0  0  0
  2  7  1  0  0  0  0
  3  2  2  0  0  0  0
  5  6  2  0  0  0  0
  6  3  1  0  0  0  0
  6  1  1  0  0  0  0
  7 10  1  0  0  0  0
  8  7  2  0  0  0  0
  9  4  1  1  0  0  0
  9  8  1  0  0  0  0
 10 15  2  0  0  0  0
 10 17  1  0  0  0  0
 11 18  1  0  0  0  0
 13 14  2  0  0  0  0
 14 11  1  0  0  0  0
 14 12  1  0  0  0  0
 15 13  1  0  0  0  0
 16 11  2  0  0  0  0
 17 16  1  0  0  0  0
 20 19  1  6  0  0  0
 20  3  1  0  0  0  0
 22 20  1  0  0  0  0
 22 21  2  0  0  0  0
 23 24  1  1  0  0  0
 23 25  1  0  0  0  0
 23 22  1  0  0  0  0
 27 30  1  0  0  0  0
 28 29  1  0  0  0  0
 28 27  1  0  0  0  0
 29 31  1  0  0  0  0
 30 26  1  0  0  0  0
 31 25  1  0  0  0  0
 31 26  1  0  0  0  0
M  END
>  <MODEL>
7

>  <REMARK>
 VINA RESULT:      -7.9      4.511      7.675
  Name = 
  6 active torsions:
  status: ('A' for Active; 'I' for Inactive)
    1  A    between atoms: C_3  and  C_14
    2  A    between atoms: C_8  and  C_18
    3  A    between atoms: C_18  and  C_26
    4  A    between atoms: C_19  and  C_26
    5  A    between atoms: C_19  and  C_31
    6  A    between atoms: N_29  and  C_31
                            x       y       z     vdW  Elec       q    Type
                         _______ _______ _______ _____ _____    ______ ____

>  <TORSDO>
F 6

$$$$
=
 OpenBabel11032419333D

 31 33  0  0  1  0  0  0  0  0999 V2000
  187.7880  178.2280  147.0640 N   0  0  0  0  0  2  0  0  0  0  0  0
  186.6540  177.8140  144.2760 N   0  0  0  0  0  0  0  0  0  0  0  0
  185.9530  178.2030  145.3080 C   0  0  0  0  0  0  0  0  0  0  0  0
  189.6410  176.6950  147.3310 C   0  0  0  0  0  1  0  0  0  0  0  0
  185.9500  179.6250  147.2010 O   0  0  0  0  0  0  0  0  0  0  0  0
  186.5570  178.7320  146.5510 C   0  0  0  0  0  0  0  0  0  0  0  0
  188.0850  177.7500  144.1090 C   0  0  0  0  0  0  0  0  0  0  0  0
  188.9090  177.4080  145.1070 C   0  0  0  0  0  3  0  0  0  0  0  0
  188.4470  177.0760  146.4810 C   0  0  2  0  0  3  0  0  0  0  0  0
  188.6490  177.9610  142.7540 C   0  0  0  0  0  0  0  0  0  0  0  0
  190.1610  176.8680  140.3030 C   0  0  0  0  0  0  0  0  0  0  0  0
  189.4240  178.1940  138.2540 C   0  0  0  0  0  1  0  0  0  0  0  0
  188.2200  178.4440  140.3310 C   0  0  0  0  0  3  0  0  0  0  0  0
  189.2620  177.8830  139.7010 C   0  0  0  0  0  0  0  0  0  0  0  0
  187.8240  178.2490  141.7410 C   0  0  0  0  0  3  0  0  0  0  0  0
  190.5370  176.8830  141.5840 C   0  0  0  0  0  3  0  0  0  0  0  0
  190.1340  177.9530  142.5430 C   0  0  0  0  0  2  0  0  0  0  0  0
  190.6630  175.8580  139.4920 O   0  0  0  0  0  1  0  0  0  0  0  0
  183.8750  178.5850  146.4090 O   0  0  0  0  0  1  0  0  0  0  0  0
  184.4570  178.2030  145.1980 C   0  0  1  0  0  3  0  0  0  0  0  0
  184.2720  180.2790  144.1090 O   0  0  0  0  0  0  0  0  0  0  0  0
  183.9880  179.0910  144.0870 C   0  0  0  0  0  0  0  0  0  0  0  0
  183.1550  178.5370  142.9690 C   0  0  1  0  0  3  0  0  0  0  0  0
  181.9350  179.2130  142.9020 O   0  0  0  0  0  1  0  0  0  0  0  0
  183.8920  178.6570  141.6450 C   0  0  0  0  0  2  0  0  0  0  0  0
  183.6400  179.4800  139.1930 S   0  0  0  0  0  0  0  0  0  0  0  0
  181.3190  178.1090  138.4280 C   0  0  0  0  0  2  0  0  0  0  0  0
  181.7040  176.8810  139.2550 C   0  0  0  0  0  2  0  0  0  0  0  0
  182.9090  177.1470  140.1590 C   0  0  0  0  0  2  0  0  0  0  0  0
  182.5560  178.8020  137.8700 C   0  0  0  0  0  2  0  0  0  0  0  0
  182.9510  178.5500  140.5440 N   0  0  0  0  0  0  0  0  0  0  0  0
  2  3  2  0  0  0  0
  3  6  1  0  0  0  0
  6  1  1  0  0  0  0
  6  5  2  0  0  0  0
  7  2  1  0  0  0  0
  7  8  2  0  0  0  0
  8  9  1  0  0  0  0
  9  1  1  0  0  0  0
  9  4  1  1  0  0  0
 10  7  1  0  0  0  0
 11 16  2  0  0  0  0
 12 14  1  0  0  0  0
 13 15  1  0  0  0  0
 14 11  1  0  0  0  0
 14 13  2  0  0  0  0
 15 10  2  0  0  0  0
 16 17  1  0  0  0  0
 17 10  1  0  0  0  0
 18 11  1  0  0  0  0
 20  3  1  0  0  0  0
 20 19  1  1  0  0  0
 22 21  2  0  0  0  0
 22 20  1  0  0  0  0
 23 24  1  6  0  0  0
 23 22  1  0  0  0  0
 25 23  1  0  0  0  0
 26 31  1  0  0  0  0
 27 28  1  0  0  0  0
 28 29  1  0  0  0  0
 29 31  1  0  0  0  0
 30 27  1  0  0  0  0
 30 26  1  0  0  0  0
 31 25  1  0  0  0  0
M  END
>  <MODEL>
8

>  <REMARK>
 VINA RESULT:      -7.9      2.318      6.075
  Name = 
  6 active torsions:
  status: ('A' for Active; 'I' for Inactive)
    1  A    between atoms: C_3  and  C_14
    2  A    between atoms: C_8  and  C_18
    3  A    between atoms: C_18  and  C_26
    4  A    between atoms: C_19  and  C_26
    5  A    between atoms: C_19  and  C_31
    6  A    between atoms: N_29  and  C_31
                            x       y       z     vdW  Elec       q    Type
                         _______ _______ _______ _____ _____    ______ ____

>  <TORSDO>
F 6

$$$$
=
 OpenBabel11032419333D

 31 33  0  0  1  0  0  0  0  0999 V2000
  190.9700  177.2220  147.7580 N   0  0  0  0  0  2  0  0  0  0  0  0
  188.7610  177.2950  145.6740 N   0  0  0  0  0  0  0  0  0  0  0  0
  188.5840  177.5310  146.9460 C   0  0  0  0  0  0  0  0  0  0  0  0
  192.6200  175.6160  147.0150 C   0  0  0  0  0  1  0  0  0  0  0  0
  189.4860  178.6290  148.8390 O   0  0  0  0  0  0  0  0  0  0  0  0
  189.6890  177.8360  147.8810 C   0  0  0  0  0  0  0  0  0  0  0  0
  189.9860  177.2190  144.9160 C   0  0  0  0  0  0  0  0  0  0  0  0
  191.1110  176.6980  145.4210 C   0  0  0  0  0  3  0  0  0  0  0  0
  191.2230  176.1610  146.8040 C   0  0  2  0  0  3  0  0  0  0  0  0
  189.9620  177.6300  143.4920 C   0  0  0  0  0  0  0  0  0  0  0  0
  190.6060  177.0290  140.5400 C   0  0  0  0  0  0  0  0  0  0  0  0
  188.9560  178.3200  139.0850 C   0  0  0  0  0  1  0  0  0  0  0  0
  188.5910  178.1830  141.4670 C   0  0  0  0  0  3  0  0  0  0  0  0
  189.3970  177.8840  140.4390 C   0  0  0  0  0  0  0  0  0  0  0  0
  188.7850  177.8170  142.8860 C   0  0  0  0  0  3  0  0  0  0  0  0
  191.4240  177.0310  141.5940 C   0  0  0  0  0  3  0  0  0  0  0  0
  191.2430  177.9310  142.7700 C   0  0  0  0  0  2  0  0  0  0  0  0
  190.9230  176.1970  139.4730 O   0  0  0  0  0  1  0  0  0  0  0  0
  187.1810  177.8560  148.8450 O   0  0  0  0  0  1  0  0  0  0  0  0
  187.1810  177.5910  147.4740 C   0  0  1  0  0  3  0  0  0  0  0  0
  185.9470  179.5890  147.3440 O   0  0  0  0  0  0  0  0  0  0  0  0
  186.3600  178.6090  146.7430 C   0  0  0  0  0  0  0  0  0  0  0  0
  186.0260  178.4190  145.2930 C   0  0  1  0  0  3  0  0  0  0  0  0
  185.9900  177.0580  144.9860 O   0  0  0  0  0  1  0  0  0  0  0  0
  184.6900  179.0660  144.9650 C   0  0  0  0  0  2  0  0  0  0  0  0
  182.4900  179.0030  143.5830 S   0  0  0  0  0  0  0  0  0  0  0  0
  183.4380  177.9730  141.1560 C   0  0  0  0  0  2  0  0  0  0  0  0
  184.7600  178.7300  141.2860 C   0  0  0  0  0  2  0  0  0  0  0  0
  184.9240  179.3770  142.6620 C   0  0  0  0  0  2  0  0  0  0  0  0
  182.2910  178.7650  141.7700 C   0  0  0  0  0  2  0  0  0  0  0  0
  184.2200  178.6000  143.6720 N   0  0  0  0  0  0  0  0  0  0  0  0
  1  6  1  0  0  0  0
  2  3  2  0  0  0  0
  3 20  1  0  0  0  0
  3  6  1  0  0  0  0
  6  5  2  0  0  0  0
  7  8  2  0  0  0  0
  7  2  1  0  0  0  0
  8  9  1  0  0  0  0
  9  4  1  1  0  0  0
  9  1  1  0  0  0  0
 10  7  1  0  0  0  0
 11 16  2  0  0  0  0
 12 14  1  0  0  0  0
 13 15  1  0  0  0  0
 14 11  1  0  0  0  0
 14 13  2  0  0  0  0
 15 10  2  0  0  0  0
 16 17  1  0  0  0  0
 17 10  1  0  0  0  0
 18 11  1  0  0  0  0
 20 19  1  1  0  0  0
 22 21  2  0  0  0  0
 22 20  1  0  0  0  0
 23 24  1  1  0  0  0
 23 22  1  0  0  0  0
 25 23  1  0  0  0  0
 26 31  1  0  0  0  0
 27 28  1  0  0  0  0
 27 30  1  0  0  0  0
 28 29  1  0  0  0  0
 29 31  1  0  0  0  0
 30 26  1  0  0  0  0
 31 25  1  0  0  0  0
M  END
>  <MODEL>
9

>  <REMARK>
 VINA RESULT:      -7.9      2.932      6.743
  Name = 
  6 active torsions:
  status: ('A' for Active; 'I' for Inactive)
    1  A    between atoms: C_3  and  C_14
    2  A    between atoms: C_8  and  C_18
    3  A    between atoms: C_18  and  C_26
    4  A    between atoms: C_19  and  C_26
    5  A    between atoms: C_19  and  C_31
    6  A    between atoms: N_29  and  C_31
                            x       y       z     vdW  Elec       q    Type
                         _______ _______ _______ _____ _____    ______ ____

>  <TORSDO>
F 6

$$$$
