=
 OpenBabel11042410323D

 35 39  0  0  1  0  0  0  0  0999 V2000
  185.1410  178.5110  140.9500 C   0  0  0  0  0  0  0  0  0  0  0  0
  184.5670  178.3200  143.6690 C   0  0  0  0  0  0  0  0  0  0  0  0
  185.3440  178.7780  139.4820 C   0  0  0  0  0  2  0  0  0  0  0  0
  182.2220  180.7300  138.9410 N   0  0  0  0  0  0  0  0  0  0  0  0
  185.9180  178.4590  143.2560 C   0  0  0  0  0  0  0  0  0  0  0  0
  182.4830  178.2600  140.2230 S   0  0  0  0  0  0  0  0  0  0  0  0
  181.9230  182.0520  138.3200 C   0  0  0  0  0  2  0  0  0  0  0  0
  183.1090  179.6790  139.3040 C   0  0  0  0  0  0  0  0  0  0  0  0
  180.8720  181.3630  138.8880 C   0  0  0  0  0  2  0  0  0  0  0  0
  183.5760  178.2710  142.7390 N   0  0  0  0  0  0  0  0  0  0  0  0
  184.3760  179.7780  139.0300 N   0  0  0  0  0  0  0  0  0  0  0  0
  186.1970  178.5510  141.8760 C   0  0  0  0  0  0  0  0  0  0  0  0
  183.8310  178.3400  141.4100 C   0  0  0  0  0  0  0  0  0  0  0  0
  184.1590  178.2920  145.1030 C   0  0  0  0  0  2  0  0  0  0  0  0
  183.2500  179.3200  145.3540 O   0  0  0  0  0  1  0  0  0  0  0  0
  187.0200  178.5280  144.1800 N   0  0  0  0  0  2  0  0  0  0  0  0
  187.4650  177.4740  145.0770 C   0  0  0  0  0  2  0  0  0  0  0  0
  188.1470  178.1860  148.7040 C   0  0  0  0  0  1  0  0  0  0  0  0
  188.2950  177.6530  147.3220 C   0  0  0  0  0  0  0  0  0  0  0  0
  189.4780  176.7910  147.0060 C   0  0  0  0  0  1  0  0  0  0  0  0
  187.4040  177.9450  146.4370 N   0  0  0  0  0  0  0  0  0  0  0  0
  187.6220  178.7030  141.4070 C   0  0  0  0  0  2  0  0  0  0  0  0
  188.2880  177.3780  140.9970 C   0  0  2  0  0  3  0  0  0  0  0  0
  190.0960  178.3440  142.4850 C   0  0  0  0  0  2  0  0  0  0  0  0
  189.5760  177.0730  141.7920 C   0  0  1  0  0  3  0  0  0  0  0  0
  190.6380  175.5950  143.1100 C   0  0  0  0  0  2  0  0  0  0  0  0
  191.8850  179.3200  144.2770 Cl  0  0  0  0  0  0  0  0  0  0  0  0
  191.4620  176.6750  143.8320 C   0  0  0  0  0  2  0  0  0  0  0  0
  190.7480  178.0280  143.8340 C   0  0  2  0  0  3  0  0  0  0  0  0
  189.3600  176.0630  142.7470 O   0  0  0  0  0  0  0  0  0  0  0  0
  189.7040  178.4550  137.9010 C   0  0  0  0  0  2  0  0  0  0  0  0
  190.1070  177.0050  137.9010 C   0  0  0  0  0  2  0  0  0  0  0  0
  188.5330  178.5470  138.8580 C   0  0  0  0  0  2  0  0  0  0  0  0
  188.3860  177.2530  139.5310 N   0  0  0  0  0  0  0  0  0  0  0  0
  189.5620  176.4640  139.1990 C   0  0  0  0  0  2  0  0  0  0  0  0
  1 13  2  0  0  0  0
  1 12  1  0  0  0  0
  2 14  1  0  0  0  0
  3  1  1  0  0  0  0
  4  8  1  0  0  0  0
  5  2  1  0  0  0  0
  5 16  1  0  0  0  0
  6 13  1  0  0  0  0
  7  9  1  0  0  0  0
  7  4  1  0  0  0  0
  8  6  1  0  0  0  0
  9  4  1  0  0  0  0
 10  2  2  0  0  0  0
 11  8  2  0  0  0  0
 11  3  1  0  0  0  0
 12  5  2  0  0  0  0
 13 10  1  0  0  0  0
 14 15  1  0  0  0  0
 16 17  1  0  0  0  0
 17 21  1  0  0  0  0
 19 18  1  0  0  0  0
 20 19  1  0  0  0  0
 21 19  2  0  0  0  0
 22 12  1  0  0  0  0
 23 22  1  6  0  0  0
 24 29  1  0  0  0  0
 25 23  1  1  0  0  0
 25 24  1  0  0  0  0
 25 30  1  0  0  0  0
 26 28  1  0  0  0  0
 28 29  1  0  0  0  0
 29 27  1  6  0  0  0
 30 26  1  0  0  0  0
 31 32  1  0  0  0  0
 31 33  1  0  0  0  0
 32 35  1  0  0  0  0
 33 34  1  0  0  0  0
 34 23  1  0  0  0  0
 35 34  1  0  0  0  0
M  END
>  <MODEL>
1

>  <REMARK>
 VINA RESULT:      -8.0      0.000      0.000
  Name = 
  8 active torsions:
  status: ('A' for Active; 'I' for Inactive)
    1  A    between atoms: CA_4  and  C_10
    2  A    between atoms: C_5  and  C_18
    3  A    between atoms: C_8  and  N_25
    4  A    between atoms: C_18  and  N_27
    5  A    between atoms: C_18  and  C_28
    6  A    between atoms: N_22  and  C_35
    7  A    between atoms: N_25  and  C_35
    8  A    between atoms: C_28  and  C_32
                            x       y       z     vdW  Elec       q    Type
                         _______ _______ _______ _____ _____    ______ ____

>  <TORSDO>
F 8

$$$$
=
 OpenBabel11042410323D

 35 39  0  0  1  0  0  0  0  0999 V2000
  189.3190  176.7060  139.1580 C   0  0  0  0  0  0  0  0  0  0  0  0
  187.0830  177.1540  137.5580 C   0  0  0  0  0  0  0  0  0  0  0  0
  190.6330  176.5320  139.8730 C   0  0  0  0  0  2  0  0  0  0  0  0
  192.7570  176.1780  136.8380 N   0  0  0  0  0  0  0  0  0  0  0  0
  187.2050  177.8530  138.7880 C   0  0  0  0  0  0  0  0  0  0  0  0
  190.3740  174.8360  137.4120 S   0  0  0  0  0  0  0  0  0  0  0  0
  194.0140  176.8330  136.3720 C   0  0  0  0  0  2  0  0  0  0  0  0
  191.7260  175.9650  137.7940 C   0  0  0  0  0  0  0  0  0  0  0  0
  193.4180  175.9230  135.5250 C   0  0  0  0  0  2  0  0  0  0  0  0
  188.0480  176.2720  137.1830 N   0  0  0  0  0  0  0  0  0  0  0  0
  191.7300  176.6340  138.9090 N   0  0  0  0  0  0  0  0  0  0  0  0
  188.3400  177.6140  139.5920 C   0  0  0  0  0  0  0  0  0  0  0  0
  189.1340  176.0200  137.9530 C   0  0  0  0  0  0  0  0  0  0  0  0
  185.9650  177.3900  136.6010 C   0  0  0  0  0  2  0  0  0  0  0  0
  186.4750  177.8260  135.3790 O   0  0  0  0  0  1  0  0  0  0  0  0
  186.2310  178.8080  139.2490 N   0  0  0  0  0  2  0  0  0  0  0  0
  184.7890  178.6270  139.2840 C   0  0  0  0  0  2  0  0  0  0  0  0
  182.3000  181.3620  138.6170 C   0  0  0  0  0  1  0  0  0  0  0  0
  182.8790  180.0080  138.8320 C   0  0  0  0  0  0  0  0  0  0  0  0
  181.9720  178.8180  138.7670 C   0  0  0  0  0  1  0  0  0  0  0  0
  184.1420  179.8950  139.0650 N   0  0  0  0  0  0  0  0  0  0  0  0
  188.4980  178.3440  140.9020 C   0  0  0  0  0  2  0  0  0  0  0  0
  188.0810  177.5170  142.1300 C   0  0  2  0  0  3  0  0  0  0  0  0
  186.5960  177.6660  144.1770 C   0  0  0  0  0  2  0  0  0  0  0  0
  186.6740  177.8740  142.6550 C   0  0  1  0  0  3  0  0  0  0  0  0
  184.9330  179.2860  142.4880 C   0  0  0  0  0  2  0  0  0  0  0  0
  185.0890  178.0670  146.3980 Cl  0  0  0  0  0  0  0  0  0  0  0  0
  184.5020  179.0900  143.9510 C   0  0  0  0  0  2  0  0  0  0  0  0
  185.6800  178.6960  144.8440 C   0  0  2  0  0  3  0  0  0  0  0  0
  186.3310  179.2010  142.3360 O   0  0  0  0  0  0  0  0  0  0  0  0
  191.3140  176.3790  143.1350 C   0  0  0  0  0  2  0  0  0  0  0  0
  191.5030  177.8690  143.2250 C   0  0  0  0  0  2  0  0  0  0  0  0
  189.8160  176.1600  143.2040 C   0  0  0  0  0  2  0  0  0  0  0  0
  189.1560  177.4670  143.1390 N   0  0  0  0  0  0  0  0  0  0  0  0
  190.1770  178.4440  142.7930 C   0  0  0  0  0  2  0  0  0  0  0  0
  1 12  1  0  0  0  0
  1  3  1  0  0  0  0
  2  5  1  0  0  0  0
  4  8  1  0  0  0  0
  5 16  1  0  0  0  0
  5 12  2  0  0  0  0
  6  8  1  0  0  0  0
  6 13  1  0  0  0  0
  7  4  1  0  0  0  0
  8 11  2  0  0  0  0
  9  7  1  0  0  0  0
  9  4  1  0  0  0  0
 10  2  2  0  0  0  0
 10 13  1  0  0  0  0
 11  3  1  0  0  0  0
 12 22  1  0  0  0  0
 13  1  2  0  0  0  0
 14  2  1  0  0  0  0
 15 14  1  0  0  0  0
 16 17  1  0  0  0  0
 18 19  1  0  0  0  0
 19 21  2  0  0  0  0
 20 19  1  0  0  0  0
 21 17  1  0  0  0  0
 23 22  1  6  0  0  0
 23 34  1  0  0  0  0
 24 29  1  0  0  0  0
 25 23  1  1  0  0  0
 25 24  1  0  0  0  0
 26 28  1  0  0  0  0
 28 29  1  0  0  0  0
 29 27  1  1  0  0  0
 30 26  1  0  0  0  0
 30 25  1  0  0  0  0
 31 33  1  0  0  0  0
 31 32  1  0  0  0  0
 34 33  1  0  0  0  0
 35 34  1  0  0  0  0
 35 32  1  0  0  0  0
M  END
>  <MODEL>
2

>  <REMARK>
 VINA RESULT:      -7.1      3.188      7.632
  Name = 
  8 active torsions:
  status: ('A' for Active; 'I' for Inactive)
    1  A    between atoms: CA_4  and  C_10
    2  A    between atoms: C_5  and  C_18
    3  A    between atoms: C_8  and  N_25
    4  A    between atoms: C_18  and  N_27
    5  A    between atoms: C_18  and  C_28
    6  A    between atoms: N_22  and  C_35
    7  A    between atoms: N_25  and  C_35
    8  A    between atoms: C_28  and  C_32
                            x       y       z     vdW  Elec       q    Type
                         _______ _______ _______ _____ _____    ______ ____

>  <TORSDO>
F 8

$$$$
=
 OpenBabel11042410323D

 35 39  0  0  1  0  0  0  0  0999 V2000
  188.3650  177.9910  139.9430 C   0  0  0  0  0  0  0  0  0  0  0  0
  190.1150  176.9110  141.8220 C   0  0  0  0  0  0  0  0  0  0  0  0
  187.3880  178.3900  138.8690 C   0  0  0  0  0  2  0  0  0  0  0  0
  187.9160  175.4430  136.6580 N   0  0  0  0  0  0  0  0  0  0  0  0
  188.9780  177.6350  142.2710 C   0  0  0  0  0  0  0  0  0  0  0  0
  189.8690  177.0810  137.8060 S   0  0  0  0  0  0  0  0  0  0  0  0
  187.0020  174.4630  136.0040 C   0  0  0  0  0  2  0  0  0  0  0  0
  188.1700  176.5990  137.4470 C   0  0  0  0  0  0  0  0  0  0  0  0
  188.3580  174.2730  135.8450 C   0  0  0  0  0  2  0  0  0  0  0  0
  190.3410  176.7640  140.4900 N   0  0  0  0  0  0  0  0  0  0  0  0
  187.1760  177.2630  137.9600 N   0  0  0  0  0  0  0  0  0  0  0  0
  188.1020  178.1800  141.3090 C   0  0  0  0  0  0  0  0  0  0  0  0
  189.5170  177.2980  139.5550 C   0  0  0  0  0  0  0  0  0  0  0  0
  191.0590  176.2310  142.7540 C   0  0  0  0  0  2  0  0  0  0  0  0
  190.5570  174.9760  143.0990 O   0  0  0  0  0  1  0  0  0  0  0  0
  188.6660  177.8260  143.6640 N   0  0  0  0  0  2  0  0  0  0  0  0
  189.6060  178.1460  144.7250 C   0  0  0  0  0  2  0  0  0  0  0  0
  188.5730  177.6330  148.3020 C   0  0  0  0  0  1  0  0  0  0  0  0
  189.3580  177.5610  147.0390 C   0  0  0  0  0  0  0  0  0  0  0  0
  190.6420  176.7890  147.0330 C   0  0  0  0  0  1  0  0  0  0  0  0
  188.9140  178.1620  145.9890 N   0  0  0  0  0  0  0  0  0  0  0  0
  186.8840  178.9510  141.7550 C   0  0  0  0  0  2  0  0  0  0  0  0
  185.5960  178.1100  141.7970 C   0  0  2  0  0  3  0  0  0  0  0  0
  183.2830  177.7570  140.8270 C   0  0  0  0  0  2  0  0  0  0  0  0
  184.6900  178.3220  140.5660 C   0  0  1  0  0  3  0  0  0  0  0  0
  184.1140  179.7200  138.9030 C   0  0  0  0  0  2  0  0  0  0  0  0
  180.7420  177.6080  139.8860 Cl  0  0  0  0  0  0  0  0  0  0  0  0
  182.6780  179.1790  138.8070 C   0  0  0  0  0  2  0  0  0  0  0  0
  182.2010  178.5930  140.1380 C   0  0  2  0  0  3  0  0  0  0  0  0
  184.6020  179.6840  140.2240 O   0  0  0  0  0  0  0  0  0  0  0  0
  185.8190  178.5420  145.3350 C   0  0  0  0  0  2  0  0  0  0  0  0
  184.9190  179.6920  144.9710 C   0  0  0  0  0  2  0  0  0  0  0  0
  185.7070  177.5640  144.1830 C   0  0  0  0  0  2  0  0  0  0  0  0
  184.9350  178.2000  143.1130 N   0  0  0  0  0  0  0  0  0  0  0  0
  184.7820  179.6020  143.4710 C   0  0  0  0  0  2  0  0  0  0  0  0
  1 12  1  0  0  0  0
  2  5  1  0  0  0  0
  2 14  1  0  0  0  0
  3  1  1  0  0  0  0
  4  8  1  0  0  0  0
  5 16  1  0  0  0  0
  6 13  1  0  0  0  0
  7  4  1  0  0  0  0
  8  6  1  0  0  0  0
  8 11  2  0  0  0  0
  9  7  1  0  0  0  0
  9  4  1  0  0  0  0
 10  2  2  0  0  0  0
 11  3  1  0  0  0  0
 12 22  1  0  0  0  0
 12  5  2  0  0  0  0
 13  1  2  0  0  0  0
 13 10  1  0  0  0  0
 14 15  1  0  0  0  0
 16 17  1  0  0  0  0
 17 21  1  0  0  0  0
 19 18  1  0  0  0  0
 20 19  1  0  0  0  0
 21 19  2  0  0  0  0
 23 22  1  1  0  0  0
 23 34  1  0  0  0  0
 25 24  1  0  0  0  0
 25 23  1  1  0  0  0
 26 30  1  0  0  0  0
 28 26  1  0  0  0  0
 28 29  1  0  0  0  0
 29 27  1  6  0  0  0
 29 24  1  0  0  0  0
 30 25  1  0  0  0  0
 32 31  1  0  0  0  0
 33 31  1  0  0  0  0
 34 35  1  0  0  0  0
 34 33  1  0  0  0  0
 35 32  1  0  0  0  0
M  END
>  <MODEL>
3

>  <REMARK>
 VINA RESULT:      -7.0      3.155      6.563
  Name = 
  8 active torsions:
  status: ('A' for Active; 'I' for Inactive)
    1  A    between atoms: CA_4  and  C_10
    2  A    between atoms: C_5  and  C_18
    3  A    between atoms: C_8  and  N_25
    4  A    between atoms: C_18  and  N_27
    5  A    between atoms: C_18  and  C_28
    6  A    between atoms: N_22  and  C_35
    7  A    between atoms: N_25  and  C_35
    8  A    between atoms: C_28  and  C_32
                            x       y       z     vdW  Elec       q    Type
                         _______ _______ _______ _____ _____    ______ ____

>  <TORSDO>
F 8

$$$$
=
 OpenBabel11042410323D

 35 39  0  0  1  0  0  0  0  0999 V2000
  189.6700  176.5990  138.7480 C   0  0  0  0  0  0  0  0  0  0  0  0
  187.3550  176.9840  137.2470 C   0  0  0  0  0  0  0  0  0  0  0  0
  191.0190  176.4560  139.4020 C   0  0  0  0  0  2  0  0  0  0  0  0
  192.9960  176.0310  136.2780 N   0  0  0  0  0  0  0  0  0  0  0  0
  187.5300  177.7190  138.4490 C   0  0  0  0  0  0  0  0  0  0  0  0
  190.6550  174.6880  137.0060 S   0  0  0  0  0  0  0  0  0  0  0  0
  194.2220  176.6820  135.7320 C   0  0  0  0  0  2  0  0  0  0  0  0
  192.0150  175.8370  137.2890 C   0  0  0  0  0  0  0  0  0  0  0  0
  193.5940  175.7430  134.9420 C   0  0  0  0  0  2  0  0  0  0  0  0
  188.3080  176.0990  136.8500 N   0  0  0  0  0  0  0  0  0  0  0  0
  192.0660  176.5380  138.3830 N   0  0  0  0  0  0  0  0  0  0  0  0
  188.7050  177.5110  139.2030 C   0  0  0  0  0  0  0  0  0  0  0  0
  189.4330  175.8770  137.5730 C   0  0  0  0  0  0  0  0  0  0  0  0
  186.1890  177.1840  136.3400 C   0  0  0  0  0  2  0  0  0  0  0  0
  186.5720  177.9590  135.2450 O   0  0  0  0  0  1  0  0  0  0  0  0
  186.5720  178.6800  138.9310 N   0  0  0  0  0  2  0  0  0  0  0  0
  185.1660  178.4350  139.2080 C   0  0  0  0  0  2  0  0  0  0  0  0
  182.4970  181.0400  138.7370 C   0  0  0  0  0  1  0  0  0  0  0  0
  183.1680  179.7150  138.8430 C   0  0  0  0  0  0  0  0  0  0  0  0
  182.3480  178.4760  138.6590 C   0  0  0  0  0  1  0  0  0  0  0  0
  184.4330  179.6700  139.0880 N   0  0  0  0  0  0  0  0  0  0  0  0
  188.9200  178.2800  140.4830 C   0  0  0  0  0  2  0  0  0  0  0  0
  188.9730  177.3940  141.7400 C   0  0  2  0  0  3  0  0  0  0  0  0
  186.6680  178.3350  142.2070 C   0  0  0  0  0  2  0  0  0  0  0  0
  187.9790  177.8340  142.8360 C   0  0  1  0  0  3  0  0  0  0  0  0
  187.1450  177.3850  144.8740 C   0  0  0  0  0  2  0  0  0  0  0  0
  184.1150  179.1020  142.7140 Cl  0  0  0  0  0  0  0  0  0  0  0  0
  185.7810  178.0290  144.5700 C   0  0  0  0  0  2  0  0  0  0  0  0
  185.4550  177.9920  143.0760 C   0  0  2  0  0  3  0  0  0  0  0  0
  187.7080  176.7830  143.7320 O   0  0  0  0  0  0  0  0  0  0  0  0
  191.4280  177.4090  144.3330 C   0  0  0  0  0  2  0  0  0  0  0  0
  191.4770  175.9650  143.9130 C   0  0  0  0  0  2  0  0  0  0  0  0
  190.8230  178.1490  143.1570 C   0  0  0  0  0  2  0  0  0  0  0  0
  190.3620  177.1600  142.1790 N   0  0  0  0  0  0  0  0  0  0  0  0
  190.4440  175.8560  142.8190 C   0  0  0  0  0  2  0  0  0  0  0  0
  1 12  1  0  0  0  0
  1  3  1  0  0  0  0
  2  5  1  0  0  0  0
  4  8  1  0  0  0  0
  5 16  1  0  0  0  0
  5 12  2  0  0  0  0
  6  8  1  0  0  0  0
  6 13  1  0  0  0  0
  7  4  1  0  0  0  0
  8 11  2  0  0  0  0
  9  7  1  0  0  0  0
  9  4  1  0  0  0  0
 10  2  2  0  0  0  0
 10 13  1  0  0  0  0
 11  3  1  0  0  0  0
 12 22  1  0  0  0  0
 13  1  2  0  0  0  0
 14  2  1  0  0  0  0
 15 14  1  0  0  0  0
 16 17  1  0  0  0  0
 18 19  1  0  0  0  0
 19 21  2  0  0  0  0
 20 19  1  0  0  0  0
 21 17  1  0  0  0  0
 23 22  1  6  0  0  0
 23 34  1  0  0  0  0
 24 25  1  0  0  0  0
 24 29  1  0  0  0  0
 25 23  1  6  0  0  0
 25 30  1  0  0  0  0
 28 26  1  0  0  0  0
 29 27  1  1  0  0  0
 29 28  1  0  0  0  0
 30 26  1  0  0  0  0
 32 31  1  0  0  0  0
 33 31  1  0  0  0  0
 34 35  1  0  0  0  0
 34 33  1  0  0  0  0
 35 32  1  0  0  0  0
M  END
>  <MODEL>
4

>  <REMARK>
 VINA RESULT:      -6.9      3.334      7.691
  Name = 
  8 active torsions:
  status: ('A' for Active; 'I' for Inactive)
    1  A    between atoms: CA_4  and  C_10
    2  A    between atoms: C_5  and  C_18
    3  A    between atoms: C_8  and  N_25
    4  A    between atoms: C_18  and  N_27
    5  A    between atoms: C_18  and  C_28
    6  A    between atoms: N_22  and  C_35
    7  A    between atoms: N_25  and  C_35
    8  A    between atoms: C_28  and  C_32
                            x       y       z     vdW  Elec       q    Type
                         _______ _______ _______ _____ _____    ______ ____

>  <TORSDO>
F 8

$$$$
=
 OpenBabel11042410323D

 35 39  0  0  1  0  0  0  0  0999 V2000
  187.8310  178.0110  139.5640 C   0  0  0  0  0  0  0  0  0  0  0  0
  189.5790  177.1400  141.5500 C   0  0  0  0  0  0  0  0  0  0  0  0
  186.8660  178.2930  138.4430 C   0  0  0  0  0  2  0  0  0  0  0  0
  187.6080  175.2510  136.4310 N   0  0  0  0  0  0  0  0  0  0  0  0
  188.3950  177.8280  141.9250 C   0  0  0  0  0  0  0  0  0  0  0  0
  189.4410  177.0550  137.5260 S   0  0  0  0  0  0  0  0  0  0  0  0
  186.7640  174.1860  135.8160 C   0  0  0  0  0  2  0  0  0  0  0  0
  187.7790  176.4640  137.1540 C   0  0  0  0  0  0  0  0  0  0  0  0
  188.1320  174.0590  135.7030 C   0  0  0  0  0  2  0  0  0  0  0  0
  189.8500  176.9260  140.2360 N   0  0  0  0  0  0  0  0  0  0  0  0
  186.7380  177.1040  137.6000 N   0  0  0  0  0  0  0  0  0  0  0  0
  187.5190  178.2680  140.9090 C   0  0  0  0  0  0  0  0  0  0  0  0
  189.0270  177.3580  139.2490 C   0  0  0  0  0  0  0  0  0  0  0  0
  190.5300  176.5680  142.5460 C   0  0  0  0  0  2  0  0  0  0  0  0
  190.1670  175.2540  142.8420 O   0  0  0  0  0  1  0  0  0  0  0  0
  188.0330  178.0850  143.2950 N   0  0  0  0  0  2  0  0  0  0  0  0
  187.6550  177.0960  144.2900 C   0  0  0  0  0  2  0  0  0  0  0  0
  188.8880  177.8720  147.7550 C   0  0  0  0  0  1  0  0  0  0  0  0
  187.9800  177.7180  146.5850 C   0  0  0  0  0  0  0  0  0  0  0  0
  186.5370  178.0870  146.7420 C   0  0  0  0  0  1  0  0  0  0  0  0
  188.4580  177.2760  145.4730 N   0  0  0  0  0  0  0  0  0  0  0  0
  186.2510  178.9980  141.2750 C   0  0  0  0  0  2  0  0  0  0  0  0
  185.0980  178.0700  141.6960 C   0  0  2  0  0  3  0  0  0  0  0  0
  183.6720  179.5070  140.1750 C   0  0  0  0  0  2  0  0  0  0  0  0
  183.9140  178.0840  140.7070 C   0  0  1  0  0  3  0  0  0  0  0  0
  182.8740  176.9940  139.0390 C   0  0  0  0  0  2  0  0  0  0  0  0
  182.3110  180.9960  138.3580 Cl  0  0  0  0  0  0  0  0  0  0  0  0
  182.3150  178.2800  138.4080 C   0  0  0  0  0  2  0  0  0  0  0  0
  183.1920  179.4950  138.7210 C   0  0  2  0  0  3  0  0  0  0  0  0
  184.1350  177.2030  139.6320 O   0  0  0  0  0  0  0  0  0  0  0  0
  183.8730  180.1360  144.3390 C   0  0  0  0  0  2  0  0  0  0  0  0
  182.8900  178.9980  144.3980 C   0  0  0  0  0  2  0  0  0  0  0  0
  185.0890  179.5800  143.6250 C   0  0  0  0  0  2  0  0  0  0  0  0
  184.7560  178.2450  143.1200 N   0  0  0  0  0  0  0  0  0  0  0  0
  183.3210  178.0710  143.2880 C   0  0  0  0  0  2  0  0  0  0  0  0
  1 12  1  0  0  0  0
  2  5  1  0  0  0  0
  2 14  1  0  0  0  0
  3  1  1  0  0  0  0
  4  8  1  0  0  0  0
  5 16  1  0  0  0  0
  6 13  1  0  0  0  0
  7  4  1  0  0  0  0
  8  6  1  0  0  0  0
  8 11  2  0  0  0  0
  9  7  1  0  0  0  0
  9  4  1  0  0  0  0
 10  2  2  0  0  0  0
 11  3  1  0  0  0  0
 12 22  1  0  0  0  0
 12  5  2  0  0  0  0
 13  1  2  0  0  0  0
 13 10  1  0  0  0  0
 14 15  1  0  0  0  0
 16 17  1  0  0  0  0
 17 21  1  0  0  0  0
 19 20  1  0  0  0  0
 19 18  1  0  0  0  0
 21 19  2  0  0  0  0
 23 22  1  6  0  0  0
 23 34  1  0  0  0  0
 24 25  1  0  0  0  0
 25 23  1  1  0  0  0
 26 30  1  0  0  0  0
 28 29  1  0  0  0  0
 28 26  1  0  0  0  0
 29 27  1  1  0  0  0
 29 24  1  0  0  0  0
 30 25  1  0  0  0  0
 31 32  1  0  0  0  0
 33 31  1  0  0  0  0
 34 35  1  0  0  0  0
 34 33  1  0  0  0  0
 35 32  1  0  0  0  0
M  END
>  <MODEL>
5

>  <REMARK>
 VINA RESULT:      -6.6      3.121      6.538
  Name = 
  8 active torsions:
  status: ('A' for Active; 'I' for Inactive)
    1  A    between atoms: CA_4  and  C_10
    2  A    between atoms: C_5  and  C_18
    3  A    between atoms: C_8  and  N_25
    4  A    between atoms: C_18  and  N_27
    5  A    between atoms: C_18  and  C_28
    6  A    between atoms: N_22  and  C_35
    7  A    between atoms: N_25  and  C_35
    8  A    between atoms: C_28  and  C_32
                            x       y       z     vdW  Elec       q    Type
                         _______ _______ _______ _____ _____    ______ ____

>  <TORSDO>
F 8

$$$$
=
 OpenBabel11042410323D

 35 39  0  0  1  0  0  0  0  0999 V2000
  183.2640  176.7420  137.6970 C   0  0  0  0  0  0  0  0  0  0  0  0
  185.7610  177.9730  137.8140 C   0  0  0  0  0  0  0  0  0  0  0  0
  182.0120  175.9080  137.6550 C   0  0  0  0  0  2  0  0  0  0  0  0
  183.5920  172.7810  136.3990 N   0  0  0  0  0  0  0  0  0  0  0  0
  184.7930  178.2760  138.8090 C   0  0  0  0  0  0  0  0  0  0  0  0
  183.8900  175.3670  135.3790 S   0  0  0  0  0  0  0  0  0  0  0  0
  183.5640  171.3570  136.8420 C   0  0  0  0  0  2  0  0  0  0  0  0
  183.1880  174.1410  136.5000 C   0  0  0  0  0  0  0  0  0  0  0  0
  184.3700  171.6750  135.7710 C   0  0  0  0  0  2  0  0  0  0  0  0
  185.4560  177.1000  136.8170 N   0  0  0  0  0  0  0  0  0  0  0  0
  182.3670  174.5050  137.4410 N   0  0  0  0  0  0  0  0  0  0  0  0
  183.5310  177.6490  138.7360 C   0  0  0  0  0  0  0  0  0  0  0  0
  184.2420  176.5050  136.7250 C   0  0  0  0  0  0  0  0  0  0  0  0
  187.1470  178.5210  137.8430 C   0  0  0  0  0  2  0  0  0  0  0  0
  187.2790  179.5190  136.8780 O   0  0  0  0  0  1  0  0  0  0  0  0
  185.0430  179.1810  139.9000 N   0  0  0  0  0  2  0  0  0  0  0  0
  185.6330  178.8450  141.1860 C   0  0  0  0  0  2  0  0  0  0  0  0
  183.7900  178.9970  144.4580 C   0  0  0  0  0  1  0  0  0  0  0  0
  184.8360  178.6880  143.4440 C   0  0  0  0  0  0  0  0  0  0  0  0
  186.0430  177.9100  143.8690 C   0  0  0  0  0  1  0  0  0  0  0  0
  184.6750  179.0960  142.2320 N   0  0  0  0  0  0  0  0  0  0  0  0
  182.4840  177.9480  139.7800 C   0  0  0  0  0  2  0  0  0  0  0  0
  181.7450  179.2790  139.5580 C   0  0  2  0  0  3  0  0  0  0  0  0
  180.7890  178.6940  141.8290 C   0  0  0  0  0  2  0  0  0  0  0  0
  180.5680  179.4910  140.5320 C   0  0  1  0  0  3  0  0  0  0  0  0
  179.0960  180.9680  141.3740 C   0  0  0  0  0  2  0  0  0  0  0  0
  179.8900  178.2690  144.3540 Cl  0  0  0  0  0  0  0  0  0  0  0  0
  178.9670  180.2290  142.7170 C   0  0  0  0  0  2  0  0  0  0  0  0
  180.2270  179.4280  143.0500 C   0  0  2  0  0  3  0  0  0  0  0  0
  180.3930  180.8550  140.8350 O   0  0  0  0  0  0  0  0  0  0  0  0
  179.4480  180.2320  136.9950 C   0  0  0  0  0  2  0  0  0  0  0  0
  180.5420  181.2410  136.7760 C   0  0  0  0  0  2  0  0  0  0  0  0
  180.0980  179.0930  137.7540 C   0  0  0  0  0  2  0  0  0  0  0  0
  181.4540  179.5040  138.1290 N   0  0  0  0  0  0  0  0  0  0  0  0
  181.5630  180.9260  137.8410 C   0  0  0  0  0  2  0  0  0  0  0  0
  1 12  1  0  0  0  0
  2 14  1  0  0  0  0
  2  5  1  0  0  0  0
  3  1  1  0  0  0  0
  4  8  1  0  0  0  0
  4  7  1  0  0  0  0
  5 16  1  0  0  0  0
  6  8  1  0  0  0  0
  6 13  1  0  0  0  0
  8 11  2  0  0  0  0
  9  4  1  0  0  0  0
  9  7  1  0  0  0  0
 10  2  2  0  0  0  0
 11  3  1  0  0  0  0
 12  5  2  0  0  0  0
 12 22  1  0  0  0  0
 13 10  1  0  0  0  0
 13  1  2  0  0  0  0
 15 14  1  0  0  0  0
 16 17  1  0  0  0  0
 17 21  1  0  0  0  0
 19 20  1  0  0  0  0
 19 18  1  0  0  0  0
 21 19  2  0  0  0  0
 23 22  1  6  0  0  0
 24 29  1  0  0  0  0
 25 23  1  6  0  0  0
 25 30  1  0  0  0  0
 25 24  1  0  0  0  0
 26 28  1  0  0  0  0
 28 29  1  0  0  0  0
 29 27  1  1  0  0  0
 30 26  1  0  0  0  0
 31 33  1  0  0  0  0
 32 31  1  0  0  0  0
 32 35  1  0  0  0  0
 33 34  1  0  0  0  0
 34 23  1  0  0  0  0
 35 34  1  0  0  0  0
M  END
>  <MODEL>
6

>  <REMARK>
 VINA RESULT:      -6.4      4.391      8.087
  Name = 
  8 active torsions:
  status: ('A' for Active; 'I' for Inactive)
    1  A    between atoms: CA_4  and  C_10
    2  A    between atoms: C_5  and  C_18
    3  A    between atoms: C_8  and  N_25
    4  A    between atoms: C_18  and  N_27
    5  A    between atoms: C_18  and  C_28
    6  A    between atoms: N_22  and  C_35
    7  A    between atoms: N_25  and  C_35
    8  A    between atoms: C_28  and  C_32
                            x       y       z     vdW  Elec       q    Type
                         _______ _______ _______ _____ _____    ______ ____

>  <TORSDO>
F 8

$$$$
=
 OpenBabel11042410323D

 35 39  0  0  1  0  0  0  0  0999 V2000
  185.8550  178.4280  139.5780 C   0  0  0  0  0  0  0  0  0  0  0  0
  187.7230  177.2870  137.8560 C   0  0  0  0  0  0  0  0  0  0  0  0
  184.7500  178.8740  140.4980 C   0  0  0  0  0  2  0  0  0  0  0  0
  182.1250  176.5760  139.2030 N   0  0  0  0  0  0  0  0  0  0  0  0
  188.1380  177.7040  139.1480 C   0  0  0  0  0  0  0  0  0  0  0  0
  183.8120  178.2390  137.7200 S   0  0  0  0  0  0  0  0  0  0  0  0
  181.1820  175.6150  139.8450 C   0  0  0  0  0  2  0  0  0  0  0  0
  183.1410  177.5690  139.2530 C   0  0  0  0  0  0  0  0  0  0  0  0
  181.1780  175.6880  138.4680 C   0  0  0  0  0  2  0  0  0  0  0  0
  186.4300  177.4570  137.4730 N   0  0  0  0  0  0  0  0  0  0  0  0
  183.6270  177.9400  140.4020 N   0  0  0  0  0  0  0  0  0  0  0  0
  187.1830  178.2850  140.0100 C   0  0  0  0  0  0  0  0  0  0  0  0
  185.5070  178.0290  138.2830 C   0  0  0  0  0  0  0  0  0  0  0  0
  188.6330  176.5940  136.9000 C   0  0  0  0  0  2  0  0  0  0  0  0
  189.3750  177.5360  136.1890 O   0  0  0  0  0  1  0  0  0  0  0  0
  189.4860  177.5490  139.6300 N   0  0  0  0  0  2  0  0  0  0  0  0
  190.3300  176.3760  139.4770 C   0  0  0  0  0  2  0  0  0  0  0  0
  193.4700  176.4900  137.4140 C   0  0  0  0  0  1  0  0  0  0  0  0
  192.1900  176.0110  138.0050 C   0  0  0  0  0  0  0  0  0  0  0  0
  191.6640  174.6710  137.5910 C   0  0  0  0  0  1  0  0  0  0  0  0
  191.5720  176.7570  138.8540 N   0  0  0  0  0  0  0  0  0  0  0  0
  187.5930  178.7350  141.3890 C   0  0  0  0  0  2  0  0  0  0  0  0
  187.3050  177.7020  142.4930 C   0  0  2  0  0  3  0  0  0  0  0  0
  186.3150  177.8490  144.8190 C   0  0  0  0  0  2  0  0  0  0  0  0
  186.0410  178.0270  143.3160 C   0  0  1  0  0  3  0  0  0  0  0  0
  184.2600  179.3820  143.5270 C   0  0  0  0  0  2  0  0  0  0  0  0
  185.3320  178.2500  147.3170 Cl  0  0  0  0  0  0  0  0  0  0  0  0
  184.1760  179.2040  145.0520 C   0  0  0  0  0  2  0  0  0  0  0  0
  185.5380  178.8640  145.6620 C   0  0  2  0  0  3  0  0  0  0  0  0
  185.5900  179.3360  143.0650 O   0  0  0  0  0  0  0  0  0  0  0  0
  190.4500  176.0280  142.7450 C   0  0  0  0  0  2  0  0  0  0  0  0
  190.8800  177.4570  142.9390 C   0  0  0  0  0  2  0  0  0  0  0  0
  188.9720  176.0040  143.0780 C   0  0  0  0  0  2  0  0  0  0  0  0
  188.5200  177.3860  143.2670 N   0  0  0  0  0  0  0  0  0  0  0  0
  189.6030  178.2530  142.8270 C   0  0  0  0  0  2  0  0  0  0  0  0
  1 12  1  0  0  0  0
  1  3  1  0  0  0  0
  2  5  1  0  0  0  0
  4  8  1  0  0  0  0
  4  7  1  0  0  0  0
  5 16  1  0  0  0  0
  5 12  2  0  0  0  0
  6 13  1  0  0  0  0
  6  8  1  0  0  0  0
  8 11  2  0  0  0  0
  9  4  1  0  0  0  0
  9  7  1  0  0  0  0
 10  2  2  0  0  0  0
 10 13  1  0  0  0  0
 11  3  1  0  0  0  0
 12 22  1  0  0  0  0
 13  1  2  0  0  0  0
 14  2  1  0  0  0  0
 15 14  1  0  0  0  0
 17 16  1  0  0  0  0
 18 19  1  0  0  0  0
 19 21  2  0  0  0  0
 20 19  1  0  0  0  0
 21 17  1  0  0  0  0
 23 22  1  1  0  0  0
 23 34  1  0  0  0  0
 24 29  1  0  0  0  0
 25 23  1  6  0  0  0
 25 24  1  0  0  0  0
 26 28  1  0  0  0  0
 28 29  1  0  0  0  0
 29 27  1  1  0  0  0
 30 25  1  0  0  0  0
 30 26  1  0  0  0  0
 31 32  1  0  0  0  0
 31 33  1  0  0  0  0
 33 34  1  0  0  0  0
 35 32  1  0  0  0  0
 35 34  1  0  0  0  0
M  END
>  <MODEL>
7

>  <REMARK>
 VINA RESULT:      -6.3      2.707      6.173
  Name = 
  8 active torsions:
  status: ('A' for Active; 'I' for Inactive)
    1  A    between atoms: CA_4  and  C_10
    2  A    between atoms: C_5  and  C_18
    3  A    between atoms: C_8  and  N_25
    4  A    between atoms: C_18  and  N_27
    5  A    between atoms: C_18  and  C_28
    6  A    between atoms: N_22  and  C_35
    7  A    between atoms: N_25  and  C_35
    8  A    between atoms: C_28  and  C_32
                            x       y       z     vdW  Elec       q    Type
                         _______ _______ _______ _____ _____    ______ ____

>  <TORSDO>
F 8

$$$$
=
 OpenBabel11042410323D

 35 39  0  0  1  0  0  0  0  0999 V2000
  187.1850  177.8770  138.0020 C   0  0  0  0  0  0  0  0  0  0  0  0
  187.8770  178.2530  140.6740 C   0  0  0  0  0  0  0  0  0  0  0  0
  186.8510  177.4850  136.5870 C   0  0  0  0  0  2  0  0  0  0  0  0
  189.0160  174.4610  136.4330 N   0  0  0  0  0  0  0  0  0  0  0  0
  186.5570  178.5610  140.2520 C   0  0  0  0  0  0  0  0  0  0  0  0
  189.7240  177.0170  137.3150 S   0  0  0  0  0  0  0  0  0  0  0  0
  188.7870  173.0440  136.0290 C   0  0  0  0  0  2  0  0  0  0  0  0
  188.5910  175.8070  136.6080 C   0  0  0  0  0  0  0  0  0  0  0  0
  190.0350  173.3740  136.5130 C   0  0  0  0  0  2  0  0  0  0  0  0
  188.7850  177.7920  139.7740 N   0  0  0  0  0  0  0  0  0  0  0  0
  187.3670  176.1420  136.3190 N   0  0  0  0  0  0  0  0  0  0  0  0
  186.2200  178.3700  138.8950 C   0  0  0  0  0  0  0  0  0  0  0  0
  188.4800  177.6210  138.4640 C   0  0  0  0  0  0  0  0  0  0  0  0
  188.3120  178.3460  142.0970 C   0  0  0  0  0  2  0  0  0  0  0  0
  188.3590  177.0700  142.6590 O   0  0  0  0  0  1  0  0  0  0  0  0
  185.5370  179.0440  141.1460 N   0  0  0  0  0  2  0  0  0  0  0  0
  184.7140  178.2400  142.0350 C   0  0  0  0  0  2  0  0  0  0  0  0
  185.1070  178.7550  145.7370 C   0  0  0  0  0  1  0  0  0  0  0  0
  184.4920  178.6800  144.3840 C   0  0  0  0  0  0  0  0  0  0  0  0
  183.0370  179.0060  144.2360 C   0  0  0  0  0  1  0  0  0  0  0  0
  185.2230  178.3390  143.3790 N   0  0  0  0  0  0  0  0  0  0  0  0
  184.8240  178.6850  138.4170 C   0  0  0  0  0  2  0  0  0  0  0  0
  183.8480  177.5000  138.5240 C   0  0  2  0  0  3  0  0  0  0  0  0
  183.9220  175.0450  137.9060 C   0  0  0  0  0  2  0  0  0  0  0  0
  183.9940  176.4860  137.3700 C   0  0  1  0  0  3  0  0  0  0  0  0
  183.4610  176.0060  135.2400 C   0  0  0  0  0  2  0  0  0  0  0  0
  183.7470  172.4270  137.2150 Cl  0  0  0  0  0  0  0  0  0  0  0  0
  183.5320  174.4850  135.4560 C   0  0  0  0  0  2  0  0  0  0  0  0
  183.2410  174.1030  136.9090 C   0  0  2  0  0  3  0  0  0  0  0  0
  183.0040  176.6800  136.3890 O   0  0  0  0  0  0  0  0  0  0  0  0
  181.2830  178.2260  140.9010 C   0  0  0  0  0  2  0  0  0  0  0  0
  181.4220  179.5640  140.2260 C   0  0  0  0  0  2  0  0  0  0  0  0
  181.8550  177.2210  139.9220 C   0  0  0  0  0  2  0  0  0  0  0  0
  182.4760  177.9560  138.8160 N   0  0  0  0  0  0  0  0  0  0  0  0
  182.5140  179.3580  139.2050 C   0  0  0  0  0  2  0  0  0  0  0  0
  1 13  2  0  0  0  0
  1 12  1  0  0  0  0
  2 14  1  0  0  0  0
  3  1  1  0  0  0  0
  4  9  1  0  0  0  0
  4  8  1  0  0  0  0
  5  2  1  0  0  0  0
  5 16  1  0  0  0  0
  6 13  1  0  0  0  0
  7  4  1  0  0  0  0
  7  9  1  0  0  0  0
  8  6  1  0  0  0  0
 10  2  2  0  0  0  0
 11  3  1  0  0  0  0
 11  8  2  0  0  0  0
 12  5  2  0  0  0  0
 13 10  1  0  0  0  0
 14 15  1  0  0  0  0
 16 17  1  0  0  0  0
 17 21  1  0  0  0  0
 19 18  1  0  0  0  0
 20 19  1  0  0  0  0
 21 19  2  0  0  0  0
 22 12  1  0  0  0  0
 23 22  1  6  0  0  0
 23 34  1  0  0  0  0
 25 24  1  0  0  0  0
 25 23  1  1  0  0  0
 26 28  1  0  0  0  0
 26 30  1  0  0  0  0
 28 29  1  0  0  0  0
 29 27  1  1  0  0  0
 29 24  1  0  0  0  0
 30 25  1  0  0  0  0
 32 31  1  0  0  0  0
 33 31  1  0  0  0  0
 34 35  1  0  0  0  0
 34 33  1  0  0  0  0
 35 32  1  0  0  0  0
M  END
>  <MODEL>
8

>  <REMARK>
 VINA RESULT:      -6.2      4.060      7.458
  Name = 
  8 active torsions:
  status: ('A' for Active; 'I' for Inactive)
    1  A    between atoms: CA_4  and  C_10
    2  A    between atoms: C_5  and  C_18
    3  A    between atoms: C_8  and  N_25
    4  A    between atoms: C_18  and  N_27
    5  A    between atoms: C_18  and  C_28
    6  A    between atoms: N_22  and  C_35
    7  A    between atoms: N_25  and  C_35
    8  A    between atoms: C_28  and  C_32
                            x       y       z     vdW  Elec       q    Type
                         _______ _______ _______ _____ _____    ______ ____

>  <TORSDO>
F 8

$$$$
=
 OpenBabel11042410323D

 35 39  0  0  1  0  0  0  0  0999 V2000
  181.0330  179.9840  139.3640 C   0  0  0  0  0  0  0  0  0  0  0  0
  179.9770  179.9170  141.9400 C   0  0  0  0  0  0  0  0  0  0  0  0
  181.6190  180.2140  137.9960 C   0  0  0  0  0  2  0  0  0  0  0  0
  180.4890  183.7380  137.6050 N   0  0  0  0  0  0  0  0  0  0  0  0
  181.1820  179.2170  141.6690 C   0  0  0  0  0  0  0  0  0  0  0  0
  178.9580  181.5380  138.3980 S   0  0  0  0  0  0  0  0  0  0  0  0
  181.1750  185.0090  137.2310 C   0  0  0  0  0  2  0  0  0  0  0  0
  180.4710  182.3330  137.8240 C   0  0  0  0  0  0  0  0  0  0  0  0
  179.8410  185.0810  137.5710 C   0  0  0  0  0  2  0  0  0  0  0  0
  179.3510  180.5990  140.9450 N   0  0  0  0  0  0  0  0  0  0  0  0
  181.5610  181.6400  137.6740 N   0  0  0  0  0  0  0  0  0  0  0  0
  181.7040  179.2540  140.3580 C   0  0  0  0  0  0  0  0  0  0  0  0
  179.8320  180.6290  139.6780 C   0  0  0  0  0  0  0  0  0  0  0  0
  179.3830  180.0040  143.3050 C   0  0  0  0  0  2  0  0  0  0  0  0
  178.9580  178.7400  143.7150 O   0  0  0  0  0  1  0  0  0  0  0  0
  181.9070  178.4800  142.6710 N   0  0  0  0  0  2  0  0  0  0  0  0
  182.8780  179.0210  143.6090 C   0  0  0  0  0  2  0  0  0  0  0  0
  186.4410  177.8400  143.7890 C   0  0  0  0  0  1  0  0  0  0  0  0
  185.1260  178.4140  144.1870 C   0  0  0  0  0  0  0  0  0  0  0  0
  184.9490  178.8980  145.5930 C   0  0  0  0  0  1  0  0  0  0  0  0
  184.1810  178.4810  143.3140 N   0  0  0  0  0  0  0  0  0  0  0  0
  182.9840  178.5230  140.0400 C   0  0  0  0  0  2  0  0  0  0  0  0
  182.7690  177.1470  139.3860 C   0  0  2  0  0  3  0  0  0  0  0  0
  184.7970  177.9220  138.0820 C   0  0  0  0  0  2  0  0  0  0  0  0
  183.6140  176.9390  138.1120 C   0  0  1  0  0  3  0  0  0  0  0  0
  184.4790  175.4370  136.6820 C   0  0  0  0  0  2  0  0  0  0  0  0
  187.1050  178.5800  136.8150 Cl  0  0  0  0  0  0  0  0  0  0  0  0
  185.6730  176.3290  136.3050 C   0  0  0  0  0  2  0  0  0  0  0  0
  186.0350  177.3010  137.4300 C   0  0  2  0  0  3  0  0  0  0  0  0
  184.0900  175.6180  138.0230 O   0  0  0  0  0  0  0  0  0  0  0  0
  180.1350  175.3490  137.7780 C   0  0  0  0  0  2  0  0  0  0  0  0
  179.9810  174.8600  139.1930 C   0  0  0  0  0  2  0  0  0  0  0  0
  180.8960  176.6550  137.8850 C   0  0  0  0  0  2  0  0  0  0  0  0
  181.3350  176.8200  139.2740 N   0  0  0  0  0  0  0  0  0  0  0  0
  181.0800  175.5590  139.9540 C   0  0  0  0  0  2  0  0  0  0  0  0
  1 13  2  0  0  0  0
  1 12  1  0  0  0  0
  2 14  1  0  0  0  0
  3  1  1  0  0  0  0
  4  8  1  0  0  0  0
  5  2  1  0  0  0  0
  5 16  1  0  0  0  0
  6 13  1  0  0  0  0
  7  9  1  0  0  0  0
  7  4  1  0  0  0  0
  8  6  1  0  0  0  0
  9  4  1  0  0  0  0
 10  2  2  0  0  0  0
 11  8  2  0  0  0  0
 11  3  1  0  0  0  0
 12  5  2  0  0  0  0
 13 10  1  0  0  0  0
 14 15  1  0  0  0  0
 16 17  1  0  0  0  0
 18 19  1  0  0  0  0
 19 20  1  0  0  0  0
 21 17  1  0  0  0  0
 21 19  2  0  0  0  0
 22 12  1  0  0  0  0
 23 22  1  6  0  0  0
 24 25  1  0  0  0  0
 25 23  1  1  0  0  0
 26 30  1  0  0  0  0
 28 26  1  0  0  0  0
 28 29  1  0  0  0  0
 29 27  1  6  0  0  0
 29 24  1  0  0  0  0
 30 25  1  0  0  0  0
 31 33  1  0  0  0  0
 31 32  1  0  0  0  0
 32 35  1  0  0  0  0
 33 34  1  0  0  0  0
 34 23  1  0  0  0  0
 34 35  1  0  0  0  0
M  END
>  <MODEL>
9

>  <REMARK>
 VINA RESULT:      -6.0      3.841      6.266
  Name = 
  8 active torsions:
  status: ('A' for Active; 'I' for Inactive)
    1  A    between atoms: CA_4  and  C_10
    2  A    between atoms: C_5  and  C_18
    3  A    between atoms: C_8  and  N_25
    4  A    between atoms: C_18  and  N_27
    5  A    between atoms: C_18  and  C_28
    6  A    between atoms: N_22  and  C_35
    7  A    between atoms: N_25  and  C_35
    8  A    between atoms: C_28  and  C_32
                            x       y       z     vdW  Elec       q    Type
                         _______ _______ _______ _____ _____    ______ ____

>  <TORSDO>
F 8

$$$$
