=
 OpenBabel11032419123D

 58 64  0  0  1  0  0  0  0  0999 V2000
  185.2760  180.4500  144.7770 C   0  0  0  0  0  1  0  0  0  0  0  0
  186.2070  177.8810  141.2710 C   0  0  0  0  0  2  0  0  0  0  0  0
  184.8170  178.9470  143.0370 C   0  0  2  0  0  3  0  0  0  0  0  0
  185.9580  178.1280  142.5600 C   0  0  0  0  0  0  0  0  0  0  0  0
  185.6710  177.1260  145.8130 C   0  0  0  0  0  1  0  0  0  0  0  0
  186.8230  177.6850  143.6720 C   0  0  2  0  0  3  0  0  0  0  0  0
  184.9590  179.0610  144.4900 N   0  0  0  0  0  0  0  0  0  0  0  0
  186.1230  178.2590  144.9040 C   0  0  1  0  0  3  0  0  0  0  0  0
  189.0870  177.8940  144.6930 N   0  0  0  0  0  0  0  0  0  0  0  0
  188.8620  177.8110  142.2110 C   0  0  0  0  0  3  0  0  0  0  0  0
  190.9350  177.3740  143.3180 N   0  0  0  0  0  2  0  0  0  0  0  0
  190.3270  177.5330  144.6020 C   0  0  0  0  0  0  0  0  0  0  0  0
  188.2540  178.2270  143.5270 C   0  0  1  0  0  3  0  0  0  0  0  0
  190.1520  177.4680  142.1220 C   0  0  0  0  0  0  0  0  0  0  0  0
  191.1160  177.2630  145.8360 C   0  0  0  0  0  1  0  0  0  0  0  0
  190.7620  177.1340  140.8230 C   0  0  0  0  0  0  0  0  0  0  0  0
  192.1910  177.4910  140.5300 C   0  0  0  0  0  1  0  0  0  0  0  0
  190.0560  176.4930  139.9410 N   0  0  0  0  0  0  0  0  0  0  0  0
  190.5540  176.1410  138.7070 O   0  0  0  0  0  0  0  0  0  0  0  0
  189.9210  177.4980  134.5940 C   0  0  0  0  0  1  0  0  0  0  0  0
  189.8380  176.4950  137.5370 C   0  0  1  0  0  3  0  0  0  0  0  0
  189.5700  176.0990  135.0880 C   0  0  1  0  0  3  0  0  0  0  0  0
  190.2970  175.7870  136.3250 N   0  0  0  0  0  0  0  0  0  0  0  0
  188.3600  176.2140  137.7530 C   0  0  0  0  0  2  0  0  0  0  0  0
  188.0600  175.9310  135.2850 C   0  0  0  0  0  2  0  0  0  0  0  0
  187.5690  176.6650  136.5320 C   0  0  0  0  0  2  0  0  0  0  0  0
  193.8840  174.6300  136.0970 C   0  0  0  0  0  3  0  0  0  0  0  0
  192.7670  175.4680  136.1880 C   0  0  0  0  0  3  0  0  0  0  0  0
  195.1030  172.1920  135.9160 Cl  0  0  0  0  0  0  0  0  0  0  0  0
  191.4680  174.9380  136.2380 C   0  0  0  0  0  0  0  0  0  0  0  0
  191.3190  173.5400  136.1920 C   0  0  0  0  0  3  0  0  0  0  0  0
  192.4330  172.7000  136.0930 C   0  0  0  0  0  3  0  0  0  0  0  0
  193.7150  173.2450  136.0500 C   0  0  0  0  0  0  0  0  0  0  0  0
  183.5010  178.2520  142.7130 C   0  0  0  0  0  2  0  0  0  0  0  0
  182.9070  178.8500  141.4560 C   0  0  0  0  0  2  0  0  0  0  0  0
  181.6000  178.2650  141.1950 N   0  0  0  0  0  2  0  0  0  0  0  0
  180.9750  179.0420  140.1330 C   0  0  2  0  0  3  0  0  0  0  0  0
  181.0470  178.5390  136.6170 S   0  0  0  0  0  0  0  0  0  0  0  0
  181.5640  180.5970  138.3230 N   0  0  0  0  0  2  0  0  0  0  0  0
  182.1200  178.3100  138.0130 C   0  0  1  0  0  3  0  0  0  0  0  0
  183.5750  177.6440  137.7900 S   0  0  0  0  0  0  0  0  0  0  0  0
  180.6580  180.2100  137.2400 C   0  0  1  0  0  3  0  0  0  0  0  0
  181.9830  179.3880  139.0260 C   0  0  2  0  0  3  0  0  0  0  0  0
  183.2440  175.9210  137.4090 C   0  0  2  0  0  3  0  0  0  0  0  0
  184.5430  175.1410  137.4870 C   0  0  2  0  0  3  0  0  0  0  0  0
  183.9810  175.5430  136.1450 C   0  0  0  0  0  2  0  0  0  0  0  0
  184.2550  173.6670  137.7270 C   0  0  0  0  0  2  0  0  0  0  0  0
  184.8840  171.8850  136.0340 C   0  0  0  0  0  0  0  0  0  0  0  0
  185.2650  172.8270  137.0050 C   0  0  0  0  0  0  0  0  0  0  0  0
  185.8350  171.2160  135.3350 N   0  0  0  0  0  0  0  0  0  0  0  0
  183.4470  171.6360  135.7230 C   0  0  0  0  0  1  0  0  0  0  0  0
  187.5840  172.3410  136.5160 C   0  0  0  0  0  3  0  0  0  0  0  0
  187.1640  171.4230  135.5520 C   0  0  0  0  0  3  0  0  0  0  0  0
  186.6260  173.0420  137.2440 C   0  0  0  0  0  3  0  0  0  0  0  0
  180.7850  181.9880  135.3160 N   0  0  0  0  0  0  0  0  0  0  0  0
  180.7340  181.1970  136.1630 C   0  0  0  0  0  0  0  0  0  0  0  0
  180.3940  180.3260  140.7140 C   0  0  0  0  0  2  0  0  0  0  0  0
  179.7530  180.0260  142.0570 C   0  0  0  0  0  1  0  0  0  0  0  0
  2  4  2  0  0  0  0
  3 34  1  1  0  0  0
  3  7  1  0  0  0  0
  4  3  1  0  0  0  0
  6  4  1  6  0  0  0
  6  8  1  0  0  0  0
  7  1  1  0  0  0  0
  7  8  1  0  0  0  0
  8  5  1  1  0  0  0
 11 12  1  0  0  0  0
 12  9  2  0  0  0  0
 12 15  1  0  0  0  0
 13 10  1  6  0  0  0
 13  6  1  0  0  0  0
 13  9  1  0  0  0  0
 14 10  2  0  0  0  0
 14 11  1  0  0  0  0
 16 14  1  0  0  0  0
 17 16  1  0  0  0  0
 18 16  2  0  0  0  0
 19 18  1  0  0  0  0
 21 24  1  0  0  0  0
 21 19  1  1  0  0  0
 22 20  1  1  0  0  0
 22 25  1  0  0  0  0
 22 23  1  0  0  0  0
 23 21  1  0  0  0  0
 25 26  1  0  0  0  0
 26 24  1  0  0  0  0
 27 28  1  0  0  0  0
 28 30  2  0  0  0  0
 29 33  1  0  0  0  0
 30 23  1  0  0  0  0
 31 30  1  0  0  0  0
 32 31  2  0  0  0  0
 33 32  1  0  0  0  0
 33 27  2  0  0  0  0
 35 34  1  0  0  0  0
 36 35  1  0  0  0  0
 37 57  1  1  0  0  0
 37 36  1  0  0  0  0
 38 42  1  0  0  0  0
 38 40  1  0  0  0  0
 39 43  1  0  0  0  0
 40 41  1  6  0  0  0
 40 43  1  0  0  0  0
 42 56  1  6  0  0  0
 42 39  1  0  0  0  0
 43 37  1  1  0  0  0
 44 45  1  0  0  0  0
 44 41  1  1  0  0  0
 45 47  1  6  0  0  0
 46 44  1  0  0  0  0
 46 45  1  0  0  0  0
 48 49  1  0  0  0  0
 49 54  2  0  0  0  0
 49 47  1  0  0  0  0
 50 53  1  0  0  0  0
 50 48  2  0  0  0  0
 51 48  1  0  0  0  0
 52 54  1  0  0  0  0
 53 52  2  0  0  0  0
 55 56  3  0  0  0  0
 57 58  1  0  0  0  0
M  END
>  <MODEL>
1

>  <REMARK>
 VINA RESULT:      -6.2      0.000      0.000
  Name = 
  15 active torsions:
  status: ('A' for Active; 'I' for Inactive)
    1  A    between atoms: C_2  and  C_25
    2  A    between atoms: C_5  and  C_7
    3  A    between atoms: C_5  and  N_8
    4  A    between atoms: C_7  and  C_22
    5  A    between atoms: N_8  and  C_15
    6  A    between atoms: C_9  and  O_39
    7  A    between atoms: N_12  and  C_49
    8  A    between atoms: C_14  and  C_15
    9  A    between atoms: C_15  and  C_56
   10  A    between atoms: C_17  and  C_46
   11  A    between atoms: C_18  and  S_43
   12  A    between atoms: C_25  and  C_28
   13  A    between atoms: N_35  and  O_39
   14  A    between atoms: C_40  and  C_45
   15  A    between atoms: C_47  and  C_54
                            x       y       z     vdW  Elec       q    Type
                         _______ _______ _______ _____ _____    ______ ____

>  <TORSDO>
F 15

$$$$
=
 OpenBabel11032419123D

 58 64  0  0  1  0  0  0  0  0999 V2000
  188.8470  179.5070  137.1640 C   0  0  0  0  0  1  0  0  0  0  0  0
  189.4640  175.2380  136.0890 C   0  0  0  0  0  2  0  0  0  0  0  0
  188.6270  177.5700  135.8620 C   0  0  2  0  0  3  0  0  0  0  0  0
  188.7820  176.2790  136.5760 C   0  0  0  0  0  0  0  0  0  0  0  0
  186.0500  177.6260  138.1220 C   0  0  0  0  0  1  0  0  0  0  0  0
  188.1590  176.3100  137.9150 C   0  0  2  0  0  3  0  0  0  0  0  0
  187.9100  178.4690  136.7690 N   0  0  0  0  0  0  0  0  0  0  0  0
  187.5620  177.7150  137.9860 C   0  0  1  0  0  3  0  0  0  0  0  0
  190.5720  176.1770  138.5230 N   0  0  0  0  0  0  0  0  0  0  0  0
  188.9180  176.9520  140.2220 C   0  0  0  0  0  3  0  0  0  0  0  0
  191.2610  177.3710  140.4400 N   0  0  0  0  0  2  0  0  0  0  0  0
  191.5300  176.7440  139.1850 C   0  0  0  0  0  0  0  0  0  0  0  0
  189.1940  176.0740  139.0270 C   0  0  1  0  0  3  0  0  0  0  0  0
  189.9170  177.5100  140.9150 C   0  0  0  0  0  0  0  0  0  0  0  0
  192.9110  176.7610  138.6260 C   0  0  0  0  0  1  0  0  0  0  0  0
  189.6490  178.3060  142.1260 C   0  0  0  0  0  0  0  0  0  0  0  0
  188.5400  179.3180  142.1490 C   0  0  0  0  0  1  0  0  0  0  0  0
  190.3630  178.0970  143.1890 N   0  0  0  0  0  0  0  0  0  0  0  0
  190.1710  178.7960  144.3600 O   0  0  0  0  0  0  0  0  0  0  0  0
  189.7190  177.9490  148.6310 C   0  0  0  0  0  1  0  0  0  0  0  0
  190.3990  178.1530  145.6030 C   0  0  1  0  0  3  0  0  0  0  0  0
  189.3490  176.9640  147.5290 C   0  0  1  0  0  3  0  0  0  0  0  0
  189.1650  177.6610  146.2490 N   0  0  0  0  0  0  0  0  0  0  0  0
  191.3560  176.9920  145.3960 C   0  0  0  0  0  2  0  0  0  0  0  0
  190.3870  175.8450  147.3970 C   0  0  0  0  0  2  0  0  0  0  0  0
  191.6710  176.3430  146.7370 C   0  0  0  0  0  2  0  0  0  0  0  0
  185.6550  179.0360  146.0470 C   0  0  0  0  0  3  0  0  0  0  0  0
  186.9590  178.7970  146.4940 C   0  0  0  0  0  3  0  0  0  0  0  0
  183.5520  178.6790  144.3390 Cl  0  0  0  0  0  0  0  0  0  0  0  0
  187.8140  177.9280  145.8000 C   0  0  0  0  0  0  0  0  0  0  0  0
  187.3240  177.3020  144.6390 C   0  0  0  0  0  3  0  0  0  0  0  0
  186.0190  177.5320  144.1930 C   0  0  0  0  0  3  0  0  0  0  0  0
  185.1860  178.4020  144.8940 C   0  0  0  0  0  0  0  0  0  0  0  0
  187.8060  177.3730  134.5950 C   0  0  0  0  0  2  0  0  0  0  0  0
  187.0030  176.0940  134.7030 C   0  0  0  0  0  2  0  0  0  0  0  0
  185.5960  176.4030  134.9060 N   0  0  0  0  0  2  0  0  0  0  0  0
  184.9110  175.1540  135.2090 C   0  0  2  0  0  3  0  0  0  0  0  0
  181.3720  174.9250  135.4210 S   0  0  0  0  0  0  0  0  0  0  0  0
  183.4940  174.0350  136.8770 N   0  0  0  0  0  2  0  0  0  0  0  0
  182.6620  176.0400  135.9160 C   0  0  1  0  0  3  0  0  0  0  0  0
  182.2700  177.4260  136.6490 S   0  0  0  0  0  0  0  0  0  0  0  0
  182.3650  173.5440  136.0840 C   0  0  1  0  0  3  0  0  0  0  0  0
  183.8960  175.3350  136.3490 C   0  0  2  0  0  3  0  0  0  0  0  0
  181.5110  178.4300  135.3680 C   0  0  2  0  0  3  0  0  0  0  0  0
  180.8180  179.6130  136.0170 C   0  0  2  0  0  3  0  0  0  0  0  0
  180.0110  178.4230  135.5570 C   0  0  0  0  0  2  0  0  0  0  0  0
  180.6570  180.7420  135.0110 C   0  0  0  0  0  2  0  0  0  0  0  0
  180.9480  182.1540  137.0980 C   0  0  0  0  0  0  0  0  0  0  0  0
  180.7480  182.0650  135.7100 C   0  0  0  0  0  0  0  0  0  0  0  0
  181.1220  183.3690  137.6770 N   0  0  0  0  0  0  0  0  0  0  0  0
  181.0150  180.9310  137.9480 C   0  0  0  0  0  1  0  0  0  0  0  0
  180.8950  184.4760  135.5690 C   0  0  0  0  0  3  0  0  0  0  0  0
  181.1030  184.5200  136.9480 C   0  0  0  0  0  3  0  0  0  0  0  0
  180.7170  183.2400  134.9530 C   0  0  0  0  0  3  0  0  0  0  0  0
  180.8900  171.9420  137.5450 N   0  0  0  0  0  0  0  0  0  0  0  0
  181.5410  172.6570  136.9040 C   0  0  0  0  0  0  0  0  0  0  0  0
  185.9330  174.0930  135.6000 C   0  0  0  0  0  2  0  0  0  0  0  0
  185.7750  172.8850  134.6950 C   0  0  0  0  0  1  0  0  0  0  0  0
  2  4  2  0  0  0  0
  3 34  1  6  0  0  0
  3  4  1  0  0  0  0
  3  7  1  0  0  0  0
  6  4  1  6  0  0  0
  6  8  1  0  0  0  0
  6 13  1  0  0  0  0
  7  1  1  0  0  0  0
  7  8  1  0  0  0  0
  8  5  1  6  0  0  0
  9 13  1  0  0  0  0
  9 12  2  0  0  0  0
 10 14  2  0  0  0  0
 11 14  1  0  0  0  0
 12 11  1  0  0  0  0
 13 10  1  1  0  0  0
 14 16  1  0  0  0  0
 15 12  1  0  0  0  0
 16 17  1  0  0  0  0
 16 18  2  0  0  0  0
 18 19  1  0  0  0  0
 21 19  1  6  0  0  0
 21 23  1  0  0  0  0
 22 20  1  1  0  0  0
 23 22  1  0  0  0  0
 24 21  1  0  0  0  0
 24 26  1  0  0  0  0
 25 22  1  0  0  0  0
 26 25  1  0  0  0  0
 27 28  1  0  0  0  0
 29 33  1  0  0  0  0
 30 23  1  0  0  0  0
 30 28  2  0  0  0  0
 31 30  1  0  0  0  0
 32 31  2  0  0  0  0
 32 33  1  0  0  0  0
 33 27  2  0  0  0  0
 34 35  1  0  0  0  0
 35 36  1  0  0  0  0
 36 37  1  0  0  0  0
 37 57  1  1  0  0  0
 38 40  1  0  0  0  0
 38 42  1  0  0  0  0
 40 43  1  0  0  0  0
 40 41  1  1  0  0  0
 42 39  1  0  0  0  0
 42 56  1  1  0  0  0
 43 37  1  6  0  0  0
 43 39  1  0  0  0  0
 44 46  1  0  0  0  0
 44 45  1  0  0  0  0
 44 41  1  1  0  0  0
 45 47  1  6  0  0  0
 46 45  1  0  0  0  0
 47 49  1  0  0  0  0
 48 50  1  0  0  0  0
 48 51  1  0  0  0  0
 49 48  2  0  0  0  0
 52 53  1  0  0  0  0
 53 50  2  0  0  0  0
 54 52  2  0  0  0  0
 54 49  1  0  0  0  0
 56 55  3  0  0  0  0
 58 57  1  0  0  0  0
M  END
>  <MODEL>
2

>  <REMARK>
 VINA RESULT:      -6.1      3.258      8.999
  Name = 
  15 active torsions:
  status: ('A' for Active; 'I' for Inactive)
    1  A    between atoms: C_2  and  C_25
    2  A    between atoms: C_5  and  C_7
    3  A    between atoms: C_5  and  N_8
    4  A    between atoms: C_7  and  C_22
    5  A    between atoms: N_8  and  C_15
    6  A    between atoms: C_9  and  O_39
    7  A    between atoms: N_12  and  C_49
    8  A    between atoms: C_14  and  C_15
    9  A    between atoms: C_15  and  C_56
   10  A    between atoms: C_17  and  C_46
   11  A    between atoms: C_18  and  S_43
   12  A    between atoms: C_25  and  C_28
   13  A    between atoms: N_35  and  O_39
   14  A    between atoms: C_40  and  C_45
   15  A    between atoms: C_47  and  C_54
                            x       y       z     vdW  Elec       q    Type
                         _______ _______ _______ _____ _____    ______ ____

>  <TORSDO>
F 15

$$$$
=
 OpenBabel11032419123D

 58 64  0  0  1  0  0  0  0  0999 V2000
  185.2490  180.8350  144.8140 C   0  0  0  0  0  1  0  0  0  0  0  0
  186.5850  177.1790  142.6690 C   0  0  0  0  0  2  0  0  0  0  0  0
  184.9910  178.8300  143.6280 C   0  0  2  0  0  3  0  0  0  0  0  0
  186.1160  177.8680  143.7130 C   0  0  0  0  0  0  0  0  0  0  0  0
  185.1070  178.0770  146.9700 C   0  0  0  0  0  1  0  0  0  0  0  0
  186.7020  177.8220  145.0690 C   0  0  2  0  0  3  0  0  0  0  0  0
  184.8590  179.4430  144.9510 N   0  0  0  0  0  0  0  0  0  0  0  0
  185.8360  178.8080  145.8520 C   0  0  1  0  0  3  0  0  0  0  0  0
  188.9470  177.5680  146.1210 N   0  0  0  0  0  0  0  0  0  0  0  0
  188.7830  178.0900  143.6880 C   0  0  0  0  0  3  0  0  0  0  0  0
  190.7750  177.2100  144.6710 N   0  0  0  0  0  2  0  0  0  0  0  0
  190.1510  177.1220  145.9530 C   0  0  0  0  0  0  0  0  0  0  0  0
  188.1800  178.2430  145.0620 C   0  0  1  0  0  3  0  0  0  0  0  0
  190.0380  177.6550  143.5270 C   0  0  0  0  0  0  0  0  0  0  0  0
  190.8770  176.4960  147.0930 C   0  0  0  0  0  1  0  0  0  0  0  0
  190.6490  177.5780  142.1880 C   0  0  0  0  0  0  0  0  0  0  0  0
  192.0830  177.1650  142.0210 C   0  0  0  0  0  1  0  0  0  0  0  0
  189.9200  177.8380  141.1460 N   0  0  0  0  0  0  0  0  0  0  0  0
  190.4150  177.7830  139.8630 O   0  0  0  0  0  0  0  0  0  0  0  0
  189.1240  178.0420  135.6880 C   0  0  0  0  0  1  0  0  0  0  0  0
  189.5190  177.8260  138.7650 C   0  0  1  0  0  3  0  0  0  0  0  0
  188.9050  176.8160  136.5670 C   0  0  1  0  0  3  0  0  0  0  0  0
  189.8210  176.8310  137.7160 N   0  0  0  0  0  0  0  0  0  0  0  0
  188.1020  177.6100  139.2700 C   0  0  0  0  0  2  0  0  0  0  0  0
  187.4490  176.7050  137.0310 C   0  0  0  0  0  2  0  0  0  0  0  0
  187.1210  177.7330  138.1110 C   0  0  0  0  0  2  0  0  0  0  0  0
  192.0840  173.8500  137.2240 C   0  0  0  0  0  3  0  0  0  0  0  0
  190.9360  174.6480  137.2560 C   0  0  0  0  0  3  0  0  0  0  0  0
  194.7520  173.3880  137.5900 Cl  0  0  0  0  0  0  0  0  0  0  0  0
  190.9980  175.9880  137.6680 C   0  0  0  0  0  0  0  0  0  0  0  0
  192.2490  176.5080  138.0480 C   0  0  0  0  0  3  0  0  0  0  0  0
  193.3970  175.7110  138.0240 C   0  0  0  0  0  3  0  0  0  0  0  0
  193.3160  174.3840  137.6080 C   0  0  0  0  0  0  0  0  0  0  0  0
  183.7010  178.0980  143.2810 C   0  0  0  0  0  2  0  0  0  0  0  0
  183.0140  178.7970  142.1280 C   0  0  0  0  0  2  0  0  0  0  0  0
  183.9600  179.0210  141.0450 N   0  0  0  0  0  2  0  0  0  0  0  0
  183.6510  178.0690  139.9870 C   0  0  2  0  0  3  0  0  0  0  0  0
  181.0290  179.1610  137.8520 S   0  0  0  0  0  0  0  0  0  0  0  0
  183.3770  180.1890  138.7710 N   0  0  0  0  0  2  0  0  0  0  0  0
  182.5340  178.2270  137.7350 C   0  0  1  0  0  3  0  0  0  0  0  0
  182.9500  177.5730  136.3160 S   0  0  0  0  0  0  0  0  0  0  0  0
  181.9330  180.4190  138.8180 C   0  0  1  0  0  3  0  0  0  0  0  0
  183.6100  178.7560  138.6120 C   0  0  2  0  0  3  0  0  0  0  0  0
  181.7740  176.2410  136.0560 C   0  0  2  0  0  3  0  0  0  0  0  0
  182.4660  174.9160  136.3180 C   0  0  2  0  0  3  0  0  0  0  0  0
  182.2420  175.3860  134.9010 C   0  0  0  0  0  2  0  0  0  0  0  0
  181.4380  173.8470  136.6570 C   0  0  0  0  0  2  0  0  0  0  0  0
  181.2590  171.5020  135.7070 C   0  0  0  0  0  0  0  0  0  0  0  0
  182.0040  172.4880  136.3750 C   0  0  0  0  0  0  0  0  0  0  0  0
  181.8420  170.3190  135.3850 N   0  0  0  0  0  0  0  0  0  0  0  0
  179.8440  171.7440  135.3040 C   0  0  0  0  0  1  0  0  0  0  0  0
  183.9120  171.0000  136.3720 C   0  0  0  0  0  3  0  0  0  0  0  0
  183.1410  170.0520  135.6990 C   0  0  0  0  0  3  0  0  0  0  0  0
  183.3350  172.2220  136.7100 C   0  0  0  0  0  3  0  0  0  0  0  0
  181.4070  182.8370  137.9490 N   0  0  0  0  0  0  0  0  0  0  0  0
  181.6350  181.7650  138.3280 C   0  0  0  0  0  0  0  0  0  0  0  0
  182.3050  177.4120  140.2690 C   0  0  0  0  0  2  0  0  0  0  0  0
  182.3490  175.9620  139.8220 C   0  0  0  0  0  1  0  0  0  0  0  0
  1  7  1  0  0  0  0
  2  4  2  0  0  0  0
  3 34  1  1  0  0  0
  3  4  1  0  0  0  0
  3  7  1  0  0  0  0
  6  4  1  6  0  0  0
  6  8  1  0  0  0  0
  7  8  1  0  0  0  0
  8  5  1  1  0  0  0
 11 12  1  0  0  0  0
 12  9  2  0  0  0  0
 12 15  1  0  0  0  0
 13 10  1  6  0  0  0
 13  6  1  0  0  0  0
 13  9  1  0  0  0  0
 14 10  2  0  0  0  0
 14 11  1  0  0  0  0
 16 14  1  0  0  0  0
 17 16  1  0  0  0  0
 18 16  2  0  0  0  0
 19 18  1  0  0  0  0
 21 24  1  0  0  0  0
 21 19  1  1  0  0  0
 22 20  1  1  0  0  0
 22 25  1  0  0  0  0
 22 23  1  0  0  0  0
 23 21  1  0  0  0  0
 25 26  1  0  0  0  0
 26 24  1  0  0  0  0
 27 28  2  0  0  0  0
 27 33  1  0  0  0  0
 28 30  1  0  0  0  0
 29 33  1  0  0  0  0
 30 23  1  0  0  0  0
 30 31  2  0  0  0  0
 32 31  1  0  0  0  0
 33 32  2  0  0  0  0
 35 34  1  0  0  0  0
 36 35  1  0  0  0  0
 37 57  1  1  0  0  0
 37 36  1  0  0  0  0
 38 42  1  0  0  0  0
 39 42  1  0  0  0  0
 40 41  1  6  0  0  0
 40 38  1  0  0  0  0
 40 43  1  0  0  0  0
 42 56  1  6  0  0  0
 43 39  1  0  0  0  0
 43 37  1  1  0  0  0
 44 41  1  1  0  0  0
 44 45  1  0  0  0  0
 45 47  1  6  0  0  0
 46 44  1  0  0  0  0
 46 45  1  0  0  0  0
 48 49  1  0  0  0  0
 49 47  1  0  0  0  0
 49 54  2  0  0  0  0
 50 53  1  0  0  0  0
 50 48  2  0  0  0  0
 51 48  1  0  0  0  0
 52 54  1  0  0  0  0
 53 52  2  0  0  0  0
 55 56  3  0  0  0  0
 58 57  1  0  0  0  0
M  END
>  <MODEL>
3

>  <REMARK>
 VINA RESULT:      -5.7      1.852      2.344
  Name = 
  15 active torsions:
  status: ('A' for Active; 'I' for Inactive)
    1  A    between atoms: C_2  and  C_25
    2  A    between atoms: C_5  and  C_7
    3  A    between atoms: C_5  and  N_8
    4  A    between atoms: C_7  and  C_22
    5  A    between atoms: N_8  and  C_15
    6  A    between atoms: C_9  and  O_39
    7  A    between atoms: N_12  and  C_49
    8  A    between atoms: C_14  and  C_15
    9  A    between atoms: C_15  and  C_56
   10  A    between atoms: C_17  and  C_46
   11  A    between atoms: C_18  and  S_43
   12  A    between atoms: C_25  and  C_28
   13  A    between atoms: N_35  and  O_39
   14  A    between atoms: C_40  and  C_45
   15  A    between atoms: C_47  and  C_54
                            x       y       z     vdW  Elec       q    Type
                         _______ _______ _______ _____ _____    ______ ____

>  <TORSDO>
F 15

$$$$
=
 OpenBabel11032419123D

 58 64  0  0  1  0  0  0  0  0999 V2000
  189.0060  179.5920  137.3350 C   0  0  0  0  0  1  0  0  0  0  0  0
  189.5690  175.2860  136.3870 C   0  0  0  0  0  2  0  0  0  0  0  0
  188.7560  177.6190  136.0950 C   0  0  2  0  0  3  0  0  0  0  0  0
  188.9020  176.3490  136.8460 C   0  0  0  0  0  0  0  0  0  0  0  0
  186.1940  177.7730  138.3670 C   0  0  0  0  0  1  0  0  0  0  0  0
  188.2870  176.4270  138.1880 C   0  0  2  0  0  3  0  0  0  0  0  0
  188.0550  178.5530  136.9780 N   0  0  0  0  0  0  0  0  0  0  0  0
  187.7070  177.8410  138.2190 C   0  0  1  0  0  3  0  0  0  0  0  0
  190.7030  176.2820  138.7840 N   0  0  0  0  0  0  0  0  0  0  0  0
  189.0710  177.1340  140.4670 C   0  0  0  0  0  3  0  0  0  0  0  0
  191.4210  177.5280  140.6560 N   0  0  0  0  0  2  0  0  0  0  0  0
  191.6730  176.8570  139.4200 C   0  0  0  0  0  0  0  0  0  0  0  0
  189.3260  176.2140  139.3000 C   0  0  1  0  0  3  0  0  0  0  0  0
  190.0820  177.7010  141.1350 C   0  0  0  0  0  0  0  0  0  0  0  0
  193.0500  176.8370  138.8520 C   0  0  0  0  0  1  0  0  0  0  0  0
  189.8330  178.5400  142.3210 C   0  0  0  0  0  0  0  0  0  0  0  0
  189.1620  179.8760  142.1880 C   0  0  0  0  0  1  0  0  0  0  0  0
  190.1690  178.0930  143.4920 N   0  0  0  0  0  0  0  0  0  0  0  0
  189.9650  178.8130  144.6470 O   0  0  0  0  0  0  0  0  0  0  0  0
  188.6720  177.8420  148.7150 C   0  0  0  0  0  1  0  0  0  0  0  0
  189.9510  178.1430  145.8960 C   0  0  1  0  0  3  0  0  0  0  0  0
  188.5630  176.8780  147.5390 C   0  0  1  0  0  3  0  0  0  0  0  0
  188.6250  177.6050  146.2640 N   0  0  0  0  0  0  0  0  0  0  0  0
  190.9630  177.0090  145.8650 C   0  0  0  0  0  2  0  0  0  0  0  0
  189.6370  175.7870  147.5990 C   0  0  0  0  0  2  0  0  0  0  0  0
  191.0150  176.3320  147.2280 C   0  0  0  0  0  2  0  0  0  0  0  0
  185.8820  177.4600  143.6750 C   0  0  0  0  0  3  0  0  0  0  0  0
  187.0790  177.2000  144.3490 C   0  0  0  0  0  3  0  0  0  0  0  0
  183.4850  178.7320  143.3490 Cl  0  0  0  0  0  0  0  0  0  0  0  0
  187.3880  177.8530  145.5520 C   0  0  0  0  0  0  0  0  0  0  0  0
  186.4600  178.7790  146.0620 C   0  0  0  0  0  3  0  0  0  0  0  0
  185.2660  179.0480  145.3860 C   0  0  0  0  0  3  0  0  0  0  0  0
  184.9750  178.3850  144.1960 C   0  0  0  0  0  0  0  0  0  0  0  0
  187.9250  177.3930  134.8390 C   0  0  0  0  0  2  0  0  0  0  0  0
  187.4710  175.9500  134.7820 C   0  0  0  0  0  2  0  0  0  0  0  0
  186.0630  175.8550  135.1380 N   0  0  0  0  0  2  0  0  0  0  0  0
  185.6420  174.4800  134.9050 C   0  0  2  0  0  3  0  0  0  0  0  0
  182.1060  174.7810  135.0700 S   0  0  0  0  0  0  0  0  0  0  0  0
  183.9360  172.8070  135.4820 N   0  0  0  0  0  2  0  0  0  0  0  0
  183.5120  175.0540  136.1190 C   0  0  1  0  0  3  0  0  0  0  0  0
  183.2870  175.6600  137.6010 S   0  0  0  0  0  0  0  0  0  0  0  0
  182.8120  173.1610  134.6130 C   0  0  1  0  0  3  0  0  0  0  0  0
  184.5800  174.0400  135.9250 C   0  0  2  0  0  3  0  0  0  0  0  0
  182.8020  177.3690  137.3350 C   0  0  2  0  0  3  0  0  0  0  0  0
  182.4120  177.9820  138.6670 C   0  0  2  0  0  3  0  0  0  0  0  0
  181.3440  177.5320  137.6990 C   0  0  0  0  0  2  0  0  0  0  0  0
  182.5370  179.4970  138.6020 C   0  0  0  0  0  2  0  0  0  0  0  0
  180.7270  181.2490  138.8990 C   0  0  0  0  0  0  0  0  0  0  0  0
  181.4280  180.1330  139.3850 C   0  0  0  0  0  0  0  0  0  0  0  0
  179.6660  181.7340  139.5940 N   0  0  0  0  0  0  0  0  0  0  0  0
  181.0980  181.8910  137.6060 C   0  0  0  0  0  1  0  0  0  0  0  0
  179.9370  180.0690  141.2900 C   0  0  0  0  0  3  0  0  0  0  0  0
  179.2600  181.1710  140.7660 C   0  0  0  0  0  3  0  0  0  0  0  0
  181.0260  179.5520  140.5920 C   0  0  0  0  0  3  0  0  0  0  0  0
  180.9880  171.2810  134.7460 N   0  0  0  0  0  0  0  0  0  0  0  0
  181.7940  172.1130  134.6790 C   0  0  0  0  0  0  0  0  0  0  0  0
  186.8500  173.5550  134.9950 C   0  0  0  0  0  2  0  0  0  0  0  0
  186.8400  172.8420  136.3340 C   0  0  0  0  0  1  0  0  0  0  0  0
  2  4  2  0  0  0  0
  3 34  1  6  0  0  0
  3  4  1  0  0  0  0
  3  7  1  0  0  0  0
  6  4  1  6  0  0  0
  6  8  1  0  0  0  0
  6 13  1  0  0  0  0
  7  1  1  0  0  0  0
  7  8  1  0  0  0  0
  8  5  1  6  0  0  0
  9 13  1  0  0  0  0
  9 12  2  0  0  0  0
 10 14  2  0  0  0  0
 11 14  1  0  0  0  0
 12 11  1  0  0  0  0
 13 10  1  1  0  0  0
 14 16  1  0  0  0  0
 15 12  1  0  0  0  0
 16 18  2  0  0  0  0
 17 16  1  0  0  0  0
 18 19  1  0  0  0  0
 21 19  1  6  0  0  0
 21 23  1  0  0  0  0
 22 25  1  0  0  0  0
 22 20  1  1  0  0  0
 23 22  1  0  0  0  0
 24 21  1  0  0  0  0
 24 26  1  0  0  0  0
 26 25  1  0  0  0  0
 27 33  2  0  0  0  0
 27 28  1  0  0  0  0
 28 30  2  0  0  0  0
 29 33  1  0  0  0  0
 30 31  1  0  0  0  0
 30 23  1  0  0  0  0
 32 31  2  0  0  0  0
 33 32  1  0  0  0  0
 35 34  1  0  0  0  0
 35 36  1  0  0  0  0
 37 57  1  1  0  0  0
 37 36  1  0  0  0  0
 38 40  1  0  0  0  0
 39 43  1  0  0  0  0
 40 41  1  1  0  0  0
 42 56  1  1  0  0  0
 42 38  1  0  0  0  0
 42 39  1  0  0  0  0
 43 37  1  6  0  0  0
 43 40  1  0  0  0  0
 44 41  1  1  0  0  0
 44 46  1  0  0  0  0
 44 45  1  0  0  0  0
 45 47  1  6  0  0  0
 46 45  1  0  0  0  0
 47 49  1  0  0  0  0
 48 49  2  0  0  0  0
 48 50  1  0  0  0  0
 49 54  1  0  0  0  0
 50 53  2  0  0  0  0
 51 48  1  0  0  0  0
 53 52  1  0  0  0  0
 54 52  2  0  0  0  0
 56 55  3  0  0  0  0
 57 58  1  0  0  0  0
M  END
>  <MODEL>
4

>  <REMARK>
 VINA RESULT:      -5.7      3.009      8.840
  Name = 
  15 active torsions:
  status: ('A' for Active; 'I' for Inactive)
    1  A    between atoms: C_2  and  C_25
    2  A    between atoms: C_5  and  C_7
    3  A    between atoms: C_5  and  N_8
    4  A    between atoms: C_7  and  C_22
    5  A    between atoms: N_8  and  C_15
    6  A    between atoms: C_9  and  O_39
    7  A    between atoms: N_12  and  C_49
    8  A    between atoms: C_14  and  C_15
    9  A    between atoms: C_15  and  C_56
   10  A    between atoms: C_17  and  C_46
   11  A    between atoms: C_18  and  S_43
   12  A    between atoms: C_25  and  C_28
   13  A    between atoms: N_35  and  O_39
   14  A    between atoms: C_40  and  C_45
   15  A    between atoms: C_47  and  C_54
                            x       y       z     vdW  Elec       q    Type
                         _______ _______ _______ _____ _____    ______ ____

>  <TORSDO>
F 15

$$$$
=
 OpenBabel11032419123D

 58 64  0  0  1  0  0  0  0  0999 V2000
  184.2900  176.9540  138.0180 C   0  0  0  0  0  1  0  0  0  0  0  0
  185.1760  173.2920  135.6580 C   0  0  0  0  0  2  0  0  0  0  0  0
  185.6020  175.4950  136.7350 C   0  0  2  0  0  3  0  0  0  0  0  0
  184.8680  174.5820  135.8250 C   0  0  0  0  0  0  0  0  0  0  0  0
  184.0170  177.6530  134.5960 C   0  0  0  0  0  1  0  0  0  0  0  0
  183.7150  175.2490  135.1860 C   0  0  2  0  0  3  0  0  0  0  0  0
  184.8930  176.7760  136.7080 N   0  0  0  0  0  0  0  0  0  0  0  0
  183.7910  176.6730  135.7360 C   0  0  1  0  0  3  0  0  0  0  0  0
  182.5190  173.1010  135.5960 N   0  0  0  0  0  0  0  0  0  0  0  0
  181.8070  175.1550  136.8180 C   0  0  0  0  0  3  0  0  0  0  0  0
  181.2060  172.9620  137.5530 N   0  0  0  0  0  2  0  0  0  0  0  0
  181.9510  172.3590  136.4930 C   0  0  0  0  0  0  0  0  0  0  0  0
  182.3890  174.5660  135.5570 C   0  0  1  0  0  3  0  0  0  0  0  0
  181.1960  174.3840  137.7240 C   0  0  0  0  0  0  0  0  0  0  0  0
  182.0910  170.8780  136.4310 C   0  0  0  0  0  1  0  0  0  0  0  0
  180.5640  174.9710  138.9180 C   0  0  0  0  0  0  0  0  0  0  0  0
  179.3580  174.3300  139.5430 C   0  0  0  0  0  1  0  0  0  0  0  0
  181.0850  176.0360  139.4490 N   0  0  0  0  0  0  0  0  0  0  0  0
  180.5570  176.6410  140.5670 O   0  0  0  0  0  0  0  0  0  0  0  0
  178.9320  180.4970  141.8510 C   0  0  0  0  0  1  0  0  0  0  0  0
  179.9380  177.9110  140.4480 C   0  0  1  0  0  3  0  0  0  0  0  0
  180.1360  180.3510  140.9290 C   0  0  1  0  0  3  0  0  0  0  0  0
  180.7220  179.0100  141.0480 N   0  0  0  0  0  0  0  0  0  0  0  0
  179.6930  178.2100  138.9780 C   0  0  0  0  0  2  0  0  0  0  0  0
  179.7740  180.6620  139.4730 C   0  0  0  0  0  2  0  0  0  0  0  0
  178.9560  179.5360  138.8430 C   0  0  0  0  0  2  0  0  0  0  0  0
  184.3140  178.4220  142.0510 C   0  0  0  0  0  3  0  0  0  0  0  0
  183.1690  178.5780  141.2620 C   0  0  0  0  0  3  0  0  0  0  0  0
  185.6460  178.3210  144.4340 Cl  0  0  0  0  0  0  0  0  0  0  0  0
  181.9220  178.8520  141.8440 C   0  0  0  0  0  0  0  0  0  0  0  0
  181.8530  178.9640  143.2450 C   0  0  0  0  0  3  0  0  0  0  0  0
  182.9940  178.8010  144.0370 C   0  0  0  0  0  3  0  0  0  0  0  0
  184.2240  178.5350  143.4400 C   0  0  0  0  0  0  0  0  0  0  0  0
  187.0270  175.6970  136.2380 C   0  0  0  0  0  2  0  0  0  0  0  0
  187.9330  176.0190  137.4070 C   0  0  0  0  0  2  0  0  0  0  0  0
  188.1210  177.4580  137.5100 N   0  0  0  0  0  2  0  0  0  0  0  0
  188.6150  177.7420  138.8510 C   0  0  2  0  0  3  0  0  0  0  0  0
  191.9950  177.4950  139.9170 S   0  0  0  0  0  0  0  0  0  0  0  0
  189.5730  176.6570  140.8380 N   0  0  0  0  0  2  0  0  0  0  0  0
  190.8720  176.6260  138.8510 C   0  0  1  0  0  3  0  0  0  0  0  0
  191.4070  175.3520  138.0110 S   0  0  0  0  0  0  0  0  0  0  0  0
  190.6900  177.5330  141.1940 C   0  0  1  0  0  3  0  0  0  0  0  0
  189.4850  176.5910  139.3820 C   0  0  2  0  0  3  0  0  0  0  0  0
  192.4970  176.0440  136.7630 C   0  0  2  0  0  3  0  0  0  0  0  0
  193.4950  174.9820  136.3410 C   0  0  2  0  0  3  0  0  0  0  0  0
  193.9100  176.0710  137.3010 C   0  0  0  0  0  2  0  0  0  0  0  0
  194.0450  175.3020  134.9580 C   0  0  0  0  0  2  0  0  0  0  0  0
  196.5640  175.3760  134.6720 C   0  0  0  0  0  0  0  0  0  0  0  0
  195.3750  174.6350  134.7720 C   0  0  0  0  0  0  0  0  0  0  0  0
  197.7560  174.7300  134.6030 N   0  0  0  0  0  0  0  0  0  0  0  0
  196.5490  176.8660  134.6840 C   0  0  0  0  0  1  0  0  0  0  0  0
  196.6780  172.5980  134.7060 C   0  0  0  0  0  3  0  0  0  0  0  0
  197.8370  173.3700  134.6190 C   0  0  0  0  0  3  0  0  0  0  0  0
  195.4440  173.2380  134.7810 C   0  0  0  0  0  3  0  0  0  0  0  0
  191.6460  176.8400  143.5350 N   0  0  0  0  0  0  0  0  0  0  0  0
  191.2250  177.1400  142.4970 C   0  0  0  0  0  0  0  0  0  0  0  0
  187.4370  177.9660  139.7910 C   0  0  0  0  0  2  0  0  0  0  0  0
  186.3540  178.7450  139.0660 C   0  0  0  0  0  1  0  0  0  0  0  0
  2  4  2  0  0  0  0
  3 34  1  6  0  0  0
  4  3  1  0  0  0  0
  6 13  1  0  0  0  0
  6  8  1  0  0  0  0
  6  4  1  1  0  0  0
  7  3  1  0  0  0  0
  7  1  1  0  0  0  0
  8  5  1  6  0  0  0
  8  7  1  0  0  0  0
  9 12  2  0  0  0  0
 10 14  2  0  0  0  0
 11 14  1  0  0  0  0
 12 11  1  0  0  0  0
 13  9  1  0  0  0  0
 13 10  1  1  0  0  0
 14 16  1  0  0  0  0
 15 12  1  0  0  0  0
 16 18  2  0  0  0  0
 16 17  1  0  0  0  0
 18 19  1  0  0  0  0
 21 19  1  6  0  0  0
 21 23  1  0  0  0  0
 22 23  1  0  0  0  0
 22 20  1  1  0  0  0
 23 30  1  0  0  0  0
 24 21  1  0  0  0  0
 25 22  1  0  0  0  0
 26 24  1  0  0  0  0
 26 25  1  0  0  0  0
 27 33  1  0  0  0  0
 28 30  1  0  0  0  0
 28 27  2  0  0  0  0
 30 31  2  0  0  0  0
 31 32  1  0  0  0  0
 33 32  2  0  0  0  0
 33 29  1  0  0  0  0
 34 35  1  0  0  0  0
 35 36  1  0  0  0  0
 36 37  1  0  0  0  0
 37 57  1  1  0  0  0
 38 42  1  0  0  0  0
 39 42  1  0  0  0  0
 40 41  1  1  0  0  0
 40 43  1  0  0  0  0
 40 38  1  0  0  0  0
 42 56  1  1  0  0  0
 43 37  1  6  0  0  0
 43 39  1  0  0  0  0
 44 46  1  0  0  0  0
 44 41  1  1  0  0  0
 45 47  1  6  0  0  0
 45 44  1  0  0  0  0
 45 46  1  0  0  0  0
 48 51  1  0  0  0  0
 48 49  1  0  0  0  0
 49 54  2  0  0  0  0
 49 47  1  0  0  0  0
 50 53  1  0  0  0  0
 50 48  2  0  0  0  0
 52 54  1  0  0  0  0
 53 52  2  0  0  0  0
 56 55  3  0  0  0  0
 58 57  1  0  0  0  0
M  END
>  <MODEL>
5

>  <REMARK>
 VINA RESULT:      -5.2      3.718     10.640
  Name = 
  15 active torsions:
  status: ('A' for Active; 'I' for Inactive)
    1  A    between atoms: C_2  and  C_25
    2  A    between atoms: C_5  and  C_7
    3  A    between atoms: C_5  and  N_8
    4  A    between atoms: C_7  and  C_22
    5  A    between atoms: N_8  and  C_15
    6  A    between atoms: C_9  and  O_39
    7  A    between atoms: N_12  and  C_49
    8  A    between atoms: C_14  and  C_15
    9  A    between atoms: C_15  and  C_56
   10  A    between atoms: C_17  and  C_46
   11  A    between atoms: C_18  and  S_43
   12  A    between atoms: C_25  and  C_28
   13  A    between atoms: N_35  and  O_39
   14  A    between atoms: C_40  and  C_45
   15  A    between atoms: C_47  and  C_54
                            x       y       z     vdW  Elec       q    Type
                         _______ _______ _______ _____ _____    ______ ____

>  <TORSDO>
F 15

$$$$
=
 OpenBabel11032419123D

 58 64  0  0  1  0  0  0  0  0999 V2000
  185.1210  180.9120  144.7570 C   0  0  0  0  0  1  0  0  0  0  0  0
  186.4330  177.3800  142.4000 C   0  0  0  0  0  2  0  0  0  0  0  0
  184.8500  178.9940  143.4380 C   0  0  2  0  0  3  0  0  0  0  0  0
  185.9570  178.0080  143.4790 C   0  0  0  0  0  0  0  0  0  0  0  0
  184.8930  178.0220  146.7250 C   0  0  0  0  0  1  0  0  0  0  0  0
  186.5170  177.8630  144.8380 C   0  0  2  0  0  3  0  0  0  0  0  0
  184.7050  179.5210  144.7970 N   0  0  0  0  0  0  0  0  0  0  0  0
  185.6540  178.8110  145.6700 C   0  0  1  0  0  3  0  0  0  0  0  0
  188.7070  177.6050  145.9990 N   0  0  0  0  0  0  0  0  0  0  0  0
  188.6620  178.0450  143.5450 C   0  0  0  0  0  3  0  0  0  0  0  0
  190.5910  177.1630  144.6470 N   0  0  0  0  0  2  0  0  0  0  0  0
  189.9080  177.1310  145.9020 C   0  0  0  0  0  0  0  0  0  0  0  0
  188.0020  178.2560  144.8840 C   0  0  1  0  0  3  0  0  0  0  0  0
  189.9150  177.5820  143.4560 C   0  0  0  0  0  0  0  0  0  0  0  0
  190.5710  176.5330  147.0940 C   0  0  0  0  0  1  0  0  0  0  0  0
  190.5840  177.4470  142.1500 C   0  0  0  0  0  0  0  0  0  0  0  0
  192.0560  177.1630  142.0670 C   0  0  0  0  0  1  0  0  0  0  0  0
  189.8750  177.5420  141.0660 N   0  0  0  0  0  0  0  0  0  0  0  0
  190.4240  177.4230  139.8090 O   0  0  0  0  0  0  0  0  0  0  0  0
  189.3700  178.0260  135.6040 C   0  0  0  0  0  1  0  0  0  0  0  0
  189.5920  177.5440  138.6680 C   0  0  1  0  0  3  0  0  0  0  0  0
  189.1340  176.7220  136.3570 C   0  0  1  0  0  3  0  0  0  0  0  0
  189.9810  176.6540  137.5550 N   0  0  0  0  0  0  0  0  0  0  0  0
  188.1550  177.2520  139.0670 C   0  0  0  0  0  2  0  0  0  0  0  0
  187.6580  176.5370  136.7210 C   0  0  0  0  0  2  0  0  0  0  0  0
  187.2400  177.4570  137.8660 C   0  0  0  0  0  2  0  0  0  0  0  0
  193.6060  175.6000  137.6310 C   0  0  0  0  0  3  0  0  0  0  0  0
  192.4580  176.3980  137.6930 C   0  0  0  0  0  3  0  0  0  0  0  0
  194.9210  173.2320  137.2750 Cl  0  0  0  0  0  0  0  0  0  0  0  0
  191.1820  175.8460  137.5030 C   0  0  0  0  0  0  0  0  0  0  0  0
  191.0880  174.4650  137.2480 C   0  0  0  0  0  3  0  0  0  0  0  0
  192.2340  173.6660  137.1780 C   0  0  0  0  0  3  0  0  0  0  0  0
  193.4910  174.2330  137.3730 C   0  0  0  0  0  0  0  0  0  0  0  0
  183.5540  178.3100  143.0220 C   0  0  0  0  0  2  0  0  0  0  0  0
  183.6190  177.9480  141.5540 C   0  0  0  0  0  2  0  0  0  0  0  0
  182.2940  178.0340  140.9590 N   0  0  0  0  0  2  0  0  0  0  0  0
  182.4660  178.2970  139.5370 C   0  0  2  0  0  3  0  0  0  0  0  0
  183.2710  176.7910  136.4210 S   0  0  0  0  0  0  0  0  0  0  0  0
  182.5020  175.9260  138.8860 N   0  0  0  0  0  2  0  0  0  0  0  0
  181.8560  177.4970  137.2280 C   0  0  1  0  0  3  0  0  0  0  0  0
  180.4580  177.6020  136.4230 S   0  0  0  0  0  0  0  0  0  0  0  0
  183.6220  175.8520  137.9470 C   0  0  1  0  0  3  0  0  0  0  0  0
  181.8140  177.1980  138.6820 C   0  0  2  0  0  3  0  0  0  0  0  0
  180.7320  178.8690  135.1800 C   0  0  2  0  0  3  0  0  0  0  0  0
  180.1420  180.1770  135.6740 C   0  0  2  0  0  3  0  0  0  0  0  0
  179.3970  179.3460  134.6570 C   0  0  0  0  0  2  0  0  0  0  0  0
  180.8060  181.3500  134.9680 C   0  0  0  0  0  2  0  0  0  0  0  0
  180.7780  182.5950  137.1780 C   0  0  0  0  0  0  0  0  0  0  0  0
  180.6330  182.5980  135.7800 C   0  0  0  0  0  0  0  0  0  0  0  0
  180.7090  183.7640  137.8650 N   0  0  0  0  0  0  0  0  0  0  0  0
  181.0500  181.3330  137.9230 C   0  0  0  0  0  1  0  0  0  0  0  0
  180.3320  184.9970  135.8510 C   0  0  0  0  0  3  0  0  0  0  0  0
  180.4940  184.9530  137.2360 C   0  0  0  0  0  3  0  0  0  0  0  0
  180.4020  183.8110  135.1250 C   0  0  0  0  0  3  0  0  0  0  0  0
  184.1510  173.3400  137.4110 N   0  0  0  0  0  0  0  0  0  0  0  0
  183.9130  174.4520  137.6420 C   0  0  0  0  0  0  0  0  0  0  0  0
  183.9520  178.3820  139.2100 C   0  0  0  0  0  2  0  0  0  0  0  0
  184.2930  179.7970  138.7790 C   0  0  0  0  0  1  0  0  0  0  0  0
  1  7  1  0  0  0  0
  2  4  2  0  0  0  0
  3 34  1  1  0  0  0
  3  4  1  0  0  0  0
  3  7  1  0  0  0  0
  6  4  1  6  0  0  0
  6 13  1  0  0  0  0
  6  8  1  0  0  0  0
  7  8  1  0  0  0  0
  8  5  1  1  0  0  0
 11 12  1  0  0  0  0
 12  9  2  0  0  0  0
 12 15  1  0  0  0  0
 13 10  1  6  0  0  0
 13  9  1  0  0  0  0
 14 10  2  0  0  0  0
 14 11  1  0  0  0  0
 16 14  1  0  0  0  0
 17 16  1  0  0  0  0
 18 16  2  0  0  0  0
 19 18  1  0  0  0  0
 21 24  1  0  0  0  0
 21 19  1  1  0  0  0
 22 20  1  1  0  0  0
 22 25  1  0  0  0  0
 22 23  1  0  0  0  0
 23 21  1  0  0  0  0
 25 26  1  0  0  0  0
 26 24  1  0  0  0  0
 27 28  1  0  0  0  0
 29 33  1  0  0  0  0
 30 23  1  0  0  0  0
 30 28  2  0  0  0  0
 31 30  1  0  0  0  0
 32 31  2  0  0  0  0
 32 33  1  0  0  0  0
 33 27  2  0  0  0  0
 35 34  1  0  0  0  0
 36 35  1  0  0  0  0
 37 57  1  1  0  0  0
 37 36  1  0  0  0  0
 38 40  1  0  0  0  0
 38 42  1  0  0  0  0
 40 41  1  6  0  0  0
 40 43  1  0  0  0  0
 42 56  1  6  0  0  0
 42 39  1  0  0  0  0
 43 39  1  0  0  0  0
 43 37  1  1  0  0  0
 44 45  1  0  0  0  0
 44 41  1  1  0  0  0
 45 47  1  6  0  0  0
 46 44  1  0  0  0  0
 46 45  1  0  0  0  0
 47 49  1  0  0  0  0
 48 50  1  0  0  0  0
 48 51  1  0  0  0  0
 49 48  2  0  0  0  0
 52 53  1  0  0  0  0
 53 50  2  0  0  0  0
 54 49  1  0  0  0  0
 54 52  2  0  0  0  0
 55 56  3  0  0  0  0
 58 57  1  0  0  0  0
M  END
>  <MODEL>
6

>  <REMARK>
 VINA RESULT:      -5.1      1.905      5.384
  Name = 
  15 active torsions:
  status: ('A' for Active; 'I' for Inactive)
    1  A    between atoms: C_2  and  C_25
    2  A    between atoms: C_5  and  C_7
    3  A    between atoms: C_5  and  N_8
    4  A    between atoms: C_7  and  C_22
    5  A    between atoms: N_8  and  C_15
    6  A    between atoms: C_9  and  O_39
    7  A    between atoms: N_12  and  C_49
    8  A    between atoms: C_14  and  C_15
    9  A    between atoms: C_15  and  C_56
   10  A    between atoms: C_17  and  C_46
   11  A    between atoms: C_18  and  S_43
   12  A    between atoms: C_25  and  C_28
   13  A    between atoms: N_35  and  O_39
   14  A    between atoms: C_40  and  C_45
   15  A    between atoms: C_47  and  C_54
                            x       y       z     vdW  Elec       q    Type
                         _______ _______ _______ _____ _____    ______ ____

>  <TORSDO>
F 15

$$$$
=
 OpenBabel11032419123D

 58 64  0  0  1  0  0  0  0  0999 V2000
  189.5810  175.1720  143.1720 C   0  0  0  0  0  1  0  0  0  0  0  0
  188.1330  178.3090  140.3750 C   0  0  0  0  0  2  0  0  0  0  0  0
  189.7780  176.9140  141.6160 C   0  0  2  0  0  3  0  0  0  0  0  0
  188.6280  177.8470  141.5270 C   0  0  0  0  0  0  0  0  0  0  0  0
  189.6670  178.2990  144.7490 C   0  0  0  0  0  1  0  0  0  0  0  0
  188.0520  178.1420  142.8550 C   0  0  2  0  0  3  0  0  0  0  0  0
  189.9350  176.5740  143.0320 N   0  0  0  0  0  0  0  0  0  0  0  0
  188.9490  177.3480  143.8040 C   0  0  1  0  0  3  0  0  0  0  0  0
  185.8880  178.3270  144.0780 N   0  0  0  0  0  0  0  0  0  0  0  0
  185.8780  177.8630  141.6270 C   0  0  0  0  0  3  0  0  0  0  0  0
  183.9490  178.6810  142.7770 N   0  0  0  0  0  2  0  0  0  0  0  0
  184.6670  178.7530  144.0110 C   0  0  0  0  0  0  0  0  0  0  0  0
  186.5850  177.6920  142.9480 C   0  0  1  0  0  3  0  0  0  0  0  0
  184.6070  178.2760  141.5710 C   0  0  0  0  0  0  0  0  0  0  0  0
  184.0170  179.3380  145.2160 C   0  0  0  0  0  1  0  0  0  0  0  0
  183.8960  178.3720  140.2840 C   0  0  0  0  0  0  0  0  0  0  0  0
  183.7960  179.6820  139.5570 C   0  0  0  0  0  1  0  0  0  0  0  0
  183.3840  177.2970  139.7650 N   0  0  0  0  0  0  0  0  0  0  0  0
  182.7090  177.3020  138.5650 O   0  0  0  0  0  0  0  0  0  0  0  0
  178.9370  175.9670  136.7920 C   0  0  0  0  0  1  0  0  0  0  0  0
  181.3600  176.8700  138.5190 C   0  0  1  0  0  3  0  0  0  0  0  0
  179.7900  175.1060  137.7160 C   0  0  1  0  0  3  0  0  0  0  0  0
  181.1680  175.6110  137.7710 N   0  0  0  0  0  0  0  0  0  0  0  0
  180.8440  176.6970  139.9380 C   0  0  0  0  0  2  0  0  0  0  0  0
  179.1860  175.0110  139.1200 C   0  0  0  0  0  2  0  0  0  0  0  0
  179.3710  176.3100  139.9020 C   0  0  0  0  0  2  0  0  0  0  0  0
  183.3980  174.5690  134.9090 C   0  0  0  0  0  3  0  0  0  0  0  0
  182.4180  175.2440  135.6450 C   0  0  0  0  0  3  0  0  0  0  0  0
  185.3670  172.7000  134.5960 Cl  0  0  0  0  0  0  0  0  0  0  0  0
  182.1820  174.9300  136.9920 C   0  0  0  0  0  0  0  0  0  0  0  0
  182.9570  173.9160  137.5840 C   0  0  0  0  0  3  0  0  0  0  0  0
  183.9320  173.2340  136.8490 C   0  0  0  0  0  3  0  0  0  0  0  0
  184.1550  173.5630  135.5130 C   0  0  0  0  0  0  0  0  0  0  0  0
  191.0450  177.5960  141.1170 C   0  0  0  0  0  2  0  0  0  0  0  0
  191.1050  177.5170  139.6070 C   0  0  0  0  0  2  0  0  0  0  0  0
  191.5740  176.2030  139.1940 N   0  0  0  0  0  2  0  0  0  0  0  0
  192.6560  176.4020  138.2400 C   0  0  2  0  0  3  0  0  0  0  0  0
  193.4540  175.2670  134.9690 S   0  0  0  0  0  0  0  0  0  0  0  0
  194.5890  175.1110  137.4390 N   0  0  0  0  0  2  0  0  0  0  0  0
  192.5070  174.7230  136.3690 C   0  0  1  0  0  3  0  0  0  0  0  0
  191.6630  173.3480  136.2660 S   0  0  0  0  0  0  0  0  0  0  0  0
  194.8290  175.6600  136.1040 C   0  0  1  0  0  3  0  0  0  0  0  0
  193.1470  175.0640  137.6650 C   0  0  2  0  0  3  0  0  0  0  0  0
  190.3120  173.7160  135.1400 C   0  0  2  0  0  3  0  0  0  0  0  0
  189.0510  173.9570  135.9490 C   0  0  2  0  0  3  0  0  0  0  0  0
  189.2640  172.6330  135.2540 C   0  0  0  0  0  2  0  0  0  0  0  0
  188.0640  174.7890  135.1440 C   0  0  0  0  0  2  0  0  0  0  0  0
  188.3420  177.2420  135.7240 C   0  0  0  0  0  0  0  0  0  0  0  0
  187.6840  176.0160  135.9150 C   0  0  0  0  0  0  0  0  0  0  0  0
  187.9030  178.3520  136.3710 N   0  0  0  0  0  0  0  0  0  0  0  0
  189.4950  177.3610  134.7860 C   0  0  0  0  0  1  0  0  0  0  0  0
  186.1620  177.1120  137.4440 C   0  0  0  0  0  3  0  0  0  0  0  0
  186.8360  178.3120  137.2170 C   0  0  0  0  0  3  0  0  0  0  0  0
  186.5930  175.9610  136.7880 C   0  0  0  0  0  3  0  0  0  0  0  0
  197.0930  174.7260  135.1650 N   0  0  0  0  0  0  0  0  0  0  0  0
  196.0960  175.1450  135.5840 C   0  0  0  0  0  0  0  0  0  0  0  0
  193.8140  177.1190  138.9240 C   0  0  0  0  0  2  0  0  0  0  0  0
  194.1650  176.3950  140.2110 C   0  0  0  0  0  1  0  0  0  0  0  0
  2  4  2  0  0  0  0
  3 34  1  1  0  0  0
  3  7  1  0  0  0  0
  4  3  1  0  0  0  0
  6  4  1  6  0  0  0
  6 13  1  0  0  0  0
  6  8  1  0  0  0  0
  7  1  1  0  0  0  0
  7  8  1  0  0  0  0
  8  5  1  1  0  0  0
 11 12  1  0  0  0  0
 12  9  2  0  0  0  0
 12 15  1  0  0  0  0
 13 10  1  6  0  0  0
 13  9  1  0  0  0  0
 14 10  2  0  0  0  0
 14 11  1  0  0  0  0
 16 14  1  0  0  0  0
 17 16  1  0  0  0  0
 18 16  2  0  0  0  0
 19 18  1  0  0  0  0
 21 19  1  1  0  0  0
 21 24  1  0  0  0  0
 22 20  1  6  0  0  0
 22 23  1  0  0  0  0
 22 25  1  0  0  0  0
 23 21  1  0  0  0  0
 25 26  1  0  0  0  0
 26 24  1  0  0  0  0
 27 33  2  0  0  0  0
 27 28  1  0  0  0  0
 28 30  2  0  0  0  0
 29 33  1  0  0  0  0
 30 31  1  0  0  0  0
 30 23  1  0  0  0  0
 32 31  2  0  0  0  0
 33 32  1  0  0  0  0
 35 34  1  0  0  0  0
 36 35  1  0  0  0  0
 37 57  1  1  0  0  0
 37 36  1  0  0  0  0
 38 42  1  0  0  0  0
 38 40  1  0  0  0  0
 39 43  1  0  0  0  0
 40 41  1  6  0  0  0
 40 43  1  0  0  0  0
 42 56  1  6  0  0  0
 42 39  1  0  0  0  0
 43 37  1  6  0  0  0
 44 46  1  0  0  0  0
 44 45  1  0  0  0  0
 44 41  1  1  0  0  0
 45 47  1  6  0  0  0
 46 45  1  0  0  0  0
 47 49  1  0  0  0  0
 48 49  2  0  0  0  0
 48 50  1  0  0  0  0
 49 54  1  0  0  0  0
 50 53  2  0  0  0  0
 51 48  1  0  0  0  0
 53 52  1  0  0  0  0
 54 52  2  0  0  0  0
 55 56  3  0  0  0  0
 57 58  1  0  0  0  0
M  END
>  <MODEL>
7

>  <REMARK>
 VINA RESULT:      -5.0      3.466      8.909
  Name = 
  15 active torsions:
  status: ('A' for Active; 'I' for Inactive)
    1  A    between atoms: C_2  and  C_25
    2  A    between atoms: C_5  and  C_7
    3  A    between atoms: C_5  and  N_8
    4  A    between atoms: C_7  and  C_22
    5  A    between atoms: N_8  and  C_15
    6  A    between atoms: C_9  and  O_39
    7  A    between atoms: N_12  and  C_49
    8  A    between atoms: C_14  and  C_15
    9  A    between atoms: C_15  and  C_56
   10  A    between atoms: C_17  and  C_46
   11  A    between atoms: C_18  and  S_43
   12  A    between atoms: C_25  and  C_28
   13  A    between atoms: N_35  and  O_39
   14  A    between atoms: C_40  and  C_45
   15  A    between atoms: C_47  and  C_54
                            x       y       z     vdW  Elec       q    Type
                         _______ _______ _______ _____ _____    ______ ____

>  <TORSDO>
F 15

$$$$
=
 OpenBabel11032419123D

 58 64  0  0  1  0  0  0  0  0999 V2000
  187.4330  176.1880  137.7600 C   0  0  0  0  0  1  0  0  0  0  0  0
  187.3670  173.0690  134.5940 C   0  0  0  0  0  2  0  0  0  0  0  0
  188.3460  174.7200  136.1770 C   0  0  2  0  0  3  0  0  0  0  0  0
  187.4520  174.3170  135.0650 C   0  0  0  0  0  0  0  0  0  0  0  0
  187.6850  177.6940  134.6070 C   0  0  0  0  0  1  0  0  0  0  0  0
  186.6160  175.4410  134.5940 C   0  0  2  0  0  3  0  0  0  0  0  0
  188.0650  176.1300  136.4540 N   0  0  0  0  0  0  0  0  0  0  0  0
  187.0730  176.6040  135.4730 C   0  0  1  0  0  3  0  0  0  0  0  0
  184.8900  173.8710  135.4700 N   0  0  0  0  0  0  0  0  0  0  0  0
  184.4050  176.3160  135.4030 C   0  0  0  0  0  3  0  0  0  0  0  0
  183.1510  174.8050  136.7650 N   0  0  0  0  0  2  0  0  0  0  0  0
  183.9660  173.7030  136.3620 C   0  0  0  0  0  0  0  0  0  0  0  0
  185.1180  175.1460  134.7730 C   0  0  1  0  0  3  0  0  0  0  0  0
  183.4320  176.1310  136.3030 C   0  0  0  0  0  0  0  0  0  0  0  0
  183.7670  172.3640  136.9840 C   0  0  0  0  0  1  0  0  0  0  0  0
  182.6870  177.2730  136.8610 C   0  0  0  0  0  0  0  0  0  0  0  0
  181.4490  177.7870  136.1850 C   0  0  0  0  0  1  0  0  0  0  0  0
  183.0950  177.8100  137.9700 N   0  0  0  0  0  0  0  0  0  0  0  0
  182.4510  178.8750  138.5590 O   0  0  0  0  0  0  0  0  0  0  0  0
  180.4260  179.7710  142.3340 C   0  0  0  0  0  1  0  0  0  0  0  0
  181.6290  178.6560  139.6920 C   0  0  1  0  0  3  0  0  0  0  0  0
  179.6940  179.4960  141.0260 C   0  0  1  0  0  3  0  0  0  0  0  0
  180.5900  179.6900  139.8790 N   0  0  0  0  0  0  0  0  0  0  0  0
  180.9660  177.2940  139.5710 C   0  0  0  0  0  2  0  0  0  0  0  0
  179.0790  178.0930  141.0060 C   0  0  0  0  0  2  0  0  0  0  0  0
  180.1430  177.0130  140.8220 C   0  0  0  0  0  2  0  0  0  0  0  0
  181.4830  182.8230  137.9700 C   0  0  0  0  0  3  0  0  0  0  0  0
  181.6120  181.6330  138.6940 C   0  0  0  0  0  3  0  0  0  0  0  0
  180.0430  184.8160  136.7780 Cl  0  0  0  0  0  0  0  0  0  0  0  0
  180.4810  180.9200  139.1210 C   0  0  0  0  0  0  0  0  0  0  0  0
  179.2110  181.4360  138.8010 C   0  0  0  0  0  3  0  0  0  0  0  0
  179.0790  182.6290  138.0840 C   0  0  0  0  0  3  0  0  0  0  0  0
  180.2140  183.3200  137.6650 C   0  0  0  0  0  0  0  0  0  0  0  0
  189.8020  174.5680  135.7600 C   0  0  0  0  0  2  0  0  0  0  0  0
  190.4950  173.5860  136.6790 C   0  0  0  0  0  2  0  0  0  0  0  0
  191.5120  172.8470  135.9460 N   0  0  0  0  0  2  0  0  0  0  0  0
  192.7840  173.0570  136.6250 C   0  0  2  0  0  3  0  0  0  0  0  0
  195.1030  175.0450  138.4390 S   0  0  0  0  0  0  0  0  0  0  0  0
  194.4980  174.6230  135.8180 N   0  0  0  0  0  2  0  0  0  0  0  0
  193.4250  175.1510  137.8680 C   0  0  1  0  0  3  0  0  0  0  0  0
  192.5430  176.4530  138.2430 S   0  0  0  0  0  0  0  0  0  0  0  0
  195.5870  174.4540  136.7800 C   0  0  1  0  0  3  0  0  0  0  0  0
  193.2300  174.5250  136.5350 C   0  0  2  0  0  3  0  0  0  0  0  0
  192.2300  176.3090  140.0060 C   0  0  2  0  0  3  0  0  0  0  0  0
  191.2020  177.3500  140.4080 C   0  0  2  0  0  3  0  0  0  0  0  0
  192.6660  177.5840  140.6910 C   0  0  0  0  0  2  0  0  0  0  0  0
  190.5070  176.9290  141.6940 C   0  0  0  0  0  2  0  0  0  0  0  0
  188.2950  177.3720  142.8530 C   0  0  0  0  0  0  0  0  0  0  0  0
  189.0970  177.4370  141.7020 C   0  0  0  0  0  0  0  0  0  0  0  0
  187.0580  177.9320  142.8450 N   0  0  0  0  0  0  0  0  0  0  0  0
  188.7920  176.7350  144.1050 C   0  0  0  0  0  1  0  0  0  0  0  0
  187.3210  178.6310  140.5730 C   0  0  0  0  0  3  0  0  0  0  0  0
  186.5610  178.5560  141.7410 C   0  0  0  0  0  3  0  0  0  0  0  0
  188.5940  178.0670  140.5590 C   0  0  0  0  0  3  0  0  0  0  0  0
  197.7140  175.7320  135.9320 N   0  0  0  0  0  0  0  0  0  0  0  0
  196.7760  175.1600  136.3030 C   0  0  0  0  0  0  0  0  0  0  0  0
  193.8480  172.1610  136.0030 C   0  0  0  0  0  2  0  0  0  0  0  0
  193.1960  171.2260  135.0000 C   0  0  0  0  0  1  0  0  0  0  0  0
  2  4  2  0  0  0  0
  3 34  1  6  0  0  0
  3  7  1  0  0  0  0
  4  3  1  0  0  0  0
  6 13  1  0  0  0  0
  6  4  1  1  0  0  0
  6  8  1  0  0  0  0
  7  1  1  0  0  0  0
  8  5  1  6  0  0  0
  8  7  1  0  0  0  0
  9 12  2  0  0  0  0
 10 14  2  0  0  0  0
 12 11  1  0  0  0  0
 12 15  1  0  0  0  0
 13 10  1  1  0  0  0
 13  9  1  0  0  0  0
 14 11  1  0  0  0  0
 14 16  1  0  0  0  0
 16 18  2  0  0  0  0
 17 16  1  0  0  0  0
 18 19  1  0  0  0  0
 21 19  1  6  0  0  0
 21 23  1  0  0  0  0
 22 20  1  1  0  0  0
 23 22  1  0  0  0  0
 24 21  1  0  0  0  0
 24 26  1  0  0  0  0
 25 22  1  0  0  0  0
 26 25  1  0  0  0  0
 27 28  1  0  0  0  0
 28 30  2  0  0  0  0
 29 33  1  0  0  0  0
 30 23  1  0  0  0  0
 31 30  1  0  0  0  0
 32 31  2  0  0  0  0
 33 27  2  0  0  0  0
 33 32  1  0  0  0  0
 34 35  1  0  0  0  0
 36 37  1  0  0  0  0
 36 35  1  0  0  0  0
 37 57  1  6  0  0  0
 39 43  1  0  0  0  0
 39 42  1  0  0  0  0
 40 41  1  6  0  0  0
 40 38  1  0  0  0  0
 42 56  1  6  0  0  0
 42 38  1  0  0  0  0
 43 37  1  1  0  0  0
 43 40  1  0  0  0  0
 44 41  1  6  0  0  0
 44 45  1  0  0  0  0
 44 46  1  0  0  0  0
 45 46  1  0  0  0  0
 45 47  1  1  0  0  0
 47 49  1  0  0  0  0
 48 51  1  0  0  0  0
 49 48  2  0  0  0  0
 50 48  1  0  0  0  0
 52 53  1  0  0  0  0
 53 50  2  0  0  0  0
 54 52  2  0  0  0  0
 54 49  1  0  0  0  0
 55 56  3  0  0  0  0
 58 57  1  0  0  0  0
M  END
>  <MODEL>
8

>  <REMARK>
 VINA RESULT:      -4.9      4.045     11.696
  Name = 
  15 active torsions:
  status: ('A' for Active; 'I' for Inactive)
    1  A    between atoms: C_2  and  C_25
    2  A    between atoms: C_5  and  C_7
    3  A    between atoms: C_5  and  N_8
    4  A    between atoms: C_7  and  C_22
    5  A    between atoms: N_8  and  C_15
    6  A    between atoms: C_9  and  O_39
    7  A    between atoms: N_12  and  C_49
    8  A    between atoms: C_14  and  C_15
    9  A    between atoms: C_15  and  C_56
   10  A    between atoms: C_17  and  C_46
   11  A    between atoms: C_18  and  S_43
   12  A    between atoms: C_25  and  C_28
   13  A    between atoms: N_35  and  O_39
   14  A    between atoms: C_40  and  C_45
   15  A    between atoms: C_47  and  C_54
                            x       y       z     vdW  Elec       q    Type
                         _______ _______ _______ _____ _____    ______ ____

>  <TORSDO>
F 15

$$$$
=
 OpenBabel11032419123D

 58 64  0  0  1  0  0  0  0  0999 V2000
  184.9320  180.8570  144.5770 C   0  0  0  0  0  1  0  0  0  0  0  0
  186.4220  177.3090  142.3520 C   0  0  0  0  0  2  0  0  0  0  0  0
  184.7600  178.9000  143.2980 C   0  0  2  0  0  3  0  0  0  0  0  0
  185.8930  177.9490  143.3990 C   0  0  0  0  0  0  0  0  0  0  0  0
  184.7230  178.0090  146.6080 C   0  0  0  0  0  1  0  0  0  0  0  0
  186.4120  177.8530  144.7790 C   0  0  2  0  0  3  0  0  0  0  0  0
  184.5550  179.4550  144.6380 N   0  0  0  0  0  0  0  0  0  0  0  0
  185.4960  178.7950  145.5590 C   0  0  1  0  0  3  0  0  0  0  0  0
  188.5820  177.6500  145.9880 N   0  0  0  0  0  0  0  0  0  0  0  0
  188.5800  178.1130  143.5370 C   0  0  0  0  0  3  0  0  0  0  0  0
  190.5100  177.2800  144.6750 N   0  0  0  0  0  2  0  0  0  0  0  0
  189.7990  177.2140  145.9130 C   0  0  0  0  0  0  0  0  0  0  0  0
  187.8830  178.2910  144.8630 C   0  0  1  0  0  3  0  0  0  0  0  0
  189.8480  177.6900  143.4730 C   0  0  0  0  0  0  0  0  0  0  0  0
  190.4530  176.6250  147.1150 C   0  0  0  0  0  1  0  0  0  0  0  0
  190.5500  177.5880  142.1810 C   0  0  0  0  0  0  0  0  0  0  0  0
  192.0470  177.4830  142.1270 C   0  0  0  0  0  1  0  0  0  0  0  0
  189.8540  177.5540  141.0860 N   0  0  0  0  0  0  0  0  0  0  0  0
  190.4340  177.4550  139.8420 O   0  0  0  0  0  0  0  0  0  0  0  0
  189.4420  177.9070  135.6030 C   0  0  0  0  0  1  0  0  0  0  0  0
  189.6200  177.5210  138.6830 C   0  0  1  0  0  3  0  0  0  0  0  0
  189.2270  176.6200  136.3900 C   0  0  1  0  0  3  0  0  0  0  0  0
  190.0530  176.6090  137.6040 N   0  0  0  0  0  0  0  0  0  0  0  0
  188.1840  177.2030  139.0650 C   0  0  0  0  0  2  0  0  0  0  0  0
  187.7490  176.4060  136.7330 C   0  0  0  0  0  2  0  0  0  0  0  0
  187.2860  177.3480  137.8430 C   0  0  0  0  0  2  0  0  0  0  0  0
  193.6690  175.6020  138.0070 C   0  0  0  0  0  3  0  0  0  0  0  0
  192.4990  176.3680  138.0280 C   0  0  0  0  0  3  0  0  0  0  0  0
  195.0920  173.3260  137.4970 Cl  0  0  0  0  0  0  0  0  0  0  0  0
  191.2750  175.8320  137.5970 C   0  0  0  0  0  0  0  0  0  0  0  0
  191.2580  174.5010  137.1410 C   0  0  0  0  0  3  0  0  0  0  0  0
  192.4270  173.7350  137.1110 C   0  0  0  0  0  3  0  0  0  0  0  0
  193.6310  174.2840  137.5470 C   0  0  0  0  0  0  0  0  0  0  0  0
  183.4990  178.1690  142.8580 C   0  0  0  0  0  2  0  0  0  0  0  0
  182.4130  179.1730  142.5380 C   0  0  0  0  0  2  0  0  0  0  0  0
  181.1780  178.4820  142.2010 N   0  0  0  0  0  2  0  0  0  0  0  0
  180.3650  179.3960  141.4100 C   0  0  2  0  0  3  0  0  0  0  0  0
  180.7720  179.0920  137.8930 S   0  0  0  0  0  0  0  0  0  0  0  0
  180.3990  181.1270  139.6650 N   0  0  0  0  0  2  0  0  0  0  0  0
  181.7910  179.2310  139.3410 C   0  0  1  0  0  3  0  0  0  0  0  0
  183.3990  179.1710  139.1840 S   0  0  0  0  0  0  0  0  0  0  0  0
  179.7540  180.4700  138.5270 C   0  0  1  0  0  3  0  0  0  0  0  0
  181.2140  180.1380  140.3660 C   0  0  2  0  0  3  0  0  0  0  0  0
  183.7590  177.4660  138.7510 C   0  0  2  0  0  3  0  0  0  0  0  0
  183.3170  177.2180  137.3210 C   0  0  2  0  0  3  0  0  0  0  0  0
  182.4620  176.7410  138.4700 C   0  0  0  0  0  2  0  0  0  0  0  0
  184.0720  176.0330  136.7370 C   0  0  0  0  0  2  0  0  0  0  0  0
  183.3170  173.6140  136.8270 C   0  0  0  0  0  0  0  0  0  0  0  0
  183.1110  174.9350  136.3960 C   0  0  0  0  0  0  0  0  0  0  0  0
  182.3740  172.6690  136.5800 N   0  0  0  0  0  0  0  0  0  0  0  0
  184.5370  173.2330  137.5940 C   0  0  0  0  0  1  0  0  0  0  0  0
  180.9870  174.2610  135.4550 C   0  0  0  0  0  3  0  0  0  0  0  0
  181.2230  172.9630  135.9110 C   0  0  0  0  0  3  0  0  0  0  0  0
  181.9390  175.2470  135.7000 C   0  0  0  0  0  3  0  0  0  0  0  0
  179.3030  182.2410  136.6470 N   0  0  0  0  0  0  0  0  0  0  0  0
  179.4970  181.4530  137.4750 C   0  0  0  0  0  0  0  0  0  0  0  0
  179.6890  180.4050  142.3300 C   0  0  0  0  0  2  0  0  0  0  0  0
  178.9350  179.6670  143.4210 C   0  0  0  0  0  1  0  0  0  0  0  0
  1  7  1  0  0  0  0
  2  4  2  0  0  0  0
  3 34  1  1  0  0  0
  3  4  1  0  0  0  0
  3  7  1  0  0  0  0
  6  4  1  6  0  0  0
  6 13  1  0  0  0  0
  6  8  1  0  0  0  0
  7  8  1  0  0  0  0
  8  5  1  1  0  0  0
 11 12  1  0  0  0  0
 12  9  2  0  0  0  0
 12 15  1  0  0  0  0
 13 10  1  6  0  0  0
 13  9  1  0  0  0  0
 14 10  2  0  0  0  0
 14 11  1  0  0  0  0
 16 14  1  0  0  0  0
 17 16  1  0  0  0  0
 18 16  2  0  0  0  0
 19 18  1  0  0  0  0
 21 24  1  0  0  0  0
 21 19  1  1  0  0  0
 22 20  1  1  0  0  0
 22 25  1  0  0  0  0
 22 23  1  0  0  0  0
 23 21  1  0  0  0  0
 25 26  1  0  0  0  0
 26 24  1  0  0  0  0
 27 28  1  0  0  0  0
 29 33  1  0  0  0  0
 30 23  1  0  0  0  0
 30 28  2  0  0  0  0
 31 30  1  0  0  0  0
 32 31  2  0  0  0  0
 32 33  1  0  0  0  0
 33 27  2  0  0  0  0
 35 34  1  0  0  0  0
 36 35  1  0  0  0  0
 37 36  1  0  0  0  0
 37 57  1  1  0  0  0
 38 42  1  0  0  0  0
 38 40  1  0  0  0  0
 39 43  1  0  0  0  0
 40 41  1  6  0  0  0
 40 43  1  0  0  0  0
 42 56  1  6  0  0  0
 42 39  1  0  0  0  0
 43 37  1  1  0  0  0
 44 41  1  6  0  0  0
 45 47  1  1  0  0  0
 45 46  1  0  0  0  0
 45 44  1  0  0  0  0
 46 44  1  0  0  0  0
 48 51  1  0  0  0  0
 49 47  1  0  0  0  0
 49 48  2  0  0  0  0
 50 48  1  0  0  0  0
 52 54  2  0  0  0  0
 52 53  1  0  0  0  0
 53 50  2  0  0  0  0
 54 49  1  0  0  0  0
 55 56  3  0  0  0  0
 57 58  1  0  0  0  0
M  END
>  <MODEL>
9

>  <REMARK>
 VINA RESULT:      -4.9      1.572      2.223
  Name = 
  15 active torsions:
  status: ('A' for Active; 'I' for Inactive)
    1  A    between atoms: C_2  and  C_25
    2  A    between atoms: C_5  and  C_7
    3  A    between atoms: C_5  and  N_8
    4  A    between atoms: C_7  and  C_22
    5  A    between atoms: N_8  and  C_15
    6  A    between atoms: C_9  and  O_39
    7  A    between atoms: N_12  and  C_49
    8  A    between atoms: C_14  and  C_15
    9  A    between atoms: C_15  and  C_56
   10  A    between atoms: C_17  and  C_46
   11  A    between atoms: C_18  and  S_43
   12  A    between atoms: C_25  and  C_28
   13  A    between atoms: N_35  and  O_39
   14  A    between atoms: C_40  and  C_45
   15  A    between atoms: C_47  and  C_54
                            x       y       z     vdW  Elec       q    Type
                         _______ _______ _______ _____ _____    ______ ____

>  <TORSDO>
F 15

$$$$
