=
 OpenBabel11042411453D

 25 29  0  0  1  0  0  0  0  0999 V2000
  186.0900  177.9740  144.9320 C   0  0  0  0  0  0  0  0  0  0  0  0
  181.7190  179.3420  141.9220 O   0  0  0  0  0  0  0  0  0  0  0  0
  186.3400  177.7180  142.2070 C   0  0  0  0  0  3  0  0  0  0  0  0
  183.8280  178.8330  146.1620 N   0  0  0  0  0  0  0  0  0  0  0  0
  183.8510  178.7530  144.7920 C   0  0  0  0  0  0  0  0  0  0  0  0
  187.2690  177.5310  144.4350 C   0  0  0  0  0  0  0  0  0  0  0  0
  188.2240  177.2560  145.5620 C   0  0  2  0  0  3  0  0  0  0  0  0
  187.4280  177.3830  143.0500 C   0  0  0  0  0  3  0  0  0  0  0  0
  182.7400  179.0180  142.5820 C   0  0  0  0  0  0  0  0  0  0  0  0
  183.9690  178.5410  141.8450 C   0  0  0  0  0  2  0  0  0  0  0  0
  186.0770  178.0480  146.2810 C   0  0  0  0  0  0  0  0  0  0  0  0
  185.0070  178.3100  144.1440 C   0  0  0  0  0  0  0  0  0  0  0  0
  184.9170  178.4900  146.9260 C   0  0  0  0  0  3  0  0  0  0  0  0
  185.1200  178.1880  142.7510 C   0  0  0  0  0  0  0  0  0  0  0  0
  187.3930  177.6050  146.8330 C   0  0  0  0  0  2  0  0  0  0  0  0
  182.7090  179.1100  144.0140 N   0  0  0  0  0  2  0  0  0  0  0  0
  189.4260  178.1830  145.4840 C   0  0  0  0  0  2  0  0  0  0  0  0
  190.6000  177.5240  146.0310 N   0  0  0  0  0  2  0  0  0  0  0  0
  191.3340  178.8090  143.7950 S   0  0  0  0  0  0  0  0  0  0  0  0
  191.5890  177.4560  144.9700 C   0  0  2  0  0  3  0  0  0  0  0  0
  191.9900  176.3610  142.8760 N   0  0  0  0  0  2  0  0  0  0  0  0
  191.5580  177.6670  142.3900 C   0  0  1  0  0  3  0  0  0  0  0  0
  191.4120  176.1750  144.1960 C   0  0  0  0  0  2  0  0  0  0  0  0
  190.5250  176.8480  140.2730 C   0  0  0  0  0  1  0  0  0  0  0  0
  190.2630  177.5260  141.6040 C   0  0  0  0  0  2  0  0  0  0  0  0
  1 11  1  0  0  0  0
  2  9  2  0  0  0  0
  3 14  2  0  0  0  0
  3  8  1  0  0  0  0
  4 13  1  0  0  0  0
  5  4  2  0  0  0  0
  6  1  1  0  0  0  0
  6  7  1  0  0  0  0
  7 17  1  6  0  0  0
  7 15  1  0  0  0  0
  8  6  2  0  0  0  0
  9 16  1  0  0  0  0
 10  9  1  0  0  0  0
 10 14  1  0  0  0  0
 11 15  1  0  0  0  0
 11 13  2  0  0  0  0
 12  5  1  0  0  0  0
 12  1  2  0  0  0  0
 14 12  1  0  0  0  0
 16  5  1  0  0  0  0
 17 18  1  0  0  0  0
 19 20  1  0  0  0  0
 20 18  1  1  0  0  0
 21 23  1  0  0  0  0
 22 25  1  1  0  0  0
 22 21  1  0  0  0  0
 22 19  1  0  0  0  0
 23 20  1  0  0  0  0
 24 25  1  0  0  0  0
M  END
>  <MODEL>
1

>  <REMARK>
 VINA RESULT:      -9.0      0.000      0.000
  Name = 
  4 active torsions:
  status: ('A' for Active; 'I' for Inactive)
    1  A    between atoms: N_7  and  C_11
    2  A    between atoms: N_7  and  C_20
    3  A    between atoms: C_8  and  C_20
    4  A    between atoms: C_16  and  C_24
                            x       y       z     vdW  Elec       q    Type
                         _______ _______ _______ _____ _____    ______ ____

>  <TORSDO>
F 4

$$$$
=
 OpenBabel11042411453D

 25 29  0  0  1  0  0  0  0  0999 V2000
  189.4060  176.9110  144.4120 C   0  0  0  0  0  0  0  0  0  0  0  0
  187.9620  178.2630  149.5240 O   0  0  0  0  0  0  0  0  0  0  0  0
  186.7550  177.5070  144.8280 C   0  0  0  0  0  3  0  0  0  0  0  0
  191.2820  176.9430  146.3740 N   0  0  0  0  0  0  0  0  0  0  0  0
  189.9860  177.2700  146.6870 C   0  0  0  0  0  0  0  0  0  0  0  0
  188.5630  176.8560  143.3550 C   0  0  0  0  0  0  0  0  0  0  0  0
  189.3200  176.4460  142.1220 C   0  0  2  0  0  3  0  0  0  0  0  0
  187.2040  177.1470  143.5330 C   0  0  0  0  0  3  0  0  0  0  0  0
  188.2580  177.9550  148.3400 C   0  0  0  0  0  0  0  0  0  0  0  0
  187.1720  177.9480  147.2900 C   0  0  0  0  0  2  0  0  0  0  0  0
  190.6790  176.5860  144.0950 C   0  0  0  0  0  0  0  0  0  0  0  0
  189.0090  177.2550  145.6890 C   0  0  0  0  0  0  0  0  0  0  0  0
  191.6540  176.6000  145.0970 C   0  0  0  0  0  3  0  0  0  0  0  0
  187.6590  177.5650  145.9160 C   0  0  0  0  0  0  0  0  0  0  0  0
  190.7760  176.2520  142.6410 C   0  0  0  0  0  2  0  0  0  0  0  0
  189.6160  177.6200  148.0200 N   0  0  0  0  0  2  0  0  0  0  0  0
  189.3040  177.5610  141.0900 C   0  0  0  0  0  2  0  0  0  0  0  0
  188.6500  177.1040  139.8740 N   0  0  0  0  0  2  0  0  0  0  0  0
  186.7500  177.8850  138.1500 S   0  0  0  0  0  0  0  0  0  0  0  0
  188.1990  178.2850  139.1590 C   0  0  2  0  0  3  0  0  0  0  0  0
  188.6460  179.5230  137.1560 N   0  0  0  0  0  2  0  0  0  0  0  0
  187.4440  178.8110  136.7400 C   0  0  1  0  0  3  0  0  0  0  0  0
  189.2740  178.7400  138.2060 C   0  0  0  0  0  2  0  0  0  0  0  0
  187.3010  176.4640  135.9100 C   0  0  0  0  0  1  0  0  0  0  0  0
  187.7700  177.8700  135.5900 C   0  0  0  0  0  2  0  0  0  0  0  0
  1 12  1  0  0  0  0
  3 14  1  0  0  0  0
  4  5  2  0  0  0  0
  5 16  1  0  0  0  0
  6  8  1  0  0  0  0
  6  1  2  0  0  0  0
  7 17  1  6  0  0  0
  7 15  1  0  0  0  0
  7  6  1  0  0  0  0
  8  3  2  0  0  0  0
  9  2  2  0  0  0  0
 10  9  1  0  0  0  0
 11  1  1  0  0  0  0
 11 13  2  0  0  0  0
 12 14  2  0  0  0  0
 12  5  1  0  0  0  0
 13  4  1  0  0  0  0
 14 10  1  0  0  0  0
 15 11  1  0  0  0  0
 16  9  1  0  0  0  0
 18 17  1  0  0  0  0
 19 20  1  0  0  0  0
 20 18  1  6  0  0  0
 21 23  1  0  0  0  0
 22 25  1  6  0  0  0
 22 21  1  0  0  0  0
 22 19  1  0  0  0  0
 23 20  1  0  0  0  0
 25 24  1  0  0  0  0
M  END
>  <MODEL>
2

>  <REMARK>
 VINA RESULT:      -8.7      3.775      6.133
  Name = 
  4 active torsions:
  status: ('A' for Active; 'I' for Inactive)
    1  A    between atoms: N_7  and  C_11
    2  A    between atoms: N_7  and  C_20
    3  A    between atoms: C_8  and  C_20
    4  A    between atoms: C_16  and  C_24
                            x       y       z     vdW  Elec       q    Type
                         _______ _______ _______ _____ _____    ______ ____

>  <TORSDO>
F 4

$$$$
=
 OpenBabel11042411453D

 25 29  0  0  1  0  0  0  0  0999 V2000
  188.9820  177.2780  143.7690 C   0  0  0  0  0  0  0  0  0  0  0  0
  188.1880  177.9390  149.1520 O   0  0  0  0  0  0  0  0  0  0  0  0
  186.4200  177.8570  144.5750 C   0  0  0  0  0  3  0  0  0  0  0  0
  191.0740  177.0080  145.4790 N   0  0  0  0  0  0  0  0  0  0  0  0
  189.8340  177.3100  145.9860 C   0  0  0  0  0  0  0  0  0  0  0  0
  188.0210  177.3840  142.8220 C   0  0  0  0  0  0  0  0  0  0  0  0
  188.6160  177.1360  141.4650 C   0  0  2  0  0  3  0  0  0  0  0  0
  186.7020  177.6720  143.2000 C   0  0  0  0  0  3  0  0  0  0  0  0
  188.3340  177.7920  147.9110 C   0  0  0  0  0  0  0  0  0  0  0  0
  187.1340  177.9480  147.0070 C   0  0  0  0  0  2  0  0  0  0  0  0
  190.1990  176.9780  143.2610 C   0  0  0  0  0  0  0  0  0  0  0  0
  188.7480  177.4500  145.1190 C   0  0  0  0  0  0  0  0  0  0  0  0
  191.2840  176.8370  144.1320 C   0  0  0  0  0  3  0  0  0  0  0  0
  187.4450  177.7500  145.5460 C   0  0  0  0  0  0  0  0  0  0  0  0
  190.1140  176.8460  141.7740 C   0  0  0  0  0  2  0  0  0  0  0  0
  189.6340  177.4810  147.3890 N   0  0  0  0  0  2  0  0  0  0  0  0
  188.5180  178.3820  140.6010 C   0  0  0  0  0  2  0  0  0  0  0  0
  187.3190  178.3250  139.7800 N   0  0  0  0  0  2  0  0  0  0  0  0
  187.7040  176.4900  137.8630 S   0  0  0  0  0  0  0  0  0  0  0  0
  187.7500  178.2190  138.3970 C   0  0  2  0  0  3  0  0  0  0  0  0
  189.7480  178.0640  137.0840 N   0  0  0  0  0  2  0  0  0  0  0  0
  189.3330  176.6660  137.0630 C   0  0  1  0  0  3  0  0  0  0  0  0
  189.1830  178.6680  138.2780 C   0  0  0  0  0  2  0  0  0  0  0  0
  191.7710  176.2740  137.4180 C   0  0  0  0  0  1  0  0  0  0  0  0
  190.3710  175.8060  137.7680 C   0  0  0  0  0  2  0  0  0  0  0  0
  1 12  1  0  0  0  0
  3 14  1  0  0  0  0
  4  5  2  0  0  0  0
  5 16  1  0  0  0  0
  6  8  1  0  0  0  0
  6  1  2  0  0  0  0
  7 17  1  6  0  0  0
  7 15  1  0  0  0  0
  7  6  1  0  0  0  0
  8  3  2  0  0  0  0
  9  2  2  0  0  0  0
 10  9  1  0  0  0  0
 11  1  1  0  0  0  0
 11 13  2  0  0  0  0
 12 14  2  0  0  0  0
 12  5  1  0  0  0  0
 13  4  1  0  0  0  0
 14 10  1  0  0  0  0
 15 11  1  0  0  0  0
 16  9  1  0  0  0  0
 18 17  1  0  0  0  0
 19 20  1  0  0  0  0
 20 18  1  1  0  0  0
 21 23  1  0  0  0  0
 22 21  1  0  0  0  0
 22 25  1  1  0  0  0
 22 19  1  0  0  0  0
 23 20  1  0  0  0  0
 24 25  1  0  0  0  0
M  END
>  <MODEL>
3

>  <REMARK>
 VINA RESULT:      -8.7      3.477      5.888
  Name = 
  4 active torsions:
  status: ('A' for Active; 'I' for Inactive)
    1  A    between atoms: N_7  and  C_11
    2  A    between atoms: N_7  and  C_20
    3  A    between atoms: C_8  and  C_20
    4  A    between atoms: C_16  and  C_24
                            x       y       z     vdW  Elec       q    Type
                         _______ _______ _______ _____ _____    ______ ____

>  <TORSDO>
F 4

$$$$
=
 OpenBabel11042411453D

 25 29  0  0  1  0  0  0  0  0999 V2000
  187.0900  177.7440  144.5970 C   0  0  0  0  0  0  0  0  0  0  0  0
  191.5230  176.8970  147.7060 O   0  0  0  0  0  0  0  0  0  0  0  0
  186.7880  178.1200  147.3030 C   0  0  0  0  0  3  0  0  0  0  0  0
  189.4190  176.9740  143.4340 N   0  0  0  0  0  0  0  0  0  0  0  0
  189.3790  177.1450  144.7960 C   0  0  0  0  0  0  0  0  0  0  0  0
  185.8760  178.1250  145.0600 C   0  0  0  0  0  0  0  0  0  0  0  0
  184.9120  178.2530  143.9140 C   0  0  2  0  0  3  0  0  0  0  0  0
  185.6860  178.3190  146.4350 C   0  0  0  0  0  3  0  0  0  0  0  0
  190.4860  177.0980  147.0230 C   0  0  0  0  0  0  0  0  0  0  0  0
  189.2150  177.5190  147.7240 C   0  0  0  0  0  2  0  0  0  0  0  0
  187.1190  177.5760  143.2560 C   0  0  0  0  0  0  0  0  0  0  0  0
  188.1870  177.5380  145.4090 C   0  0  0  0  0  0  0  0  0  0  0  0
  188.3130  177.1800  142.6460 C   0  0  0  0  0  3  0  0  0  0  0  0
  188.0500  177.7290  146.7920 C   0  0  0  0  0  0  0  0  0  0  0  0
  185.7720  177.8630  142.6740 C   0  0  0  0  0  2  0  0  0  0  0  0
  190.5370  176.9220  145.6000 N   0  0  0  0  0  2  0  0  0  0  0  0
  184.4470  179.6910  143.7640 C   0  0  0  0  0  2  0  0  0  0  0  0
  183.0590  179.8110  144.1820 N   0  0  0  0  0  2  0  0  0  0  0  0
  182.1150  178.9970  141.8070 S   0  0  0  0  0  0  0  0  0  0  0  0
  182.3320  178.7060  143.5810 C   0  0  2  0  0  3  0  0  0  0  0  0
  180.0910  177.9320  143.2340 N   0  0  0  0  0  2  0  0  0  0  0  0
  180.3720  178.4690  141.9080 C   0  0  1  0  0  3  0  0  0  0  0  0
  180.9500  178.6280  144.1760 C   0  0  0  0  0  2  0  0  0  0  0  0
  180.0590  180.5540  140.5760 C   0  0  0  0  0  1  0  0  0  0  0  0
  179.4420  179.6360  141.6130 C   0  0  0  0  0  2  0  0  0  0  0  0
  1  6  2  0  0  0  0
  1 12  1  0  0  0  0
  4  5  2  0  0  0  0
  5 12  1  0  0  0  0
  5 16  1  0  0  0  0
  6  8  1  0  0  0  0
  7 17  1  6  0  0  0
  7  6  1  0  0  0  0
  8  3  2  0  0  0  0
  9  2  2  0  0  0  0
  9 10  1  0  0  0  0
 11  1  1  0  0  0  0
 12 14  2  0  0  0  0
 13 11  2  0  0  0  0
 13  4  1  0  0  0  0
 14  3  1  0  0  0  0
 14 10  1  0  0  0  0
 15 11  1  0  0  0  0
 15  7  1  0  0  0  0
 16  9  1  0  0  0  0
 17 18  1  0  0  0  0
 19 22  1  0  0  0  0
 19 20  1  0  0  0  0
 20 23  1  0  0  0  0
 20 18  1  1  0  0  0
 21 23  1  0  0  0  0
 22 25  1  1  0  0  0
 22 21  1  0  0  0  0
 24 25  1  0  0  0  0
M  END
>  <MODEL>
4

>  <REMARK>
 VINA RESULT:      -8.6      3.449      7.720
  Name = 
  4 active torsions:
  status: ('A' for Active; 'I' for Inactive)
    1  A    between atoms: N_7  and  C_11
    2  A    between atoms: N_7  and  C_20
    3  A    between atoms: C_8  and  C_20
    4  A    between atoms: C_16  and  C_24
                            x       y       z     vdW  Elec       q    Type
                         _______ _______ _______ _____ _____    ______ ____

>  <TORSDO>
F 4

$$$$
=
 OpenBabel11042411453D

 25 29  0  0  1  0  0  0  0  0999 V2000
  188.5180  177.5580  143.9870 C   0  0  0  0  0  0  0  0  0  0  0  0
  192.0900  176.8010  148.0740 O   0  0  0  0  0  0  0  0  0  0  0  0
  187.4630  177.2590  146.5070 C   0  0  0  0  0  3  0  0  0  0  0  0
  191.1770  177.4770  143.4490 N   0  0  0  0  0  0  0  0  0  0  0  0
  190.7560  177.3280  144.7470 C   0  0  0  0  0  0  0  0  0  0  0  0
  187.1720  177.6130  144.1300 C   0  0  0  0  0  0  0  0  0  0  0  0
  186.5280  177.8300  142.7900 C   0  0  2  0  0  3  0  0  0  0  0  0
  186.6020  177.4580  145.4010 C   0  0  0  0  0  3  0  0  0  0  0  0
  191.2420  176.9710  147.1600 C   0  0  0  0  0  0  0  0  0  0  0  0
  189.7750  177.0010  147.5170 C   0  0  0  0  0  2  0  0  0  0  0  0
  188.9220  177.7040  142.7060 C   0  0  0  0  0  0  0  0  0  0  0  0
  189.3900  177.3650  145.0390 C   0  0  0  0  0  0  0  0  0  0  0  0
  190.2900  177.6650  142.4160 C   0  0  0  0  0  3  0  0  0  0  0  0
  188.8670  177.2140  146.3330 C   0  0  0  0  0  0  0  0  0  0  0  0
  187.7380  177.8810  141.8110 C   0  0  0  0  0  2  0  0  0  0  0  0
  191.6910  177.1310  145.8060 N   0  0  0  0  0  2  0  0  0  0  0  0
  185.8020  179.1640  142.7540 C   0  0  0  0  0  2  0  0  0  0  0  0
  185.2490  179.3950  141.4290 N   0  0  0  0  0  2  0  0  0  0  0  0
  183.6950  178.3800  139.4930 S   0  0  0  0  0  0  0  0  0  0  0  0
  184.1780  178.4320  141.2370 C   0  0  2  0  0  3  0  0  0  0  0  0
  181.7940  178.2520  141.3990 N   0  0  0  0  0  2  0  0  0  0  0  0
  181.9310  178.3900  139.9540 C   0  0  1  0  0  3  0  0  0  0  0  0
  182.9600  178.8700  142.0080 C   0  0  0  0  0  2  0  0  0  0  0  0
  182.2020  180.4660  138.5990 C   0  0  0  0  0  1  0  0  0  0  0  0
  181.2640  179.6770  139.4910 C   0  0  0  0  0  2  0  0  0  0  0  0
  1  6  2  0  0  0  0
  1 12  1  0  0  0  0
  4  5  2  0  0  0  0
  5 12  1  0  0  0  0
  5 16  1  0  0  0  0
  6  8  1  0  0  0  0
  7 17  1  1  0  0  0
  7  6  1  0  0  0  0
  8  3  2  0  0  0  0
  9 10  1  0  0  0  0
  9  2  2  0  0  0  0
 11  1  1  0  0  0  0
 12 14  2  0  0  0  0
 13 11  2  0  0  0  0
 13  4  1  0  0  0  0
 14  3  1  0  0  0  0
 14 10  1  0  0  0  0
 15 11  1  0  0  0  0
 15  7  1  0  0  0  0
 16  9  1  0  0  0  0
 18 17  1  0  0  0  0
 19 22  1  0  0  0  0
 19 20  1  0  0  0  0
 20 18  1  6  0  0  0
 20 23  1  0  0  0  0
 21 23  1  0  0  0  0
 22 25  1  1  0  0  0
 22 21  1  0  0  0  0
 24 25  1  0  0  0  0
M  END
>  <MODEL>
5

>  <REMARK>
 VINA RESULT:      -8.5      3.552      7.474
  Name = 
  4 active torsions:
  status: ('A' for Active; 'I' for Inactive)
    1  A    between atoms: N_7  and  C_11
    2  A    between atoms: N_7  and  C_20
    3  A    between atoms: C_8  and  C_20
    4  A    between atoms: C_16  and  C_24
                            x       y       z     vdW  Elec       q    Type
                         _______ _______ _______ _____ _____    ______ ____

>  <TORSDO>
F 4

$$$$
=
 OpenBabel11042411453D

 25 29  0  0  1  0  0  0  0  0999 V2000
  189.1740  177.0000  144.3980 C   0  0  0  0  0  0  0  0  0  0  0  0
  185.3110  179.0230  147.7180 O   0  0  0  0  0  0  0  0  0  0  0  0
  186.7130  177.4830  143.2750 C   0  0  0  0  0  3  0  0  0  0  0  0
  189.7510  177.4510  147.0120 N   0  0  0  0  0  0  0  0  0  0  0  0
  188.4910  177.7380  146.5490 C   0  0  0  0  0  0  0  0  0  0  0  0
  189.0050  176.7310  143.0820 C   0  0  0  0  0  0  0  0  0  0  0  0
  190.2840  176.1870  142.5080 C   0  0  2  0  0  3  0  0  0  0  0  0
  187.7610  176.9590  142.4800 C   0  0  0  0  0  3  0  0  0  0  0  0
  186.1730  178.5570  146.9290 C   0  0  0  0  0  0  0  0  0  0  0  0
  185.7940  178.3210  145.4850 C   0  0  0  0  0  2  0  0  0  0  0  0
  190.4170  176.7120  144.8450 C   0  0  0  0  0  0  0  0  0  0  0  0
  188.1780  177.5090  145.2070 C   0  0  0  0  0  0  0  0  0  0  0  0
  190.7250  176.9410  146.1900 C   0  0  0  0  0  3  0  0  0  0  0  0
  186.9170  177.7640  144.6480 C   0  0  0  0  0  0  0  0  0  0  0  0
  191.2490  176.1660  143.7300 C   0  0  0  0  0  2  0  0  0  0  0  0
  187.4890  178.2650  147.4190 N   0  0  0  0  0  2  0  0  0  0  0  0
  190.8380  177.1270  141.4510 C   0  0  0  0  0  2  0  0  0  0  0  0
  190.8290  176.4760  140.1510 N   0  0  0  0  0  2  0  0  0  0  0  0
  188.9400  178.2550  139.4740 S   0  0  0  0  0  0  0  0  0  0  0  0
  190.5550  177.5000  139.1580 C   0  0  2  0  0  3  0  0  0  0  0  0
  189.6920  177.7450  136.9360 N   0  0  0  0  0  2  0  0  0  0  0  0
  188.5250  178.1720  137.7000 C   0  0  1  0  0  3  0  0  0  0  0  0
  190.4760  176.8710  137.7920 C   0  0  0  0  0  2  0  0  0  0  0  0
  186.0450  177.9200  137.6490 C   0  0  0  0  0  1  0  0  0  0  0  0
  187.3710  177.2090  137.4640 C   0  0  0  0  0  2  0  0  0  0  0  0
  1 11  1  0  0  0  0
  1 12  1  0  0  0  0
  3 14  1  0  0  0  0
  5  4  2  0  0  0  0
  5 16  1  0  0  0  0
  6  1  2  0  0  0  0
  7 17  1  6  0  0  0
  7  6  1  0  0  0  0
  7 15  1  0  0  0  0
  8  6  1  0  0  0  0
  8  3  2  0  0  0  0
  9 16  1  0  0  0  0
  9  2  2  0  0  0  0
 10  9  1  0  0  0  0
 11 13  2  0  0  0  0
 12  5  1  0  0  0  0
 13  4  1  0  0  0  0
 14 12  2  0  0  0  0
 14 10  1  0  0  0  0
 15 11  1  0  0  0  0
 18 17  1  0  0  0  0
 20 19  1  0  0  0  0
 20 18  1  1  0  0  0
 21 22  1  0  0  0  0
 21 23  1  0  0  0  0
 22 25  1  1  0  0  0
 22 19  1  0  0  0  0
 23 20  1  0  0  0  0
 25 24  1  0  0  0  0
M  END
>  <MODEL>
6

>  <REMARK>
 VINA RESULT:      -8.4      2.914      4.960
  Name = 
  4 active torsions:
  status: ('A' for Active; 'I' for Inactive)
    1  A    between atoms: N_7  and  C_11
    2  A    between atoms: N_7  and  C_20
    3  A    between atoms: C_8  and  C_20
    4  A    between atoms: C_16  and  C_24
                            x       y       z     vdW  Elec       q    Type
                         _______ _______ _______ _____ _____    ______ ____

>  <TORSDO>
F 4

$$$$
=
 OpenBabel11042411453D

 25 29  0  0  1  0  0  0  0  0999 V2000
  188.5060  177.4080  144.7710 C   0  0  0  0  0  0  0  0  0  0  0  0
  183.4230  179.0990  145.9320 O   0  0  0  0  0  0  0  0  0  0  0  0
  186.7450  177.5580  142.6660 C   0  0  0  0  0  3  0  0  0  0  0  0
  187.8480  178.0250  147.3310 N   0  0  0  0  0  0  0  0  0  0  0  0
  186.8940  178.1460  146.3510 C   0  0  0  0  0  0  0  0  0  0  0  0
  188.9500  177.0690  143.5380 C   0  0  0  0  0  0  0  0  0  0  0  0
  190.3930  176.6550  143.6140 C   0  0  2  0  0  3  0  0  0  0  0  0
  188.0760  177.1280  142.4440 C   0  0  0  0  0  3  0  0  0  0  0  0
  184.5800  178.7050  145.6310 C   0  0  0  0  0  0  0  0  0  0  0  0
  184.8880  178.3700  144.1900 C   0  0  0  0  0  2  0  0  0  0  0  0
  189.4510  177.2840  145.7290 C   0  0  0  0  0  0  0  0  0  0  0  0
  187.2170  177.8300  145.0290 C   0  0  0  0  0  0  0  0  0  0  0  0
  189.1230  177.6000  147.0520 C   0  0  0  0  0  3  0  0  0  0  0  0
  186.3070  177.9150  143.9640 C   0  0  0  0  0  0  0  0  0  0  0  0
  190.7290  176.7950  145.1290 C   0  0  0  0  0  2  0  0  0  0  0  0
  185.5720  178.5870  146.6600 N   0  0  0  0  0  2  0  0  0  0  0  0
  191.2670  177.6110  142.8200 C   0  0  0  0  0  2  0  0  0  0  0  0
  192.2180  176.8630  142.0130 N   0  0  0  0  0  2  0  0  0  0  0  0
  190.8340  176.9690  139.7190 S   0  0  0  0  0  0  0  0  0  0  0  0
  192.2600  177.4910  140.7040 C   0  0  2  0  0  3  0  0  0  0  0  0
  193.2460  177.2020  138.5400 N   0  0  0  0  0  2  0  0  0  0  0  0
  191.9010  176.7120  138.2620 C   0  0  1  0  0  3  0  0  0  0  0  0
  193.4870  177.0310  139.9620 C   0  0  0  0  0  2  0  0  0  0  0  0
  190.5580  174.7150  137.6070 C   0  0  0  0  0  1  0  0  0  0  0  0
  191.9530  175.2380  137.8900 C   0  0  0  0  0  2  0  0  0  0  0  0
  1 12  1  0  0  0  0
  1 11  1  0  0  0  0
  3 14  1  0  0  0  0
  5 16  1  0  0  0  0
  5  4  2  0  0  0  0
  6  7  1  0  0  0  0
  6  1  2  0  0  0  0
  7 17  1  6  0  0  0
  7 15  1  0  0  0  0
  8  3  2  0  0  0  0
  8  6  1  0  0  0  0
  9  2  2  0  0  0  0
  9 16  1  0  0  0  0
 10  9  1  0  0  0  0
 11 13  2  0  0  0  0
 12  5  1  0  0  0  0
 13  4  1  0  0  0  0
 14 10  1  0  0  0  0
 14 12  2  0  0  0  0
 15 11  1  0  0  0  0
 18 17  1  0  0  0  0
 19 20  1  0  0  0  0
 20 18  1  1  0  0  0
 21 23  1  0  0  0  0
 22 25  1  1  0  0  0
 22 21  1  0  0  0  0
 22 19  1  0  0  0  0
 23 20  1  0  0  0  0
 24 25  1  0  0  0  0
M  END
>  <MODEL>
7

>  <REMARK>
 VINA RESULT:      -8.4      2.275      3.594
  Name = 
  4 active torsions:
  status: ('A' for Active; 'I' for Inactive)
    1  A    between atoms: N_7  and  C_11
    2  A    between atoms: N_7  and  C_20
    3  A    between atoms: C_8  and  C_20
    4  A    between atoms: C_16  and  C_24
                            x       y       z     vdW  Elec       q    Type
                         _______ _______ _______ _____ _____    ______ ____

>  <TORSDO>
F 4

$$$$
=
 OpenBabel11042411453D

 25 29  0  0  1  0  0  0  0  0999 V2000
  185.7520  178.3630  144.1330 C   0  0  0  0  0  0  0  0  0  0  0  0
  189.8950  176.7620  147.3450 O   0  0  0  0  0  0  0  0  0  0  0  0
  188.1210  177.7570  142.8790 C   0  0  0  0  0  3  0  0  0  0  0  0
  185.3930  178.2250  146.8200 N   0  0  0  0  0  0  0  0  0  0  0  0
  186.6160  177.8880  146.2940 C   0  0  0  0  0  0  0  0  0  0  0  0
  185.8110  178.4740  142.7850 C   0  0  0  0  0  0  0  0  0  0  0  0
  184.4840  178.9420  142.2560 C   0  0  2  0  0  3  0  0  0  0  0  0
  187.0060  178.1790  142.1150 C   0  0  0  0  0  3  0  0  0  0  0  0
  188.9670  177.1270  146.5780 C   0  0  0  0  0  0  0  0  0  0  0  0
  189.2250  177.1920  145.0910 C   0  0  0  0  0  2  0  0  0  0  0  0
  184.5460  178.6980  144.6420 C   0  0  0  0  0  0  0  0  0  0  0  0
  186.8170  177.9570  144.9130 C   0  0  0  0  0  0  0  0  0  0  0  0
  184.3490  178.6300  146.0250 C   0  0  0  0  0  3  0  0  0  0  0  0
  188.0320  177.6410  144.2870 C   0  0  0  0  0  0  0  0  0  0  0  0
  183.6200  179.1050  143.5410 C   0  0  0  0  0  2  0  0  0  0  0  0
  187.6900  177.4730  147.1360 N   0  0  0  0  0  2  0  0  0  0  0  0
  183.8590  177.8800  141.3670 C   0  0  0  0  0  2  0  0  0  0  0  0
  183.9810  178.2660  139.9700 N   0  0  0  0  0  2  0  0  0  0  0  0
  181.4820  179.2170  139.7600 S   0  0  0  0  0  0  0  0  0  0  0  0
  182.7140  177.9630  139.3280 C   0  0  2  0  0  3  0  0  0  0  0  0
  180.7490  176.6260  139.6410 N   0  0  0  0  0  2  0  0  0  0  0  0
  180.2300  177.9240  140.0550 C   0  0  1  0  0  3  0  0  0  0  0  0
  182.1880  176.6480  139.8430 C   0  0  0  0  0  2  0  0  0  0  0  0
  180.2240  179.1780  142.2100 C   0  0  0  0  0  1  0  0  0  0  0  0
  179.8390  177.8820  141.5240 C   0  0  0  0  0  2  0  0  0  0  0  0
  1 11  1  0  0  0  0
  1 12  1  0  0  0  0
  3 14  1  0  0  0  0
  5  4  2  0  0  0  0
  5 16  1  0  0  0  0
  6  1  2  0  0  0  0
  7 17  1  6  0  0  0
  7  6  1  0  0  0  0
  7 15  1  0  0  0  0
  8  6  1  0  0  0  0
  8  3  2  0  0  0  0
  9 16  1  0  0  0  0
  9  2  2  0  0  0  0
 10  9  1  0  0  0  0
 11 13  2  0  0  0  0
 12  5  1  0  0  0  0
 13  4  1  0  0  0  0
 14 12  2  0  0  0  0
 14 10  1  0  0  0  0
 15 11  1  0  0  0  0
 18 17  1  0  0  0  0
 19 22  1  0  0  0  0
 20 19  1  0  0  0  0
 20 23  1  0  0  0  0
 20 18  1  1  0  0  0
 21 23  1  0  0  0  0
 21 22  1  0  0  0  0
 22 25  1  1  0  0  0
 25 24  1  0  0  0  0
M  END
>  <MODEL>
8

>  <REMARK>
 VINA RESULT:      -8.3      3.681      7.194
  Name = 
  4 active torsions:
  status: ('A' for Active; 'I' for Inactive)
    1  A    between atoms: N_7  and  C_11
    2  A    between atoms: N_7  and  C_20
    3  A    between atoms: C_8  and  C_20
    4  A    between atoms: C_16  and  C_24
                            x       y       z     vdW  Elec       q    Type
                         _______ _______ _______ _____ _____    ______ ____

>  <TORSDO>
F 4

$$$$
=
 OpenBabel11042411453D

 25 29  0  0  1  0  0  0  0  0999 V2000
  185.8020  178.3910  144.3570 C   0  0  0  0  0  0  0  0  0  0  0  0
  190.0490  176.5620  147.2980 O   0  0  0  0  0  0  0  0  0  0  0  0
  188.0550  177.6770  142.9550 C   0  0  0  0  0  3  0  0  0  0  0  0
  185.6020  178.2520  147.0600 N   0  0  0  0  0  0  0  0  0  0  0  0
  186.7720  177.8590  146.4580 C   0  0  0  0  0  0  0  0  0  0  0  0
  185.7830  178.5090  143.0080 C   0  0  0  0  0  0  0  0  0  0  0  0
  184.4510  179.0460  142.5640 C   0  0  2  0  0  3  0  0  0  0  0  0
  186.9180  178.1590  142.2640 C   0  0  0  0  0  3  0  0  0  0  0  0
  189.0950  176.9790  146.5920 C   0  0  0  0  0  0  0  0  0  0  0  0
  189.2640  177.0410  145.0920 C   0  0  0  0  0  2  0  0  0  0  0  0
  184.6470  178.7830  144.9410 C   0  0  0  0  0  0  0  0  0  0  0  0
  186.8900  177.9270  145.0680 C   0  0  0  0  0  0  0  0  0  0  0  0
  184.5330  178.7150  146.3330 C   0  0  0  0  0  3  0  0  0  0  0  0
  188.0470  177.5550  144.3660 C   0  0  0  0  0  0  0  0  0  0  0  0
  183.6760  179.2430  143.9010 C   0  0  0  0  0  2  0  0  0  0  0  0
  187.8740  177.3840  147.2290 N   0  0  0  0  0  2  0  0  0  0  0  0
  183.7190  178.0230  141.7110 C   0  0  0  0  0  2  0  0  0  0  0  0
  182.3260  178.4100  141.5560 N   0  0  0  0  0  2  0  0  0  0  0  0
  182.8610  176.6850  139.5730 S   0  0  0  0  0  0  0  0  0  0  0  0
  181.9510  178.1280  140.1810 C   0  0  2  0  0  3  0  0  0  0  0  0
  182.4790  178.7970  137.9410 N   0  0  0  0  0  2  0  0  0  0  0  0
  183.2140  177.5390  138.0000 C   0  0  1  0  0  3  0  0  0  0  0  0
  182.3450  179.2870  139.3030 C   0  0  0  0  0  2  0  0  0  0  0  0
  185.3490  176.7370  136.9910 C   0  0  0  0  0  1  0  0  0  0  0  0
  184.7050  177.8020  137.8570 C   0  0  0  0  0  2  0  0  0  0  0  0
  1 11  1  0  0  0  0
  1 12  1  0  0  0  0
  3 14  1  0  0  0  0
  5  4  2  0  0  0  0
  5 16  1  0  0  0  0
  6  1  2  0  0  0  0
  7 17  1  6  0  0  0
  7  6  1  0  0  0  0
  7 15  1  0  0  0  0
  8  3  2  0  0  0  0
  8  6  1  0  0  0  0
  9 16  1  0  0  0  0
  9  2  2  0  0  0  0
 10  9  1  0  0  0  0
 11 13  2  0  0  0  0
 12  5  1  0  0  0  0
 13  4  1  0  0  0  0
 14 12  2  0  0  0  0
 14 10  1  0  0  0  0
 15 11  1  0  0  0  0
 18 17  1  0  0  0  0
 19 20  1  0  0  0  0
 20 18  1  1  0  0  0
 21 22  1  0  0  0  0
 21 23  1  0  0  0  0
 22 25  1  1  0  0  0
 22 19  1  0  0  0  0
 23 20  1  0  0  0  0
 24 25  1  0  0  0  0
M  END
>  <MODEL>
9

>  <REMARK>
 VINA RESULT:      -8.2      3.724      6.639
  Name = 
  4 active torsions:
  status: ('A' for Active; 'I' for Inactive)
    1  A    between atoms: N_7  and  C_11
    2  A    between atoms: N_7  and  C_20
    3  A    between atoms: C_8  and  C_20
    4  A    between atoms: C_16  and  C_24
                            x       y       z     vdW  Elec       q    Type
                         _______ _______ _______ _____ _____    ______ ____

>  <TORSDO>
F 4

$$$$
