=
 OpenBabel11032419513D

 27 30  0  0  1  0  0  0  0  0999 V2000
  186.8120  178.6260  139.4320 F   0  0  0  0  0  0  0  0  0  0  0  0
  189.9210  176.9690  140.6690 C   0  0  2  0  0  3  0  0  0  0  0  0
  188.0760  177.8260  141.8610 N   0  0  0  0  0  0  0  0  0  0  0  0
  186.3600  177.8730  144.2970 N   0  0  0  0  0  2  0  0  0  0  0  0
  183.9490  178.8480  141.6630 C   0  0  0  0  0  3  0  0  0  0  0  0
  190.9120  176.4810  142.8200 O   0  0  0  0  0  1  0  0  0  0  0  0
  187.6550  177.5240  144.8130 C   0  0  0  0  0  0  0  0  0  0  0  0
  188.4870  176.6540  142.6070 C   0  0  2  0  0  3  0  0  0  0  0  0
  186.6910  178.2130  141.8130 C   0  0  0  0  0  0  0  0  0  0  0  0
  189.0460  178.1900  140.8440 C   0  0  0  0  0  2  0  0  0  0  0  0
  188.6130  176.9890  144.0540 C   0  0  0  0  0  3  0  0  0  0  0  0
  184.5180  178.4780  142.8770 C   0  0  0  0  0  3  0  0  0  0  0  0
  189.8190  176.1950  141.9870 C   0  0  1  0  0  3  0  0  0  0  0  0
  186.0970  178.5950  140.5840 C   0  0  0  0  0  0  0  0  0  0  0  0
  185.8760  178.1570  142.9740 C   0  0  0  0  0  0  0  0  0  0  0  0
  184.1730  179.2660  139.3380 F   0  0  0  0  0  0  0  0  0  0  0  0
  184.7360  178.9110  140.5190 C   0  0  0  0  0  0  0  0  0  0  0  0
  187.9390  177.7480  146.2570 C   0  0  0  0  0  0  0  0  0  0  0  0
  188.5500  178.1760  148.9150 N   0  0  0  0  0  0  0  0  0  0  0  0
  189.2300  177.5020  146.7450 C   0  0  0  0  0  3  0  0  0  0  0  0
  187.3140  178.4090  148.4730 N   0  0  0  0  0  0  0  0  0  0  0  0
  186.9670  178.2140  147.1720 C   0  0  0  0  0  0  0  0  0  0  0  0
  189.5230  177.7250  148.0870 C   0  0  0  0  0  3  0  0  0  0  0  0
  185.5480  178.4540  146.7840 C   0  0  0  0  0  1  0  0  0  0  0  0
  191.3370  177.3620  140.2560 C   0  0  0  0  0  2  0  0  0  0  0  0
  191.7230  176.7050  138.9400 C   0  0  0  0  0  2  0  0  0  0  0  0
  190.8000  175.6270  138.6320 N   0  0  0  0  0  1  0  0  0  0  0  0
  1 14  1  0  0  0  0
  2 25  1  1  0  0  0
  2 10  1  0  0  0  0
  2 13  1  0  0  0  0
  3  8  1  0  0  0  0
  4  7  1  0  0  0  0
  5 12  1  0  0  0  0
  7 18  1  0  0  0  0
  8 11  1  1  0  0  0
  9  3  1  0  0  0  0
  9 15  1  0  0  0  0
 10  3  1  0  0  0  0
 11  7  2  0  0  0  0
 12 15  2  0  0  0  0
 13  8  1  0  0  0  0
 13  6  1  1  0  0  0
 14  9  2  0  0  0  0
 15  4  1  0  0  0  0
 16 17  1  0  0  0  0
 17 14  1  0  0  0  0
 17  5  2  0  0  0  0
 18 20  2  0  0  0  0
 18 22  1  0  0  0  0
 20 23  1  0  0  0  0
 21 19  1  0  0  0  0
 22 21  2  0  0  0  0
 23 19  2  0  0  0  0
 24 22  1  0  0  0  0
 26 25  1  0  0  0  0
 27 26  1  0  0  0  0
M  END
>  <MODEL>
1

>  <REMARK>
 VINA RESULT:      -9.3      0.000      0.000
  Name = 
  3 active torsions:
  status: ('A' for Active; 'I' for Inactive)
    1  A    between atoms: C_1  and  C_17
    2  A    between atoms: C_3  and  C_9
    3  A    between atoms: C_4  and  C_17
                            x       y       z     vdW  Elec       q    Type
                         _______ _______ _______ _____ _____    ______ ____

>  <TORSDO>
F 3

$$$$
=
 OpenBabel11032419513D

 27 30  0  0  1  0  0  0  0  0999 V2000
  190.4560  176.4390  143.9000 F   0  0  0  0  0  0  0  0  0  0  0  0
  189.4930  177.5730  140.4760 C   0  0  2  0  0  3  0  0  0  0  0  0
  188.2210  177.4700  142.4580 N   0  0  0  0  0  0  0  0  0  0  0  0
  185.9200  178.3930  144.1100 N   0  0  0  0  0  2  0  0  0  0  0  0
  188.3650  177.4150  146.7110 C   0  0  0  0  0  3  0  0  0  0  0  0
  187.4700  178.3070  139.3740 O   0  0  0  0  0  1  0  0  0  0  0  0
  185.4400  178.5430  142.7640 C   0  0  0  0  0  0  0  0  0  0  0  0
  187.7470  178.6550  141.7730 C   0  0  2  0  0  3  0  0  0  0  0  0
  188.2420  177.4140  143.8950 C   0  0  0  0  0  0  0  0  0  0  0  0
  189.0830  176.6630  141.6120 C   0  0  0  0  0  2  0  0  0  0  0  0
  186.2570  178.6490  141.7140 C   0  0  0  0  0  3  0  0  0  0  0  0
  187.2440  177.9160  146.0580 C   0  0  0  0  0  3  0  0  0  0  0  0
  188.3950  178.6350  140.3770 C   0  0  1  0  0  3  0  0  0  0  0  0
  189.3760  176.9040  144.5760 C   0  0  0  0  0  0  0  0  0  0  0  0
  187.1620  177.9280  144.6610 C   0  0  0  0  0  0  0  0  0  0  0  0
  190.5190  176.4250  146.6160 F   0  0  0  0  0  0  0  0  0  0  0  0
  189.4270  176.9060  145.9730 C   0  0  0  0  0  0  0  0  0  0  0  0
  183.9720  178.6040  142.5250 C   0  0  0  0  0  0  0  0  0  0  0  0
  181.2600  178.6660  142.0120 N   0  0  0  0  0  0  0  0  0  0  0  0
  183.4830  178.4270  141.2230 C   0  0  0  0  0  3  0  0  0  0  0  0
  181.7040  178.8440  143.2570 N   0  0  0  0  0  0  0  0  0  0  0  0
  183.0300  178.8210  143.5570 C   0  0  0  0  0  0  0  0  0  0  0  0
  182.1140  178.4590  140.9800 C   0  0  0  0  0  3  0  0  0  0  0  0
  183.4310  179.0800  144.9700 C   0  0  0  0  0  1  0  0  0  0  0  0
  189.7420  176.7770  139.1970 C   0  0  0  0  0  2  0  0  0  0  0  0
  191.2130  176.4260  139.0490 C   0  0  0  0  0  2  0  0  0  0  0  0
  191.3570  175.1800  138.3180 N   0  0  0  0  0  1  0  0  0  0  0  0
  1 14  1  0  0  0  0
  2 25  1  6  0  0  0
  2 10  1  0  0  0  0
  3  9  1  0  0  0  0
  4 15  1  0  0  0  0
  7  4  1  0  0  0  0
  8 11  1  6  0  0  0
  8  3  1  0  0  0  0
  9 14  2  0  0  0  0
  9 15  1  0  0  0  0
 10  3  1  0  0  0  0
 11  7  2  0  0  0  0
 12  5  1  0  0  0  0
 13  6  1  6  0  0  0
 13  2  1  0  0  0  0
 13  8  1  0  0  0  0
 14 17  1  0  0  0  0
 15 12  2  0  0  0  0
 17 16  1  0  0  0  0
 17  5  2  0  0  0  0
 18  7  1  0  0  0  0
 18 22  1  0  0  0  0
 19 21  1  0  0  0  0
 20 18  2  0  0  0  0
 21 22  2  0  0  0  0
 22 24  1  0  0  0  0
 23 20  1  0  0  0  0
 23 19  2  0  0  0  0
 26 25  1  0  0  0  0
 27 26  1  0  0  0  0
M  END
>  <MODEL>
2

>  <REMARK>
 VINA RESULT:      -9.3      2.834      5.359
  Name = 
  3 active torsions:
  status: ('A' for Active; 'I' for Inactive)
    1  A    between atoms: C_1  and  C_17
    2  A    between atoms: C_3  and  C_9
    3  A    between atoms: C_4  and  C_17
                            x       y       z     vdW  Elec       q    Type
                         _______ _______ _______ _____ _____    ______ ____

>  <TORSDO>
F 3

$$$$
=
 OpenBabel11032419513D

 27 30  0  0  1  0  0  0  0  0999 V2000
  192.0820  175.6950  144.0920 F   0  0  0  0  0  0  0  0  0  0  0  0
  190.4460  177.0310  141.0130 C   0  0  2  0  0  3  0  0  0  0  0  0
  189.6720  176.9630  143.2390 N   0  0  0  0  0  0  0  0  0  0  0  0
  187.9180  178.0130  145.4060 N   0  0  0  0  0  2  0  0  0  0  0  0
  190.8080  176.7380  147.3340 C   0  0  0  0  0  3  0  0  0  0  0  0
  188.2950  177.9720  140.4370 O   0  0  0  0  0  1  0  0  0  0  0  0
  187.1500  178.2520  144.2150 C   0  0  0  0  0  0  0  0  0  0  0  0
  189.1590  178.2080  142.7060 C   0  0  2  0  0  3  0  0  0  0  0  0
  190.0260  176.8520  144.6290 C   0  0  0  0  0  0  0  0  0  0  0  0
  190.2340  176.1180  142.1990 C   0  0  0  0  0  2  0  0  0  0  0  0
  187.7030  178.3290  143.0030 C   0  0  0  0  0  3  0  0  0  0  0  0
  189.6160  177.3550  146.9750 C   0  0  0  0  0  3  0  0  0  0  0  0
  189.4550  178.1850  141.1960 C   0  0  1  0  0  3  0  0  0  0  0  0
  191.2370  176.2230  145.0120 C   0  0  0  0  0  0  0  0  0  0  0  0
  189.2080  177.4250  145.6380 C   0  0  0  0  0  0  0  0  0  0  0  0
  192.7810  175.5750  146.7140 F   0  0  0  0  0  0  0  0  0  0  0  0
  191.6170  176.1700  146.3570 C   0  0  0  0  0  0  0  0  0  0  0  0
  185.6790  178.4450  144.3330 C   0  0  0  0  0  0  0  0  0  0  0  0
  182.9390  178.7520  144.4830 N   0  0  0  0  0  0  0  0  0  0  0  0
  184.8810  178.3360  143.1860 C   0  0  0  0  0  3  0  0  0  0  0  0
  183.6800  178.8670  145.5850 N   0  0  0  0  0  0  0  0  0  0  0  0
  185.0320  178.7220  145.5600 C   0  0  0  0  0  0  0  0  0  0  0  0
  183.5020  178.4920  143.2770 C   0  0  0  0  0  3  0  0  0  0  0  0
  185.7800  178.9180  146.8350 C   0  0  0  0  0  1  0  0  0  0  0  0
  190.3130  176.2660  139.6990 C   0  0  0  0  0  2  0  0  0  0  0  0
  191.1370  176.9190  138.6010 C   0  0  0  0  0  2  0  0  0  0  0  0
  192.5510  176.6890  138.8360 N   0  0  0  0  0  1  0  0  0  0  0  0
  1 14  1  0  0  0  0
  2 25  1  6  0  0  0
  2 13  1  0  0  0  0
  2 10  1  0  0  0  0
  3  9  1  0  0  0  0
  4 15  1  0  0  0  0
  7 18  1  0  0  0  0
  7  4  1  0  0  0  0
  8 11  1  6  0  0  0
  8  3  1  0  0  0  0
  9 14  2  0  0  0  0
  9 15  1  0  0  0  0
 10  3  1  0  0  0  0
 11  7  2  0  0  0  0
 12  5  1  0  0  0  0
 13  6  1  6  0  0  0
 13  8  1  0  0  0  0
 14 17  1  0  0  0  0
 15 12  2  0  0  0  0
 17 16  1  0  0  0  0
 17  5  2  0  0  0  0
 18 22  1  0  0  0  0
 19 21  1  0  0  0  0
 20 23  1  0  0  0  0
 20 18  2  0  0  0  0
 22 21  2  0  0  0  0
 22 24  1  0  0  0  0
 23 19  2  0  0  0  0
 26 27  1  0  0  0  0
 26 25  1  0  0  0  0
M  END
>  <MODEL>
3

>  <REMARK>
 VINA RESULT:      -9.2      3.008      5.239
  Name = 
  3 active torsions:
  status: ('A' for Active; 'I' for Inactive)
    1  A    between atoms: C_1  and  C_17
    2  A    between atoms: C_3  and  C_9
    3  A    between atoms: C_4  and  C_17
                            x       y       z     vdW  Elec       q    Type
                         _______ _______ _______ _____ _____    ______ ____

>  <TORSDO>
F 3

$$$$
=
 OpenBabel11032419513D

 27 30  0  0  1  0  0  0  0  0999 V2000
  187.0400  177.7060  146.1310 F   0  0  0  0  0  0  0  0  0  0  0  0
  190.6660  177.5580  145.2550 C   0  0  2  0  0  3  0  0  0  0  0  0
  188.7630  177.5480  143.8630 N   0  0  0  0  0  0  0  0  0  0  0  0
  187.4840  178.0500  141.2200 N   0  0  0  0  0  2  0  0  0  0  0  0
  184.6560  178.6180  143.5410 C   0  0  0  0  0  3  0  0  0  0  0  0
  191.9740  177.2850  143.2400 O   0  0  0  0  0  1  0  0  0  0  0  0
  188.8300  177.6900  140.8710 C   0  0  0  0  0  0  0  0  0  0  0  0
  189.7580  178.2990  143.1250 C   0  0  2  0  0  3  0  0  0  0  0  0
  187.3660  177.8660  143.7390 C   0  0  0  0  0  0  0  0  0  0  0  0
  189.3340  176.8830  145.0210 C   0  0  0  0  0  2  0  0  0  0  0  0
  189.8480  177.7900  141.7270 C   0  0  0  0  0  3  0  0  0  0  0  0
  185.4490  178.5420  142.4010 C   0  0  0  0  0  3  0  0  0  0  0  0
  191.0790  178.1410  143.8990 C   0  0  1  0  0  3  0  0  0  0  0  0
  186.5440  177.9450  144.8920 C   0  0  0  0  0  0  0  0  0  0  0  0
  186.7960  178.1730  142.4760 C   0  0  0  0  0  0  0  0  0  0  0  0
  184.4240  178.3990  145.8920 F   0  0  0  0  0  0  0  0  0  0  0  0
  185.2000  178.3170  144.7840 C   0  0  0  0  0  0  0  0  0  0  0  0
  189.1110  177.2040  139.4920 C   0  0  0  0  0  0  0  0  0  0  0  0
  189.6840  176.2410  136.9690 N   0  0  0  0  0  0  0  0  0  0  0  0
  190.3150  176.5340  139.2360 C   0  0  0  0  0  3  0  0  0  0  0  0
  188.5350  176.8810  137.1890 N   0  0  0  0  0  0  0  0  0  0  0  0
  188.2100  177.3710  138.4150 C   0  0  0  0  0  0  0  0  0  0  0  0
  190.5890  176.0530  137.9600 C   0  0  0  0  0  3  0  0  0  0  0  0
  186.9250  178.1160  138.5510 C   0  0  0  0  0  1  0  0  0  0  0  0
  191.6710  176.5930  145.8780 C   0  0  0  0  0  2  0  0  0  0  0  0
  191.3840  176.3860  147.3570 C   0  0  0  0  0  2  0  0  0  0  0  0
  192.6100  176.0490  148.0580 N   0  0  0  0  0  1  0  0  0  0  0  0
  2 25  1  6  0  0  0
  3 10  1  0  0  0  0
  4 15  1  0  0  0  0
  5 17  1  0  0  0  0
  7  4  1  0  0  0  0
  7 11  2  0  0  0  0
  8 11  1  6  0  0  0
  8  3  1  0  0  0  0
  8 13  1  0  0  0  0
  9  3  1  0  0  0  0
  9 14  1  0  0  0  0
 10  2  1  0  0  0  0
 12 15  1  0  0  0  0
 12  5  2  0  0  0  0
 13  6  1  6  0  0  0
 13  2  1  0  0  0  0
 14  1  1  0  0  0  0
 15  9  2  0  0  0  0
 17 14  2  0  0  0  0
 17 16  1  0  0  0  0
 18  7  1  0  0  0  0
 19 21  2  0  0  0  0
 19 23  1  0  0  0  0
 20 18  1  0  0  0  0
 21 22  1  0  0  0  0
 22 24  1  0  0  0  0
 22 18  2  0  0  0  0
 23 20  2  0  0  0  0
 25 26  1  0  0  0  0
 26 27  1  0  0  0  0
M  END
>  <MODEL>
4

>  <REMARK>
 VINA RESULT:      -9.2      2.721      6.296
  Name = 
  3 active torsions:
  status: ('A' for Active; 'I' for Inactive)
    1  A    between atoms: C_1  and  C_17
    2  A    between atoms: C_3  and  C_9
    3  A    between atoms: C_4  and  C_17
                            x       y       z     vdW  Elec       q    Type
                         _______ _______ _______ _____ _____    ______ ____

>  <TORSDO>
F 3

$$$$
=
 OpenBabel11032419513D

 27 30  0  0  1  0  0  0  0  0999 V2000
  188.6220  177.2510  145.3920 F   0  0  0  0  0  0  0  0  0  0  0  0
  189.0280  177.7190  141.7100 C   0  0  2  0  0  3  0  0  0  0  0  0
  187.0850  177.7650  143.0440 N   0  0  0  0  0  0  0  0  0  0  0  0
  184.2730  178.6390  143.4950 N   0  0  0  0  0  2  0  0  0  0  0  0
  185.5430  178.3800  146.9630 C   0  0  0  0  0  3  0  0  0  0  0  0
  187.5670  178.0200  139.8080 O   0  0  0  0  0  1  0  0  0  0  0  0
  184.3550  178.5200  142.0660 C   0  0  0  0  0  0  0  0  0  0  0  0
  186.8560  178.7640  142.0200 C   0  0  2  0  0  3  0  0  0  0  0  0
  186.5400  177.9330  144.3650 C   0  0  0  0  0  0  0  0  0  0  0  0
  188.2530  176.9510  142.7560 C   0  0  0  0  0  2  0  0  0  0  0  0
  185.5130  178.5650  141.4040 C   0  0  0  0  0  3  0  0  0  0  0  0
  184.7460  178.6330  145.8520 C   0  0  0  0  0  3  0  0  0  0  0  0
  188.0020  178.6100  141.0040 C   0  0  1  0  0  3  0  0  0  0  0  0
  187.3400  177.6760  145.5070 C   0  0  0  0  0  0  0  0  0  0  0  0
  185.2200  178.4200  144.5530 C   0  0  0  0  0  0  0  0  0  0  0  0
  187.6100  177.6600  147.8800 F   0  0  0  0  0  0  0  0  0  0  0  0
  186.8360  177.8990  146.7930 C   0  0  0  0  0  0  0  0  0  0  0  0
  183.1000  178.3620  141.2830 C   0  0  0  0  0  0  0  0  0  0  0  0
  180.8100  178.0100  139.7810 N   0  0  0  0  0  0  0  0  0  0  0  0
  183.1730  177.9230  139.9540 C   0  0  0  0  0  3  0  0  0  0  0  0
  180.7170  178.4360  141.0410 N   0  0  0  0  0  0  0  0  0  0  0  0
  181.8170  178.6230  141.8190 C   0  0  0  0  0  0  0  0  0  0  0  0
  182.0110  177.7480  139.2100 C   0  0  0  0  0  3  0  0  0  0  0  0
  181.6150  179.1500  143.1990 C   0  0  0  0  0  1  0  0  0  0  0  0
  189.8030  176.7740  140.7950 C   0  0  0  0  0  2  0  0  0  0  0  0
  191.1350  177.3810  140.3840 C   0  0  0  0  0  2  0  0  0  0  0  0
  192.0000  177.5140  141.5430 N   0  0  0  0  0  1  0  0  0  0  0  0
  1 14  1  0  0  0  0
  2 25  1  6  0  0  0
  2 10  1  0  0  0  0
  3  9  1  0  0  0  0
  4 15  1  0  0  0  0
  7  4  1  0  0  0  0
  8 11  1  6  0  0  0
  8  3  1  0  0  0  0
  9 15  2  0  0  0  0
  9 14  1  0  0  0  0
 10  3  1  0  0  0  0
 11  7  2  0  0  0  0
 12  5  2  0  0  0  0
 13  6  1  6  0  0  0
 13  2  1  0  0  0  0
 13  8  1  0  0  0  0
 14 17  2  0  0  0  0
 15 12  1  0  0  0  0
 17  5  1  0  0  0  0
 17 16  1  0  0  0  0
 18 22  1  0  0  0  0
 18  7  1  0  0  0  0
 19 21  1  0  0  0  0
 20 18  2  0  0  0  0
 21 22  2  0  0  0  0
 22 24  1  0  0  0  0
 23 19  2  0  0  0  0
 23 20  1  0  0  0  0
 26 25  1  0  0  0  0
 26 27  1  0  0  0  0
M  END
>  <MODEL>
5

>  <REMARK>
 VINA RESULT:      -8.8      3.281      5.951
  Name = 
  3 active torsions:
  status: ('A' for Active; 'I' for Inactive)
    1  A    between atoms: C_1  and  C_17
    2  A    between atoms: C_3  and  C_9
    3  A    between atoms: C_4  and  C_17
                            x       y       z     vdW  Elec       q    Type
                         _______ _______ _______ _____ _____    ______ ____

>  <TORSDO>
F 3

$$$$
=
 OpenBabel11032419513D

 27 30  0  0  1  0  0  0  0  0999 V2000
  187.2950  177.9910  145.4210 F   0  0  0  0  0  0  0  0  0  0  0  0
  188.7640  177.9840  141.9880 C   0  0  2  0  0  3  0  0  0  0  0  0
  186.5100  178.0060  142.6780 N   0  0  0  0  0  0  0  0  0  0  0  0
  183.6440  178.6270  142.1480 N   0  0  0  0  0  2  0  0  0  0  0  0
  183.8220  178.9900  145.8280 C   0  0  0  0  0  3  0  0  0  0  0  0
  187.9300  177.8600  139.7230 O   0  0  0  0  0  1  0  0  0  0  0  0
  184.1620  178.3210  140.8430 C   0  0  0  0  0  0  0  0  0  0  0  0
  186.5400  178.8230  141.4820 C   0  0  2  0  0  3  0  0  0  0  0  0
  185.5820  178.2960  143.7390 C   0  0  0  0  0  0  0  0  0  0  0  0
  187.7570  177.2900  142.8780 C   0  0  0  0  0  2  0  0  0  0  0  0
  185.4610  178.3970  140.5460 C   0  0  0  0  0  3  0  0  0  0  0  0
  183.3830  179.0000  144.5080 C   0  0  0  0  0  3  0  0  0  0  0  0
  187.9460  178.6530  140.8800 C   0  0  1  0  0  3  0  0  0  0  0  0
  186.0140  178.2880  145.0890 C   0  0  0  0  0  0  0  0  0  0  0  0
  184.2400  178.6610  143.4550 C   0  0  0  0  0  0  0  0  0  0  0  0
  185.5560  178.6310  147.4070 F   0  0  0  0  0  0  0  0  0  0  0  0
  185.1330  178.6320  146.1200 C   0  0  0  0  0  0  0  0  0  0  0  0
  183.2130  177.9220  139.7680 C   0  0  0  0  0  0  0  0  0  0  0  0
  181.4280  177.1150  137.8220 N   0  0  0  0  0  0  0  0  0  0  0  0
  182.8330  176.5780  139.6550 C   0  0  0  0  0  3  0  0  0  0  0  0
  181.7820  178.3980  137.9060 N   0  0  0  0  0  0  0  0  0  0  0  0
  182.6570  178.8420  138.8490 C   0  0  0  0  0  0  0  0  0  0  0  0
  181.9310  176.1860  138.6710 C   0  0  0  0  0  3  0  0  0  0  0  0
  183.0290  180.2860  138.8320 C   0  0  0  0  0  1  0  0  0  0  0  0
  189.8350  177.0100  141.5050 C   0  0  0  0  0  2  0  0  0  0  0  0
  190.1860  176.0030  142.5890 C   0  0  0  0  0  2  0  0  0  0  0  0
  191.3550  176.4520  143.3250 N   0  0  0  0  0  1  0  0  0  0  0  0
  2 25  1  6  0  0  0
  2 10  1  0  0  0  0
  3 10  1  0  0  0  0
  3  9  1  0  0  0  0
  4 15  1  0  0  0  0
  5 17  1  0  0  0  0
  7  4  1  0  0  0  0
  8 11  1  6  0  0  0
  8  3  1  0  0  0  0
  9 14  1  0  0  0  0
 11  7  2  0  0  0  0
 12  5  2  0  0  0  0
 13  6  1  6  0  0  0
 13  8  1  0  0  0  0
 13  2  1  0  0  0  0
 14  1  1  0  0  0  0
 14 17  2  0  0  0  0
 15  9  2  0  0  0  0
 15 12  1  0  0  0  0
 17 16  1  0  0  0  0
 18  7  1  0  0  0  0
 19 21  2  0  0  0  0
 19 23  1  0  0  0  0
 20 18  1  0  0  0  0
 21 22  1  0  0  0  0
 22 18  2  0  0  0  0
 23 20  2  0  0  0  0
 24 22  1  0  0  0  0
 25 26  1  0  0  0  0
 26 27  1  0  0  0  0
M  END
>  <MODEL>
6

>  <REMARK>
 VINA RESULT:      -8.8      3.527      6.476
  Name = 
  3 active torsions:
  status: ('A' for Active; 'I' for Inactive)
    1  A    between atoms: C_1  and  C_17
    2  A    between atoms: C_3  and  C_9
    3  A    between atoms: C_4  and  C_17
                            x       y       z     vdW  Elec       q    Type
                         _______ _______ _______ _____ _____    ______ ____

>  <TORSDO>
F 3

$$$$
=
 OpenBabel11032419513D

 27 30  0  0  1  0  0  0  0  0999 V2000
  186.1260  178.8760  147.7110 F   0  0  0  0  0  0  0  0  0  0  0  0
  184.3420  178.6300  144.4400 C   0  0  2  0  0  3  0  0  0  0  0  0
  186.6220  178.3250  144.9560 N   0  0  0  0  0  0  0  0  0  0  0  0
  189.2880  177.1540  144.3220 N   0  0  0  0  0  2  0  0  0  0  0  0
  189.4220  177.3700  148.0150 C   0  0  0  0  0  3  0  0  0  0  0  0
  184.9560  178.2760  142.1290 O   0  0  0  0  0  1  0  0  0  0  0  0
  188.6970  177.3490  143.0270 C   0  0  0  0  0  0  0  0  0  0  0  0
  186.3450  177.3600  143.9130 C   0  0  2  0  0  3  0  0  0  0  0  0
  187.5940  178.0400  145.9780 C   0  0  0  0  0  0  0  0  0  0  0  0
  185.5290  179.2650  145.1290 C   0  0  0  0  0  2  0  0  0  0  0  0
  187.3800  177.4530  142.8430 C   0  0  0  0  0  3  0  0  0  0  0  0
  189.7210  177.0930  146.6860 C   0  0  0  0  0  3  0  0  0  0  0  0
  184.9300  177.6760  143.3970 C   0  0  1  0  0  3  0  0  0  0  0  0
  187.3050  178.3200  147.3380 C   0  0  0  0  0  0  0  0  0  0  0  0
  188.8270  177.4150  145.6580 C   0  0  0  0  0  0  0  0  0  0  0  0
  187.9330  178.2480  149.6400 F   0  0  0  0  0  0  0  0  0  0  0  0
  188.2190  177.9860  148.3420 C   0  0  0  0  0  0  0  0  0  0  0  0
  189.5850  177.4190  141.8340 C   0  0  0  0  0  0  0  0  0  0  0  0
  191.1680  177.5890  139.5790 N   0  0  0  0  0  0  0  0  0  0  0  0
  189.0110  177.5030  140.5590 C   0  0  0  0  0  3  0  0  0  0  0  0
  191.7360  177.5030  140.7820 N   0  0  0  0  0  0  0  0  0  0  0  0
  190.9960  177.4180  141.9210 C   0  0  0  0  0  0  0  0  0  0  0  0
  189.8210  177.5900  139.4320 C   0  0  0  0  0  3  0  0  0  0  0  0
  191.7220  177.2740  143.2160 C   0  0  0  0  0  1  0  0  0  0  0  0
  183.3940  179.6910  143.8870 C   0  0  0  0  0  2  0  0  0  0  0  0
  181.9800  179.1480  143.7600 C   0  0  0  0  0  2  0  0  0  0  0  0
  181.6260  179.0030  142.3590 N   0  0  0  0  0  1  0  0  0  0  0  0
  2 25  1  6  0  0  0
  2 10  1  0  0  0  0
  3 10  1  0  0  0  0
  3  9  1  0  0  0  0
  4 15  1  0  0  0  0
  5 17  1  0  0  0  0
  7  4  1  0  0  0  0
  8 11  1  6  0  0  0
  8  3  1  0  0  0  0
  9 14  1  0  0  0  0
 11  7  2  0  0  0  0
 12  5  2  0  0  0  0
 13  6  1  6  0  0  0
 13  8  1  0  0  0  0
 13  2  1  0  0  0  0
 14  1  1  0  0  0  0
 14 17  2  0  0  0  0
 15  9  2  0  0  0  0
 15 12  1  0  0  0  0
 17 16  1  0  0  0  0
 18 22  1  0  0  0  0
 18  7  1  0  0  0  0
 19 21  1  0  0  0  0
 20 18  2  0  0  0  0
 21 22  2  0  0  0  0
 22 24  1  0  0  0  0
 23 19  2  0  0  0  0
 23 20  1  0  0  0  0
 26 25  1  0  0  0  0
 27 26  1  0  0  0  0
M  END
>  <MODEL>
7

>  <REMARK>
 VINA RESULT:      -8.7      3.355      7.114
  Name = 
  3 active torsions:
  status: ('A' for Active; 'I' for Inactive)
    1  A    between atoms: C_1  and  C_17
    2  A    between atoms: C_3  and  C_9
    3  A    between atoms: C_4  and  C_17
                            x       y       z     vdW  Elec       q    Type
                         _______ _______ _______ _____ _____    ______ ____

>  <TORSDO>
F 3

$$$$
=
 OpenBabel11032419513D

 27 30  0  0  1  0  0  0  0  0999 V2000
  186.7710  177.3180  145.0460 F   0  0  0  0  0  0  0  0  0  0  0  0
  189.8930  176.7270  143.0860 C   0  0  2  0  0  3  0  0  0  0  0  0
  187.7490  177.3920  142.3660 N   0  0  0  0  0  0  0  0  0  0  0  0
  185.9840  178.7290  140.3730 N   0  0  0  0  0  2  0  0  0  0  0  0
  184.0870  179.2350  143.5120 C   0  0  0  0  0  3  0  0  0  0  0  0
  190.5220  176.7060  140.7520 O   0  0  0  0  0  1  0  0  0  0  0  0
  187.0630  178.2230  139.5710 C   0  0  0  0  0  0  0  0  0  0  0  0
  188.6670  178.1030  141.5010 C   0  0  2  0  0  3  0  0  0  0  0  0
  186.4880  177.9790  142.7350 C   0  0  0  0  0  0  0  0  0  0  0  0
  188.4240  176.3790  143.1590 C   0  0  0  0  0  2  0  0  0  0  0  0
  188.2630  177.9310  140.0770 C   0  0  0  0  0  3  0  0  0  0  0  0
  184.5110  179.2880  142.1880 C   0  0  0  0  0  3  0  0  0  0  0  0
  190.0650  177.5290  141.7920 C   0  0  1  0  0  3  0  0  0  0  0  0
  186.0410  177.9300  144.0800 C   0  0  0  0  0  0  0  0  0  0  0  0
  185.7000  178.6740  141.7810 C   0  0  0  0  0  0  0  0  0  0  0  0
  184.4320  178.5110  145.7450 F   0  0  0  0  0  0  0  0  0  0  0  0
  184.8480  178.5540  144.4560 C   0  0  0  0  0  0  0  0  0  0  0  0
  186.8470  178.0350  138.1100 C   0  0  0  0  0  0  0  0  0  0  0  0
  186.3620  177.6850  135.4150 N   0  0  0  0  0  0  0  0  0  0  0  0
  185.6810  177.3970  137.6680 C   0  0  0  0  0  3  0  0  0  0  0  0
  187.4820  178.2890  135.8140 N   0  0  0  0  0  0  0  0  0  0  0  0
  187.7630  178.4840  137.1300 C   0  0  0  0  0  0  0  0  0  0  0  0
  185.4490  177.2290  136.3070 C   0  0  0  0  0  3  0  0  0  0  0  0
  189.0640  179.1240  137.4790 C   0  0  0  0  0  1  0  0  0  0  0  0
  190.7610  175.4760  143.1930 C   0  0  0  0  0  2  0  0  0  0  0  0
  191.8710  175.6660  144.2130 C   0  0  0  0  0  2  0  0  0  0  0  0
  191.4930  176.6870  145.1750 N   0  0  0  0  0  1  0  0  0  0  0  0
  2 10  1  0  0  0  0
  2 25  1  6  0  0  0
  3  9  1  0  0  0  0
  3 10  1  0  0  0  0
  4 15  1  0  0  0  0
  5 17  1  0  0  0  0
  7 11  2  0  0  0  0
  7  4  1  0  0  0  0
  8 11  1  6  0  0  0
  8 13  1  0  0  0  0
  8  3  1  0  0  0  0
  9 14  1  0  0  0  0
 12  5  2  0  0  0  0
 13  6  1  6  0  0  0
 13  2  1  0  0  0  0
 14 17  2  0  0  0  0
 14  1  1  0  0  0  0
 15 12  1  0  0  0  0
 15  9  2  0  0  0  0
 17 16  1  0  0  0  0
 18  7  1  0  0  0  0
 19 21  2  0  0  0  0
 19 23  1  0  0  0  0
 20 18  1  0  0  0  0
 21 22  1  0  0  0  0
 22 24  1  0  0  0  0
 22 18  2  0  0  0  0
 23 20  2  0  0  0  0
 25 26  1  0  0  0  0
 26 27  1  0  0  0  0
M  END
>  <MODEL>
8

>  <REMARK>
 VINA RESULT:      -8.7      3.125      6.526
  Name = 
  3 active torsions:
  status: ('A' for Active; 'I' for Inactive)
    1  A    between atoms: C_1  and  C_17
    2  A    between atoms: C_3  and  C_9
    3  A    between atoms: C_4  and  C_17
                            x       y       z     vdW  Elec       q    Type
                         _______ _______ _______ _____ _____    ______ ____

>  <TORSDO>
F 3

$$$$
=
 OpenBabel11032419513D

 27 30  0  0  1  0  0  0  0  0999 V2000
  192.1550  177.5340  142.9290 F   0  0  0  0  0  0  0  0  0  0  0  0
  190.5580  176.9870  146.2590 C   0  0  2  0  0  3  0  0  0  0  0  0
  189.5960  177.5790  144.1900 N   0  0  0  0  0  0  0  0  0  0  0  0
  187.2470  177.6880  142.3610 N   0  0  0  0  0  2  0  0  0  0  0  0
  190.0560  177.4810  139.9600 C   0  0  0  0  0  3  0  0  0  0  0  0
  188.3410  177.2040  147.1990 O   0  0  0  0  0  1  0  0  0  0  0  0
  186.6530  177.7830  143.6660 C   0  0  0  0  0  0  0  0  0  0  0  0
  188.6150  176.7220  144.8230 C   0  0  2  0  0  3  0  0  0  0  0  0
  189.7420  177.5920  142.7590 C   0  0  0  0  0  0  0  0  0  0  0  0
  190.6560  177.9610  145.1070 C   0  0  0  0  0  2  0  0  0  0  0  0
  187.2700  177.3610  144.7720 C   0  0  0  0  0  3  0  0  0  0  0  0
  188.7850  177.5160  140.5230 C   0  0  0  0  0  3  0  0  0  0  0  0
  189.1080  176.4940  146.2630 C   0  0  1  0  0  3  0  0  0  0  0  0
  191.0320  177.5580  142.1700 C   0  0  0  0  0  0  0  0  0  0  0  0
  188.6050  177.5700  141.9090 C   0  0  0  0  0  0  0  0  0  0  0  0
  192.4140  177.4640  140.2260 F   0  0  0  0  0  0  0  0  0  0  0  0
  191.1780  177.5050  140.7810 C   0  0  0  0  0  0  0  0  0  0  0  0
  185.2850  178.3560  143.7950 C   0  0  0  0  0  0  0  0  0  0  0  0
  182.7220  179.3670  143.9700 N   0  0  0  0  0  0  0  0  0  0  0  0
  184.4380  178.3600  142.6790 C   0  0  0  0  0  3  0  0  0  0  0  0
  183.5140  179.3800  145.0420 N   0  0  0  0  0  0  0  0  0  0  0  0
  184.7830  178.8920  145.0040 C   0  0  0  0  0  0  0  0  0  0  0  0
  183.1480  178.8710  142.7830 C   0  0  0  0  0  3  0  0  0  0  0  0
  185.6100  178.9960  146.2410 C   0  0  0  0  0  1  0  0  0  0  0  0
  191.0280  177.6280  147.5630 C   0  0  0  0  0  2  0  0  0  0  0  0
  192.0570  176.7530  148.2610 C   0  0  0  0  0  2  0  0  0  0  0  0
  192.4450  175.6530  147.3960 N   0  0  0  0  0  1  0  0  0  0  0  0
  2 13  1  0  0  0  0
  2 25  1  1  0  0  0
  3  8  1  0  0  0  0
  3 10  1  0  0  0  0
  4  7  1  0  0  0  0
  5 12  2  0  0  0  0
  5 17  1  0  0  0  0
  7 18  1  0  0  0  0
  7 11  2  0  0  0  0
  8 11  1  1  0  0  0
  8 13  1  0  0  0  0
  9  3  1  0  0  0  0
 10  2  1  0  0  0  0
 12 15  1  0  0  0  0
 13  6  1  1  0  0  0
 14  9  1  0  0  0  0
 14  1  1  0  0  0  0
 15  4  1  0  0  0  0
 15  9  2  0  0  0  0
 16 17  1  0  0  0  0
 17 14  2  0  0  0  0
 18 22  1  0  0  0  0
 19 21  1  0  0  0  0
 20 23  1  0  0  0  0
 20 18  2  0  0  0  0
 22 21  2  0  0  0  0
 22 24  1  0  0  0  0
 23 19  2  0  0  0  0
 25 26  1  0  0  0  0
 27 26  1  0  0  0  0
M  END
>  <MODEL>
9

>  <REMARK>
 VINA RESULT:      -8.6      3.078      5.554
  Name = 
  3 active torsions:
  status: ('A' for Active; 'I' for Inactive)
    1  A    between atoms: C_1  and  C_17
    2  A    between atoms: C_3  and  C_9
    3  A    between atoms: C_4  and  C_17
                            x       y       z     vdW  Elec       q    Type
                         _______ _______ _______ _____ _____    ______ ____

>  <TORSDO>
F 3

$$$$
