=
 OpenBabel11032419303D

 31 35  0  0  1  0  0  0  0  0999 V2000
  188.2310  177.9790  146.7050 C   0  0  2  0  0  3  0  0  0  0  0  0
  191.6050  176.7840  145.5920 C   0  0  0  0  0  1  0  0  0  0  0  0
  187.3060  177.9230  142.7350 C   0  0  0  0  0  0  0  0  0  0  0  0
  186.4790  178.2430  145.0540 C   0  0  0  0  0  0  0  0  0  0  0  0
  190.2860  177.0960  146.2060 C   0  0  0  0  0  0  0  0  0  0  0  0
  184.8520  178.4470  143.2070 C   0  0  0  0  0  0  0  0  0  0  0  0
  189.3400  178.1310  145.6920 C   0  0  1  0  0  3  0  0  0  0  0  0
  188.6260  177.1180  147.6330 C   0  0  2  0  0  3  0  0  0  0  0  0
  185.9470  178.1900  142.2140 C   0  0  0  0  0  0  0  0  0  0  0  0
  189.4950  177.7570  143.2250 N   0  0  0  0  0  0  0  0  0  0  0  0
  185.7110  178.2220  140.9790 O   0  0  0  0  0  0  0  0  0  0  0  0
  188.5950  177.7780  142.2010 C   0  0  0  0  0  0  0  0  0  0  0  0
  186.8080  178.2360  146.3550 C   0  0  0  0  0  3  0  0  0  0  0  0
  189.9020  176.5710  147.3240 N   0  0  0  0  0  0  0  0  0  0  0  0
  187.5160  177.9550  144.0700 C   0  0  0  0  0  0  0  0  0  0  0  0
  185.1130  178.4740  144.5400 C   0  0  0  0  0  3  0  0  0  0  0  0
  187.7420  176.5350  148.6820 C   0  0  0  0  0  1  0  0  0  0  0  0
  188.8120  177.8330  144.3580 N   0  0  0  0  0  0  0  0  0  0  0  0
  189.7650  177.4840  138.1250 N   0  0  0  0  0  0  0  0  0  0  0  0
  188.5000  178.5860  139.8230 C   0  0  0  0  0  3  0  0  0  0  0  0
  188.8950  178.4630  138.4900 C   0  0  0  0  0  3  0  0  0  0  0  0
  189.8930  176.6980  140.3760 C   0  0  0  0  0  3  0  0  0  0  0  0
  190.2660  176.6050  139.0340 C   0  0  0  0  0  3  0  0  0  0  0  0
  189.0060  177.7040  140.7830 C   0  0  0  0  0  0  0  0  0  0  0  0
  183.4850  178.6830  142.7070 C   0  0  0  0  0  3  0  0  0  0  0  0
  182.4310  178.8200  143.5060 C   0  0  0  0  0  3  0  0  0  0  0  0
  180.8100  179.1010  142.8130 P   0  0  1  0  0  0  0  0  0  0  0  0
  180.4710  180.5730  142.9210 O   0  0  0  0  0  1  0  0  0  0  0  0
  180.8140  178.6380  141.1850 O   0  0  0  0  0  0  0  0  0  0  0  0
  178.9620  179.1020  144.4490 C   0  0  0  0  0  1  0  0  0  0  0  0
  179.6780  178.1820  143.6790 O   0  0  0  0  0  0  0  0  0  0  0  0
  1 13  1  6  0  0  0
  1  8  1  0  0  0  0
  2  5  1  0  0  0  0
  3 15  2  0  0  0  0
  4 13  2  0  0  0  0
  5 14  2  0  0  0  0
  6 16  2  0  0  0  0
  7  5  1  1  0  0  0
  7  1  1  0  0  0  0
  8 17  1  6  0  0  0
  9  3  1  0  0  0  0
  9  6  1  0  0  0  0
 10 18  1  0  0  0  0
 11  9  2  0  0  0  0
 12  3  1  0  0  0  0
 12 10  2  0  0  0  0
 14  8  1  0  0  0  0
 15 18  1  0  0  0  0
 15  4  1  0  0  0  0
 16  4  1  0  0  0  0
 18  7  1  0  0  0  0
 19 21  2  0  0  0  0
 19 23  1  0  0  0  0
 20 24  2  0  0  0  0
 21 20  1  0  0  0  0
 22 24  1  0  0  0  0
 23 22  2  0  0  0  0
 24 12  1  0  0  0  0
 25  6  1  0  0  0  0
 25 26  2  0  0  0  0
 27 29  2  6  0  0  0
 27 28  1  0  0  0  0
 27 26  1  0  0  0  0
 27 31  1  0  0  0  0
 31 30  1  0  0  0  0
M  END
>  <MODEL>
1

>  <REMARK>
 VINA RESULT:      -9.5      0.000      0.000
  Name = 
  4 active torsions:
  status: ('A' for Active; 'I' for Inactive)
    1  A    between atoms: P_3  and  C_17
    2  A    between atoms: P_3  and  O_31
    3  A    between atoms: C_8  and  C_14
    4  A    between atoms: C_20  and  C_29
                            x       y       z     vdW  Elec       q    Type
                         _______ _______ _______ _____ _____    ______ ____

>  <TORSDO>
F 4

$$$$
=
 OpenBabel11032419303D

 31 35  0  0  1  0  0  0  0  0999 V2000
  185.2470  178.9540  141.0990 C   0  0  2  0  0  3  0  0  0  0  0  0
  183.9550  178.6380  144.6030 C   0  0  0  0  0  1  0  0  0  0  0  0
  188.7370  177.5220  142.6460 C   0  0  0  0  0  0  0  0  0  0  0  0
  187.4900  178.1840  140.6040 C   0  0  0  0  0  0  0  0  0  0  0  0
  184.2600  178.6690  143.1470 C   0  0  0  0  0  0  0  0  0  0  0  0
  189.7970  177.3460  140.3300 C   0  0  0  0  0  0  0  0  0  0  0  0
  185.5410  179.1680  142.5640 C   0  0  1  0  0  3  0  0  0  0  0  0
  183.9900  178.5520  140.9780 C   0  0  2  0  0  3  0  0  0  0  0  0
  189.9160  177.1890  141.8190 C   0  0  0  0  0  0  0  0  0  0  0  0
  187.2120  178.2020  144.1540 N   0  0  0  0  0  0  0  0  0  0  0  0
  190.9970  176.8060  142.3360 O   0  0  0  0  0  0  0  0  0  0  0  0
  188.4520  177.6550  144.0140 C   0  0  0  0  0  0  0  0  0  0  0  0
  186.3240  178.6390  140.1200 C   0  0  0  0  0  3  0  0  0  0  0  0
  183.3760  178.3770  142.2490 N   0  0  0  0  0  0  0  0  0  0  0  0
  187.6180  177.9840  142.0420 C   0  0  0  0  0  0  0  0  0  0  0  0
  188.6530  177.8180  139.7700 C   0  0  0  0  0  3  0  0  0  0  0  0
  183.3820  178.0280  139.7210 C   0  0  0  0  0  1  0  0  0  0  0  0
  186.7070  178.3640  142.9390 N   0  0  0  0  0  0  0  0  0  0  0  0
  190.8660  176.6650  147.3700 N   0  0  0  0  0  0  0  0  0  0  0  0
  190.6890  177.1350  145.0360 C   0  0  0  0  0  3  0  0  0  0  0  0
  191.4580  176.8040  146.1530 C   0  0  0  0  0  3  0  0  0  0  0  0
  188.7280  177.1710  146.4370 C   0  0  0  0  0  3  0  0  0  0  0  0
  189.5270  176.8390  147.5320 C   0  0  0  0  0  3  0  0  0  0  0  0
  189.3110  177.3310  145.1730 C   0  0  0  0  0  0  0  0  0  0  0  0
  190.9520  176.9880  139.4860 C   0  0  0  0  0  3  0  0  0  0  0  0
  190.8500  176.2400  138.3920 C   0  0  0  0  0  3  0  0  0  0  0  0
  192.3030  175.8550  137.4300 P   0  0  1  0  0  0  0  0  0  0  0  0
  191.9910  176.0400  135.9600 O   0  0  0  0  0  0  0  0  0  0  0  0
  193.5580  176.8980  137.8780 O   0  0  0  0  0  1  0  0  0  0  0  0
  194.1430  174.2380  137.7310 C   0  0  0  0  0  1  0  0  0  0  0  0
  192.7460  174.2460  137.7290 O   0  0  0  0  0  0  0  0  0  0  0  0
  1 13  1  1  0  0  0
  1  7  1  0  0  0  0
  3 12  1  0  0  0  0
  4 15  1  0  0  0  0
  5  2  1  0  0  0  0
  6  9  1  0  0  0  0
  7 18  1  0  0  0  0
  7  5  1  1  0  0  0
  8 17  1  1  0  0  0
  8  1  1  0  0  0  0
  8 14  1  0  0  0  0
  9 11  2  0  0  0  0
  9  3  1  0  0  0  0
 12 10  2  0  0  0  0
 12 24  1  0  0  0  0
 13  4  2  0  0  0  0
 14  5  2  0  0  0  0
 15  3  2  0  0  0  0
 15 18  1  0  0  0  0
 16  6  2  0  0  0  0
 16  4  1  0  0  0  0
 18 10  1  0  0  0  0
 19 23  1  0  0  0  0
 20 24  2  0  0  0  0
 20 21  1  0  0  0  0
 21 19  2  0  0  0  0
 22 23  2  0  0  0  0
 24 22  1  0  0  0  0
 25  6  1  0  0  0  0
 26 25  2  0  0  0  0
 27 28  2  6  0  0  0
 27 31  1  0  0  0  0
 27 29  1  0  0  0  0
 27 26  1  0  0  0  0
 31 30  1  0  0  0  0
M  END
>  <MODEL>
2

>  <REMARK>
 VINA RESULT:      -8.9      4.652      8.392
  Name = 
  4 active torsions:
  status: ('A' for Active; 'I' for Inactive)
    1  A    between atoms: P_3  and  C_17
    2  A    between atoms: P_3  and  O_31
    3  A    between atoms: C_8  and  C_14
    4  A    between atoms: C_20  and  C_29
                            x       y       z     vdW  Elec       q    Type
                         _______ _______ _______ _____ _____    ______ ____

>  <TORSDO>
F 4

$$$$
=
 OpenBabel11032419303D

 31 35  0  0  1  0  0  0  0  0999 V2000
  185.3420  178.9270  140.9860 C   0  0  2  0  0  3  0  0  0  0  0  0
  183.9970  178.6150  144.4700 C   0  0  0  0  0  1  0  0  0  0  0  0
  188.8140  177.5170  142.5930 C   0  0  0  0  0  0  0  0  0  0  0  0
  187.5970  178.1670  140.5290 C   0  0  0  0  0  0  0  0  0  0  0  0
  184.3240  178.6430  143.0180 C   0  0  0  0  0  0  0  0  0  0  0  0
  189.9120  177.3400  140.2940 C   0  0  0  0  0  0  0  0  0  0  0  0
  185.6120  179.1470  142.4540 C   0  0  1  0  0  3  0  0  0  0  0  0
  184.0890  178.5180  140.8460 C   0  0  2  0  0  3  0  0  0  0  0  0
  190.0090  177.1880  141.7850 C   0  0  0  0  0  0  0  0  0  0  0  0
  187.2620  178.1940  144.0730 N   0  0  0  0  0  0  0  0  0  0  0  0
  191.0820  176.8110  142.3210 O   0  0  0  0  0  0  0  0  0  0  0  0
  188.5080  177.6530  143.9550 C   0  0  0  0  0  0  0  0  0  0  0  0
  186.4360  178.6140  140.0250 C   0  0  0  0  0  3  0  0  0  0  0  0
  183.4570  178.3450  142.1080 N   0  0  0  0  0  0  0  0  0  0  0  0
  187.7040  177.9710  141.9700 C   0  0  0  0  0  0  0  0  0  0  0  0
  188.7750  177.8040  139.7150 C   0  0  0  0  0  3  0  0  0  0  0  0
  183.5040  177.9880  139.5810 C   0  0  0  0  0  1  0  0  0  0  0  0
  186.7760  178.3500  142.8500 N   0  0  0  0  0  0  0  0  0  0  0  0
  190.8730  176.6850  147.3530 N   0  0  0  0  0  0  0  0  0  0  0  0
  190.7300  177.1460  145.0140 C   0  0  0  0  0  3  0  0  0  0  0  0
  191.4820  176.8210  146.1440 C   0  0  0  0  0  3  0  0  0  0  0  0
  188.7470  177.1780  146.3840 C   0  0  0  0  0  3  0  0  0  0  0  0
  189.5310  176.8540  147.4930 C   0  0  0  0  0  3  0  0  0  0  0  0
  189.3490  177.3360  145.1280 C   0  0  0  0  0  0  0  0  0  0  0  0
  191.0820  176.9850  139.4700 C   0  0  0  0  0  3  0  0  0  0  0  0
  191.0000  176.2380  138.3740 C   0  0  0  0  0  3  0  0  0  0  0  0
  192.4710  175.8560  137.4360 P   0  0  1  0  0  0  0  0  0  0  0  0
  193.5780  176.8070  137.8360 O   0  0  0  0  0  1  0  0  0  0  0  0
  192.9430  174.2650  137.7680 O   0  0  0  0  0  0  0  0  0  0  0  0
  190.7340  176.0660  135.6960 C   0  0  0  0  0  1  0  0  0  0  0  0
  192.1270  176.0300  135.7850 O   0  0  0  0  0  0  0  0  0  0  0  0
  1 13  1  1  0  0  0
  1  7  1  0  0  0  0
  3 12  1  0  0  0  0
  4 15  1  0  0  0  0
  5  2  1  0  0  0  0
  6  9  1  0  0  0  0
  7 18  1  0  0  0  0
  7  5  1  1  0  0  0
  8 17  1  1  0  0  0
  8  1  1  0  0  0  0
  8 14  1  0  0  0  0
  9 11  2  0  0  0  0
  9  3  1  0  0  0  0
 12 10  2  0  0  0  0
 12 24  1  0  0  0  0
 13  4  2  0  0  0  0
 14  5  2  0  0  0  0
 15  3  2  0  0  0  0
 15 18  1  0  0  0  0
 16  6  2  0  0  0  0
 16  4  1  0  0  0  0
 18 10  1  0  0  0  0
 19 23  1  0  0  0  0
 20 24  2  0  0  0  0
 20 21  1  0  0  0  0
 21 19  2  0  0  0  0
 22 23  2  0  0  0  0
 24 22  1  0  0  0  0
 25  6  1  0  0  0  0
 26 25  2  0  0  0  0
 27 29  2  1  0  0  0
 27 28  1  0  0  0  0
 27 26  1  0  0  0  0
 30 31  1  0  0  0  0
 31 27  1  0  0  0  0
M  END
>  <MODEL>
3

>  <REMARK>
 VINA RESULT:      -8.8      4.685      8.300
  Name = 
  4 active torsions:
  status: ('A' for Active; 'I' for Inactive)
    1  A    between atoms: P_3  and  C_17
    2  A    between atoms: P_3  and  O_31
    3  A    between atoms: C_8  and  C_14
    4  A    between atoms: C_20  and  C_29
                            x       y       z     vdW  Elec       q    Type
                         _______ _______ _______ _____ _____    ______ ____

>  <TORSDO>
F 4

$$$$
=
 OpenBabel11032419303D

 31 35  0  0  1  0  0  0  0  0999 V2000
  188.2800  177.1940  146.2160 C   0  0  2  0  0  3  0  0  0  0  0  0
  184.8750  178.5650  146.9690 C   0  0  0  0  0  1  0  0  0  0  0  0
  187.3350  177.9770  142.3280 C   0  0  0  0  0  0  0  0  0  0  0  0
  189.0820  177.2400  143.9310 C   0  0  0  0  0  0  0  0  0  0  0  0
  186.2990  178.1490  146.8560 C   0  0  0  0  0  0  0  0  0  0  0  0
  189.6890  177.3810  141.5410 C   0  0  0  0  0  0  0  0  0  0  0  0
  186.8280  177.2270  145.8080 C   0  0  1  0  0  3  0  0  0  0  0  0
  188.4140  177.8700  147.3480 C   0  0  2  0  0  3  0  0  0  0  0  0
  188.2900  177.8130  141.2110 C   0  0  0  0  0  0  0  0  0  0  0  0
  185.6180  178.0460  143.7790 N   0  0  0  0  0  0  0  0  0  0  0  0
  187.9460  178.0080  140.0170 O   0  0  0  0  0  0  0  0  0  0  0  0
  185.9600  178.2150  142.4700 C   0  0  0  0  0  0  0  0  0  0  0  0
  189.3710  177.0080  145.2200 C   0  0  0  0  0  3  0  0  0  0  0  0
  187.1830  178.4610  147.7470 N   0  0  0  0  0  0  0  0  0  0  0  0
  187.7420  177.7010  143.5870 C   0  0  0  0  0  0  0  0  0  0  0  0
  190.0500  177.1100  142.8220 C   0  0  0  0  0  3  0  0  0  0  0  0
  189.7180  178.2530  147.9610 C   0  0  0  0  0  1  0  0  0  0  0  0
  186.7260  177.7660  144.4490 N   0  0  0  0  0  0  0  0  0  0  0  0
  183.0570  179.2100  139.5270 N   0  0  0  0  0  0  0  0  0  0  0  0
  185.3500  179.0190  140.1690 C   0  0  0  0  0  3  0  0  0  0  0  0
  184.3760  179.3460  139.2230 C   0  0  0  0  0  3  0  0  0  0  0  0
  183.6000  178.4260  141.7160 C   0  0  0  0  0  3  0  0  0  0  0  0
  182.6540  178.7610  140.7460 C   0  0  0  0  0  3  0  0  0  0  0  0
  184.9660  178.5460  141.4280 C   0  0  0  0  0  0  0  0  0  0  0  0
  190.6650  177.2430  140.4430 C   0  0  0  0  0  3  0  0  0  0  0  0
  190.5670  176.3170  139.4950 C   0  0  0  0  0  3  0  0  0  0  0  0
  191.7970  176.2220  138.2030 P   0  0  1  0  0  0  0  0  0  0  0  0
  191.2220  176.7970  136.9260 O   0  0  0  0  0  0  0  0  0  0  0  0
  193.1570  177.1170  138.6660 O   0  0  0  0  0  1  0  0  0  0  0  0
  193.5650  174.6120  137.5940 C   0  0  0  0  0  1  0  0  0  0  0  0
  192.2190  174.5970  137.9680 O   0  0  0  0  0  0  0  0  0  0  0  0
  1 13  1  6  0  0  0
  1  8  1  0  0  0  0
  3 12  1  0  0  0  0
  3 15  2  0  0  0  0
  4 13  2  0  0  0  0
  5  2  1  0  0  0  0
  5 14  2  0  0  0  0
  6 16  2  0  0  0  0
  7  1  1  0  0  0  0
  7  5  1  1  0  0  0
  8 14  1  0  0  0  0
  8 17  1  6  0  0  0
  9  6  1  0  0  0  0
  9  3  1  0  0  0  0
 10 18  1  0  0  0  0
 11  9  2  0  0  0  0
 12 10  2  0  0  0  0
 15  4  1  0  0  0  0
 15 18  1  0  0  0  0
 16  4  1  0  0  0  0
 18  7  1  0  0  0  0
 19 23  1  0  0  0  0
 20 24  2  0  0  0  0
 21 19  2  0  0  0  0
 21 20  1  0  0  0  0
 23 22  2  0  0  0  0
 24 22  1  0  0  0  0
 24 12  1  0  0  0  0
 25  6  1  0  0  0  0
 26 25  2  0  0  0  0
 27 28  2  6  0  0  0
 27 29  1  0  0  0  0
 27 26  1  0  0  0  0
 30 31  1  0  0  0  0
 31 27  1  0  0  0  0
M  END
>  <MODEL>
4

>  <REMARK>
 VINA RESULT:      -8.8      4.040      7.018
  Name = 
  4 active torsions:
  status: ('A' for Active; 'I' for Inactive)
    1  A    between atoms: P_3  and  C_17
    2  A    between atoms: P_3  and  O_31
    3  A    between atoms: C_8  and  C_14
    4  A    between atoms: C_20  and  C_29
                            x       y       z     vdW  Elec       q    Type
                         _______ _______ _______ _____ _____    ______ ____

>  <TORSDO>
F 4

$$$$
=
 OpenBabel11032419303D

 31 35  0  0  1  0  0  0  0  0999 V2000
  188.3160  177.2080  146.2240 C   0  0  2  0  0  3  0  0  0  0  0  0
  184.9060  178.5480  147.0070 C   0  0  0  0  0  1  0  0  0  0  0  0
  187.3450  178.0190  142.3480 C   0  0  0  0  0  0  0  0  0  0  0  0
  189.1060  177.2790  143.9350 C   0  0  0  0  0  0  0  0  0  0  0  0
  186.3320  178.1430  146.8830 C   0  0  0  0  0  0  0  0  0  0  0  0
  189.6990  177.4460  141.5430 C   0  0  0  0  0  0  0  0  0  0  0  0
  186.8610  177.2340  145.8230 C   0  0  1  0  0  3  0  0  0  0  0  0
  188.4510  177.8740  147.3610 C   0  0  2  0  0  3  0  0  0  0  0  0
  188.2950  177.8720  141.2240 C   0  0  0  0  0  0  0  0  0  0  0  0
  185.6350  178.0640  143.8080 N   0  0  0  0  0  0  0  0  0  0  0  0
  187.9430  178.0750  140.0340 O   0  0  0  0  0  0  0  0  0  0  0  0
  185.9690  178.2460  142.5000 C   0  0  0  0  0  0  0  0  0  0  0  0
  189.4030  177.0380  145.2200 C   0  0  0  0  0  3  0  0  0  0  0  0
  187.2190  178.4530  147.7720 N   0  0  0  0  0  0  0  0  0  0  0  0
  187.7610  177.7340  143.6030 C   0  0  0  0  0  0  0  0  0  0  0  0
  190.0680  177.1660  142.8200 C   0  0  0  0  0  3  0  0  0  0  0  0
  189.7560  178.2600  147.9710 C   0  0  0  0  0  1  0  0  0  0  0  0
  186.7490  177.7840  144.4700 N   0  0  0  0  0  0  0  0  0  0  0  0
  183.1330  179.1660  139.4690 N   0  0  0  0  0  0  0  0  0  0  0  0
  183.5970  178.3990  141.6820 C   0  0  0  0  0  3  0  0  0  0  0  0
  182.6870  178.7020  140.6670 C   0  0  0  0  0  3  0  0  0  0  0  0
  185.3970  179.0500  140.2170 C   0  0  0  0  0  3  0  0  0  0  0  0
  184.4590  179.3430  139.2260 C   0  0  0  0  0  3  0  0  0  0  0  0
  184.9670  178.5800  141.4650 C   0  0  0  0  0  0  0  0  0  0  0  0
  190.6690  177.3250  140.4390 C   0  0  0  0  0  3  0  0  0  0  0  0
  190.6000  176.3780  139.5090 C   0  0  0  0  0  3  0  0  0  0  0  0
  191.8210  176.3060  138.2080 P   0  0  1  0  0  0  0  0  0  0  0  0
  193.0290  177.1210  138.6140 O   0  0  0  0  0  1  0  0  0  0  0  0
  192.2790  174.6940  137.9660 O   0  0  0  0  0  0  0  0  0  0  0  0
  189.7630  176.9180  136.9910 C   0  0  0  0  0  1  0  0  0  0  0  0
  191.1440  176.9390  136.7880 O   0  0  0  0  0  0  0  0  0  0  0  0
  1 13  1  6  0  0  0
  1  8  1  0  0  0  0
  3 12  1  0  0  0  0
  3 15  2  0  0  0  0
  4 13  2  0  0  0  0
  5  2  1  0  0  0  0
  5 14  2  0  0  0  0
  6 16  2  0  0  0  0
  7  1  1  0  0  0  0
  7  5  1  1  0  0  0
  8 14  1  0  0  0  0
  8 17  1  6  0  0  0
  9  6  1  0  0  0  0
  9  3  1  0  0  0  0
 10 18  1  0  0  0  0
 11  9  2  0  0  0  0
 12 10  2  0  0  0  0
 15  4  1  0  0  0  0
 15 18  1  0  0  0  0
 16  4  1  0  0  0  0
 18  7  1  0  0  0  0
 19 21  1  0  0  0  0
 21 20  2  0  0  0  0
 22 24  2  0  0  0  0
 23 19  2  0  0  0  0
 23 22  1  0  0  0  0
 24 20  1  0  0  0  0
 24 12  1  0  0  0  0
 25  6  1  0  0  0  0
 26 25  2  0  0  0  0
 27 29  2  6  0  0  0
 27 28  1  0  0  0  0
 27 26  1  0  0  0  0
 31 30  1  0  0  0  0
 31 27  1  0  0  0  0
M  END
>  <MODEL>
5

>  <REMARK>
 VINA RESULT:      -8.6      4.024      6.753
  Name = 
  4 active torsions:
  status: ('A' for Active; 'I' for Inactive)
    1  A    between atoms: P_3  and  C_17
    2  A    between atoms: P_3  and  O_31
    3  A    between atoms: C_8  and  C_14
    4  A    between atoms: C_20  and  C_29
                            x       y       z     vdW  Elec       q    Type
                         _______ _______ _______ _____ _____    ______ ____

>  <TORSDO>
F 4

$$$$
=
 OpenBabel11032419303D

 31 35  0  0  1  0  0  0  0  0999 V2000
  189.9930  177.8620  138.7980 C   0  0  2  0  0  3  0  0  0  0  0  0
  186.9800  178.4700  136.6540 C   0  0  0  0  0  1  0  0  0  0  0  0
  187.3350  177.8300  141.8890 C   0  0  0  0  0  0  0  0  0  0  0  0
  189.6850  177.4790  141.1700 C   0  0  0  0  0  0  0  0  0  0  0  0
  188.2420  178.0750  137.3360 C   0  0  0  0  0  0  0  0  0  0  0  0
  189.1380  177.1210  143.5510 C   0  0  0  0  0  0  0  0  0  0  0  0
  188.6930  178.6150  138.6530 C   0  0  1  0  0  3  0  0  0  0  0  0
  190.2090  177.1790  137.6820 C   0  0  2  0  0  3  0  0  0  0  0  0
  187.7120  177.5040  143.2810 C   0  0  0  0  0  0  0  0  0  0  0  0
  186.5480  178.6280  139.9380 N   0  0  0  0  0  0  0  0  0  0  0  0
  186.8760  177.5620  144.2200 O   0  0  0  0  0  0  0  0  0  0  0  0
  186.2110  178.3500  141.2290 C   0  0  0  0  0  0  0  0  0  0  0  0
  190.5340  177.4780  140.1310 C   0  0  0  0  0  3  0  0  0  0  0  0
  189.1230  177.3130  136.7740 N   0  0  0  0  0  0  0  0  0  0  0  0
  188.2850  177.8070  140.9270 C   0  0  0  0  0  0  0  0  0  0  0  0
  190.0580  177.1160  142.5520 C   0  0  0  0  0  3  0  0  0  0  0  0
  191.2690  176.1440  137.5110 C   0  0  0  0  0  1  0  0  0  0  0  0
  187.8090  178.2580  139.7660 N   0  0  0  0  0  0  0  0  0  0  0  0
  182.3170  179.0800  142.7720 N   0  0  0  0  0  0  0  0  0  0  0  0
  184.6860  179.1490  143.0610 C   0  0  0  0  0  3  0  0  0  0  0  0
  183.3960  179.3730  143.5460 C   0  0  0  0  0  3  0  0  0  0  0  0
  183.7340  178.3270  141.0050 C   0  0  0  0  0  3  0  0  0  0  0  0
  182.4600  178.5640  141.5220 C   0  0  0  0  0  3  0  0  0  0  0  0
  184.8660  178.6290  141.7750 C   0  0  0  0  0  0  0  0  0  0  0  0
  189.5250  176.7610  144.9280 C   0  0  0  0  0  3  0  0  0  0  0  0
  189.9150  177.6540  145.8310 C   0  0  0  0  0  3  0  0  0  0  0  0
  190.3680  177.1280  147.4770 P   0  0  1  0  0  0  0  0  0  0  0  0
  189.8320  175.7340  147.7190 O   0  0  0  0  0  1  0  0  0  0  0  0
  192.0550  177.1170  147.6110 O   0  0  0  0  0  0  0  0  0  0  0  0
  188.3160  178.0700  148.4720 C   0  0  0  0  0  1  0  0  0  0  0  0
  189.7000  178.2080  148.6000 O   0  0  0  0  0  0  0  0  0  0  0  0
  1 13  1  1  0  0  0
  2  5  1  0  0  0  0
  3  9  1  0  0  0  0
  4 16  1  0  0  0  0
  6 25  1  0  0  0  0
  7  5  1  6  0  0  0
  7  1  1  0  0  0  0
  7 18  1  0  0  0  0
  8 17  1  1  0  0  0
  8  1  1  0  0  0  0
  9  6  1  0  0  0  0
  9 11  2  0  0  0  0
 10 12  2  0  0  0  0
 12 24  1  0  0  0  0
 12  3  1  0  0  0  0
 13  4  2  0  0  0  0
 14  5  2  0  0  0  0
 14  8  1  0  0  0  0
 15  4  1  0  0  0  0
 15  3  2  0  0  0  0
 16  6  2  0  0  0  0
 18 10  1  0  0  0  0
 18 15  1  0  0  0  0
 19 21  1  0  0  0  0
 20 21  2  0  0  0  0
 22 23  1  0  0  0  0
 22 24  2  0  0  0  0
 23 19  2  0  0  0  0
 24 20  1  0  0  0  0
 25 26  2  0  0  0  0
 26 27  1  0  0  0  0
 27 29  2  1  0  0  0
 27 28  1  0  0  0  0
 27 31  1  0  0  0  0
 30 31  1  0  0  0  0
M  END
>  <MODEL>
6

>  <REMARK>
 VINA RESULT:      -8.4      3.884      7.856
  Name = 
  4 active torsions:
  status: ('A' for Active; 'I' for Inactive)
    1  A    between atoms: P_3  and  C_17
    2  A    between atoms: P_3  and  O_31
    3  A    between atoms: C_8  and  C_14
    4  A    between atoms: C_20  and  C_29
                            x       y       z     vdW  Elec       q    Type
                         _______ _______ _______ _____ _____    ______ ____

>  <TORSDO>
F 4

$$$$
=
 OpenBabel11032419303D

 31 35  0  0  1  0  0  0  0  0999 V2000
  180.8760  178.9530  140.8260 C   0  0  2  0  0  3  0  0  0  0  0  0
  179.8110  178.2190  144.3440 C   0  0  0  0  0  1  0  0  0  0  0  0
  184.6620  178.4670  142.2590 C   0  0  0  0  0  0  0  0  0  0  0  0
  183.2280  178.8220  140.2630 C   0  0  0  0  0  0  0  0  0  0  0  0
  180.0560  178.3660  142.8840 C   0  0  0  0  0  0  0  0  0  0  0  0
  185.6670  178.6370  139.9180 C   0  0  0  0  0  0  0  0  0  0  0  0
  181.1420  179.2020  142.2910 C   0  0  1  0  0  3  0  0  0  0  0  0
  179.7680  178.2340  140.7170 C   0  0  2  0  0  3  0  0  0  0  0  0
  185.8640  178.4810  141.3980 C   0  0  0  0  0  0  0  0  0  0  0  0
  183.0530  178.6780  143.8170 N   0  0  0  0  0  0  0  0  0  0  0  0
  187.0210  178.3870  141.8830 O   0  0  0  0  0  0  0  0  0  0  0  0
  184.3900  178.4850  143.6350 C   0  0  0  0  0  0  0  0  0  0  0  0
  181.9710  178.9610  139.8170 C   0  0  0  0  0  3  0  0  0  0  0  0
  179.2580  177.8710  141.9950 N   0  0  0  0  0  0  0  0  0  0  0  0
  183.4450  178.6280  141.6920 C   0  0  0  0  0  0  0  0  0  0  0  0
  184.4240  178.8000  139.3960 C   0  0  0  0  0  3  0  0  0  0  0  0
  179.2880  177.5980  139.4570 C   0  0  0  0  0  1  0  0  0  0  0  0
  182.4900  178.7290  142.6180 N   0  0  0  0  0  0  0  0  0  0  0  0
  187.0440  178.1580  146.9410 N   0  0  0  0  0  0  0  0  0  0  0  0
  186.4310  177.5050  144.7270 C   0  0  0  0  0  3  0  0  0  0  0  0
  187.2830  177.4110  145.8290 C   0  0  0  0  0  3  0  0  0  0  0  0
  185.1080  179.1210  145.9300 C   0  0  0  0  0  3  0  0  0  0  0  0
  185.9810  179.0020  147.0120 C   0  0  0  0  0  3  0  0  0  0  0  0
  185.3350  178.3730  144.7670 C   0  0  0  0  0  0  0  0  0  0  0  0
  186.8520  178.6210  139.0410 C   0  0  0  0  0  3  0  0  0  0  0  0
  186.9330  177.8780  137.9420 C   0  0  0  0  0  3  0  0  0  0  0  0
  188.4100  177.9190  136.9380 P   0  0  1  0  0  0  0  0  0  0  0  0
  188.0210  177.8270  135.4780 O   0  0  0  0  0  0  0  0  0  0  0  0
  189.2290  179.3740  137.2160 O   0  0  0  0  0  1  0  0  0  0  0  0
  190.1840  177.0560  138.4190 C   0  0  0  0  0  1  0  0  0  0  0  0
  189.3940  176.6050  137.3590 O   0  0  0  0  0  0  0  0  0  0  0  0
  1 13  1  1  0  0  0
  1  7  1  0  0  0  0
  3 12  1  0  0  0  0
  4 15  1  0  0  0  0
  5  2  1  0  0  0  0
  6  9  1  0  0  0  0
  7 18  1  0  0  0  0
  7  5  1  1  0  0  0
  8 17  1  6  0  0  0
  8  1  1  0  0  0  0
  8 14  1  0  0  0  0
  9 11  2  0  0  0  0
  9  3  1  0  0  0  0
 12 10  2  0  0  0  0
 12 24  1  0  0  0  0
 13  4  2  0  0  0  0
 14  5  2  0  0  0  0
 15  3  2  0  0  0  0
 15 18  1  0  0  0  0
 16  6  2  0  0  0  0
 16  4  1  0  0  0  0
 18 10  1  0  0  0  0
 19 23  1  0  0  0  0
 20 24  2  0  0  0  0
 20 21  1  0  0  0  0
 21 19  2  0  0  0  0
 22 23  2  0  0  0  0
 24 22  1  0  0  0  0
 25  6  1  0  0  0  0
 26 25  2  0  0  0  0
 27 28  2  6  0  0  0
 27 29  1  0  0  0  0
 27 31  1  0  0  0  0
 27 26  1  0  0  0  0
 31 30  1  0  0  0  0
M  END
>  <MODEL>
7

>  <REMARK>
 VINA RESULT:      -8.4      3.957      8.363
  Name = 
  4 active torsions:
  status: ('A' for Active; 'I' for Inactive)
    1  A    between atoms: P_3  and  C_17
    2  A    between atoms: P_3  and  O_31
    3  A    between atoms: C_8  and  C_14
    4  A    between atoms: C_20  and  C_29
                            x       y       z     vdW  Elec       q    Type
                         _______ _______ _______ _____ _____    ______ ____

>  <TORSDO>
F 4

$$$$
=
 OpenBabel11032419303D

 31 35  0  0  1  0  0  0  0  0999 V2000
  189.9800  177.8740  138.7440 C   0  0  2  0  0  3  0  0  0  0  0  0
  186.9590  178.3840  136.5850 C   0  0  0  0  0  1  0  0  0  0  0  0
  187.3200  177.8720  141.8340 C   0  0  0  0  0  0  0  0  0  0  0  0
  189.6770  177.5420  141.1240 C   0  0  0  0  0  0  0  0  0  0  0  0
  188.2270  178.0250  137.2770 C   0  0  0  0  0  0  0  0  0  0  0  0
  189.1340  177.2300  143.5130 C   0  0  0  0  0  0  0  0  0  0  0  0
  188.6680  178.6030  138.5810 C   0  0  1  0  0  3  0  0  0  0  0  0
  190.2080  177.1690  137.6450 C   0  0  2  0  0  3  0  0  0  0  0  0
  187.7020  177.5840  143.2330 C   0  0  0  0  0  0  0  0  0  0  0  0
  186.5230  178.6110  139.8650 N   0  0  0  0  0  0  0  0  0  0  0  0
  186.8650  177.6500  144.1700 O   0  0  0  0  0  0  0  0  0  0  0  0
  186.1890  178.3580  141.1620 C   0  0  0  0  0  0  0  0  0  0  0  0
  190.5260  177.5310  140.0860 C   0  0  0  0  0  3  0  0  0  0  0  0
  189.1210  177.2650  136.7330 N   0  0  0  0  0  0  0  0  0  0  0  0
  188.2720  177.8410  140.8730 C   0  0  0  0  0  0  0  0  0  0  0  0
  190.0540  177.2170  142.5140 C   0  0  0  0  0  3  0  0  0  0  0  0
  191.2850  176.1490  137.4970 C   0  0  0  0  0  1  0  0  0  0  0  0
  187.7900  178.2580  139.7020 N   0  0  0  0  0  0  0  0  0  0  0  0
  182.2810  179.0620  142.6820 N   0  0  0  0  0  0  0  0  0  0  0  0
  184.6480  179.1130  142.9980 C   0  0  0  0  0  3  0  0  0  0  0  0
  183.3530  179.3280  143.4750 C   0  0  0  0  0  3  0  0  0  0  0  0
  183.7150  178.3530  140.9100 C   0  0  0  0  0  3  0  0  0  0  0  0
  182.4360  178.5810  141.4190 C   0  0  0  0  0  3  0  0  0  0  0  0
  184.8390  178.6280  141.7000 C   0  0  0  0  0  0  0  0  0  0  0  0
  189.5250  176.9080  144.8980 C   0  0  0  0  0  3  0  0  0  0  0  0
  189.4630  177.7860  145.8940 C   0  0  0  0  0  3  0  0  0  0  0  0
  189.9600  177.3090  147.5420 P   0  0  1  0  0  0  0  0  0  0  0  0
  189.5010  178.3640  148.5250 O   0  0  0  0  0  1  0  0  0  0  0  0
  189.2460  175.8240  147.9290 O   0  0  0  0  0  0  0  0  0  0  0  0
  191.9150  175.8030  147.5170 C   0  0  0  0  0  1  0  0  0  0  0  0
  191.6500  177.1730  147.5860 O   0  0  0  0  0  0  0  0  0  0  0  0
  1 13  1  1  0  0  0
  2  5  1  0  0  0  0
  3  9  1  0  0  0  0
  4 16  1  0  0  0  0
  6 25  1  0  0  0  0
  7  5  1  6  0  0  0
  7  1  1  0  0  0  0
  7 18  1  0  0  0  0
  8 17  1  1  0  0  0
  8  1  1  0  0  0  0
  9  6  1  0  0  0  0
  9 11  2  0  0  0  0
 10 12  2  0  0  0  0
 12 24  1  0  0  0  0
 12  3  1  0  0  0  0
 13  4  2  0  0  0  0
 14  5  2  0  0  0  0
 14  8  1  0  0  0  0
 15  4  1  0  0  0  0
 15  3  2  0  0  0  0
 16  6  2  0  0  0  0
 18 10  1  0  0  0  0
 18 15  1  0  0  0  0
 19 21  1  0  0  0  0
 20 21  2  0  0  0  0
 22 23  1  0  0  0  0
 22 24  2  0  0  0  0
 23 19  2  0  0  0  0
 24 20  1  0  0  0  0
 25 26  2  0  0  0  0
 26 27  1  0  0  0  0
 27 31  1  0  0  0  0
 27 29  2  1  0  0  0
 27 28  1  0  0  0  0
 30 31  1  0  0  0  0
M  END
>  <MODEL>
8

>  <REMARK>
 VINA RESULT:      -8.3      3.825      7.955
  Name = 
  4 active torsions:
  status: ('A' for Active; 'I' for Inactive)
    1  A    between atoms: P_3  and  C_17
    2  A    between atoms: P_3  and  O_31
    3  A    between atoms: C_8  and  C_14
    4  A    between atoms: C_20  and  C_29
                            x       y       z     vdW  Elec       q    Type
                         _______ _______ _______ _____ _____    ______ ____

>  <TORSDO>
F 4

$$$$
=
 OpenBabel11032419303D

 31 35  0  0  1  0  0  0  0  0999 V2000
  189.4870  177.1100  144.0690 C   0  0  2  0  0  3  0  0  0  0  0  0
  187.2660  177.8780  146.9880 C   0  0  0  0  0  1  0  0  0  0  0  0
  186.2950  178.2570  141.8060 C   0  0  0  0  0  0  0  0  0  0  0  0
  188.6810  177.5680  141.8310 C   0  0  0  0  0  0  0  0  0  0  0  0
  188.3170  177.6850  145.9530 C   0  0  0  0  0  0  0  0  0  0  0  0
  187.6540  178.1060  139.6500 C   0  0  0  0  0  0  0  0  0  0  0  0
  188.0980  176.9920  144.6480 C   0  0  1  0  0  3  0  0  0  0  0  0
  190.2810  177.6430  144.9870 C   0  0  2  0  0  3  0  0  0  0  0  0
  186.3450  178.3770  140.3330 C   0  0  0  0  0  0  0  0  0  0  0  0
  185.8630  177.8930  143.9830 N   0  0  0  0  0  0  0  0  0  0  0  0
  185.3240  178.6770  139.6620 O   0  0  0  0  0  0  0  0  0  0  0  0
  185.3060  178.2780  142.8000 C   0  0  0  0  0  0  0  0  0  0  0  0
  189.7190  177.2110  142.6020 C   0  0  0  0  0  3  0  0  0  0  0  0
  189.5550  177.9980  146.1580 N   0  0  0  0  0  0  0  0  0  0  0  0
  187.4090  177.8770  142.4730 C   0  0  0  0  0  0  0  0  0  0  0  0
  188.7450  177.7230  140.3640 C   0  0  0  0  0  3  0  0  0  0  0  0
  191.6700  178.1210  144.7350 C   0  0  0  0  0  1  0  0  0  0  0  0
  187.1540  177.6850  143.7680 N   0  0  0  0  0  0  0  0  0  0  0  0
  181.1620  179.1330  142.3850 N   0  0  0  0  0  0  0  0  0  0  0  0
  183.1280  179.1080  143.7410 C   0  0  0  0  0  3  0  0  0  0  0  0
  181.7670  179.3730  143.5800 C   0  0  0  0  0  3  0  0  0  0  0  0
  183.2170  178.3530  141.4530 C   0  0  0  0  0  3  0  0  0  0  0  0
  181.8550  178.6310  141.3280 C   0  0  0  0  0  3  0  0  0  0  0  0
  183.8690  178.6010  142.6690 C   0  0  0  0  0  0  0  0  0  0  0  0
  187.7320  178.2520  138.1850 C   0  0  0  0  0  3  0  0  0  0  0  0
  187.7320  177.2190  137.3490 C   0  0  0  0  0  3  0  0  0  0  0  0
  187.8300  177.4890  135.5870 P   0  0  1  0  0  0  0  0  0  0  0  0
  186.9240  178.6410  135.2080 O   0  0  0  0  0  1  0  0  0  0  0  0
  189.4270  177.8650  135.1720 O   0  0  0  0  0  0  0  0  0  0  0  0
  187.5960  175.0350  135.6800 C   0  0  0  0  0  1  0  0  0  0  0  0
  187.3360  176.0780  134.7880 O   0  0  0  0  0  0  0  0  0  0  0  0
  1 13  1  6  0  0  0
  1  7  1  0  0  0  0
  1  8  1  0  0  0  0
  3 15  2  0  0  0  0
  3 12  1  0  0  0  0
  4 15  1  0  0  0  0
  4 13  2  0  0  0  0
  5 14  2  0  0  0  0
  5  2  1  0  0  0  0
  6  9  1  0  0  0  0
  6 16  2  0  0  0  0
  7  5  1  1  0  0  0
  8 17  1  6  0  0  0
  8 14  1  0  0  0  0
  9  3  1  0  0  0  0
 11  9  2  0  0  0  0
 12 10  2  0  0  0  0
 15 18  1  0  0  0  0
 16  4  1  0  0  0  0
 18 10  1  0  0  0  0
 18  7  1  0  0  0  0
 19 21  1  0  0  0  0
 21 20  2  0  0  0  0
 22 24  2  0  0  0  0
 23 22  1  0  0  0  0
 23 19  2  0  0  0  0
 24 12  1  0  0  0  0
 24 20  1  0  0  0  0
 25  6  1  0  0  0  0
 26 25  2  0  0  0  0
 27 29  2  6  0  0  0
 27 26  1  0  0  0  0
 28 27  1  0  0  0  0
 31 27  1  0  0  0  0
 31 30  1  0  0  0  0
M  END
>  <MODEL>
9

>  <REMARK>
 VINA RESULT:      -8.2      3.440      6.550
  Name = 
  4 active torsions:
  status: ('A' for Active; 'I' for Inactive)
    1  A    between atoms: P_3  and  C_17
    2  A    between atoms: P_3  and  O_31
    3  A    between atoms: C_8  and  C_14
    4  A    between atoms: C_20  and  C_29
                            x       y       z     vdW  Elec       q    Type
                         _______ _______ _______ _____ _____    ______ ____

>  <TORSDO>
F 4

$$$$
