=
 OpenBabel11042410553D

 26 29  0  0  1  0  0  0  0  0999 V2000
  189.9190  177.1510  143.7640 C   0  0  0  0  0  3  0  0  0  0  0  0
  185.4200  178.5090  142.5500 C   0  0  0  0  0  3  0  0  0  0  0  0
  190.8740  176.8620  144.7390 C   0  0  0  0  0  3  0  0  0  0  0  0
  186.6540  177.9020  147.0950 O   0  0  0  0  0  0  0  0  0  0  0  0
  186.9530  177.8760  145.8690 C   0  0  0  0  0  0  0  0  0  0  0  0
  185.9940  178.1900  144.8850 C   0  0  2  0  0  3  0  0  0  0  0  0
  183.7890  178.9060  144.2330 N   0  0  0  0  0  0  0  0  0  0  0  0
  188.5960  177.4960  144.1140 C   0  0  0  0  0  0  0  0  0  0  0  0
  188.2540  177.5390  145.4860 C   0  0  0  0  0  0  0  0  0  0  0  0
  189.2240  177.2440  146.4580 C   0  0  0  0  0  3  0  0  0  0  0  0
  186.3720  178.1390  143.5150 C   0  0  0  0  0  0  0  0  0  0  0  0
  184.6670  178.5740  145.2140 C   0  0  0  0  0  0  0  0  0  0  0  0
  190.5260  176.9090  146.0880 C   0  0  0  0  0  0  0  0  0  0  0  0
  184.1350  178.8860  142.9230 C   0  0  0  0  0  3  0  0  0  0  0  0
  187.6540  177.7670  143.1480 N   0  0  0  0  0  0  0  0  0  0  0  0
  184.2760  178.6210  146.4120 O   0  0  0  0  0  0  0  0  0  0  0  0
  192.2960  176.3700  147.9040 N   0  0  0  0  0  0  0  0  0  0  0  0
  191.5060  176.6110  147.0940 C   0  0  0  0  0  0  0  0  0  0  0  0
  188.4410  178.7150  141.0180 C   0  0  0  0  0  3  0  0  0  0  0  0
  188.0770  177.6740  141.7630 C   0  0  0  0  0  3  0  0  0  0  0  0
  187.7990  177.9140  138.8030 C   0  0  0  0  0  0  0  0  0  0  0  0
  189.4940  176.4070  138.7640 C   0  0  0  0  0  3  0  0  0  0  0  0
  188.8700  178.5310  139.6000 C   0  0  2  0  0  3  0  0  0  0  0  0
  186.6840  178.4420  138.5510 O   0  0  0  0  0  0  0  0  0  0  0  0
  188.1770  176.6890  138.3320 O   0  0  0  0  0  0  0  0  0  0  0  0
  189.9670  177.5610  139.5500 N   0  0  0  0  0  0  0  0  0  0  0  0
  1  8  2  0  0  0  0
  1  3  1  0  0  0  0
  2 14  1  0  0  0  0
  2 11  2  0  0  0  0
  3 13  2  0  0  0  0
  5  4  2  0  0  0  0
  6 11  1  1  0  0  0
  6 12  1  0  0  0  0
  6  5  1  0  0  0  0
  7 12  1  0  0  0  0
  8  9  1  0  0  0  0
  9  5  1  0  0  0  0
  9 10  2  0  0  0  0
 12 16  2  0  0  0  0
 13 10  1  0  0  0  0
 13 18  1  0  0  0  0
 14  7  2  0  0  0  0
 15 11  1  0  0  0  0
 15  8  1  0  0  0  0
 18 17  3  0  0  0  0
 19 20  2  0  0  0  0
 20 15  1  0  0  0  0
 21 23  1  0  0  0  0
 22 26  2  0  0  0  0
 23 19  1  1  0  0  0
 24 21  2  0  0  0  0
 25 22  1  0  0  0  0
 25 21  1  0  0  0  0
 26 23  1  0  0  0  0
M  END
>  <MODEL>
1

>  <REMARK>
 VINA RESULT:     -10.0      0.000      0.000
  Name = 
  3 active torsions:
  status: ('A' for Active; 'I' for Inactive)
    1  A    between atoms: C_4  and  C_5
    2  A    between atoms: C_8  and  C_23
    3  A    between atoms: C_11  and  N_25
                            x       y       z     vdW  Elec       q    Type
                         _______ _______ _______ _____ _____    ______ ____

>  <TORSDO>
F 3

$$$$
=
 OpenBabel11042410553D

 26 29  0  0  1  0  0  0  0  0999 V2000
  190.0290  176.5470  144.2670 C   0  0  0  0  0  3  0  0  0  0  0  0
  185.5270  178.1330  143.3920 C   0  0  0  0  0  3  0  0  0  0  0  0
  191.0790  176.3170  145.1570 C   0  0  0  0  0  3  0  0  0  0  0  0
  187.2980  178.0980  147.7970 O   0  0  0  0  0  0  0  0  0  0  0  0
  187.4300  177.8600  146.5640 C   0  0  0  0  0  0  0  0  0  0  0  0
  186.3770  178.1140  145.6620 C   0  0  2  0  0  3  0  0  0  0  0  0
  184.1670  178.9320  145.1690 N   0  0  0  0  0  0  0  0  0  0  0  0
  188.7940  177.0650  144.7120 C   0  0  0  0  0  0  0  0  0  0  0  0
  188.6400  177.3460  146.0900 C   0  0  0  0  0  0  0  0  0  0  0  0
  189.7050  177.1080  146.9750 C   0  0  0  0  0  3  0  0  0  0  0  0
  186.5670  177.8230  144.2840 C   0  0  0  0  0  0  0  0  0  0  0  0
  185.1380  178.6690  146.0800 C   0  0  0  0  0  0  0  0  0  0  0  0
  190.9160  176.5970  146.5130 C   0  0  0  0  0  0  0  0  0  0  0  0
  184.3350  178.6840  143.8480 C   0  0  0  0  0  3  0  0  0  0  0  0
  187.7570  177.2780  143.8330 N   0  0  0  0  0  0  0  0  0  0  0  0
  184.9130  178.9320  147.2920 O   0  0  0  0  0  0  0  0  0  0  0  0
  192.8640  176.1690  148.1700 N   0  0  0  0  0  0  0  0  0  0  0  0
  191.9950  176.3610  147.4300 C   0  0  0  0  0  0  0  0  0  0  0  0
  188.2220  177.8290  141.4810 C   0  0  0  0  0  3  0  0  0  0  0  0
  187.9860  176.9390  142.4400 C   0  0  0  0  0  3  0  0  0  0  0  0
  189.8900  177.2070  139.8100 C   0  0  0  0  0  0  0  0  0  0  0  0
  189.2650  178.8970  138.4320 C   0  0  0  0  0  3  0  0  0  0  0  0
  188.4550  177.3940  140.0710 C   0  0  2  0  0  3  0  0  0  0  0  0
  190.6220  176.3390  140.3540 O   0  0  0  0  0  0  0  0  0  0  0  0
  190.3400  178.0850  138.8640 O   0  0  0  0  0  0  0  0  0  0  0  0
  188.0560  178.4710  139.1610 N   0  0  0  0  0  0  0  0  0  0  0  0
  1  8  2  0  0  0  0
  1  3  1  0  0  0  0
  2 14  1  0  0  0  0
  2 11  2  0  0  0  0
  3 13  2  0  0  0  0
  5  4  2  0  0  0  0
  6 11  1  6  0  0  0
  6 12  1  0  0  0  0
  6  5  1  0  0  0  0
  7 12  1  0  0  0  0
  8  9  1  0  0  0  0
  9  5  1  0  0  0  0
  9 10  2  0  0  0  0
 12 16  2  0  0  0  0
 13 10  1  0  0  0  0
 13 18  1  0  0  0  0
 14  7  2  0  0  0  0
 15 11  1  0  0  0  0
 15  8  1  0  0  0  0
 18 17  3  0  0  0  0
 19 20  2  0  0  0  0
 20 15  1  0  0  0  0
 21 23  1  0  0  0  0
 21 24  2  0  0  0  0
 22 25  1  0  0  0  0
 22 26  2  0  0  0  0
 23 19  1  1  0  0  0
 25 21  1  0  0  0  0
 26 23  1  0  0  0  0
M  END
>  <MODEL>
2

>  <REMARK>
 VINA RESULT:      -9.9      1.314      1.566
  Name = 
  3 active torsions:
  status: ('A' for Active; 'I' for Inactive)
    1  A    between atoms: C_4  and  C_5
    2  A    between atoms: C_8  and  C_23
    3  A    between atoms: C_11  and  N_25
                            x       y       z     vdW  Elec       q    Type
                         _______ _______ _______ _____ _____    ______ ____

>  <TORSDO>
F 3

$$$$
=
 OpenBabel11042410553D

 26 29  0  0  1  0  0  0  0  0999 V2000
  186.7450  178.4300  142.0460 C   0  0  0  0  0  3  0  0  0  0  0  0
  190.7470  177.1760  144.4910 C   0  0  0  0  0  3  0  0  0  0  0  0
  185.3710  178.6680  142.0160 C   0  0  0  0  0  3  0  0  0  0  0  0
  186.5590  177.5870  146.6910 O   0  0  0  0  0  0  0  0  0  0  0  0
  187.2520  177.6580  145.6370 C   0  0  0  0  0  0  0  0  0  0  0  0
  188.6360  177.3950  145.6640 C   0  0  2  0  0  3  0  0  0  0  0  0
  190.6400  176.7330  146.8230 N   0  0  0  0  0  0  0  0  0  0  0  0
  187.4020  178.0880  143.2470 C   0  0  0  0  0  0  0  0  0  0  0  0
  186.6330  177.9940  144.4310 C   0  0  0  0  0  0  0  0  0  0  0  0
  185.2500  178.2380  144.3870 C   0  0  0  0  0  3  0  0  0  0  0  0
  189.3790  177.4960  144.4560 C   0  0  0  0  0  0  0  0  0  0  0  0
  189.3130  177.0140  146.8540 C   0  0  0  0  0  0  0  0  0  0  0  0
  184.6230  178.5720  143.1880 C   0  0  0  0  0  0  0  0  0  0  0  0
  191.3620  176.8000  145.6780 C   0  0  0  0  0  3  0  0  0  0  0  0
  188.7610  177.8670  143.2750 N   0  0  0  0  0  0  0  0  0  0  0  0
  188.7050  176.9240  147.9540 O   0  0  0  0  0  0  0  0  0  0  0  0
  182.0680  179.0150  143.1370 N   0  0  0  0  0  0  0  0  0  0  0  0
  183.2080  178.8180  143.1600 C   0  0  0  0  0  0  0  0  0  0  0  0
  189.5400  177.0730  141.0800 C   0  0  0  0  0  3  0  0  0  0  0  0
  189.4820  178.0100  142.0240 C   0  0  0  0  0  3  0  0  0  0  0  0
  189.4390  177.9090  138.7890 C   0  0  0  0  0  0  0  0  0  0  0  0
  190.0310  175.8920  137.9360 C   0  0  0  0  0  3  0  0  0  0  0  0
  190.3010  177.3040  139.8160 C   0  0  2  0  0  3  0  0  0  0  0  0
  188.9190  179.0530  138.8570 O   0  0  0  0  0  0  0  0  0  0  0  0
  189.2940  177.0780  137.7130 O   0  0  0  0  0  0  0  0  0  0  0  0
  190.6960  176.0130  139.2470 N   0  0  0  0  0  0  0  0  0  0  0  0
  1  8  1  0  0  0  0
  2 14  1  0  0  0  0
  3  1  2  0  0  0  0
  3 13  1  0  0  0  0
  5  6  1  0  0  0  0
  5  4  2  0  0  0  0
  6 11  1  6  0  0  0
  6 12  1  0  0  0  0
  7 12  1  0  0  0  0
  8 15  1  0  0  0  0
  8  9  2  0  0  0  0
  9  5  1  0  0  0  0
 10  9  1  0  0  0  0
 11  2  2  0  0  0  0
 12 16  2  0  0  0  0
 13 10  2  0  0  0  0
 14  7  2  0  0  0  0
 15 11  1  0  0  0  0
 17 18  3  0  0  0  0
 18 13  1  0  0  0  0
 19 20  2  0  0  0  0
 20 15  1  0  0  0  0
 21 24  2  0  0  0  0
 21 23  1  0  0  0  0
 22 26  2  0  0  0  0
 23 19  1  1  0  0  0
 25 22  1  0  0  0  0
 25 21  1  0  0  0  0
 26 23  1  0  0  0  0
M  END
>  <MODEL>
3

>  <REMARK>
 VINA RESULT:      -9.5      1.318      4.823
  Name = 
  3 active torsions:
  status: ('A' for Active; 'I' for Inactive)
    1  A    between atoms: C_4  and  C_5
    2  A    between atoms: C_8  and  C_23
    3  A    between atoms: C_11  and  N_25
                            x       y       z     vdW  Elec       q    Type
                         _______ _______ _______ _____ _____    ______ ____

>  <TORSDO>
F 3

$$$$
=
 OpenBabel11042410553D

 26 29  0  0  1  0  0  0  0  0999 V2000
  185.2060  178.3070  142.2170 C   0  0  0  0  0  3  0  0  0  0  0  0
  189.3370  177.3230  144.5670 C   0  0  0  0  0  3  0  0  0  0  0  0
  183.8430  178.6060  142.2390 C   0  0  0  0  0  3  0  0  0  0  0  0
  185.3530  178.3470  146.9390 O   0  0  0  0  0  0  0  0  0  0  0  0
  185.9630  178.1870  145.8450 C   0  0  0  0  0  0  0  0  0  0  0  0
  187.3340  177.8620  145.8240 C   0  0  2  0  0  3  0  0  0  0  0  0
  189.3970  177.3240  146.9430 N   0  0  0  0  0  0  0  0  0  0  0  0
  185.9420  178.1590  143.4120 C   0  0  0  0  0  0  0  0  0  0  0  0
  185.2640  178.3260  144.6430 C   0  0  0  0  0  0  0  0  0  0  0  0
  183.8930  178.6280  144.6510 C   0  0  0  0  0  3  0  0  0  0  0  0
  187.9830  177.7000  144.5690 C   0  0  0  0  0  0  0  0  0  0  0  0
  188.0880  177.6740  147.0130 C   0  0  0  0  0  0  0  0  0  0  0  0
  183.1860  178.7670  143.4580 C   0  0  0  0  0  0  0  0  0  0  0  0
  190.0290  177.1410  145.7580 C   0  0  0  0  0  3  0  0  0  0  0  0
  187.2890  177.8780  143.3850 N   0  0  0  0  0  0  0  0  0  0  0  0
  187.5650  177.8200  148.1510 O   0  0  0  0  0  0  0  0  0  0  0  0
  180.6540  179.3230  143.5030 N   0  0  0  0  0  0  0  0  0  0  0  0
  181.7840  179.0750  143.4830 C   0  0  0  0  0  0  0  0  0  0  0  0
  188.4210  178.7670  141.3900 C   0  0  0  0  0  3  0  0  0  0  0  0
  187.9150  177.7500  142.0820 C   0  0  0  0  0  3  0  0  0  0  0  0
  188.0840  178.0040  139.0960 C   0  0  0  0  0  0  0  0  0  0  0  0
  189.6530  176.3810  139.3140 C   0  0  0  0  0  3  0  0  0  0  0  0
  189.0550  178.5480  140.0570 C   0  0  2  0  0  3  0  0  0  0  0  0
  187.0620  178.6080  138.6740 O   0  0  0  0  0  0  0  0  0  0  0  0
  188.4440  176.7530  138.6820 O   0  0  0  0  0  0  0  0  0  0  0  0
  190.0760  177.5020  140.1740 N   0  0  0  0  0  0  0  0  0  0  0  0
  1  3  2  0  0  0  0
  1  8  1  0  0  0  0
  2 11  2  0  0  0  0
  2 14  1  0  0  0  0
  3 13  1  0  0  0  0
  5  4  2  0  0  0  0
  6 11  1  6  0  0  0
  6  5  1  0  0  0  0
  6 12  1  0  0  0  0
  7 12  1  0  0  0  0
  8  9  2  0  0  0  0
  9 10  1  0  0  0  0
  9  5  1  0  0  0  0
 12 16  2  0  0  0  0
 13 18  1  0  0  0  0
 13 10  2  0  0  0  0
 14  7  2  0  0  0  0
 15  8  1  0  0  0  0
 15 11  1  0  0  0  0
 18 17  3  0  0  0  0
 19 20  2  0  0  0  0
 20 15  1  0  0  0  0
 21 23  1  0  0  0  0
 22 26  2  0  0  0  0
 23 26  1  0  0  0  0
 23 19  1  1  0  0  0
 24 21  2  0  0  0  0
 25 21  1  0  0  0  0
 25 22  1  0  0  0  0
M  END
>  <MODEL>
4

>  <REMARK>
 VINA RESULT:      -9.3      1.249      4.914
  Name = 
  3 active torsions:
  status: ('A' for Active; 'I' for Inactive)
    1  A    between atoms: C_4  and  C_5
    2  A    between atoms: C_8  and  C_23
    3  A    between atoms: C_11  and  N_25
                            x       y       z     vdW  Elec       q    Type
                         _______ _______ _______ _____ _____    ______ ____

>  <TORSDO>
F 3

$$$$
=
 OpenBabel11042410553D

 26 29  0  0  1  0  0  0  0  0999 V2000
  185.7260  177.7520  142.8260 C   0  0  0  0  0  3  0  0  0  0  0  0
  189.4450  176.8600  145.8140 C   0  0  0  0  0  3  0  0  0  0  0  0
  184.4410  178.2500  142.6090 C   0  0  0  0  0  3  0  0  0  0  0  0
  185.5600  179.1210  147.3450 O   0  0  0  0  0  0  0  0  0  0  0  0
  186.2040  178.5620  146.4130 C   0  0  0  0  0  0  0  0  0  0  0  0
  187.4930  178.0380  146.6390 C   0  0  2  0  0  3  0  0  0  0  0  0
  189.3450  177.5320  148.0910 N   0  0  0  0  0  0  0  0  0  0  0  0
  186.3410  177.8420  144.0920 C   0  0  0  0  0  0  0  0  0  0  0  0
  185.6240  178.4560  145.1460 C   0  0  0  0  0  0  0  0  0  0  0  0
  184.3320  178.9550  144.9140 C   0  0  0  0  0  3  0  0  0  0  0  0
  188.1850  177.4250  145.5580 C   0  0  0  0  0  0  0  0  0  0  0  0
  188.1180  178.0850  147.9130 C   0  0  0  0  0  0  0  0  0  0  0  0
  183.7430  178.8530  143.6550 C   0  0  0  0  0  0  0  0  0  0  0  0
  190.0120  176.9230  147.0810 C   0  0  0  0  0  3  0  0  0  0  0  0
  187.6150  177.3610  144.2980 N   0  0  0  0  0  0  0  0  0  0  0  0
  187.5550  178.6300  148.9000 O   0  0  0  0  0  0  0  0  0  0  0  0
  181.3550  179.7810  143.2560 N   0  0  0  0  0  0  0  0  0  0  0  0
  182.4210  179.3670  143.4340 C   0  0  0  0  0  0  0  0  0  0  0  0
  189.0680  177.4470  142.3150 C   0  0  0  0  0  3  0  0  0  0  0  0
  188.2940  176.7700  143.1600 C   0  0  0  0  0  3  0  0  0  0  0  0
  191.1070  177.2610  140.9860 C   0  0  0  0  0  0  0  0  0  0  0  0
  190.0190  177.8310  139.0790 C   0  0  0  0  0  3  0  0  0  0  0  0
  189.7370  176.7590  141.1700 C   0  0  2  0  0  3  0  0  0  0  0  0
  192.0490  177.1240  141.8100 O   0  0  0  0  0  0  0  0  0  0  0  0
  191.2490  177.8780  139.7750 O   0  0  0  0  0  0  0  0  0  0  0  0
  189.0490  177.1120  139.9260 N   0  0  0  0  0  0  0  0  0  0  0  0
  1  8  1  0  0  0  0
  2 14  1  0  0  0  0
  3  1  2  0  0  0  0
  3 13  1  0  0  0  0
  5  6  1  0  0  0  0
  5  4  2  0  0  0  0
  6 11  1  1  0  0  0
  6 12  1  0  0  0  0
  8 15  1  0  0  0  0
  8  9  2  0  0  0  0
  9  5  1  0  0  0  0
 10  9  1  0  0  0  0
 11  2  2  0  0  0  0
 12  7  1  0  0  0  0
 12 16  2  0  0  0  0
 13 10  2  0  0  0  0
 14  7  2  0  0  0  0
 15 11  1  0  0  0  0
 17 18  3  0  0  0  0
 18 13  1  0  0  0  0
 19 20  2  0  0  0  0
 20 15  1  0  0  0  0
 21 23  1  0  0  0  0
 21 24  2  0  0  0  0
 22 25  1  0  0  0  0
 22 26  2  0  0  0  0
 23 19  1  1  0  0  0
 25 21  1  0  0  0  0
 26 23  1  0  0  0  0
M  END
>  <MODEL>
5

>  <REMARK>
 VINA RESULT:      -9.3      1.958      5.174
  Name = 
  3 active torsions:
  status: ('A' for Active; 'I' for Inactive)
    1  A    between atoms: C_4  and  C_5
    2  A    between atoms: C_8  and  C_23
    3  A    between atoms: C_11  and  N_25
                            x       y       z     vdW  Elec       q    Type
                         _______ _______ _______ _____ _____    ______ ____

>  <TORSDO>
F 3

$$$$
=
 OpenBabel11042410553D

 26 29  0  0  1  0  0  0  0  0999 V2000
  189.8860  176.9640  142.8440 C   0  0  0  0  0  3  0  0  0  0  0  0
  185.1470  178.0130  142.8170 C   0  0  0  0  0  3  0  0  0  0  0  0
  191.1130  176.8930  142.1830 C   0  0  0  0  0  3  0  0  0  0  0  0
  187.8530  178.8010  138.9950 O   0  0  0  0  0  0  0  0  0  0  0  0
  187.7350  178.4040  140.1880 C   0  0  0  0  0  0  0  0  0  0  0  0
  186.4900  178.4550  140.8470 C   0  0  2  0  0  3  0  0  0  0  0  0
  184.1270  178.9160  140.8690 N   0  0  0  0  0  0  0  0  0  0  0  0
  188.7360  177.4660  142.1980 C   0  0  0  0  0  0  0  0  0  0  0  0
  188.8540  177.9020  140.8570 C   0  0  0  0  0  0  0  0  0  0  0  0
  190.0960  177.8260  140.2050 C   0  0  0  0  0  3  0  0  0  0  0  0
  186.4060  178.0060  142.1930 C   0  0  0  0  0  0  0  0  0  0  0  0
  185.3110  178.9220  140.2070 C   0  0  0  0  0  0  0  0  0  0  0  0
  191.2180  177.3250  140.8620 C   0  0  0  0  0  0  0  0  0  0  0  0
  184.0200  178.4720  142.1450 C   0  0  0  0  0  3  0  0  0  0  0  0
  187.5300  177.5460  142.8580 N   0  0  0  0  0  0  0  0  0  0  0  0
  185.3340  179.3450  139.0190 O   0  0  0  0  0  0  0  0  0  0  0  0
  193.4960  177.1960  139.6320 N   0  0  0  0  0  0  0  0  0  0  0  0
  192.4790  177.2530  140.1810 C   0  0  0  0  0  0  0  0  0  0  0  0
  187.8930  177.8450  145.2730 C   0  0  0  0  0  3  0  0  0  0  0  0
  187.4980  177.1050  144.2400 C   0  0  0  0  0  3  0  0  0  0  0  0
  187.0470  178.2200  147.5320 C   0  0  0  0  0  0  0  0  0  0  0  0
  189.1390  178.2290  148.4060 C   0  0  0  0  0  3  0  0  0  0  0  0
  187.8200  177.3160  146.6670 C   0  0  2  0  0  3  0  0  0  0  0  0
  185.8200  178.4730  147.4070 O   0  0  0  0  0  0  0  0  0  0  0  0
  187.8260  178.7390  148.5270 O   0  0  0  0  0  0  0  0  0  0  0  0
  189.1630  177.3110  147.2530 N   0  0  0  0  0  0  0  0  0  0  0  0
  3  1  2  0  0  0  0
  4  5  2  0  0  0  0
  5  9  1  0  0  0  0
  6  5  1  6  0  0  0
  6 11  1  0  0  0  0
  7 14  2  0  0  0  0
  8  1  1  0  0  0  0
  8 15  1  0  0  0  0
  9  8  2  0  0  0  0
 10  9  1  0  0  0  0
 10 13  2  0  0  0  0
 11  2  2  0  0  0  0
 11 15  1  0  0  0  0
 12  6  1  0  0  0  0
 12  7  1  0  0  0  0
 13  3  1  0  0  0  0
 14  2  1  0  0  0  0
 15 20  1  0  0  0  0
 16 12  2  0  0  0  0
 17 18  3  0  0  0  0
 18 13  1  0  0  0  0
 20 19  2  0  0  0  0
 21 25  1  0  0  0  0
 22 25  1  0  0  0  0
 23 19  1  6  0  0  0
 23 26  1  0  0  0  0
 23 21  1  0  0  0  0
 24 21  2  0  0  0  0
 26 22  2  0  0  0  0
M  END
>  <MODEL>
6

>  <REMARK>
 VINA RESULT:      -8.7      1.942      5.994
  Name = 
  3 active torsions:
  status: ('A' for Active; 'I' for Inactive)
    1  A    between atoms: C_4  and  C_5
    2  A    between atoms: C_8  and  C_23
    3  A    between atoms: C_11  and  N_25
                            x       y       z     vdW  Elec       q    Type
                         _______ _______ _______ _____ _____    ______ ____

>  <TORSDO>
F 3

$$$$
=
 OpenBabel11042410553D

 26 29  0  0  1  0  0  0  0  0999 V2000
  185.4440  177.8910  144.5040 C   0  0  0  0  0  3  0  0  0  0  0  0
  189.7250  177.1950  142.3270 C   0  0  0  0  0  3  0  0  0  0  0  0
  184.1280  178.3560  144.4660 C   0  0  0  0  0  3  0  0  0  0  0  0
  186.0470  179.0480  139.9630 O   0  0  0  0  0  0  0  0  0  0  0  0
  186.5350  178.5710  141.0260 C   0  0  0  0  0  0  0  0  0  0  0  0
  187.8710  178.1240  141.0700 C   0  0  2  0  0  3  0  0  0  0  0  0
  190.0270  177.8000  140.0480 N   0  0  0  0  0  0  0  0  0  0  0  0
  186.2740  177.9530  143.3650 C   0  0  0  0  0  0  0  0  0  0  0  0
  185.7400  178.4960  142.1720 C   0  0  0  0  0  0  0  0  0  0  0  0
  184.4140  178.9580  142.1470 C   0  0  0  0  0  3  0  0  0  0  0  0
  188.3760  177.5860  142.2850 C   0  0  0  0  0  0  0  0  0  0  0  0
  188.7370  178.2080  139.9470 C   0  0  0  0  0  0  0  0  0  0  0  0
  183.6130  178.8890  143.2860 C   0  0  0  0  0  0  0  0  0  0  0  0
  190.5350  177.3060  141.2030 C   0  0  0  0  0  3  0  0  0  0  0  0
  187.5670  177.4810  143.4030 N   0  0  0  0  0  0  0  0  0  0  0  0
  188.3350  178.6630  138.8420 O   0  0  0  0  0  0  0  0  0  0  0  0
  181.1690  179.7510  143.2090 N   0  0  0  0  0  0  0  0  0  0  0  0
  182.2600  179.3660  143.2440 C   0  0  0  0  0  0  0  0  0  0  0  0
  188.4870  177.6310  145.6800 C   0  0  0  0  0  3  0  0  0  0  0  0
  188.0300  176.9140  144.6560 C   0  0  0  0  0  3  0  0  0  0  0  0
  189.0250  177.9370  148.0410 C   0  0  0  0  0  0  0  0  0  0  0  0
  191.1530  177.2110  147.7390 C   0  0  0  0  0  3  0  0  0  0  0  0
  188.9390  176.9670  146.9390 C   0  0  2  0  0  3  0  0  0  0  0  0
  188.0510  178.5570  148.5440 O   0  0  0  0  0  0  0  0  0  0  0  0
  190.3100  178.0660  148.4870 O   0  0  0  0  0  0  0  0  0  0  0  0
  190.3130  176.4880  146.7670 N   0  0  0  0  0  0  0  0  0  0  0  0
  3  1  1  0  0  0  0
  4  5  2  0  0  0  0
  5  6  1  0  0  0  0
  5  9  1  0  0  0  0
  6 12  1  1  0  0  0
  6 11  1  0  0  0  0
  7 14  2  0  0  0  0
  8 15  1  0  0  0  0
  8  1  2  0  0  0  0
  9  8  1  0  0  0  0
 10  9  2  0  0  0  0
 10 13  1  0  0  0  0
 11  2  2  0  0  0  0
 11 15  1  0  0  0  0
 12  7  1  0  0  0  0
 13  3  2  0  0  0  0
 14  2  1  0  0  0  0
 15 20  1  0  0  0  0
 16 12  2  0  0  0  0
 17 18  3  0  0  0  0
 18 13  1  0  0  0  0
 20 19  2  0  0  0  0
 21 25  1  0  0  0  0
 21 24  2  0  0  0  0
 22 25  1  0  0  0  0
 23 19  1  6  0  0  0
 23 21  1  0  0  0  0
 26 23  1  0  0  0  0
 26 22  2  0  0  0  0
M  END
>  <MODEL>
7

>  <REMARK>
 VINA RESULT:      -8.7      1.673      7.151
  Name = 
  3 active torsions:
  status: ('A' for Active; 'I' for Inactive)
    1  A    between atoms: C_4  and  C_5
    2  A    between atoms: C_8  and  C_23
    3  A    between atoms: C_11  and  N_25
                            x       y       z     vdW  Elec       q    Type
                         _______ _______ _______ _____ _____    ______ ____

>  <TORSDO>
F 3

$$$$
=
 OpenBabel11042410553D

 26 29  0  0  1  0  0  0  0  0999 V2000
  188.6510  177.6260  141.7830 C   0  0  0  0  0  3  0  0  0  0  0  0
  187.0340  177.8640  146.3540 C   0  0  0  0  0  3  0  0  0  0  0  0
  188.4320  177.7770  140.4130 C   0  0  0  0  0  3  0  0  0  0  0  0
  184.2880  179.1850  142.7120 O   0  0  0  0  0  0  0  0  0  0  0  0
  185.3890  178.7460  143.1480 C   0  0  0  0  0  0  0  0  0  0  0  0
  185.6010  178.5710  144.5300 C   0  0  2  0  0  3  0  0  0  0  0  0
  184.8310  178.6280  146.8110 N   0  0  0  0  0  0  0  0  0  0  0  0
  187.6470  177.9420  142.7230 C   0  0  0  0  0  0  0  0  0  0  0  0
  186.4050  178.4230  142.2440 C   0  0  0  0  0  0  0  0  0  0  0  0
  186.1990  178.5720  140.8630 C   0  0  0  0  0  3  0  0  0  0  0  0
  186.8590  178.0840  144.9770 C   0  0  0  0  0  0  0  0  0  0  0  0
  184.5940  178.8490  145.4930 C   0  0  0  0  0  0  0  0  0  0  0  0
  187.2060  178.2520  139.9530 C   0  0  0  0  0  0  0  0  0  0  0  0
  186.0140  178.1420  147.2560 C   0  0  0  0  0  3  0  0  0  0  0  0
  187.8710  177.8040  144.0740 N   0  0  0  0  0  0  0  0  0  0  0  0
  183.4660  179.2970  145.1510 O   0  0  0  0  0  0  0  0  0  0  0  0
  186.7960  178.5370  137.4090 N   0  0  0  0  0  0  0  0  0  0  0  0
  186.9790  178.4090  138.5440 C   0  0  0  0  0  0  0  0  0  0  0  0
  190.2200  178.1230  144.7320 C   0  0  0  0  0  3  0  0  0  0  0  0
  189.1800  177.3310  144.4860 C   0  0  0  0  0  3  0  0  0  0  0  0
  191.6800  176.1670  144.6910 C   0  0  0  0  0  0  0  0  0  0  0  0
  191.6910  176.0210  146.9540 C   0  0  0  0  0  3  0  0  0  0  0  0
  191.5330  177.5540  145.1580 C   0  0  2  0  0  3  0  0  0  0  0  0
  191.7510  175.8090  143.4860 O   0  0  0  0  0  0  0  0  0  0  0  0
  191.7670  175.2980  145.7410 O   0  0  0  0  0  0  0  0  0  0  0  0
  191.5630  177.4510  146.6200 N   0  0  0  0  0  0  0  0  0  0  0  0
  1  8  1  0  0  0  0
  2 14  1  0  0  0  0
  3  1  2  0  0  0  0
  4  5  2  0  0  0  0
  6  5  1  6  0  0  0
  6 11  1  0  0  0  0
  6 12  1  0  0  0  0
  7 14  2  0  0  0  0
  8 15  1  0  0  0  0
  9  8  2  0  0  0  0
  9  5  1  0  0  0  0
 10  9  1  0  0  0  0
 11  2  2  0  0  0  0
 12  7  1  0  0  0  0
 13  3  1  0  0  0  0
 13 10  2  0  0  0  0
 15 20  1  0  0  0  0
 15 11  1  0  0  0  0
 16 12  2  0  0  0  0
 17 18  3  0  0  0  0
 18 13  1  0  0  0  0
 20 19  2  0  0  0  0
 21 23  1  0  0  0  0
 21 25  1  0  0  0  0
 23 19  1  1  0  0  0
 23 26  1  0  0  0  0
 24 21  2  0  0  0  0
 25 22  1  0  0  0  0
 26 22  2  0  0  0  0
M  END
>  <MODEL>
8

>  <REMARK>
 VINA RESULT:      -8.6      2.315      5.699
  Name = 
  3 active torsions:
  status: ('A' for Active; 'I' for Inactive)
    1  A    between atoms: C_4  and  C_5
    2  A    between atoms: C_8  and  C_23
    3  A    between atoms: C_11  and  N_25
                            x       y       z     vdW  Elec       q    Type
                         _______ _______ _______ _____ _____    ______ ____

>  <TORSDO>
F 3

$$$$
=
 OpenBabel11042410553D

 26 29  0  0  1  0  0  0  0  0999 V2000
  188.5560  177.9870  143.7950 C   0  0  0  0  0  3  0  0  0  0  0  0
  185.5610  178.9080  140.0870 C   0  0  0  0  0  3  0  0  0  0  0  0
  188.7610  177.7550  145.1550 C   0  0  0  0  0  3  0  0  0  0  0  0
  183.8850  178.2120  144.4760 O   0  0  0  0  0  0  0  0  0  0  0  0
  184.8610  178.2800  143.6760 C   0  0  0  0  0  0  0  0  0  0  0  0
  184.6540  178.5370  142.3060 C   0  0  2  0  0  3  0  0  0  0  0  0
  183.2150  179.0410  140.4420 N   0  0  0  0  0  0  0  0  0  0  0  0
  187.2580  178.1680  143.2710 C   0  0  0  0  0  0  0  0  0  0  0  0
  186.1590  178.1060  144.1610 C   0  0  0  0  0  0  0  0  0  0  0  0
  186.3800  177.8700  145.5280 C   0  0  0  0  0  3  0  0  0  0  0  0
  185.7800  178.5960  141.4400 C   0  0  0  0  0  0  0  0  0  0  0  0
  183.3610  178.7580  141.7620 C   0  0  0  0  0  0  0  0  0  0  0  0
  187.6710  177.6960  146.0230 C   0  0  0  0  0  0  0  0  0  0  0  0
  184.2760  179.1240  139.6040 C   0  0  0  0  0  3  0  0  0  0  0  0
  187.0590  178.3830  141.9260 N   0  0  0  0  0  0  0  0  0  0  0  0
  182.3280  178.7030  142.4830 O   0  0  0  0  0  0  0  0  0  0  0  0
  188.0470  177.2630  148.5510 N   0  0  0  0  0  0  0  0  0  0  0  0
  187.8800  177.4570  147.4230 C   0  0  0  0  0  0  0  0  0  0  0  0
  188.6290  177.3890  140.3150 C   0  0  0  0  0  3  0  0  0  0  0  0
  188.2350  178.4060  141.0760 C   0  0  0  0  0  3  0  0  0  0  0  0
  189.5160  178.0300  138.1330 C   0  0  0  0  0  0  0  0  0  0  0  0
  190.2980  175.9380  137.7400 C   0  0  0  0  0  3  0  0  0  0  0  0
  189.8500  177.4980  139.4620 C   0  0  2  0  0  3  0  0  0  0  0  0
  189.0730  179.1860  137.9020 O   0  0  0  0  0  0  0  0  0  0  0  0
  189.7780  177.1150  137.1530 O   0  0  0  0  0  0  0  0  0  0  0  0
  190.3750  176.1560  139.1960 N   0  0  0  0  0  0  0  0  0  0  0  0
  1  3  1  0  0  0  0
  2 11  2  0  0  0  0
  3 13  2  0  0  0  0
  5  9  1  0  0  0  0
  5  4  2  0  0  0  0
  6 11  1  1  0  0  0
  6  5  1  0  0  0  0
  7 12  1  0  0  0  0
  8  1  2  0  0  0  0
  8  9  1  0  0  0  0
  9 10  2  0  0  0  0
 10 13  1  0  0  0  0
 11 15  1  0  0  0  0
 12  6  1  0  0  0  0
 12 16  2  0  0  0  0
 13 18  1  0  0  0  0
 14  2  1  0  0  0  0
 14  7  2  0  0  0  0
 15  8  1  0  0  0  0
 18 17  3  0  0  0  0
 19 20  2  0  0  0  0
 20 15  1  0  0  0  0
 21 23  1  0  0  0  0
 22 26  2  0  0  0  0
 23 19  1  1  0  0  0
 24 21  2  0  0  0  0
 25 22  1  0  0  0  0
 25 21  1  0  0  0  0
 26 23  1  0  0  0  0
M  END
>  <MODEL>
9

>  <REMARK>
 VINA RESULT:      -8.6      2.054      2.754
  Name = 
  3 active torsions:
  status: ('A' for Active; 'I' for Inactive)
    1  A    between atoms: C_4  and  C_5
    2  A    between atoms: C_8  and  C_23
    3  A    between atoms: C_11  and  N_25
                            x       y       z     vdW  Elec       q    Type
                         _______ _______ _______ _____ _____    ______ ____

>  <TORSDO>
F 3

$$$$
