=
 OpenBabel11032421243D

 34 37  0  0  1  0  0  0  0  0999 V2000
  187.5390  177.9110  143.1180 C   0  0  0  0  0  0  0  0  0  0  0  0
  186.1770  179.1640  141.6130 N   0  0  0  0  0  0  0  0  0  0  0  0
  186.4420  177.8050  143.9890 C   0  0  0  0  0  0  0  0  0  0  0  0
  184.1820  178.2270  144.3080 O   0  0  0  0  0  0  0  0  0  0  0  0
  185.2140  178.3640  143.5980 C   0  0  0  0  0  0  0  0  0  0  0  0
  185.1270  179.0350  142.4230 N   0  0  0  0  0  2  0  0  0  0  0  0
  187.3870  178.6220  141.9130 C   0  0  0  0  0  0  0  0  0  0  0  0
  191.5320  176.5480  142.9540 N   0  0  0  0  0  0  0  0  0  0  0  0
  191.2210  177.9520  142.7840 C   0  0  0  0  0  2  0  0  0  0  0  0
  189.1850  176.0610  142.6450 C   0  0  0  0  0  2  0  0  0  0  0  0
  190.6080  175.6520  142.8850 C   0  0  0  0  0  3  0  0  0  0  0  0
  189.9820  178.3350  143.6040 C   0  0  0  0  0  2  0  0  0  0  0  0
  188.8520  177.2870  143.5080 C   0  0  1  0  0  3  0  0  0  0  0  0
  186.5800  177.0720  145.2170 N   0  0  0  0  0  2  0  0  0  0  0  0
  188.7660  177.0020  146.2990 C   0  0  0  0  0  3  0  0  0  0  0  0
  187.4330  177.4240  146.3130 C   0  0  0  0  0  0  0  0  0  0  0  0
  189.6400  177.3610  147.3340 C   0  0  0  0  0  0  0  0  0  0  0  0
  187.8440  178.5990  148.3980 C   0  0  0  0  0  3  0  0  0  0  0  0
  186.9780  178.2380  147.3620 C   0  0  0  0  0  3  0  0  0  0  0  0
  189.1700  178.1600  148.3850 C   0  0  0  0  0  3  0  0  0  0  0  0
  191.9040  177.2430  148.3440 O   0  0  0  0  0  1  0  0  0  0  0  0
  191.0380  176.9010  147.3120 C   0  0  0  0  0  0  0  0  0  0  0  0
  191.4640  176.1940  146.3600 O   0  0  0  0  0  0  0  0  0  0  0  0
  188.5000  178.7670  141.0160 N   0  0  0  0  0  2  0  0  0  0  0  0
  187.6100  177.9870  138.8330 C   0  0  0  0  0  3  0  0  0  0  0  0
  189.9540  177.7220  139.3640 C   0  0  0  0  0  3  0  0  0  0  0  0
  190.1680  177.1230  138.1200 C   0  0  0  0  0  3  0  0  0  0  0  0
  187.8220  177.3880  137.5890 C   0  0  0  0  0  3  0  0  0  0  0  0
  189.1030  176.9520  137.2300 C   0  0  0  0  0  0  0  0  0  0  0  0
  188.6760  178.1580  139.7300 C   0  0  0  0  0  0  0  0  0  0  0  0
  189.3370  176.3090  135.9040 C   0  0  0  0  0  2  0  0  0  0  0  0
  190.5390  175.3720  135.9380 C   0  0  0  0  0  2  0  0  0  0  0  0
  190.1100  173.9240  136.1180 C   0  0  0  0  0  2  0  0  0  0  0  0
  190.1490  173.5760  137.4690 O   0  0  0  0  0  1  0  0  0  0  0  0
  1  3  2  0  0  0  0
  2  7  2  0  0  0  0
  2  6  1  0  0  0  0
  3 14  1  0  0  0  0
  5  3  1  0  0  0  0
  5  4  2  0  0  0  0
  6  5  1  0  0  0  0
  7  1  1  0  0  0  0
  9  8  1  0  0  0  0
  9 12  1  0  0  0  0
 10 11  1  0  0  0  0
 10 13  1  0  0  0  0
 11  8  2  0  0  0  0
 13  1  1  6  0  0  0
 13 12  1  0  0  0  0
 14 16  1  0  0  0  0
 15 16  2  0  0  0  0
 15 17  1  0  0  0  0
 16 19  1  0  0  0  0
 17 20  2  0  0  0  0
 19 18  2  0  0  0  0
 20 18  1  0  0  0  0
 22 17  1  0  0  0  0
 22 21  1  0  0  0  0
 23 22  2  0  0  0  0
 24  7  1  0  0  0  0
 25 30  1  0  0  0  0
 26 30  2  0  0  0  0
 27 26  1  0  0  0  0
 28 25  2  0  0  0  0
 29 28  1  0  0  0  0
 29 27  2  0  0  0  0
 30 24  1  0  0  0  0
 31 32  1  0  0  0  0
 31 29  1  0  0  0  0
 32 33  1  0  0  0  0
 33 34  1  0  0  0  0
M  END
>  <MODEL>
1

>  <REMARK>
 VINA RESULT:      -8.9      0.000      0.000
  Name = 
  9 active torsions:
  status: ('A' for Active; 'I' for Inactive)
    1  A    between atoms: C_2  and  C_33
    2  A    between atoms: C_7  and  N_25
    3  A    between atoms: C_8  and  N_25
    4  A    between atoms: C_11  and  C_27
    5  A    between atoms: C_12  and  C_26
    6  A    between atoms: C_12  and  C_34
    7  A    between atoms: C_23  and  C_34
    8  A    between atoms: C_29  and  N_32
    9  A    between atoms: C_31  and  N_32
                            x       y       z     vdW  Elec       q    Type
                         _______ _______ _______ _____ _____    ______ ____

>  <TORSDO>
F 9

$$$$
=
 OpenBabel11032421243D

 34 37  0  0  1  0  0  0  0  0999 V2000
  185.8790  178.6260  142.0010 C   0  0  0  0  0  0  0  0  0  0  0  0
  187.9400  177.4270  141.9220 N   0  0  0  0  0  0  0  0  0  0  0  0
  186.0210  178.9160  140.6340 C   0  0  0  0  0  0  0  0  0  0  0  0
  187.2570  178.5600  138.7020 O   0  0  0  0  0  0  0  0  0  0  0  0
  187.1280  178.3930  139.9440 C   0  0  0  0  0  0  0  0  0  0  0  0
  188.0580  177.6730  140.6190 N   0  0  0  0  0  2  0  0  0  0  0  0
  186.8790  177.8740  142.6450 C   0  0  0  0  0  0  0  0  0  0  0  0
  182.7910  179.0170  144.8540 N   0  0  0  0  0  0  0  0  0  0  0  0
  184.1810  179.0450  145.2580 C   0  0  0  0  0  2  0  0  0  0  0  0
  183.5050  178.1630  142.7080 C   0  0  0  0  0  2  0  0  0  0  0  0
  182.4510  178.6030  143.6810 C   0  0  0  0  0  3  0  0  0  0  0  0
  185.0540  179.6570  144.1540 C   0  0  0  0  0  2  0  0  0  0  0  0
  184.6810  179.1500  142.7450 C   0  0  1  0  0  3  0  0  0  0  0  0
  185.0020  179.6740  139.9600 N   0  0  0  0  0  2  0  0  0  0  0  0
  183.7530  177.7420  139.1470 C   0  0  0  0  0  3  0  0  0  0  0  0
  183.8750  179.1300  139.2630 C   0  0  0  0  0  0  0  0  0  0  0  0
  182.6440  177.1730  138.5060 C   0  0  0  0  0  0  0  0  0  0  0  0
  181.7530  179.3970  138.1140 C   0  0  0  0  0  3  0  0  0  0  0  0
  182.8620  179.9570  138.7540 C   0  0  0  0  0  3  0  0  0  0  0  0
  181.6450  178.0100  137.9880 C   0  0  0  0  0  3  0  0  0  0  0  0
  183.6500  174.9480  138.0660 O   0  0  0  0  0  0  0  0  0  0  0  0
  182.5320  175.7120  138.3820 C   0  0  0  0  0  0  0  0  0  0  0  0
  181.4250  175.1380  138.5600 O   0  0  0  0  0  1  0  0  0  0  0  0
  186.7720  177.5840  144.0490 N   0  0  0  0  0  2  0  0  0  0  0  0
  187.6200  177.6420  146.3810 C   0  0  0  0  0  3  0  0  0  0  0  0
  189.1220  177.1750  144.5440 C   0  0  0  0  0  3  0  0  0  0  0  0
  190.1850  177.0550  145.4430 C   0  0  0  0  0  3  0  0  0  0  0  0
  188.6830  177.5220  147.2820 C   0  0  0  0  0  3  0  0  0  0  0  0
  189.9680  177.2300  146.8130 C   0  0  0  0  0  0  0  0  0  0  0  0
  187.8340  177.4690  145.0050 C   0  0  0  0  0  0  0  0  0  0  0  0
  191.1080  177.1040  147.7690 C   0  0  0  0  0  2  0  0  0  0  0  0
  192.0410  175.9620  147.3830 C   0  0  0  0  0  2  0  0  0  0  0  0
  193.0300  175.6520  148.4950 C   0  0  0  0  0  2  0  0  0  0  0  0
  193.3290  176.8120  149.2090 O   0  0  0  0  0  1  0  0  0  0  0  0
  1  7  1  0  0  0  0
  2  7  2  0  0  0  0
  3  1  2  0  0  0  0
  4  5  2  0  0  0  0
  5  6  1  0  0  0  0
  5  3  1  0  0  0  0
  6  2  1  0  0  0  0
  7 24  1  0  0  0  0
  8  9  1  0  0  0  0
 10 13  1  0  0  0  0
 10 11  1  0  0  0  0
 11  8  2  0  0  0  0
 12  9  1  0  0  0  0
 13  1  1  1  0  0  0
 13 12  1  0  0  0  0
 14  3  1  0  0  0  0
 15 16  1  0  0  0  0
 16 14  1  0  0  0  0
 17 15  2  0  0  0  0
 18 19  1  0  0  0  0
 19 16  2  0  0  0  0
 20 18  2  0  0  0  0
 20 17  1  0  0  0  0
 21 22  2  0  0  0  0
 22 17  1  0  0  0  0
 22 23  1  0  0  0  0
 24 30  1  0  0  0  0
 25 28  1  0  0  0  0
 26 30  1  0  0  0  0
 26 27  2  0  0  0  0
 27 29  1  0  0  0  0
 29 28  2  0  0  0  0
 29 31  1  0  0  0  0
 30 25  2  0  0  0  0
 32 31  1  0  0  0  0
 32 33  1  0  0  0  0
 33 34  1  0  0  0  0
M  END
>  <MODEL>
2

>  <REMARK>
 VINA RESULT:      -8.2      3.363      8.699
  Name = 
  9 active torsions:
  status: ('A' for Active; 'I' for Inactive)
    1  A    between atoms: C_2  and  C_33
    2  A    between atoms: C_7  and  N_25
    3  A    between atoms: C_8  and  N_25
    4  A    between atoms: C_11  and  C_27
    5  A    between atoms: C_12  and  C_26
    6  A    between atoms: C_12  and  C_34
    7  A    between atoms: C_23  and  C_34
    8  A    between atoms: C_29  and  N_32
    9  A    between atoms: C_31  and  N_32
                            x       y       z     vdW  Elec       q    Type
                         _______ _______ _______ _____ _____    ______ ____

>  <TORSDO>
F 9

$$$$
=
 OpenBabel11032421243D

 34 37  0  0  1  0  0  0  0  0999 V2000
  189.3610  177.6670  140.9470 C   0  0  0  0  0  0  0  0  0  0  0  0
  187.2960  178.5600  140.1520 N   0  0  0  0  0  0  0  0  0  0  0  0
  189.8660  177.7270  139.6380 C   0  0  0  0  0  0  0  0  0  0  0  0
  189.4870  178.4040  137.4510 O   0  0  0  0  0  0  0  0  0  0  0  0
  189.0510  178.2580  138.6240 C   0  0  0  0  0  0  0  0  0  0  0  0
  187.7860  178.6480  138.9160 N   0  0  0  0  0  2  0  0  0  0  0  0
  188.0390  178.0860  141.1870 C   0  0  0  0  0  0  0  0  0  0  0  0
  190.9240  176.8640  144.7870 N   0  0  0  0  0  0  0  0  0  0  0  0
  189.5750  176.4690  144.4380 C   0  0  0  0  0  2  0  0  0  0  0  0
  190.9520  178.2560  142.8120 C   0  0  0  0  0  2  0  0  0  0  0  0
  191.5790  177.6980  144.0550 C   0  0  0  0  0  3  0  0  0  0  0  0
  189.4790  176.1260  142.9460 C   0  0  0  0  0  2  0  0  0  0  0  0
  190.2330  177.1320  142.0510 C   0  0  1  0  0  3  0  0  0  0  0  0
  191.2180  177.3130  139.3800 N   0  0  0  0  0  2  0  0  0  0  0  0
  192.9400  176.2510  138.0160 C   0  0  0  0  0  3  0  0  0  0  0  0
  191.6200  176.2780  138.4750 C   0  0  0  0  0  0  0  0  0  0  0  0
  193.3790  175.2310  137.1620 C   0  0  0  0  0  0  0  0  0  0  0  0
  191.1660  174.2360  137.2420 C   0  0  0  0  0  3  0  0  0  0  0  0
  190.7360  175.2560  138.0940 C   0  0  0  0  0  3  0  0  0  0  0  0
  192.4830  174.2240  136.7750 C   0  0  0  0  0  3  0  0  0  0  0  0
  195.3000  176.3390  136.0480 O   0  0  0  0  0  0  0  0  0  0  0  0
  194.7690  175.2190  136.6780 C   0  0  0  0  0  0  0  0  0  0  0  0
  195.4900  174.1980  136.8310 O   0  0  0  0  0  1  0  0  0  0  0  0
  187.4880  178.0120  142.5130 N   0  0  0  0  0  2  0  0  0  0  0  0
  185.0830  178.3300  141.9840 C   0  0  0  0  0  3  0  0  0  0  0  0
  185.8500  178.3830  144.2770 C   0  0  0  0  0  3  0  0  0  0  0  0
  184.5410  178.6100  144.7100 C   0  0  0  0  0  3  0  0  0  0  0  0
  183.7730  178.5570  142.4150 C   0  0  0  0  0  3  0  0  0  0  0  0
  183.5000  178.6990  143.7800 C   0  0  0  0  0  0  0  0  0  0  0  0
  186.1310  178.2430  142.9140 C   0  0  0  0  0  0  0  0  0  0  0  0
  182.1040  178.9440  144.2480 C   0  0  0  0  0  2  0  0  0  0  0  0
  181.1730  179.2770  143.0870 C   0  0  0  0  0  2  0  0  0  0  0  0
  180.0240  178.2840  142.9940 C   0  0  0  0  0  2  0  0  0  0  0  0
  179.3020  178.2710  144.1870 O   0  0  0  0  0  1  0  0  0  0  0  0
  1  7  1  0  0  0  0
  2  7  2  0  0  0  0
  3  1  2  0  0  0  0
  4  5  2  0  0  0  0
  5  6  1  0  0  0  0
  5  3  1  0  0  0  0
  6  2  1  0  0  0  0
  7 24  1  0  0  0  0
  9  8  1  0  0  0  0
 10 11  1  0  0  0  0
 11  8  2  0  0  0  0
 12  9  1  0  0  0  0
 13  1  1  6  0  0  0
 13 10  1  0  0  0  0
 13 12  1  0  0  0  0
 14  3  1  0  0  0  0
 15 16  1  0  0  0  0
 16 14  1  0  0  0  0
 17 15  2  0  0  0  0
 18 19  1  0  0  0  0
 19 16  2  0  0  0  0
 20 17  1  0  0  0  0
 20 18  2  0  0  0  0
 21 22  2  0  0  0  0
 22 23  1  0  0  0  0
 22 17  1  0  0  0  0
 24 30  1  0  0  0  0
 25 28  2  0  0  0  0
 25 30  1  0  0  0  0
 26 27  1  0  0  0  0
 28 29  1  0  0  0  0
 29 31  1  0  0  0  0
 29 27  2  0  0  0  0
 30 26  2  0  0  0  0
 32 31  1  0  0  0  0
 33 32  1  0  0  0  0
 33 34  1  0  0  0  0
M  END
>  <MODEL>
3

>  <REMARK>
 VINA RESULT:      -8.1      3.459      8.219
  Name = 
  9 active torsions:
  status: ('A' for Active; 'I' for Inactive)
    1  A    between atoms: C_2  and  C_33
    2  A    between atoms: C_7  and  N_25
    3  A    between atoms: C_8  and  N_25
    4  A    between atoms: C_11  and  C_27
    5  A    between atoms: C_12  and  C_26
    6  A    between atoms: C_12  and  C_34
    7  A    between atoms: C_23  and  C_34
    8  A    between atoms: C_29  and  N_32
    9  A    between atoms: C_31  and  N_32
                            x       y       z     vdW  Elec       q    Type
                         _______ _______ _______ _____ _____    ______ ____

>  <TORSDO>
F 9

$$$$
=
 OpenBabel11032421243D

 34 37  0  0  1  0  0  0  0  0999 V2000
  188.4720  177.5010  142.3620 C   0  0  0  0  0  0  0  0  0  0  0  0
  188.1960  178.6660  140.2980 N   0  0  0  0  0  0  0  0  0  0  0  0
  187.0910  177.6140  142.5850 C   0  0  0  0  0  0  0  0  0  0  0  0
  185.0420  178.2820  141.7230 O   0  0  0  0  0  0  0  0  0  0  0  0
  186.2950  178.2280  141.6030 C   0  0  0  0  0  0  0  0  0  0  0  0
  186.8810  178.7430  140.4940 N   0  0  0  0  0  2  0  0  0  0  0  0
  189.0210  178.0580  141.1920 C   0  0  0  0  0  0  0  0  0  0  0  0
  191.8540  176.1530  144.5010 N   0  0  0  0  0  0  0  0  0  0  0  0
  191.5840  177.5690  144.3580 C   0  0  0  0  0  2  0  0  0  0  0  0
  190.2280  175.7380  142.7620 C   0  0  0  0  0  2  0  0  0  0  0  0
  191.2460  175.2860  143.7670 C   0  0  0  0  0  3  0  0  0  0  0  0
  190.0730  177.8270  144.2890 C   0  0  0  0  0  2  0  0  0  0  0  0
  189.3320  176.8150  143.3900 C   0  0  1  0  0  3  0  0  0  0  0  0
  186.5150  177.0400  143.7710 N   0  0  0  0  0  2  0  0  0  0  0  0
  187.2570  177.5310  146.0430 C   0  0  0  0  0  3  0  0  0  0  0  0
  186.3220  177.7140  145.0200 C   0  0  0  0  0  0  0  0  0  0  0  0
  187.1210  178.2050  147.2650 C   0  0  0  0  0  0  0  0  0  0  0  0
  185.1110  179.2780  146.4290 C   0  0  0  0  0  3  0  0  0  0  0  0
  185.2530  178.6030  145.2140 C   0  0  0  0  0  3  0  0  0  0  0  0
  186.0400  179.0780  147.4520 C   0  0  0  0  0  3  0  0  0  0  0  0
  189.4490  178.2900  148.1220 O   0  0  0  0  0  0  0  0  0  0  0  0
  188.1070  177.9950  148.3360 C   0  0  0  0  0  0  0  0  0  0  0  0
  187.7470  177.5480  149.4580 O   0  0  0  0  0  1  0  0  0  0  0  0
  190.4350  177.9790  140.9500 N   0  0  0  0  0  2  0  0  0  0  0  0
  190.4240  176.4140  139.0220 C   0  0  0  0  0  3  0  0  0  0  0  0
  192.4940  177.4110  139.7780 C   0  0  0  0  0  3  0  0  0  0  0  0
  193.1890  176.7280  138.7760 C   0  0  0  0  0  3  0  0  0  0  0  0
  191.1180  175.7300  138.0200 C   0  0  0  0  0  3  0  0  0  0  0  0
  192.5030  175.8840  137.8970 C   0  0  0  0  0  0  0  0  0  0  0  0
  191.1090  177.2600  139.9090 C   0  0  0  0  0  0  0  0  0  0  0  0
  193.2500  175.1540  136.8310 C   0  0  0  0  0  2  0  0  0  0  0  0
  193.5880  173.7300  137.2560 C   0  0  0  0  0  2  0  0  0  0  0  0
  194.7940  173.6980  138.1820 C   0  0  0  0  0  2  0  0  0  0  0  0
  195.9730  173.7660  137.4390 O   0  0  0  0  0  1  0  0  0  0  0  0
  1  3  2  0  0  0  0
  2  6  1  0  0  0  0
  2  7  2  0  0  0  0
  3 14  1  0  0  0  0
  5  4  2  0  0  0  0
  5  3  1  0  0  0  0
  6  5  1  0  0  0  0
  7  1  1  0  0  0  0
  9  8  1  0  0  0  0
 10 13  1  0  0  0  0
 10 11  1  0  0  0  0
 11  8  2  0  0  0  0
 12  9  1  0  0  0  0
 13  1  1  6  0  0  0
 13 12  1  0  0  0  0
 14 16  1  0  0  0  0
 15 17  1  0  0  0  0
 16 19  1  0  0  0  0
 16 15  2  0  0  0  0
 17 20  2  0  0  0  0
 17 22  1  0  0  0  0
 18 20  1  0  0  0  0
 19 18  2  0  0  0  0
 21 22  2  0  0  0  0
 22 23  1  0  0  0  0
 24  7  1  0  0  0  0
 25 30  1  0  0  0  0
 26 30  2  0  0  0  0
 27 26  1  0  0  0  0
 28 25  2  0  0  0  0
 29 28  1  0  0  0  0
 29 27  2  0  0  0  0
 30 24  1  0  0  0  0
 31 32  1  0  0  0  0
 31 29  1  0  0  0  0
 32 33  1  0  0  0  0
 34 33  1  0  0  0  0
M  END
>  <MODEL>
4

>  <REMARK>
 VINA RESULT:      -8.1      2.292      2.909
  Name = 
  9 active torsions:
  status: ('A' for Active; 'I' for Inactive)
    1  A    between atoms: C_2  and  C_33
    2  A    between atoms: C_7  and  N_25
    3  A    between atoms: C_8  and  N_25
    4  A    between atoms: C_11  and  C_27
    5  A    between atoms: C_12  and  C_26
    6  A    between atoms: C_12  and  C_34
    7  A    between atoms: C_23  and  C_34
    8  A    between atoms: C_29  and  N_32
    9  A    between atoms: C_31  and  N_32
                            x       y       z     vdW  Elec       q    Type
                         _______ _______ _______ _____ _____    ______ ____

>  <TORSDO>
F 9

$$$$
=
 OpenBabel11032421243D

 34 37  0  0  1  0  0  0  0  0999 V2000
  186.2390  178.1420  142.2880 C   0  0  0  0  0  0  0  0  0  0  0  0
  187.5120  178.7720  140.3710 N   0  0  0  0  0  0  0  0  0  0  0  0
  187.3350  177.3910  142.7420 C   0  0  0  0  0  0  0  0  0  0  0  0
  189.5540  176.8090  142.3950 O   0  0  0  0  0  0  0  0  0  0  0  0
  188.5200  177.4020  141.9890 C   0  0  0  0  0  0  0  0  0  0  0  0
  188.5640  178.0880  140.8190 N   0  0  0  0  0  2  0  0  0  0  0  0
  186.3450  178.8310  141.0650 C   0  0  0  0  0  0  0  0  0  0  0  0
  182.4080  179.2110  143.7080 N   0  0  0  0  0  0  0  0  0  0  0  0
  182.5910  178.7460  142.3490 C   0  0  0  0  0  2  0  0  0  0  0  0
  184.8040  179.4920  143.8610 C   0  0  0  0  0  2  0  0  0  0  0  0
  183.4170  179.5720  144.4250 C   0  0  0  0  0  3  0  0  0  0  0  0
  183.7450  177.7370  142.2730 C   0  0  0  0  0  2  0  0  0  0  0  0
  184.9730  178.1670  143.1020 C   0  0  1  0  0  3  0  0  0  0  0  0
  187.2450  176.6910  143.9950 N   0  0  0  0  0  2  0  0  0  0  0  0
  189.1730  176.8840  145.4770 C   0  0  0  0  0  3  0  0  0  0  0  0
  187.8160  177.1180  145.2370 C   0  0  0  0  0  0  0  0  0  0  0  0
  189.7750  177.3220  146.6640 C   0  0  0  0  0  0  0  0  0  0  0  0
  187.6520  178.2630  147.3720 C   0  0  0  0  0  3  0  0  0  0  0  0
  187.0590  177.8230  146.1860 C   0  0  0  0  0  3  0  0  0  0  0  0
  189.0050  178.0110  147.6120 C   0  0  0  0  0  3  0  0  0  0  0  0
  191.7330  177.2080  148.1850 O   0  0  0  0  0  1  0  0  0  0  0  0
  191.2020  177.0600  146.9080 C   0  0  0  0  0  0  0  0  0  0  0  0
  191.9570  176.7000  145.9660 O   0  0  0  0  0  0  0  0  0  0  0  0
  185.2300  179.5860  140.5640 N   0  0  0  0  0  2  0  0  0  0  0  0
  183.1700  179.9670  139.2300 C   0  0  0  0  0  3  0  0  0  0  0  0
  184.6310  178.1070  138.7230 C   0  0  0  0  0  3  0  0  0  0  0  0
  183.7820  177.7250  137.6810 C   0  0  0  0  0  3  0  0  0  0  0  0
  182.3200  179.5850  138.1880 C   0  0  0  0  0  3  0  0  0  0  0  0
  182.6240  178.4610  137.4120 C   0  0  0  0  0  0  0  0  0  0  0  0
  184.3320  179.2290  139.5040 C   0  0  0  0  0  0  0  0  0  0  0  0
  181.7200  178.0460  136.3000 C   0  0  0  0  0  2  0  0  0  0  0  0
  181.3530  176.5700  136.3950 C   0  0  0  0  0  2  0  0  0  0  0  0
  180.2660  176.3320  137.4310 C   0  0  0  0  0  2  0  0  0  0  0  0
  180.7950  175.6680  138.5380 O   0  0  0  0  0  1  0  0  0  0  0  0
  1  3  2  0  0  0  0
  2  6  1  0  0  0  0
  2  7  2  0  0  0  0
  3 14  1  0  0  0  0
  5  4  2  0  0  0  0
  5  3  1  0  0  0  0
  6  5  1  0  0  0  0
  7  1  1  0  0  0  0
  8 11  2  0  0  0  0
  9  8  1  0  0  0  0
 10 11  1  0  0  0  0
 12  9  1  0  0  0  0
 12 13  1  0  0  0  0
 13  1  1  6  0  0  0
 13 10  1  0  0  0  0
 14 16  1  0  0  0  0
 15 17  1  0  0  0  0
 16 15  2  0  0  0  0
 16 19  1  0  0  0  0
 17 22  1  0  0  0  0
 17 20  2  0  0  0  0
 18 20  1  0  0  0  0
 19 18  2  0  0  0  0
 22 21  1  0  0  0  0
 23 22  2  0  0  0  0
 24  7  1  0  0  0  0
 25 30  1  0  0  0  0
 26 30  2  0  0  0  0
 27 26  1  0  0  0  0
 28 25  2  0  0  0  0
 29 27  2  0  0  0  0
 29 28  1  0  0  0  0
 30 24  1  0  0  0  0
 31 32  1  0  0  0  0
 31 29  1  0  0  0  0
 32 33  1  0  0  0  0
 33 34  1  0  0  0  0
M  END
>  <MODEL>
5

>  <REMARK>
 VINA RESULT:      -8.1      3.338      5.311
  Name = 
  9 active torsions:
  status: ('A' for Active; 'I' for Inactive)
    1  A    between atoms: C_2  and  C_33
    2  A    between atoms: C_7  and  N_25
    3  A    between atoms: C_8  and  N_25
    4  A    between atoms: C_11  and  C_27
    5  A    between atoms: C_12  and  C_26
    6  A    between atoms: C_12  and  C_34
    7  A    between atoms: C_23  and  C_34
    8  A    between atoms: C_29  and  N_32
    9  A    between atoms: C_31  and  N_32
                            x       y       z     vdW  Elec       q    Type
                         _______ _______ _______ _____ _____    ______ ____

>  <TORSDO>
F 9

$$$$
=
 OpenBabel11032421243D

 34 37  0  0  1  0  0  0  0  0999 V2000
  184.5080  178.2670  138.9030 C   0  0  0  0  0  0  0  0  0  0  0  0
  186.5740  178.7500  139.9950 N   0  0  0  0  0  0  0  0  0  0  0  0
  185.2200  177.9930  137.7240 C   0  0  0  0  0  0  0  0  0  0  0  0
  187.3090  177.7580  136.7400 O   0  0  0  0  0  0  0  0  0  0  0  0
  186.6230  178.0700  137.7500 C   0  0  0  0  0  0  0  0  0  0  0  0
  187.2520  178.4580  138.8870 N   0  0  0  0  0  2  0  0  0  0  0  0
  185.2180  178.6660  140.0510 C   0  0  0  0  0  0  0  0  0  0  0  0
  180.4840  178.3180  140.1830 N   0  0  0  0  0  0  0  0  0  0  0  0
  181.2950  179.5160  140.2390 C   0  0  0  0  0  2  0  0  0  0  0  0
  182.5120  177.0470  139.8410 C   0  0  0  0  0  2  0  0  0  0  0  0
  181.0250  177.1610  140.0100 C   0  0  0  0  0  3  0  0  0  0  0  0
  182.3270  179.5260  139.1030 C   0  0  0  0  0  2  0  0  0  0  0  0
  183.0070  178.1550  138.9010 C   0  0  1  0  0  3  0  0  0  0  0  0
  184.5100  177.5740  136.5470 N   0  0  0  0  0  2  0  0  0  0  0  0
  184.4380  175.1630  136.9170 C   0  0  0  0  0  3  0  0  0  0  0  0
  183.8600  176.3100  136.3660 C   0  0  0  0  0  0  0  0  0  0  0  0
  183.8100  173.9160  136.7930 C   0  0  0  0  0  0  0  0  0  0  0  0
  181.9940  174.9720  135.5770 C   0  0  0  0  0  3  0  0  0  0  0  0
  182.6250  176.2110  135.7050 C   0  0  0  0  0  3  0  0  0  0  0  0
  182.5850  173.8270  136.1170 C   0  0  0  0  0  3  0  0  0  0  0  0
  185.6130  172.8190  138.0980 O   0  0  0  0  0  1  0  0  0  0  0  0
  184.4340  172.7150  137.3700 C   0  0  0  0  0  0  0  0  0  0  0  0
  183.9060  171.5820  137.2110 O   0  0  0  0  0  0  0  0  0  0  0  0
  184.5120  178.9770  141.2640 N   0  0  0  0  0  2  0  0  0  0  0  0
  186.1300  178.0620  142.9100 C   0  0  0  0  0  3  0  0  0  0  0  0
  184.1210  179.1800  143.6590 C   0  0  0  0  0  3  0  0  0  0  0  0
  184.4950  178.9610  144.9880 C   0  0  0  0  0  3  0  0  0  0  0  0
  186.5050  177.8420  144.2380 C   0  0  0  0  0  3  0  0  0  0  0  0
  185.6870  178.2900  145.2800 C   0  0  0  0  0  0  0  0  0  0  0  0
  184.9330  178.7320  142.6120 C   0  0  0  0  0  0  0  0  0  0  0  0
  186.0800  178.0570  146.7010 C   0  0  0  0  0  2  0  0  0  0  0  0
  187.5460  177.6580  146.8200 C   0  0  0  0  0  2  0  0  0  0  0  0
  187.9990  177.6290  148.2710 C   0  0  0  0  0  2  0  0  0  0  0  0
  189.0920  178.4780  148.4510 O   0  0  0  0  0  1  0  0  0  0  0  0
  1  7  1  0  0  0  0
  2  7  2  0  0  0  0
  3  5  1  0  0  0  0
  3  1  2  0  0  0  0
  4  5  2  0  0  0  0
  5  6  1  0  0  0  0
  6  2  1  0  0  0  0
  7 24  1  0  0  0  0
  8  9  1  0  0  0  0
 10 11  1  0  0  0  0
 11  8  2  0  0  0  0
 12  9  1  0  0  0  0
 13  1  1  1  0  0  0
 13 12  1  0  0  0  0
 13 10  1  0  0  0  0
 14  3  1  0  0  0  0
 16 14  1  0  0  0  0
 16 15  2  0  0  0  0
 17 15  1  0  0  0  0
 17 22  1  0  0  0  0
 18 19  2  0  0  0  0
 18 20  1  0  0  0  0
 19 16  1  0  0  0  0
 20 17  2  0  0  0  0
 22 21  1  0  0  0  0
 23 22  2  0  0  0  0
 24 30  1  0  0  0  0
 25 28  1  0  0  0  0
 26 27  2  0  0  0  0
 27 29  1  0  0  0  0
 28 29  2  0  0  0  0
 29 31  1  0  0  0  0
 30 25  2  0  0  0  0
 30 26  1  0  0  0  0
 31 32  1  0  0  0  0
 32 33  1  0  0  0  0
 33 34  1  0  0  0  0
M  END
>  <MODEL>
6

>  <REMARK>
 VINA RESULT:      -7.9      4.048      9.634
  Name = 
  9 active torsions:
  status: ('A' for Active; 'I' for Inactive)
    1  A    between atoms: C_2  and  C_33
    2  A    between atoms: C_7  and  N_25
    3  A    between atoms: C_8  and  N_25
    4  A    between atoms: C_11  and  C_27
    5  A    between atoms: C_12  and  C_26
    6  A    between atoms: C_12  and  C_34
    7  A    between atoms: C_23  and  C_34
    8  A    between atoms: C_29  and  N_32
    9  A    between atoms: C_31  and  N_32
                            x       y       z     vdW  Elec       q    Type
                         _______ _______ _______ _____ _____    ______ ____

>  <TORSDO>
F 9

$$$$
=
 OpenBabel11032421243D

 34 37  0  0  1  0  0  0  0  0999 V2000
  185.7960  178.7020  141.8140 C   0  0  0  0  0  0  0  0  0  0  0  0
  187.8660  177.5150  141.7800 N   0  0  0  0  0  0  0  0  0  0  0  0
  185.9650  178.9910  140.4500 C   0  0  0  0  0  0  0  0  0  0  0  0
  187.2430  178.6410  138.5450 O   0  0  0  0  0  0  0  0  0  0  0  0
  187.0890  178.4740  139.7840 C   0  0  0  0  0  0  0  0  0  0  0  0
  188.0090  177.7600  140.4780 N   0  0  0  0  0  2  0  0  0  0  0  0
  186.7870  177.9560  142.4800 C   0  0  0  0  0  0  0  0  0  0  0  0
  182.6100  179.0420  144.5640 N   0  0  0  0  0  0  0  0  0  0  0  0
  183.9840  179.0300  145.0200 C   0  0  0  0  0  2  0  0  0  0  0  0
  183.3900  178.2560  142.4160 C   0  0  0  0  0  2  0  0  0  0  0  0
  182.3080  178.6780  143.3650 C   0  0  0  0  0  3  0  0  0  0  0  0
  184.9080  179.6670  143.9730 C   0  0  0  0  0  2  0  0  0  0  0  0
  184.5790  179.2190  142.5330 C   0  0  1  0  0  3  0  0  0  0  0  0
  184.9560  179.7410  139.7550 N   0  0  0  0  0  2  0  0  0  0  0  0
  182.7630  180.0400  138.7260 C   0  0  0  0  0  3  0  0  0  0  0  0
  183.8160  179.1920  139.0820 C   0  0  0  0  0  0  0  0  0  0  0  0
  181.6510  179.5460  138.0320 C   0  0  0  0  0  0  0  0  0  0  0  0
  182.6600  177.3380  138.0230 C   0  0  0  0  0  3  0  0  0  0  0  0
  183.7660  177.8390  138.7140 C   0  0  0  0  0  3  0  0  0  0  0  0
  181.6050  178.1880  137.6840 C   0  0  0  0  0  3  0  0  0  0  0  0
  179.6670  180.9030  138.6480 O   0  0  0  0  0  1  0  0  0  0  0  0
  180.5450  180.4470  137.6720 C   0  0  0  0  0  0  0  0  0  0  0  0
  180.3820  180.8140  136.4770 O   0  0  0  0  0  0  0  0  0  0  0  0
  186.6530  177.6680  143.8810 N   0  0  0  0  0  2  0  0  0  0  0  0
  187.4320  177.4330  146.2270 C   0  0  0  0  0  3  0  0  0  0  0  0
  189.0230  177.4660  144.4060 C   0  0  0  0  0  3  0  0  0  0  0  0
  190.0720  177.3250  145.3190 C   0  0  0  0  0  3  0  0  0  0  0  0
  188.4800  177.2920  147.1420 C   0  0  0  0  0  3  0  0  0  0  0  0
  189.8030  177.2400  146.6890 C   0  0  0  0  0  0  0  0  0  0  0  0
  187.6980  177.5220  144.8520 C   0  0  0  0  0  0  0  0  0  0  0  0
  190.9260  177.0910  147.6600 C   0  0  0  0  0  2  0  0  0  0  0  0
  191.8020  175.8890  147.3270 C   0  0  0  0  0  2  0  0  0  0  0  0
  192.9510  175.7480  148.3130 C   0  0  0  0  0  2  0  0  0  0  0  0
  192.9880  176.8490  149.1690 O   0  0  0  0  0  1  0  0  0  0  0  0
  1  7  1  0  0  0  0
  2  7  2  0  0  0  0
  3  1  2  0  0  0  0
  4  5  2  0  0  0  0
  5  3  1  0  0  0  0
  5  6  1  0  0  0  0
  6  2  1  0  0  0  0
  7 24  1  0  0  0  0
  8  9  1  0  0  0  0
 10 13  1  0  0  0  0
 10 11  1  0  0  0  0
 11  8  2  0  0  0  0
 12  9  1  0  0  0  0
 13  1  1  1  0  0  0
 13 12  1  0  0  0  0
 14  3  1  0  0  0  0
 15 16  1  0  0  0  0
 16 14  1  0  0  0  0
 17 15  2  0  0  0  0
 18 19  1  0  0  0  0
 19 16  2  0  0  0  0
 20 18  2  0  0  0  0
 20 17  1  0  0  0  0
 22 17  1  0  0  0  0
 22 21  1  0  0  0  0
 23 22  2  0  0  0  0
 24 30  1  0  0  0  0
 25 28  1  0  0  0  0
 26 30  1  0  0  0  0
 26 27  2  0  0  0  0
 27 29  1  0  0  0  0
 29 28  2  0  0  0  0
 29 31  1  0  0  0  0
 30 25  2  0  0  0  0
 32 31  1  0  0  0  0
 32 33  1  0  0  0  0
 33 34  1  0  0  0  0
M  END
>  <MODEL>
7

>  <REMARK>
 VINA RESULT:      -7.9      3.697      9.128
  Name = 
  9 active torsions:
  status: ('A' for Active; 'I' for Inactive)
    1  A    between atoms: C_2  and  C_33
    2  A    between atoms: C_7  and  N_25
    3  A    between atoms: C_8  and  N_25
    4  A    between atoms: C_11  and  C_27
    5  A    between atoms: C_12  and  C_26
    6  A    between atoms: C_12  and  C_34
    7  A    between atoms: C_23  and  C_34
    8  A    between atoms: C_29  and  N_32
    9  A    between atoms: C_31  and  N_32
                            x       y       z     vdW  Elec       q    Type
                         _______ _______ _______ _____ _____    ______ ____

>  <TORSDO>
F 9

$$$$
=
 OpenBabel11032421243D

 34 37  0  0  1  0  0  0  0  0999 V2000
  182.7830  178.9230  141.3850 C   0  0  0  0  0  0  0  0  0  0  0  0
  185.1360  179.2760  141.5730 N   0  0  0  0  0  0  0  0  0  0  0  0
  182.9000  179.0390  139.9910 C   0  0  0  0  0  0  0  0  0  0  0  0
  184.3400  179.2620  138.1840 O   0  0  0  0  0  0  0  0  0  0  0  0
  184.1750  179.2300  139.4330 C   0  0  0  0  0  0  0  0  0  0  0  0
  185.2510  179.3520  140.2490 N   0  0  0  0  0  2  0  0  0  0  0  0
  183.9380  179.0600  142.1790 C   0  0  0  0  0  0  0  0  0  0  0  0
  179.3490  179.3400  143.8060 N   0  0  0  0  0  0  0  0  0  0  0  0
  179.7530  180.3980  142.9040 C   0  0  0  0  0  2  0  0  0  0  0  0
  181.5230  178.3340  143.4870 C   0  0  0  0  0  2  0  0  0  0  0  0
  180.1550  178.3780  144.1000 C   0  0  0  0  0  3  0  0  0  0  0  0
  180.4370  179.8170  141.6590 C   0  0  0  0  0  2  0  0  0  0  0  0
  181.4280  178.6830  141.9950 C   0  0  1  0  0  3  0  0  0  0  0  0
  181.7320  178.8900  139.1670 N   0  0  0  0  0  2  0  0  0  0  0  0
  181.3130  181.1460  138.3360 C   0  0  0  0  0  3  0  0  0  0  0  0
  181.3360  179.7670  138.1060 C   0  0  0  0  0  0  0  0  0  0  0  0
  180.9700  182.0370  137.3100 C   0  0  0  0  0  0  0  0  0  0  0  0
  180.6930  180.1590  135.7970 C   0  0  0  0  0  3  0  0  0  0  0  0
  181.0370  179.2770  136.8250 C   0  0  0  0  0  3  0  0  0  0  0  0
  180.6570  181.5340  136.0390 C   0  0  0  0  0  3  0  0  0  0  0  0
  182.0860  184.2520  137.3910 O   0  0  0  0  0  0  0  0  0  0  0  0
  180.9410  183.4850  137.5690 C   0  0  0  0  0  0  0  0  0  0  0  0
  179.8790  184.0440  137.9530 O   0  0  0  0  0  1  0  0  0  0  0  0
  183.8440  178.9700  143.6100 N   0  0  0  0  0  2  0  0  0  0  0  0
  184.8280  178.9990  145.8900 C   0  0  0  0  0  3  0  0  0  0  0  0
  185.9740  177.8840  144.0750 C   0  0  0  0  0  3  0  0  0  0  0  0
  187.0050  177.5250  144.9470 C   0  0  0  0  0  3  0  0  0  0  0  0
  185.8590  178.6410  146.7620 C   0  0  0  0  0  3  0  0  0  0  0  0
  186.9520  177.9050  146.2920 C   0  0  0  0  0  0  0  0  0  0  0  0
  184.8800  178.6230  144.5380 C   0  0  0  0  0  0  0  0  0  0  0  0
  188.0570  177.5210  147.2180 C   0  0  0  0  0  2  0  0  0  0  0  0
  189.4130  177.5640  146.5230 C   0  0  0  0  0  2  0  0  0  0  0  0
  190.4100  176.6300  147.1900 C   0  0  0  0  0  2  0  0  0  0  0  0
  191.7140  177.0340  146.9030 O   0  0  0  0  0  1  0  0  0  0  0  0
  1  7  1  0  0  0  0
  2  7  2  0  0  0  0
  3  1  2  0  0  0  0
  4  5  2  0  0  0  0
  5  3  1  0  0  0  0
  5  6  1  0  0  0  0
  6  2  1  0  0  0  0
  7 24  1  0  0  0  0
  8 11  2  0  0  0  0
  9  8  1  0  0  0  0
 10 11  1  0  0  0  0
 12 13  1  0  0  0  0
 12  9  1  0  0  0  0
 13  1  1  1  0  0  0
 13 10  1  0  0  0  0
 14  3  1  0  0  0  0
 16 15  1  0  0  0  0
 16 14  1  0  0  0  0
 17 22  1  0  0  0  0
 17 15  2  0  0  0  0
 18 20  2  0  0  0  0
 18 19  1  0  0  0  0
 19 16  2  0  0  0  0
 20 17  1  0  0  0  0
 21 22  2  0  0  0  0
 22 23  1  0  0  0  0
 24 30  1  0  0  0  0
 25 28  1  0  0  0  0
 26 30  1  0  0  0  0
 26 27  2  0  0  0  0
 27 29  1  0  0  0  0
 29 28  2  0  0  0  0
 29 31  1  0  0  0  0
 30 25  2  0  0  0  0
 32 33  1  0  0  0  0
 32 31  1  0  0  0  0
 34 33  1  0  0  0  0
M  END
>  <MODEL>
8

>  <REMARK>
 VINA RESULT:      -7.7      5.079     10.176
  Name = 
  9 active torsions:
  status: ('A' for Active; 'I' for Inactive)
    1  A    between atoms: C_2  and  C_33
    2  A    between atoms: C_7  and  N_25
    3  A    between atoms: C_8  and  N_25
    4  A    between atoms: C_11  and  C_27
    5  A    between atoms: C_12  and  C_26
    6  A    between atoms: C_12  and  C_34
    7  A    between atoms: C_23  and  C_34
    8  A    between atoms: C_29  and  N_32
    9  A    between atoms: C_31  and  N_32
                            x       y       z     vdW  Elec       q    Type
                         _______ _______ _______ _____ _____    ______ ____

>  <TORSDO>
F 9

$$$$
=
 OpenBabel11032421243D

 34 37  0  0  1  0  0  0  0  0999 V2000
  188.7870  177.5610  139.5540 C   0  0  0  0  0  0  0  0  0  0  0  0
  190.5710  176.2690  140.4720 N   0  0  0  0  0  0  0  0  0  0  0  0
  188.5500  178.0980  140.8290 C   0  0  0  0  0  0  0  0  0  0  0  0
  189.2640  178.2310  143.0330 O   0  0  0  0  0  0  0  0  0  0  0  0
  189.3880  177.7170  141.8900 C   0  0  0  0  0  0  0  0  0  0  0  0
  190.3670  176.8040  141.6740 N   0  0  0  0  0  2  0  0  0  0  0  0
  189.8180  176.6160  139.3940 C   0  0  0  0  0  0  0  0  0  0  0  0
  187.1550  177.8840  135.6730 N   0  0  0  0  0  0  0  0  0  0  0  0
  187.1630  176.6150  136.3700 C   0  0  0  0  0  2  0  0  0  0  0  0
  188.7210  178.7160  137.3150 C   0  0  0  0  0  2  0  0  0  0  0  0
  187.8760  178.8690  136.0850 C   0  0  0  0  0  3  0  0  0  0  0  0
  187.0380  176.8280  137.8850 C   0  0  0  0  0  2  0  0  0  0  0  0
  187.9180  177.9860  138.4010 C   0  0  1  0  0  3  0  0  0  0  0  0
  187.5080  179.0730  141.0060 N   0  0  0  0  0  2  0  0  0  0  0  0
  186.0280  178.8300  142.9300 C   0  0  0  0  0  3  0  0  0  0  0  0
  186.2050  178.8190  141.5440 C   0  0  0  0  0  0  0  0  0  0  0  0
  184.7600  178.6250  143.4910 C   0  0  0  0  0  0  0  0  0  0  0  0
  183.8260  178.4220  141.2600 C   0  0  0  0  0  3  0  0  0  0  0  0
  185.0930  178.6270  140.7080 C   0  0  0  0  0  3  0  0  0  0  0  0
  183.6600  178.4190  142.6470 C   0  0  0  0  0  3  0  0  0  0  0  0
  185.6290  178.2200  145.7800 O   0  0  0  0  0  1  0  0  0  0  0  0
  184.5900  178.6290  144.9530 C   0  0  0  0  0  0  0  0  0  0  0  0
  183.5020  179.0030  145.4690 O   0  0  0  0  0  0  0  0  0  0  0  0
  190.0660  176.0310  138.1050 N   0  0  0  0  0  2  0  0  0  0  0  0
  191.4930  174.1960  137.2320 C   0  0  0  0  0  3  0  0  0  0  0  0
  192.3730  176.4390  137.4370 C   0  0  0  0  0  3  0  0  0  0  0  0
  193.6030  176.0020  136.9370 C   0  0  0  0  0  3  0  0  0  0  0  0
  192.7220  173.7580  136.7320 C   0  0  0  0  0  3  0  0  0  0  0  0
  193.7810  174.6600  136.5860 C   0  0  0  0  0  0  0  0  0  0  0  0
  191.3110  175.5410  137.5880 C   0  0  0  0  0  0  0  0  0  0  0  0
  195.0970  174.1990  136.0550 C   0  0  0  0  0  2  0  0  0  0  0  0
  196.2180  174.4180  137.0650 C   0  0  0  0  0  2  0  0  0  0  0  0
  197.4710  174.9620  136.3960 C   0  0  0  0  0  2  0  0  0  0  0  0
  197.3050  176.3140  136.0930 O   0  0  0  0  0  1  0  0  0  0  0  0
  1  3  2  0  0  0  0
  2  6  1  0  0  0  0
  3 14  1  0  0  0  0
  3  5  1  0  0  0  0
  5  4  2  0  0  0  0
  6  5  1  0  0  0  0
  7  1  1  0  0  0  0
  7  2  2  0  0  0  0
  8 11  2  0  0  0  0
  8  9  1  0  0  0  0
  9 12  1  0  0  0  0
 10 13  1  0  0  0  0
 11 10  1  0  0  0  0
 12 13  1  0  0  0  0
 13  1  1  1  0  0  0
 14 16  1  0  0  0  0
 15 17  1  0  0  0  0
 16 15  2  0  0  0  0
 17 22  1  0  0  0  0
 18 20  1  0  0  0  0
 19 18  2  0  0  0  0
 19 16  1  0  0  0  0
 20 17  2  0  0  0  0
 22 23  2  0  0  0  0
 22 21  1  0  0  0  0
 24  7  1  0  0  0  0
 25 30  1  0  0  0  0
 26 30  2  0  0  0  0
 27 26  1  0  0  0  0
 28 25  2  0  0  0  0
 29 28  1  0  0  0  0
 29 27  2  0  0  0  0
 30 24  1  0  0  0  0
 31 29  1  0  0  0  0
 31 32  1  0  0  0  0
 33 32  1  0  0  0  0
 34 33  1  0  0  0  0
M  END
>  <MODEL>
9

>  <REMARK>
 VINA RESULT:      -7.7      3.246      6.103
  Name = 
  9 active torsions:
  status: ('A' for Active; 'I' for Inactive)
    1  A    between atoms: C_2  and  C_33
    2  A    between atoms: C_7  and  N_25
    3  A    between atoms: C_8  and  N_25
    4  A    between atoms: C_11  and  C_27
    5  A    between atoms: C_12  and  C_26
    6  A    between atoms: C_12  and  C_34
    7  A    between atoms: C_23  and  C_34
    8  A    between atoms: C_29  and  N_32
    9  A    between atoms: C_31  and  N_32
                            x       y       z     vdW  Elec       q    Type
                         _______ _______ _______ _____ _____    ______ ____

>  <TORSDO>
F 9

$$$$
