=
 OpenBabel11042410063D

 54 59  0  0  1  0  0  0  0  0999 V2000
  184.3540  178.2750  144.1190 C   0  0  2  0  0  3  0  0  0  0  0  0
  183.2610  177.9550  141.8250 C   0  0  0  0  0  2  0  0  0  0  0  0
  186.3000  178.5930  146.2940 C   0  0  2  0  0  3  0  0  0  0  0  0
  183.9300  178.7370  145.5160 C   0  0  0  0  0  2  0  0  0  0  0  0
  185.6590  178.8070  141.3170 C   0  0  0  0  0  2  0  0  0  0  0  0
  184.4000  178.0880  140.7950 C   0  0  2  0  0  3  0  0  0  0  0  0
  183.0500  180.0730  143.0200 C   0  0  0  0  0  2  0  0  0  0  0  0
  184.8630  178.1590  146.5700 C   0  0  0  0  0  2  0  0  0  0  0  0
  185.8200  178.6430  143.8220 C   0  0  2  0  0  3  0  0  0  0  0  0
  186.2870  178.0640  142.4890 C   0  0  0  0  0  2  0  0  0  0  0  0
  186.7320  178.0930  144.9180 C   0  0  0  0  0  2  0  0  0  0  0  0
  183.4190  178.7900  143.0580 C   0  0  0  0  0  0  0  0  0  0  0  0
  185.2390  178.2300  137.6220 C   0  0  2  0  0  3  0  0  0  0  0  0
  183.8830  178.7100  139.4810 C   0  0  1  0  0  3  0  0  0  0  0  0
  181.1390  177.6230  139.7260 O   0  0  0  0  0  0  0  0  0  0  0  0
  185.0050  179.2120  138.6840 N   0  0  0  0  0  2  0  0  0  0  0  0
  181.4760  173.7960  136.2200 C   0  0  0  0  0  2  0  0  0  0  0  0
  181.5010  174.7610  135.0440 C   0  0  0  0  0  2  0  0  0  0  0  0
  183.2150  177.7080  138.6590 N   0  0  0  0  0  0  0  0  0  0  0  0
  181.7870  175.6050  138.6340 C   0  0  0  0  0  2  0  0  0  0  0  0
  182.5000  175.7920  135.2760 N   0  0  0  0  0  2  0  0  0  0  0  0
  183.2350  178.0130  136.2280 C   0  0  0  0  0  2  0  0  0  0  0  0
  182.0040  177.0310  139.0270 C   0  0  0  0  0  0  0  0  0  0  0  0
  183.9600  177.4410  137.4450 C   0  0  1  0  0  3  0  0  0  0  0  0
  180.3310  174.0970  137.1870 C   0  0  2  0  0  3  0  0  0  0  0  0
  180.9660  177.4910  135.7480 O   0  0  0  0  0  0  0  0  0  0  0  0
  182.1650  177.1000  135.7410 C   0  0  0  0  0  0  0  0  0  0  0  0
  180.4610  175.4470  137.8970 C   0  0  0  0  0  2  0  0  0  0  0  0
  179.7830  173.2200  139.3490 O   0  0  0  0  0  0  0  0  0  0  0  0
  180.1380  172.9780  138.1610 C   0  0  0  0  0  0  0  0  0  0  0  0
  180.3420  171.6670  137.7350 O   0  0  0  0  0  0  0  0  0  0  0  0
  179.5230  171.0640  136.7460 C   0  0  0  0  0  1  0  0  0  0  0  0
  186.3680  177.2860  138.0210 C   0  0  0  0  0  2  0  0  0  0  0  0
  187.6970  178.0220  138.0820 C   0  0  0  0  0  2  0  0  0  0  0  0
  188.4600  177.6300  139.3360 C   0  0  0  0  0  2  0  0  0  0  0  0
  189.8350  177.0950  138.9780 C   0  0  0  0  0  2  0  0  0  0  0  0
  190.1000  177.2640  137.4940 C   0  0  0  0  0  1  0  0  0  0  0  0
  187.2200  178.0030  147.3500 C   0  0  0  0  0  2  0  0  0  0  0  0
  190.5220  177.2030  142.5760 O   0  0  0  0  0  1  0  0  0  0  0  0
  189.5420  177.1710  147.7670 C   0  0  0  0  0  0  0  0  0  0  0  0
  190.3150  177.9670  143.7300 C   0  0  1  0  0  0  0  0  0  0  0  0
  190.3510  179.4820  143.5970 C   0  0  0  0  0  1  0  0  0  0  0  0
  188.4780  177.4060  146.7280 C   0  0  2  0  0  3  0  0  0  0  0  0
  190.3740  175.9290  147.6900 C   0  0  0  0  0  2  0  0  0  0  0  0
  191.8150  176.3000  147.3630 C   0  0  2  0  0  3  0  0  0  0  0  0
  189.5700  177.3280  144.8090 C   0  0  1  0  0  3  0  0  0  0  0  0
  189.7810  178.0170  148.6170 O   0  0  0  0  0  0  0  0  0  0  0  0
  192.3150  175.6860  146.0480 C   0  0  0  0  0  2  0  0  0  0  0  0
  191.0390  177.4720  144.9220 N   0  0  1  0  0  0  0  0  0  0  0  0
  191.5210  176.1000  144.8060 C   0  0  0  0  0  2  0  0  0  0  0  0
  188.9700  178.2240  145.7000 O   0  0  0  0  0  0  0  0  0  0  0  0
  192.8020  174.7230  148.8510 O   0  0  0  0  0  0  0  0  0  0  0  0
  193.4810  176.8940  149.1370 O   0  0  0  0  0  1  0  0  0  0  0  0
  192.7130  175.9280  148.4950 C   0  0  0  0  0  0  0  0  0  0  0  0
  1  4  1  1  0  0  0
  2 12  1  0  0  0  0
  3  8  1  0  0  0  0
  3 38  1  1  0  0  0
  4  8  1  0  0  0  0
  5 10  1  0  0  0  0
  6  5  1  1  0  0  0
  6  2  1  0  0  0  0
  7 12  2  0  0  0  0
  9 10  1  6  0  0  0
  9  1  1  0  0  0  0
  9 11  1  0  0  0  0
 11  3  1  0  0  0  0
 12  1  1  0  0  0  0
 13 33  1  1  0  0  0
 13 16  1  0  0  0  0
 14 16  1  6  0  0  0
 14  6  1  0  0  0  0
 17 25  1  0  0  0  0
 18 21  1  0  0  0  0
 18 17  1  0  0  0  0
 19 23  1  0  0  0  0
 19 14  1  0  0  0  0
 20 23  1  0  0  0  0
 21 27  1  0  0  0  0
 23 15  2  0  0  0  0
 24 22  1  6  0  0  0
 24 13  1  0  0  0  0
 24 19  1  0  0  0  0
 25 28  1  0  0  0  0
 25 30  1  1  0  0  0
 27 26  2  0  0  0  0
 27 22  1  0  0  0  0
 28 20  1  0  0  0  0
 30 29  2  0  0  0  0
 31 30  1  0  0  0  0
 32 31  1  0  0  0  0
 33 34  1  0  0  0  0
 34 35  1  0  0  0  0
 36 35  1  0  0  0  0
 37 36  1  0  0  0  0
 39 41  1  0  0  0  0
 40 47  2  0  0  0  0
 41 42  1  6  0  0  0
 41 46  1  0  0  0  0
 41 49  1  0  0  0  0
 43 38  1  1  0  0  0
 43 40  1  0  0  0  0
 44 40  1  0  0  0  0
 45 44  1  0  0  0  0
 45 54  1  1  0  0  0
 46 49  1  0  0  0  0
 46 51  1  1  0  0  0
 48 45  1  0  0  0  0
 49 50  1  6  0  0  0
 50 48  1  0  0  0  0
 51 43  1  0  0  0  0
 54 52  2  0  0  0  0
 54 53  1  0  0  0  0
M  END
>  <MODEL>
1

>  <REMARK>
 VINA RESULT:      -8.4      0.000      0.000
  Name = 
  10 active torsions:
  status: ('A' for Active; 'I' for Inactive)
    1  A    between atoms: C_2  and  C_33
    2  A    between atoms: C_4  and  C_13
    3  A    between atoms: C_4  and  C_17
    4  A    between atoms: C_11  and  C_20
    5  A    between atoms: C_11  and  C_46
    6  A    between atoms: C_12  and  C_34
    7  A    between atoms: O_19  and  C_25
    8  A    between atoms: C_25  and  C_40
    9  A    between atoms: C_26  and  C_35
   10  A    between atoms: C_33  and  C_46
                            x       y       z     vdW  Elec       q    Type
                         _______ _______ _______ _____ _____    ______ ____

>  <TORSDO>
F 10

$$$$
=
 OpenBabel11042410063D

 54 59  0  0  1  0  0  0  0  0999 V2000
  188.5120  177.3370  138.1570 C   0  0  2  0  0  3  0  0  0  0  0  0
  186.6010  177.8000  136.5160 C   0  0  0  0  0  2  0  0  0  0  0  0
  190.1600  177.1280  140.5780 C   0  0  2  0  0  3  0  0  0  0  0  0
  189.8020  176.5110  138.1830 C   0  0  0  0  0  2  0  0  0  0  0  0
  185.4820  177.7390  138.8570 C   0  0  0  0  0  2  0  0  0  0  0  0
  185.3860  178.1830  137.3840 C   0  0  2  0  0  3  0  0  0  0  0  0
  187.2470  175.5090  137.0610 C   0  0  0  0  0  2  0  0  0  0  0  0
  190.7850  177.0980  139.1860 C   0  0  0  0  0  2  0  0  0  0  0  0
  187.8790  177.4420  139.5570 C   0  0  2  0  0  3  0  0  0  0  0  0
  186.6720  178.3760  139.5610 C   0  0  0  0  0  2  0  0  0  0  0  0
  188.8990  177.9870  140.5560 C   0  0  0  0  0  2  0  0  0  0  0  0
  187.5380  176.8110  137.1370 C   0  0  0  0  0  0  0  0  0  0  0  0
  183.5880  175.4480  137.1010 C   0  0  2  0  0  3  0  0  0  0  0  0
  184.0710  177.7180  136.7240 C   0  0  1  0  0  3  0  0  0  0  0  0
  182.4060  179.8750  137.8820 O   0  0  0  0  0  0  0  0  0  0  0  0
  184.2360  176.3730  136.1660 N   0  0  0  0  0  2  0  0  0  0  0  0
  179.9710  177.1220  141.5620 C   0  0  0  0  0  2  0  0  0  0  0  0
  179.1260  176.3600  140.5520 C   0  0  0  0  0  2  0  0  0  0  0  0
  183.0000  177.6230  137.7080 N   0  0  0  0  0  0  0  0  0  0  0  0
  181.9990  178.5790  139.8410 C   0  0  0  0  0  2  0  0  0  0  0  0
  179.9800  175.8160  139.5080 N   0  0  0  0  0  2  0  0  0  0  0  0
  181.2090  175.9990  137.3090 C   0  0  0  0  0  2  0  0  0  0  0  0
  182.4560  178.7400  138.4270 C   0  0  0  0  0  0  0  0  0  0  0  0
  182.5910  176.2470  137.9110 C   0  0  1  0  0  3  0  0  0  0  0  0
  179.9290  178.6320  141.3250 C   0  0  2  0  0  3  0  0  0  0  0  0
  179.3290  177.3430  137.8640 O   0  0  0  0  0  0  0  0  0  0  0  0
  180.1200  176.4310  138.2270 C   0  0  0  0  0  0  0  0  0  0  0  0
  180.5620  179.0660  140.0010 C   0  0  0  0  0  2  0  0  0  0  0  0
  180.2190  180.5920  142.6730 O   0  0  0  0  0  0  0  0  0  0  0  0
  180.5100  179.3770  142.4840 C   0  0  0  0  0  0  0  0  0  0  0  0
  181.3640  178.7090  143.3600 O   0  0  0  0  0  0  0  0  0  0  0  0
  182.7050  179.1250  143.5640 C   0  0  0  0  0  1  0  0  0  0  0  0
  184.6270  174.8350  138.0340 C   0  0  0  0  0  2  0  0  0  0  0  0
  184.6900  173.3260  137.8610 C   0  0  0  0  0  2  0  0  0  0  0  0
  183.9110  172.9020  136.6280 C   0  0  0  0  0  2  0  0  0  0  0  0
  182.9940  171.7360  136.9490 C   0  0  0  0  0  2  0  0  0  0  0  0
  181.5890  172.2310  137.2390 C   0  0  0  0  0  1  0  0  0  0  0  0
  191.1500  177.7220  141.5660 C   0  0  0  0  0  2  0  0  0  0  0  0
  186.4830  178.4090  145.0420 O   0  0  0  0  0  1  0  0  0  0  0  0
  191.4510  176.9910  143.9390 C   0  0  0  0  0  0  0  0  0  0  0  0
  187.3200  177.4980  144.3880 C   0  0  1  0  0  0  0  0  0  0  0  0
  186.6680  176.3690  143.6040 C   0  0  0  0  0  1  0  0  0  0  0  0
  190.5790  177.7570  142.9800 C   0  0  2  0  0  3  0  0  0  0  0  0
  191.6750  177.5370  145.3160 C   0  0  0  0  0  2  0  0  0  0  0  0
  191.0140  176.6250  146.3410 C   0  0  2  0  0  3  0  0  0  0  0  0
  188.6570  177.9690  144.0480 C   0  0  1  0  0  3  0  0  0  0  0  0
  191.9060  175.8980  143.6320 O   0  0  0  0  0  0  0  0  0  0  0  0
  189.9300  177.3290  147.1690 C   0  0  0  0  0  2  0  0  0  0  0  0
  188.4770  177.0510  145.1940 N   0  0  1  0  0  0  0  0  0  0  0  0
  188.7660  177.8940  146.3500 C   0  0  0  0  0  2  0  0  0  0  0  0
  189.2670  177.2610  143.0080 O   0  0  0  0  0  0  0  0  0  0  0  0
  192.5740  174.9170  146.9120 O   0  0  0  0  0  0  0  0  0  0  0  0
  192.4540  176.6660  148.3900 O   0  0  0  0  0  1  0  0  0  0  0  0
  192.0450  176.0150  147.2300 C   0  0  0  0  0  0  0  0  0  0  0  0
  1  4  1  1  0  0  0
  1  9  1  0  0  0  0
  2 12  1  0  0  0  0
  3 38  1  1  0  0  0
  4  8  1  0  0  0  0
  5 10  1  0  0  0  0
  6  2  1  6  0  0  0
  6  5  1  0  0  0  0
  7 12  2  0  0  0  0
  8  3  1  0  0  0  0
  9 10  1  6  0  0  0
  9 11  1  0  0  0  0
 11  3  1  0  0  0  0
 12  1  1  0  0  0  0
 13 24  1  0  0  0  0
 13 33  1  1  0  0  0
 14 16  1  1  0  0  0
 14  6  1  0  0  0  0
 14 19  1  0  0  0  0
 15 23  2  0  0  0  0
 16 13  1  0  0  0  0
 18 17  1  0  0  0  0
 19 24  1  0  0  0  0
 19 23  1  0  0  0  0
 20 28  1  0  0  0  0
 21 18  1  0  0  0  0
 22 27  1  0  0  0  0
 23 20  1  0  0  0  0
 24 22  1  6  0  0  0
 25 17  1  0  0  0  0
 25 30  1  1  0  0  0
 26 27  2  0  0  0  0
 27 21  1  0  0  0  0
 28 25  1  0  0  0  0
 30 29  2  0  0  0  0
 30 31  1  0  0  0  0
 31 32  1  0  0  0  0
 34 33  1  0  0  0  0
 35 36  1  0  0  0  0
 35 34  1  0  0  0  0
 36 37  1  0  0  0  0
 40 44  1  0  0  0  0
 41 42  1  6  0  0  0
 41 39  1  0  0  0  0
 41 49  1  0  0  0  0
 43 38  1  6  0  0  0
 43 51  1  0  0  0  0
 43 40  1  0  0  0  0
 44 45  1  0  0  0  0
 45 48  1  0  0  0  0
 45 54  1  1  0  0  0
 46 51  1  6  0  0  0
 46 41  1  0  0  0  0
 46 49  1  0  0  0  0
 47 40  2  0  0  0  0
 49 50  1  1  0  0  0
 50 48  1  0  0  0  0
 52 54  2  0  0  0  0
 54 53  1  0  0  0  0
M  END
>  <MODEL>
2

>  <REMARK>
 VINA RESULT:      -8.4      2.102      5.470
  Name = 
  10 active torsions:
  status: ('A' for Active; 'I' for Inactive)
    1  A    between atoms: C_2  and  C_33
    2  A    between atoms: C_4  and  C_13
    3  A    between atoms: C_4  and  C_17
    4  A    between atoms: C_11  and  C_20
    5  A    between atoms: C_11  and  C_46
    6  A    between atoms: C_12  and  C_34
    7  A    between atoms: O_19  and  C_25
    8  A    between atoms: C_25  and  C_40
    9  A    between atoms: C_26  and  C_35
   10  A    between atoms: C_33  and  C_46
                            x       y       z     vdW  Elec       q    Type
                         _______ _______ _______ _____ _____    ______ ____

>  <TORSDO>
F 10

$$$$
=
 OpenBabel11042410063D

 54 59  0  0  1  0  0  0  0  0999 V2000
  185.1530  176.8210  136.3940 C   0  0  2  0  0  3  0  0  0  0  0  0
  187.6850  176.4820  136.5840 C   0  0  0  0  0  2  0  0  0  0  0  0
  182.3470  177.4730  136.9580 C   0  0  2  0  0  3  0  0  0  0  0  0
  184.1060  176.8970  135.2800 C   0  0  0  0  0  2  0  0  0  0  0  0
  187.0890  178.1790  138.4540 C   0  0  0  0  0  2  0  0  0  0  0  0
  188.1000  177.1520  137.9090 C   0  0  2  0  0  3  0  0  0  0  0  0
  186.7660  178.1940  135.1070 C   0  0  0  0  0  2  0  0  0  0  0  0
  182.7310  176.5310  135.8200 C   0  0  0  0  0  2  0  0  0  0  0  0
  184.7730  177.7150  137.5890 C   0  0  2  0  0  3  0  0  0  0  0  0
  185.7410  177.5370  138.7560 C   0  0  0  0  0  2  0  0  0  0  0  0
  183.3710  177.3620  138.0840 C   0  0  0  0  0  2  0  0  0  0  0  0
  186.5340  177.1280  135.8790 C   0  0  0  0  0  0  0  0  0  0  0  0
  190.8390  177.3500  139.7110 C   0  0  2  0  0  3  0  0  0  0  0  0
  189.5220  177.7410  137.8040 C   0  0  1  0  0  3  0  0  0  0  0  0
  190.1480  176.4820  135.1980 O   0  0  0  0  0  0  0  0  0  0  0  0
  189.9270  178.3140  139.0900 N   0  0  0  0  0  2  0  0  0  0  0  0
  193.2850  172.6870  136.8730 C   0  0  0  0  0  2  0  0  0  0  0  0
  194.4100  173.6520  137.2150 C   0  0  0  0  0  2  0  0  0  0  0  0
  190.4950  176.7000  137.4970 N   0  0  0  0  0  0  0  0  0  0  0  0
  190.9350  174.5100  136.2820 C   0  0  0  0  0  2  0  0  0  0  0  0
  193.8910  174.7440  138.0230 N   0  0  0  0  0  2  0  0  0  0  0  0
  192.7970  177.0070  138.2780 C   0  0  0  0  0  2  0  0  0  0  0  0
  190.5210  175.9460  136.2750 C   0  0  0  0  0  0  0  0  0  0  0  0
  191.4010  176.4810  138.6070 C   0  0  1  0  0  3  0  0  0  0  0  0
  192.7420  172.9130  135.4610 C   0  0  2  0  0  3  0  0  0  0  0  0
  193.9690  176.3420  136.3190 O   0  0  0  0  0  0  0  0  0  0  0  0
  193.5830  176.0280  137.4770 C   0  0  0  0  0  0  0  0  0  0  0  0
  192.0550  174.2680  135.2750 C   0  0  0  0  0  2  0  0  0  0  0  0
  192.2770  170.5930  135.0840 O   0  0  0  0  0  0  0  0  0  0  0  0
  191.8590  171.7840  135.0340 C   0  0  0  0  0  0  0  0  0  0  0  0
  190.5670  172.0650  134.5940 O   0  0  0  0  0  0  0  0  0  0  0  0
  189.5420  171.0830  134.6010 C   0  0  0  0  0  1  0  0  0  0  0  0
  190.0810  176.4790  140.7070 C   0  0  0  0  0  2  0  0  0  0  0  0
  189.0370  177.2920  141.4570 C   0  0  0  0  0  2  0  0  0  0  0  0
  189.5740  177.7180  142.8130 C   0  0  0  0  0  2  0  0  0  0  0  0
  188.9840  176.8560  143.9140 C   0  0  0  0  0  2  0  0  0  0  0  0
  187.5650  177.2920  144.2270 C   0  0  0  0  0  1  0  0  0  0  0  0
  180.9760  177.0920  137.4920 C   0  0  0  0  0  2  0  0  0  0  0  0
  180.5790  178.6310  143.1310 O   0  0  0  0  0  1  0  0  0  0  0  0
  180.2630  179.4500  137.9220 C   0  0  0  0  0  0  0  0  0  0  0  0
  181.2780  178.7930  141.9300 C   0  0  1  0  0  0  0  0  0  0  0  0
  182.7960  178.7210  141.9750 C   0  0  0  0  0  1  0  0  0  0  0  0
  180.4810  178.0910  138.5320 C   0  0  2  0  0  3  0  0  0  0  0  0
  179.0760  180.2580  138.3470 C   0  0  0  0  0  2  0  0  0  0  0  0
  179.5440  181.4900  139.1120 C   0  0  2  0  0  3  0  0  0  0  0  0
  180.5510  178.4790  140.7060 C   0  0  1  0  0  3  0  0  0  0  0  0
  181.0840  179.9270  137.1510 O   0  0  0  0  0  0  0  0  0  0  0  0
  179.0170  181.5440  140.5530 C   0  0  0  0  0  2  0  0  0  0  0  0
  180.7740  179.8930  141.0790 N   0  0  1  0  0  0  0  0  0  0  0  0
  179.4390  180.3640  141.4320 C   0  0  0  0  0  2  0  0  0  0  0  0
  181.3700  178.1770  139.6140 O   0  0  0  0  0  0  0  0  0  0  0  0
  178.9570  183.7960  139.0010 O   0  0  0  0  0  1  0  0  0  0  0  0
  179.1060  182.7270  136.9780 O   0  0  0  0  0  0  0  0  0  0  0  0
  179.1750  182.7300  138.3680 C   0  0  0  0  0  0  0  0  0  0  0  0
  1  4  1  6  0  0  0
  1  9  1  0  0  0  0
  3 38  1  1  0  0  0
  3 11  1  0  0  0  0
  4  8  1  0  0  0  0
  5 10  1  0  0  0  0
  6  2  1  6  0  0  0
  6  5  1  0  0  0  0
  7 12  2  0  0  0  0
  8  3  1  0  0  0  0
  9 11  1  1  0  0  0
  9 10  1  0  0  0  0
 12  1  1  0  0  0  0
 12  2  1  0  0  0  0
 13 33  1  1  0  0  0
 14  6  1  0  0  0  0
 14 16  1  1  0  0  0
 15 23  2  0  0  0  0
 16 13  1  0  0  0  0
 17 18  1  0  0  0  0
 18 21  1  0  0  0  0
 19 14  1  0  0  0  0
 19 24  1  0  0  0  0
 23 20  1  0  0  0  0
 23 19  1  0  0  0  0
 24 22  1  6  0  0  0
 24 13  1  0  0  0  0
 25 30  1  1  0  0  0
 25 17  1  0  0  0  0
 26 27  2  0  0  0  0
 27 21  1  0  0  0  0
 27 22  1  0  0  0  0
 28 25  1  0  0  0  0
 28 20  1  0  0  0  0
 30 29  2  0  0  0  0
 31 32  1  0  0  0  0
 31 30  1  0  0  0  0
 33 34  1  0  0  0  0
 34 35  1  0  0  0  0
 35 36  1  0  0  0  0
 36 37  1  0  0  0  0
 40 44  1  0  0  0  0
 40 43  1  0  0  0  0
 41 42  1  1  0  0  0
 41 39  1  0  0  0  0
 43 38  1  6  0  0  0
 43 51  1  0  0  0  0
 44 45  1  0  0  0  0
 45 54  1  6  0  0  0
 45 48  1  0  0  0  0
 46 51  1  6  0  0  0
 46 49  1  0  0  0  0
 46 41  1  0  0  0  0
 47 40  2  0  0  0  0
 48 50  1  0  0  0  0
 49 50  1  1  0  0  0
 49 41  1  0  0  0  0
 53 54  2  0  0  0  0
 54 52  1  0  0  0  0
M  END
>  <MODEL>
3

>  <REMARK>
 VINA RESULT:      -6.7      4.508     10.780
  Name = 
  10 active torsions:
  status: ('A' for Active; 'I' for Inactive)
    1  A    between atoms: C_2  and  C_33
    2  A    between atoms: C_4  and  C_13
    3  A    between atoms: C_4  and  C_17
    4  A    between atoms: C_11  and  C_20
    5  A    between atoms: C_11  and  C_46
    6  A    between atoms: C_12  and  C_34
    7  A    between atoms: O_19  and  C_25
    8  A    between atoms: C_25  and  C_40
    9  A    between atoms: C_26  and  C_35
   10  A    between atoms: C_33  and  C_46
                            x       y       z     vdW  Elec       q    Type
                         _______ _______ _______ _____ _____    ______ ____

>  <TORSDO>
F 10

$$$$
=
 OpenBabel11042410063D

 54 59  0  0  1  0  0  0  0  0999 V2000
  188.0720  176.4580  136.5040 C   0  0  2  0  0  3  0  0  0  0  0  0
  186.2830  177.8500  137.6970 C   0  0  0  0  0  2  0  0  0  0  0  0
  189.5590  174.2630  135.2430 C   0  0  2  0  0  3  0  0  0  0  0  0
  189.3290  176.7140  135.6680 C   0  0  0  0  0  2  0  0  0  0  0  0
  185.0190  175.7860  136.7580 C   0  0  0  0  0  2  0  0  0  0  0  0
  185.0300  176.9540  137.7640 C   0  0  2  0  0  3  0  0  0  0  0  0
  186.8160  178.2550  135.3490 C   0  0  0  0  0  2  0  0  0  0  0  0
  190.2670  175.5190  135.7430 C   0  0  0  0  0  2  0  0  0  0  0  0
  187.3570  175.1650  136.0700 C   0  0  2  0  0  3  0  0  0  0  0  0
  186.1840  174.8330  136.9890 C   0  0  0  0  0  2  0  0  0  0  0  0
  188.3310  173.9880  136.1070 C   0  0  0  0  0  2  0  0  0  0  0  0
  187.1460  177.6440  136.4910 C   0  0  0  0  0  0  0  0  0  0  0  0
  181.7750  176.5390  137.9120 C   0  0  2  0  0  3  0  0  0  0  0  0
  183.7440  177.8020  137.6800 C   0  0  1  0  0  3  0  0  0  0  0  0
  184.5790  179.7700  139.7280 O   0  0  0  0  0  0  0  0  0  0  0  0
  182.7140  177.0820  136.9270 N   0  0  0  0  0  2  0  0  0  0  0  0
  181.6330  178.1150  143.6810 C   0  0  0  0  0  2  0  0  0  0  0  0
  180.3460  178.6130  143.0410 C   0  0  0  0  0  2  0  0  0  0  0  0
  183.1890  178.0380  139.0070 N   0  0  0  0  0  0  0  0  0  0  0  0
  183.6890  178.4100  141.4710 C   0  0  0  0  0  2  0  0  0  0  0  0
  180.2660  178.1430  141.6670 N   0  0  0  0  0  2  0  0  0  0  0  0
  180.7680  178.3640  139.2020 C   0  0  0  0  0  2  0  0  0  0  0  0
  183.8390  178.7990  140.0360 C   0  0  0  0  0  0  0  0  0  0  0  0
  181.9190  177.3590  139.1750 C   0  0  1  0  0  3  0  0  0  0  0  0
  182.7220  179.1880  143.6960 C   0  0  2  0  0  3  0  0  0  0  0  0
  180.7390  180.2140  140.6930 O   0  0  0  0  0  0  0  0  0  0  0  0
  180.5930  178.9700  140.5500 C   0  0  0  0  0  0  0  0  0  0  0  0
  183.2050  179.5950  142.3020 C   0  0  0  0  0  2  0  0  0  0  0  0
  183.8050  179.0030  145.8250 O   0  0  0  0  0  0  0  0  0  0  0  0
  183.8600  178.7920  144.5810 C   0  0  0  0  0  0  0  0  0  0  0  0
  184.9750  178.1750  144.0140 O   0  0  0  0  0  0  0  0  0  0  0  0
  186.2090  178.0730  144.7070 C   0  0  0  0  0  1  0  0  0  0  0  0
  182.1140  175.0820  138.2110 C   0  0  0  0  0  2  0  0  0  0  0  0
  180.9370  174.1730  137.8940 C   0  0  0  0  0  2  0  0  0  0  0  0
  181.3480  173.1080  136.8920 C   0  0  0  0  0  2  0  0  0  0  0  0
  182.8510  172.9020  136.9180 C   0  0  0  0  0  2  0  0  0  0  0  0
  183.3800  172.6820  135.5130 C   0  0  0  0  0  1  0  0  0  0  0  0
  190.5050  173.0770  135.3310 C   0  0  0  0  0  2  0  0  0  0  0  0
  194.4150  177.2880  136.4710 O   0  0  0  0  0  1  0  0  0  0  0  0
  192.8940  172.3410  135.4160 C   0  0  0  0  0  0  0  0  0  0  0  0
  193.7780  176.1360  136.9450 C   0  0  1  0  0  0  0  0  0  0  0  0
  193.2200  176.1630  138.3600 C   0  0  0  0  0  1  0  0  0  0  0  0
  191.9630  173.5230  135.3490 C   0  0  2  0  0  3  0  0  0  0  0  0
  194.1580  172.3610  134.6130 C   0  0  0  0  0  2  0  0  0  0  0  0
  195.3570  172.4240  135.5500 C   0  0  2  0  0  3  0  0  0  0  0  0
  193.2240  175.2380  135.9390 C   0  0  1  0  0  3  0  0  0  0  0  0
  192.6660  171.4100  136.1760 O   0  0  0  0  0  0  0  0  0  0  0  0
  196.2210  173.6760  135.3450 C   0  0  0  0  0  2  0  0  0  0  0  0
  194.4860  174.8770  136.6240 N   0  0  1  0  0  0  0  0  0  0  0  0
  195.4880  175.0020  135.5720 C   0  0  0  0  0  2  0  0  0  0  0  0
  192.2100  174.4010  136.4150 O   0  0  0  0  0  0  0  0  0  0  0  0
  197.3000  171.1170  135.9900 O   0  0  0  0  0  1  0  0  0  0  0  0
  195.7090  170.0970  134.6920 O   0  0  0  0  0  0  0  0  0  0  0  0
  196.1810  171.1870  135.4160 C   0  0  0  0  0  0  0  0  0  0  0  0
  1  4  1  6  0  0  0
  2  6  1  0  0  0  0
  3 38  1  1  0  0  0
  3  8  1  0  0  0  0
  3 11  1  0  0  0  0
  4  8  1  0  0  0  0
  5 10  1  0  0  0  0
  6  5  1  6  0  0  0
  7 12  2  0  0  0  0
  9 11  1  1  0  0  0
  9  1  1  0  0  0  0
  9 10  1  0  0  0  0
 12  1  1  0  0  0  0
 12  2  1  0  0  0  0
 13 33  1  1  0  0  0
 13 24  1  0  0  0  0
 14 16  1  6  0  0  0
 14  6  1  0  0  0  0
 14 19  1  0  0  0  0
 15 23  2  0  0  0  0
 16 13  1  0  0  0  0
 17 25  1  0  0  0  0
 18 17  1  0  0  0  0
 19 24  1  0  0  0  0
 19 23  1  0  0  0  0
 20 28  1  0  0  0  0
 21 18  1  0  0  0  0
 22 27  1  0  0  0  0
 23 20  1  0  0  0  0
 24 22  1  6  0  0  0
 25 30  1  1  0  0  0
 27 26  2  0  0  0  0
 27 21  1  0  0  0  0
 28 25  1  0  0  0  0
 30 29  2  0  0  0  0
 31 30  1  0  0  0  0
 31 32  1  0  0  0  0
 34 33  1  0  0  0  0
 35 36  1  0  0  0  0
 35 34  1  0  0  0  0
 37 36  1  0  0  0  0
 39 41  1  0  0  0  0
 40 47  2  0  0  0  0
 41 42  1  1  0  0  0
 43 38  1  1  0  0  0
 43 40  1  0  0  0  0
 43 51  1  0  0  0  0
 44 40  1  0  0  0  0
 44 45  1  0  0  0  0
 45 54  1  6  0  0  0
 46 51  1  1  0  0  0
 46 49  1  0  0  0  0
 46 41  1  0  0  0  0
 48 45  1  0  0  0  0
 48 50  1  0  0  0  0
 49 50  1  6  0  0  0
 49 41  1  0  0  0  0
 53 54  2  0  0  0  0
 54 52  1  0  0  0  0
M  END
>  <MODEL>
4

>  <REMARK>
 VINA RESULT:      -6.4      4.604      9.230
  Name = 
  10 active torsions:
  status: ('A' for Active; 'I' for Inactive)
    1  A    between atoms: C_2  and  C_33
    2  A    between atoms: C_4  and  C_13
    3  A    between atoms: C_4  and  C_17
    4  A    between atoms: C_11  and  C_20
    5  A    between atoms: C_11  and  C_46
    6  A    between atoms: C_12  and  C_34
    7  A    between atoms: O_19  and  C_25
    8  A    between atoms: C_25  and  C_40
    9  A    between atoms: C_26  and  C_35
   10  A    between atoms: C_33  and  C_46
                            x       y       z     vdW  Elec       q    Type
                         _______ _______ _______ _____ _____    ______ ____

>  <TORSDO>
F 10

$$$$
=
 OpenBabel11042410063D

 54 59  0  0  1  0  0  0  0  0999 V2000
  188.0780  176.7090  136.4890 C   0  0  2  0  0  3  0  0  0  0  0  0
  186.0940  176.8850  134.8780 C   0  0  0  0  0  2  0  0  0  0  0  0
  189.7790  176.7600  138.8820 C   0  0  2  0  0  3  0  0  0  0  0  0
  189.4680  176.0670  136.5010 C   0  0  0  0  0  2  0  0  0  0  0  0
  185.0330  176.7060  137.2390 C   0  0  0  0  0  2  0  0  0  0  0  0
  184.8530  177.1130  135.7640 C   0  0  2  0  0  3  0  0  0  0  0  0
  187.0550  174.7120  135.4380 C   0  0  0  0  0  2  0  0  0  0  0  0
  190.3790  176.7960  137.4780 C   0  0  0  0  0  2  0  0  0  0  0  0
  187.4600  176.7470  137.8990 C   0  0  2  0  0  3  0  0  0  0  0  0
  186.1370  177.5090  137.9150 C   0  0  0  0  0  2  0  0  0  0  0  0
  188.4130  177.4400  138.8720 C   0  0  0  0  0  2  0  0  0  0  0  0
  187.1680  176.0420  135.4930 C   0  0  0  0  0  0  0  0  0  0  0  0
  183.4290  174.1590  135.5620 C   0  0  2  0  0  3  0  0  0  0  0  0
  183.6030  176.4640  135.1340 C   0  0  1  0  0  3  0  0  0  0  0  0
  181.6820  178.4070  136.2750 O   0  0  0  0  0  0  0  0  0  0  0  0
  183.9370  175.1410  134.6000 N   0  0  0  0  0  2  0  0  0  0  0  0
  179.6810  175.4350  140.0460 C   0  0  0  0  0  2  0  0  0  0  0  0
  178.9310  174.5470  139.0640 C   0  0  0  0  0  2  0  0  0  0  0  0
  182.5670  176.2500  136.1360 N   0  0  0  0  0  0  0  0  0  0  0  0
  181.4760  177.1110  138.2650 C   0  0  0  0  0  2  0  0  0  0  0  0
  179.8360  174.0980  138.0180 N   0  0  0  0  0  2  0  0  0  0  0  0
  181.0010  174.3960  135.7970 C   0  0  0  0  0  2  0  0  0  0  0  0
  181.8890  177.3010  136.8410 C   0  0  0  0  0  0  0  0  0  0  0  0
  182.3460  174.8370  136.3720 C   0  0  1  0  0  3  0  0  0  0  0  0
  179.4370  176.9210  139.7810 C   0  0  2  0  0  3  0  0  0  0  0  0
  178.9670  175.4920  136.3550 O   0  0  0  0  0  0  0  0  0  0  0  0
  179.8760  174.7000  136.7230 C   0  0  0  0  0  0  0  0  0  0  0  0
  179.9900  177.4070  138.4380 C   0  0  0  0  0  2  0  0  0  0  0  0
  179.6040  177.4830  142.1040 O   0  0  0  0  0  0  0  0  0  0  0  0
  179.9290  177.7620  140.9160 C   0  0  0  0  0  0  0  0  0  0  0  0
  180.7610  178.8460  140.6440 O   0  0  0  0  0  0  0  0  0  0  0  0
  181.4590  179.5320  141.6710 C   0  0  0  0  0  1  0  0  0  0  0  0
  184.5520  173.7080  136.4900 C   0  0  0  0  0  2  0  0  0  0  0  0
  184.6320  172.1910  136.5510 C   0  0  0  0  0  2  0  0  0  0  0  0
  185.0670  171.6310  135.2070 C   0  0  0  0  0  2  0  0  0  0  0  0
  184.6540  170.1760  135.0770 C   0  0  0  0  0  2  0  0  0  0  0  0
  183.2000  170.0730  134.6570 C   0  0  0  0  0  1  0  0  0  0  0  0
  190.6950  177.4970  139.8440 C   0  0  0  0  0  2  0  0  0  0  0  0
  192.0750  177.0320  145.5190 O   0  0  0  0  0  1  0  0  0  0  0  0
  188.8110  177.8580  141.4490 C   0  0  0  0  0  0  0  0  0  0  0  0
  191.6950  177.8920  144.4830 C   0  0  1  0  0  0  0  0  0  0  0  0
  192.4620  179.1950  144.3230 C   0  0  0  0  0  1  0  0  0  0  0  0
  190.2220  177.3580  141.2870 C   0  0  2  0  0  3  0  0  0  0  0  0
  187.8700  177.1100  142.3410 C   0  0  0  0  0  2  0  0  0  0  0  0
  187.5280  177.9640  143.5550 C   0  0  2  0  0  3  0  0  0  0  0  0
  191.0090  177.2830  143.3500 C   0  0  1  0  0  3  0  0  0  0  0  0
  188.4570  178.9050  140.9260 O   0  0  0  0  0  0  0  0  0  0  0  0
  187.9410  177.3190  144.8850 C   0  0  0  0  0  2  0  0  0  0  0  0
  190.2310  178.0590  144.3420 N   0  0  1  0  0  0  0  0  0  0  0  0
  189.4410  177.0390  145.0220 C   0  0  0  0  0  2  0  0  0  0  0  0
  191.0830  178.0280  142.1680 O   0  0  0  0  0  0  0  0  0  0  0  0
  185.3140  177.7660  144.4110 O   0  0  0  0  0  1  0  0  0  0  0  0
  185.5570  179.2180  142.6530 O   0  0  0  0  0  0  0  0  0  0  0  0
  186.0740  178.2980  143.5590 C   0  0  0  0  0  0  0  0  0  0  0  0
  1  4  1  1  0  0  0
  1  9  1  0  0  0  0
  2 12  1  0  0  0  0
  3 38  1  1  0  0  0
  4  8  1  0  0  0  0
  5 10  1  0  0  0  0
  6  2  1  6  0  0  0
  6  5  1  0  0  0  0
  7 12  2  0  0  0  0
  8  3  1  0  0  0  0
  9 10  1  6  0  0  0
  9 11  1  0  0  0  0
 11  3  1  0  0  0  0
 12  1  1  0  0  0  0
 13 24  1  0  0  0  0
 13 33  1  1  0  0  0
 14 16  1  1  0  0  0
 14  6  1  0  0  0  0
 14 19  1  0  0  0  0
 15 23  2  0  0  0  0
 16 13  1  0  0  0  0
 18 17  1  0  0  0  0
 19 24  1  0  0  0  0
 19 23  1  0  0  0  0
 20 28  1  0  0  0  0
 21 18  1  0  0  0  0
 22 27  1  0  0  0  0
 23 20  1  0  0  0  0
 24 22  1  6  0  0  0
 25 17  1  0  0  0  0
 25 30  1  1  0  0  0
 26 27  2  0  0  0  0
 27 21  1  0  0  0  0
 28 25  1  0  0  0  0
 30 29  2  0  0  0  0
 31 30  1  0  0  0  0
 31 32  1  0  0  0  0
 33 34  1  0  0  0  0
 35 34  1  0  0  0  0
 36 35  1  0  0  0  0
 37 36  1  0  0  0  0
 40 44  1  0  0  0  0
 41 42  1  6  0  0  0
 41 39  1  0  0  0  0
 43 38  1  6  0  0  0
 43 40  1  0  0  0  0
 43 51  1  0  0  0  0
 44 45  1  0  0  0  0
 45 54  1  1  0  0  0
 45 48  1  0  0  0  0
 46 51  1  6  0  0  0
 46 49  1  0  0  0  0
 46 41  1  0  0  0  0
 47 40  2  0  0  0  0
 48 50  1  0  0  0  0
 49 41  1  0  0  0  0
 49 50  1  1  0  0  0
 53 54  2  0  0  0  0
 54 52  1  0  0  0  0
M  END
>  <MODEL>
5

>  <REMARK>
 VINA RESULT:      -6.4      2.420      6.334
  Name = 
  10 active torsions:
  status: ('A' for Active; 'I' for Inactive)
    1  A    between atoms: C_2  and  C_33
    2  A    between atoms: C_4  and  C_13
    3  A    between atoms: C_4  and  C_17
    4  A    between atoms: C_11  and  C_20
    5  A    between atoms: C_11  and  C_46
    6  A    between atoms: C_12  and  C_34
    7  A    between atoms: O_19  and  C_25
    8  A    between atoms: C_25  and  C_40
    9  A    between atoms: C_26  and  C_35
   10  A    between atoms: C_33  and  C_46
                            x       y       z     vdW  Elec       q    Type
                         _______ _______ _______ _____ _____    ______ ____

>  <TORSDO>
F 10

$$$$
=
 OpenBabel11042410063D

 54 59  0  0  1  0  0  0  0  0999 V2000
  188.4100  176.1450  137.3780 C   0  0  2  0  0  3  0  0  0  0  0  0
  186.2170  177.3110  138.0040 C   0  0  0  0  0  2  0  0  0  0  0  0
  190.4190  174.3900  136.1530 C   0  0  2  0  0  3  0  0  0  0  0  0
  189.9110  176.3960  137.5520 C   0  0  0  0  0  2  0  0  0  0  0  0
  185.7760  176.2460  135.6790 C   0  0  0  0  0  2  0  0  0  0  0  0
  185.1770  176.8290  136.9730 C   0  0  2  0  0  3  0  0  0  0  0  0
  187.9760  178.5200  136.8190 C   0  0  0  0  0  2  0  0  0  0  0  0
  190.6780  175.0840  137.4870 C   0  0  0  0  0  2  0  0  0  0  0  0
  188.1100  175.3920  136.0690 C   0  0  2  0  0  3  0  0  0  0  0  0
  186.6340  175.0190  135.9590 C   0  0  0  0  0  2  0  0  0  0  0  0
  188.9270  174.1030  136.0050 C   0  0  0  0  0  2  0  0  0  0  0  0
  187.6180  177.4200  137.4890 C   0  0  0  0  0  0  0  0  0  0  0  0
  181.9580  177.1120  136.3820 C   0  0  2  0  0  3  0  0  0  0  0  0
  184.1400  177.9340  136.6830 C   0  0  1  0  0  3  0  0  0  0  0  0
  184.8630  179.6080  139.0160 O   0  0  0  0  0  0  0  0  0  0  0  0
  183.1860  177.4760  135.6700 N   0  0  0  0  0  2  0  0  0  0  0  0
  180.8240  178.4820  142.0940 C   0  0  0  0  0  2  0  0  0  0  0  0
  179.8420  179.2650  141.2340 C   0  0  0  0  0  2  0  0  0  0  0  0
  183.3560  178.2370  137.8740 N   0  0  0  0  0  0  0  0  0  0  0  0
  183.3460  178.4090  140.4100 C   0  0  0  0  0  2  0  0  0  0  0  0
  179.9860  178.8710  139.8420 N   0  0  0  0  0  2  0  0  0  0  0  0
  181.0690  179.0650  137.5680 C   0  0  0  0  0  2  0  0  0  0  0  0
  183.8930  178.8060  139.0780 C   0  0  0  0  0  0  0  0  0  0  0  0
  181.9720  177.8390  137.7090 C   0  0  1  0  0  3  0  0  0  0  0  0
  182.0730  179.2980  142.4300 C   0  0  2  0  0  3  0  0  0  0  0  0
  181.0720  180.8260  139.1640 O   0  0  0  0  0  0  0  0  0  0  0  0
  180.7170  179.6470  138.8920 C   0  0  0  0  0  0  0  0  0  0  0  0
  182.9320  179.6400  141.2100 C   0  0  0  0  0  2  0  0  0  0  0  0
  182.3530  178.3710  144.6220 O   0  0  0  0  0  0  0  0  0  0  0  0
  182.8770  178.6380  143.5040 C   0  0  0  0  0  0  0  0  0  0  0  0
  184.2070  178.3100  143.2480 O   0  0  0  0  0  0  0  0  0  0  0  0
  185.2720  178.8330  144.0270 C   0  0  0  0  0  1  0  0  0  0  0  0
  181.9220  175.6080  136.6270 C   0  0  0  0  0  2  0  0  0  0  0  0
  182.2200  174.8410  135.3480 C   0  0  0  0  0  2  0  0  0  0  0  0
  182.9710  173.5580  135.6650 C   0  0  0  0  0  2  0  0  0  0  0  0
  183.0230  173.3270  137.1640 C   0  0  0  0  0  2  0  0  0  0  0  0
  184.4410  173.0130  137.6040 C   0  0  0  0  0  1  0  0  0  0  0  0
  191.1850  173.0780  136.1060 C   0  0  0  0  0  2  0  0  0  0  0  0
  196.0930  170.7200  138.2690 O   0  0  0  0  0  1  0  0  0  0  0  0
  193.2610  174.4430  135.8150 C   0  0  0  0  0  0  0  0  0  0  0  0
  195.3890  171.0800  137.1150 C   0  0  1  0  0  0  0  0  0  0  0  0
  195.3050  170.0640  135.9860 C   0  0  0  0  0  1  0  0  0  0  0  0
  192.6420  173.2640  136.5180 C   0  0  2  0  0  3  0  0  0  0  0  0
  194.1940  175.3360  136.5730 C   0  0  0  0  0  2  0  0  0  0  0  0
  195.6030  175.1980  136.0100 C   0  0  2  0  0  3  0  0  0  0  0  0
  194.3710  172.1130  137.2690 C   0  0  1  0  0  3  0  0  0  0  0  0
  193.0720  174.6270  134.6210 O   0  0  0  0  0  0  0  0  0  0  0  0
  196.6210  174.6930  137.0420 C   0  0  0  0  0  2  0  0  0  0  0  0
  195.6670  172.4540  136.6400 N   0  0  1  0  0  0  0  0  0  0  0  0
  196.3060  173.3150  137.6290 C   0  0  0  0  0  2  0  0  0  0  0  0
  193.3880  172.1020  136.2740 O   0  0  0  0  0  0  0  0  0  0  0  0
  197.2490  176.8560  135.5450 O   0  0  0  0  0  1  0  0  0  0  0  0
  195.1640  177.2820  134.6910 O   0  0  0  0  0  0  0  0  0  0  0  0
  196.0510  176.4920  135.4160 C   0  0  0  0  0  0  0  0  0  0  0  0
  1 12  1  0  0  0  0
  1  4  1  6  0  0  0
  3 38  1  1  0  0  0
  3  8  1  0  0  0  0
  5 10  1  0  0  0  0
  6  5  1  6  0  0  0
  6  2  1  0  0  0  0
  7 12  2  0  0  0  0
  8  4  1  0  0  0  0
  9 10  1  1  0  0  0
  9  1  1  0  0  0  0
 11  9  1  0  0  0  0
 11  3  1  0  0  0  0
 12  2  1  0  0  0  0
 13 33  1  1  0  0  0
 13 24  1  0  0  0  0
 14 16  1  6  0  0  0
 14  6  1  0  0  0  0
 14 19  1  0  0  0  0
 15 23  2  0  0  0  0
 16 13  1  0  0  0  0
 17 25  1  0  0  0  0
 18 17  1  0  0  0  0
 19 23  1  0  0  0  0
 20 28  1  0  0  0  0
 21 18  1  0  0  0  0
 22 27  1  0  0  0  0
 23 20  1  0  0  0  0
 24 22  1  6  0  0  0
 24 19  1  0  0  0  0
 25 30  1  1  0  0  0
 27 26  2  0  0  0  0
 27 21  1  0  0  0  0
 28 25  1  0  0  0  0
 30 29  2  0  0  0  0
 31 30  1  0  0  0  0
 31 32  1  0  0  0  0
 34 35  1  0  0  0  0
 34 33  1  0  0  0  0
 35 36  1  0  0  0  0
 36 37  1  0  0  0  0
 40 43  1  0  0  0  0
 40 44  1  0  0  0  0
 41 42  1  6  0  0  0
 41 46  1  0  0  0  0
 41 39  1  0  0  0  0
 43 38  1  6  0  0  0
 45 54  1  1  0  0  0
 45 44  1  0  0  0  0
 45 48  1  0  0  0  0
 46 51  1  6  0  0  0
 47 40  2  0  0  0  0
 48 50  1  0  0  0  0
 49 41  1  0  0  0  0
 49 46  1  0  0  0  0
 49 50  1  1  0  0  0
 51 43  1  0  0  0  0
 53 54  2  0  0  0  0
 54 52  1  0  0  0  0
M  END
>  <MODEL>
6

>  <REMARK>
 VINA RESULT:      -6.2      4.757      8.967
  Name = 
  10 active torsions:
  status: ('A' for Active; 'I' for Inactive)
    1  A    between atoms: C_2  and  C_33
    2  A    between atoms: C_4  and  C_13
    3  A    between atoms: C_4  and  C_17
    4  A    between atoms: C_11  and  C_20
    5  A    between atoms: C_11  and  C_46
    6  A    between atoms: C_12  and  C_34
    7  A    between atoms: O_19  and  C_25
    8  A    between atoms: C_25  and  C_40
    9  A    between atoms: C_26  and  C_35
   10  A    between atoms: C_33  and  C_46
                            x       y       z     vdW  Elec       q    Type
                         _______ _______ _______ _____ _____    ______ ____

>  <TORSDO>
F 10

$$$$
=
 OpenBabel11042410063D

 54 59  0  0  1  0  0  0  0  0999 V2000
  189.9020  176.2100  137.6230 C   0  0  2  0  0  3  0  0  0  0  0  0
  187.5910  177.3030  137.7780 C   0  0  0  0  0  2  0  0  0  0  0  0
  192.1040  174.3310  137.1290 C   0  0  2  0  0  3  0  0  0  0  0  0
  191.3670  176.6520  137.6890 C   0  0  0  0  0  2  0  0  0  0  0  0
  187.3300  175.4200  136.0120 C   0  0  0  0  0  2  0  0  0  0  0  0
  186.6350  176.3780  137.0000 C   0  0  2  0  0  3  0  0  0  0  0  0
  189.2720  178.1570  136.2270 C   0  0  0  0  0  2  0  0  0  0  0  0
  192.2520  175.4890  138.1120 C   0  0  0  0  0  2  0  0  0  0  0  0
  189.7170  175.0020  136.6850 C   0  0  2  0  0  3  0  0  0  0  0  0
  188.2860  174.4720  136.7230 C   0  0  0  0  0  2  0  0  0  0  0  0
  190.6500  173.8660  137.1000 C   0  0  0  0  0  2  0  0  0  0  0  0
  188.9940  177.3520  137.2560 C   0  0  0  0  0  0  0  0  0  0  0  0
  183.6120  175.9090  135.8040 C   0  0  2  0  0  3  0  0  0  0  0  0
  185.5120  177.1920  136.3240 C   0  0  1  0  0  3  0  0  0  0  0  0
  185.4380  179.3180  138.3840 O   0  0  0  0  0  0  0  0  0  0  0  0
  184.8830  176.3990  135.2640 N   0  0  0  0  0  2  0  0  0  0  0  0
  181.0890  177.8900  140.8530 C   0  0  0  0  0  2  0  0  0  0  0  0
  180.1930  178.3150  139.7000 C   0  0  0  0  0  2  0  0  0  0  0  0
  184.4560  177.5110  137.2760 N   0  0  0  0  0  0  0  0  0  0  0  0
  183.8840  178.0680  139.6900 C   0  0  0  0  0  2  0  0  0  0  0  0
  180.6900  177.7470  138.4570 N   0  0  0  0  0  2  0  0  0  0  0  0
  182.1790  177.8010  136.4170 C   0  0  0  0  0  2  0  0  0  0  0  0
  184.6250  178.3560  138.4240 C   0  0  0  0  0  0  0  0  0  0  0  0
  183.2240  176.8210  136.9480 C   0  0  1  0  0  3  0  0  0  0  0  0
  182.0840  178.9830  141.2430 C   0  0  2  0  0  3  0  0  0  0  0  0
  181.5510  179.7520  137.6210 O   0  0  0  0  0  0  0  0  0  0  0  0
  181.4640  178.4990  137.5210 C   0  0  0  0  0  0  0  0  0  0  0  0
  183.1110  179.2990  140.1530 C   0  0  0  0  0  2  0  0  0  0  0  0
  182.2070  179.0300  143.6360 O   0  0  0  0  0  0  0  0  0  0  0  0
  182.7440  178.6740  142.5490 C   0  0  0  0  0  0  0  0  0  0  0  0
  183.9500  177.9750  142.5500 O   0  0  0  0  0  0  0  0  0  0  0  0
  185.0580  178.3930  143.3310 C   0  0  0  0  0  1  0  0  0  0  0  0
  183.7780  174.4850  136.3220 C   0  0  0  0  0  2  0  0  0  0  0  0
  184.5310  173.6250  135.3200 C   0  0  0  0  0  2  0  0  0  0  0  0
  185.1090  172.3980  136.0050 C   0  0  0  0  0  2  0  0  0  0  0  0
  184.0320  171.6660  136.7860 C   0  0  0  0  0  2  0  0  0  0  0  0
  182.9650  171.1360  135.8470 C   0  0  0  0  0  1  0  0  0  0  0  0
  192.9880  173.1760  137.5680 C   0  0  0  0  0  2  0  0  0  0  0  0
  197.9760  176.1660  138.2760 O   0  0  0  0  0  1  0  0  0  0  0  0
  195.0200  172.1520  136.5300 C   0  0  0  0  0  0  0  0  0  0  0  0
  197.2550  175.0150  138.6120 C   0  0  1  0  0  0  0  0  0  0  0  0
  197.1950  174.6140  140.0770 C   0  0  0  0  0  1  0  0  0  0  0  0
  194.4400  173.3920  137.1570 C   0  0  2  0  0  3  0  0  0  0  0  0
  195.9290  172.2890  135.3480 C   0  0  0  0  0  2  0  0  0  0  0  0
  197.3390  171.8610  135.7360 C   0  0  2  0  0  3  0  0  0  0  0  0
  196.2080  174.6100  137.6820 C   0  0  1  0  0  3  0  0  0  0  0  0
  194.8190  171.0510  137.0240 O   0  0  0  0  0  0  0  0  0  0  0  0
  198.3770  172.9810  135.5820 C   0  0  0  0  0  2  0  0  0  0  0  0
  197.4890  173.8690  137.7050 N   0  0  1  0  0  0  0  0  0  0  0  0
  198.1070  174.2250  136.4320 C   0  0  0  0  0  2  0  0  0  0  0  0
  195.2200  173.7980  138.2500 O   0  0  0  0  0  0  0  0  0  0  0  0
  198.9430  170.5170  134.5970 O   0  0  0  0  0  0  0  0  0  0  0  0
  196.8160  169.6610  134.6570 O   0  0  0  0  0  1  0  0  0  0  0  0
  197.7440  170.6540  134.9580 C   0  0  0  0  0  0  0  0  0  0  0  0
  1  4  1  6  0  0  0
  3 38  1  1  0  0  0
  3  8  1  0  0  0  0
  4  8  1  0  0  0  0
  5 10  1  0  0  0  0
  6  5  1  6  0  0  0
  6  2  1  0  0  0  0
  7 12  2  0  0  0  0
  9 10  1  1  0  0  0
  9 11  1  0  0  0  0
  9  1  1  0  0  0  0
 11  3  1  0  0  0  0
 12  1  1  0  0  0  0
 12  2  1  0  0  0  0
 13 33  1  1  0  0  0
 13 24  1  0  0  0  0
 14 16  1  6  0  0  0
 14  6  1  0  0  0  0
 14 19  1  0  0  0  0
 15 23  2  0  0  0  0
 16 13  1  0  0  0  0
 17 25  1  0  0  0  0
 18 17  1  0  0  0  0
 19 23  1  0  0  0  0
 20 28  1  0  0  0  0
 21 18  1  0  0  0  0
 22 27  1  0  0  0  0
 23 20  1  0  0  0  0
 24 22  1  6  0  0  0
 24 19  1  0  0  0  0
 25 30  1  1  0  0  0
 27 26  2  0  0  0  0
 27 21  1  0  0  0  0
 28 25  1  0  0  0  0
 30 31  1  0  0  0  0
 30 29  2  0  0  0  0
 31 32  1  0  0  0  0
 34 35  1  0  0  0  0
 34 33  1  0  0  0  0
 35 36  1  0  0  0  0
 37 36  1  0  0  0  0
 39 41  1  0  0  0  0
 40 47  2  0  0  0  0
 40 43  1  0  0  0  0
 41 42  1  1  0  0  0
 43 38  1  1  0  0  0
 43 51  1  0  0  0  0
 44 45  1  0  0  0  0
 44 40  1  0  0  0  0
 45 54  1  6  0  0  0
 46 49  1  0  0  0  0
 46 51  1  1  0  0  0
 46 41  1  0  0  0  0
 48 45  1  0  0  0  0
 48 50  1  0  0  0  0
 49 50  1  6  0  0  0
 49 41  1  0  0  0  0
 52 54  2  0  0  0  0
 53 54  1  0  0  0  0
M  END
>  <MODEL>
7

>  <REMARK>
 VINA RESULT:      -6.1      5.417      9.100
  Name = 
  10 active torsions:
  status: ('A' for Active; 'I' for Inactive)
    1  A    between atoms: C_2  and  C_33
    2  A    between atoms: C_4  and  C_13
    3  A    between atoms: C_4  and  C_17
    4  A    between atoms: C_11  and  C_20
    5  A    between atoms: C_11  and  C_46
    6  A    between atoms: C_12  and  C_34
    7  A    between atoms: O_19  and  C_25
    8  A    between atoms: C_25  and  C_40
    9  A    between atoms: C_26  and  C_35
   10  A    between atoms: C_33  and  C_46
                            x       y       z     vdW  Elec       q    Type
                         _______ _______ _______ _____ _____    ______ ____

>  <TORSDO>
F 10

$$$$
=
 OpenBabel11042410063D

 54 59  0  0  1  0  0  0  0  0999 V2000
  188.0770  177.7160  137.9370 C   0  0  2  0  0  3  0  0  0  0  0  0
  186.5990  177.8190  135.8470 C   0  0  0  0  0  2  0  0  0  0  0  0
  189.0580  177.8070  140.7030 C   0  0  2  0  0  3  0  0  0  0  0  0
  189.4470  177.1530  138.3230 C   0  0  0  0  0  2  0  0  0  0  0  0
  184.9480  177.5270  137.8280 C   0  0  0  0  0  2  0  0  0  0  0  0
  185.1530  177.9560  136.3630 C   0  0  2  0  0  3  0  0  0  0  0  0
  187.4990  175.6900  136.6330 C   0  0  0  0  0  2  0  0  0  0  0  0
  190.0130  177.9080  139.5170 C   0  0  0  0  0  2  0  0  0  0  0  0
  187.0980  177.6870  139.1250 C   0  0  2  0  0  3  0  0  0  0  0  0
  185.7770  178.3740  138.7850 C   0  0  0  0  0  2  0  0  0  0  0  0
  187.7070  178.4100  140.3260 C   0  0  0  0  0  2  0  0  0  0  0  0
  187.5130  177.0230  136.7260 C   0  0  0  0  0  0  0  0  0  0  0  0
  184.1890  174.9110  135.5960 C   0  0  2  0  0  3  0  0  0  0  0  0
  184.1620  177.2540  135.4110 C   0  0  1  0  0  3  0  0  0  0  0  0
  181.8100  178.8520  136.2370 O   0  0  0  0  0  0  0  0  0  0  0  0
  184.7670  176.0390  134.8600 N   0  0  0  0  0  2  0  0  0  0  0  0
  179.4220  175.2970  139.1890 C   0  0  0  0  0  2  0  0  0  0  0  0
  179.0220  174.4480  137.9910 C   0  0  0  0  0  2  0  0  0  0  0  0
  182.9670  176.8260  136.1270 N   0  0  0  0  0  0  0  0  0  0  0  0
  181.3380  177.3330  138.0120 C   0  0  0  0  0  2  0  0  0  0  0  0
  180.1830  174.2120  137.1480 N   0  0  0  0  0  2  0  0  0  0  0  0
  181.7580  174.8670  135.2860 C   0  0  0  0  0  2  0  0  0  0  0  0
  182.0250  177.7180  136.7420 C   0  0  0  0  0  0  0  0  0  0  0  0
  182.8790  175.3800  136.1890 C   0  0  1  0  0  3  0  0  0  0  0  0
  179.0570  176.7700  138.9980 C   0  0  2  0  0  3  0  0  0  0  0  0
  179.5310  175.6790  135.4500 O   0  0  0  0  0  0  0  0  0  0  0  0
  180.4290  174.9510  135.9510 C   0  0  0  0  0  0  0  0  0  0  0  0
  179.8240  177.4530  137.8630 C   0  0  0  0  0  2  0  0  0  0  0  0
  179.2000  176.9160  141.3850 O   0  0  0  0  0  0  0  0  0  0  0  0
  179.1800  177.5280  140.2810 C   0  0  0  0  0  0  0  0  0  0  0  0
  179.2850  178.9180  140.2380 O   0  0  0  0  0  0  0  0  0  0  0  0
  180.2950  179.6150  140.9490 C   0  0  0  0  0  1  0  0  0  0  0  0
  185.1290  174.4810  136.7170 C   0  0  0  0  0  2  0  0  0  0  0  0
  185.6790  173.0860  136.4620 C   0  0  0  0  0  2  0  0  0  0  0  0
  185.4260  172.6740  135.0220 C   0  0  0  0  0  2  0  0  0  0  0  0
  184.8170  171.2850  134.9630 C   0  0  0  0  0  2  0  0  0  0  0  0
  183.6860  171.1590  135.9660 C   0  0  0  0  0  1  0  0  0  0  0  0
  189.6320  178.5710  141.8840 C   0  0  0  0  0  2  0  0  0  0  0  0
  184.1520  179.5500  143.7100 O   0  0  0  0  0  1  0  0  0  0  0  0
  189.1150  177.8130  144.2110 C   0  0  0  0  0  0  0  0  0  0  0  0
  185.0960  178.5890  143.3340 C   0  0  1  0  0  0  0  0  0  0  0  0
  184.6600  177.5090  142.3560 C   0  0  0  0  0  1  0  0  0  0  0  0
  188.6430  178.6380  143.0430 C   0  0  2  0  0  3  0  0  0  0  0  0
  188.9210  178.3370  145.6000 C   0  0  0  0  0  2  0  0  0  0  0  0
  187.9130  177.4670  146.3390 C   0  0  2  0  0  3  0  0  0  0  0  0
  186.4970  178.9730  143.4490 C   0  0  1  0  0  3  0  0  0  0  0  0
  189.5770  176.6940  144.0380 O   0  0  0  0  0  0  0  0  0  0  0  0
  186.6670  178.2380  146.7960 C   0  0  0  0  0  2  0  0  0  0  0  0
  185.9050  178.0640  144.4560 N   0  0  1  0  0  0  0  0  0  0  0  0
  185.8620  178.8810  145.6630 C   0  0  0  0  0  2  0  0  0  0  0  0
  187.3630  178.2290  142.6400 O   0  0  0  0  0  0  0  0  0  0  0  0
  187.9950  176.7740  148.6170 O   0  0  0  0  0  1  0  0  0  0  0  0
  189.7870  176.1380  147.3360 O   0  0  0  0  0  0  0  0  0  0  0  0
  188.5670  176.7880  147.4950 C   0  0  0  0  0  0  0  0  0  0  0  0
  1  4  1  1  0  0  0
  1  9  1  0  0  0  0
  2 12  1  0  0  0  0
  3 38  1  1  0  0  0
  4  8  1  0  0  0  0
  5 10  1  0  0  0  0
  6  2  1  6  0  0  0
  6  5  1  0  0  0  0
  7 12  2  0  0  0  0
  8  3  1  0  0  0  0
  9 10  1  6  0  0  0
  9 11  1  0  0  0  0
 11  3  1  0  0  0  0
 12  1  1  0  0  0  0
 13 24  1  0  0  0  0
 13 33  1  1  0  0  0
 14 16  1  1  0  0  0
 14 19  1  0  0  0  0
 14  6  1  0  0  0  0
 15 23  2  0  0  0  0
 16 13  1  0  0  0  0
 18 17  1  0  0  0  0
 19 24  1  0  0  0  0
 19 23  1  0  0  0  0
 21 18  1  0  0  0  0
 22 27  1  0  0  0  0
 23 20  1  0  0  0  0
 24 22  1  6  0  0  0
 25 17  1  0  0  0  0
 25 30  1  1  0  0  0
 26 27  2  0  0  0  0
 27 21  1  0  0  0  0
 28 20  1  0  0  0  0
 28 25  1  0  0  0  0
 30 29  2  0  0  0  0
 31 30  1  0  0  0  0
 31 32  1  0  0  0  0
 34 33  1  0  0  0  0
 35 34  1  0  0  0  0
 36 35  1  0  0  0  0
 36 37  1  0  0  0  0
 40 44  1  0  0  0  0
 41 42  1  6  0  0  0
 41 46  1  0  0  0  0
 41 39  1  0  0  0  0
 41 49  1  0  0  0  0
 43 38  1  6  0  0  0
 43 40  1  0  0  0  0
 44 45  1  0  0  0  0
 45 48  1  0  0  0  0
 45 54  1  1  0  0  0
 46 51  1  6  0  0  0
 46 49  1  0  0  0  0
 47 40  2  0  0  0  0
 49 50  1  1  0  0  0
 50 48  1  0  0  0  0
 51 43  1  0  0  0  0
 53 54  2  0  0  0  0
 54 52  1  0  0  0  0
M  END
>  <MODEL>
8

>  <REMARK>
 VINA RESULT:      -5.7      2.337      5.424
  Name = 
  10 active torsions:
  status: ('A' for Active; 'I' for Inactive)
    1  A    between atoms: C_2  and  C_33
    2  A    between atoms: C_4  and  C_13
    3  A    between atoms: C_4  and  C_17
    4  A    between atoms: C_11  and  C_20
    5  A    between atoms: C_11  and  C_46
    6  A    between atoms: C_12  and  C_34
    7  A    between atoms: O_19  and  C_25
    8  A    between atoms: C_25  and  C_40
    9  A    between atoms: C_26  and  C_35
   10  A    between atoms: C_33  and  C_46
                            x       y       z     vdW  Elec       q    Type
                         _______ _______ _______ _____ _____    ______ ____

>  <TORSDO>
F 10

$$$$
=
 OpenBabel11042410063D

 54 59  0  0  1  0  0  0  0  0999 V2000
  190.4460  176.8530  137.7300 C   0  0  2  0  0  3  0  0  0  0  0  0
  188.9780  176.8250  135.6310 C   0  0  0  0  0  2  0  0  0  0  0  0
  191.4160  177.1300  140.4870 C   0  0  2  0  0  3  0  0  0  0  0  0
  191.8050  176.2980  138.1640 C   0  0  0  0  0  2  0  0  0  0  0  0
  187.3150  176.7030  137.6190 C   0  0  0  0  0  2  0  0  0  0  0  0
  187.5320  177.0210  136.1270 C   0  0  2  0  0  3  0  0  0  0  0  0
  189.8420  174.7450  136.5750 C   0  0  0  0  0  2  0  0  0  0  0  0
  192.3780  177.1300  139.3020 C   0  0  0  0  0  2  0  0  0  0  0  0
  189.4610  176.9260  138.9130 C   0  0  2  0  0  3  0  0  0  0  0  0
  188.1530  177.6060  138.5150 C   0  0  0  0  0  2  0  0  0  0  0  0
  190.0760  177.7250  140.0600 C   0  0  0  0  0  2  0  0  0  0  0  0
  189.8760  176.0810  136.5700 C   0  0  0  0  0  0  0  0  0  0  0  0
  186.2830  174.0010  135.7990 C   0  0  2  0  0  3  0  0  0  0  0  0
  186.5340  176.2660  135.2240 C   0  0  1  0  0  3  0  0  0  0  0  0
  184.3280  178.2110  135.5680 O   0  0  0  0  0  0  0  0  0  0  0  0
  187.0340  174.9190  134.9380 N   0  0  0  0  0  2  0  0  0  0  0  0
  181.3590  175.4850  138.8540 C   0  0  0  0  0  2  0  0  0  0  0  0
  180.9470  174.4840  137.7850 C   0  0  0  0  0  2  0  0  0  0  0  0
  185.2530  176.0920  135.8970 N   0  0  0  0  0  0  0  0  0  0  0  0
  183.5680  177.0810  137.5240 C   0  0  0  0  0  2  0  0  0  0  0  0
  182.1280  173.9880  137.0950 N   0  0  0  0  0  2  0  0  0  0  0  0
  183.8900  174.1470  135.2920 C   0  0  0  0  0  2  0  0  0  0  0  0
  184.3790  177.1680  136.2710 C   0  0  0  0  0  0  0  0  0  0  0  0
  184.9980  174.6960  136.1900 C   0  0  1  0  0  3  0  0  0  0  0  0
  181.1770  176.9300  138.3900 C   0  0  2  0  0  3  0  0  0  0  0  0
  181.7620  175.1950  135.1270 O   0  0  0  0  0  0  0  0  0  0  0  0
  182.5370  174.4790  135.8180 C   0  0  0  0  0  0  0  0  0  0  0  0
  182.0920  177.3240  137.2270 C   0  0  0  0  0  2  0  0  0  0  0  0
  181.9580  177.5680  140.5640 O   0  0  0  0  0  0  0  0  0  0  0  0
  181.2980  177.8850  139.5350 C   0  0  0  0  0  0  0  0  0  0  0  0
  180.6850  179.1330  139.4420 O   0  0  0  0  0  0  0  0  0  0  0  0
  180.8840  179.9860  138.3260 C   0  0  0  0  0  1  0  0  0  0  0  0
  187.0910  173.6810  137.0520 C   0  0  0  0  0  2  0  0  0  0  0  0
  187.6560  172.2710  136.9910 C   0  0  0  0  0  2  0  0  0  0  0  0
  187.2000  171.5740  135.7200 C   0  0  0  0  0  2  0  0  0  0  0  0
  188.3950  171.1450  134.8890 C   0  0  0  0  0  2  0  0  0  0  0  0
  188.4700  169.6320  134.8090 C   0  0  0  0  0  1  0  0  0  0  0  0
  191.9970  177.9700  141.6120 C   0  0  0  0  0  2  0  0  0  0  0  0
  186.6020  178.3660  143.8630 O   0  0  0  0  0  1  0  0  0  0  0  0
  191.7560  177.2110  143.9830 C   0  0  0  0  0  0  0  0  0  0  0  0
  187.6170  177.5080  143.4250 C   0  0  1  0  0  0  0  0  0  0  0  0
  187.2320  176.3650  142.5000 C   0  0  0  0  0  1  0  0  0  0  0  0
  191.1020  177.9510  142.8470 C   0  0  2  0  0  3  0  0  0  0  0  0
  191.6140  177.7410  145.3770 C   0  0  0  0  0  2  0  0  0  0  0  0
  190.7730  176.7790  146.2060 C   0  0  2  0  0  3  0  0  0  0  0  0
  188.9710  178.0510  143.4210 C   0  0  1  0  0  3  0  0  0  0  0  0
  192.3270  176.1480  143.7880 O   0  0  0  0  0  0  0  0  0  0  0  0
  189.4870  177.4150  146.7520 C   0  0  0  0  0  2  0  0  0  0  0  0
  188.5680  177.1030  144.4840 N   0  0  1  0  0  0  0  0  0  0  0  0
  188.5260  177.9370  145.6800 C   0  0  0  0  0  2  0  0  0  0  0  0
  189.8490  177.3920  142.5550 O   0  0  0  0  0  0  0  0  0  0  0  0
  191.8940  176.9220  148.3030 O   0  0  0  0  0  1  0  0  0  0  0  0
  191.9880  174.8720  147.2820 O   0  0  0  0  0  0  0  0  0  0  0  0
  191.5900  176.2040  147.3140 C   0  0  0  0  0  0  0  0  0  0  0  0
  1  4  1  1  0  0  0
  1  9  1  0  0  0  0
  2 12  1  0  0  0  0
  3 38  1  1  0  0  0
  4  8  1  0  0  0  0
  5 10  1  0  0  0  0
  6  2  1  6  0  0  0
  6  5  1  0  0  0  0
  8  3  1  0  0  0  0
  9 10  1  6  0  0  0
  9 11  1  0  0  0  0
 11  3  1  0  0  0  0
 12  7  2  0  0  0  0
 12  1  1  0  0  0  0
 13 24  1  0  0  0  0
 13 33  1  1  0  0  0
 14 16  1  1  0  0  0
 14 19  1  0  0  0  0
 14  6  1  0  0  0  0
 15 23  2  0  0  0  0
 16 13  1  0  0  0  0
 18 17  1  0  0  0  0
 19 24  1  0  0  0  0
 19 23  1  0  0  0  0
 21 18  1  0  0  0  0
 22 27  1  0  0  0  0
 23 20  1  0  0  0  0
 24 22  1  6  0  0  0
 25 17  1  0  0  0  0
 25 30  1  1  0  0  0
 26 27  2  0  0  0  0
 27 21  1  0  0  0  0
 28 20  1  0  0  0  0
 28 25  1  0  0  0  0
 30 29  2  0  0  0  0
 31 30  1  0  0  0  0
 32 31  1  0  0  0  0
 34 33  1  0  0  0  0
 35 34  1  0  0  0  0
 36 35  1  0  0  0  0
 37 36  1  0  0  0  0
 40 44  1  0  0  0  0
 41 42  1  6  0  0  0
 41 39  1  0  0  0  0
 41 49  1  0  0  0  0
 43 38  1  6  0  0  0
 43 40  1  0  0  0  0
 44 45  1  0  0  0  0
 45 48  1  0  0  0  0
 45 54  1  1  0  0  0
 46 51  1  6  0  0  0
 46 41  1  0  0  0  0
 46 49  1  0  0  0  0
 47 40  2  0  0  0  0
 49 50  1  1  0  0  0
 50 48  1  0  0  0  0
 51 43  1  0  0  0  0
 53 54  2  0  0  0  0
 54 52  1  0  0  0  0
M  END
>  <MODEL>
9

>  <REMARK>
 VINA RESULT:      -5.7      2.754      5.621
  Name = 
  10 active torsions:
  status: ('A' for Active; 'I' for Inactive)
    1  A    between atoms: C_2  and  C_33
    2  A    between atoms: C_4  and  C_13
    3  A    between atoms: C_4  and  C_17
    4  A    between atoms: C_11  and  C_20
    5  A    between atoms: C_11  and  C_46
    6  A    between atoms: C_12  and  C_34
    7  A    between atoms: O_19  and  C_25
    8  A    between atoms: C_25  and  C_40
    9  A    between atoms: C_26  and  C_35
   10  A    between atoms: C_33  and  C_46
                            x       y       z     vdW  Elec       q    Type
                         _______ _______ _______ _____ _____    ______ ____

>  <TORSDO>
F 10

$$$$
