=
 OpenBabel11042411093D

 68 74  0  0  1  0  0  0  0  0999 V2000
  187.5100  178.1670  139.1560 C   0  0  0  0  0  2  0  0  0  0  0  0
  187.6970  175.9500  134.8280 C   0  0  0  0  0  3  0  0  0  0  0  0
  187.4620  178.2030  136.7400 C   0  0  0  0  0  0  0  0  0  0  0  0
  188.0610  175.2220  136.0770 C   0  0  0  0  0  3  0  0  0  0  0  0
  186.9200  178.2580  135.5700 C   0  0  0  0  0  3  0  0  0  0  0  0
  188.1380  177.9410  137.8090 C   0  0  0  0  0  0  0  0  0  0  0  0
  187.2180  177.1910  134.5980 C   0  0  0  0  0  3  0  0  0  0  0  0
  189.2420  176.9490  137.5650 C   0  0  2  0  0  3  0  0  0  0  0  0
  188.6780  175.6000  137.2100 C   0  0  0  0  0  3  0  0  0  0  0  0
  190.1360  175.7890  142.2250 N   0  0  0  0  0  2  0  0  0  0  0  0
  189.8100  176.3300  139.9600 N   0  0  0  0  0  2  0  0  0  0  0  0
  190.5430  176.4430  141.1850 C   0  0  0  0  0  0  0  0  0  0  0  0
  191.4630  177.0970  138.4920 O   0  0  0  0  0  0  0  0  0  0  0  0
  190.2440  176.8320  138.6890 C   0  0  0  0  0  0  0  0  0  0  0  0
  191.6780  177.4140  141.3300 C   0  0  0  0  0  2  0  0  0  0  0  0
  191.6690  177.7960  143.7280 C   0  0  0  0  0  0  0  0  0  0  0  0
  192.2910  177.3290  142.6880 C   0  0  0  0  0  3  0  0  0  0  0  0
  191.0360  178.2540  144.7730 C   0  0  0  0  0  3  0  0  0  0  0  0
  189.6280  177.8480  145.0580 C   0  0  0  0  0  2  0  0  0  0  0  0
  189.3860  177.7180  146.5690 C   0  0  1  0  0  3  0  0  0  0  0  0
  187.6020  179.3140  147.3700 C   0  0  0  0  0  2  0  0  0  0  0  0
  184.6230  177.8120  146.7990 C   0  0  0  0  0  2  0  0  0  0  0  0
  186.1320  179.6170  147.6900 C   0  0  0  0  0  2  0  0  0  0  0  0
  185.6340  176.7180  146.4220 C   0  0  0  0  0  2  0  0  0  0  0  0
  186.9720  177.2750  145.9090 C   0  0  2  0  0  3  0  0  0  0  0  0
  187.9090  177.8420  147.0260 C   0  0  1  0  0  0  0  0  0  0  0  0
  185.7300  179.4000  145.1620 C   0  0  0  0  0  2  0  0  0  0  0  0
  187.7640  177.0110  148.3040 C   0  0  0  0  0  1  0  0  0  0  0  0
  185.1500  179.2300  146.5780 C   0  0  1  0  0  3  0  0  0  0  0  0
  186.7040  178.2740  144.7660 C   0  0  0  0  0  2  0  0  0  0  0  0
  190.1070  176.6550  147.1560 O   0  0  0  0  0  0  0  0  0  0  0  0
  191.3310  177.1370  147.5000 N   0  0  0  0  0  2  0  0  0  0  0  0
  192.2220  175.9940  147.6200 C   0  0  0  0  0  2  0  0  0  0  0  0
  192.2230  175.2060  146.3210 C   0  0  0  0  0  1  0  0  0  0  0  0
  183.2230  178.5330  138.8650 C   0  0  0  0  0  0  0  0  0  0  0  0
  183.9150  179.1310  139.9310 C   0  0  0  0  0  3  0  0  0  0  0  0
  185.3400  177.7220  137.9900 C   0  0  0  0  0  3  0  0  0  0  0  0
  186.0200  178.2930  139.0710 C   0  0  0  0  0  0  0  0  0  0  0  0
  185.9570  179.6080  141.1130 O   0  0  0  0  0  1  0  0  0  0  0  0
  185.3020  179.0080  140.0420 C   0  0  0  0  0  0  0  0  0  0  0  0
  183.9550  177.8550  137.8780 C   0  0  0  0  0  3  0  0  0  0  0  0
  180.8820  177.5950  138.8580 N   0  0  0  0  0  0  0  0  0  0  0  0
  179.8210  179.4310  139.8830 O   0  0  0  0  0  0  0  0  0  0  0  0
  179.6090  178.2000  139.2240 C   0  0  0  0  0  2  0  0  0  0  0  0
  181.1410  179.8190  139.5970 C   0  0  1  0  0  3  0  0  0  0  0  0
  181.7340  178.7650  138.6970 C   0  0  1  0  0  3  0  0  0  0  0  0
  181.2920  176.8460  139.9780 N   0  0  0  0  0  2  0  0  0  0  0  0
  181.4240  175.4690  139.5300 C   0  0  0  0  0  2  0  0  0  0  0  0
  180.0480  174.8820  139.2520 C   0  0  2  0  0  3  0  0  0  0  0  0
  179.7050  173.9980  140.2750 O   0  0  0  0  0  1  0  0  0  0  0  0
  179.9870  174.1610  137.9040 C   0  0  1  0  0  3  0  0  0  0  0  0
  181.7880  172.4810  136.6390 C   0  0  2  0  0  3  0  0  0  0  0  0
  180.5310  171.8910  135.9830 C   0  0  2  0  0  3  0  0  0  0  0  0
  179.2370  172.2680  136.7180 C   0  0  0  0  0  2  0  0  0  0  0  0
  181.5930  174.2710  137.0110 S   0  0  0  0  0  0  0  0  0  0  0  0
  179.5140  172.7830  138.0560 N   0  0  0  0  0  2  0  0  0  0  0  0
  180.6390  170.4990  135.9190 O   0  0  0  0  0  1  0  0  0  0  0  0
  183.7470  170.9360  136.2800 C   0  0  0  0  0  2  0  0  0  0  0  0
  187.7710  170.6780  135.8660 O   0  0  0  0  0  0  0  0  0  0  0  0
  185.2190  173.0950  134.9150 C   0  0  0  0  0  2  0  0  0  0  0  0
  184.9690  170.6450  135.4150 C   0  0  0  0  0  2  0  0  0  0  0  0
  185.8090  171.8340  135.3430 N   0  0  0  0  0  0  0  0  0  0  0  0
  183.0360  172.2040  135.7930 C   0  0  0  0  0  3  0  0  0  0  0  0
  183.9950  173.4030  135.7730 C   0  0  0  0  0  2  0  0  0  0  0  0
  187.2240  171.7530  135.5070 C   0  0  0  0  0  3  0  0  0  0  0  0
  181.1460  181.1690  138.8880 C   0  0  0  0  0  2  0  0  0  0  0  0
  180.0560  181.3180  136.7210 N   0  0  0  0  0  1  0  0  0  0  0  0
  179.8370  181.3910  138.1540 C   0  0  0  0  0  2  0  0  0  0  0  0
  2  4  1  0  0  0  0
  3  6  2  0  0  0  0
  4  9  2  0  0  0  0
  5  3  2  0  0  0  0
  6  1  1  0  0  0  0
  7  2  2  0  0  0  0
  7  5  1  0  0  0  0
  8  6  1  0  0  0  0
  8 14  1  1  0  0  0
  9  8  1  0  0  0  0
 11 12  1  0  0  0  0
 12 15  1  0  0  0  0
 12 10  2  0  0  0  0
 13 14  2  0  0  0  0
 14 11  1  0  0  0  0
 15 17  1  0  0  0  0
 16 18  2  0  0  0  0
 17 16  2  0  0  0  0
 18 19  1  0  0  0  0
 20 19  1  6  0  0  0
 20 26  1  0  0  0  0
 20 31  1  0  0  0  0
 21 23  1  0  0  0  0
 24 22  1  0  0  0  0
 25 30  1  6  0  0  0
 25 24  1  0  0  0  0
 25 26  1  0  0  0  0
 26 21  1  0  0  0  0
 26 28  1  1  0  0  0
 29 27  1  6  0  0  0
 29 22  1  0  0  0  0
 29 23  1  0  0  0  0
 30 27  1  0  0  0  0
 31 32  1  0  0  0  0
 32 33  1  0  0  0  0
 34 33  1  0  0  0  0
 35 36  1  0  0  0  0
 36 40  2  0  0  0  0
 37 38  2  0  0  0  0
 38  1  1  0  0  0  0
 38 40  1  0  0  0  0
 40 39  1  0  0  0  0
 41 37  1  0  0  0  0
 41 35  2  0  0  0  0
 42 44  1  0  0  0  0
 42 47  1  0  0  0  0
 44 43  1  0  0  0  0
 45 66  1  6  0  0  0
 45 43  1  0  0  0  0
 46 42  1  0  0  0  0
 46 35  1  1  0  0  0
 46 45  1  0  0  0  0
 48 47  1  0  0  0  0
 49 48  1  0  0  0  0
 49 50  1  1  0  0  0
 51 56  1  0  0  0  0
 51 49  1  1  0  0  0
 52 63  1  6  0  0  0
 52 55  1  0  0  0  0
 53 57  1  1  0  0  0
 53 52  1  0  0  0  0
 53 54  1  0  0  0  0
 54 56  1  0  0  0  0
 55 51  1  0  0  0  0
 60 62  1  0  0  0  0
 60 64  1  0  0  0  0
 61 58  1  0  0  0  0
 62 61  1  0  0  0  0
 62 65  1  0  0  0  0
 63 58  1  0  0  0  0
 64 63  1  0  0  0  0
 65 59  2  0  0  0  0
 67 68  1  0  0  0  0
 68 66  1  0  0  0  0
M  END
>  <MODEL>
1

>  <REMARK>
 VINA RESULT:      -7.1      0.000      0.000
  Name = 
  19 active torsions:
  status: ('A' for Active; 'I' for Inactive)
    1  A    between atoms: C_1  and  C_26
    2  A    between atoms: C_1  and  C_61
    3  A    between atoms: N_2  and  N_19
    4  A    between atoms: C_7  and  C_45
    5  A    between atoms: C_11  and  C_52
    6  A    between atoms: N_12  and  C_32
    7  A    between atoms: N_12  and  O_59
    8  A    between atoms: C_13  and  C_41
    9  A    between atoms: C_13  and  C_62
   10  A    between atoms: C_17  and  C_53
   11  A    between atoms: N_19  and  C_38
   12  A    between atoms: C_20  and  C_26
   13  A    between atoms: C_22  and  C_30
   14  A    between atoms: C_22  and  C_56
   15  A    between atoms: C_24  and  C_44
   16  A    between atoms: C_24  and  C_49
   17  A    between atoms: C_26  and  O_59
   18  A    between atoms: C_38  and  C_45
   19  A    between atoms: C_63  and  C_64
                            x       y       z     vdW  Elec       q    Type
                         _______ _______ _______ _____ _____    ______ ____

>  <TORSDO>
F 19

$$$$
=
 OpenBabel11042411093D

 68 74  0  0  1  0  0  0  0  0999 V2000
  184.3710  177.0020  137.7530 C   0  0  0  0  0  2  0  0  0  0  0  0
  180.9910  174.5690  135.2350 C   0  0  0  0  0  3  0  0  0  0  0  0
  182.7350  176.8470  135.9810 C   0  0  0  0  0  0  0  0  0  0  0  0
  181.8730  173.8660  136.2100 C   0  0  0  0  0  3  0  0  0  0  0  0
  181.5960  177.0360  135.4050 C   0  0  0  0  0  3  0  0  0  0  0  0
  183.8430  176.4060  136.4780 C   0  0  0  0  0  0  0  0  0  0  0  0
  180.8540  175.8690  134.8960 C   0  0  0  0  0  3  0  0  0  0  0  0
  184.1640  175.0100  136.0200 C   0  0  2  0  0  3  0  0  0  0  0  0
  183.1610  174.0260  136.5610 C   0  0  0  0  0  3  0  0  0  0  0  0
  188.9590  175.6340  135.3300 N   0  0  0  0  0  2  0  0  0  0  0  0
  186.6740  175.2830  135.7550 N   0  0  0  0  0  2  0  0  0  0  0  0
  188.0260  174.8150  135.6910 C   0  0  0  0  0  0  0  0  0  0  0  0
  185.7850  173.6030  137.1200 O   0  0  0  0  0  0  0  0  0  0  0  0
  185.5730  174.5570  136.3200 C   0  0  0  0  0  0  0  0  0  0  0  0
  188.3590  173.3650  135.8890 C   0  0  0  0  0  2  0  0  0  0  0  0
  190.5930  173.1410  134.9640 C   0  0  0  0  0  0  0  0  0  0  0  0
  189.3240  172.8880  134.8550 C   0  0  0  0  0  3  0  0  0  0  0  0
  191.8700  173.3840  135.0810 C   0  0  0  0  0  3  0  0  0  0  0  0
  192.6010  173.0570  136.3410 C   0  0  0  0  0  2  0  0  0  0  0  0
  193.3630  174.2810  136.8710 C   0  0  1  0  0  3  0  0  0  0  0  0
  195.5900  174.2750  138.0610 C   0  0  0  0  0  2  0  0  0  0  0  0
  197.8610  173.0430  135.8750 C   0  0  0  0  0  2  0  0  0  0  0  0
  197.1130  174.0900  138.0360 C   0  0  0  0  0  2  0  0  0  0  0  0
  196.5870  173.1440  135.0220 C   0  0  0  0  0  2  0  0  0  0  0  0
  195.2920  172.9890  135.8370 C   0  0  2  0  0  3  0  0  0  0  0  0
  194.9020  174.2480  136.6800 C   0  0  1  0  0  0  0  0  0  0  0  0
  196.6180  171.6140  137.5610 C   0  0  0  0  0  2  0  0  0  0  0  0
  195.2880  175.5230  135.9260 C   0  0  0  0  0  1  0  0  0  0  0  0
  197.5820  172.7980  137.3580 C   0  0  1  0  0  3  0  0  0  0  0  0
  195.3650  171.6910  136.6670 C   0  0  0  0  0  2  0  0  0  0  0  0
  192.7450  175.5050  136.5370 O   0  0  0  0  0  0  0  0  0  0  0  0
  192.5760  176.2030  137.6910 N   0  0  0  0  0  2  0  0  0  0  0  0
  191.1680  176.1130  138.0430 C   0  0  0  0  0  2  0  0  0  0  0  0
  190.9640  176.5900  139.4700 C   0  0  0  0  0  1  0  0  0  0  0  0
  181.2430  178.8920  140.0420 C   0  0  0  0  0  0  0  0  0  0  0  0
  182.3110  179.6520  139.5390 C   0  0  0  0  0  3  0  0  0  0  0  0
  182.2180  176.9110  139.0260 C   0  0  0  0  0  3  0  0  0  0  0  0
  183.2950  177.6690  138.5540 C   0  0  0  0  0  0  0  0  0  0  0  0
  184.3830  179.8290  138.3270 O   0  0  0  0  0  1  0  0  0  0  0  0
  183.3360  179.0490  138.8070 C   0  0  0  0  0  0  0  0  0  0  0  0
  181.1910  177.5200  139.7490 C   0  0  0  0  0  3  0  0  0  0  0  0
  180.0790  179.5010  142.1940 N   0  0  0  0  0  0  0  0  0  0  0  0
  179.3890  181.6620  141.5610 O   0  0  0  0  0  0  0  0  0  0  0  0
  179.2740  180.6610  142.5510 C   0  0  0  0  0  2  0  0  0  0  0  0
  179.9050  181.0350  140.4130 C   0  0  1  0  0  3  0  0  0  0  0  0
  180.0830  179.5750  140.7400 C   0  0  1  0  0  3  0  0  0  0  0  0
  181.3690  179.7540  142.6980 N   0  0  0  0  0  2  0  0  0  0  0  0
  181.9410  178.4610  143.0390 C   0  0  0  0  0  2  0  0  0  0  0  0
  183.0030  178.6340  144.1140 C   0  0  2  0  0  3  0  0  0  0  0  0
  182.5830  179.5980  145.0320 O   0  0  0  0  0  1  0  0  0  0  0  0
  184.3600  179.0340  143.5310 C   0  0  1  0  0  3  0  0  0  0  0  0
  186.6800  177.5790  143.1180 C   0  0  2  0  0  3  0  0  0  0  0  0
  186.9170  178.5850  141.9820 C   0  0  2  0  0  3  0  0  0  0  0  0
  185.6480  179.3510  141.5840 C   0  0  0  0  0  2  0  0  0  0  0  0
  185.7470  178.3280  144.5150 S   0  0  0  0  0  0  0  0  0  0  0  0
  184.4480  178.7050  142.1070 N   0  0  0  0  0  2  0  0  0  0  0  0
  187.4290  177.9230  140.8620 O   0  0  0  0  0  1  0  0  0  0  0  0
  188.1520  177.0780  145.1020 C   0  0  0  0  0  2  0  0  0  0  0  0
  191.8820  177.3790  146.6590 O   0  0  0  0  0  0  0  0  0  0  0  0
  190.4980  176.8780  143.3290 C   0  0  0  0  0  2  0  0  0  0  0  0
  189.4470  176.4180  145.5640 C   0  0  0  0  0  2  0  0  0  0  0  0
  190.5630  176.9350  144.7830 N   0  0  0  0  0  0  0  0  0  0  0  0
  187.9960  176.9460  143.5820 C   0  0  0  0  0  3  0  0  0  0  0  0
  189.2090  177.5380  142.8490 C   0  0  0  0  0  2  0  0  0  0  0  0
  191.7850  177.3270  145.4060 C   0  0  0  0  0  3  0  0  0  0  0  0
  178.9310  181.1920  139.2510 C   0  0  0  0  0  2  0  0  0  0  0  0
  180.4870  182.3590  137.7940 N   0  0  0  0  0  1  0  0  0  0  0  0
  179.6710  181.1660  137.9260 C   0  0  0  0  0  2  0  0  0  0  0  0
  1 38  1  0  0  0  0
  2  4  1  0  0  0  0
  3  6  2  0  0  0  0
  4  9  2  0  0  0  0
  5  3  2  0  0  0  0
  6  1  1  0  0  0  0
  7  2  2  0  0  0  0
  7  5  1  0  0  0  0
  8 14  1  1  0  0  0
  8  6  1  0  0  0  0
  8  9  1  0  0  0  0
 10 12  2  0  0  0  0
 11 14  1  0  0  0  0
 12 11  1  0  0  0  0
 12 15  1  0  0  0  0
 14 13  2  0  0  0  0
 16 18  2  0  0  0  0
 17 16  2  0  0  0  0
 17 15  1  0  0  0  0
 18 19  1  0  0  0  0
 20 19  1  6  0  0  0
 23 21  1  0  0  0  0
 24 22  1  0  0  0  0
 25 24  1  1  0  0  0
 25 30  1  0  0  0  0
 25 26  1  0  0  0  0
 26 28  1  6  0  0  0
 26 20  1  0  0  0  0
 26 21  1  0  0  0  0
 29 22  1  6  0  0  0
 29 27  1  0  0  0  0
 29 23  1  0  0  0  0
 30 27  1  0  0  0  0
 31 20  1  0  0  0  0
 31 32  1  0  0  0  0
 32 33  1  0  0  0  0
 33 34  1  0  0  0  0
 36 35  2  0  0  0  0
 37 41  2  0  0  0  0
 38 40  2  0  0  0  0
 38 37  1  0  0  0  0
 39 40  1  0  0  0  0
 40 36  1  0  0  0  0
 41 35  1  0  0  0  0
 42 44  1  0  0  0  0
 42 47  1  0  0  0  0
 43 44  1  0  0  0  0
 45 66  1  6  0  0  0
 45 46  1  0  0  0  0
 45 43  1  0  0  0  0
 46 35  1  1  0  0  0
 46 42  1  0  0  0  0
 47 48  1  0  0  0  0
 48 49  1  0  0  0  0
 49 50  1  1  0  0  0
 51 49  1  1  0  0  0
 51 55  1  0  0  0  0
 52 63  1  1  0  0  0
 52 55  1  0  0  0  0
 53 57  1  6  0  0  0
 53 52  1  0  0  0  0
 54 53  1  0  0  0  0
 54 56  1  0  0  0  0
 56 51  1  0  0  0  0
 58 61  1  0  0  0  0
 60 62  1  0  0  0  0
 62 65  1  0  0  0  0
 62 61  1  0  0  0  0
 63 58  1  0  0  0  0
 64 60  1  0  0  0  0
 64 63  1  0  0  0  0
 65 59  2  0  0  0  0
 67 68  1  0  0  0  0
 68 66  1  0  0  0  0
M  END
>  <MODEL>
2

>  <REMARK>
 VINA RESULT:      -6.9      3.928      9.185
  Name = 
  19 active torsions:
  status: ('A' for Active; 'I' for Inactive)
    1  A    between atoms: C_1  and  C_26
    2  A    between atoms: C_1  and  C_61
    3  A    between atoms: N_2  and  N_19
    4  A    between atoms: C_7  and  C_45
    5  A    between atoms: C_11  and  C_52
    6  A    between atoms: N_12  and  C_32
    7  A    between atoms: N_12  and  O_59
    8  A    between atoms: C_13  and  C_41
    9  A    between atoms: C_13  and  C_62
   10  A    between atoms: C_17  and  C_53
   11  A    between atoms: N_19  and  C_38
   12  A    between atoms: C_20  and  C_26
   13  A    between atoms: C_22  and  C_30
   14  A    between atoms: C_22  and  C_56
   15  A    between atoms: C_24  and  C_44
   16  A    between atoms: C_24  and  C_49
   17  A    between atoms: C_26  and  O_59
   18  A    between atoms: C_38  and  C_45
   19  A    between atoms: C_63  and  C_64
                            x       y       z     vdW  Elec       q    Type
                         _______ _______ _______ _____ _____    ______ ____

>  <TORSDO>
F 19

$$$$
=
 OpenBabel11042411093D

 68 74  0  0  1  0  0  0  0  0999 V2000
  192.3530  175.8140  137.0270 C   0  0  0  0  0  2  0  0  0  0  0  0
  194.8470  171.9100  135.5370 C   0  0  0  0  0  3  0  0  0  0  0  0
  193.6890  173.8470  137.4590 C   0  0  0  0  0  0  0  0  0  0  0  0
  193.9760  172.6690  134.5940 C   0  0  0  0  0  3  0  0  0  0  0  0
  194.7600  173.1840  137.7390 C   0  0  0  0  0  3  0  0  0  0  0  0
  192.5890  174.3300  136.9840 C   0  0  0  0  0  0  0  0  0  0  0  0
  195.1900  172.1090  136.8280 C   0  0  0  0  0  3  0  0  0  0  0  0
  191.9470  173.4180  135.9750 C   0  0  2  0  0  3  0  0  0  0  0  0
  192.8000  173.3010  134.7410 C   0  0  0  0  0  3  0  0  0  0  0  0
  188.7470  176.8760  134.6850 N   0  0  0  0  0  2  0  0  0  0  0  0
  190.2210  175.1380  135.2610 N   0  0  0  0  0  2  0  0  0  0  0  0
  188.9050  175.6960  135.1930 C   0  0  0  0  0  0  0  0  0  0  0  0
  189.6340  172.8900  135.5410 O   0  0  0  0  0  0  0  0  0  0  0  0
  190.5260  173.7810  135.6120 C   0  0  0  0  0  0  0  0  0  0  0  0
  187.7320  175.0110  135.8300 C   0  0  0  0  0  2  0  0  0  0  0  0
  185.8490  173.7060  135.0230 C   0  0  0  0  0  0  0  0  0  0  0  0
  186.6880  174.6750  134.8170 C   0  0  0  0  0  3  0  0  0  0  0  0
  184.9990  172.7400  135.2390 C   0  0  0  0  0  3  0  0  0  0  0  0
  184.2120  172.6780  136.5060 C   0  0  0  0  0  2  0  0  0  0  0  0
  182.7670  173.1500  136.2820 C   0  0  1  0  0  3  0  0  0  0  0  0
  183.5100  174.9110  137.9320 C   0  0  0  0  0  2  0  0  0  0  0  0
  181.7400  177.7090  137.2330 C   0  0  0  0  0  2  0  0  0  0  0  0
  183.3430  176.3000  138.5630 C   0  0  0  0  0  2  0  0  0  0  0  0
  181.1190  176.6690  136.2880 C   0  0  0  0  0  2  0  0  0  0  0  0
  182.1030  175.5670  135.8630 C   0  0  2  0  0  3  0  0  0  0  0  0
  182.3860  174.4910  136.9630 C   0  0  1  0  0  0  0  0  0  0  0  0
  184.0320  177.2220  136.2670 C   0  0  0  0  0  2  0  0  0  0  0  0
  181.1180  174.2330  137.7810 C   0  0  0  0  0  1  0  0  0  0  0  0
  183.2110  177.4430  137.5500 C   0  0  1  0  0  3  0  0  0  0  0  0
  183.3820  176.2170  135.2960 C   0  0  0  0  0  2  0  0  0  0  0  0
  182.3430  173.0160  134.9430 O   0  0  0  0  0  0  0  0  0  0  0  0
  181.9720  171.7210  134.7620 N   0  0  0  0  0  2  0  0  0  0  0  0
  181.0710  171.3780  135.8520 C   0  0  0  0  0  2  0  0  0  0  0  0
  180.3420  170.0860  135.5270 C   0  0  0  0  0  1  0  0  0  0  0  0
  190.9860  177.1460  140.8950 C   0  0  0  0  0  0  0  0  0  0  0  0
  192.2970  177.4210  140.4730 C   0  0  0  0  0  3  0  0  0  0  0  0
  190.5760  176.0230  138.7780 C   0  0  0  0  0  3  0  0  0  0  0  0
  191.8930  176.2740  138.3770 C   0  0  0  0  0  0  0  0  0  0  0  0
  194.0600  177.2680  138.8410 O   0  0  0  0  0  1  0  0  0  0  0  0
  192.7540  176.9840  139.2270 C   0  0  0  0  0  0  0  0  0  0  0  0
  190.1210  176.4710  140.0200 C   0  0  0  0  0  3  0  0  0  0  0  0
  189.3530  178.6470  142.0930 N   0  0  0  0  0  0  0  0  0  0  0  0
  188.9870  177.2600  143.9620 O   0  0  0  0  0  0  0  0  0  0  0  0
  188.7470  178.5390  143.4130 C   0  0  0  0  0  2  0  0  0  0  0  0
  190.0460  176.7000  143.2270 C   0  0  1  0  0  3  0  0  0  0  0  0
  190.4690  177.7180  142.2000 C   0  0  1  0  0  3  0  0  0  0  0  0
  188.3960  178.1540  141.1860 N   0  0  0  0  0  2  0  0  0  0  0  0
  187.3170  179.1280  141.1520 C   0  0  0  0  0  2  0  0  0  0  0  0
  186.0510  178.4790  140.6140 C   0  0  2  0  0  3  0  0  0  0  0  0
  185.4350  179.3420  139.7080 O   0  0  0  0  0  1  0  0  0  0  0  0
  185.0680  178.1130  141.7280 C   0  0  1  0  0  3  0  0  0  0  0  0
  185.1490  178.5510  144.4610 C   0  0  2  0  0  3  0  0  0  0  0  0
  183.6170  178.5280  144.3480 C   0  0  2  0  0  3  0  0  0  0  0  0
  183.1190  178.7140  142.9080 C   0  0  0  0  0  2  0  0  0  0  0  0
  185.9470  177.4650  143.2110 S   0  0  0  0  0  0  0  0  0  0  0  0
  184.1740  179.2310  142.0410 N   0  0  0  0  0  2  0  0  0  0  0  0
  183.0670  179.5230  145.1610 O   0  0  0  0  0  1  0  0  0  0  0  0
  186.2620  179.4350  146.5430 C   0  0  0  0  0  2  0  0  0  0  0  0
  189.1830  178.8290  149.2880 O   0  0  0  0  0  0  0  0  0  0  0  0
  186.9610  176.6880  147.3530 C   0  0  0  0  0  2  0  0  0  0  0  0
  186.6840  179.1080  147.9710 C   0  0  0  0  0  2  0  0  0  0  0  0
  187.4900  177.8940  147.9760 N   0  0  0  0  0  0  0  0  0  0  0  0
  185.6040  178.2160  145.8860 C   0  0  0  0  0  3  0  0  0  0  0  0
  186.5380  176.9980  145.9200 C   0  0  0  0  0  2  0  0  0  0  0  0
  188.7000  177.8110  148.7280 C   0  0  0  0  0  3  0  0  0  0  0  0
  191.2140  176.3820  144.1550 C   0  0  0  0  0  2  0  0  0  0  0  0
  191.6230  177.1310  146.4300 N   0  0  0  0  0  1  0  0  0  0  0  0
  191.5230  177.5680  145.0500 C   0  0  0  0  0  2  0  0  0  0  0  0
  1 38  1  0  0  0  0
  2  7  2  0  0  0  0
  3  5  2  0  0  0  0
  4  9  2  0  0  0  0
  4  2  1  0  0  0  0
  6  1  1  0  0  0  0
  6  3  2  0  0  0  0
  7  5  1  0  0  0  0
  8 14  1  6  0  0  0
  8  6  1  0  0  0  0
  9  8  1  0  0  0  0
 10 12  2  0  0  0  0
 11 14  1  0  0  0  0
 12 11  1  0  0  0  0
 12 15  1  0  0  0  0
 13 14  2  0  0  0  0
 16 18  2  0  0  0  0
 17 16  2  0  0  0  0
 17 15  1  0  0  0  0
 18 19  1  0  0  0  0
 20 19  1  6  0  0  0
 20 26  1  0  0  0  0
 21 23  1  0  0  0  0
 22 29  1  0  0  0  0
 24 22  1  0  0  0  0
 25 30  1  1  0  0  0
 25 24  1  0  0  0  0
 25 26  1  0  0  0  0
 26 28  1  1  0  0  0
 26 21  1  0  0  0  0
 29 27  1  6  0  0  0
 29 23  1  0  0  0  0
 30 27  1  0  0  0  0
 31 20  1  0  0  0  0
 32 31  1  0  0  0  0
 32 33  1  0  0  0  0
 34 33  1  0  0  0  0
 36 35  1  0  0  0  0
 37 41  1  0  0  0  0
 38 37  2  0  0  0  0
 38 40  1  0  0  0  0
 39 40  1  0  0  0  0
 40 36  2  0  0  0  0
 41 35  2  0  0  0  0
 42 46  1  0  0  0  0
 42 44  1  0  0  0  0
 44 43  1  0  0  0  0
 45 43  1  0  0  0  0
 45 66  1  1  0  0  0
 46 35  1  6  0  0  0
 46 45  1  0  0  0  0
 47 42  1  0  0  0  0
 48 47  1  0  0  0  0
 49 50  1  6  0  0  0
 49 48  1  0  0  0  0
 51 49  1  6  0  0  0
 51 56  1  0  0  0  0
 51 55  1  0  0  0  0
 52 63  1  1  0  0  0
 53 52  1  0  0  0  0
 53 57  1  1  0  0  0
 54 53  1  0  0  0  0
 55 52  1  0  0  0  0
 56 54  1  0  0  0  0
 58 61  1  0  0  0  0
 60 62  1  0  0  0  0
 61 62  1  0  0  0  0
 62 65  1  0  0  0  0
 63 64  1  0  0  0  0
 63 58  1  0  0  0  0
 64 60  1  0  0  0  0
 65 59  2  0  0  0  0
 66 68  1  0  0  0  0
 68 67  1  0  0  0  0
M  END
>  <MODEL>
3

>  <REMARK>
 VINA RESULT:      -6.5      3.128     10.515
  Name = 
  19 active torsions:
  status: ('A' for Active; 'I' for Inactive)
    1  A    between atoms: C_1  and  C_26
    2  A    between atoms: C_1  and  C_61
    3  A    between atoms: N_2  and  N_19
    4  A    between atoms: C_7  and  C_45
    5  A    between atoms: C_11  and  C_52
    6  A    between atoms: N_12  and  C_32
    7  A    between atoms: N_12  and  O_59
    8  A    between atoms: C_13  and  C_41
    9  A    between atoms: C_13  and  C_62
   10  A    between atoms: C_17  and  C_53
   11  A    between atoms: N_19  and  C_38
   12  A    between atoms: C_20  and  C_26
   13  A    between atoms: C_22  and  C_30
   14  A    between atoms: C_22  and  C_56
   15  A    between atoms: C_24  and  C_44
   16  A    between atoms: C_24  and  C_49
   17  A    between atoms: C_26  and  O_59
   18  A    between atoms: C_38  and  C_45
   19  A    between atoms: C_63  and  C_64
                            x       y       z     vdW  Elec       q    Type
                         _______ _______ _______ _____ _____    ______ ____

>  <TORSDO>
F 19

$$$$
=
 OpenBabel11042411093D

 68 74  0  0  1  0  0  0  0  0999 V2000
  186.4020  178.4450  143.1600 C   0  0  0  0  0  2  0  0  0  0  0  0
  187.3630  178.2960  147.9280 C   0  0  0  0  0  3  0  0  0  0  0  0
  185.7830  177.9510  145.4430 C   0  0  0  0  0  0  0  0  0  0  0  0
  188.4450  178.5560  146.9360 C   0  0  0  0  0  3  0  0  0  0  0  0
  185.2080  178.1510  146.5810 C   0  0  0  0  0  3  0  0  0  0  0  0
  186.5740  177.6990  144.4530 C   0  0  0  0  0  0  0  0  0  0  0  0
  186.0280  178.1360  147.8050 C   0  0  0  0  0  3  0  0  0  0  0  0
  187.8810  177.1020  144.8980 C   0  0  2  0  0  3  0  0  0  0  0  0
  188.6800  178.0970  145.6950 C   0  0  0  0  0  3  0  0  0  0  0  0
  192.2890  175.7430  143.2880 N   0  0  0  0  0  2  0  0  0  0  0  0
  190.1240  176.3280  143.9920 N   0  0  0  0  0  2  0  0  0  0  0  0
  191.0830  176.0780  142.9590 C   0  0  0  0  0  0  0  0  0  0  0  0
  188.1730  176.1180  142.7150 O   0  0  0  0  0  0  0  0  0  0  0  0
  188.7160  176.5140  143.7840 C   0  0  0  0  0  0  0  0  0  0  0  0
  190.7640  176.3390  141.5160 C   0  0  0  0  0  2  0  0  0  0  0  0
  192.2030  177.3440  139.8380 C   0  0  0  0  0  0  0  0  0  0  0  0
  191.5890  177.4600  140.9760 C   0  0  0  0  0  3  0  0  0  0  0  0
  192.8080  177.2300  138.6870 C   0  0  0  0  0  3  0  0  0  0  0  0
  192.0640  176.7960  137.4680 C   0  0  0  0  0  2  0  0  0  0  0  0
  190.8790  175.8910  137.8370 C   0  0  1  0  0  3  0  0  0  0  0  0
  188.4060  175.9450  138.3410 C   0  0  0  0  0  2  0  0  0  0  0  0
  187.0860  178.4450  136.4810 C   0  0  0  0  0  2  0  0  0  0  0  0
  186.9980  176.4780  138.0450 C   0  0  0  0  0  2  0  0  0  0  0  0
  188.5440  178.3960  135.9990 C   0  0  0  0  0  2  0  0  0  0  0  0
  189.5260  177.9030  137.0760 C   0  0  2  0  0  3  0  0  0  0  0  0
  189.4920  176.3590  137.3260 C   0  0  1  0  0  0  0  0  0  0  0  0
  187.8830  178.7440  138.8690 C   0  0  0  0  0  2  0  0  0  0  0  0
  189.2260  175.6210  136.0120 C   0  0  0  0  0  1  0  0  0  0  0  0
  186.9090  178.0040  137.9340 C   0  0  1  0  0  3  0  0  0  0  0  0
  189.3370  178.7380  138.3580 C   0  0  0  0  0  2  0  0  0  0  0  0
  191.1530  174.5190  137.6540 O   0  0  0  0  0  0  0  0  0  0  0  0
  192.4470  174.4140  137.2480 N   0  0  0  0  0  2  0  0  0  0  0  0
  192.6650  173.0270  136.8680 C   0  0  0  0  0  2  0  0  0  0  0  0
  191.6580  172.6220  135.8050 C   0  0  0  0  0  1  0  0  0  0  0  0
  182.4130  178.0970  141.5580 C   0  0  0  0  0  0  0  0  0  0  0  0
  182.6280  178.7340  142.7910 C   0  0  0  0  0  3  0  0  0  0  0  0
  184.8060  177.7140  141.3750 C   0  0  0  0  0  3  0  0  0  0  0  0
  185.0100  178.3230  142.6180 C   0  0  0  0  0  0  0  0  0  0  0  0
  184.0940  179.4730  144.5510 O   0  0  0  0  0  1  0  0  0  0  0  0
  183.9150  178.8410  143.3250 C   0  0  0  0  0  0  0  0  0  0  0  0
  183.5200  177.6180  140.8410 C   0  0  0  0  0  3  0  0  0  0  0  0
  180.8650  177.2500  139.7560 N   0  0  0  0  0  0  0  0  0  0  0  0
  178.9430  177.0180  141.0980 O   0  0  0  0  0  0  0  0  0  0  0  0
  179.4340  176.9830  139.7740 C   0  0  0  0  0  2  0  0  0  0  0  0
  179.9120  177.6820  141.8690 C   0  0  1  0  0  3  0  0  0  0  0  0
  181.0290  178.0830  140.9390 C   0  0  1  0  0  3  0  0  0  0  0  0
  181.4940  176.0050  139.9490 N   0  0  0  0  0  2  0  0  0  0  0  0
  180.6050  175.0010  139.3860 C   0  0  0  0  0  2  0  0  0  0  0  0
  181.0090  174.6990  137.9510 C   0  0  2  0  0  3  0  0  0  0  0  0
  180.9100  173.3270  137.7200 O   0  0  0  0  0  1  0  0  0  0  0  0
  182.4290  175.1740  137.6360 C   0  0  1  0  0  3  0  0  0  0  0  0
  184.1760  174.5070  135.5940 C   0  0  2  0  0  3  0  0  0  0  0  0
  184.7300  175.9210  135.8230 C   0  0  2  0  0  3  0  0  0  0  0  0
  183.7710  176.8200  136.6150 C   0  0  0  0  0  2  0  0  0  0  0  0
  183.5130  173.7700  137.1420 S   0  0  0  0  0  0  0  0  0  0  0  0
  182.4230  176.2610  136.6530 N   0  0  0  0  0  2  0  0  0  0  0  0
  185.0190  176.5220  134.5940 O   0  0  0  0  0  1  0  0  0  0  0  0
  184.9780  172.1350  135.3010 C   0  0  0  0  0  2  0  0  0  0  0  0
  188.1560  169.6280  135.5200 O   0  0  0  0  0  0  0  0  0  0  0  0
  187.6660  173.1160  134.5940 C   0  0  0  0  0  2  0  0  0  0  0  0
  185.9990  171.2360  134.6140 C   0  0  0  0  0  2  0  0  0  0  0  0
  187.3440  171.7260  134.8880 N   0  0  0  0  0  0  0  0  0  0  0  0
  185.2220  173.6030  134.9310 C   0  0  0  0  0  3  0  0  0  0  0  0
  186.6550  174.0300  135.2780 C   0  0  0  0  0  2  0  0  0  0  0  0
  188.3940  170.8370  135.2670 C   0  0  0  0  0  3  0  0  0  0  0  0
  179.3040  178.9230  142.5140 C   0  0  0  0  0  2  0  0  0  0  0  0
  179.1240  179.8860  144.7380 N   0  0  0  0  0  1  0  0  0  0  0  0
  178.9790  178.6610  143.9730 C   0  0  0  0  0  2  0  0  0  0  0  0
  1  6  1  0  0  0  0
  3  5  2  0  0  0  0
  4  2  1  0  0  0  0
  5  7  1  0  0  0  0
  6  8  1  0  0  0  0
  6  3  2  0  0  0  0
  7  2  2  0  0  0  0
  8 14  1  6  0  0  0
  8  9  1  0  0  0  0
  9  4  2  0  0  0  0
 12 10  2  0  0  0  0
 12 11  1  0  0  0  0
 13 14  2  0  0  0  0
 14 11  1  0  0  0  0
 15 12  1  0  0  0  0
 16 17  2  0  0  0  0
 17 15  1  0  0  0  0
 18 16  2  0  0  0  0
 19 18  1  0  0  0  0
 20 19  1  6  0  0  0
 23 21  1  0  0  0  0
 24 22  1  0  0  0  0
 25 24  1  6  0  0  0
 25 26  1  0  0  0  0
 25 30  1  0  0  0  0
 26 28  1  6  0  0  0
 26 20  1  0  0  0  0
 26 21  1  0  0  0  0
 29 22  1  6  0  0  0
 29 23  1  0  0  0  0
 29 27  1  0  0  0  0
 30 27  1  0  0  0  0
 31 20  1  0  0  0  0
 32 31  1  0  0  0  0
 33 32  1  0  0  0  0
 34 33  1  0  0  0  0
 35 36  1  0  0  0  0
 36 40  2  0  0  0  0
 37 38  2  0  0  0  0
 38  1  1  0  0  0  0
 38 40  1  0  0  0  0
 40 39  1  0  0  0  0
 41 37  1  0  0  0  0
 41 35  2  0  0  0  0
 42 44  1  0  0  0  0
 42 47  1  0  0  0  0
 42 46  1  0  0  0  0
 43 45  1  0  0  0  0
 44 43  1  0  0  0  0
 45 66  1  6  0  0  0
 46 35  1  1  0  0  0
 46 45  1  0  0  0  0
 48 47  1  0  0  0  0
 49 50  1  1  0  0  0
 49 48  1  0  0  0  0
 51 49  1  6  0  0  0
 52 63  1  1  0  0  0
 52 53  1  0  0  0  0
 52 55  1  0  0  0  0
 53 57  1  6  0  0  0
 53 54  1  0  0  0  0
 54 56  1  0  0  0  0
 55 51  1  0  0  0  0
 56 51  1  0  0  0  0
 60 62  1  0  0  0  0
 60 64  1  0  0  0  0
 61 62  1  0  0  0  0
 61 58  1  0  0  0  0
 62 65  1  0  0  0  0
 63 64  1  0  0  0  0
 63 58  1  0  0  0  0
 65 59  2  0  0  0  0
 66 68  1  0  0  0  0
 68 67  1  0  0  0  0
M  END
>  <MODEL>
4

>  <REMARK>
 VINA RESULT:      -6.1      2.401      6.677
  Name = 
  19 active torsions:
  status: ('A' for Active; 'I' for Inactive)
    1  A    between atoms: C_1  and  C_26
    2  A    between atoms: C_1  and  C_61
    3  A    between atoms: N_2  and  N_19
    4  A    between atoms: C_7  and  C_45
    5  A    between atoms: C_11  and  C_52
    6  A    between atoms: N_12  and  C_32
    7  A    between atoms: N_12  and  O_59
    8  A    between atoms: C_13  and  C_41
    9  A    between atoms: C_13  and  C_62
   10  A    between atoms: C_17  and  C_53
   11  A    between atoms: N_19  and  C_38
   12  A    between atoms: C_20  and  C_26
   13  A    between atoms: C_22  and  C_30
   14  A    between atoms: C_22  and  C_56
   15  A    between atoms: C_24  and  C_44
   16  A    between atoms: C_24  and  C_49
   17  A    between atoms: C_26  and  O_59
   18  A    between atoms: C_38  and  C_45
   19  A    between atoms: C_63  and  C_64
                            x       y       z     vdW  Elec       q    Type
                         _______ _______ _______ _____ _____    ______ ____

>  <TORSDO>
F 19

$$$$
=
 OpenBabel11042411093D

 68 74  0  0  1  0  0  0  0  0999 V2000
  184.1570  178.3420  140.7890 C   0  0  0  0  0  2  0  0  0  0  0  0
  181.5490  178.6910  144.8830 C   0  0  0  0  0  3  0  0  0  0  0  0
  183.7500  179.2690  142.9840 C   0  0  0  0  0  0  0  0  0  0  0  0
  181.0140  177.9690  143.6930 C   0  0  0  0  0  3  0  0  0  0  0  0
  183.9110  179.4060  144.2570 C   0  0  0  0  0  3  0  0  0  0  0  0
  183.3310  179.1260  141.7700 C   0  0  0  0  0  0  0  0  0  0  0  0
  182.7380  179.2790  145.1390 C   0  0  0  0  0  3  0  0  0  0  0  0
  181.8400  179.2910  141.6530 C   0  0  2  0  0  3  0  0  0  0  0  0
  181.1220  178.1790  142.3700 C   0  0  0  0  0  3  0  0  0  0  0  0
  181.3610  182.0840  137.6740 N   0  0  0  0  0  2  0  0  0  0  0  0
  181.5810  180.6530  139.5260 N   0  0  0  0  0  2  0  0  0  0  0  0
  180.9190  181.0550  138.3210 C   0  0  0  0  0  0  0  0  0  0  0  0
  180.7650  178.4630  139.6590 O   0  0  0  0  0  0  0  0  0  0  0  0
  181.3320  179.4320  140.2380 C   0  0  0  0  0  0  0  0  0  0  0  0
  179.6430  180.4030  137.8770 C   0  0  0  0  0  2  0  0  0  0  0  0
  180.3760  178.8050  136.2020 C   0  0  0  0  0  0  0  0  0  0  0  0
  179.7490  179.9110  136.4720 C   0  0  0  0  0  3  0  0  0  0  0  0
  180.9940  177.6880  135.9330 C   0  0  0  0  0  3  0  0  0  0  0  0
  180.6570  176.4300  136.6630 C   0  0  0  0  0  2  0  0  0  0  0  0
  181.1540  175.1960  135.8950 C   0  0  1  0  0  3  0  0  0  0  0  0
  183.1680  176.4290  135.0010 C   0  0  0  0  0  2  0  0  0  0  0  0
  185.8920  174.9990  136.4120 C   0  0  0  0  0  2  0  0  0  0  0  0
  184.6890  176.5640  134.8530 C   0  0  0  0  0  2  0  0  0  0  0  0
  184.7460  174.0980  136.8950 C   0  0  0  0  0  2  0  0  0  0  0  0
  183.4020  174.8350  137.0240 C   0  0  2  0  0  3  0  0  0  0  0  0
  182.6860  175.1220  135.6630 C   0  0  1  0  0  0  0  0  0  0  0  0
  184.7100  177.0230  137.3800 C   0  0  0  0  0  2  0  0  0  0  0  0
  182.9360  173.9690  134.6870 C   0  0  0  0  0  1  0  0  0  0  0  0
  185.4670  176.4470  136.1690 C   0  0  1  0  0  3  0  0  0  0  0  0
  183.5930  176.0930  137.8950 C   0  0  0  0  0  2  0  0  0  0  0  0
  180.5550  173.9950  136.3310 O   0  0  0  0  0  0  0  0  0  0  0  0
  179.5970  174.3240  137.2370 N   0  0  0  0  0  2  0  0  0  0  0  0
  178.9920  173.0820  137.6910 C   0  0  0  0  0  2  0  0  0  0  0  0
  179.8120  171.9020  137.1990 C   0  0  0  0  0  1  0  0  0  0  0  0
  188.0730  177.4570  142.3640 C   0  0  0  0  0  0  0  0  0  0  0  0
  187.9350  178.0250  141.0860 C   0  0  0  0  0  3  0  0  0  0  0  0
  185.6560  177.4950  142.6060 C   0  0  0  0  0  3  0  0  0  0  0  0
  185.5230  178.0310  141.3210 C   0  0  0  0  0  0  0  0  0  0  0  0
  186.5670  178.8610  139.2910 O   0  0  0  0  0  1  0  0  0  0  0  0
  186.6710  178.3040  140.5610 C   0  0  0  0  0  0  0  0  0  0  0  0
  186.9210  177.2260  143.1310 C   0  0  0  0  0  3  0  0  0  0  0  0
  190.4870  176.7990  142.0510 N   0  0  0  0  0  0  0  0  0  0  0  0
  191.4260  178.4190  143.4810 O   0  0  0  0  0  0  0  0  0  0  0  0
  191.6980  177.2650  142.7130 C   0  0  0  0  0  2  0  0  0  0  0  0
  190.0320  178.4690  143.6530 C   0  0  1  0  0  3  0  0  0  0  0  0
  189.4510  177.2600  142.9650 C   0  0  1  0  0  3  0  0  0  0  0  0
  190.4130  177.5060  140.8360 N   0  0  0  0  0  2  0  0  0  0  0  0
  190.8500  176.5890  139.7960 C   0  0  0  0  0  2  0  0  0  0  0  0
  190.2420  176.9930  138.4620 C   0  0  2  0  0  3  0  0  0  0  0  0
  188.8940  176.6360  138.4380 O   0  0  0  0  0  1  0  0  0  0  0  0
  190.9660  176.3530  137.2760 C   0  0  1  0  0  3  0  0  0  0  0  0
  192.8460  174.3230  137.1540 C   0  0  2  0  0  3  0  0  0  0  0  0
  192.2580  174.0810  135.7560 C   0  0  2  0  0  3  0  0  0  0  0  0
  190.8870  174.7410  135.5590 C   0  0  0  0  0  2  0  0  0  0  0  0
  192.7520  176.0930  137.6420 S   0  0  0  0  0  0  0  0  0  0  0  0
  190.2930  175.1290  136.8350 N   0  0  0  0  0  2  0  0  0  0  0  0
  192.1500  172.7080  135.5180 O   0  0  0  0  0  1  0  0  0  0  0  0
  195.0220  174.4350  138.4210 C   0  0  0  0  0  2  0  0  0  0  0  0
  199.0380  174.9090  138.1350 O   0  0  0  0  0  0  0  0  0  0  0  0
  196.4580  173.3670  136.0780 C   0  0  0  0  0  2  0  0  0  0  0  0
  196.4300  173.8640  138.5410 C   0  0  0  0  0  2  0  0  0  0  0  0
  197.1020  173.9440  137.2500 N   0  0  0  0  0  0  0  0  0  0  0  0
  194.2730  173.7740  137.2570 C   0  0  0  0  0  3  0  0  0  0  0  0
  195.0470  173.9320  135.9410 C   0  0  0  0  0  2  0  0  0  0  0  0
  198.4450  174.4120  137.1420 C   0  0  0  0  0  3  0  0  0  0  0  0
  189.6880  178.4360  145.1380 C   0  0  0  0  0  2  0  0  0  0  0  0
  191.4460  177.3940  146.4530 N   0  0  0  0  0  1  0  0  0  0  0  0
  190.1870  177.1510  145.7730 C   0  0  0  0  0  2  0  0  0  0  0  0
  1 38  1  0  0  0  0
  1  6  1  0  0  0  0
  2  7  2  0  0  0  0
  3  5  2  0  0  0  0
  4  2  1  0  0  0  0
  5  7  1  0  0  0  0
  6  3  2  0  0  0  0
  8 14  1  6  0  0  0
  8  6  1  0  0  0  0
  8  9  1  0  0  0  0
  9  4  2  0  0  0  0
 10 12  2  0  0  0  0
 11 14  1  0  0  0  0
 12 11  1  0  0  0  0
 13 14  2  0  0  0  0
 15 12  1  0  0  0  0
 16 17  2  0  0  0  0
 17 15  1  0  0  0  0
 18 16  2  0  0  0  0
 18 19  1  0  0  0  0
 20 31  1  0  0  0  0
 20 19  1  1  0  0  0
 21 26  1  0  0  0  0
 22 24  1  0  0  0  0
 23 21  1  0  0  0  0
 25 24  1  6  0  0  0
 25 30  1  0  0  0  0
 26 28  1  6  0  0  0
 26 20  1  0  0  0  0
 26 25  1  0  0  0  0
 27 30  1  0  0  0  0
 29 23  1  6  0  0  0
 29 22  1  0  0  0  0
 29 27  1  0  0  0  0
 31 32  1  0  0  0  0
 32 33  1  0  0  0  0
 34 33  1  0  0  0  0
 35 41  1  0  0  0  0
 36 35  2  0  0  0  0
 37 41  2  0  0  0  0
 38 37  1  0  0  0  0
 39 40  1  0  0  0  0
 40 36  1  0  0  0  0
 40 38  2  0  0  0  0
 42 44  1  0  0  0  0
 42 46  1  0  0  0  0
 43 45  1  0  0  0  0
 44 43  1  0  0  0  0
 45 66  1  1  0  0  0
 46 35  1  6  0  0  0
 46 45  1  0  0  0  0
 47 42  1  0  0  0  0
 48 47  1  0  0  0  0
 49 50  1  1  0  0  0
 49 48  1  0  0  0  0
 51 55  1  0  0  0  0
 51 49  1  1  0  0  0
 52 63  1  6  0  0  0
 52 55  1  0  0  0  0
 53 57  1  1  0  0  0
 53 52  1  0  0  0  0
 54 53  1  0  0  0  0
 54 56  1  0  0  0  0
 56 51  1  0  0  0  0
 58 61  1  0  0  0  0
 60 62  1  0  0  0  0
 62 61  1  0  0  0  0
 63 58  1  0  0  0  0
 64 60  1  0  0  0  0
 64 63  1  0  0  0  0
 65 62  1  0  0  0  0
 65 59  2  0  0  0  0
 66 68  1  0  0  0  0
 68 67  1  0  0  0  0
M  END
>  <MODEL>
5

>  <REMARK>
 VINA RESULT:      -6.0      3.572     11.073
  Name = 
  19 active torsions:
  status: ('A' for Active; 'I' for Inactive)
    1  A    between atoms: C_1  and  C_26
    2  A    between atoms: C_1  and  C_61
    3  A    between atoms: N_2  and  N_19
    4  A    between atoms: C_7  and  C_45
    5  A    between atoms: C_11  and  C_52
    6  A    between atoms: N_12  and  C_32
    7  A    between atoms: N_12  and  O_59
    8  A    between atoms: C_13  and  C_41
    9  A    between atoms: C_13  and  C_62
   10  A    between atoms: C_17  and  C_53
   11  A    between atoms: N_19  and  C_38
   12  A    between atoms: C_20  and  C_26
   13  A    between atoms: C_22  and  C_30
   14  A    between atoms: C_22  and  C_56
   15  A    between atoms: C_24  and  C_44
   16  A    between atoms: C_24  and  C_49
   17  A    between atoms: C_26  and  O_59
   18  A    between atoms: C_38  and  C_45
   19  A    between atoms: C_63  and  C_64
                            x       y       z     vdW  Elec       q    Type
                         _______ _______ _______ _____ _____    ______ ____

>  <TORSDO>
F 19

$$$$
=
 OpenBabel11042411093D

 68 74  0  0  1  0  0  0  0  0999 V2000
  183.5300  178.7290  140.8550 C   0  0  0  0  0  2  0  0  0  0  0  0
  179.0060  179.4150  142.5120 C   0  0  0  0  0  3  0  0  0  0  0  0
  181.2320  178.0320  141.1270 C   0  0  0  0  0  0  0  0  0  0  0  0
  180.1280  180.2860  142.9650 C   0  0  0  0  0  3  0  0  0  0  0  0
  180.0050  177.8450  140.7750 C   0  0  0  0  0  3  0  0  0  0  0  0
  182.3530  178.3260  141.6980 C   0  0  0  0  0  0  0  0  0  0  0  0
  178.9310  178.4140  141.6080 C   0  0  0  0  0  3  0  0  0  0  0  0
  182.1760  178.7480  143.1310 C   0  0  2  0  0  3  0  0  0  0  0  0
  181.4270  180.0510  143.2160 C   0  0  0  0  0  3  0  0  0  0  0  0
  184.4820  177.8800  147.3490 N   0  0  0  0  0  2  0  0  0  0  0  0
  183.4680  178.2950  145.2690 N   0  0  0  0  0  2  0  0  0  0  0  0
  184.4850  178.5520  146.2440 C   0  0  0  0  0  0  0  0  0  0  0  0
  184.5200  179.2430  143.4070 O   0  0  0  0  0  0  0  0  0  0  0  0
  183.4550  178.8130  143.9310 C   0  0  0  0  0  0  0  0  0  0  0  0
  185.4600  179.6800  146.0750 C   0  0  0  0  0  2  0  0  0  0  0  0
  187.0480  178.8170  147.6970 C   0  0  0  0  0  0  0  0  0  0  0  0
  186.3370  179.8180  147.2750 C   0  0  0  0  0  3  0  0  0  0  0  0
  187.7720  177.8130  148.1100 C   0  0  0  0  0  3  0  0  0  0  0  0
  188.6680  177.0740  147.1720 C   0  0  0  0  0  2  0  0  0  0  0  0
  188.9160  177.8850  145.8920 C   0  0  1  0  0  3  0  0  0  0  0  0
  190.1190  176.1890  144.4610 C   0  0  0  0  0  2  0  0  0  0  0  0
  192.6060  177.8430  142.8700 C   0  0  0  0  0  2  0  0  0  0  0  0
  191.2940  175.8080  143.5500 C   0  0  0  0  0  2  0  0  0  0  0  0
  192.0360  178.9120  143.8140 C   0  0  0  0  0  2  0  0  0  0  0  0
  190.5430  178.7180  144.1250 C   0  0  2  0  0  3  0  0  0  0  0  0
  190.2360  177.5680  145.1410 C   0  0  1  0  0  0  0  0  0  0  0  0
  190.3000  177.4870  141.8790 C   0  0  0  0  0  2  0  0  0  0  0  0
  191.3440  177.4910  146.1950 C   0  0  0  0  0  1  0  0  0  0  0  0
  191.5720  176.8100  142.4240 C   0  0  1  0  0  3  0  0  0  0  0  0
  189.7590  178.5950  142.8030 C   0  0  0  0  0  2  0  0  0  0  0  0
  187.7710  177.9900  145.0730 O   0  0  0  0  0  0  0  0  0  0  0  0
  187.2240  176.7490  144.9790 N   0  0  0  0  0  2  0  0  0  0  0  0
  187.2240  176.3870  143.5710 C   0  0  0  0  0  2  0  0  0  0  0  0
  186.6200  177.5140  142.7510 C   0  0  0  0  0  1  0  0  0  0  0  0
  183.9350  176.2290  137.3650 C   0  0  0  0  0  0  0  0  0  0  0  0
  184.5360  177.4970  137.4020 C   0  0  0  0  0  3  0  0  0  0  0  0
  183.0950  176.5980  139.6150 C   0  0  0  0  0  3  0  0  0  0  0  0
  183.6700  177.8730  139.6340 C   0  0  0  0  0  0  0  0  0  0  0  0
  185.0040  179.5750  138.5240 O   0  0  0  0  0  1  0  0  0  0  0  0
  184.4010  178.3210  138.5220 C   0  0  0  0  0  0  0  0  0  0  0  0
  183.2410  175.7750  138.4980 C   0  0  0  0  0  3  0  0  0  0  0  0
  185.5600  174.8980  135.9710 N   0  0  0  0  0  0  0  0  0  0  0  0
  184.1720  173.0330  135.5910 O   0  0  0  0  0  0  0  0  0  0  0  0
  185.3940  173.6490  135.2400 C   0  0  0  0  0  2  0  0  0  0  0  0
  183.3830  174.0230  136.2020 C   0  0  1  0  0  3  0  0  0  0  0  0
  184.1790  175.3030  136.1890 C   0  0  1  0  0  3  0  0  0  0  0  0
  186.1650  174.5530  137.1940 N   0  0  0  0  0  2  0  0  0  0  0  0
  187.4560  175.2220  137.2220 C   0  0  0  0  0  2  0  0  0  0  0  0
  188.4330  174.4980  136.3080 C   0  0  2  0  0  3  0  0  0  0  0  0
  188.6540  173.2090  136.7950 O   0  0  0  0  0  1  0  0  0  0  0  0
  189.7660  175.2380  136.1810 C   0  0  1  0  0  3  0  0  0  0  0  0
  192.3700  174.4200  136.6480 C   0  0  2  0  0  3  0  0  0  0  0  0
  192.7220  175.4790  135.5930 C   0  0  2  0  0  3  0  0  0  0  0  0
  191.5130  175.9130  134.7520 C   0  0  0  0  0  2  0  0  0  0  0  0
  190.8710  174.8780  137.6090 S   0  0  0  0  0  0  0  0  0  0  0  0
  190.4030  174.9740  134.8890 N   0  0  0  0  0  2  0  0  0  0  0  0
  193.7240  174.9930  134.7480 O   0  0  0  0  0  1  0  0  0  0  0  0
  194.2150  175.4320  138.0360 C   0  0  0  0  0  2  0  0  0  0  0  0
  198.1980  175.4680  138.7880 O   0  0  0  0  0  0  0  0  0  0  0  0
  195.7690  172.9360  137.8160 C   0  0  0  0  0  2  0  0  0  0  0  0
  195.3850  175.1360  138.9680 C   0  0  0  0  0  2  0  0  0  0  0  0
  196.2940  174.1950  138.3260 N   0  0  0  0  0  0  0  0  0  0  0  0
  193.5670  174.1260  137.5580 C   0  0  0  0  0  3  0  0  0  0  0  0
  194.5980  173.2140  136.8770 C   0  0  0  0  0  2  0  0  0  0  0  0
  197.7060  174.3980  138.3460 C   0  0  0  0  0  3  0  0  0  0  0  0
  182.0860  174.2110  135.4230 C   0  0  0  0  0  2  0  0  0  0  0  0
  180.6210  173.7300  137.3010 N   0  0  0  0  0  1  0  0  0  0  0  0
  180.9990  173.3020  135.9670 C   0  0  0  0  0  2  0  0  0  0  0  0
  1  6  1  0  0  0  0
  2  4  1  0  0  0  0
  3  6  2  0  0  0  0
  4  9  2  0  0  0  0
  5  3  2  0  0  0  0
  5  7  1  0  0  0  0
  6  8  1  0  0  0  0
  7  2  2  0  0  0  0
  8  9  1  0  0  0  0
  8 14  1  6  0  0  0
 11 12  1  0  0  0  0
 12 10  2  0  0  0  0
 13 14  2  0  0  0  0
 14 11  1  0  0  0  0
 15 12  1  0  0  0  0
 15 17  1  0  0  0  0
 16 18  2  0  0  0  0
 17 16  2  0  0  0  0
 19 18  1  0  0  0  0
 20 19  1  1  0  0  0
 21 26  1  0  0  0  0
 22 24  1  0  0  0  0
 23 21  1  0  0  0  0
 24 25  1  0  0  0  0
 25 30  1  6  0  0  0
 25 26  1  0  0  0  0
 26 20  1  0  0  0  0
 26 28  1  1  0  0  0
 27 30  1  0  0  0  0
 29 27  1  1  0  0  0
 29 22  1  0  0  0  0
 29 23  1  0  0  0  0
 31 20  1  0  0  0  0
 32 31  1  0  0  0  0
 33 32  1  0  0  0  0
 34 33  1  0  0  0  0
 35 36  2  0  0  0  0
 35 41  1  0  0  0  0
 36 40  1  0  0  0  0
 37 38  1  0  0  0  0
 38  1  1  0  0  0  0
 40 39  1  0  0  0  0
 40 38  2  0  0  0  0
 41 37  2  0  0  0  0
 42 46  1  0  0  0  0
 42 47  1  0  0  0  0
 43 45  1  0  0  0  0
 44 43  1  0  0  0  0
 44 42  1  0  0  0  0
 45 66  1  6  0  0  0
 46 45  1  0  0  0  0
 46 35  1  1  0  0  0
 47 48  1  0  0  0  0
 49 50  1  1  0  0  0
 49 48  1  0  0  0  0
 51 49  1  1  0  0  0
 51 55  1  0  0  0  0
 52 63  1  1  0  0  0
 52 55  1  0  0  0  0
 53 57  1  6  0  0  0
 53 52  1  0  0  0  0
 54 56  1  0  0  0  0
 54 53  1  0  0  0  0
 56 51  1  0  0  0  0
 58 61  1  0  0  0  0
 60 62  1  0  0  0  0
 62 65  1  0  0  0  0
 62 61  1  0  0  0  0
 63 58  1  0  0  0  0
 64 63  1  0  0  0  0
 64 60  1  0  0  0  0
 65 59  2  0  0  0  0
 66 68  1  0  0  0  0
 68 67  1  0  0  0  0
M  END
>  <MODEL>
6

>  <REMARK>
 VINA RESULT:      -5.5      3.436      8.197
  Name = 
  19 active torsions:
  status: ('A' for Active; 'I' for Inactive)
    1  A    between atoms: C_1  and  C_26
    2  A    between atoms: C_1  and  C_61
    3  A    between atoms: N_2  and  N_19
    4  A    between atoms: C_7  and  C_45
    5  A    between atoms: C_11  and  C_52
    6  A    between atoms: N_12  and  C_32
    7  A    between atoms: N_12  and  O_59
    8  A    between atoms: C_13  and  C_41
    9  A    between atoms: C_13  and  C_62
   10  A    between atoms: C_17  and  C_53
   11  A    between atoms: N_19  and  C_38
   12  A    between atoms: C_20  and  C_26
   13  A    between atoms: C_22  and  C_30
   14  A    between atoms: C_22  and  C_56
   15  A    between atoms: C_24  and  C_44
   16  A    between atoms: C_24  and  C_49
   17  A    between atoms: C_26  and  O_59
   18  A    between atoms: C_38  and  C_45
   19  A    between atoms: C_63  and  C_64
                            x       y       z     vdW  Elec       q    Type
                         _______ _______ _______ _____ _____    ______ ____

>  <TORSDO>
F 19

$$$$
=
 OpenBabel11042411093D

 68 74  0  0  1  0  0  0  0  0999 V2000
  184.5400  176.8560  137.8890 C   0  0  0  0  0  2  0  0  0  0  0  0
  180.8440  175.6360  134.9680 C   0  0  0  0  0  3  0  0  0  0  0  0
  182.9880  177.3410  136.1000 C   0  0  0  0  0  0  0  0  0  0  0  0
  181.5160  174.6140  135.8200 C   0  0  0  0  0  3  0  0  0  0  0  0
  181.9400  177.8580  135.5530 C   0  0  0  0  0  3  0  0  0  0  0  0
  183.9570  176.5990  136.5270 C   0  0  0  0  0  0  0  0  0  0  0  0
  180.9960  176.9730  134.8490 C   0  0  0  0  0  3  0  0  0  0  0  0
  184.0000  175.2590  135.8460 C   0  0  2  0  0  3  0  0  0  0  0  0
  182.7910  174.4380  136.2050 C   0  0  0  0  0  3  0  0  0  0  0  0
  188.6450  174.4110  134.5940 N   0  0  0  0  0  2  0  0  0  0  0  0
  186.4320  174.7780  135.2940 N   0  0  0  0  0  2  0  0  0  0  0  0
  187.5900  173.9440  135.1800 C   0  0  0  0  0  0  0  0  0  0  0  0
  185.3350  173.6190  137.0060 O   0  0  0  0  0  0  0  0  0  0  0  0
  185.2700  174.4750  136.0800 C   0  0  0  0  0  0  0  0  0  0  0  0
  187.5570  172.5010  135.5890 C   0  0  0  0  0  2  0  0  0  0  0  0
  189.9040  172.2230  135.0300 C   0  0  0  0  0  0  0  0  0  0  0  0
  188.6970  171.7450  134.9910 C   0  0  0  0  0  3  0  0  0  0  0  0
  191.1180  172.6980  135.0830 C   0  0  0  0  0  3  0  0  0  0  0  0
  191.7100  173.1520  136.3760 C   0  0  0  0  0  2  0  0  0  0  0  0
  192.6010  174.3860  136.1720 C   0  0  1  0  0  3  0  0  0  0  0  0
  190.9130  176.1990  135.6880 C   0  0  0  0  0  2  0  0  0  0  0  0
  190.3570  177.8180  138.6070 C   0  0  0  0  0  2  0  0  0  0  0  0
  190.1280  177.4410  136.1310 C   0  0  0  0  0  2  0  0  0  0  0  0
  191.4900  176.8460  138.9680 C   0  0  0  0  0  2  0  0  0  0  0  0
  191.4790  175.5570  138.1280 C   0  0  2  0  0  3  0  0  0  0  0  0
  192.0100  175.7310  136.6670 C   0  0  1  0  0  0  0  0  0  0  0  0
  188.9480  175.8750  137.7900 C   0  0  0  0  0  2  0  0  0  0  0  0
  193.1460  176.7580  136.6410 C   0  0  0  0  0  1  0  0  0  0  0  0
  189.4430  177.3030  137.4950 C   0  0  1  0  0  3  0  0  0  0  0  0
  190.0800  174.9130  138.2020 C   0  0  0  0  0  2  0  0  0  0  0  0
  193.9490  174.1590  136.5240 O   0  0  0  0  0  0  0  0  0  0  0  0
  193.9650  173.1660  137.4520 N   0  0  0  0  0  2  0  0  0  0  0  0
  195.3340  172.6830  137.5400 C   0  0  0  0  0  2  0  0  0  0  0  0
  195.3980  171.2350  137.0840 C   0  0  0  0  0  1  0  0  0  0  0  0
  181.6280  178.5490  140.5820 C   0  0  0  0  0  0  0  0  0  0  0  0
  182.5930  179.3690  139.9750 C   0  0  0  0  0  3  0  0  0  0  0  0
  182.5610  176.6380  139.4060 C   0  0  0  0  0  3  0  0  0  0  0  0
  183.5390  177.4540  138.8290 C   0  0  0  0  0  0  0  0  0  0  0  0
  184.4960  179.6670  138.5310 O   0  0  0  0  0  1  0  0  0  0  0  0
  183.5490  178.8290  139.1120 C   0  0  0  0  0  0  0  0  0  0  0  0
  181.6010  177.1830  140.2610 C   0  0  0  0  0  3  0  0  0  0  0  0
  180.7930  179.2350  142.8600 N   0  0  0  0  0  0  0  0  0  0  0  0
  179.7270  181.2280  142.2000 O   0  0  0  0  0  0  0  0  0  0  0  0
  179.9200  180.3260  143.2690 C   0  0  0  0  0  2  0  0  0  0  0  0
  180.1090  180.5530  141.0290 C   0  0  1  0  0  3  0  0  0  0  0  0
  180.5310  179.1620  141.4300 C   0  0  1  0  0  3  0  0  0  0  0  0
  182.1080  179.6830  143.0900 N   0  0  0  0  0  2  0  0  0  0  0  0
  182.9930  178.6940  142.4960 C   0  0  0  0  0  2  0  0  0  0  0  0
  183.9710  178.1810  143.5420 C   0  0  2  0  0  3  0  0  0  0  0  0
  183.6360  178.7090  144.7890 O   0  0  0  0  0  1  0  0  0  0  0  0
  185.4210  178.5350  143.2040 C   0  0  1  0  0  3  0  0  0  0  0  0
  187.8160  177.7510  144.3510 C   0  0  2  0  0  3  0  0  0  0  0  0
  188.3850  177.9970  142.9460 C   0  0  2  0  0  3  0  0  0  0  0  0
  187.2990  178.0630  141.8620 C   0  0  0  0  0  2  0  0  0  0  0  0
  186.4030  178.8660  144.7260 S   0  0  0  0  0  0  0  0  0  0  0  0
  186.0320  177.5200  142.3420 N   0  0  0  0  0  2  0  0  0  0  0  0
  189.3020  176.9930  142.6220 O   0  0  0  0  0  1  0  0  0  0  0  0
  190.2580  177.3720  144.8450 C   0  0  0  0  0  2  0  0  0  0  0  0
  192.9340  175.6280  147.3420 O   0  0  0  0  0  0  0  0  0  0  0  0
  189.6600  177.1750  147.7250 C   0  0  0  0  0  2  0  0  0  0  0  0
  191.3550  177.4930  145.8980 C   0  0  0  0  0  2  0  0  0  0  0  0
  190.9350  176.8180  147.1190 N   0  0  0  0  0  0  0  0  0  0  0  0
  188.9140  177.8390  145.4160 C   0  0  0  0  0  3  0  0  0  0  0  0
  188.5500  177.0550  146.6850 C   0  0  0  0  0  2  0  0  0  0  0  0
  191.8190  175.9510  147.8280 C   0  0  0  0  0  3  0  0  0  0  0  0
  178.9320  180.4790  140.0620 C   0  0  0  0  0  2  0  0  0  0  0  0
  180.0880  181.6230  138.2570 N   0  0  0  0  0  1  0  0  0  0  0  0
  178.9310  181.6760  139.1300 C   0  0  0  0  0  2  0  0  0  0  0  0
  1 38  1  0  0  0  0
  2  4  1  0  0  0  0
  3  6  2  0  0  0  0
  4  9  2  0  0  0  0
  5  3  2  0  0  0  0
  6  1  1  0  0  0  0
  7  2  2  0  0  0  0
  7  5  1  0  0  0  0
  8 14  1  1  0  0  0
  8  9  1  0  0  0  0
  8  6  1  0  0  0  0
 10 12  2  0  0  0  0
 11 14  1  0  0  0  0
 12 11  1  0  0  0  0
 12 15  1  0  0  0  0
 14 13  2  0  0  0  0
 16 18  2  0  0  0  0
 17 16  2  0  0  0  0
 17 15  1  0  0  0  0
 18 19  1  0  0  0  0
 20 19  1  1  0  0  0
 20 31  1  0  0  0  0
 20 26  1  0  0  0  0
 21 23  1  0  0  0  0
 21 26  1  0  0  0  0
 22 24  1  0  0  0  0
 25 30  1  6  0  0  0
 25 24  1  0  0  0  0
 26 28  1  1  0  0  0
 26 25  1  0  0  0  0
 27 30  1  0  0  0  0
 29 23  1  6  0  0  0
 29 27  1  0  0  0  0
 29 22  1  0  0  0  0
 31 32  1  0  0  0  0
 32 33  1  0  0  0  0
 34 33  1  0  0  0  0
 36 35  2  0  0  0  0
 37 41  2  0  0  0  0
 38 40  2  0  0  0  0
 38 37  1  0  0  0  0
 39 40  1  0  0  0  0
 40 36  1  0  0  0  0
 41 35  1  0  0  0  0
 42 47  1  0  0  0  0
 42 44  1  0  0  0  0
 43 44  1  0  0  0  0
 45 66  1  6  0  0  0
 45 46  1  0  0  0  0
 45 43  1  0  0  0  0
 46 35  1  6  0  0  0
 46 42  1  0  0  0  0
 48 47  1  0  0  0  0
 48 49  1  0  0  0  0
 49 50  1  1  0  0  0
 51 49  1  1  0  0  0
 51 55  1  0  0  0  0
 52 55  1  0  0  0  0
 52 63  1  1  0  0  0
 53 57  1  6  0  0  0
 53 52  1  0  0  0  0
 54 56  1  0  0  0  0
 54 53  1  0  0  0  0
 56 51  1  0  0  0  0
 58 63  1  0  0  0  0
 58 61  1  0  0  0  0
 59 65  2  0  0  0  0
 61 62  1  0  0  0  0
 62 60  1  0  0  0  0
 62 65  1  0  0  0  0
 63 64  1  0  0  0  0
 64 60  1  0  0  0  0
 67 68  1  0  0  0  0
 68 66  1  0  0  0  0
M  END
>  <MODEL>
7

>  <REMARK>
 VINA RESULT:      -4.7      3.146      8.824
  Name = 
  19 active torsions:
  status: ('A' for Active; 'I' for Inactive)
    1  A    between atoms: C_1  and  C_26
    2  A    between atoms: C_1  and  C_61
    3  A    between atoms: N_2  and  N_19
    4  A    between atoms: C_7  and  C_45
    5  A    between atoms: C_11  and  C_52
    6  A    between atoms: N_12  and  C_32
    7  A    between atoms: N_12  and  O_59
    8  A    between atoms: C_13  and  C_41
    9  A    between atoms: C_13  and  C_62
   10  A    between atoms: C_17  and  C_53
   11  A    between atoms: N_19  and  C_38
   12  A    between atoms: C_20  and  C_26
   13  A    between atoms: C_22  and  C_30
   14  A    between atoms: C_22  and  C_56
   15  A    between atoms: C_24  and  C_44
   16  A    between atoms: C_24  and  C_49
   17  A    between atoms: C_26  and  O_59
   18  A    between atoms: C_38  and  C_45
   19  A    between atoms: C_63  and  C_64
                            x       y       z     vdW  Elec       q    Type
                         _______ _______ _______ _____ _____    ______ ____

>  <TORSDO>
F 19

$$$$
=
 OpenBabel11042411093D

 68 74  0  0  1  0  0  0  0  0999 V2000
  183.5990  175.4640  134.5940 C   0  0  0  0  0  2  0  0  0  0  0  0
  183.0230  172.2780  138.2270 C   0  0  0  0  0  3  0  0  0  0  0  0
  183.3670  173.2100  135.4340 C   0  0  0  0  0  0  0  0  0  0  0  0
  183.3420  173.7070  138.5050 C   0  0  0  0  0  3  0  0  0  0  0  0
  182.7550  172.1060  135.7010 C   0  0  0  0  0  3  0  0  0  0  0  0
  184.0650  174.2960  135.4180 C   0  0  0  0  0  0  0  0  0  0  0  0
  182.7690  171.6020  137.0860 C   0  0  0  0  0  3  0  0  0  0  0  0
  184.9400  174.4370  136.6340 C   0  0  2  0  0  3  0  0  0  0  0  0
  184.1070  174.6150  137.8740 C   0  0  0  0  0  3  0  0  0  0  0  0
  188.0930  177.3850  138.9190 N   0  0  0  0  0  2  0  0  0  0  0  0
  186.6360  175.9770  137.7300 N   0  0  0  0  0  2  0  0  0  0  0  0
  187.4070  177.1770  137.8420 C   0  0  0  0  0  0  0  0  0  0  0  0
  186.3500  175.9620  135.4070 O   0  0  0  0  0  0  0  0  0  0  0  0
  185.9890  175.5200  136.5330 C   0  0  0  0  0  0  0  0  0  0  0  0
  187.3200  178.2620  136.8090 C   0  0  0  0  0  2  0  0  0  0  0  0
  189.5750  177.6910  136.1120 C   0  0  0  0  0  0  0  0  0  0  0  0
  188.6700  178.6080  136.2750 C   0  0  0  0  0  3  0  0  0  0  0  0
  190.4780  176.7660  135.9350 C   0  0  0  0  0  3  0  0  0  0  0  0
  190.1660  175.5240  135.1670 C   0  0  0  0  0  2  0  0  0  0  0  0
  190.6740  174.2760  135.9050 C   0  0  1  0  0  3  0  0  0  0  0  0
  192.8200  174.9450  134.7560 C   0  0  0  0  0  2  0  0  0  0  0  0
  195.3500  174.0410  136.8150 C   0  0  0  0  0  2  0  0  0  0  0  0
  194.3530  174.9270  134.6820 C   0  0  0  0  0  2  0  0  0  0  0  0
  194.1130  173.4670  137.5230 C   0  0  0  0  0  2  0  0  0  0  0  0
  192.8290  174.2670  137.2520 C   0  0  2  0  0  3  0  0  0  0  0  0
  192.2040  174.0330  135.8370 C   0  0  1  0  0  0  0  0  0  0  0  0
  194.2890  176.3430  136.8250 C   0  0  0  0  0  2  0  0  0  0  0  0
  192.4080  172.5770  135.4100 C   0  0  0  0  0  1  0  0  0  0  0  0
  195.0540  175.2960  135.9950 C   0  0  1  0  0  3  0  0  0  0  0  0
  193.0780  175.7550  137.5760 C   0  0  0  0  0  2  0  0  0  0  0  0
  190.0980  174.1170  137.1830 O   0  0  0  0  0  0  0  0  0  0  0  0
  188.7930  173.7840  137.0020 N   0  0  0  0  0  2  0  0  0  0  0  0
  188.7000  173.1000  135.7220 C   0  0  0  0  0  2  0  0  0  0  0  0
  187.9930  171.7670  135.9020 C   0  0  0  0  0  1  0  0  0  0  0  0
  181.1810  178.1980  136.8900 C   0  0  0  0  0  0  0  0  0  0  0  0
  180.6410  176.9830  136.4370 C   0  0  0  0  0  3  0  0  0  0  0  0
  183.2990  177.6030  135.8580 C   0  0  0  0  0  3  0  0  0  0  0  0
  182.7470  176.4090  135.3830 C   0  0  0  0  0  0  0  0  0  0  0  0
  180.8460  174.9030  135.2420 O   0  0  0  0  0  1  0  0  0  0  0  0
  181.4110  176.0960  135.6810 C   0  0  0  0  0  0  0  0  0  0  0  0
  182.5290  178.4820  136.6210 C   0  0  0  0  0  3  0  0  0  0  0  0
  180.1940  178.6370  139.1680 N   0  0  0  0  0  0  0  0  0  0  0  0
  180.5720  180.9620  139.2150 O   0  0  0  0  0  0  0  0  0  0  0  0
  179.9400  179.8850  139.8760 C   0  0  0  0  0  2  0  0  0  0  0  0
  180.8740  180.5160  137.9170 C   0  0  1  0  0  3  0  0  0  0  0  0
  180.3700  179.1000  137.7990 C   0  0  1  0  0  3  0  0  0  0  0  0
  181.4110  178.1450  139.6750 N   0  0  0  0  0  2  0  0  0  0  0  0
  181.8730  179.1130  140.6580 C   0  0  0  0  0  2  0  0  0  0  0  0
  182.5390  178.3920  141.8190 C   0  0  2  0  0  3  0  0  0  0  0  0
  181.7590  178.5390  142.9660 O   0  0  0  0  0  1  0  0  0  0  0  0
  183.9540  178.9090  142.0880 C   0  0  1  0  0  3  0  0  0  0  0  0
  186.1600  177.6990  143.2450 C   0  0  2  0  0  3  0  0  0  0  0  0
  186.9560  178.6670  142.3560 C   0  0  2  0  0  3  0  0  0  0  0  0
  186.1150  179.2680  141.2210 C   0  0  0  0  0  2  0  0  0  0  0  0
  184.5440  178.4090  143.7590 S   0  0  0  0  0  0  0  0  0  0  0  0
  184.8780  178.5210  141.0190 N   0  0  0  0  0  2  0  0  0  0  0  0
  188.0650  178.0100  141.8140 O   0  0  0  0  0  1  0  0  0  0  0  0
  186.4390  177.8350  145.7460 C   0  0  0  0  0  2  0  0  0  0  0  0
  189.0070  178.5980  148.7890 O   0  0  0  0  0  0  0  0  0  0  0  0
  189.2790  177.0900  145.4850 C   0  0  0  0  0  2  0  0  0  0  0  0
  187.2490  177.3490  146.9430 C   0  0  0  0  0  2  0  0  0  0  0  0
  188.6660  177.5960  146.7050 N   0  0  0  0  0  0  0  0  0  0  0  0
  186.9930  177.2390  144.4460 C   0  0  0  0  0  3  0  0  0  0  0  0
  188.4820  177.5720  144.2760 C   0  0  0  0  0  2  0  0  0  0  0  0
  189.4990  178.1590  147.7170 C   0  0  0  0  0  3  0  0  0  0  0  0
  180.1800  181.4010  136.8870 C   0  0  0  0  0  2  0  0  0  0  0  0
  180.9270  183.6420  137.4550 N   0  0  0  0  0  1  0  0  0  0  0  0
  181.0720  182.5640  136.4940 C   0  0  0  0  0  2  0  0  0  0  0  0
  1 38  1  0  0  0  0
  1  6  1  0  0  0  0
  2  4  1  0  0  0  0
  3  5  2  0  0  0  0
  5  7  1  0  0  0  0
  6  3  2  0  0  0  0
  6  8  1  0  0  0  0
  7  2  2  0  0  0  0
  8 14  1  6  0  0  0
  8  9  1  0  0  0  0
  9  4  2  0  0  0  0
 11 12  1  0  0  0  0
 12 10  2  0  0  0  0
 13 14  2  0  0  0  0
 14 11  1  0  0  0  0
 15 12  1  0  0  0  0
 16 17  2  0  0  0  0
 17 15  1  0  0  0  0
 18 16  2  0  0  0  0
 19 18  1  0  0  0  0
 20 19  1  1  0  0  0
 20 31  1  0  0  0  0
 21 26  1  0  0  0  0
 22 24  1  0  0  0  0
 23 21  1  0  0  0  0
 25 24  1  6  0  0  0
 25 30  1  0  0  0  0
 26 28  1  6  0  0  0
 26 20  1  0  0  0  0
 26 25  1  0  0  0  0
 27 30  1  0  0  0  0
 29 23  1  6  0  0  0
 29 22  1  0  0  0  0
 29 27  1  0  0  0  0
 32 31  1  0  0  0  0
 33 34  1  0  0  0  0
 33 32  1  0  0  0  0
 36 35  2  0  0  0  0
 37 41  2  0  0  0  0
 38 40  2  0  0  0  0
 38 37  1  0  0  0  0
 39 40  1  0  0  0  0
 40 36  1  0  0  0  0
 41 35  1  0  0  0  0
 42 47  1  0  0  0  0
 42 44  1  0  0  0  0
 43 44  1  0  0  0  0
 45 66  1  6  0  0  0
 45 43  1  0  0  0  0
 46 35  1  1  0  0  0
 46 45  1  0  0  0  0
 46 42  1  0  0  0  0
 47 48  1  0  0  0  0
 48 49  1  0  0  0  0
 49 50  1  1  0  0  0
 51 49  1  6  0  0  0
 51 55  1  0  0  0  0
 52 55  1  0  0  0  0
 52 63  1  1  0  0  0
 53 57  1  6  0  0  0
 53 52  1  0  0  0  0
 54 53  1  0  0  0  0
 56 54  1  0  0  0  0
 56 51  1  0  0  0  0
 58 61  1  0  0  0  0
 60 62  1  0  0  0  0
 62 61  1  0  0  0  0
 62 65  1  0  0  0  0
 63 58  1  0  0  0  0
 64 63  1  0  0  0  0
 64 60  1  0  0  0  0
 65 59  2  0  0  0  0
 68 66  1  0  0  0  0
 68 67  1  0  0  0  0
M  END
>  <MODEL>
8

>  <REMARK>
 VINA RESULT:      -4.6      3.047      9.055
  Name = 
  19 active torsions:
  status: ('A' for Active; 'I' for Inactive)
    1  A    between atoms: C_1  and  C_26
    2  A    between atoms: C_1  and  C_61
    3  A    between atoms: N_2  and  N_19
    4  A    between atoms: C_7  and  C_45
    5  A    between atoms: C_11  and  C_52
    6  A    between atoms: N_12  and  C_32
    7  A    between atoms: N_12  and  O_59
    8  A    between atoms: C_13  and  C_41
    9  A    between atoms: C_13  and  C_62
   10  A    between atoms: C_17  and  C_53
   11  A    between atoms: N_19  and  C_38
   12  A    between atoms: C_20  and  C_26
   13  A    between atoms: C_22  and  C_30
   14  A    between atoms: C_22  and  C_56
   15  A    between atoms: C_24  and  C_44
   16  A    between atoms: C_24  and  C_49
   17  A    between atoms: C_26  and  O_59
   18  A    between atoms: C_38  and  C_45
   19  A    between atoms: C_63  and  C_64
                            x       y       z     vdW  Elec       q    Type
                         _______ _______ _______ _____ _____    ______ ____

>  <TORSDO>
F 19

$$$$
=
 OpenBabel11042411093D

 68 74  0  0  1  0  0  0  0  0999 V2000
  187.3690  176.6850  144.2650 C   0  0  0  0  0  2  0  0  0  0  0  0
  189.4290  178.1850  148.4110 C   0  0  0  0  0  3  0  0  0  0  0  0
  189.0810  177.8800  145.4830 C   0  0  0  0  0  0  0  0  0  0  0  0
  188.0730  177.5660  148.4100 C   0  0  0  0  0  3  0  0  0  0  0  0
  190.2460  178.0700  146.0030 C   0  0  0  0  0  3  0  0  0  0  0  0
  187.8250  177.7690  145.2010 C   0  0  0  0  0  0  0  0  0  0  0  0
  190.3410  178.3940  147.4380 C   0  0  0  0  0  3  0  0  0  0  0  0
  186.9410  178.3800  146.2540 C   0  0  2  0  0  3  0  0  0  0  0  0
  187.0440  177.6150  147.5470 C   0  0  0  0  0  3  0  0  0  0  0  0
  183.5130  177.8440  142.8170 N   0  0  0  0  0  2  0  0  0  0  0  0
  185.0840  178.1010  144.5450 N   0  0  0  0  0  2  0  0  0  0  0  0
  183.8550  178.4580  143.9030 C   0  0  0  0  0  0  0  0  0  0  0  0
  184.6470  179.0030  146.6600 O   0  0  0  0  0  0  0  0  0  0  0  0
  185.4970  178.5490  145.8450 C   0  0  0  0  0  0  0  0  0  0  0  0
  183.0360  179.6220  144.3760 C   0  0  0  0  0  2  0  0  0  0  0  0
  181.1200  179.2680  142.9270 C   0  0  0  0  0  0  0  0  0  0  0  0
  181.5810  179.3910  144.1340 C   0  0  0  0  0  3  0  0  0  0  0  0
  180.6600  179.1300  141.7130 C   0  0  0  0  0  3  0  0  0  0  0  0
  181.2750  178.1560  140.7650 C   0  0  0  0  0  2  0  0  0  0  0  0
  181.7980  178.8660  139.5060 C   0  0  1  0  0  3  0  0  0  0  0  0
  182.3710  176.4850  138.8920 C   0  0  0  0  0  2  0  0  0  0  0  0
  182.2770  176.3010  135.5140 C   0  0  0  0  0  2  0  0  0  0  0  0
  182.7090  175.4280  137.8330 C   0  0  0  0  0  2  0  0  0  0  0  0
  182.0640  177.7990  135.7790 C   0  0  0  0  0  2  0  0  0  0  0  0
  181.3770  178.0890  137.1240 C   0  0  2  0  0  3  0  0  0  0  0  0
  182.3050  177.9370  138.3730 C   0  0  1  0  0  0  0  0  0  0  0  0
  180.3000  175.7550  137.0040 C   0  0  0  0  0  2  0  0  0  0  0  0
  183.7270  178.3870  138.0270 C   0  0  0  0  0  1  0  0  0  0  0  0
  181.7530  175.4030  136.6350 C   0  0  1  0  0  3  0  0  0  0  0  0
  180.0770  177.2650  137.2190 C   0  0  0  0  0  2  0  0  0  0  0  0
  180.9670  179.9260  139.0850 O   0  0  0  0  0  0  0  0  0  0  0  0
  181.7710  180.9900  138.8180 N   0  0  0  0  0  2  0  0  0  0  0  0
  180.9500  181.9900  138.1540 C   0  0  0  0  0  2  0  0  0  0  0  0
  180.6310  181.5370  136.7400 C   0  0  0  0  0  1  0  0  0  0  0  0
  188.6130  177.4260  140.2030 C   0  0  0  0  0  0  0  0  0  0  0  0
  187.6500  178.2490  140.8110 C   0  0  0  0  0  3  0  0  0  0  0  0
  188.7690  176.1440  142.2610 C   0  0  0  0  0  3  0  0  0  0  0  0
  187.7870  176.9470  142.8500 C   0  0  0  0  0  0  0  0  0  0  0  0
  186.2710  178.8390  142.6930 O   0  0  0  0  0  1  0  0  0  0  0  0
  187.2300  178.0090  142.1210 C   0  0  0  0  0  0  0  0  0  0  0  0
  189.1920  176.3920  140.9540 C   0  0  0  0  0  3  0  0  0  0  0  0
  190.5650  178.0360  138.7270 N   0  0  0  0  0  0  0  0  0  0  0  0
  189.9320  176.7600  136.8510 O   0  0  0  0  0  0  0  0  0  0  0  0
  190.8370  177.7330  137.3290 C   0  0  0  0  0  2  0  0  0  0  0  0
  188.8590  176.7290  137.7580 C   0  0  1  0  0  3  0  0  0  0  0  0
  189.1380  177.7610  138.8200 C   0  0  1  0  0  3  0  0  0  0  0  0
  191.2910  177.0920  139.4770 N   0  0  0  0  0  2  0  0  0  0  0  0
  192.6770  177.5330  139.4660 C   0  0  0  0  0  2  0  0  0  0  0  0
  193.6020  176.3310  139.5800 C   0  0  2  0  0  3  0  0  0  0  0  0
  194.6860  176.6550  140.3970 O   0  0  0  0  0  1  0  0  0  0  0  0
  194.1080  175.8570  138.2160 C   0  0  1  0  0  3  0  0  0  0  0  0
  194.3110  173.3250  137.1130 C   0  0  2  0  0  3  0  0  0  0  0  0
  194.1510  174.0680  135.7790 C   0  0  2  0  0  3  0  0  0  0  0  0
  193.5930  175.4890  135.9460 C   0  0  0  0  0  2  0  0  0  0  0  0
  195.1620  174.3560  138.3760 S   0  0  0  0  0  0  0  0  0  0  0  0
  193.0050  175.6790  137.2690 N   0  0  0  0  0  2  0  0  0  0  0  0
  193.3140  173.3390  134.9280 O   0  0  0  0  0  1  0  0  0  0  0  0
  196.4810  172.0600  137.3240 C   0  0  0  0  0  2  0  0  0  0  0  0
  199.1710  169.6930  135.4260 O   0  0  0  0  0  0  0  0  0  0  0  0
  195.5540  170.1080  135.3180 C   0  0  0  0  0  2  0  0  0  0  0  0
  197.1600  170.7050  137.1560 C   0  0  0  0  0  2  0  0  0  0  0  0
  196.9230  170.2030  135.8090 N   0  0  0  0  0  0  0  0  0  0  0  0
  195.0060  171.9730  136.9140 C   0  0  0  0  0  3  0  0  0  0  0  0
  194.8610  171.4580  135.4750 C   0  0  0  0  0  2  0  0  0  0  0  0
  197.9770  169.6390  135.0310 C   0  0  0  0  0  3  0  0  0  0  0  0
  187.5570  177.0640  137.0380 C   0  0  0  0  0  2  0  0  0  0  0  0
  186.7560  175.2720  135.6060 N   0  0  0  0  0  1  0  0  0  0  0  0
  186.6700  175.8370  136.9400 C   0  0  0  0  0  2  0  0  0  0  0  0
  1  6  1  0  0  0  0
  3  5  2  0  0  0  0
  4  2  1  0  0  0  0
  5  7  1  0  0  0  0
  6  3  2  0  0  0  0
  6  8  1  0  0  0  0
  7  2  2  0  0  0  0
  8 14  1  6  0  0  0
  8  9  1  0  0  0  0
  9  4  2  0  0  0  0
 10 12  2  0  0  0  0
 11 14  1  0  0  0  0
 12 15  1  0  0  0  0
 12 11  1  0  0  0  0
 14 13  2  0  0  0  0
 16 17  2  0  0  0  0
 17 15  1  0  0  0  0
 18 16  2  0  0  0  0
 19 18  1  0  0  0  0
 20 19  1  1  0  0  0
 22 24  1  0  0  0  0
 23 21  1  0  0  0  0
 25 24  1  6  0  0  0
 25 30  1  0  0  0  0
 25 26  1  0  0  0  0
 26 28  1  6  0  0  0
 26 21  1  0  0  0  0
 26 20  1  0  0  0  0
 27 30  1  0  0  0  0
 29 22  1  6  0  0  0
 29 27  1  0  0  0  0
 29 23  1  0  0  0  0
 31 20  1  0  0  0  0
 32 31  1  0  0  0  0
 33 32  1  0  0  0  0
 34 33  1  0  0  0  0
 35 36  2  0  0  0  0
 35 41  1  0  0  0  0
 36 40  1  0  0  0  0
 37 38  1  0  0  0  0
 38  1  1  0  0  0  0
 40 39  1  0  0  0  0
 40 38  2  0  0  0  0
 41 37  2  0  0  0  0
 42 46  1  0  0  0  0
 42 47  1  0  0  0  0
 43 44  1  0  0  0  0
 43 45  1  0  0  0  0
 44 42  1  0  0  0  0
 45 66  1  6  0  0  0
 45 46  1  0  0  0  0
 46 35  1  1  0  0  0
 48 47  1  0  0  0  0
 48 49  1  0  0  0  0
 49 50  1  1  0  0  0
 51 55  1  0  0  0  0
 51 49  1  1  0  0  0
 52 63  1  6  0  0  0
 52 55  1  0  0  0  0
 53 57  1  6  0  0  0
 53 54  1  0  0  0  0
 53 52  1  0  0  0  0
 54 56  1  0  0  0  0
 56 51  1  0  0  0  0
 60 64  1  0  0  0  0
 60 62  1  0  0  0  0
 61 58  1  0  0  0  0
 62 61  1  0  0  0  0
 63 58  1  0  0  0  0
 64 63  1  0  0  0  0
 65 59  2  0  0  0  0
 65 62  1  0  0  0  0
 67 68  1  0  0  0  0
 68 66  1  0  0  0  0
M  END
>  <MODEL>
9

>  <REMARK>
 VINA RESULT:      -4.1      4.400     10.781
  Name = 
  19 active torsions:
  status: ('A' for Active; 'I' for Inactive)
    1  A    between atoms: C_1  and  C_26
    2  A    between atoms: C_1  and  C_61
    3  A    between atoms: N_2  and  N_19
    4  A    between atoms: C_7  and  C_45
    5  A    between atoms: C_11  and  C_52
    6  A    between atoms: N_12  and  C_32
    7  A    between atoms: N_12  and  O_59
    8  A    between atoms: C_13  and  C_41
    9  A    between atoms: C_13  and  C_62
   10  A    between atoms: C_17  and  C_53
   11  A    between atoms: N_19  and  C_38
   12  A    between atoms: C_20  and  C_26
   13  A    between atoms: C_22  and  C_30
   14  A    between atoms: C_22  and  C_56
   15  A    between atoms: C_24  and  C_44
   16  A    between atoms: C_24  and  C_49
   17  A    between atoms: C_26  and  O_59
   18  A    between atoms: C_38  and  C_45
   19  A    between atoms: C_63  and  C_64
                            x       y       z     vdW  Elec       q    Type
                         _______ _______ _______ _____ _____    ______ ____

>  <TORSDO>
F 19

$$$$
