=
 OpenBabel11042410473D

 49 53  0  0  1  0  0  0  0  0999 V2000
  184.4820  178.5730  138.7810 C   0  0  0  0  0  0  0  0  0  0  0  0
  185.5740  177.9410  138.1660 C   0  0  0  0  0  3  0  0  0  0  0  0
  184.1050  176.9280  136.5370 C   0  0  0  0  0  3  0  0  0  0  0  0
  183.0110  177.5540  137.1380 C   0  0  0  0  0  3  0  0  0  0  0  0
  185.3890  177.1230  137.0500 C   0  0  0  0  0  0  0  0  0  0  0  0
  183.1810  178.3810  138.2600 C   0  0  0  0  0  0  0  0  0  0  0  0
  180.4660  177.2030  139.4010 C   0  0  0  0  0  1  0  0  0  0  0  0
  181.3060  178.3420  139.9530 C   0  0  2  0  0  3  0  0  0  0  0  0
  179.1110  181.3890  140.8800 C   0  0  0  0  0  1  0  0  0  0  0  0
  179.9540  178.8780  142.0730 C   0  0  0  0  0  1  0  0  0  0  0  0
  180.0510  180.4670  140.1700 C   0  0  0  0  0  0  0  0  0  0  0  0
  180.4350  179.2990  140.7210 C   0  0  0  0  0  0  0  0  0  0  0  0
  180.5610  180.8710  138.8910 N   0  0  0  0  0  0  0  0  0  0  0  0
  182.0300  179.0050  138.8620 N   0  0  0  0  0  0  0  0  0  0  0  0
  181.4870  180.2030  138.2780 C   0  0  0  0  0  3  0  0  0  0  0  0
  186.5630  176.4870  136.3920 C   0  0  0  0  0  2  0  0  0  0  0  0
  187.8210  177.3070  136.6110 C   0  0  2  0  0  3  0  0  0  0  0  0
  188.9820  176.5830  136.0730 N   0  0  0  0  0  2  0  0  0  0  0  0
  188.6980  176.5740  137.5170 C   0  0  1  0  0  3  0  0  0  0  0  0
  189.6340  177.5370  138.2290 C   0  0  0  0  0  2  0  0  0  0  0  0
  190.9980  175.6940  138.9000 O   0  0  0  0  0  0  0  0  0  0  0  0
  190.7220  177.3680  140.4980 N   0  0  0  0  0  2  0  0  0  0  0  0
  190.4840  176.8000  139.2120 C   0  0  0  0  0  0  0  0  0  0  0  0
  191.5110  176.6890  141.5170 C   0  0  0  0  0  2  0  0  0  0  0  0
  190.7000  176.4080  142.7880 C   0  0  2  0  0  0  0  0  0  0  0  0
  191.0540  175.1710  143.3020 F   0  0  0  0  0  0  0  0  0  0  0  0
  189.2390  176.3300  142.3620 C   0  0  0  0  0  1  0  0  0  0  0  0
  192.2350  177.9890  143.7600 O   0  0  0  0  0  1  0  0  0  0  0  0
  189.9730  178.6770  143.6860 C   0  0  0  0  0  1  0  0  0  0  0  0
  190.9290  177.5010  143.8700 C   0  0  1  0  0  0  0  0  0  0  0  0
  190.7790  176.9410  145.2890 C   0  0  0  0  0  2  0  0  0  0  0  0
  191.9470  177.1030  146.0390 O   0  0  0  0  0  1  0  0  0  0  0  0
  184.7050  179.4840  139.8660 N   0  0  0  0  0  2  0  0  0  0  0  0
  187.4570  178.8090  140.7050 C   0  0  0  0  0  1  0  0  0  0  0  0
  184.1520  178.5620  143.4310 C   0  0  0  0  0  3  0  0  0  0  0  0
  183.9220  178.9650  142.1130 C   0  0  0  0  0  3  0  0  0  0  0  0
  186.5140  178.3520  142.9540 C   0  0  0  0  0  3  0  0  0  0  0  0
  185.4500  178.2520  143.8550 C   0  0  0  0  0  0  0  0  0  0  0  0
  186.2950  178.7680  141.6380 C   0  0  0  0  0  0  0  0  0  0  0  0
  184.9850  179.0870  141.2130 C   0  0  0  0  0  0  0  0  0  0  0  0
  187.5410  177.1320  146.8600 C   0  0  0  0  0  3  0  0  0  0  0  0
  187.2210  177.5300  145.4540 C   0  0  0  0  0  2  0  0  0  0  0  0
  187.0360  179.3510  147.6800 N   0  0  0  0  0  0  0  0  0  0  0  0
  185.7260  177.8140  145.2580 C   0  0  1  0  0  3  0  0  0  0  0  0
  187.9000  177.5820  149.1630 N   0  0  0  0  0  1  0  0  0  0  0  0
  187.4530  177.9920  147.8770 C   0  0  0  0  0  0  0  0  0  0  0  0
  186.0260  179.7280  146.9470 C   0  0  0  0  0  3  0  0  0  0  0  0
  185.0810  178.7620  146.2820 C   0  0  2  0  0  3  0  0  0  0  0  0
  184.3890  178.0230  147.2430 O   0  0  0  0  0  1  0  0  0  0  0  0
  1 33  1  0  0  0  0
  2  1  2  0  0  0  0
  3  5  2  0  0  0  0
  3  4  1  0  0  0  0
  4  6  2  0  0  0  0
  5  2  1  0  0  0  0
  6  1  1  0  0  0  0
  6 14  1  0  0  0  0
  8  7  1  6  0  0  0
  8 12  1  0  0  0  0
 11 12  2  0  0  0  0
 11  9  1  0  0  0  0
 12 10  1  0  0  0  0
 13 11  1  0  0  0  0
 14  8  1  0  0  0  0
 15 14  1  0  0  0  0
 15 13  2  0  0  0  0
 16  5  1  0  0  0  0
 17 16  1  6  0  0  0
 17 19  1  0  0  0  0
 18 17  1  0  0  0  0
 18 19  1  0  0  0  0
 19 20  1  1  0  0  0
 20 23  1  0  0  0  0
 21 23  2  0  0  0  0
 22 24  1  0  0  0  0
 23 22  1  0  0  0  0
 24 25  1  0  0  0  0
 25 27  1  6  0  0  0
 25 26  1  0  0  0  0
 25 30  1  0  0  0  0
 28 30  1  0  0  0  0
 30 29  1  6  0  0  0
 30 31  1  0  0  0  0
 31 32  1  0  0  0  0
 33 40  1  0  0  0  0
 34 39  1  0  0  0  0
 35 38  1  0  0  0  0
 36 35  2  0  0  0  0
 37 38  2  0  0  0  0
 39 37  1  0  0  0  0
 40 39  2  0  0  0  0
 40 36  1  0  0  0  0
 41 46  2  0  0  0  0
 42 41  1  0  0  0  0
 43 46  1  0  0  0  0
 44 38  1  6  0  0  0
 44 42  1  0  0  0  0
 44 48  1  0  0  0  0
 46 45  1  0  0  0  0
 47 43  2  0  0  0  0
 48 47  1  0  0  0  0
 48 49  1  1  0  0  0
M  END
>  <MODEL>
1

>  <REMARK>
 VINA RESULT:      -8.9      0.000      0.000
  Name = 
  12 active torsions:
  status: ('A' for Active; 'I' for Inactive)
    1  A    between atoms: C_2  and  C_8
    2  A    between atoms: N_3  and  C_38
    3  A    between atoms: C_8  and  C_41
    4  A    between atoms: C_9  and  C_38
    5  A    between atoms: C_9  and  C_49
    6  A    between atoms: C_15  and  N_27
    7  A    between atoms: C_18  and  C_33
    8  A    between atoms: N_27  and  C_40
    9  A    between atoms: C_28  and  C_49
   10  A    between atoms: C_36  and  C_47
   11  A    between atoms: C_39  and  C_47
   12  A    between atoms: C_43  and  N_44
                            x       y       z     vdW  Elec       q    Type
                         _______ _______ _______ _____ _____    ______ ____

>  <TORSDO>
F 12

$$$$
=
 OpenBabel11042410473D

 49 53  0  0  1  0  0  0  0  0999 V2000
  184.5820  178.4480  139.2400 C   0  0  0  0  0  0  0  0  0  0  0  0
  185.0000  179.0640  140.4290 C   0  0  0  0  0  3  0  0  0  0  0  0
  183.3320  177.8430  141.6800 C   0  0  0  0  0  3  0  0  0  0  0  0
  182.9090  177.2200  140.5040 C   0  0  0  0  0  3  0  0  0  0  0  0
  184.3790  178.7650  141.6430 C   0  0  0  0  0  0  0  0  0  0  0  0
  183.5240  177.5100  139.2750 C   0  0  0  0  0  0  0  0  0  0  0  0
  184.6440  175.0570  137.6050 C   0  0  0  0  0  1  0  0  0  0  0  0
  183.1990  175.4050  137.9150 C   0  0  2  0  0  3  0  0  0  0  0  0
  180.9800  175.1440  134.7570 C   0  0  0  0  0  1  0  0  0  0  0  0
  182.0320  173.3920  136.8220 C   0  0  0  0  0  1  0  0  0  0  0  0
  181.8020  175.6780  135.8870 C   0  0  0  0  0  0  0  0  0  0  0  0
  182.2970  174.8640  136.8390 C   0  0  0  0  0  0  0  0  0  0  0  0
  182.0310  177.0930  135.9490 N   0  0  0  0  0  0  0  0  0  0  0  0
  183.0580  176.8570  138.0780 N   0  0  0  0  0  0  0  0  0  0  0  0
  182.6060  177.6530  136.9670 C   0  0  0  0  0  3  0  0  0  0  0  0
  184.8580  179.4050  142.9000 C   0  0  0  0  0  2  0  0  0  0  0  0
  184.6490  178.4910  144.0920 C   0  0  2  0  0  3  0  0  0  0  0  0
  183.7540  179.1410  145.0620 N   0  0  0  0  0  2  0  0  0  0  0  0
  185.2110  179.1340  145.2730 C   0  0  1  0  0  3  0  0  0  0  0  0
  185.5730  178.0890  146.3150 C   0  0  0  0  0  2  0  0  0  0  0  0
  187.7250  177.9660  147.3440 O   0  0  0  0  0  0  0  0  0  0  0  0
  187.6630  177.3970  145.0850 N   0  0  0  0  0  2  0  0  0  0  0  0
  187.0430  177.8260  146.2950 C   0  0  0  0  0  0  0  0  0  0  0  0
  189.0960  177.1550  144.9840 C   0  0  0  0  0  2  0  0  0  0  0  0
  189.6790  177.6640  143.6600 C   0  0  2  0  0  0  0  0  0  0  0  0
  190.1920  178.9390  143.8370 F   0  0  0  0  0  0  0  0  0  0  0  0
  188.5150  177.7660  142.6840 C   0  0  0  0  0  1  0  0  0  0  0  0
  190.2170  175.5810  142.5750 O   0  0  0  0  0  1  0  0  0  0  0  0
  191.6230  177.4060  142.0360 C   0  0  0  0  0  1  0  0  0  0  0  0
  190.8000  176.7270  143.1280 C   0  0  1  0  0  0  0  0  0  0  0  0
  191.7330  176.2570  144.2490 C   0  0  0  0  0  2  0  0  0  0  0  0
  192.0320  174.8970  144.1410 O   0  0  0  0  0  1  0  0  0  0  0  0
  185.2940  178.6980  138.0200 N   0  0  0  0  0  2  0  0  0  0  0  0
  185.9510  177.5770  135.3650 C   0  0  0  0  0  1  0  0  0  0  0  0
  188.8530  177.7270  138.5230 C   0  0  0  0  0  3  0  0  0  0  0  0
  187.5640  178.2130  138.7550 C   0  0  0  0  0  3  0  0  0  0  0  0
  188.2350  177.1790  136.2490 C   0  0  0  0  0  3  0  0  0  0  0  0
  189.1920  177.2050  137.2670 C   0  0  0  0  0  0  0  0  0  0  0  0
  186.9480  177.6770  136.4690 C   0  0  0  0  0  0  0  0  0  0  0  0
  186.6100  178.2080  137.7350 C   0  0  0  0  0  0  0  0  0  0  0  0
  192.7470  176.0220  138.0490 C   0  0  0  0  0  3  0  0  0  0  0  0
  191.3850  176.5930  138.2820 C   0  0  0  0  0  2  0  0  0  0  0  0
  191.8280  173.8400  137.5520 N   0  0  0  0  0  0  0  0  0  0  0  0
  190.5610  176.6740  136.9900 C   0  0  1  0  0  3  0  0  0  0  0  0
  194.2590  174.2370  137.6410 N   0  0  0  0  0  1  0  0  0  0  0  0
  192.9320  174.7430  137.7160 C   0  0  0  0  0  0  0  0  0  0  0  0
  190.7280  174.1100  136.9080 C   0  0  0  0  0  3  0  0  0  0  0  0
  190.5080  175.3900  136.1450 C   0  0  2  0  0  3  0  0  0  0  0  0
  191.4100  175.4820  135.0840 O   0  0  0  0  0  1  0  0  0  0  0  0
  1  6  2  0  0  0  0
  1  2  1  0  0  0  0
  2  5  2  0  0  0  0
  4  3  2  0  0  0  0
  5  3  1  0  0  0  0
  5 16  1  0  0  0  0
  6  4  1  0  0  0  0
  8  7  1  6  0  0  0
  8 14  1  0  0  0  0
  9 11  1  0  0  0  0
 10 12  1  0  0  0  0
 11 13  1  0  0  0  0
 11 12  2  0  0  0  0
 12  8  1  0  0  0  0
 13 15  2  0  0  0  0
 14  6  1  0  0  0  0
 15 14  1  0  0  0  0
 17 16  1  6  0  0  0
 17 18  1  0  0  0  0
 17 19  1  0  0  0  0
 18 19  1  0  0  0  0
 19 20  1  1  0  0  0
 22 23  1  0  0  0  0
 23 20  1  0  0  0  0
 23 21  2  0  0  0  0
 24 22  1  0  0  0  0
 25 27  1  6  0  0  0
 25 26  1  0  0  0  0
 25 24  1  0  0  0  0
 28 30  1  0  0  0  0
 30 29  1  6  0  0  0
 30 25  1  0  0  0  0
 30 31  1  0  0  0  0
 32 31  1  0  0  0  0
 33  1  1  0  0  0  0
 34 39  1  0  0  0  0
 35 36  1  0  0  0  0
 37 39  2  0  0  0  0
 37 38  1  0  0  0  0
 38 35  2  0  0  0  0
 39 40  1  0  0  0  0
 40 33  1  0  0  0  0
 40 36  2  0  0  0  0
 41 42  1  0  0  0  0
 43 46  1  0  0  0  0
 44 38  1  1  0  0  0
 44 42  1  0  0  0  0
 45 46  1  0  0  0  0
 46 41  2  0  0  0  0
 47 43  2  0  0  0  0
 48 49  1  6  0  0  0
 48 47  1  0  0  0  0
 48 44  1  0  0  0  0
M  END
>  <MODEL>
2

>  <REMARK>
 VINA RESULT:      -8.7      2.478      7.203
  Name = 
  12 active torsions:
  status: ('A' for Active; 'I' for Inactive)
    1  A    between atoms: C_2  and  C_8
    2  A    between atoms: N_3  and  C_38
    3  A    between atoms: C_8  and  C_41
    4  A    between atoms: C_9  and  C_38
    5  A    between atoms: C_9  and  C_49
    6  A    between atoms: C_15  and  N_27
    7  A    between atoms: C_18  and  C_33
    8  A    between atoms: N_27  and  C_40
    9  A    between atoms: C_28  and  C_49
   10  A    between atoms: C_36  and  C_47
   11  A    between atoms: C_39  and  C_47
   12  A    between atoms: C_43  and  N_44
                            x       y       z     vdW  Elec       q    Type
                         _______ _______ _______ _____ _____    ______ ____

>  <TORSDO>
F 12

$$$$
=
 OpenBabel11042410473D

 49 53  0  0  1  0  0  0  0  0999 V2000
  184.6940  178.6140  139.4830 C   0  0  0  0  0  0  0  0  0  0  0  0
  185.2470  179.1190  140.6700 C   0  0  0  0  0  3  0  0  0  0  0  0
  183.4460  178.1500  141.9560 C   0  0  0  0  0  3  0  0  0  0  0  0
  182.8870  177.6390  140.7830 C   0  0  0  0  0  3  0  0  0  0  0  0
  184.6290  178.8900  141.9000 C   0  0  0  0  0  0  0  0  0  0  0  0
  183.4980  177.8600  139.5380 C   0  0  0  0  0  0  0  0  0  0  0  0
  180.8180  178.5790  138.0010 C   0  0  0  0  0  1  0  0  0  0  0  0
  182.1690  178.2050  137.4160 C   0  0  2  0  0  3  0  0  0  0  0  0
  181.8050  175.5850  134.5940 C   0  0  0  0  0  1  0  0  0  0  0  0
  181.6380  178.4680  134.9150 C   0  0  0  0  0  1  0  0  0  0  0  0
  182.0730  176.2390  135.9130 C   0  0  0  0  0  0  0  0  0  0  0  0
  181.9870  177.5750  136.0620 C   0  0  0  0  0  0  0  0  0  0  0  0
  182.4560  175.4060  137.0170 N   0  0  0  0  0  0  0  0  0  0  0  0
  182.8900  177.3260  138.3450 N   0  0  0  0  0  0  0  0  0  0  0  0
  182.8450  175.9010  138.1490 C   0  0  0  0  0  3  0  0  0  0  0  0
  185.2490  179.4070  143.1510 C   0  0  0  0  0  2  0  0  0  0  0  0
  184.9890  178.4690  144.3150 C   0  0  2  0  0  3  0  0  0  0  0  0
  184.0400  179.0940  145.2500 N   0  0  0  0  0  2  0  0  0  0  0  0
  185.4840  179.0980  145.5340 C   0  0  1  0  0  3  0  0  0  0  0  0
  185.8040  178.0390  146.5760 C   0  0  0  0  0  2  0  0  0  0  0  0
  187.7540  177.9630  147.9530 O   0  0  0  0  0  0  0  0  0  0  0  0
  188.1450  177.8310  145.6590 N   0  0  0  0  0  2  0  0  0  0  0  0
  187.2800  177.9500  146.7870 C   0  0  0  0  0  0  0  0  0  0  0  0
  189.5950  177.7740  145.7890 C   0  0  0  0  0  2  0  0  0  0  0  0
  190.2600  177.1000  144.5830 C   0  0  2  0  0  0  0  0  0  0  0  0
  189.4310  176.1040  144.0910 F   0  0  0  0  0  0  0  0  0  0  0  0
  191.5260  176.4320  145.1020 C   0  0  0  0  0  1  0  0  0  0  0  0
  189.3760  178.4560  142.7980 O   0  0  0  0  0  1  0  0  0  0  0  0
  191.1730  179.4060  144.0080 C   0  0  0  0  0  1  0  0  0  0  0  0
  190.5670  178.1200  143.4510 C   0  0  1  0  0  0  0  0  0  0  0  0
  191.5070  177.5330  142.3910 C   0  0  0  0  0  2  0  0  0  0  0  0
  190.8020  176.9110  141.3580 O   0  0  0  0  0  1  0  0  0  0  0  0
  185.3950  178.7790  138.2430 N   0  0  0  0  0  2  0  0  0  0  0  0
  185.5350  177.4810  135.5910 C   0  0  0  0  0  1  0  0  0  0  0  0
  188.7170  177.1090  138.4480 C   0  0  0  0  0  3  0  0  0  0  0  0
  187.5840  177.8570  138.7800 C   0  0  0  0  0  3  0  0  0  0  0  0
  187.7700  176.6430  136.2710 C   0  0  0  0  0  3  0  0  0  0  0  0
  188.8120  176.4980  137.1910 C   0  0  0  0  0  0  0  0  0  0  0  0
  186.6400  177.4010  136.5900 C   0  0  0  0  0  0  0  0  0  0  0  0
  186.5480  178.0220  137.8560 C   0  0  0  0  0  0  0  0  0  0  0  0
  191.8030  175.3990  135.0700 C   0  0  0  0  0  3  0  0  0  0  0  0
  190.5750  176.1580  135.4630 C   0  0  0  0  0  2  0  0  0  0  0  0
  193.0830  176.3990  136.8630 N   0  0  0  0  0  0  0  0  0  0  0  0
  190.0100  175.6890  136.8100 C   0  0  1  0  0  3  0  0  0  0  0  0
  194.1150  174.8800  135.2200 N   0  0  0  0  0  1  0  0  0  0  0  0
  192.9570  175.5280  135.7290 C   0  0  0  0  0  0  0  0  0  0  0  0
  192.2250  176.4870  137.8410 C   0  0  0  0  0  3  0  0  0  0  0  0
  191.0190  175.5940  137.9660 C   0  0  2  0  0  3  0  0  0  0  0  0
  191.4150  174.2670  138.1430 O   0  0  0  0  0  1  0  0  0  0  0  0
  1  6  2  0  0  0  0
  1  2  1  0  0  0  0
  2  5  2  0  0  0  0
  4  3  2  0  0  0  0
  5  3  1  0  0  0  0
  5 16  1  0  0  0  0
  6  4  1  0  0  0  0
  8  7  1  1  0  0  0
  8 14  1  0  0  0  0
  9 11  1  0  0  0  0
 10 12  1  0  0  0  0
 11 12  2  0  0  0  0
 11 13  1  0  0  0  0
 12  8  1  0  0  0  0
 13 15  2  0  0  0  0
 14  6  1  0  0  0  0
 15 14  1  0  0  0  0
 17 16  1  6  0  0  0
 17 18  1  0  0  0  0
 17 19  1  0  0  0  0
 18 19  1  0  0  0  0
 19 20  1  1  0  0  0
 20 23  1  0  0  0  0
 22 24  1  0  0  0  0
 22 23  1  0  0  0  0
 23 21  2  0  0  0  0
 25 27  1  1  0  0  0
 25 24  1  0  0  0  0
 26 25  1  0  0  0  0
 28 30  1  0  0  0  0
 30 29  1  1  0  0  0
 30 25  1  0  0  0  0
 31 30  1  0  0  0  0
 32 31  1  0  0  0  0
 33  1  1  0  0  0  0
 34 39  1  0  0  0  0
 35 36  1  0  0  0  0
 37 39  2  0  0  0  0
 37 38  1  0  0  0  0
 38 35  2  0  0  0  0
 39 40  1  0  0  0  0
 40 33  1  0  0  0  0
 40 36  2  0  0  0  0
 41 42  1  0  0  0  0
 41 46  2  0  0  0  0
 42 44  1  0  0  0  0
 43 47  2  0  0  0  0
 44 38  1  1  0  0  0
 44 48  1  0  0  0  0
 45 46  1  0  0  0  0
 46 43  1  0  0  0  0
 47 48  1  0  0  0  0
 48 49  1  6  0  0  0
M  END
>  <MODEL>
3

>  <REMARK>
 VINA RESULT:      -8.6      2.261      7.362
  Name = 
  12 active torsions:
  status: ('A' for Active; 'I' for Inactive)
    1  A    between atoms: C_2  and  C_8
    2  A    between atoms: N_3  and  C_38
    3  A    between atoms: C_8  and  C_41
    4  A    between atoms: C_9  and  C_38
    5  A    between atoms: C_9  and  C_49
    6  A    between atoms: C_15  and  N_27
    7  A    between atoms: C_18  and  C_33
    8  A    between atoms: N_27  and  C_40
    9  A    between atoms: C_28  and  C_49
   10  A    between atoms: C_36  and  C_47
   11  A    between atoms: C_39  and  C_47
   12  A    between atoms: C_43  and  N_44
                            x       y       z     vdW  Elec       q    Type
                         _______ _______ _______ _____ _____    ______ ____

>  <TORSDO>
F 12

$$$$
=
 OpenBabel11042410473D

 49 53  0  0  1  0  0  0  0  0999 V2000
  185.6050  177.9970  138.2080 C   0  0  0  0  0  0  0  0  0  0  0  0
  184.6880  178.8530  138.8360 C   0  0  0  0  0  3  0  0  0  0  0  0
  182.8530  177.4430  138.1410 C   0  0  0  0  0  3  0  0  0  0  0  0
  183.7560  176.5810  137.5150 C   0  0  0  0  0  3  0  0  0  0  0  0
  183.3190  178.5790  138.8040 C   0  0  0  0  0  0  0  0  0  0  0  0
  185.1350  176.8420  137.5390 C   0  0  0  0  0  0  0  0  0  0  0  0
  186.3120  176.7780  134.5940 C   0  0  0  0  0  1  0  0  0  0  0  0
  187.0140  176.4380  135.8970 C   0  0  2  0  0  3  0  0  0  0  0  0
  189.0100  173.1390  135.6020 C   0  0  0  0  0  1  0  0  0  0  0  0
  189.3740  175.9570  134.9980 C   0  0  0  0  0  1  0  0  0  0  0  0
  187.9570  174.1480  135.9320 C   0  0  0  0  0  0  0  0  0  0  0  0
  188.1220  175.4530  135.6440 C   0  0  0  0  0  0  0  0  0  0  0  0
  186.7670  173.6940  136.5940 N   0  0  0  0  0  0  0  0  0  0  0  0
  186.0400  175.9380  136.8750 N   0  0  0  0  0  0  0  0  0  0  0  0
  185.8740  174.5180  137.0440 C   0  0  0  0  0  3  0  0  0  0  0  0
  182.3650  179.4830  139.5050 C   0  0  0  0  0  2  0  0  0  0  0  0
  181.1580  178.7140  140.0080 C   0  0  2  0  0  3  0  0  0  0  0  0
  179.9280  179.3250  139.4800 N   0  0  0  0  0  2  0  0  0  0  0  0
  180.3680  179.5990  140.8580 C   0  0  1  0  0  3  0  0  0  0  0  0
  179.5370  178.7810  141.8320 C   0  0  0  0  0  2  0  0  0  0  0  0
  179.7000  178.1040  144.1170 O   0  0  0  0  0  0  0  0  0  0  0  0
  181.6680  178.9220  143.1740 N   0  0  0  0  0  2  0  0  0  0  0  0
  180.2840  178.5830  143.1100 C   0  0  0  0  0  0  0  0  0  0  0  0
  182.4500  178.7870  144.3960 C   0  0  0  0  0  2  0  0  0  0  0  0
  183.9360  179.0910  144.1710 C   0  0  2  0  0  0  0  0  0  0  0  0
  184.1030  180.4470  143.9390 F   0  0  0  0  0  0  0  0  0  0  0  0
  184.3430  178.3520  142.9030 C   0  0  0  0  0  1  0  0  0  0  0  0
  183.9600  178.2270  146.4200 O   0  0  0  0  0  1  0  0  0  0  0  0
  185.7420  177.5180  145.0350 C   0  0  0  0  0  1  0  0  0  0  0  0
  184.8000  178.6660  145.3910 C   0  0  1  0  0  0  0  0  0  0  0  0
  185.6160  179.8370  145.9500 C   0  0  0  0  0  2  0  0  0  0  0  0
  185.8630  179.6940  147.3180 O   0  0  0  0  0  1  0  0  0  0  0  0
  187.0120  178.2440  138.3330 N   0  0  0  0  0  2  0  0  0  0  0  0
  189.9040  177.6420  138.4430 C   0  0  0  0  0  1  0  0  0  0  0  0
  187.6610  178.5580  141.9860 C   0  0  0  0  0  3  0  0  0  0  0  0
  187.0090  178.5380  140.7510 C   0  0  0  0  0  3  0  0  0  0  0  0
  189.7480  178.0090  140.8920 C   0  0  0  0  0  3  0  0  0  0  0  0
  189.0350  178.2920  142.0610 C   0  0  0  0  0  0  0  0  0  0  0  0
  189.1060  178.0000  139.6510 C   0  0  0  0  0  0  0  0  0  0  0  0
  187.7220  178.2760  139.5770 C   0  0  0  0  0  0  0  0  0  0  0  0
  189.8380  177.2740  145.6630 C   0  0  0  0  0  3  0  0  0  0  0  0
  189.1110  177.3230  144.3560 C   0  0  0  0  0  2  0  0  0  0  0  0
  191.7580  176.2180  144.6380 N   0  0  0  0  0  0  0  0  0  0  0  0
  189.7590  178.3020  143.3680 C   0  0  1  0  0  3  0  0  0  0  0  0
  191.6370  176.6190  147.0670 N   0  0  0  0  0  1  0  0  0  0  0  0
  191.0620  176.7540  145.7730 C   0  0  0  0  0  0  0  0  0  0  0  0
  191.8330  176.7860  143.4670 C   0  0  0  0  0  3  0  0  0  0  0  0
  191.2770  178.1560  143.1740 C   0  0  2  0  0  3  0  0  0  0  0  0
  191.9480  179.1210  143.9270 O   0  0  0  0  0  1  0  0  0  0  0  0
  1 33  1  0  0  0  0
  1  2  1  0  0  0  0
  3  5  1  0  0  0  0
  4  6  1  0  0  0  0
  4  3  2  0  0  0  0
  5  2  2  0  0  0  0
  5 16  1  0  0  0  0
  6  1  2  0  0  0  0
  8  7  1  6  0  0  0
  8 14  1  0  0  0  0
  9 11  1  0  0  0  0
 10 12  1  0  0  0  0
 11 13  1  0  0  0  0
 12  8  1  0  0  0  0
 12 11  2  0  0  0  0
 13 15  2  0  0  0  0
 14 15  1  0  0  0  0
 14  6  1  0  0  0  0
 17 16  1  6  0  0  0
 17 19  1  0  0  0  0
 18 17  1  0  0  0  0
 18 19  1  0  0  0  0
 19 20  1  1  0  0  0
 20 23  1  0  0  0  0
 22 24  1  0  0  0  0
 23 22  1  0  0  0  0
 23 21  2  0  0  0  0
 25 27  1  6  0  0  0
 25 24  1  0  0  0  0
 25 30  1  0  0  0  0
 26 25  1  0  0  0  0
 30 29  1  6  0  0  0
 30 31  1  0  0  0  0
 30 28  1  0  0  0  0
 31 32  1  0  0  0  0
 33 40  1  0  0  0  0
 34 39  1  0  0  0  0
 35 38  1  0  0  0  0
 36 35  2  0  0  0  0
 37 38  2  0  0  0  0
 39 37  1  0  0  0  0
 40 39  2  0  0  0  0
 40 36  1  0  0  0  0
 41 46  2  0  0  0  0
 42 41  1  0  0  0  0
 43 46  1  0  0  0  0
 44 38  1  6  0  0  0
 44 42  1  0  0  0  0
 46 45  1  0  0  0  0
 47 43  2  0  0  0  0
 48 44  1  0  0  0  0
 48 47  1  0  0  0  0
 48 49  1  1  0  0  0
M  END
>  <MODEL>
4

>  <REMARK>
 VINA RESULT:      -8.2      2.426      7.157
  Name = 
  12 active torsions:
  status: ('A' for Active; 'I' for Inactive)
    1  A    between atoms: C_2  and  C_8
    2  A    between atoms: N_3  and  C_38
    3  A    between atoms: C_8  and  C_41
    4  A    between atoms: C_9  and  C_38
    5  A    between atoms: C_9  and  C_49
    6  A    between atoms: C_15  and  N_27
    7  A    between atoms: C_18  and  C_33
    8  A    between atoms: N_27  and  C_40
    9  A    between atoms: C_28  and  C_49
   10  A    between atoms: C_36  and  C_47
   11  A    between atoms: C_39  and  C_47
   12  A    between atoms: C_43  and  N_44
                            x       y       z     vdW  Elec       q    Type
                         _______ _______ _______ _____ _____    ______ ____

>  <TORSDO>
F 12

$$$$
=
 OpenBabel11042410473D

 49 53  0  0  1  0  0  0  0  0999 V2000
  184.6670  178.5250  138.7290 C   0  0  0  0  0  0  0  0  0  0  0  0
  185.7270  177.9900  137.9800 C   0  0  0  0  0  3  0  0  0  0  0  0
  184.1650  176.8910  136.5010 C   0  0  0  0  0  3  0  0  0  0  0  0
  183.1010  177.4200  137.2350 C   0  0  0  0  0  3  0  0  0  0  0  0
  185.4790  177.1770  136.8730 C   0  0  0  0  0  0  0  0  0  0  0  0
  183.3340  178.2400  138.3510 C   0  0  0  0  0  0  0  0  0  0  0  0
  180.7450  176.8650  139.5630 C   0  0  0  0  0  1  0  0  0  0  0  0
  181.5920  177.9740  140.1620 C   0  0  2  0  0  3  0  0  0  0  0  0
  179.3890  180.8390  141.5390 C   0  0  0  0  0  1  0  0  0  0  0  0
  180.3890  178.2570  142.4170 C   0  0  0  0  0  1  0  0  0  0  0  0
  180.2990  180.0230  140.6770 C   0  0  0  0  0  0  0  0  0  0  0  0
  180.7550  178.8210  141.0810 C   0  0  0  0  0  0  0  0  0  0  0  0
  180.7000  180.5650  139.4110 N   0  0  0  0  0  0  0  0  0  0  0  0
  182.2140  178.7630  139.0930 N   0  0  0  0  0  0  0  0  0  0  0  0
  181.5960  179.9920  138.6700 C   0  0  0  0  0  3  0  0  0  0  0  0
  186.6170  176.6450  136.0730 C   0  0  0  0  0  2  0  0  0  0  0  0
  187.9260  177.2840  136.4960 C   0  0  2  0  0  3  0  0  0  0  0  0
  188.9720  176.9640  135.5120 N   0  0  0  0  0  2  0  0  0  0  0  0
  188.8870  176.2240  136.7810 C   0  0  1  0  0  3  0  0  0  0  0  0
  189.9520  176.7290  137.7410 C   0  0  0  0  0  2  0  0  0  0  0  0
  190.8000  174.5060  137.9490 O   0  0  0  0  0  0  0  0  0  0  0  0
  192.4130  176.1850  137.8340 N   0  0  0  0  0  2  0  0  0  0  0  0
  191.0600  175.7340  137.8540 C   0  0  0  0  0  0  0  0  0  0  0  0
  193.5420  175.2750  137.9740 C   0  0  0  0  0  2  0  0  0  0  0  0
  194.3050  175.0900  136.6560 C   0  0  2  0  0  0  0  0  0  0  0  0
  194.4370  176.3130  136.0190 F   0  0  0  0  0  0  0  0  0  0  0  0
  193.4380  174.2010  135.7740 C   0  0  0  0  0  1  0  0  0  0  0  0
  196.6710  175.4940  136.8610 O   0  0  0  0  0  1  0  0  0  0  0  0
  195.8030  173.7860  138.2500 C   0  0  0  0  0  1  0  0  0  0  0  0
  195.7130  174.4740  136.8900 C   0  0  1  0  0  0  0  0  0  0  0  0
  196.0900  173.4760  135.7900 C   0  0  0  0  0  2  0  0  0  0  0  0
  196.2810  172.1880  136.2980 O   0  0  0  0  0  1  0  0  0  0  0  0
  184.9410  179.4340  139.8040 N   0  0  0  0  0  2  0  0  0  0  0  0
  187.6560  178.5640  140.5850 C   0  0  0  0  0  1  0  0  0  0  0  0
  184.4120  178.6060  143.3950 C   0  0  0  0  0  3  0  0  0  0  0  0
  184.1790  179.0070  142.0770 C   0  0  0  0  0  3  0  0  0  0  0  0
  186.7390  178.2110  142.8640 C   0  0  0  0  0  3  0  0  0  0  0  0
  185.6940  178.2040  143.7920 C   0  0  0  0  0  0  0  0  0  0  0  0
  186.5180  178.6240  141.5470 C   0  0  0  0  0  0  0  0  0  0  0  0
  185.2250  179.0350  141.1500 C   0  0  0  0  0  0  0  0  0  0  0  0
  187.7980  177.2130  146.8320 C   0  0  0  0  0  3  0  0  0  0  0  0
  187.4800  177.6080  145.4250 C   0  0  0  0  0  2  0  0  0  0  0  0
  187.0830  179.3650  147.6750 N   0  0  0  0  0  0  0  0  0  0  0  0
  185.9720  177.7650  145.1940 C   0  0  1  0  0  3  0  0  0  0  0  0
  188.0600  177.6500  149.1510 N   0  0  0  0  0  1  0  0  0  0  0  0
  187.6110  178.0440  147.8610 C   0  0  0  0  0  0  0  0  0  0  0  0
  186.0630  179.6670  146.9220 C   0  0  0  0  0  3  0  0  0  0  0  0
  185.2220  178.6350  146.2170 C   0  0  2  0  0  3  0  0  0  0  0  0
  184.5730  177.8220  147.1470 O   0  0  0  0  0  1  0  0  0  0  0  0
  1 33  1  0  0  0  0
  2  1  2  0  0  0  0
  3  5  2  0  0  0  0
  3  4  1  0  0  0  0
  4  6  2  0  0  0  0
  5  2  1  0  0  0  0
  6  1  1  0  0  0  0
  6 14  1  0  0  0  0
  8  7  1  6  0  0  0
  8 12  1  0  0  0  0
 11 12  2  0  0  0  0
 11  9  1  0  0  0  0
 12 10  1  0  0  0  0
 13 11  1  0  0  0  0
 14  8  1  0  0  0  0
 15 14  1  0  0  0  0
 15 13  2  0  0  0  0
 16  5  1  0  0  0  0
 17 16  1  6  0  0  0
 17 19  1  0  0  0  0
 18 17  1  0  0  0  0
 18 19  1  0  0  0  0
 19 20  1  1  0  0  0
 20 23  1  0  0  0  0
 22 23  1  0  0  0  0
 22 24  1  0  0  0  0
 23 21  2  0  0  0  0
 25 27  1  6  0  0  0
 25 30  1  0  0  0  0
 25 24  1  0  0  0  0
 26 25  1  0  0  0  0
 28 30  1  0  0  0  0
 30 29  1  1  0  0  0
 31 32  1  0  0  0  0
 31 30  1  0  0  0  0
 33 40  1  0  0  0  0
 34 39  1  0  0  0  0
 35 38  1  0  0  0  0
 36 35  2  0  0  0  0
 37 38  2  0  0  0  0
 39 37  1  0  0  0  0
 40 39  2  0  0  0  0
 40 36  1  0  0  0  0
 41 46  2  0  0  0  0
 42 41  1  0  0  0  0
 43 46  1  0  0  0  0
 44 38  1  6  0  0  0
 44 42  1  0  0  0  0
 44 48  1  0  0  0  0
 46 45  1  0  0  0  0
 47 43  2  0  0  0  0
 48 47  1  0  0  0  0
 48 49  1  1  0  0  0
M  END
>  <MODEL>
5

>  <REMARK>
 VINA RESULT:      -7.9      2.740      3.877
  Name = 
  12 active torsions:
  status: ('A' for Active; 'I' for Inactive)
    1  A    between atoms: C_2  and  C_8
    2  A    between atoms: N_3  and  C_38
    3  A    between atoms: C_8  and  C_41
    4  A    between atoms: C_9  and  C_38
    5  A    between atoms: C_9  and  C_49
    6  A    between atoms: C_15  and  N_27
    7  A    between atoms: C_18  and  C_33
    8  A    between atoms: N_27  and  C_40
    9  A    between atoms: C_28  and  C_49
   10  A    between atoms: C_36  and  C_47
   11  A    between atoms: C_39  and  C_47
   12  A    between atoms: C_43  and  N_44
                            x       y       z     vdW  Elec       q    Type
                         _______ _______ _______ _____ _____    ______ ____

>  <TORSDO>
F 12

$$$$
=
 OpenBabel11042410473D

 49 53  0  0  1  0  0  0  0  0999 V2000
  184.4480  178.5440  138.7880 C   0  0  0  0  0  0  0  0  0  0  0  0
  185.4600  178.0510  137.9500 C   0  0  0  0  0  3  0  0  0  0  0  0
  183.8220  177.4460  136.2800 C   0  0  0  0  0  3  0  0  0  0  0  0
  182.8060  177.9370  137.1020 C   0  0  0  0  0  3  0  0  0  0  0  0
  185.1510  177.5040  136.7040 C   0  0  0  0  0  0  0  0  0  0  0  0
  183.1010  178.4910  138.3590 C   0  0  0  0  0  0  0  0  0  0  0  0
  180.4030  177.1620  139.3660 C   0  0  0  0  0  1  0  0  0  0  0  0
  181.3390  178.0860  140.1250 C   0  0  2  0  0  3  0  0  0  0  0  0
  179.3850  180.8690  141.9660 C   0  0  0  0  0  1  0  0  0  0  0  0
  180.1600  178.1050  142.4090 C   0  0  0  0  0  1  0  0  0  0  0  0
  180.2240  180.1280  140.9740 C   0  0  0  0  0  0  0  0  0  0  0  0
  180.5750  178.8430  141.1770 C   0  0  0  0  0  0  0  0  0  0  0  0
  180.6720  180.8300  139.8060 N   0  0  0  0  0  0  0  0  0  0  0  0
  182.0280  178.9810  139.1870 N   0  0  0  0  0  0  0  0  0  0  0  0
  181.5170  180.3090  138.9730 C   0  0  0  0  0  3  0  0  0  0  0  0
  186.2420  177.0150  135.8160 C   0  0  0  0  0  2  0  0  0  0  0  0
  187.6030  177.4100  136.3570 C   0  0  2  0  0  3  0  0  0  0  0  0
  188.6570  176.8830  135.4760 N   0  0  0  0  0  2  0  0  0  0  0  0
  188.3200  176.1970  136.7340 C   0  0  1  0  0  3  0  0  0  0  0  0
  189.3690  176.5170  137.7870 C   0  0  0  0  0  2  0  0  0  0  0  0
  190.2630  174.3110  137.5930 O   0  0  0  0  0  0  0  0  0  0  0  0
  191.8410  176.0210  137.7370 N   0  0  0  0  0  2  0  0  0  0  0  0
  190.4980  175.5420  137.7050 C   0  0  0  0  0  0  0  0  0  0  0  0
  192.9900  175.1250  137.6960 C   0  0  0  0  0  2  0  0  0  0  0  0
  193.9760  175.4970  136.5820 C   0  0  2  0  0  0  0  0  0  0  0  0
  194.1640  176.8690  136.5660 F   0  0  0  0  0  0  0  0  0  0  0  0
  193.3140  175.1060  135.2680 C   0  0  0  0  0  1  0  0  0  0  0  0
  195.9110  175.1950  137.9860 O   0  0  0  0  0  1  0  0  0  0  0  0
  195.1930  173.2720  136.8100 C   0  0  0  0  0  1  0  0  0  0  0  0
  195.3480  174.7900  136.7710 C   0  0  1  0  0  0  0  0  0  0  0  0
  196.3440  175.1710  135.6690 C   0  0  0  0  0  2  0  0  0  0  0  0
  197.2340  176.1610  136.0920 O   0  0  0  0  0  1  0  0  0  0  0  0
  184.7950  179.1870  140.0220 N   0  0  0  0  0  2  0  0  0  0  0  0
  183.8230  178.6320  142.7580 C   0  0  0  0  0  1  0  0  0  0  0  0
  187.8920  177.8770  141.6200 C   0  0  0  0  0  3  0  0  0  0  0  0
  187.0050  178.4040  140.6770 C   0  0  0  0  0  3  0  0  0  0  0  0
  186.1170  177.8320  143.2630 C   0  0  0  0  0  3  0  0  0  0  0  0
  187.4500  177.5910  142.9180 C   0  0  0  0  0  0  0  0  0  0  0  0
  185.2200  178.3460  142.3220 C   0  0  0  0  0  0  0  0  0  0  0  0
  185.6660  178.6280  141.0110 C   0  0  0  0  0  0  0  0  0  0  0  0
  190.4800  175.6950  144.2870 C   0  0  0  0  0  3  0  0  0  0  0  0
  189.5070  176.2330  143.2870 C   0  0  0  0  0  2  0  0  0  0  0  0
  191.2770  177.9170  144.8160 N   0  0  0  0  0  0  0  0  0  0  0  0
  188.3760  177.0310  143.9490 C   0  0  1  0  0  3  0  0  0  0  0  0
  192.2840  175.9020  145.8170 N   0  0  0  0  0  1  0  0  0  0  0  0
  191.2950  176.4920  144.9830 C   0  0  0  0  0  0  0  0  0  0  0  0
  190.2020  178.6520  144.7540 C   0  0  0  0  0  3  0  0  0  0  0  0
  188.8130  178.1060  144.9590 C   0  0  2  0  0  3  0  0  0  0  0  0
  188.6710  177.6210  146.2600 O   0  0  0  0  0  1  0  0  0  0  0  0
  1 33  1  0  0  0  0
  2  1  2  0  0  0  0
  3  5  2  0  0  0  0
  3  4  1  0  0  0  0
  4  6  2  0  0  0  0
  5  2  1  0  0  0  0
  6  1  1  0  0  0  0
  6 14  1  0  0  0  0
  8  7  1  6  0  0  0
  8 12  1  0  0  0  0
 11 12  2  0  0  0  0
 11  9  1  0  0  0  0
 12 10  1  0  0  0  0
 13 11  1  0  0  0  0
 14  8  1  0  0  0  0
 15 14  1  0  0  0  0
 15 13  2  0  0  0  0
 16  5  1  0  0  0  0
 17 16  1  6  0  0  0
 17 19  1  0  0  0  0
 18 17  1  0  0  0  0
 18 19  1  0  0  0  0
 19 20  1  1  0  0  0
 21 23  2  0  0  0  0
 23 22  1  0  0  0  0
 23 20  1  0  0  0  0
 24 22  1  0  0  0  0
 25 27  1  6  0  0  0
 25 30  1  0  0  0  0
 25 24  1  0  0  0  0
 26 25  1  0  0  0  0
 30 29  1  1  0  0  0
 30 28  1  0  0  0  0
 31 32  1  0  0  0  0
 31 30  1  0  0  0  0
 33 40  1  0  0  0  0
 35 38  1  0  0  0  0
 36 40  1  0  0  0  0
 36 35  2  0  0  0  0
 38 37  2  0  0  0  0
 39 34  1  0  0  0  0
 39 37  1  0  0  0  0
 40 39  2  0  0  0  0
 41 46  2  0  0  0  0
 42 44  1  0  0  0  0
 42 41  1  0  0  0  0
 43 46  1  0  0  0  0
 44 38  1  6  0  0  0
 44 48  1  0  0  0  0
 46 45  1  0  0  0  0
 47 43  2  0  0  0  0
 47 48  1  0  0  0  0
 48 49  1  1  0  0  0
M  END
>  <MODEL>
6

>  <REMARK>
 VINA RESULT:      -7.5      2.937      4.412
  Name = 
  12 active torsions:
  status: ('A' for Active; 'I' for Inactive)
    1  A    between atoms: C_2  and  C_8
    2  A    between atoms: N_3  and  C_38
    3  A    between atoms: C_8  and  C_41
    4  A    between atoms: C_9  and  C_38
    5  A    between atoms: C_9  and  C_49
    6  A    between atoms: C_15  and  N_27
    7  A    between atoms: C_18  and  C_33
    8  A    between atoms: N_27  and  C_40
    9  A    between atoms: C_28  and  C_49
   10  A    between atoms: C_36  and  C_47
   11  A    between atoms: C_39  and  C_47
   12  A    between atoms: C_43  and  N_44
                            x       y       z     vdW  Elec       q    Type
                         _______ _______ _______ _____ _____    ______ ____

>  <TORSDO>
F 12

$$$$
=
 OpenBabel11042410473D

 49 53  0  0  1  0  0  0  0  0999 V2000
  185.6270  178.2570  139.1790 C   0  0  0  0  0  0  0  0  0  0  0  0
  186.8560  177.8540  138.6350 C   0  0  0  0  0  3  0  0  0  0  0  0
  185.7950  177.3780  136.5180 C   0  0  0  0  0  3  0  0  0  0  0  0
  184.5670  177.7800  137.0460 C   0  0  0  0  0  3  0  0  0  0  0  0
  186.9420  177.4160  137.3130 C   0  0  0  0  0  0  0  0  0  0  0  0
  184.4650  178.2240  138.3750 C   0  0  0  0  0  0  0  0  0  0  0  0
  182.1610  176.6150  139.8470 C   0  0  0  0  0  1  0  0  0  0  0  0
  182.6520  178.0250  140.1240 C   0  0  2  0  0  3  0  0  0  0  0  0
  179.6980  180.4900  140.5260 C   0  0  0  0  0  1  0  0  0  0  0  0
  181.1820  178.5970  142.1550 C   0  0  0  0  0  1  0  0  0  0  0  0
  180.8620  179.7310  139.9720 C   0  0  0  0  0  0  0  0  0  0  0  0
  181.5440  178.8470  140.7250 C   0  0  0  0  0  0  0  0  0  0  0  0
  181.2570  179.9890  138.6170 N   0  0  0  0  0  0  0  0  0  0  0  0
  183.1800  178.6230  138.8920 N   0  0  0  0  0  0  0  0  0  0  0  0
  182.3370  179.4860  138.1070 C   0  0  0  0  0  3  0  0  0  0  0  0
  188.2610  177.0230  136.7440 C   0  0  0  0  0  2  0  0  0  0  0  0
  189.1910  176.5120  137.8280 C   0  0  2  0  0  3  0  0  0  0  0  0
  190.1750  177.5520  138.1650 N   0  0  0  0  0  2  0  0  0  0  0  0
  190.5400  176.4340  137.2800 C   0  0  1  0  0  3  0  0  0  0  0  0
  191.3600  175.4150  138.0550 C   0  0  0  0  0  2  0  0  0  0  0  0
  191.7250  174.0230  136.1500 O   0  0  0  0  0  0  0  0  0  0  0  0
  193.6410  174.6110  137.3390 N   0  0  0  0  0  2  0  0  0  0  0  0
  192.2310  174.6370  137.1240 C   0  0  0  0  0  0  0  0  0  0  0  0
  194.5450  173.8450  136.4920 C   0  0  0  0  0  2  0  0  0  0  0  0
  195.8400  173.4640  137.2200 C   0  0  2  0  0  0  0  0  0  0  0  0
  196.2150  172.1790  136.8630 F   0  0  0  0  0  0  0  0  0  0  0  0
  195.5140  173.4530  138.7080 C   0  0  0  0  0  1  0  0  0  0  0  0
  197.2590  175.2430  138.0120 O   0  0  0  0  0  1  0  0  0  0  0  0
  198.2800  173.7050  136.5320 C   0  0  0  0  0  1  0  0  0  0  0  0
  196.9960  174.4500  136.8900 C   0  0  1  0  0  0  0  0  0  0  0  0
  196.6270  175.4020  135.7470 C   0  0  0  0  0  2  0  0  0  0  0  0
  197.3050  176.6200  135.8440 O   0  0  0  0  0  1  0  0  0  0  0  0
  185.5780  178.7930  140.5090 N   0  0  0  0  0  2  0  0  0  0  0  0
  184.8740  178.2650  143.3310 C   0  0  0  0  0  1  0  0  0  0  0  0
  188.9590  178.5790  142.0530 C   0  0  0  0  0  3  0  0  0  0  0  0
  187.9360  178.7360  141.1150 C   0  0  0  0  0  3  0  0  0  0  0  0
  187.3120  178.2010  143.7850 C   0  0  0  0  0  3  0  0  0  0  0  0
  188.6500  178.3130  143.3930 C   0  0  0  0  0  0  0  0  0  0  0  0
  186.2830  178.3430  142.8500 C   0  0  0  0  0  0  0  0  0  0  0  0
  186.5980  178.6050  141.4970 C   0  0  0  0  0  0  0  0  0  0  0  0
  190.3620  176.9080  146.5150 C   0  0  0  0  0  3  0  0  0  0  0  0
  189.2940  177.1360  145.4940 C   0  0  0  0  0  2  0  0  0  0  0  0
  191.7740  175.7950  144.8960 N   0  0  0  0  0  0  0  0  0  0  0  0
  189.7230  178.1440  144.4200 C   0  0  1  0  0  3  0  0  0  0  0  0
  192.4150  175.9820  147.2680 N   0  0  0  0  0  1  0  0  0  0  0  0
  191.5030  176.2810  146.2190 C   0  0  0  0  0  0  0  0  0  0  0  0
  191.5610  176.4590  143.7950 C   0  0  0  0  0  3  0  0  0  0  0  0
  191.0930  177.8910  143.7690 C   0  0  2  0  0  3  0  0  0  0  0  0
  192.0540  178.7250  144.3440 O   0  0  0  0  0  1  0  0  0  0  0  0
  1 33  1  0  0  0  0
  2  1  1  0  0  0  0
  3  4  2  0  0  0  0
  3  5  1  0  0  0  0
  4  6  1  0  0  0  0
  5  2  2  0  0  0  0
  6 14  1  0  0  0  0
  6  1  2  0  0  0  0
  8  7  1  6  0  0  0
  8 12  1  0  0  0  0
 11  9  1  0  0  0  0
 11 12  2  0  0  0  0
 12 10  1  0  0  0  0
 13 11  1  0  0  0  0
 14  8  1  0  0  0  0
 15 13  2  0  0  0  0
 15 14  1  0  0  0  0
 16  5  1  0  0  0  0
 17 16  1  6  0  0  0
 17 18  1  0  0  0  0
 19 17  1  0  0  0  0
 19 20  1  1  0  0  0
 19 18  1  0  0  0  0
 21 23  2  0  0  0  0
 23 22  1  0  0  0  0
 23 20  1  0  0  0  0
 24 25  1  0  0  0  0
 24 22  1  0  0  0  0
 25 27  1  1  0  0  0
 26 25  1  0  0  0  0
 30 29  1  6  0  0  0
 30 25  1  0  0  0  0
 30 28  1  0  0  0  0
 31 32  1  0  0  0  0
 31 30  1  0  0  0  0
 33 40  1  0  0  0  0
 35 38  1  0  0  0  0
 36 40  1  0  0  0  0
 36 35  2  0  0  0  0
 38 37  2  0  0  0  0
 39 34  1  0  0  0  0
 39 37  1  0  0  0  0
 40 39  2  0  0  0  0
 42 41  1  0  0  0  0
 43 46  1  0  0  0  0
 44 38  1  6  0  0  0
 44 42  1  0  0  0  0
 46 41  2  0  0  0  0
 46 45  1  0  0  0  0
 47 43  2  0  0  0  0
 48 47  1  0  0  0  0
 48 49  1  1  0  0  0
 48 44  1  0  0  0  0
M  END
>  <MODEL>
7

>  <REMARK>
 VINA RESULT:      -7.5      3.531      5.095
  Name = 
  12 active torsions:
  status: ('A' for Active; 'I' for Inactive)
    1  A    between atoms: C_2  and  C_8
    2  A    between atoms: N_3  and  C_38
    3  A    between atoms: C_8  and  C_41
    4  A    between atoms: C_9  and  C_38
    5  A    between atoms: C_9  and  C_49
    6  A    between atoms: C_15  and  N_27
    7  A    between atoms: C_18  and  C_33
    8  A    between atoms: N_27  and  C_40
    9  A    between atoms: C_28  and  C_49
   10  A    between atoms: C_36  and  C_47
   11  A    between atoms: C_39  and  C_47
   12  A    between atoms: C_43  and  N_44
                            x       y       z     vdW  Elec       q    Type
                         _______ _______ _______ _____ _____    ______ ____

>  <TORSDO>
F 12

$$$$
=
 OpenBabel11042410473D

 49 53  0  0  1  0  0  0  0  0999 V2000
  181.8160  178.7980  140.1570 C   0  0  0  0  0  0  0  0  0  0  0  0
  182.2610  178.3730  141.4180 C   0  0  0  0  0  3  0  0  0  0  0  0
  180.5890  179.7400  142.5010 C   0  0  0  0  0  3  0  0  0  0  0  0
  180.1340  180.1690  141.2520 C   0  0  0  0  0  3  0  0  0  0  0  0
  181.6530  178.8400  142.5840 C   0  0  0  0  0  0  0  0  0  0  0  0
  180.7350  179.7070  140.0700 C   0  0  0  0  0  0  0  0  0  0  0  0
  179.3420  182.4150  139.1820 C   0  0  0  0  0  1  0  0  0  0  0  0
  180.3690  181.5900  138.4250 C   0  0  2  0  0  3  0  0  0  0  0  0
  179.3450  181.1170  134.7250 C   0  0  0  0  0  1  0  0  0  0  0  0
  180.6940  183.0970  136.3680 C   0  0  0  0  0  1  0  0  0  0  0  0
  179.5940  180.8820  136.1820 C   0  0  0  0  0  0  0  0  0  0  0  0
  180.2120  181.8040  136.9440 C   0  0  0  0  0  0  0  0  0  0  0  0
  179.1810  179.6290  136.7460 N   0  0  0  0  0  0  0  0  0  0  0  0
  180.2480  180.1760  138.7970 N   0  0  0  0  0  0  0  0  0  0  0  0
  179.4870  179.2870  137.9580 C   0  0  0  0  0  3  0  0  0  0  0  0
  182.1190  178.3520  143.9120 C   0  0  0  0  0  2  0  0  0  0  0  0
  183.1540  179.2890  144.5040 C   0  0  2  0  0  3  0  0  0  0  0  0
  184.2020  179.5600  143.5080 N   0  0  0  0  0  2  0  0  0  0  0  0
  184.4260  178.5810  144.5840 C   0  0  1  0  0  3  0  0  0  0  0  0
  185.3010  179.1980  145.6630 C   0  0  0  0  0  2  0  0  0  0  0  0
  187.0990  178.3140  146.9620 O   0  0  0  0  0  0  0  0  0  0  0  0
  187.1140  177.7280  144.7060 N   0  0  0  0  0  2  0  0  0  0  0  0
  186.5530  178.4020  145.8320 C   0  0  0  0  0  0  0  0  0  0  0  0
  188.3510  176.9630  144.7910 C   0  0  0  0  0  2  0  0  0  0  0  0
  189.1770  177.0520  143.5020 C   0  0  2  0  0  0  0  0  0  0  0  0
  188.6100  177.9850  142.6490 F   0  0  0  0  0  0  0  0  0  0  0  0
  189.0780  175.6890  142.8280 C   0  0  0  0  0  1  0  0  0  0  0  0
  191.2950  176.3860  144.4380 O   0  0  0  0  0  1  0  0  0  0  0  0
  191.4150  177.7400  142.5020 C   0  0  0  0  0  1  0  0  0  0  0  0
  190.6530  177.4480  143.7920 C   0  0  1  0  0  0  0  0  0  0  0  0
  190.7470  178.6610  144.7240 C   0  0  0  0  0  2  0  0  0  0  0  0
  190.9180  179.8520  144.0130 O   0  0  0  0  0  1  0  0  0  0  0  0
  182.3910  178.2340  138.9710 N   0  0  0  0  0  2  0  0  0  0  0  0
  183.4130  176.7920  136.6020 C   0  0  0  0  0  1  0  0  0  0  0  0
  186.0640  178.6420  139.4250 C   0  0  0  0  0  3  0  0  0  0  0  0
  184.6840  178.7170  139.6320 C   0  0  0  0  0  3  0  0  0  0  0  0
  185.6890  177.3930  137.3870 C   0  0  0  0  0  3  0  0  0  0  0  0
  186.5710  177.9770  138.3010 C   0  0  0  0  0  0  0  0  0  0  0  0
  184.3070  177.4760  137.5800 C   0  0  0  0  0  0  0  0  0  0  0  0
  183.7970  178.1530  138.7110 C   0  0  0  0  0  0  0  0  0  0  0  0
  190.2600  177.3900  139.1360 C   0  0  0  0  0  3  0  0  0  0  0  0
  188.7880  177.5430  139.3530 C   0  0  0  0  0  2  0  0  0  0  0  0
  189.9350  175.3600  137.8600 N   0  0  0  0  0  0  0  0  0  0  0  0
  188.0420  177.8760  138.0550 C   0  0  1  0  0  3  0  0  0  0  0  0
  192.1840  176.2150  138.3920 N   0  0  0  0  0  1  0  0  0  0  0  0
  190.7720  176.3690  138.4450 C   0  0  0  0  0  0  0  0  0  0  0  0
  188.8390  175.5890  137.1930 C   0  0  0  0  0  3  0  0  0  0  0  0
  188.3520  176.9730  136.8500 C   0  0  2  0  0  3  0  0  0  0  0  0
  189.2600  177.6080  136.0010 O   0  0  0  0  0  1  0  0  0  0  0  0
  1  2  1  0  0  0  0
  2  5  2  0  0  0  0
  3  5  1  0  0  0  0
  4  3  2  0  0  0  0
  5 16  1  0  0  0  0
  6  1  2  0  0  0  0
  6  4  1  0  0  0  0
  8 14  1  0  0  0  0
  8  7  1  1  0  0  0
  9 11  1  0  0  0  0
 10 12  1  0  0  0  0
 11 13  1  0  0  0  0
 11 12  2  0  0  0  0
 12  8  1  0  0  0  0
 13 15  2  0  0  0  0
 14  6  1  0  0  0  0
 15 14  1  0  0  0  0
 17 16  1  6  0  0  0
 17 19  1  0  0  0  0
 18 17  1  0  0  0  0
 18 19  1  0  0  0  0
 19 20  1  1  0  0  0
 20 23  1  0  0  0  0
 22 24  1  0  0  0  0
 22 23  1  0  0  0  0
 23 21  2  0  0  0  0
 25 27  1  6  0  0  0
 25 30  1  0  0  0  0
 25 24  1  0  0  0  0
 26 25  1  0  0  0  0
 30 29  1  6  0  0  0
 30 28  1  0  0  0  0
 30 31  1  0  0  0  0
 32 31  1  0  0  0  0
 33  1  1  0  0  0  0
 34 39  1  0  0  0  0
 35 36  1  0  0  0  0
 37 39  2  0  0  0  0
 37 38  1  0  0  0  0
 38 35  2  0  0  0  0
 39 40  1  0  0  0  0
 40 33  1  0  0  0  0
 40 36  2  0  0  0  0
 41 42  1  0  0  0  0
 43 46  1  0  0  0  0
 44 38  1  1  0  0  0
 44 42  1  0  0  0  0
 45 46  1  0  0  0  0
 46 41  2  0  0  0  0
 47 43  2  0  0  0  0
 48 49  1  6  0  0  0
 48 47  1  0  0  0  0
 48 44  1  0  0  0  0
M  END
>  <MODEL>
8

>  <REMARK>
 VINA RESULT:      -7.5      1.988      6.505
  Name = 
  12 active torsions:
  status: ('A' for Active; 'I' for Inactive)
    1  A    between atoms: C_2  and  C_8
    2  A    between atoms: N_3  and  C_38
    3  A    between atoms: C_8  and  C_41
    4  A    between atoms: C_9  and  C_38
    5  A    between atoms: C_9  and  C_49
    6  A    between atoms: C_15  and  N_27
    7  A    between atoms: C_18  and  C_33
    8  A    between atoms: N_27  and  C_40
    9  A    between atoms: C_28  and  C_49
   10  A    between atoms: C_36  and  C_47
   11  A    between atoms: C_39  and  C_47
   12  A    between atoms: C_43  and  N_44
                            x       y       z     vdW  Elec       q    Type
                         _______ _______ _______ _____ _____    ______ ____

>  <TORSDO>
F 12

$$$$
=
 OpenBabel11042410473D

 49 53  0  0  1  0  0  0  0  0999 V2000
  190.7410  175.6020  136.0540 C   0  0  0  0  0  0  0  0  0  0  0  0
  189.3910  175.2370  135.9360 C   0  0  0  0  0  3  0  0  0  0  0  0
  190.0040  173.2710  134.6740 C   0  0  0  0  0  3  0  0  0  0  0  0
  191.3510  173.6210  134.7870 C   0  0  0  0  0  3  0  0  0  0  0  0
  189.0220  174.0790  135.2500 C   0  0  0  0  0  0  0  0  0  0  0  0
  191.7370  174.7830  135.4750 C   0  0  0  0  0  0  0  0  0  0  0  0
  193.8000  174.7130  137.8840 C   0  0  0  0  0  1  0  0  0  0  0  0
  194.0370  174.3480  136.4290 C   0  0  2  0  0  3  0  0  0  0  0  0
  197.3080  175.9240  135.0980 C   0  0  0  0  0  1  0  0  0  0  0  0
  196.4810  173.5660  136.5790 C   0  0  0  0  0  1  0  0  0  0  0  0
  195.8650  175.6490  135.3800 C   0  0  0  0  0  0  0  0  0  0  0  0
  195.4840  174.5600  136.0750 C   0  0  0  0  0  0  0  0  0  0  0  0
  194.8870  176.5640  134.8660 N   0  0  0  0  0  0  0  0  0  0  0  0
  193.1360  175.1210  135.5660 N   0  0  0  0  0  0  0  0  0  0  0  0
  193.6160  176.3240  134.9390 C   0  0  0  0  0  3  0  0  0  0  0  0
  187.5870  173.6920  135.1630 C   0  0  0  0  0  2  0  0  0  0  0  0
  186.9460  173.6620  136.5380 C   0  0  2  0  0  3  0  0  0  0  0  0
  187.2940  172.4050  137.2170 N   0  0  0  0  0  2  0  0  0  0  0  0
  185.9810  172.5700  136.5740 C   0  0  1  0  0  3  0  0  0  0  0  0
  184.9240  172.8430  137.6320 C   0  0  0  0  0  2  0  0  0  0  0  0
  183.3860  173.7580  136.0490 O   0  0  0  0  0  0  0  0  0  0  0  0
  183.7230  175.0350  137.9700 N   0  0  0  0  0  2  0  0  0  0  0  0
  183.9730  173.8920  137.1550 C   0  0  0  0  0  0  0  0  0  0  0  0
  182.8350  176.1130  137.5520 C   0  0  0  0  0  2  0  0  0  0  0  0
  183.4670  177.4950  137.7510 C   0  0  2  0  0  0  0  0  0  0  0  0
  183.2030  178.2910  136.6480 F   0  0  0  0  0  0  0  0  0  0  0  0
  184.9740  177.2790  137.8130 C   0  0  0  0  0  1  0  0  0  0  0  0
  181.6090  177.7930  139.2550 O   0  0  0  0  0  1  0  0  0  0  0  0
  183.7500  177.8100  140.2620 C   0  0  0  0  0  1  0  0  0  0  0  0
  182.9300  178.1940  139.0320 C   0  0  1  0  0  0  0  0  0  0  0  0
  182.9160  179.7200  138.8880 C   0  0  0  0  0  2  0  0  0  0  0  0
  184.1820  180.2750  139.0940 O   0  0  0  0  0  1  0  0  0  0  0  0
  191.1040  176.7440  136.8430 N   0  0  0  0  0  2  0  0  0  0  0  0
  188.9730  178.7920  136.8590 C   0  0  0  0  0  1  0  0  0  0  0  0
  190.3080  176.9080  140.4770 C   0  0  0  0  0  3  0  0  0  0  0  0
  190.8980  176.5500  139.2620 C   0  0  0  0  0  3  0  0  0  0  0  0
  188.8570  178.4570  139.3150 C   0  0  0  0  0  3  0  0  0  0  0  0
  189.2860  177.8650  140.5070 C   0  0  0  0  0  0  0  0  0  0  0  0
  189.4330  178.0940  138.0940 C   0  0  0  0  0  0  0  0  0  0  0  0
  190.4590  177.1230  138.0650 C   0  0  0  0  0  0  0  0  0  0  0  0
  186.4280  178.6050  142.9440 C   0  0  0  0  0  3  0  0  0  0  0  0
  187.1100  178.2470  141.6620 C   0  0  0  0  0  2  0  0  0  0  0  0
  187.1720  176.5570  143.9970 N   0  0  0  0  0  0  0  0  0  0  0  0
  188.6390  178.2720  141.7920 C   0  0  1  0  0  3  0  0  0  0  0  0
  185.6850  178.1470  145.1520 N   0  0  0  0  0  1  0  0  0  0  0  0
  186.4650  177.8060  144.0140 C   0  0  0  0  0  0  0  0  0  0  0  0
  188.3680  176.3790  143.5100 C   0  0  0  0  0  3  0  0  0  0  0  0
  189.2250  177.5020  142.9870 C   0  0  2  0  0  3  0  0  0  0  0  0
  189.5400  178.3910  144.0170 O   0  0  0  0  0  1  0  0  0  0  0  0
  1 33  1  0  0  0  0
  2  1  1  0  0  0  0
  3  4  2  0  0  0  0
  3  5  1  0  0  0  0
  4  6  1  0  0  0  0
  5  2  2  0  0  0  0
  6 14  1  0  0  0  0
  6  1  2  0  0  0  0
  8  7  1  1  0  0  0
  9 11  1  0  0  0  0
 11 12  2  0  0  0  0
 12  8  1  0  0  0  0
 12 10  1  0  0  0  0
 13 15  2  0  0  0  0
 13 11  1  0  0  0  0
 14  8  1  0  0  0  0
 15 14  1  0  0  0  0
 16  5  1  0  0  0  0
 17 16  1  6  0  0  0
 17 19  1  0  0  0  0
 17 18  1  0  0  0  0
 19 18  1  0  0  0  0
 19 20  1  1  0  0  0
 21 23  2  0  0  0  0
 23 20  1  0  0  0  0
 23 22  1  0  0  0  0
 24 25  1  0  0  0  0
 24 22  1  0  0  0  0
 25 27  1  1  0  0  0
 25 30  1  0  0  0  0
 26 25  1  0  0  0  0
 30 28  1  0  0  0  0
 30 29  1  1  0  0  0
 31 30  1  0  0  0  0
 31 32  1  0  0  0  0
 33 40  1  0  0  0  0
 34 39  1  0  0  0  0
 35 38  1  0  0  0  0
 36 35  2  0  0  0  0
 37 38  2  0  0  0  0
 39 37  1  0  0  0  0
 40 39  2  0  0  0  0
 40 36  1  0  0  0  0
 41 46  2  0  0  0  0
 42 44  1  0  0  0  0
 42 41  1  0  0  0  0
 43 46  1  0  0  0  0
 44 38  1  6  0  0  0
 44 48  1  0  0  0  0
 46 45  1  0  0  0  0
 47 43  2  0  0  0  0
 48 47  1  0  0  0  0
 48 49  1  1  0  0  0
M  END
>  <MODEL>
9

>  <REMARK>
 VINA RESULT:      -7.3      4.326      9.269
  Name = 
  12 active torsions:
  status: ('A' for Active; 'I' for Inactive)
    1  A    between atoms: C_2  and  C_8
    2  A    between atoms: N_3  and  C_38
    3  A    between atoms: C_8  and  C_41
    4  A    between atoms: C_9  and  C_38
    5  A    between atoms: C_9  and  C_49
    6  A    between atoms: C_15  and  N_27
    7  A    between atoms: C_18  and  C_33
    8  A    between atoms: N_27  and  C_40
    9  A    between atoms: C_28  and  C_49
   10  A    between atoms: C_36  and  C_47
   11  A    between atoms: C_39  and  C_47
   12  A    between atoms: C_43  and  N_44
                            x       y       z     vdW  Elec       q    Type
                         _______ _______ _______ _____ _____    ______ ____

>  <TORSDO>
F 12

$$$$
