=
 OpenBabel11042413323D

 41 45  0  0  1  0  0  0  0  0999 V2000
  189.2490  177.9370  139.1390 C   0  0  1  0  0  3  0  0  0  0  0  0
  191.1280  176.2690  139.5270 N   0  0  0  0  0  0  0  0  0  0  0  0
  187.8090  178.3760  141.2040 C   0  0  0  0  0  0  0  0  0  0  0  0
  190.3590  176.6790  137.3100 C   0  0  0  0  0  0  0  0  0  0  0  0
  186.4700  178.1720  137.6640 N   0  0  0  0  0  0  0  0  0  0  0  0
  191.2390  176.0800  138.2720 N   0  0  0  0  0  0  0  0  0  0  0  0
  188.8000  177.8970  141.9740 C   0  0  0  0  0  3  0  0  0  0  0  0
  189.9280  177.1510  141.3900 C   0  0  0  0  0  3  0  0  0  0  0  0
  186.7070  178.2530  139.0750 C   0  0  0  0  0  3  0  0  0  0  0  0
  188.6940  178.3190  136.6630 C   0  0  0  0  0  3  0  0  0  0  0  0
  189.3750  177.5240  137.6910 C   0  0  0  0  0  0  0  0  0  0  0  0
  187.8710  178.1850  139.7340 C   0  0  0  0  0  0  0  0  0  0  0  0
  190.1010  177.0990  140.0670 C   0  0  0  0  0  0  0  0  0  0  0  0
  190.5910  176.3490  135.8690 C   0  0  0  0  0  1  0  0  0  0  0  0
  187.4030  178.6170  136.6670 C   0  0  0  0  0  3  0  0  0  0  0  0
  184.1460  178.2910  138.4300 C   0  0  0  0  0  0  0  0  0  0  0  0
  184.8830  175.8670  135.7270 C   0  0  0  0  0  2  0  0  0  0  0  0
  185.0600  177.9950  137.3010 C   0  0  2  0  0  3  0  0  0  0  0  0
  183.5700  176.0880  137.9430 N   0  0  0  0  0  0  0  0  0  0  0  0
  185.7650  175.4940  136.9120 C   0  0  0  0  0  2  0  0  0  0  0  0
  184.6730  176.5310  137.0760 C   0  0  0  0  0  0  0  0  0  0  0  0
  183.3780  177.1860  138.7600 O   0  0  0  0  0  0  0  0  0  0  0  0
  184.0360  179.4630  139.0370 C   0  0  0  0  0  2  0  0  0  0  0  0
  182.3510  175.9610  137.1470 C   0  0  0  0  0  2  0  0  0  0  0  0
  181.3390  175.0830  137.8650 C   0  0  0  0  0  2  0  0  0  0  0  0
  181.5510  173.6240  137.5040 C   0  0  0  0  0  2  0  0  0  0  0  0
  181.9520  173.5150  136.0460 C   0  0  0  0  0  2  0  0  0  0  0  0
  183.1500  171.5330  136.9530 C   0  0  0  0  0  1  0  0  0  0  0  0
  183.1760  172.6310  135.9050 C   0  0  0  0  0  2  0  0  0  0  0  0
  186.7110  179.0410  141.7710 O   0  0  0  0  0  0  0  0  0  0  0  0
  185.5830  178.3750  142.3280 C   0  0  0  0  0  2  0  0  0  0  0  0
  185.9110  177.8300  143.7120 C   0  0  0  0  0  2  0  0  0  0  0  0
  185.5530  178.8010  144.7380 N   0  0  0  0  0  2  0  0  0  0  0  0
  185.9220  178.6630  146.1140 C   0  0  0  0  0  0  0  0  0  0  0  0
  185.6430  179.5850  146.9240 O   0  0  0  0  0  0  0  0  0  0  0  0
  186.6010  177.4290  146.6150 C   0  0  0  0  0  2  0  0  0  0  0  0
  188.5500  178.0570  147.9550 C   0  0  0  0  0  2  0  0  0  0  0  0
  188.0700  177.6610  146.7780 C   0  0  0  0  0  0  0  0  0  0  0  0
  189.0160  177.3630  145.6550 C   0  0  0  0  0  2  0  0  0  0  0  0
  191.4340  177.0440  145.3170 C   0  0  0  0  0  2  0  0  0  0  0  0
  190.4080  177.1430  146.1610 C   0  0  0  0  0  3  0  0  0  0  0  0
  1 11  1  6  0  0  0
  1 12  1  0  0  0  0
  1 13  1  0  0  0  0
  2 13  1  0  0  0  0
  3 30  1  0  0  0  0
  3  7  2  0  0  0  0
  4 11  2  0  0  0  0
  4  6  1  0  0  0  0
  5  9  1  0  0  0  0
  6  2  2  0  0  0  0
  8  7  1  0  0  0  0
  9 12  2  0  0  0  0
 10 15  2  0  0  0  0
 10 11  1  0  0  0  0
 12  3  1  0  0  0  0
 13  8  2  0  0  0  0
 14  4  1  0  0  0  0
 15  5  1  0  0  0  0
 16 22  1  0  0  0  0
 16 23  2  0  0  0  0
 17 20  1  0  0  0  0
 17 21  1  0  0  0  0
 18  5  1  1  0  0  0
 18 16  1  0  0  0  0
 19 22  1  0  0  0  0
 20 21  1  0  0  0  0
 21 18  1  0  0  0  0
 21 19  1  0  0  0  0
 24 25  1  0  0  0  0
 24 19  1  0  0  0  0
 26 25  1  0  0  0  0
 27 26  1  0  0  0  0
 29 27  1  0  0  0  0
 29 28  1  0  0  0  0
 30 31  1  0  0  0  0
 31 32  1  0  0  0  0
 32 33  1  0  0  0  0
 33 34  1  0  0  0  0
 34 36  1  0  0  0  0
 34 35  2  0  0  0  0
 36 38  1  0  0  0  0
 38 37  2  0  0  0  0
 39 41  1  0  0  0  0
 39 38  1  0  0  0  0
 40 41  2  0  0  0  0
M  END
>  <MODEL>
1

>  <REMARK>
 VINA RESULT:      -7.5      0.000      0.000
  Name = 
  14 active torsions:
  status: ('A' for Active; 'I' for Inactive)
    1  A    between atoms: C_6  and  N_15
    2  A    between atoms: C_7  and  O_16
    3  A    between atoms: N_8  and  C_13
    4  A    between atoms: C_10  and  O_16
    5  A    between atoms: C_10  and  C_27
    6  A    between atoms: C_13  and  C_32
    7  A    between atoms: N_14  and  C_27
    8  A    between atoms: C_17  and  C_20
    9  A    between atoms: C_17  and  C_23
   10  A    between atoms: C_20  and  C_22
   11  A    between atoms: C_21  and  C_32
   12  A    between atoms: C_21  and  C_33
   13  A    between atoms: C_23  and  C_40
   14  A    between atoms: C_33  and  C_39
                            x       y       z     vdW  Elec       q    Type
                         _______ _______ _______ _____ _____    ______ ____

>  <TORSDO>
F 14

$$$$
=
 OpenBabel11042413323D

 41 45  0  0  1  0  0  0  0  0999 V2000
  188.7080  176.7800  137.0610 C   0  0  0  0  0  0  0  0  0  0  0  0
  189.1470  177.2110  134.5940 N   0  0  0  0  0  2  0  0  0  0  0  0
  186.8410  178.2190  138.0480 C   0  0  0  0  0  0  0  0  0  0  0  0
  190.8420  176.2040  135.9330 C   0  0  0  0  0  0  0  0  0  0  0  0
  190.0180  177.2750  139.8880 N   0  0  0  0  0  0  0  0  0  0  0  0
  190.2950  176.6640  134.6880 N   0  0  0  0  0  0  0  0  0  0  0  0
  186.3830  178.4440  136.8070 C   0  0  0  0  0  3  0  0  0  0  0  0
  187.1950  178.1150  135.6220 C   0  0  0  0  0  3  0  0  0  0  0  0
  188.7740  177.8010  139.4110 C   0  0  0  0  0  3  0  0  0  0  0  0
  190.6200  175.5570  138.2580 C   0  0  0  0  0  3  0  0  0  0  0  0
  190.1380  176.2890  137.0830 C   0  0  0  0  0  0  0  0  0  0  0  0
  188.1740  177.5920  138.2320 C   0  0  0  0  0  0  0  0  0  0  0  0
  188.3210  177.4070  135.7400 C   0  0  0  0  0  0  0  0  0  0  0  0
  192.2130  175.6040  135.8990 C   0  0  0  0  0  1  0  0  0  0  0  0
  190.5490  175.9960  139.5070 C   0  0  0  0  0  3  0  0  0  0  0  0
  191.9170  177.5440  141.4140 C   0  0  0  0  0  0  0  0  0  0  0  0
  188.5390  177.9970  142.8680 C   0  0  0  0  0  2  0  0  0  0  0  0
  190.5190  177.9270  141.1030 C   0  0  2  0  0  3  0  0  0  0  0  0
  190.8190  176.8810  143.3570 N   0  0  0  0  0  0  0  0  0  0  0  0
  188.5850  176.5920  142.2800 C   0  0  0  0  0  2  0  0  0  0  0  0
  189.8540  177.4140  142.3830 C   0  0  0  0  0  0  0  0  0  0  0  0
  192.0080  176.9370  142.6560 O   0  0  0  0  0  0  0  0  0  0  0  0
  192.9630  177.7730  140.6350 C   0  0  0  0  0  2  0  0  0  0  0  0
  190.9600  177.8250  144.4640 C   0  0  0  0  0  2  0  0  0  0  0  0
  191.5770  177.1390  145.6710 C   0  0  0  0  0  2  0  0  0  0  0  0
  190.5000  176.5030  146.5300 C   0  0  0  0  0  2  0  0  0  0  0  0
  189.3320  177.4600  146.6700 C   0  0  0  0  0  2  0  0  0  0  0  0
  188.2840  178.1270  148.8250 C   0  0  0  0  0  1  0  0  0  0  0  0
  188.4250  177.0160  147.8010 C   0  0  0  0  0  2  0  0  0  0  0  0
  186.0860  178.5810  139.1750 O   0  0  0  0  0  0  0  0  0  0  0  0
  184.8010  179.1880  139.1040 C   0  0  0  0  0  2  0  0  0  0  0  0
  183.7050  178.1560  139.3360 C   0  0  0  0  0  2  0  0  0  0  0  0
  182.6100  178.7410  140.1010 N   0  0  0  0  0  2  0  0  0  0  0  0
  182.5220  178.6660  141.5270 C   0  0  0  0  0  0  0  0  0  0  0  0
  181.5860  179.2650  142.1190 O   0  0  0  0  0  0  0  0  0  0  0  0
  183.4970  177.8630  142.3250 C   0  0  0  0  0  2  0  0  0  0  0  0
  185.2680  179.5290  142.5990 C   0  0  0  0  0  2  0  0  0  0  0  0
  184.3500  178.7530  143.1720 C   0  0  0  0  0  0  0  0  0  0  0  0
  184.1170  178.8480  144.6490 C   0  0  0  0  0  2  0  0  0  0  0  0
  185.4700  178.8800  146.7060 C   0  0  0  0  0  2  0  0  0  0  0  0
  185.3710  178.5610  145.4160 C   0  0  0  0  0  3  0  0  0  0  0  0
  1 11  2  0  0  0  0
  1 12  1  0  0  0  0
  2  6  1  0  0  0  0
  2 13  1  0  0  0  0
  3 12  1  0  0  0  0
  3 30  1  0  0  0  0
  4 11  1  0  0  0  0
  6  4  2  0  0  0  0
  7  3  2  0  0  0  0
  8 13  2  0  0  0  0
  8  7  1  0  0  0  0
  9  5  1  0  0  0  0
 10 15  2  0  0  0  0
 11 10  1  0  0  0  0
 12  9  2  0  0  0  0
 13  1  1  0  0  0  0
 14  4  1  0  0  0  0
 15  5  1  0  0  0  0
 16 22  1  0  0  0  0
 18  5  1  6  0  0  0
 18 16  1  0  0  0  0
 18 21  1  0  0  0  0
 19 24  1  0  0  0  0
 20 21  1  0  0  0  0
 20 17  1  0  0  0  0
 21 17  1  0  0  0  0
 21 19  1  0  0  0  0
 22 19  1  0  0  0  0
 23 16  2  0  0  0  0
 24 25  1  0  0  0  0
 25 26  1  0  0  0  0
 26 27  1  0  0  0  0
 27 29  1  0  0  0  0
 29 28  1  0  0  0  0
 31 30  1  0  0  0  0
 31 32  1  0  0  0  0
 32 33  1  0  0  0  0
 33 34  1  0  0  0  0
 34 35  2  0  0  0  0
 34 36  1  0  0  0  0
 36 38  1  0  0  0  0
 37 38  2  0  0  0  0
 38 39  1  0  0  0  0
 39 41  1  0  0  0  0
 41 40  2  0  0  0  0
M  END
>  <MODEL>
2

>  <REMARK>
 VINA RESULT:      -7.3      2.992      7.250
  Name = 
  14 active torsions:
  status: ('A' for Active; 'I' for Inactive)
    1  A    between atoms: C_6  and  N_15
    2  A    between atoms: C_7  and  O_16
    3  A    between atoms: N_8  and  C_13
    4  A    between atoms: C_10  and  O_16
    5  A    between atoms: C_10  and  C_27
    6  A    between atoms: C_13  and  C_32
    7  A    between atoms: N_14  and  C_27
    8  A    between atoms: C_17  and  C_20
    9  A    between atoms: C_17  and  C_23
   10  A    between atoms: C_20  and  C_22
   11  A    between atoms: C_21  and  C_32
   12  A    between atoms: C_21  and  C_33
   13  A    between atoms: C_23  and  C_40
   14  A    between atoms: C_33  and  C_39
                            x       y       z     vdW  Elec       q    Type
                         _______ _______ _______ _____ _____    ______ ____

>  <TORSDO>
F 14

$$$$
=
 OpenBabel11042413323D

 41 45  0  0  1  0  0  0  0  0999 V2000
  188.7490  177.9500  139.4330 C   0  0  1  0  0  3  0  0  0  0  0  0
  190.5880  176.3140  140.0720 N   0  0  0  0  0  0  0  0  0  0  0  0
  187.1980  178.5730  141.3660 C   0  0  0  0  0  0  0  0  0  0  0  0
  189.9500  176.5330  137.7860 C   0  0  0  0  0  0  0  0  0  0  0  0
  186.0610  178.0670  137.7860 N   0  0  0  0  0  0  0  0  0  0  0  0
  190.7690  176.0170  138.8460 N   0  0  0  0  0  0  0  0  0  0  0  0
  188.1390  178.1580  142.2300 C   0  0  0  0  0  3  0  0  0  0  0  0
  189.2910  177.3600  141.7780 C   0  0  0  0  0  3  0  0  0  0  0  0
  186.2180  178.2690  139.1960 C   0  0  0  0  0  3  0  0  0  0  0  0
  188.3400  178.1170  136.9060 C   0  0  0  0  0  3  0  0  0  0  0  0
  188.9530  177.4120  138.0350 C   0  0  0  0  0  0  0  0  0  0  0  0
  187.3420  178.2550  139.9240 C   0  0  0  0  0  0  0  0  0  0  0  0
  189.5390  177.1920  140.4770 C   0  0  0  0  0  0  0  0  0  0  0  0
  190.2610  176.0780  136.3950 C   0  0  0  0  0  1  0  0  0  0  0  0
  187.0530  178.4190  136.8090 C   0  0  0  0  0  3  0  0  0  0  0  0
  183.6980  178.2500  138.4080 C   0  0  0  0  0  0  0  0  0  0  0  0
  184.5690  175.6200  135.9490 C   0  0  0  0  0  2  0  0  0  0  0  0
  184.6720  177.8650  137.3590 C   0  0  2  0  0  3  0  0  0  0  0  0
  183.1360  176.0170  138.0630 N   0  0  0  0  0  0  0  0  0  0  0  0
  185.3820  175.3390  137.2070 C   0  0  0  0  0  2  0  0  0  0  0  0
  184.2890  176.3880  137.2280 C   0  0  0  0  0  0  0  0  0  0  0  0
  182.9060  177.1760  138.7800 O   0  0  0  0  0  0  0  0  0  0  0  0
  183.5620  179.4660  138.9140 C   0  0  0  0  0  2  0  0  0  0  0  0
  181.9630  175.8300  137.2120 C   0  0  0  0  0  2  0  0  0  0  0  0
  180.6900  176.0680  138.0070 C   0  0  0  0  0  2  0  0  0  0  0  0
  180.6100  175.1120  139.1840 C   0  0  0  0  0  2  0  0  0  0  0  0
  179.6990  175.6930  140.2480 C   0  0  0  0  0  2  0  0  0  0  0  0
  180.3920  177.8630  141.2440 C   0  0  0  0  0  1  0  0  0  0  0  0
  179.6310  177.2010  140.1110 C   0  0  0  0  0  2  0  0  0  0  0  0
  186.0750  179.2890  141.8080 O   0  0  0  0  0  0  0  0  0  0  0  0
  185.0550  178.7330  142.6310 C   0  0  0  0  0  2  0  0  0  0  0  0
  184.5910  179.7460  143.6700 C   0  0  0  0  0  2  0  0  0  0  0  0
  184.0960  179.0640  144.8590 N   0  0  0  0  0  2  0  0  0  0  0  0
  184.9210  178.7530  145.9860 C   0  0  0  0  0  0  0  0  0  0  0  0
  184.4000  178.2340  147.0080 O   0  0  0  0  0  0  0  0  0  0  0  0
  186.3940  179.0000  145.9620 C   0  0  0  0  0  2  0  0  0  0  0  0
  186.7810  176.7670  145.0380 C   0  0  0  0  0  2  0  0  0  0  0  0
  187.1490  177.7090  145.9050 C   0  0  0  0  0  0  0  0  0  0  0  0
  188.3690  177.5040  146.7490 C   0  0  0  0  0  2  0  0  0  0  0  0
  190.2710  178.0520  145.2840 C   0  0  0  0  0  2  0  0  0  0  0  0
  189.5510  177.1230  145.9110 C   0  0  0  0  0  3  0  0  0  0  0  0
  1 11  1  6  0  0  0
  1 12  1  0  0  0  0
  1 13  1  0  0  0  0
  2 13  1  0  0  0  0
  3 30  1  0  0  0  0
  3  7  2  0  0  0  0
  4 11  2  0  0  0  0
  4  6  1  0  0  0  0
  5  9  1  0  0  0  0
  6  2  2  0  0  0  0
  8  7  1  0  0  0  0
  9 12  2  0  0  0  0
 10 11  1  0  0  0  0
 12  3  1  0  0  0  0
 13  8  2  0  0  0  0
 14  4  1  0  0  0  0
 15 10  2  0  0  0  0
 15  5  1  0  0  0  0
 16 22  1  0  0  0  0
 16 23  2  0  0  0  0
 17 20  1  0  0  0  0
 17 21  1  0  0  0  0
 18  5  1  1  0  0  0
 18 16  1  0  0  0  0
 19 22  1  0  0  0  0
 20 21  1  0  0  0  0
 21 18  1  0  0  0  0
 21 19  1  0  0  0  0
 24 25  1  0  0  0  0
 24 19  1  0  0  0  0
 25 26  1  0  0  0  0
 26 27  1  0  0  0  0
 29 27  1  0  0  0  0
 29 28  1  0  0  0  0
 30 31  1  0  0  0  0
 31 32  1  0  0  0  0
 32 33  1  0  0  0  0
 33 34  1  0  0  0  0
 34 35  2  0  0  0  0
 36 34  1  0  0  0  0
 37 38  2  0  0  0  0
 38 36  1  0  0  0  0
 38 39  1  0  0  0  0
 40 41  2  0  0  0  0
 41 39  1  0  0  0  0
M  END
>  <MODEL>
3

>  <REMARK>
 VINA RESULT:      -7.2      1.319      2.184
  Name = 
  14 active torsions:
  status: ('A' for Active; 'I' for Inactive)
    1  A    between atoms: C_6  and  N_15
    2  A    between atoms: C_7  and  O_16
    3  A    between atoms: N_8  and  C_13
    4  A    between atoms: C_10  and  O_16
    5  A    between atoms: C_10  and  C_27
    6  A    between atoms: C_13  and  C_32
    7  A    between atoms: N_14  and  C_27
    8  A    between atoms: C_17  and  C_20
    9  A    between atoms: C_17  and  C_23
   10  A    between atoms: C_20  and  C_22
   11  A    between atoms: C_21  and  C_32
   12  A    between atoms: C_21  and  C_33
   13  A    between atoms: C_23  and  C_40
   14  A    between atoms: C_33  and  C_39
                            x       y       z     vdW  Elec       q    Type
                         _______ _______ _______ _____ _____    ______ ____

>  <TORSDO>
F 14

$$$$
=
 OpenBabel11042413323D

 41 45  0  0  1  0  0  0  0  0999 V2000
  189.1470  177.1270  142.0070 C   0  0  1  0  0  3  0  0  0  0  0  0
  191.6490  177.4490  142.3220 N   0  0  0  0  0  0  0  0  0  0  0  0
  188.2620  178.0010  139.7750 C   0  0  0  0  0  0  0  0  0  0  0  0
  190.2540  177.1390  144.2290 C   0  0  0  0  0  0  0  0  0  0  0  0
  186.3970  178.2540  143.0650 N   0  0  0  0  0  0  0  0  0  0  0  0
  191.5250  177.2940  143.5810 N   0  0  0  0  0  0  0  0  0  0  0  0
  189.5110  177.9600  139.2850 C   0  0  0  0  0  3  0  0  0  0  0  0
  190.6750  177.7930  140.1730 C   0  0  0  0  0  3  0  0  0  0  0  0
  186.8990  178.3240  141.7250 C   0  0  0  0  0  3  0  0  0  0  0  0
  187.8770  176.6680  144.1890 C   0  0  0  0  0  3  0  0  0  0  0  0
  189.1050  177.1060  143.5180 C   0  0  0  0  0  0  0  0  0  0  0  0
  188.0450  177.8350  141.2340 C   0  0  0  0  0  0  0  0  0  0  0  0
  190.5130  177.4820  141.4610 C   0  0  0  0  0  0  0  0  0  0  0  0
  190.2560  176.9920  145.7180 C   0  0  0  0  0  1  0  0  0  0  0  0
  186.6710  177.1730  143.9700 C   0  0  0  0  0  3  0  0  0  0  0  0
  184.7740  179.0410  144.7240 C   0  0  0  0  0  0  0  0  0  0  0  0
  183.6910  179.0990  141.1810 C   0  0  0  0  0  2  0  0  0  0  0  0
  185.2530  179.1360  143.3240 C   0  0  2  0  0  3  0  0  0  0  0  0
  182.8530  178.4600  143.5420 N   0  0  0  0  0  0  0  0  0  0  0  0
  184.0600  177.6570  141.5090 C   0  0  0  0  0  2  0  0  0  0  0  0
  183.9720  178.6890  142.6150 C   0  0  0  0  0  0  0  0  0  0  0  0
  183.4530  178.6260  144.7760 O   0  0  0  0  0  0  0  0  0  0  0  0
  185.4870  179.3400  145.7980 C   0  0  0  0  0  2  0  0  0  0  0  0
  181.8890  179.5520  143.4130 C   0  0  0  0  0  2  0  0  0  0  0  0
  180.4790  179.0470  143.6720 C   0  0  0  0  0  2  0  0  0  0  0  0
  179.5090  179.6430  142.6690 C   0  0  0  0  0  2  0  0  0  0  0  0
  180.0790  179.5100  141.2700 C   0  0  0  0  0  2  0  0  0  0  0  0
  180.4980  177.1840  140.4950 C   0  0  0  0  0  1  0  0  0  0  0  0
  179.4780  178.3050  140.5740 C   0  0  0  0  0  2  0  0  0  0  0  0
  187.1610  178.2110  138.9310 O   0  0  0  0  0  0  0  0  0  0  0  0
  187.2650  178.3880  137.5220 C   0  0  0  0  0  2  0  0  0  0  0  0
  186.1270  177.6750  136.8050 C   0  0  0  0  0  2  0  0  0  0  0  0
  185.2950  176.9560  137.7610 N   0  0  0  0  0  2  0  0  0  0  0  0
  183.8830  176.7850  137.6010 C   0  0  0  0  0  0  0  0  0  0  0  0
  183.2480  176.0820  138.4300 O   0  0  0  0  0  0  0  0  0  0  0  0
  183.1410  177.4520  136.4880 C   0  0  0  0  0  2  0  0  0  0  0  0
  180.7380  177.8800  136.6710 C   0  0  0  0  0  2  0  0  0  0  0  0
  181.9770  178.2280  137.0170 C   0  0  0  0  0  0  0  0  0  0  0  0
  182.1860  179.3340  138.0060 C   0  0  0  0  0  2  0  0  0  0  0  0
  181.4140  181.6700  138.1170 C   0  0  0  0  0  2  0  0  0  0  0  0
  181.1330  180.3910  137.8700 C   0  0  0  0  0  3  0  0  0  0  0  0
  1 12  1  1  0  0  0
  1 11  1  0  0  0  0
  2  6  2  0  0  0  0
  3 12  1  0  0  0  0
  4 14  1  0  0  0  0
  5 15  1  0  0  0  0
  6  4  1  0  0  0  0
  7  3  2  0  0  0  0
  7  8  1  0  0  0  0
  8 13  2  0  0  0  0
  9  5  1  0  0  0  0
 11 10  1  0  0  0  0
 11  4  2  0  0  0  0
 12  9  2  0  0  0  0
 13  1  1  0  0  0  0
 13  2  1  0  0  0  0
 15 10  2  0  0  0  0
 16 22  1  0  0  0  0
 16 23  2  0  0  0  0
 17 20  1  0  0  0  0
 17 21  1  0  0  0  0
 18  5  1  1  0  0  0
 18 16  1  0  0  0  0
 19 22  1  0  0  0  0
 20 21  1  0  0  0  0
 21 18  1  0  0  0  0
 21 19  1  0  0  0  0
 24 19  1  0  0  0  0
 24 25  1  0  0  0  0
 26 25  1  0  0  0  0
 27 26  1  0  0  0  0
 28 29  1  0  0  0  0
 29 27  1  0  0  0  0
 30  3  1  0  0  0  0
 31 30  1  0  0  0  0
 32 31  1  0  0  0  0
 32 33  1  0  0  0  0
 34 33  1  0  0  0  0
 34 35  2  0  0  0  0
 36 38  1  0  0  0  0
 36 34  1  0  0  0  0
 37 38  2  0  0  0  0
 38 39  1  0  0  0  0
 41 39  1  0  0  0  0
 41 40  2  0  0  0  0
M  END
>  <MODEL>
4

>  <REMARK>
 VINA RESULT:      -7.1      2.581      7.407
  Name = 
  14 active torsions:
  status: ('A' for Active; 'I' for Inactive)
    1  A    between atoms: C_6  and  N_15
    2  A    between atoms: C_7  and  O_16
    3  A    between atoms: N_8  and  C_13
    4  A    between atoms: C_10  and  O_16
    5  A    between atoms: C_10  and  C_27
    6  A    between atoms: C_13  and  C_32
    7  A    between atoms: N_14  and  C_27
    8  A    between atoms: C_17  and  C_20
    9  A    between atoms: C_17  and  C_23
   10  A    between atoms: C_20  and  C_22
   11  A    between atoms: C_21  and  C_32
   12  A    between atoms: C_21  and  C_33
   13  A    between atoms: C_23  and  C_40
   14  A    between atoms: C_33  and  C_39
                            x       y       z     vdW  Elec       q    Type
                         _______ _______ _______ _____ _____    ______ ____

>  <TORSDO>
F 14

$$$$
=
 OpenBabel11042413323D

 41 45  0  0  1  0  0  0  0  0999 V2000
  189.1370  177.1340  141.8250 C   0  0  1  0  0  3  0  0  0  0  0  0
  191.6440  177.3910  142.1620 N   0  0  0  0  0  0  0  0  0  0  0  0
  188.2780  178.1330  139.6360 C   0  0  0  0  0  0  0  0  0  0  0  0
  190.2360  177.0170  144.0480 C   0  0  0  0  0  0  0  0  0  0  0  0
  186.4060  178.2640  142.9290 N   0  0  0  0  0  0  0  0  0  0  0  0
  191.5120  177.1780  143.4120 N   0  0  0  0  0  0  0  0  0  0  0  0
  189.5280  178.0920  139.1480 C   0  0  0  0  0  3  0  0  0  0  0  0
  190.6850  177.8590  140.0300 C   0  0  0  0  0  3  0  0  0  0  0  0
  186.9150  178.3890  141.5950 C   0  0  0  0  0  3  0  0  0  0  0  0
  187.8500  176.5950  143.9780 C   0  0  0  0  0  3  0  0  0  0  0  0
  189.0890  177.0410  143.3330 C   0  0  0  0  0  0  0  0  0  0  0  0
  188.0520  177.9020  141.0840 C   0  0  0  0  0  0  0  0  0  0  0  0
  190.5120  177.4890  141.3010 C   0  0  0  0  0  0  0  0  0  0  0  0
  190.2300  176.7980  145.5280 C   0  0  0  0  0  1  0  0  0  0  0  0
  186.6560  177.1350  143.7810 C   0  0  0  0  0  3  0  0  0  0  0  0
  184.8480  179.0640  144.6430 C   0  0  0  0  0  0  0  0  0  0  0  0
  183.6420  179.1280  141.1400 C   0  0  0  0  0  2  0  0  0  0  0  0
  185.2790  179.1550  143.2270 C   0  0  2  0  0  3  0  0  0  0  0  0
  182.8820  178.4980  143.5300 N   0  0  0  0  0  0  0  0  0  0  0  0
  184.0110  177.6840  141.4560 C   0  0  0  0  0  2  0  0  0  0  0  0
  183.9700  178.7170  142.5640 C   0  0  0  0  0  0  0  0  0  0  0  0
  183.5270  178.6590  144.7420 O   0  0  0  0  0  0  0  0  0  0  0  0
  185.6010  179.3580  145.6910 C   0  0  0  0  0  2  0  0  0  0  0  0
  181.9240  179.5970  143.4340 C   0  0  0  0  0  2  0  0  0  0  0  0
  180.5250  179.0580  143.1830 C   0  0  0  0  0  2  0  0  0  0  0  0
  179.5960  180.1750  142.7430 C   0  0  0  0  0  2  0  0  0  0  0  0
  179.1470  179.9290  141.3160 C   0  0  0  0  0  2  0  0  0  0  0  0
  179.6100  180.4200  138.9220 C   0  0  0  0  0  1  0  0  0  0  0  0
  180.1090  180.5870  140.3450 C   0  0  0  0  0  2  0  0  0  0  0  0
  187.1840  178.4070  138.8000 O   0  0  0  0  0  0  0  0  0  0  0  0
  187.1130  178.0100  137.4340 C   0  0  0  0  0  2  0  0  0  0  0  0
  186.4110  176.6650  137.3010 C   0  0  0  0  0  2  0  0  0  0  0  0
  185.4310  176.7070  136.2240 N   0  0  0  0  0  2  0  0  0  0  0  0
  184.0910  177.1770  136.4010 C   0  0  0  0  0  0  0  0  0  0  0  0
  183.3280  177.2570  135.4020 O   0  0  0  0  0  0  0  0  0  0  0  0
  183.5670  177.5410  137.7520 C   0  0  0  0  0  2  0  0  0  0  0  0
  182.8750  175.2930  138.4280 C   0  0  0  0  0  2  0  0  0  0  0  0
  182.5310  176.5590  138.2020 C   0  0  0  0  0  0  0  0  0  0  0  0
  181.1320  177.0090  138.4910 C   0  0  0  0  0  2  0  0  0  0  0  0
  179.7370  176.3240  140.4010 C   0  0  0  0  0  2  0  0  0  0  0  0
  180.8310  176.9420  139.9560 C   0  0  0  0  0  3  0  0  0  0  0  0
  1 12  1  1  0  0  0
  1 11  1  0  0  0  0
  2  6  2  0  0  0  0
  3 12  1  0  0  0  0
  4 14  1  0  0  0  0
  5 15  1  0  0  0  0
  6  4  1  0  0  0  0
  7  3  2  0  0  0  0
  7  8  1  0  0  0  0
  8 13  2  0  0  0  0
  9  5  1  0  0  0  0
 11 10  1  0  0  0  0
 11  4  2  0  0  0  0
 12  9  2  0  0  0  0
 13  1  1  0  0  0  0
 13  2  1  0  0  0  0
 15 10  2  0  0  0  0
 16 22  1  0  0  0  0
 16 23  2  0  0  0  0
 17 20  1  0  0  0  0
 17 21  1  0  0  0  0
 18  5  1  1  0  0  0
 18 16  1  0  0  0  0
 19 22  1  0  0  0  0
 20 21  1  0  0  0  0
 21 18  1  0  0  0  0
 21 19  1  0  0  0  0
 24 19  1  0  0  0  0
 25 24  1  0  0  0  0
 26 25  1  0  0  0  0
 27 26  1  0  0  0  0
 28 29  1  0  0  0  0
 29 27  1  0  0  0  0
 30  3  1  0  0  0  0
 31 30  1  0  0  0  0
 32 31  1  0  0  0  0
 33 34  1  0  0  0  0
 33 32  1  0  0  0  0
 34 36  1  0  0  0  0
 35 34  2  0  0  0  0
 36 38  1  0  0  0  0
 38 37  2  0  0  0  0
 38 39  1  0  0  0  0
 39 41  1  0  0  0  0
 41 40  2  0  0  0  0
M  END
>  <MODEL>
5

>  <REMARK>
 VINA RESULT:      -7.0      2.630      7.402
  Name = 
  14 active torsions:
  status: ('A' for Active; 'I' for Inactive)
    1  A    between atoms: C_6  and  N_15
    2  A    between atoms: C_7  and  O_16
    3  A    between atoms: N_8  and  C_13
    4  A    between atoms: C_10  and  O_16
    5  A    between atoms: C_10  and  C_27
    6  A    between atoms: C_13  and  C_32
    7  A    between atoms: N_14  and  C_27
    8  A    between atoms: C_17  and  C_20
    9  A    between atoms: C_17  and  C_23
   10  A    between atoms: C_20  and  C_22
   11  A    between atoms: C_21  and  C_32
   12  A    between atoms: C_21  and  C_33
   13  A    between atoms: C_23  and  C_40
   14  A    between atoms: C_33  and  C_39
                            x       y       z     vdW  Elec       q    Type
                         _______ _______ _______ _____ _____    ______ ____

>  <TORSDO>
F 14

$$$$
=
 OpenBabel11042413323D

 41 45  0  0  1  0  0  0  0  0999 V2000
  185.0000  175.4550  136.2820 C   0  0  0  0  0  0  0  0  0  0  0  0
  185.4920  172.9630  136.1720 N   0  0  0  0  0  2  0  0  0  0  0  0
  186.7400  176.7980  137.5860 C   0  0  0  0  0  0  0  0  0  0  0  0
  183.2680  173.7390  135.8150 C   0  0  0  0  0  0  0  0  0  0  0  0
  183.0120  177.4830  137.6560 N   0  0  0  0  0  0  0  0  0  0  0  0
  184.2800  172.7220  135.8630 N   0  0  0  0  0  0  0  0  0  0  0  0
  187.6110  175.7900  137.4240 C   0  0  0  0  0  3  0  0  0  0  0  0
  187.1690  174.4650  136.9590 C   0  0  0  0  0  3  0  0  0  0  0  0
  184.4320  177.4110  137.8360 C   0  0  0  0  0  3  0  0  0  0  0  0
  182.5700  176.0590  135.7210 C   0  0  0  0  0  3  0  0  0  0  0  0
  183.5650  175.0360  136.0570 C   0  0  0  0  0  0  0  0  0  0  0  0
  185.3090  176.5850  137.2520 C   0  0  0  0  0  0  0  0  0  0  0  0
  185.9300  174.2800  136.4990 C   0  0  0  0  0  0  0  0  0  0  0  0
  181.8790  173.3090  135.4610 C   0  0  0  0  0  1  0  0  0  0  0  0
  182.3410  177.1540  136.4300 C   0  0  0  0  0  3  0  0  0  0  0  0
  183.2310  179.2650  139.3240 C   0  0  0  0  0  0  0  0  0  0  0  0
  180.5680  176.7570  139.9110 C   0  0  0  0  0  2  0  0  0  0  0  0
  182.3210  178.3040  138.6570 C   0  0  2  0  0  3  0  0  0  0  0  0
  182.4340  178.0530  141.1450 N   0  0  0  0  0  0  0  0  0  0  0  0
  181.8860  175.9970  139.8380 C   0  0  0  0  0  2  0  0  0  0  0  0
  181.8850  177.5110  139.8920 C   0  0  0  0  0  0  0  0  0  0  0  0
  183.2780  179.0490  140.6920 O   0  0  0  0  0  0  0  0  0  0  0  0
  183.8960  180.2350  138.7160 C   0  0  0  0  0  2  0  0  0  0  0  0
  181.3710  178.7320  141.8840 C   0  0  0  0  0  2  0  0  0  0  0  0
  181.6970  178.7670  143.3680 C   0  0  0  0  0  2  0  0  0  0  0  0
  183.1890  178.9510  143.5800 C   0  0  0  0  0  2  0  0  0  0  0  0
  183.4860  179.0050  145.0660 C   0  0  0  0  0  2  0  0  0  0  0  0
  185.6720  178.2530  144.1470 C   0  0  0  0  0  1  0  0  0  0  0  0
  184.9840  178.9590  145.3010 C   0  0  0  0  0  2  0  0  0  0  0  0
  187.1570  178.0440  138.0780 O   0  0  0  0  0  0  0  0  0  0  0  0
  188.5220  178.4050  138.2640 C   0  0  0  0  0  2  0  0  0  0  0  0
  188.8350  178.5810  139.7440 C   0  0  0  0  0  2  0  0  0  0  0  0
  189.6380  177.4660  140.2290 N   0  0  0  0  0  2  0  0  0  0  0  0
  189.6730  177.0630  141.6020 C   0  0  0  0  0  0  0  0  0  0  0  0
  190.3300  176.0390  141.9280 O   0  0  0  0  0  0  0  0  0  0  0  0
  188.9740  177.8510  142.6610 C   0  0  0  0  0  2  0  0  0  0  0  0
  190.7780  178.9170  143.9260 C   0  0  0  0  0  2  0  0  0  0  0  0
  189.8320  177.9800  143.8800 C   0  0  0  0  0  0  0  0  0  0  0  0
  189.5750  177.1280  145.0850 C   0  0  0  0  0  2  0  0  0  0  0  0
  189.0450  177.8210  147.3870 C   0  0  0  0  0  2  0  0  0  0  0  0
  188.7340  177.8500  146.0920 C   0  0  0  0  0  3  0  0  0  0  0  0
  1 13  1  0  0  0  0
  1 12  1  0  0  0  0
  2 13  1  0  0  0  0
  3 30  1  0  0  0  0
  4  6  2  0  0  0  0
  4 11  1  0  0  0  0
  5  9  1  0  0  0  0
  6  2  1  0  0  0  0
  7  3  2  0  0  0  0
  8  7  1  0  0  0  0
 10 11  1  0  0  0  0
 10 15  2  0  0  0  0
 11  1  2  0  0  0  0
 12  3  1  0  0  0  0
 12  9  2  0  0  0  0
 13  8  2  0  0  0  0
 14  4  1  0  0  0  0
 15  5  1  0  0  0  0
 16 22  1  0  0  0  0
 18  5  1  6  0  0  0
 18 16  1  0  0  0  0
 18 21  1  0  0  0  0
 19 24  1  0  0  0  0
 20 21  1  0  0  0  0
 20 17  1  0  0  0  0
 21 17  1  0  0  0  0
 21 19  1  0  0  0  0
 22 19  1  0  0  0  0
 23 16  2  0  0  0  0
 24 25  1  0  0  0  0
 25 26  1  0  0  0  0
 26 27  1  0  0  0  0
 27 29  1  0  0  0  0
 28 29  1  0  0  0  0
 30 31  1  0  0  0  0
 31 32  1  0  0  0  0
 32 33  1  0  0  0  0
 33 34  1  0  0  0  0
 34 35  2  0  0  0  0
 34 36  1  0  0  0  0
 36 38  1  0  0  0  0
 38 37  2  0  0  0  0
 38 39  1  0  0  0  0
 39 41  1  0  0  0  0
 41 40  2  0  0  0  0
M  END
>  <MODEL>
6

>  <REMARK>
 VINA RESULT:      -6.8      2.262      5.921
  Name = 
  14 active torsions:
  status: ('A' for Active; 'I' for Inactive)
    1  A    between atoms: C_6  and  N_15
    2  A    between atoms: C_7  and  O_16
    3  A    between atoms: N_8  and  C_13
    4  A    between atoms: C_10  and  O_16
    5  A    between atoms: C_10  and  C_27
    6  A    between atoms: C_13  and  C_32
    7  A    between atoms: N_14  and  C_27
    8  A    between atoms: C_17  and  C_20
    9  A    between atoms: C_17  and  C_23
   10  A    between atoms: C_20  and  C_22
   11  A    between atoms: C_21  and  C_32
   12  A    between atoms: C_21  and  C_33
   13  A    between atoms: C_23  and  C_40
   14  A    between atoms: C_33  and  C_39
                            x       y       z     vdW  Elec       q    Type
                         _______ _______ _______ _____ _____    ______ ____

>  <TORSDO>
F 14

$$$$
=
 OpenBabel11042413323D

 41 45  0  0  1  0  0  0  0  0999 V2000
  189.2200  177.1370  142.1960 C   0  0  1  0  0  3  0  0  0  0  0  0
  191.7020  177.5120  142.6020 N   0  0  0  0  0  0  0  0  0  0  0  0
  188.4120  177.9310  139.9050 C   0  0  0  0  0  0  0  0  0  0  0  0
  190.2350  177.2340  144.4590 C   0  0  0  0  0  0  0  0  0  0  0  0
  186.4110  178.2470  143.1090 N   0  0  0  0  0  0  0  0  0  0  0  0
  191.5290  177.3920  143.8580 N   0  0  0  0  0  0  0  0  0  0  0  0
  189.6810  177.8980  139.4680 C   0  0  0  0  0  3  0  0  0  0  0  0
  190.8100  177.7770  140.4060 C   0  0  0  0  0  3  0  0  0  0  0  0
  186.9660  178.2870  141.7890 C   0  0  0  0  0  3  0  0  0  0  0  0
  187.8700  176.7190  144.3380 C   0  0  0  0  0  3  0  0  0  0  0  0
  189.1170  177.1600  143.7040 C   0  0  0  0  0  0  0  0  0  0  0  0
  188.1390  177.8040  141.3580 C   0  0  0  0  0  0  0  0  0  0  0  0
  190.6010  177.5000  141.6950 C   0  0  0  0  0  0  0  0  0  0  0  0
  190.1800  177.1300  145.9510 C   0  0  0  0  0  1  0  0  0  0  0  0
  186.6660  177.1970  144.0560 C   0  0  0  0  0  3  0  0  0  0  0  0
  184.7030  179.0450  144.6740 C   0  0  0  0  0  0  0  0  0  0  0  0
  183.7800  179.0030  141.0870 C   0  0  0  0  0  2  0  0  0  0  0  0
  185.2440  179.1160  143.2960 C   0  0  2  0  0  3  0  0  0  0  0  0
  182.8460  178.4060  143.4230 N   0  0  0  0  0  0  0  0  0  0  0  0
  184.1560  177.5760  141.4660 C   0  0  0  0  0  2  0  0  0  0  0  0
  184.0030  178.6310  142.5420 C   0  0  0  0  0  0  0  0  0  0  0  0
  183.3880  178.6100  144.6780 O   0  0  0  0  0  0  0  0  0  0  0  0
  185.3630  179.3810  145.7720 C   0  0  0  0  0  2  0  0  0  0  0  0
  181.8730  179.4790  143.2260 C   0  0  0  0  0  2  0  0  0  0  0  0
  180.4670  178.9740  143.5020 C   0  0  0  0  0  2  0  0  0  0  0  0
  179.9020  178.2750  142.2780 C   0  0  0  0  0  2  0  0  0  0  0  0
  180.0410  179.1780  141.0690 C   0  0  0  0  0  2  0  0  0  0  0  0
  180.7100  176.9380  140.2190 C   0  0  0  0  0  1  0  0  0  0  0  0
  180.3160  178.3510  139.8280 C   0  0  0  0  0  2  0  0  0  0  0  0
  187.3430  178.0980  139.0120 O   0  0  0  0  0  0  0  0  0  0  0  0
  187.1960  177.3560  137.8060 C   0  0  0  0  0  2  0  0  0  0  0  0
  185.8500  177.6480  137.1560 C   0  0  0  0  0  2  0  0  0  0  0  0
  184.7750  177.0120  137.9070 N   0  0  0  0  0  2  0  0  0  0  0  0
  184.1520  175.7890  137.5040 C   0  0  0  0  0  0  0  0  0  0  0  0
  183.2850  175.2620  138.2490 O   0  0  0  0  0  0  0  0  0  0  0  0
  184.4850  175.1400  136.1990 C   0  0  0  0  0  2  0  0  0  0  0  0
  186.1960  173.7180  137.2190 C   0  0  0  0  0  2  0  0  0  0  0  0
  185.1360  173.8110  136.4170 C   0  0  0  0  0  0  0  0  0  0  0  0
  184.5500  172.5700  135.8160 C   0  0  0  0  0  2  0  0  0  0  0  0
  182.5170  171.9270  137.0470 C   0  0  0  0  0  2  0  0  0  0  0  0
  183.8230  171.7600  136.8450 C   0  0  0  0  0  3  0  0  0  0  0  0
  1 12  1  6  0  0  0
  1 11  1  0  0  0  0
  2  6  2  0  0  0  0
  3 12  1  0  0  0  0
  4 14  1  0  0  0  0
  5 15  1  0  0  0  0
  6  4  1  0  0  0  0
  7  3  2  0  0  0  0
  7  8  1  0  0  0  0
  8 13  2  0  0  0  0
  9  5  1  0  0  0  0
 11 10  1  0  0  0  0
 11  4  2  0  0  0  0
 12  9  2  0  0  0  0
 13  1  1  0  0  0  0
 13  2  1  0  0  0  0
 15 10  2  0  0  0  0
 16 22  1  0  0  0  0
 16 23  2  0  0  0  0
 17 20  1  0  0  0  0
 17 21  1  0  0  0  0
 18  5  1  1  0  0  0
 18 16  1  0  0  0  0
 19 22  1  0  0  0  0
 20 21  1  0  0  0  0
 21 18  1  0  0  0  0
 21 19  1  0  0  0  0
 24 19  1  0  0  0  0
 24 25  1  0  0  0  0
 26 25  1  0  0  0  0
 27 26  1  0  0  0  0
 29 28  1  0  0  0  0
 29 27  1  0  0  0  0
 30  3  1  0  0  0  0
 31 30  1  0  0  0  0
 32 31  1  0  0  0  0
 32 33  1  0  0  0  0
 34 33  1  0  0  0  0
 34 35  2  0  0  0  0
 36 38  1  0  0  0  0
 36 34  1  0  0  0  0
 38 37  2  0  0  0  0
 39 38  1  0  0  0  0
 39 41  1  0  0  0  0
 41 40  2  0  0  0  0
M  END
>  <MODEL>
7

>  <REMARK>
 VINA RESULT:      -6.8      2.398      7.322
  Name = 
  14 active torsions:
  status: ('A' for Active; 'I' for Inactive)
    1  A    between atoms: C_6  and  N_15
    2  A    between atoms: C_7  and  O_16
    3  A    between atoms: N_8  and  C_13
    4  A    between atoms: C_10  and  O_16
    5  A    between atoms: C_10  and  C_27
    6  A    between atoms: C_13  and  C_32
    7  A    between atoms: N_14  and  C_27
    8  A    between atoms: C_17  and  C_20
    9  A    between atoms: C_17  and  C_23
   10  A    between atoms: C_20  and  C_22
   11  A    between atoms: C_21  and  C_32
   12  A    between atoms: C_21  and  C_33
   13  A    between atoms: C_23  and  C_40
   14  A    between atoms: C_33  and  C_39
                            x       y       z     vdW  Elec       q    Type
                         _______ _______ _______ _____ _____    ______ ____

>  <TORSDO>
F 14

$$$$
=
 OpenBabel11042413323D

 41 45  0  0  1  0  0  0  0  0999 V2000
  189.0080  176.5860  137.4910 C   0  0  1  0  0  3  0  0  0  0  0  0
  190.9630  175.7370  138.8770 N   0  0  0  0  0  0  0  0  0  0  0  0
  187.3080  177.9510  138.8240 C   0  0  0  0  0  0  0  0  0  0  0  0
  190.4230  174.6600  136.8220 C   0  0  0  0  0  0  0  0  0  0  0  0
  186.4080  175.5300  136.0500 N   0  0  0  0  0  0  0  0  0  0  0  0
  191.2340  174.8650  137.9880 N   0  0  0  0  0  0  0  0  0  0  0  0
  188.2390  178.1540  139.7690 C   0  0  0  0  0  3  0  0  0  0  0  0
  189.4860  177.3700  139.7930 C   0  0  0  0  0  3  0  0  0  0  0  0
  186.4730  176.4540  137.1430 C   0  0  0  0  0  3  0  0  0  0  0  0
  188.7120  175.3630  135.2550 C   0  0  0  0  0  3  0  0  0  0  0  0
  189.3340  175.4240  136.5820 C   0  0  0  0  0  0  0  0  0  0  0  0
  187.5540  176.9450  137.7610 C   0  0  0  0  0  0  0  0  0  0  0  0
  189.8150  176.5760  138.7720 C   0  0  0  0  0  0  0  0  0  0  0  0
  190.8470  173.5830  135.8730 C   0  0  0  0  0  1  0  0  0  0  0  0
  187.4090  175.4270  135.0250 C   0  0  0  0  0  3  0  0  0  0  0  0
  183.9950  175.9390  136.1660 C   0  0  0  0  0  0  0  0  0  0  0  0
  185.0990  172.4160  136.4680 C   0  0  0  0  0  2  0  0  0  0  0  0
  185.0680  174.9840  135.8040 C   0  0  2  0  0  3  0  0  0  0  0  0
  183.4600  174.1190  137.5160 N   0  0  0  0  0  0  0  0  0  0  0  0
  185.7780  173.1920  137.5900 C   0  0  0  0  0  2  0  0  0  0  0  0
  184.6930  173.8490  136.7600 C   0  0  0  0  0  0  0  0  0  0  0  0
  183.1640  175.4160  137.1430 O   0  0  0  0  0  0  0  0  0  0  0  0
  183.8140  177.1300  135.6160 C   0  0  0  0  0  2  0  0  0  0  0  0
  182.3790  173.2910  136.9850 C   0  0  0  0  0  2  0  0  0  0  0  0
  181.0750  174.0720  136.9650 C   0  0  0  0  0  2  0  0  0  0  0  0
  180.1400  173.5750  138.0530 C   0  0  0  0  0  2  0  0  0  0  0  0
  179.5350  174.7590  138.7810 C   0  0  0  0  0  2  0  0  0  0  0  0
  180.8520  176.6940  139.6230 C   0  0  0  0  0  1  0  0  0  0  0  0
  180.4780  175.2430  139.8650 C   0  0  0  0  0  2  0  0  0  0  0  0
  186.0990  178.6650  138.8340 O   0  0  0  0  0  0  0  0  0  0  0  0
  184.9800  178.3140  139.6410 C   0  0  0  0  0  2  0  0  0  0  0  0
  185.0340  179.0370  140.9800 C   0  0  0  0  0  2  0  0  0  0  0  0
  183.9810  178.5520  141.8630 N   0  0  0  0  0  2  0  0  0  0  0  0
  183.9960  178.7410  143.2810 C   0  0  0  0  0  0  0  0  0  0  0  0
  183.0100  178.3620  143.9650 O   0  0  0  0  0  0  0  0  0  0  0  0
  185.1750  179.3470  143.9720 C   0  0  0  0  0  2  0  0  0  0  0  0
  185.3090  178.6060  146.3000 C   0  0  0  0  0  2  0  0  0  0  0  0
  185.6940  178.4340  145.0370 C   0  0  0  0  0  0  0  0  0  0  0  0
  186.5700  177.2720  144.6810 C   0  0  0  0  0  2  0  0  0  0  0  0
  188.7800  177.5100  145.7400 C   0  0  0  0  0  2  0  0  0  0  0  0
  188.0150  177.6670  144.6610 C   0  0  0  0  0  3  0  0  0  0  0  0
  1 11  1  1  0  0  0
  1 12  1  0  0  0  0
  1 13  1  0  0  0  0
  3 30  1  0  0  0  0
  3  7  2  0  0  0  0
  4  6  1  0  0  0  0
  5  9  1  0  0  0  0
  6  2  2  0  0  0  0
  7  8  1  0  0  0  0
  9 12  2  0  0  0  0
 10 11  1  0  0  0  0
 11  4  2  0  0  0  0
 12  3  1  0  0  0  0
 13  2  1  0  0  0  0
 13  8  2  0  0  0  0
 14  4  1  0  0  0  0
 15 10  2  0  0  0  0
 15  5  1  0  0  0  0
 16 22  1  0  0  0  0
 17 21  1  0  0  0  0
 17 20  1  0  0  0  0
 18  5  1  1  0  0  0
 18 16  1  0  0  0  0
 18 21  1  0  0  0  0
 21 19  1  0  0  0  0
 21 20  1  0  0  0  0
 22 19  1  0  0  0  0
 23 16  2  0  0  0  0
 24 19  1  0  0  0  0
 25 24  1  0  0  0  0
 25 26  1  0  0  0  0
 26 27  1  0  0  0  0
 27 29  1  0  0  0  0
 28 29  1  0  0  0  0
 30 31  1  0  0  0  0
 31 32  1  0  0  0  0
 32 33  1  0  0  0  0
 33 34  1  0  0  0  0
 34 35  2  0  0  0  0
 34 36  1  0  0  0  0
 36 38  1  0  0  0  0
 38 37  2  0  0  0  0
 39 38  1  0  0  0  0
 41 39  1  0  0  0  0
 41 40  2  0  0  0  0
M  END
>  <MODEL>
8

>  <REMARK>
 VINA RESULT:      -6.8      1.898      3.046
  Name = 
  14 active torsions:
  status: ('A' for Active; 'I' for Inactive)
    1  A    between atoms: C_6  and  N_15
    2  A    between atoms: C_7  and  O_16
    3  A    between atoms: N_8  and  C_13
    4  A    between atoms: C_10  and  O_16
    5  A    between atoms: C_10  and  C_27
    6  A    between atoms: C_13  and  C_32
    7  A    between atoms: N_14  and  C_27
    8  A    between atoms: C_17  and  C_20
    9  A    between atoms: C_17  and  C_23
   10  A    between atoms: C_20  and  C_22
   11  A    between atoms: C_21  and  C_32
   12  A    between atoms: C_21  and  C_33
   13  A    between atoms: C_23  and  C_40
   14  A    between atoms: C_33  and  C_39
                            x       y       z     vdW  Elec       q    Type
                         _______ _______ _______ _____ _____    ______ ____

>  <TORSDO>
F 14

$$$$
=
 OpenBabel11042413323D

 41 45  0  0  1  0  0  0  0  0999 V2000
  189.1800  177.1480  142.1560 C   0  0  1  0  0  3  0  0  0  0  0  0
  191.6560  177.4870  142.6180 N   0  0  0  0  0  0  0  0  0  0  0  0
  188.4200  178.0300  139.8810 C   0  0  0  0  0  0  0  0  0  0  0  0
  190.1540  177.1540  144.4380 C   0  0  0  0  0  0  0  0  0  0  0  0
  186.3640  178.2480  143.0570 N   0  0  0  0  0  0  0  0  0  0  0  0
  191.4600  177.3230  143.8670 N   0  0  0  0  0  0  0  0  0  0  0  0
  189.6960  178.0020  139.4650 C   0  0  0  0  0  3  0  0  0  0  0  0
  190.8070  177.8380  140.4180 C   0  0  0  0  0  3  0  0  0  0  0  0
  186.9430  178.3310  141.7500 C   0  0  0  0  0  3  0  0  0  0  0  0
  187.7870  176.6650  144.2560 C   0  0  0  0  0  3  0  0  0  0  0  0
  189.0490  177.1170  143.6610 C   0  0  0  0  0  0  0  0  0  0  0  0
  188.1190  177.8540  141.3230 C   0  0  0  0  0  0  0  0  0  0  0  0
  190.5720  177.5170  141.6930 C   0  0  0  0  0  0  0  0  0  0  0  0
  190.0710  176.9970  145.9240 C   0  0  0  0  0  1  0  0  0  0  0  0
  186.5930  177.1630  143.9700 C   0  0  0  0  0  3  0  0  0  0  0  0
  184.6740  179.0530  144.6390 C   0  0  0  0  0  0  0  0  0  0  0  0
  183.7120  179.0040  141.0620 C   0  0  0  0  0  2  0  0  0  0  0  0
  185.2000  179.1200  143.2550 C   0  0  2  0  0  3  0  0  0  0  0  0
  182.8020  178.4150  143.4090 N   0  0  0  0  0  0  0  0  0  0  0  0
  184.0900  177.5770  141.4400 C   0  0  0  0  0  2  0  0  0  0  0  0
  183.9500  178.6360  142.5150 C   0  0  0  0  0  0  0  0  0  0  0  0
  183.3580  178.6210  144.6570 O   0  0  0  0  0  0  0  0  0  0  0  0
  185.3460  179.3900  145.7290 C   0  0  0  0  0  2  0  0  0  0  0  0
  181.8290  179.4890  143.2190 C   0  0  0  0  0  2  0  0  0  0  0  0
  180.4280  178.9160  143.0840 C   0  0  0  0  0  2  0  0  0  0  0  0
  180.0190  178.8500  141.6230 C   0  0  0  0  0  2  0  0  0  0  0  0
  180.0880  177.4140  141.1410 C   0  0  0  0  0  2  0  0  0  0  0  0
  181.2780  176.0100  139.4680 C   0  0  0  0  0  1  0  0  0  0  0  0
  180.6420  177.3630  139.7310 C   0  0  0  0  0  2  0  0  0  0  0  0
  187.3680  178.2380  138.9750 O   0  0  0  0  0  0  0  0  0  0  0  0
  187.3880  177.7930  137.6230 C   0  0  0  0  0  2  0  0  0  0  0  0
  187.0480  176.3110  137.5390 C   0  0  0  0  0  2  0  0  0  0  0  0
  187.3550  175.7940  136.2120 N   0  0  0  0  0  2  0  0  0  0  0  0
  188.4420  174.9010  135.9490 C   0  0  0  0  0  0  0  0  0  0  0  0
  188.5920  174.4350  134.7890 O   0  0  0  0  0  0  0  0  0  0  0  0
  189.4230  174.5360  137.0160 C   0  0  0  0  0  2  0  0  0  0  0  0
  190.9420  176.3760  136.4750 C   0  0  0  0  0  2  0  0  0  0  0  0
  190.7820  175.0720  136.6940 C   0  0  0  0  0  0  0  0  0  0  0  0
  191.9780  174.1700  136.7060 C   0  0  0  0  0  2  0  0  0  0  0  0
  194.2460  174.8660  137.3640 C   0  0  0  0  0  2  0  0  0  0  0  0
  192.9860  174.6190  137.7190 C   0  0  0  0  0  3  0  0  0  0  0  0
  1 12  1  6  0  0  0
  1 11  1  0  0  0  0
  2  6  2  0  0  0  0
  3 12  1  0  0  0  0
  4 14  1  0  0  0  0
  5 15  1  0  0  0  0
  6  4  1  0  0  0  0
  7  3  2  0  0  0  0
  7  8  1  0  0  0  0
  8 13  2  0  0  0  0
  9  5  1  0  0  0  0
 11 10  1  0  0  0  0
 11  4  2  0  0  0  0
 12  9  2  0  0  0  0
 13  1  1  0  0  0  0
 13  2  1  0  0  0  0
 15 10  2  0  0  0  0
 16 22  1  0  0  0  0
 16 23  2  0  0  0  0
 17 20  1  0  0  0  0
 17 21  1  0  0  0  0
 18  5  1  1  0  0  0
 18 16  1  0  0  0  0
 19 22  1  0  0  0  0
 20 21  1  0  0  0  0
 21 18  1  0  0  0  0
 21 19  1  0  0  0  0
 24 19  1  0  0  0  0
 25 24  1  0  0  0  0
 26 25  1  0  0  0  0
 27 26  1  0  0  0  0
 28 29  1  0  0  0  0
 29 27  1  0  0  0  0
 30  3  1  0  0  0  0
 31 30  1  0  0  0  0
 32 31  1  0  0  0  0
 33 32  1  0  0  0  0
 34 33  1  0  0  0  0
 34 36  1  0  0  0  0
 35 34  2  0  0  0  0
 37 38  2  0  0  0  0
 38 39  1  0  0  0  0
 38 36  1  0  0  0  0
 39 41  1  0  0  0  0
 40 41  2  0  0  0  0
M  END
>  <MODEL>
9

>  <REMARK>
 VINA RESULT:      -6.6      2.749      7.087
  Name = 
  14 active torsions:
  status: ('A' for Active; 'I' for Inactive)
    1  A    between atoms: C_6  and  N_15
    2  A    between atoms: C_7  and  O_16
    3  A    between atoms: N_8  and  C_13
    4  A    between atoms: C_10  and  O_16
    5  A    between atoms: C_10  and  C_27
    6  A    between atoms: C_13  and  C_32
    7  A    between atoms: N_14  and  C_27
    8  A    between atoms: C_17  and  C_20
    9  A    between atoms: C_17  and  C_23
   10  A    between atoms: C_20  and  C_22
   11  A    between atoms: C_21  and  C_32
   12  A    between atoms: C_21  and  C_33
   13  A    between atoms: C_23  and  C_40
   14  A    between atoms: C_33  and  C_39
                            x       y       z     vdW  Elec       q    Type
                         _______ _______ _______ _____ _____    ______ ____

>  <TORSDO>
F 14

$$$$
