=
 OpenBabel11042410153D

 65 69  0  0  1  0  0  0  0  0999 V2000
  187.0120  178.0200  141.9740 C   0  0  0  0  0  0  0  0  0  0  0  0
  188.0490  176.3640  143.6010 C   0  0  0  0  0  1  0  0  0  0  0  0
  185.9400  178.4720  142.6180 C   0  0  0  0  0  0  0  0  0  0  0  0
  187.9960  177.0520  142.2830 C   0  0  0  0  0  0  0  0  0  0  0  0
  187.0040  178.6530  140.7590 C   0  0  0  0  0  0  0  0  0  0  0  0
  187.9540  178.3320  139.8040 C   0  0  0  0  0  0  0  0  0  0  0  0
  185.2460  179.3970  141.7640 N   0  0  0  0  0  0  0  0  0  0  0  0
  188.9260  176.7430  141.3220 N   0  0  0  0  0  0  0  0  0  0  0  0
  189.1870  178.0570  137.9980 C   0  0  0  0  0  0  0  0  0  0  0  0
  189.6630  177.1580  139.0630 C   0  0  0  0  0  0  0  0  0  0  0  0
  185.8770  179.5080  140.6620 N   0  0  0  0  0  0  0  0  0  0  0  0
  188.1410  178.7730  138.4260 C   0  0  0  0  0  3  0  0  0  0  0  0
  188.8910  177.3740  140.1090 C   0  0  0  0  0  0  0  0  0  0  0  0
  189.7310  178.1250  136.6130 C   0  0  0  0  0  2  0  0  0  0  0  0
  188.8820  177.3690  135.7060 N   0  0  0  0  0  2  0  0  0  0  0  0
  189.5840  176.1340  135.4090 C   0  0  0  0  0  2  0  0  0  0  0  0
  188.6330  175.0390  135.3220 N   0  0  0  0  0  2  0  0  0  0  0  0
  188.6860  174.3310  136.5890 C   0  0  0  0  0  2  0  0  0  0  0  0
  187.9970  172.0950  136.0010 O   0  0  0  0  0  1  0  0  0  0  0  0
  187.5930  173.2670  136.6500 C   0  0  2  0  0  3  0  0  0  0  0  0
  186.3330  173.7560  136.0880 N   0  0  0  0  0  2  0  0  0  0  0  0
  185.6030  174.5450  137.0800 C   0  0  0  0  0  2  0  0  0  0  0  0
  184.0890  174.4040  136.9010 C   0  0  1  0  0  3  0  0  0  0  0  0
  182.7430  172.5970  135.7310 N   0  0  0  0  0  0  0  0  0  0  0  0
  182.3650  171.2070  135.5390 C   0  0  0  0  0  1  0  0  0  0  0  0
  182.2040  173.5410  134.9230 O   0  0  0  0  0  1  0  0  0  0  0  0
  184.1010  172.1020  137.5670 O   0  0  0  0  0  0  0  0  0  0  0  0
  183.6650  172.9710  136.7630 C   0  0  0  0  0  0  0  0  0  0  0  0
  183.3010  175.1050  138.0000 C   0  0  0  0  0  2  0  0  0  0  0  0
  183.5800  177.0390  136.6450 O   0  0  0  0  0  1  0  0  0  0  0  0
  182.6670  176.3730  137.4620 C   0  0  0  0  0  2  0  0  0  0  0  0
  185.4070  177.9660  143.9210 C   0  0  2  0  0  3  0  0  0  0  0  0
  184.0150  178.1160  143.9420 O   0  0  0  0  0  0  0  0  0  0  0  0
  183.7780  179.2240  144.7600 C   0  0  0  0  0  1  0  0  0  0  0  0
  186.0260  178.7440  145.0750 C   0  0  0  0  0  2  0  0  0  0  0  0
  186.2400  178.6480  147.5790 C   0  0  0  0  0  2  0  0  0  0  0  0
  188.4490  177.7430  147.4070 C   0  0  1  0  0  3  0  0  0  0  0  0
  187.6790  178.9260  147.9430 C   0  0  0  0  0  2  0  0  0  0  0  0
  186.2840  177.8510  146.2830 C   0  0  2  0  0  3  0  0  0  0  0  0
  187.6890  177.2740  146.1800 C   0  0  0  0  0  2  0  0  0  0  0  0
  189.7510  178.1420  147.0470 O   0  0  0  0  0  0  0  0  0  0  0  0
  189.8150  175.8230  146.9760 O   0  0  0  0  0  1  0  0  0  0  0  0
  190.5740  177.0000  146.8570 C   0  0  2  0  0  0  0  0  0  0  0  0
  191.7370  177.9050  148.7080 O   0  0  0  0  0  0  0  0  0  0  0  0
  191.6410  176.9760  147.9220 C   0  0  0  0  0  0  0  0  0  0  0  0
  192.7780  175.5950  148.0770 S   0  0  0  0  0  1  0  0  0  0  0  0
  191.5010  175.8740  144.8130 O   0  0  0  0  0  0  0  0  0  0  0  0
  191.2550  177.0510  145.5110 C   0  0  0  0  0  0  0  0  0  0  0  0
  191.5540  178.1550  144.9840 O   0  0  0  0  0  1  0  0  0  0  0  0
  190.7670  176.1590  138.9680 C   0  0  0  0  0  2  0  0  0  0  0  0
  192.3650  176.9560  139.2890 S   0  0  0  0  0  0  0  0  0  0  0  0
  192.9190  176.6180  137.5950 C   0  0  0  0  0  2  0  0  0  0  0  0
  192.8060  173.8060  137.2770 O   0  0  0  0  0  0  0  0  0  0  0  0
  193.9460  174.3320  137.4200 C   0  0  0  0  0  0  0  0  0  0  0  0
  194.0730  175.7390  137.6260 N   0  0  0  0  0  2  0  0  0  0  0  0
  195.1820  173.4780  137.3690 C   0  0  2  0  0  3  0  0  0  0  0  0
  197.5170  173.5530  137.8550 C   0  0  0  0  0  2  0  0  0  0  0  0
  196.4040  174.2930  137.2500 N   0  0  0  0  0  0  0  0  0  0  0  0
  198.0120  175.3020  135.6980 C   0  0  0  0  0  2  0  0  0  0  0  0
  198.8040  174.3640  137.7370 C   0  0  0  0  0  2  0  0  0  0  0  0
  199.1190  174.5810  136.3250 N   0  0  0  0  0  2  0  0  0  0  0  0
  196.7280  174.4850  135.8300 C   0  0  0  0  0  2  0  0  0  0  0  0
  194.6020  172.8950  135.1240 O   0  0  0  0  0  0  0  0  0  0  0  0
  195.4120  171.1360  136.4010 N   0  0  0  0  0  1  0  0  0  0  0  0
  195.0420  172.5000  136.2340 C   0  0  0  0  0  0  0  0  0  0  0  0
  1  4  2  0  0  0  0
  1  3  1  0  0  0  0
  3 32  1  0  0  0  0
  4  2  1  0  0  0  0
  5  1  1  0  0  0  0
  6 13  1  0  0  0  0
  6  5  1  0  0  0  0
  7  3  2  0  0  0  0
  8  4  1  0  0  0  0
  9 12  1  0  0  0  0
  9 10  2  0  0  0  0
 10 13  1  0  0  0  0
 11  5  2  0  0  0  0
 11  7  1  0  0  0  0
 12  6  2  0  0  0  0
 13  8  2  0  0  0  0
 14  9  1  0  0  0  0
 15 14  1  0  0  0  0
 16 15  1  0  0  0  0
 17 16  1  0  0  0  0
 17 18  1  0  0  0  0
 18 20  1  0  0  0  0
 20 19  1  6  0  0  0
 21 20  1  0  0  0  0
 21 22  1  0  0  0  0
 23 22  1  1  0  0  0
 23 29  1  0  0  0  0
 24 28  1  0  0  0  0
 25 24  1  0  0  0  0
 26 24  1  0  0  0  0
 28 23  1  0  0  0  0
 28 27  2  0  0  0  0
 30 31  1  0  0  0  0
 31 29  1  0  0  0  0
 32 33  1  0  0  0  0
 32 35  1  1  0  0  0
 33 34  1  0  0  0  0
 36 38  1  0  0  0  0
 37 41  1  6  0  0  0
 37 38  1  0  0  0  0
 39 35  1  6  0  0  0
 39 36  1  0  0  0  0
 40 39  1  0  0  0  0
 40 37  1  0  0  0  0
 43 42  1  1  0  0  0
 43 41  1  0  0  0  0
 43 45  1  0  0  0  0
 45 46  1  0  0  0  0
 45 44  2  0  0  0  0
 47 48  2  0  0  0  0
 48 43  1  0  0  0  0
 49 48  1  0  0  0  0
 50 10  1  0  0  0  0
 50 51  1  0  0  0  0
 52 55  1  0  0  0  0
 52 51  1  0  0  0  0
 53 54  2  0  0  0  0
 54 55  1  0  0  0  0
 56 65  1  6  0  0  0
 56 54  1  0  0  0  0
 58 56  1  0  0  0  0
 58 57  1  0  0  0  0
 59 62  1  0  0  0  0
 59 61  1  0  0  0  0
 60 57  1  0  0  0  0
 61 60  1  0  0  0  0
 62 58  1  0  0  0  0
 63 65  2  0  0  0  0
 65 64  1  0  0  0  0
M  END
>  <MODEL>
1

>  <REMARK>
 VINA RESULT:      -6.2      0.000      0.000
  Name = 
  27 active torsions:
  status: ('A' for Active; 'I' for Inactive)
    1  A    between atoms: C_4  and  C_12
    2  A    between atoms: N_9  and  C_25
    3  A    between atoms: N_9  and  C_52
    4  A    between atoms: C_11  and  C_36
    5  A    between atoms: C_11  and  S_62
    6  A    between atoms: C_12  and  C_23
    7  A    between atoms: C_12  and  O_42
    8  A    between atoms: C_14  and  N_21
    9  A    between atoms: C_14  and  C_33
   10  A    between atoms: C_14  and  C_40
   11  A    between atoms: C_15  and  C_54
   12  A    between atoms: C_15  and  C_65
   13  A    between atoms: C_19  and  C_27
   14  A    between atoms: C_19  and  C_31
   15  A    between atoms: C_19  and  O_43
   16  A    between atoms: C_23  and  C_55
   17  A    between atoms: C_25  and  C_29
   18  A    between atoms: C_34  and  O_43
   19  A    between atoms: C_48  and  N_49
   20  A    between atoms: C_48  and  C_53
   21  A    between atoms: N_49  and  C_59
   22  A    between atoms: C_52  and  N_61
   23  A    between atoms: C_53  and  N_61
   24  A    between atoms: C_54  and  C_57
   25  A    between atoms: C_54  and  C_59
   26  A    between atoms: C_60  and  S_62
   27  A    between atoms: C_60  and  N_63
                            x       y       z     vdW  Elec       q    Type
                         _______ _______ _______ _____ _____    ______ ____

>  <TORSDO>
F 27

$$$$
=
 OpenBabel11042410153D

 65 69  0  0  1  0  0  0  0  0999 V2000
  187.5730  177.7740  142.0450 C   0  0  0  0  0  0  0  0  0  0  0  0
  188.7470  176.1150  143.5730 C   0  0  0  0  0  1  0  0  0  0  0  0
  186.5650  178.2290  142.7830 C   0  0  0  0  0  0  0  0  0  0  0  0
  188.5780  176.8040  142.2650 C   0  0  0  0  0  0  0  0  0  0  0  0
  187.4570  178.4080  140.8360 C   0  0  0  0  0  0  0  0  0  0  0  0
  188.3170  178.0850  139.8000 C   0  0  0  0  0  0  0  0  0  0  0  0
  185.7990  179.1560  141.9960 N   0  0  0  0  0  0  0  0  0  0  0  0
  189.4170  176.4920  141.2240 N   0  0  0  0  0  0  0  0  0  0  0  0
  189.3820  177.8070  137.8900 C   0  0  0  0  0  0  0  0  0  0  0  0
  189.9490  176.9060  138.9080 C   0  0  0  0  0  0  0  0  0  0  0  0
  186.3280  179.2660  140.8410 N   0  0  0  0  0  0  0  0  0  0  0  0
  188.3800  178.5250  138.4110 C   0  0  0  0  0  3  0  0  0  0  0  0
  189.2750  177.1240  140.0190 C   0  0  0  0  0  0  0  0  0  0  0  0
  189.7990  177.8740  136.4620 C   0  0  0  0  0  2  0  0  0  0  0  0
  188.6310  177.8270  135.5980 N   0  0  0  0  0  2  0  0  0  0  0  0
  188.2780  176.4280  135.4470 C   0  0  0  0  0  2  0  0  0  0  0  0
  186.8380  176.2710  135.5510 N   0  0  0  0  0  2  0  0  0  0  0  0
  186.5780  175.5640  136.7930 C   0  0  0  0  0  2  0  0  0  0  0  0
  184.6360  174.3090  136.1060 O   0  0  0  0  0  1  0  0  0  0  0  0
  185.0800  175.3210  136.9640 C   0  0  2  0  0  3  0  0  0  0  0  0
  184.3080  176.5470  136.7530 N   0  0  0  0  0  2  0  0  0  0  0  0
  184.1790  177.2910  138.0060 C   0  0  0  0  0  2  0  0  0  0  0  0
  182.7290  177.7140  138.2570 C   0  0  1  0  0  3  0  0  0  0  0  0
  181.7370  178.1090  140.5610 N   0  0  0  0  0  0  0  0  0  0  0  0
  181.6320  178.8710  141.7940 C   0  0  0  0  0  1  0  0  0  0  0  0
  181.0110  176.9720  140.4280 O   0  0  0  0  0  1  0  0  0  0  0  0
  183.1970  179.6500  139.5870 O   0  0  0  0  0  0  0  0  0  0  0  0
  182.5880  178.5500  139.4950 C   0  0  0  0  0  0  0  0  0  0  0  0
  182.1030  178.4050  137.0530 C   0  0  0  0  0  2  0  0  0  0  0  0
  180.1280  179.4840  136.2880 O   0  0  0  0  0  1  0  0  0  0  0  0
  180.6370  178.6890  137.3150 C   0  0  0  0  0  2  0  0  0  0  0  0
  186.1490  177.7240  144.1290 C   0  0  2  0  0  3  0  0  0  0  0  0
  184.7900  177.9940  144.3260 O   0  0  0  0  0  0  0  0  0  0  0  0
  184.7520  179.2330  144.9730 C   0  0  0  0  0  1  0  0  0  0  0  0
  186.9720  178.4020  145.2170 C   0  0  0  0  0  2  0  0  0  0  0  0
  186.9840  178.3710  147.7310 C   0  0  0  0  0  2  0  0  0  0  0  0
  189.1410  177.3350  147.7610 C   0  0  1  0  0  3  0  0  0  0  0  0
  188.4030  178.5770  148.2030 C   0  0  0  0  0  2  0  0  0  0  0  0
  187.0810  177.5330  146.4640 C   0  0  2  0  0  3  0  0  0  0  0  0
  188.4530  176.8740  146.4890 C   0  0  0  0  0  2  0  0  0  0  0  0
  190.4890  177.6480  147.4970 O   0  0  0  0  0  0  0  0  0  0  0  0
  190.4010  175.3320  147.3770 O   0  0  0  0  0  1  0  0  0  0  0  0
  191.2080  176.4650  147.1790 C   0  0  2  0  0  0  0  0  0  0  0  0
  193.2100  175.4510  147.9290 O   0  0  0  0  0  0  0  0  0  0  0  0
  192.4030  176.3530  148.0920 C   0  0  0  0  0  0  0  0  0  0  0  0
  192.6820  177.5320  149.4170 S   0  0  0  0  0  1  0  0  0  0  0  0
  192.0190  175.3300  145.0910 O   0  0  0  0  0  0  0  0  0  0  0  0
  191.7080  176.5110  145.7550 C   0  0  0  0  0  0  0  0  0  0  0  0
  191.7930  177.6060  145.1390 O   0  0  0  0  0  1  0  0  0  0  0  0
  191.0370  175.9040  138.7130 C   0  0  0  0  0  2  0  0  0  0  0  0
  192.6320  176.7430  138.5000 S   0  0  0  0  0  0  0  0  0  0  0  0
  193.1060  175.5900  137.1810 C   0  0  0  0  0  2  0  0  0  0  0  0
  194.8360  173.7410  138.4490 O   0  0  0  0  0  0  0  0  0  0  0  0
  195.3580  174.5930  137.6770 C   0  0  0  0  0  0  0  0  0  0  0  0
  194.5500  175.5810  137.0370 N   0  0  0  0  0  2  0  0  0  0  0  0
  196.8400  174.5720  137.4220 C   0  0  2  0  0  3  0  0  0  0  0  0
  196.8000  172.1940  137.6260 C   0  0  0  0  0  2  0  0  0  0  0  0
  197.2670  173.3090  136.7930 N   0  0  0  0  0  0  0  0  0  0  0  0
  197.0330  171.8500  134.8360 C   0  0  0  0  0  2  0  0  0  0  0  0
  197.2140  170.8680  136.9950 C   0  0  0  0  0  2  0  0  0  0  0  0
  196.5950  170.7380  135.6770 N   0  0  0  0  0  2  0  0  0  0  0  0
  196.6200  173.1730  135.4800 C   0  0  0  0  0  2  0  0  0  0  0  0
  198.8100  174.8830  138.7410 O   0  0  0  0  0  0  0  0  0  0  0  0
  196.8210  175.0070  139.9290 N   0  0  0  0  0  1  0  0  0  0  0  0
  197.5530  174.8240  138.7230 C   0  0  0  0  0  0  0  0  0  0  0  0
  1  4  2  0  0  0  0
  1  3  1  0  0  0  0
  3 32  1  0  0  0  0
  4  2  1  0  0  0  0
  5 11  2  0  0  0  0
  5  1  1  0  0  0  0
  6 13  1  0  0  0  0
  6  5  1  0  0  0  0
  7  3  2  0  0  0  0
  8  4  1  0  0  0  0
  9 12  1  0  0  0  0
  9 10  2  0  0  0  0
 10 13  1  0  0  0  0
 11  7  1  0  0  0  0
 12  6  2  0  0  0  0
 13  8  2  0  0  0  0
 14  9  1  0  0  0  0
 15 14  1  0  0  0  0
 16 17  1  0  0  0  0
 16 15  1  0  0  0  0
 17 18  1  0  0  0  0
 18 20  1  0  0  0  0
 20 19  1  6  0  0  0
 21 20  1  0  0  0  0
 21 22  1  0  0  0  0
 22 23  1  0  0  0  0
 23 29  1  6  0  0  0
 23 28  1  0  0  0  0
 24 25  1  0  0  0  0
 26 24  1  0  0  0  0
 28 27  2  0  0  0  0
 28 24  1  0  0  0  0
 29 31  1  0  0  0  0
 30 31  1  0  0  0  0
 32 33  1  0  0  0  0
 32 35  1  1  0  0  0
 33 34  1  0  0  0  0
 36 38  1  0  0  0  0
 37 41  1  6  0  0  0
 37 38  1  0  0  0  0
 39 35  1  6  0  0  0
 39 40  1  0  0  0  0
 39 36  1  0  0  0  0
 40 37  1  0  0  0  0
 43 42  1  1  0  0  0
 43 41  1  0  0  0  0
 43 45  1  0  0  0  0
 44 45  2  0  0  0  0
 45 46  1  0  0  0  0
 47 48  2  0  0  0  0
 48 43  1  0  0  0  0
 49 48  1  0  0  0  0
 50 10  1  0  0  0  0
 51 50  1  0  0  0  0
 52 51  1  0  0  0  0
 54 53  2  0  0  0  0
 55 52  1  0  0  0  0
 55 54  1  0  0  0  0
 56 54  1  1  0  0  0
 56 65  1  0  0  0  0
 58 56  1  0  0  0  0
 58 57  1  0  0  0  0
 59 62  1  0  0  0  0
 59 61  1  0  0  0  0
 60 57  1  0  0  0  0
 61 60  1  0  0  0  0
 62 58  1  0  0  0  0
 65 63  2  0  0  0  0
 65 64  1  0  0  0  0
M  END
>  <MODEL>
2

>  <REMARK>
 VINA RESULT:      -6.1      1.965      3.038
  Name = 
  27 active torsions:
  status: ('A' for Active; 'I' for Inactive)
    1  A    between atoms: C_4  and  C_12
    2  A    between atoms: N_9  and  C_25
    3  A    between atoms: N_9  and  C_52
    4  A    between atoms: C_11  and  C_36
    5  A    between atoms: C_11  and  S_62
    6  A    between atoms: C_12  and  C_23
    7  A    between atoms: C_12  and  O_42
    8  A    between atoms: C_14  and  N_21
    9  A    between atoms: C_14  and  C_33
   10  A    between atoms: C_14  and  C_40
   11  A    between atoms: C_15  and  C_54
   12  A    between atoms: C_15  and  C_65
   13  A    between atoms: C_19  and  C_27
   14  A    between atoms: C_19  and  C_31
   15  A    between atoms: C_19  and  O_43
   16  A    between atoms: C_23  and  C_55
   17  A    between atoms: C_25  and  C_29
   18  A    between atoms: C_34  and  O_43
   19  A    between atoms: C_48  and  N_49
   20  A    between atoms: C_48  and  C_53
   21  A    between atoms: N_49  and  C_59
   22  A    between atoms: C_52  and  N_61
   23  A    between atoms: C_53  and  N_61
   24  A    between atoms: C_54  and  C_57
   25  A    between atoms: C_54  and  C_59
   26  A    between atoms: C_60  and  S_62
   27  A    between atoms: C_60  and  N_63
                            x       y       z     vdW  Elec       q    Type
                         _______ _______ _______ _____ _____    ______ ____

>  <TORSDO>
F 27

$$$$
=
 OpenBabel11042410153D

 65 69  0  0  1  0  0  0  0  0999 V2000
  187.6880  177.8180  142.6710 C   0  0  0  0  0  0  0  0  0  0  0  0
  186.0230  179.5430  141.8260 C   0  0  0  0  0  1  0  0  0  0  0  0
  187.4040  177.7060  143.9650 C   0  0  0  0  0  0  0  0  0  0  0  0
  187.1810  178.6300  141.6300 C   0  0  0  0  0  0  0  0  0  0  0  0
  188.7420  176.9690  142.4530 C   0  0  0  0  0  0  0  0  0  0  0  0
  189.3410  176.9150  141.2050 C   0  0  0  0  0  0  0  0  0  0  0  0
  188.3220  176.7740  144.5600 N   0  0  0  0  0  0  0  0  0  0  0  0
  187.7920  178.5670  140.4020 N   0  0  0  0  0  0  0  0  0  0  0  0
  190.6280  176.5970  139.4450 C   0  0  0  0  0  0  0  0  0  0  0  0
  189.5850  177.5860  139.1220 C   0  0  0  0  0  0  0  0  0  0  0  0
  189.1150  176.3330  143.6640 N   0  0  0  0  0  0  0  0  0  0  0  0
  190.5030  176.1840  140.7110 C   0  0  0  0  0  3  0  0  0  0  0  0
  188.8530  177.7260  140.2090 C   0  0  0  0  0  0  0  0  0  0  0  0
  191.7190  176.1580  138.5310 C   0  0  0  0  0  2  0  0  0  0  0  0
  191.3330  174.9350  137.8450 N   0  0  0  0  0  2  0  0  0  0  0  0
  192.1910  174.8200  136.6800 C   0  0  0  0  0  2  0  0  0  0  0  0
  192.9620  176.0410  136.5170 N   0  0  0  0  0  2  0  0  0  0  0  0
  193.9220  175.7960  135.4560 C   0  0  0  0  0  2  0  0  0  0  0  0
  195.5620  177.5440  135.1830 O   0  0  0  0  0  1  0  0  0  0  0  0
  195.2950  176.3410  135.8440 C   0  0  2  0  0  3  0  0  0  0  0  0
  196.3540  175.3660  135.5820 N   0  0  0  0  0  2  0  0  0  0  0  0
  196.0100  174.0680  136.1640 C   0  0  0  0  0  2  0  0  0  0  0  0
  197.0610  173.6160  137.1810 C   0  0  1  0  0  3  0  0  0  0  0  0
  197.5220  174.9210  139.3100 N   0  0  0  0  0  0  0  0  0  0  0  0
  197.1560  175.3560  140.6470 C   0  0  0  0  0  1  0  0  0  0  0  0
  198.6650  175.3940  138.7570 O   0  0  0  0  0  1  0  0  0  0  0  0
  195.6770  173.4990  139.1330 O   0  0  0  0  0  0  0  0  0  0  0  0
  196.6960  174.0010  138.5840 C   0  0  0  0  0  0  0  0  0  0  0  0
  197.3700  172.1280  137.0830 C   0  0  0  0  0  2  0  0  0  0  0  0
  198.7100  170.5420  135.9260 O   0  0  0  0  0  1  0  0  0  0  0  0
  198.2290  171.8490  135.8650 C   0  0  0  0  0  2  0  0  0  0  0  0
  186.4400  178.5480  144.7390 C   0  0  2  0  0  3  0  0  0  0  0  0
  186.8200  178.5690  146.0860 O   0  0  0  0  0  0  0  0  0  0  0  0
  185.7870  177.9190  146.7680 C   0  0  0  0  0  1  0  0  0  0  0  0
  185.0320  177.9820  144.6100 C   0  0  0  0  0  2  0  0  0  0  0  0
  182.6160  178.6700  144.7280 C   0  0  0  0  0  2  0  0  0  0  0  0
  182.5220  178.9380  142.3510 C   0  0  1  0  0  3  0  0  0  0  0  0
  181.9150  178.1570  143.4920 C   0  0  0  0  0  2  0  0  0  0  0  0
  184.0150  179.0680  144.2790 C   0  0  2  0  0  3  0  0  0  0  0  0
  183.9500  179.2410  142.7680 C   0  0  0  0  0  2  0  0  0  0  0  0
  182.5150  178.1560  141.1790 O   0  0  0  0  0  0  0  0  0  0  0  0
  180.9080  179.7790  140.7720 O   0  0  0  0  0  1  0  0  0  0  0  0
  181.6870  178.7620  140.1970 C   0  0  2  0  0  0  0  0  0  0  0  0
  181.1940  176.8270  138.9270 O   0  0  0  0  0  0  0  0  0  0  0  0
  180.7530  177.7230  139.6290 C   0  0  0  0  0  0  0  0  0  0  0  0
  178.9920  177.7600  139.9750 S   0  0  0  0  0  1  0  0  0  0  0  0
  183.9000  179.4040  139.1990 O   0  0  0  0  0  1  0  0  0  0  0  0
  182.5200  179.3140  139.0640 C   0  0  0  0  0  0  0  0  0  0  0  0
  181.9830  179.6410  137.9730 O   0  0  0  0  0  0  0  0  0  0  0  0
  189.4170  178.3270  137.8380 C   0  0  0  0  0  2  0  0  0  0  0  0
  187.8730  177.8300  137.0240 S   0  0  0  0  0  0  0  0  0  0  0  0
  188.7910  177.1420  135.6180 C   0  0  0  0  0  2  0  0  0  0  0  0
  186.5270  175.7800  134.5990 O   0  0  0  0  0  0  0  0  0  0  0  0
  187.4840  175.0770  135.0320 C   0  0  0  0  0  0  0  0  0  0  0  0
  188.6390  175.6980  135.5970 N   0  0  0  0  0  2  0  0  0  0  0  0
  187.4160  173.5780  134.9510 C   0  0  2  0  0  3  0  0  0  0  0  0
  185.6530  174.1330  136.4610 C   0  0  0  0  0  2  0  0  0  0  0  0
  186.2490  173.0450  135.6760 N   0  0  0  0  0  0  0  0  0  0  0  0
  184.0080  172.0740  135.4550 C   0  0  0  0  0  2  0  0  0  0  0  0
  184.4310  173.6180  137.2150 C   0  0  0  0  0  2  0  0  0  0  0  0
  183.4280  173.1470  136.2610 N   0  0  0  0  0  2  0  0  0  0  0  0
  185.2350  172.5980  134.7110 C   0  0  0  0  0  2  0  0  0  0  0  0
  189.5790  172.6010  134.6590 O   0  0  0  0  0  0  0  0  0  0  0  0
  188.9640  172.9450  136.8700 N   0  0  0  0  0  1  0  0  0  0  0  0
  188.7100  173.0120  135.4700 C   0  0  0  0  0  0  0  0  0  0  0  0
  1  3  2  0  0  0  0
  3  7  1  0  0  0  0
  3 32  1  0  0  0  0
  4  2  1  0  0  0  0
  4  1  1  0  0  0  0
  5  1  1  0  0  0  0
  5 11  1  0  0  0  0
  6  5  2  0  0  0  0
  8  4  2  0  0  0  0
  9 12  2  0  0  0  0
 10  9  1  0  0  0  0
 10 13  2  0  0  0  0
 11  7  2  0  0  0  0
 12  6  1  0  0  0  0
 13  8  1  0  0  0  0
 13  6  1  0  0  0  0
 14  9  1  0  0  0  0
 15 14  1  0  0  0  0
 16 15  1  0  0  0  0
 17 16  1  0  0  0  0
 18 20  1  0  0  0  0
 18 17  1  0  0  0  0
 20 19  1  6  0  0  0
 21 20  1  0  0  0  0
 21 22  1  0  0  0  0
 23 22  1  6  0  0  0
 23 28  1  0  0  0  0
 24 25  1  0  0  0  0
 26 24  1  0  0  0  0
 28 27  2  0  0  0  0
 28 24  1  0  0  0  0
 29 23  1  0  0  0  0
 31 30  1  0  0  0  0
 31 29  1  0  0  0  0
 32 35  1  1  0  0  0
 32 33  1  0  0  0  0
 33 34  1  0  0  0  0
 37 41  1  6  0  0  0
 37 40  1  0  0  0  0
 37 38  1  0  0  0  0
 38 36  1  0  0  0  0
 39 35  1  6  0  0  0
 39 36  1  0  0  0  0
 40 39  1  0  0  0  0
 43 42  1  1  0  0  0
 43 41  1  0  0  0  0
 44 45  2  0  0  0  0
 45 46  1  0  0  0  0
 45 43  1  0  0  0  0
 48 47  1  0  0  0  0
 48 43  1  0  0  0  0
 49 48  2  0  0  0  0
 50 10  1  0  0  0  0
 51 50  1  0  0  0  0
 52 51  1  0  0  0  0
 53 54  2  0  0  0  0
 54 55  1  0  0  0  0
 55 52  1  0  0  0  0
 56 54  1  1  0  0  0
 56 65  1  0  0  0  0
 56 58  1  0  0  0  0
 57 60  1  0  0  0  0
 58 57  1  0  0  0  0
 59 61  1  0  0  0  0
 61 60  1  0  0  0  0
 62 59  1  0  0  0  0
 62 58  1  0  0  0  0
 63 65  2  0  0  0  0
 65 64  1  0  0  0  0
M  END
>  <MODEL>
3

>  <REMARK>
 VINA RESULT:      -5.6      3.061      9.271
  Name = 
  27 active torsions:
  status: ('A' for Active; 'I' for Inactive)
    1  A    between atoms: C_4  and  C_12
    2  A    between atoms: N_9  and  C_25
    3  A    between atoms: N_9  and  C_52
    4  A    between atoms: C_11  and  C_36
    5  A    between atoms: C_11  and  S_62
    6  A    between atoms: C_12  and  C_23
    7  A    between atoms: C_12  and  O_42
    8  A    between atoms: C_14  and  N_21
    9  A    between atoms: C_14  and  C_33
   10  A    between atoms: C_14  and  C_40
   11  A    between atoms: C_15  and  C_54
   12  A    between atoms: C_15  and  C_65
   13  A    between atoms: C_19  and  C_27
   14  A    between atoms: C_19  and  C_31
   15  A    between atoms: C_19  and  O_43
   16  A    between atoms: C_23  and  C_55
   17  A    between atoms: C_25  and  C_29
   18  A    between atoms: C_34  and  O_43
   19  A    between atoms: C_48  and  N_49
   20  A    between atoms: C_48  and  C_53
   21  A    between atoms: N_49  and  C_59
   22  A    between atoms: C_52  and  N_61
   23  A    between atoms: C_53  and  N_61
   24  A    between atoms: C_54  and  C_57
   25  A    between atoms: C_54  and  C_59
   26  A    between atoms: C_60  and  S_62
   27  A    between atoms: C_60  and  N_63
                            x       y       z     vdW  Elec       q    Type
                         _______ _______ _______ _____ _____    ______ ____

>  <TORSDO>
F 27

$$$$
=
 OpenBabel11042410153D

 65 69  0  0  1  0  0  0  0  0999 V2000
  189.6480  177.4020  142.9750 C   0  0  0  0  0  0  0  0  0  0  0  0
  191.8000  178.1710  144.0900 C   0  0  0  0  0  1  0  0  0  0  0  0
  188.7820  177.3150  143.9790 C   0  0  0  0  0  0  0  0  0  0  0  0
  191.0240  177.7230  142.9020 C   0  0  0  0  0  0  0  0  0  0  0  0
  188.9560  177.0140  141.8580 C   0  0  0  0  0  0  0  0  0  0  0  0
  189.6060  176.9100  140.6400 C   0  0  0  0  0  0  0  0  0  0  0  0
  187.5250  176.8430  143.4640 N   0  0  0  0  0  0  0  0  0  0  0  0
  191.6540  177.6080  141.6870 N   0  0  0  0  0  0  0  0  0  0  0  0
  190.2580  176.5190  138.5710 C   0  0  0  0  0  0  0  0  0  0  0  0
  191.4040  176.9860  139.3710 C   0  0  0  0  0  0  0  0  0  0  0  0
  187.6250  176.6680  142.2050 N   0  0  0  0  0  0  0  0  0  0  0  0
  189.1570  176.4570  139.3280 C   0  0  0  0  0  3  0  0  0  0  0  0
  190.9480  177.2040  140.5880 C   0  0  0  0  0  0  0  0  0  0  0  0
  190.3100  176.1030  137.1420 C   0  0  0  0  0  2  0  0  0  0  0  0
  189.8580  174.7270  137.0070 N   0  0  0  0  0  2  0  0  0  0  0  0
  188.7780  174.7360  136.0370 C   0  0  0  0  0  2  0  0  0  0  0  0
  187.5420  174.3190  136.6750 N   0  0  0  0  0  2  0  0  0  0  0  0
  187.6310  172.8830  136.8740 C   0  0  0  0  0  2  0  0  0  0  0  0
  186.6540  172.9020  134.6690 O   0  0  0  0  0  1  0  0  0  0  0  0
  186.7800  172.1490  135.8410 C   0  0  2  0  0  3  0  0  0  0  0  0
  185.4610  171.8080  136.3750 N   0  0  0  0  0  2  0  0  0  0  0  0
  184.4210  172.5970  135.7140 C   0  0  0  0  0  2  0  0  0  0  0  0
  183.4140  173.1520  136.7240 C   0  0  1  0  0  3  0  0  0  0  0  0
  182.8550  175.5230  137.4420 N   0  0  0  0  0  0  0  0  0  0  0  0
  182.5080  176.9010  137.1410 C   0  0  0  0  0  1  0  0  0  0  0  0
  183.0410  175.1610  138.7340 O   0  0  0  0  0  1  0  0  0  0  0  0
  182.7370  174.8730  135.2010 O   0  0  0  0  0  0  0  0  0  0  0  0
  182.9920  174.5530  136.3940 C   0  0  0  0  0  0  0  0  0  0  0  0
  182.2050  172.2440  136.9060 C   0  0  0  0  0  2  0  0  0  0  0  0
  181.6500  171.3140  134.7900 O   0  0  0  0  0  1  0  0  0  0  0  0
  182.3090  171.0420  135.9890 C   0  0  0  0  0  2  0  0  0  0  0  0
  189.0890  177.4700  145.4350 C   0  0  2  0  0  3  0  0  0  0  0  0
  189.9740  176.4600  145.8320 O   0  0  0  0  0  0  0  0  0  0  0  0
  190.6200  176.9640  146.9650 C   0  0  0  0  0  1  0  0  0  0  0  0
  187.8060  177.3800  146.2510 C   0  0  0  0  0  2  0  0  0  0  0  0
  186.0420  178.7510  147.4050 C   0  0  0  0  0  2  0  0  0  0  0  0
  184.8020  178.9630  145.3690 C   0  0  1  0  0  3  0  0  0  0  0  0
  184.7060  178.4310  146.7790 C   0  0  0  0  0  2  0  0  0  0  0  0
  187.0570  178.7070  146.2700 C   0  0  2  0  0  3  0  0  0  0  0  0
  186.2640  178.8460  144.9790 C   0  0  0  0  0  2  0  0  0  0  0  0
  184.0060  178.1840  144.5070 O   0  0  0  0  0  0  0  0  0  0  0  0
  183.6950  180.3520  143.7400 O   0  0  0  0  0  1  0  0  0  0  0  0
  183.4960  178.9900  143.4550 C   0  0  2  0  0  0  0  0  0  0  0  0
  181.3930  178.2530  144.2490 O   0  0  0  0  0  0  0  0  0  0  0  0
  182.0120  178.7530  143.3240 C   0  0  0  0  0  0  0  0  0  0  0  0
  181.1200  179.2080  141.8340 S   0  0  0  0  0  1  0  0  0  0  0  0
  185.1040  179.4690  141.5870 O   0  0  0  0  0  1  0  0  0  0  0  0
  184.1470  178.6270  142.1420 C   0  0  0  0  0  0  0  0  0  0  0  0
  183.8740  177.5400  141.5690 O   0  0  0  0  0  0  0  0  0  0  0  0
  192.8160  177.1340  138.9130 C   0  0  0  0  0  2  0  0  0  0  0  0
  193.4110  175.5770  138.1950 S   0  0  0  0  0  0  0  0  0  0  0  0
  194.1570  176.4620  136.7980 C   0  0  0  0  0  2  0  0  0  0  0  0
  196.6190  175.2240  137.4540 O   0  0  0  0  0  0  0  0  0  0  0  0
  196.0800  174.9050  136.3570 C   0  0  0  0  0  0  0  0  0  0  0  0
  194.8590  175.5210  135.9440 N   0  0  0  0  0  2  0  0  0  0  0  0
  196.7190  173.8690  135.4750 C   0  0  2  0  0  3  0  0  0  0  0  0
  195.1060  172.4270  136.4840 C   0  0  0  0  0  2  0  0  0  0  0  0
  196.4820  172.5040  135.9790 N   0  0  0  0  0  0  0  0  0  0  0  0
  196.3180  170.1320  135.3780 C   0  0  0  0  0  2  0  0  0  0  0  0
  194.8230  171.0200  137.0020 C   0  0  0  0  0  2  0  0  0  0  0  0
  194.9580  170.0580  135.9090 N   0  0  0  0  0  2  0  0  0  0  0  0
  196.5940  171.5460  134.8700 C   0  0  0  0  0  2  0  0  0  0  0  0
  198.5610  175.1450  134.6420 O   0  0  0  0  0  0  0  0  0  0  0  0
  199.1530  173.3990  136.0510 N   0  0  0  0  0  1  0  0  0  0  0  0
  198.1860  174.1800  135.3560 C   0  0  0  0  0  0  0  0  0  0  0  0
  1  3  2  0  0  0  0
  3 32  1  0  0  0  0
  4  1  1  0  0  0  0
  4  2  1  0  0  0  0
  5 11  1  0  0  0  0
  5  1  1  0  0  0  0
  6  5  2  0  0  0  0
  7  3  1  0  0  0  0
  8  4  2  0  0  0  0
  9 12  2  0  0  0  0
  9 10  1  0  0  0  0
 10 13  2  0  0  0  0
 11  7  2  0  0  0  0
 12  6  1  0  0  0  0
 13  6  1  0  0  0  0
 13  8  1  0  0  0  0
 14  9  1  0  0  0  0
 15 14  1  0  0  0  0
 16 17  1  0  0  0  0
 16 15  1  0  0  0  0
 17 18  1  0  0  0  0
 20 19  1  6  0  0  0
 20 21  1  0  0  0  0
 20 18  1  0  0  0  0
 22 21  1  0  0  0  0
 23 22  1  6  0  0  0
 23 29  1  0  0  0  0
 24 26  1  0  0  0  0
 25 24  1  0  0  0  0
 27 28  2  0  0  0  0
 28 23  1  0  0  0  0
 28 24  1  0  0  0  0
 30 31  1  0  0  0  0
 31 29  1  0  0  0  0
 32 33  1  0  0  0  0
 32 35  1  1  0  0  0
 33 34  1  0  0  0  0
 37 41  1  6  0  0  0
 37 38  1  0  0  0  0
 38 36  1  0  0  0  0
 39 35  1  6  0  0  0
 39 36  1  0  0  0  0
 40 37  1  0  0  0  0
 40 39  1  0  0  0  0
 43 42  1  1  0  0  0
 43 41  1  0  0  0  0
 45 43  1  0  0  0  0
 45 44  2  0  0  0  0
 46 45  1  0  0  0  0
 47 48  1  0  0  0  0
 48 43  1  0  0  0  0
 49 48  2  0  0  0  0
 50 10  1  0  0  0  0
 51 50  1  0  0  0  0
 52 51  1  0  0  0  0
 54 53  2  0  0  0  0
 55 54  1  0  0  0  0
 55 52  1  0  0  0  0
 56 65  1  1  0  0  0
 56 58  1  0  0  0  0
 56 54  1  0  0  0  0
 57 60  1  0  0  0  0
 58 57  1  0  0  0  0
 59 61  1  0  0  0  0
 61 60  1  0  0  0  0
 62 59  1  0  0  0  0
 62 58  1  0  0  0  0
 63 65  2  0  0  0  0
 65 64  1  0  0  0  0
M  END
>  <MODEL>
4

>  <REMARK>
 VINA RESULT:      -5.4      2.342      4.809
  Name = 
  27 active torsions:
  status: ('A' for Active; 'I' for Inactive)
    1  A    between atoms: C_4  and  C_12
    2  A    between atoms: N_9  and  C_25
    3  A    between atoms: N_9  and  C_52
    4  A    between atoms: C_11  and  C_36
    5  A    between atoms: C_11  and  S_62
    6  A    between atoms: C_12  and  C_23
    7  A    between atoms: C_12  and  O_42
    8  A    between atoms: C_14  and  N_21
    9  A    between atoms: C_14  and  C_33
   10  A    between atoms: C_14  and  C_40
   11  A    between atoms: C_15  and  C_54
   12  A    between atoms: C_15  and  C_65
   13  A    between atoms: C_19  and  C_27
   14  A    between atoms: C_19  and  C_31
   15  A    between atoms: C_19  and  O_43
   16  A    between atoms: C_23  and  C_55
   17  A    between atoms: C_25  and  C_29
   18  A    between atoms: C_34  and  O_43
   19  A    between atoms: C_48  and  N_49
   20  A    between atoms: C_48  and  C_53
   21  A    between atoms: N_49  and  C_59
   22  A    between atoms: C_52  and  N_61
   23  A    between atoms: C_53  and  N_61
   24  A    between atoms: C_54  and  C_57
   25  A    between atoms: C_54  and  C_59
   26  A    between atoms: C_60  and  S_62
   27  A    between atoms: C_60  and  N_63
                            x       y       z     vdW  Elec       q    Type
                         _______ _______ _______ _____ _____    ______ ____

>  <TORSDO>
F 27

$$$$
=
 OpenBabel11042410153D

 65 69  0  0  1  0  0  0  0  0999 V2000
  186.8000  178.1110  141.8860 C   0  0  0  0  0  0  0  0  0  0  0  0
  187.9270  176.6840  143.6630 C   0  0  0  0  0  1  0  0  0  0  0  0
  185.6790  178.5230  142.4710 C   0  0  0  0  0  0  0  0  0  0  0  0
  187.8510  177.2570  142.2920 C   0  0  0  0  0  0  0  0  0  0  0  0
  186.7700  178.6420  140.6230 C   0  0  0  0  0  0  0  0  0  0  0  0
  187.7670  178.3250  139.7150 C   0  0  0  0  0  0  0  0  0  0  0  0
  184.9330  179.3160  141.5320 N   0  0  0  0  0  0  0  0  0  0  0  0
  188.8270  176.9500  141.3760 N   0  0  0  0  0  0  0  0  0  0  0  0
  189.0630  178.0100  137.9610 C   0  0  0  0  0  0  0  0  0  0  0  0
  189.5840  177.2410  139.1050 C   0  0  0  0  0  0  0  0  0  0  0  0
  185.5800  179.3900  140.4360 N   0  0  0  0  0  0  0  0  0  0  0  0
  187.9520  178.6680  138.3100 C   0  0  0  0  0  3  0  0  0  0  0  0
  188.7710  177.4770  140.1150 C   0  0  0  0  0  0  0  0  0  0  0  0
  189.6350  178.0110  136.5860 C   0  0  0  0  0  2  0  0  0  0  0  0
  188.6460  177.5270  135.6350 N   0  0  0  0  0  2  0  0  0  0  0  0
  188.3140  176.1710  136.0300 C   0  0  0  0  0  2  0  0  0  0  0  0
  187.4350  175.5730  135.0410 N   0  0  0  0  0  2  0  0  0  0  0  0
  186.1850  176.3130  135.0830 C   0  0  0  0  0  2  0  0  0  0  0  0
  185.1840  176.4700  137.2710 O   0  0  0  0  0  1  0  0  0  0  0  0
  185.2360  175.6970  136.1070 C   0  0  2  0  0  3  0  0  0  0  0  0
  185.6070  174.3170  136.4230 N   0  0  0  0  0  2  0  0  0  0  0  0
  184.7070  173.3790  135.7510 C   0  0  0  0  0  2  0  0  0  0  0  0
  183.4230  173.1630  136.5570 C   0  0  1  0  0  3  0  0  0  0  0  0
  181.2030  174.3950  136.5420 N   0  0  0  0  0  0  0  0  0  0  0  0
  180.0470  174.9380  135.8490 C   0  0  0  0  0  1  0  0  0  0  0  0
  181.3180  174.5890  137.8790 O   0  0  0  0  0  1  0  0  0  0  0  0
  182.0570  173.4080  134.6050 O   0  0  0  0  0  0  0  0  0  0  0  0
  182.2070  173.6580  135.8320 C   0  0  0  0  0  0  0  0  0  0  0  0
  183.2460  171.7160  137.0010 C   0  0  0  0  0  2  0  0  0  0  0  0
  183.1950  170.2510  135.1300 O   0  0  0  0  0  1  0  0  0  0  0  0
  184.0400  170.7910  136.1000 C   0  0  0  0  0  2  0  0  0  0  0  0
  185.1560  178.0810  143.8010 C   0  0  2  0  0  3  0  0  0  0  0  0
  183.7890  178.3700  143.8820 O   0  0  0  0  0  0  0  0  0  0  0  0
  183.7020  179.5110  144.6850 C   0  0  0  0  0  1  0  0  0  0  0  0
  185.9010  178.8000  144.9190 C   0  0  0  0  0  2  0  0  0  0  0  0
  186.1100  178.6570  147.4210 C   0  0  0  0  0  2  0  0  0  0  0  0
  188.3120  177.7370  147.2370 C   0  0  1  0  0  3  0  0  0  0  0  0
  187.5510  178.9170  147.7930 C   0  0  0  0  0  2  0  0  0  0  0  0
  186.1500  177.8830  146.1110 C   0  0  2  0  0  3  0  0  0  0  0  0
  187.5500  177.2970  146.0000 C   0  0  0  0  0  2  0  0  0  0  0  0
  189.6180  178.1320  146.8870 O   0  0  0  0  0  0  0  0  0  0  0  0
  189.7020  175.8130  146.9190 O   0  0  0  0  0  1  0  0  0  0  0  0
  190.4520  176.9900  146.7570 C   0  0  2  0  0  0  0  0  0  0  0  0
  191.5870  177.9880  148.5780 O   0  0  0  0  0  0  0  0  0  0  0  0
  191.5070  177.0230  147.8350 C   0  0  0  0  0  0  0  0  0  0  0  0
  192.6500  175.6580  148.0670 S   0  0  0  0  0  1  0  0  0  0  0  0
  191.6390  175.7970  144.8940 O   0  0  0  0  0  1  0  0  0  0  0  0
  191.1500  176.9880  145.4180 C   0  0  0  0  0  0  0  0  0  0  0  0
  191.2430  178.0450  144.7410 O   0  0  0  0  0  0  0  0  0  0  0  0
  190.7680  176.3330  139.1120 C   0  0  0  0  0  2  0  0  0  0  0  0
  191.6570  176.4480  137.5350 S   0  0  0  0  0  0  0  0  0  0  0  0
  192.0890  174.6880  137.6040 C   0  0  0  0  0  2  0  0  0  0  0  0
  194.5980  175.2160  138.8070 O   0  0  0  0  0  0  0  0  0  0  0  0
  194.6010  174.7270  137.6420 C   0  0  0  0  0  0  0  0  0  0  0  0
  193.3720  174.4740  136.9600 N   0  0  0  0  0  2  0  0  0  0  0  0
  195.9020  174.4020  136.9630 C   0  0  2  0  0  3  0  0  0  0  0  0
  197.2370  172.6870  135.9770 C   0  0  0  0  0  2  0  0  0  0  0  0
  195.8630  173.0790  136.3140 N   0  0  0  0  0  0  0  0  0  0  0  0
  195.3330  170.7030  136.6080 C   0  0  0  0  0  2  0  0  0  0  0  0
  197.2350  171.3130  135.3150 C   0  0  0  0  0  2  0  0  0  0  0  0
  196.6960  170.3210  136.2440 N   0  0  0  0  0  2  0  0  0  0  0  0
  195.3450  172.0840  137.2620 C   0  0  0  0  0  2  0  0  0  0  0  0
  196.9390  173.8340  139.0410 O   0  0  0  0  0  0  0  0  0  0  0  0
  198.1380  175.3350  137.7400 N   0  0  0  0  0  1  0  0  0  0  0  0
  197.0090  174.5010  137.9770 C   0  0  0  0  0  0  0  0  0  0  0  0
  1  4  2  0  0  0  0
  1  3  1  0  0  0  0
  3 32  1  0  0  0  0
  4  2  1  0  0  0  0
  5  1  1  0  0  0  0
  6 13  1  0  0  0  0
  6  5  1  0  0  0  0
  7  3  2  0  0  0  0
  8  4  1  0  0  0  0
  9 12  1  0  0  0  0
  9 10  2  0  0  0  0
 10 50  1  0  0  0  0
 10 13  1  0  0  0  0
 11  5  2  0  0  0  0
 11  7  1  0  0  0  0
 12  6  2  0  0  0  0
 13  8  2  0  0  0  0
 14  9  1  0  0  0  0
 15 16  1  0  0  0  0
 15 14  1  0  0  0  0
 17 18  1  0  0  0  0
 17 16  1  0  0  0  0
 18 20  1  0  0  0  0
 20 21  1  0  0  0  0
 20 19  1  1  0  0  0
 22 21  1  0  0  0  0
 23 22  1  6  0  0  0
 23 29  1  0  0  0  0
 24 26  1  0  0  0  0
 25 24  1  0  0  0  0
 27 28  2  0  0  0  0
 28 24  1  0  0  0  0
 28 23  1  0  0  0  0
 30 31  1  0  0  0  0
 31 29  1  0  0  0  0
 32 33  1  0  0  0  0
 32 35  1  1  0  0  0
 33 34  1  0  0  0  0
 36 38  1  0  0  0  0
 37 41  1  6  0  0  0
 37 38  1  0  0  0  0
 39 35  1  6  0  0  0
 39 36  1  0  0  0  0
 40 39  1  0  0  0  0
 40 37  1  0  0  0  0
 43 41  1  0  0  0  0
 43 42  1  1  0  0  0
 43 45  1  0  0  0  0
 45 46  1  0  0  0  0
 45 44  2  0  0  0  0
 47 48  1  0  0  0  0
 48 43  1  0  0  0  0
 49 48  2  0  0  0  0
 51 52  1  0  0  0  0
 51 50  1  0  0  0  0
 54 53  2  0  0  0  0
 55 52  1  0  0  0  0
 55 54  1  0  0  0  0
 56 54  1  1  0  0  0
 56 65  1  0  0  0  0
 57 58  1  0  0  0  0
 58 56  1  0  0  0  0
 58 62  1  0  0  0  0
 59 62  1  0  0  0  0
 60 57  1  0  0  0  0
 60 61  1  0  0  0  0
 61 59  1  0  0  0  0
 64 65  1  0  0  0  0
 65 63  2  0  0  0  0
M  END
>  <MODEL>
5

>  <REMARK>
 VINA RESULT:      -5.3      1.530      2.429
  Name = 
  27 active torsions:
  status: ('A' for Active; 'I' for Inactive)
    1  A    between atoms: C_4  and  C_12
    2  A    between atoms: N_9  and  C_25
    3  A    between atoms: N_9  and  C_52
    4  A    between atoms: C_11  and  C_36
    5  A    between atoms: C_11  and  S_62
    6  A    between atoms: C_12  and  C_23
    7  A    between atoms: C_12  and  O_42
    8  A    between atoms: C_14  and  N_21
    9  A    between atoms: C_14  and  C_33
   10  A    between atoms: C_14  and  C_40
   11  A    between atoms: C_15  and  C_54
   12  A    between atoms: C_15  and  C_65
   13  A    between atoms: C_19  and  C_27
   14  A    between atoms: C_19  and  C_31
   15  A    between atoms: C_19  and  O_43
   16  A    between atoms: C_23  and  C_55
   17  A    between atoms: C_25  and  C_29
   18  A    between atoms: C_34  and  O_43
   19  A    between atoms: C_48  and  N_49
   20  A    between atoms: C_48  and  C_53
   21  A    between atoms: N_49  and  C_59
   22  A    between atoms: C_52  and  N_61
   23  A    between atoms: C_53  and  N_61
   24  A    between atoms: C_54  and  C_57
   25  A    between atoms: C_54  and  C_59
   26  A    between atoms: C_60  and  S_62
   27  A    between atoms: C_60  and  N_63
                            x       y       z     vdW  Elec       q    Type
                         _______ _______ _______ _____ _____    ______ ____

>  <TORSDO>
F 27

$$$$
=
 OpenBabel11042410153D

 65 69  0  0  1  0  0  0  0  0999 V2000
  188.2740  177.8120  139.9600 C   0  0  0  0  0  0  0  0  0  0  0  0
  190.5800  176.7440  140.0490 C   0  0  0  0  0  1  0  0  0  0  0  0
  188.0770  178.2510  141.2000 C   0  0  0  0  0  0  0  0  0  0  0  0
  189.3190  177.0900  139.3380 C   0  0  0  0  0  0  0  0  0  0  0  0
  187.1340  178.1350  139.2720 C   0  0  0  0  0  0  0  0  0  0  0  0
  186.9830  177.7340  137.9550 C   0  0  0  0  0  0  0  0  0  0  0  0
  186.7700  178.8450  141.2770 N   0  0  0  0  0  0  0  0  0  0  0  0
  189.1480  176.6950  138.0340 N   0  0  0  0  0  0  0  0  0  0  0  0
  186.2990  177.2170  135.9250 C   0  0  0  0  0  0  0  0  0  0  0  0
  187.6470  176.6670  136.1470 C   0  0  0  0  0  0  0  0  0  0  0  0
  186.2100  178.7800  140.1330 N   0  0  0  0  0  0  0  0  0  0  0  0
  185.8730  177.8610  137.0170 C   0  0  0  0  0  3  0  0  0  0  0  0
  187.9960  177.0140  137.3690 C   0  0  0  0  0  0  0  0  0  0  0  0
  185.4790  177.0330  134.6950 C   0  0  0  0  0  2  0  0  0  0  0  0
  184.7210  175.7950  134.7810 N   0  0  0  0  0  2  0  0  0  0  0  0
  183.3180  176.1650  134.8020 C   0  0  0  0  0  2  0  0  0  0  0  0
  182.8610  176.2790  136.1760 N   0  0  0  0  0  2  0  0  0  0  0  0
  181.7760  175.3270  136.3410 C   0  0  0  0  0  2  0  0  0  0  0  0
  179.9830  176.3790  137.5630 O   0  0  0  0  0  1  0  0  0  0  0  0
  181.0890  175.5320  137.6890 C   0  0  2  0  0  3  0  0  0  0  0  0
  182.0180  176.0480  138.6950 N   0  0  0  0  0  2  0  0  0  0  0  0
  181.3320  176.9700  139.6000 C   0  0  0  0  0  2  0  0  0  0  0  0
  182.2950  178.0160  140.1670 C   0  0  1  0  0  3  0  0  0  0  0  0
  181.2010  180.1300  139.2840 N   0  0  0  0  0  0  0  0  0  0  0  0
  181.2410  181.3710  138.5290 C   0  0  0  0  0  1  0  0  0  0  0  0
  180.0630  179.8000  139.9420 O   0  0  0  0  0  1  0  0  0  0  0  0
  183.3670  179.5290  138.6490 O   0  0  0  0  0  0  0  0  0  0  0  0
  182.3390  179.2600  139.3300 C   0  0  0  0  0  0  0  0  0  0  0  0
  182.0090  178.3470  141.6260 C   0  0  0  0  0  2  0  0  0  0  0  0
  183.0700  178.9120  143.6770 O   0  0  0  0  0  1  0  0  0  0  0  0
  183.2550  178.8940  142.2940 C   0  0  0  0  0  2  0  0  0  0  0  0
  188.9560  177.9960  142.3830 C   0  0  2  0  0  3  0  0  0  0  0  0
  188.1610  177.7580  143.5100 O   0  0  0  0  0  0  0  0  0  0  0  0
  187.8710  176.3910  143.4730 C   0  0  0  0  0  1  0  0  0  0  0  0
  189.8560  179.2000  142.6330 C   0  0  0  0  0  2  0  0  0  0  0  0
  191.7140  177.5110  142.4910 C   0  0  0  0  0  2  0  0  0  0  0  0
  191.5020  177.0040  144.8200 C   0  0  1  0  0  3  0  0  0  0  0  0
  191.4060  176.3840  143.4470 C   0  0  0  0  0  2  0  0  0  0  0  0
  191.2200  178.7810  143.1690 C   0  0  2  0  0  3  0  0  0  0  0  0
  191.0900  178.4550  144.6500 C   0  0  0  0  0  2  0  0  0  0  0  0
  190.6210  176.3510  145.7040 O   0  0  0  0  0  0  0  0  0  0  0  0
  191.7240  177.8870  147.0480 O   0  0  0  0  0  1  0  0  0  0  0  0
  190.8680  176.7730  147.0370 C   0  0  2  0  0  0  0  0  0  0  0  0
  191.1120  174.5180  147.7130 O   0  0  0  0  0  0  0  0  0  0  0  0
  191.5460  175.6570  147.7920 C   0  0  0  0  0  0  0  0  0  0  0  0
  193.0010  175.9580  148.8000 S   0  0  0  0  0  1  0  0  0  0  0  0
  188.5100  176.2050  147.6830 O   0  0  0  0  0  0  0  0  0  0  0  0
  189.5740  177.0980  147.7430 C   0  0  0  0  0  0  0  0  0  0  0  0
  189.4650  178.1440  148.4340 O   0  0  0  0  0  1  0  0  0  0  0  0
  188.4450  175.8350  135.1990 C   0  0  0  0  0  2  0  0  0  0  0  0
  188.7280  174.1840  135.8970 S   0  0  0  0  0  0  0  0  0  0  0  0
  189.9300  173.7970  134.5940 C   0  0  0  0  0  2  0  0  0  0  0  0
  192.0100  172.5990  136.0960 O   0  0  0  0  0  0  0  0  0  0  0  0
  192.2190  173.7540  135.6280 C   0  0  0  0  0  0  0  0  0  0  0  0
  191.1980  174.4330  134.8960 N   0  0  0  0  0  2  0  0  0  0  0  0
  193.5490  174.4220  135.8350 C   0  0  2  0  0  3  0  0  0  0  0  0
  195.8710  173.9280  135.5870 C   0  0  0  0  0  2  0  0  0  0  0  0
  194.6070  173.4460  136.1550 N   0  0  0  0  0  0  0  0  0  0  0  0
  195.9000  172.3890  137.9500 C   0  0  0  0  0  2  0  0  0  0  0  0
  196.9920  172.9470  135.9120 C   0  0  0  0  0  2  0  0  0  0  0  0
  197.1550  172.8500  137.3620 N   0  0  0  0  0  2  0  0  0  0  0  0
  194.7820  173.3750  137.6120 C   0  0  0  0  0  2  0  0  0  0  0  0
  193.7510  176.6500  136.6800 O   0  0  0  0  0  0  0  0  0  0  0  0
  192.8550  175.1240  138.1810 N   0  0  0  0  0  1  0  0  0  0  0  0
  193.3990  175.4650  136.9100 C   0  0  0  0  0  0  0  0  0  0  0  0
  1  3  2  0  0  0  0
  3  7  1  0  0  0  0
  3 32  1  0  0  0  0
  4  1  1  0  0  0  0
  4  2  1  0  0  0  0
  5  1  1  0  0  0  0
  5 11  1  0  0  0  0
  6  5  2  0  0  0  0
  8  4  2  0  0  0  0
  9 10  1  0  0  0  0
  9 12  2  0  0  0  0
 10 13  2  0  0  0  0
 11  7  2  0  0  0  0
 12  6  1  0  0  0  0
 13  6  1  0  0  0  0
 13  8  1  0  0  0  0
 14 15  1  0  0  0  0
 14  9  1  0  0  0  0
 15 16  1  0  0  0  0
 16 17  1  0  0  0  0
 17 18  1  0  0  0  0
 18 20  1  0  0  0  0
 20 19  1  6  0  0  0
 20 21  1  0  0  0  0
 21 22  1  0  0  0  0
 23 22  1  6  0  0  0
 23 29  1  0  0  0  0
 24 28  1  0  0  0  0
 24 26  1  0  0  0  0
 25 24  1  0  0  0  0
 27 28  2  0  0  0  0
 28 23  1  0  0  0  0
 29 31  1  0  0  0  0
 31 30  1  0  0  0  0
 32 35  1  1  0  0  0
 32 33  1  0  0  0  0
 34 33  1  0  0  0  0
 36 39  1  0  0  0  0
 36 38  1  0  0  0  0
 37 41  1  1  0  0  0
 38 37  1  0  0  0  0
 39 35  1  6  0  0  0
 39 40  1  0  0  0  0
 40 37  1  0  0  0  0
 41 43  1  0  0  0  0
 43 42  1  6  0  0  0
 43 48  1  0  0  0  0
 43 45  1  0  0  0  0
 44 45  2  0  0  0  0
 45 46  1  0  0  0  0
 47 48  2  0  0  0  0
 48 49  1  0  0  0  0
 50 51  1  0  0  0  0
 50 10  1  0  0  0  0
 52 55  1  0  0  0  0
 52 51  1  0  0  0  0
 54 53  2  0  0  0  0
 55 54  1  0  0  0  0
 56 54  1  1  0  0  0
 56 58  1  0  0  0  0
 56 65  1  0  0  0  0
 57 60  1  0  0  0  0
 57 58  1  0  0  0  0
 58 62  1  0  0  0  0
 60 61  1  0  0  0  0
 61 59  1  0  0  0  0
 62 59  1  0  0  0  0
 63 65  2  0  0  0  0
 65 64  1  0  0  0  0
M  END
>  <MODEL>
6

>  <REMARK>
 VINA RESULT:      -4.8      2.543      4.804
  Name = 
  27 active torsions:
  status: ('A' for Active; 'I' for Inactive)
    1  A    between atoms: C_4  and  C_12
    2  A    between atoms: N_9  and  C_25
    3  A    between atoms: N_9  and  C_52
    4  A    between atoms: C_11  and  C_36
    5  A    between atoms: C_11  and  S_62
    6  A    between atoms: C_12  and  C_23
    7  A    between atoms: C_12  and  O_42
    8  A    between atoms: C_14  and  N_21
    9  A    between atoms: C_14  and  C_33
   10  A    between atoms: C_14  and  C_40
   11  A    between atoms: C_15  and  C_54
   12  A    between atoms: C_15  and  C_65
   13  A    between atoms: C_19  and  C_27
   14  A    between atoms: C_19  and  C_31
   15  A    between atoms: C_19  and  O_43
   16  A    between atoms: C_23  and  C_55
   17  A    between atoms: C_25  and  C_29
   18  A    between atoms: C_34  and  O_43
   19  A    between atoms: C_48  and  N_49
   20  A    between atoms: C_48  and  C_53
   21  A    between atoms: N_49  and  C_59
   22  A    between atoms: C_52  and  N_61
   23  A    between atoms: C_53  and  N_61
   24  A    between atoms: C_54  and  C_57
   25  A    between atoms: C_54  and  C_59
   26  A    between atoms: C_60  and  S_62
   27  A    between atoms: C_60  and  N_63
                            x       y       z     vdW  Elec       q    Type
                         _______ _______ _______ _____ _____    ______ ____

>  <TORSDO>
F 27

$$$$
=
 OpenBabel11042410153D

 65 69  0  0  1  0  0  0  0  0999 V2000
  188.7930  176.4070  136.9720 C   0  0  0  0  0  0  0  0  0  0  0  0
  187.5220  176.5520  134.7750 C   0  0  0  0  0  1  0  0  0  0  0  0
  189.8170  175.6050  136.6960 C   0  0  0  0  0  0  0  0  0  0  0  0
  187.6850  176.8630  136.2210 C   0  0  0  0  0  0  0  0  0  0  0  0
  188.9270  176.7300  138.2970 C   0  0  0  0  0  0  0  0  0  0  0  0
  187.9570  177.4930  138.9250 C   0  0  0  0  0  0  0  0  0  0  0  0
  190.5920  175.4180  137.8920 N   0  0  0  0  0  0  0  0  0  0  0  0
  186.7310  177.6130  136.8620 N   0  0  0  0  0  0  0  0  0  0  0  0
  186.6290  178.5720  140.3140 C   0  0  0  0  0  0  0  0  0  0  0  0
  186.0330  178.5630  138.9660 C   0  0  0  0  0  0  0  0  0  0  0  0
  190.0670  176.0870  138.8430 N   0  0  0  0  0  0  0  0  0  0  0  0
  187.7950  177.9170  140.3110 C   0  0  0  0  0  3  0  0  0  0  0  0
  186.8740  177.9110  138.1890 C   0  0  0  0  0  0  0  0  0  0  0  0
  186.0050  179.1570  141.5330 C   0  0  0  0  0  2  0  0  0  0  0  0
  185.6930  178.1050  142.4880 N   0  0  0  0  0  2  0  0  0  0  0  0
  184.7270  178.6590  143.4180 C   0  0  0  0  0  2  0  0  0  0  0  0
  185.2380  178.5580  144.7740 N   0  0  0  0  0  2  0  0  0  0  0  0
  185.9860  177.3150  144.8530 C   0  0  0  0  0  2  0  0  0  0  0  0
  187.2330  178.6430  146.4340 O   0  0  0  0  0  1  0  0  0  0  0  0
  187.3080  177.5350  145.5840 C   0  0  2  0  0  3  0  0  0  0  0  0
  188.4230  177.6820  144.6470 N   0  0  0  0  0  2  0  0  0  0  0  0
  189.5850  178.2620  145.3220 C   0  0  0  0  0  2  0  0  0  0  0  0
  190.7860  177.3130  145.2780 C   0  0  1  0  0  3  0  0  0  0  0  0
  192.0460  175.6960  146.7770 N   0  0  0  0  0  0  0  0  0  0  0  0
  192.4880  175.2470  148.0860 C   0  0  0  0  0  1  0  0  0  0  0  0
  192.4600  175.0210  145.6770 O   0  0  0  0  0  1  0  0  0  0  0  0
  190.7270  177.4050  147.6710 O   0  0  0  0  0  0  0  0  0  0  0  0
  191.1780  176.8300  146.6430 C   0  0  0  0  0  0  0  0  0  0  0  0
  190.5770  176.1460  144.3220 C   0  0  0  0  0  2  0  0  0  0  0  0
  190.8210  177.4430  142.3450 O   0  0  0  0  0  1  0  0  0  0  0  0
  191.3640  176.3660  143.0450 C   0  0  0  0  0  2  0  0  0  0  0  0
  190.0340  174.8450  135.4260 C   0  0  2  0  0  3  0  0  0  0  0  0
  188.7940  174.4950  134.8770 O   0  0  0  0  0  0  0  0  0  0  0  0
  188.7150  173.1050  135.0050 C   0  0  0  0  0  1  0  0  0  0  0  0
  190.8470  173.5870  135.7030 C   0  0  0  0  0  2  0  0  0  0  0  0
  192.5810  172.0230  134.7710 C   0  0  0  0  0  2  0  0  0  0  0  0
  194.3400  173.5310  135.3720 C   0  0  1  0  0  3  0  0  0  0  0  0
  193.8260  172.1320  135.6190 C   0  0  0  0  0  2  0  0  0  0  0  0
  191.9920  173.4250  134.7100 C   0  0  2  0  0  3  0  0  0  0  0  0
  193.1140  174.3800  135.0890 C   0  0  0  0  0  2  0  0  0  0  0  0
  195.0050  174.0060  136.5190 O   0  0  0  0  0  0  0  0  0  0  0  0
  196.7110  173.4290  135.0550 O   0  0  0  0  0  1  0  0  0  0  0  0
  196.4100  173.8870  136.3490 C   0  0  2  0  0  0  0  0  0  0  0  0
  196.3000  172.6090  138.3370 O   0  0  0  0  0  0  0  0  0  0  0  0
  196.9440  172.8800  137.3370 C   0  0  0  0  0  0  0  0  0  0  0  0
  198.5120  172.0480  137.0690 S   0  0  0  0  0  1  0  0  0  0  0  0
  196.7740  176.3180  135.8360 O   0  0  0  0  0  0  0  0  0  0  0  0
  197.0930  175.2080  136.6100 C   0  0  0  0  0  0  0  0  0  0  0  0
  197.9090  175.3320  137.5610 O   0  0  0  0  0  1  0  0  0  0  0  0
  184.7140  179.1330  138.5640 C   0  0  0  0  0  2  0  0  0  0  0  0
  183.3940  177.9190  138.8450 S   0  0  0  0  0  0  0  0  0  0  0  0
  183.0100  177.8690  137.0720 C   0  0  0  0  0  2  0  0  0  0  0  0
  181.2350  175.6850  137.3870 O   0  0  0  0  0  0  0  0  0  0  0  0
  182.2910  175.4870  136.7220 C   0  0  0  0  0  0  0  0  0  0  0  0
  183.2500  176.5330  136.5590 N   0  0  0  0  0  2  0  0  0  0  0  0
  182.5460  174.1470  136.0920 C   0  0  2  0  0  3  0  0  0  0  0  0
  181.6770  171.9860  135.5720 C   0  0  0  0  0  2  0  0  0  0  0  0
  181.3160  173.3370  136.0150 N   0  0  0  0  0  0  0  0  0  0  0  0
  179.4680  172.3490  137.2890 C   0  0  0  0  0  2  0  0  0  0  0  0
  180.4260  171.1150  135.4940 C   0  0  0  0  0  2  0  0  0  0  0  0
  179.8190  171.0100  136.8200 N   0  0  0  0  0  2  0  0  0  0  0  0
  180.7260  173.2140  137.3550 C   0  0  0  0  0  2  0  0  0  0  0  0
  184.0120  173.9280  137.9690 O   0  0  0  0  0  0  0  0  0  0  0  0
  184.2240  172.2550  136.3760 N   0  0  0  0  0  1  0  0  0  0  0  0
  183.6310  173.4510  136.8690 C   0  0  0  0  0  0  0  0  0  0  0  0
  1  5  1  0  0  0  0
  2  4  1  0  0  0  0
  3  1  2  0  0  0  0
  3  7  1  0  0  0  0
  4  8  2  0  0  0  0
  4  1  1  0  0  0  0
  5 11  1  0  0  0  0
  5  6  2  0  0  0  0
  6 12  1  0  0  0  0
  7 11  2  0  0  0  0
  8 13  1  0  0  0  0
  9 14  1  0  0  0  0
 10  9  1  0  0  0  0
 12  9  2  0  0  0  0
 13  6  1  0  0  0  0
 13 10  2  0  0  0  0
 14 15  1  0  0  0  0
 15 16  1  0  0  0  0
 16 17  1  0  0  0  0
 17 18  1  0  0  0  0
 18 20  1  0  0  0  0
 20 19  1  6  0  0  0
 21 22  1  0  0  0  0
 21 20  1  0  0  0  0
 23 29  1  6  0  0  0
 23 22  1  0  0  0  0
 23 28  1  0  0  0  0
 24 25  1  0  0  0  0
 26 24  1  0  0  0  0
 28 24  1  0  0  0  0
 28 27  2  0  0  0  0
 30 31  1  0  0  0  0
 31 29  1  0  0  0  0
 32 35  1  1  0  0  0
 32  3  1  0  0  0  0
 33 34  1  0  0  0  0
 33 32  1  0  0  0  0
 36 38  1  0  0  0  0
 37 38  1  0  0  0  0
 37 41  1  1  0  0  0
 39 36  1  0  0  0  0
 39 40  1  0  0  0  0
 39 35  1  1  0  0  0
 40 37  1  0  0  0  0
 43 42  1  6  0  0  0
 43 41  1  0  0  0  0
 43 48  1  0  0  0  0
 43 45  1  0  0  0  0
 45 44  2  0  0  0  0
 46 45  1  0  0  0  0
 47 48  2  0  0  0  0
 48 49  1  0  0  0  0
 50 51  1  0  0  0  0
 50 10  1  0  0  0  0
 52 51  1  0  0  0  0
 54 53  2  0  0  0  0
 55 54  1  0  0  0  0
 55 52  1  0  0  0  0
 56 54  1  1  0  0  0
 56 65  1  0  0  0  0
 57 58  1  0  0  0  0
 58 56  1  0  0  0  0
 58 62  1  0  0  0  0
 59 62  1  0  0  0  0
 60 57  1  0  0  0  0
 60 61  1  0  0  0  0
 61 59  1  0  0  0  0
 64 65  1  0  0  0  0
 65 63  2  0  0  0  0
M  END
>  <MODEL>
7

>  <REMARK>
 VINA RESULT:      -4.6      3.107     11.461
  Name = 
  27 active torsions:
  status: ('A' for Active; 'I' for Inactive)
    1  A    between atoms: C_4  and  C_12
    2  A    between atoms: N_9  and  C_25
    3  A    between atoms: N_9  and  C_52
    4  A    between atoms: C_11  and  C_36
    5  A    between atoms: C_11  and  S_62
    6  A    between atoms: C_12  and  C_23
    7  A    between atoms: C_12  and  O_42
    8  A    between atoms: C_14  and  N_21
    9  A    between atoms: C_14  and  C_33
   10  A    between atoms: C_14  and  C_40
   11  A    between atoms: C_15  and  C_54
   12  A    between atoms: C_15  and  C_65
   13  A    between atoms: C_19  and  C_27
   14  A    between atoms: C_19  and  C_31
   15  A    between atoms: C_19  and  O_43
   16  A    between atoms: C_23  and  C_55
   17  A    between atoms: C_25  and  C_29
   18  A    between atoms: C_34  and  O_43
   19  A    between atoms: C_48  and  N_49
   20  A    between atoms: C_48  and  C_53
   21  A    between atoms: N_49  and  C_59
   22  A    between atoms: C_52  and  N_61
   23  A    between atoms: C_53  and  N_61
   24  A    between atoms: C_54  and  C_57
   25  A    between atoms: C_54  and  C_59
   26  A    between atoms: C_60  and  S_62
   27  A    between atoms: C_60  and  N_63
                            x       y       z     vdW  Elec       q    Type
                         _______ _______ _______ _____ _____    ______ ____

>  <TORSDO>
F 27

$$$$
=
 OpenBabel11042410153D

 65 69  0  0  1  0  0  0  0  0999 V2000
  188.5530  176.6010  137.2230 C   0  0  0  0  0  0  0  0  0  0  0  0
  187.3360  176.7250  134.9950 C   0  0  0  0  0  1  0  0  0  0  0  0
  189.6120  175.8390  136.9670 C   0  0  0  0  0  0  0  0  0  0  0  0
  187.4500  177.0260  136.4470 C   0  0  0  0  0  0  0  0  0  0  0  0
  188.6400  176.9140  138.5540 C   0  0  0  0  0  0  0  0  0  0  0  0
  187.6280  177.6360  139.1640 C   0  0  0  0  0  0  0  0  0  0  0  0
  190.3600  175.6660  138.1820 N   0  0  0  0  0  0  0  0  0  0  0  0
  186.4530  177.7360  137.0700 N   0  0  0  0  0  0  0  0  0  0  0  0
  186.2260  178.6530  140.5270 C   0  0  0  0  0  0  0  0  0  0  0  0
  185.6670  178.6380  139.1640 C   0  0  0  0  0  0  0  0  0  0  0  0
  189.7870  176.3060  139.1250 N   0  0  0  0  0  0  0  0  0  0  0  0
  187.4140  178.0390  140.5500 C   0  0  0  0  0  3  0  0  0  0  0  0
  186.5510  178.0240  138.4040 C   0  0  0  0  0  0  0  0  0  0  0  0
  185.5500  179.2030  141.7350 C   0  0  0  0  0  2  0  0  0  0  0  0
  185.2240  178.1260  142.6570 N   0  0  0  0  0  2  0  0  0  0  0  0
  184.5390  178.7340  143.7830 C   0  0  0  0  0  2  0  0  0  0  0  0
  185.4090  178.7300  144.9460 N   0  0  0  0  0  2  0  0  0  0  0  0
  186.0530  177.4300  144.9890 C   0  0  0  0  0  2  0  0  0  0  0  0
  187.1970  178.0970  147.0050 O   0  0  0  0  0  1  0  0  0  0  0  0
  187.3770  177.5160  145.7450 C   0  0  2  0  0  3  0  0  0  0  0  0
  188.3870  178.2500  144.9810 N   0  0  0  0  0  2  0  0  0  0  0  0
  189.6740  178.2220  145.6770 C   0  0  0  0  0  2  0  0  0  0  0  0
  190.6550  177.2620  144.9980 C   0  0  1  0  0  3  0  0  0  0  0  0
  190.8840  176.9920  142.4830 N   0  0  0  0  0  0  0  0  0  0  0  0
  191.2660  177.4920  141.1730 C   0  0  0  0  0  1  0  0  0  0  0  0
  190.3100  175.7680  142.5770 O   0  0  0  0  0  1  0  0  0  0  0  0
  191.7250  178.8730  143.5840 O   0  0  0  0  0  0  0  0  0  0  0  0
  191.1150  177.7720  143.6640 C   0  0  0  0  0  0  0  0  0  0  0  0
  191.8380  176.9070  145.8870 C   0  0  0  0  0  2  0  0  0  0  0  0
  191.6720  175.4540  147.7620 O   0  0  0  0  0  1  0  0  0  0  0  0
  191.3850  176.7480  147.3250 C   0  0  0  0  0  2  0  0  0  0  0  0
  189.8890  175.1010  135.6960 C   0  0  2  0  0  3  0  0  0  0  0  0
  188.6790  174.6890  135.1250 O   0  0  0  0  0  0  0  0  0  0  0  0
  188.7340  173.2920  135.1160 C   0  0  0  0  0  1  0  0  0  0  0  0
  190.7640  173.8860  135.9790 C   0  0  0  0  0  2  0  0  0  0  0  0
  192.4200  172.4450  134.7520 C   0  0  0  0  0  2  0  0  0  0  0  0
  194.2410  173.4110  135.9680 C   0  0  1  0  0  3  0  0  0  0  0  0
  193.5430  172.0990  135.7000 C   0  0  0  0  0  2  0  0  0  0  0  0
  192.0070  173.8700  135.0960 C   0  0  2  0  0  3  0  0  0  0  0  0
  193.1690  174.4810  135.8660 C   0  0  0  0  0  2  0  0  0  0  0  0
  194.7950  173.4030  137.2630 O   0  0  0  0  0  0  0  0  0  0  0  0
  197.0130  172.7750  136.9960 O   0  0  0  0  0  1  0  0  0  0  0  0
  196.1410  173.8540  137.2180 C   0  0  2  0  0  0  0  0  0  0  0  0
  195.6230  174.9590  139.2460 O   0  0  0  0  0  0  0  0  0  0  0  0
  196.4980  174.4770  138.5450 C   0  0  0  0  0  0  0  0  0  0  0  0
  198.1930  174.5120  139.1350 S   0  0  0  0  0  1  0  0  0  0  0  0
  196.8060  174.5390  134.8970 O   0  0  0  0  0  0  0  0  0  0  0  0
  196.3170  174.9020  136.1460 C   0  0  0  0  0  0  0  0  0  0  0  0
  195.9700  176.0950  136.3510 O   0  0  0  0  0  1  0  0  0  0  0  0
  184.3400  179.1650  138.7330 C   0  0  0  0  0  2  0  0  0  0  0  0
  183.0820  177.8610  138.8370 S   0  0  0  0  0  0  0  0  0  0  0  0
  182.9340  177.8050  137.0300 C   0  0  0  0  0  2  0  0  0  0  0  0
  181.7160  175.8790  138.7110 O   0  0  0  0  0  0  0  0  0  0  0  0
  181.9150  175.5580  137.5060 C   0  0  0  0  0  0  0  0  0  0  0  0
  182.5620  176.4650  136.6130 N   0  0  0  0  0  2  0  0  0  0  0  0
  181.4680  174.2160  136.9990 C   0  0  2  0  0  3  0  0  0  0  0  0
  183.4270  172.9500  137.5070 C   0  0  0  0  0  2  0  0  0  0  0  0
  182.5870  173.4530  136.4140 N   0  0  0  0  0  0  0  0  0  0  0  0
  183.2150  171.4710  135.1150 C   0  0  0  0  0  2  0  0  0  0  0  0
  184.5890  172.1430  136.9370 C   0  0  0  0  0  2  0  0  0  0  0  0
  184.0720  170.9920  136.1980 N   0  0  0  0  0  2  0  0  0  0  0  0
  182.0600  172.2850  135.6960 C   0  0  0  0  0  2  0  0  0  0  0  0
  179.9180  175.5860  135.8000 O   0  0  0  0  0  0  0  0  0  0  0  0
  179.7860  173.3220  135.3110 N   0  0  0  0  0  1  0  0  0  0  0  0
  180.3510  174.4240  136.0120 C   0  0  0  0  0  0  0  0  0  0  0  0
  1  5  1  0  0  0  0
  2  4  1  0  0  0  0
  3  1  2  0  0  0  0
  3  7  1  0  0  0  0
  4  8  2  0  0  0  0
  4  1  1  0  0  0  0
  5 11  1  0  0  0  0
  5  6  2  0  0  0  0
  6 12  1  0  0  0  0
  7 11  2  0  0  0  0
  8 13  1  0  0  0  0
  9 12  2  0  0  0  0
  9 14  1  0  0  0  0
 10  9  1  0  0  0  0
 13  6  1  0  0  0  0
 13 10  2  0  0  0  0
 14 15  1  0  0  0  0
 15 16  1  0  0  0  0
 16 17  1  0  0  0  0
 17 18  1  0  0  0  0
 18 20  1  0  0  0  0
 20 19  1  1  0  0  0
 21 22  1  0  0  0  0
 21 20  1  0  0  0  0
 23 22  1  1  0  0  0
 23 29  1  0  0  0  0
 24 26  1  0  0  0  0
 24 28  1  0  0  0  0
 25 24  1  0  0  0  0
 27 28  2  0  0  0  0
 28 23  1  0  0  0  0
 29 31  1  0  0  0  0
 31 30  1  0  0  0  0
 32 35  1  1  0  0  0
 32  3  1  0  0  0  0
 33 32  1  0  0  0  0
 34 33  1  0  0  0  0
 36 39  1  0  0  0  0
 36 38  1  0  0  0  0
 37 41  1  1  0  0  0
 38 37  1  0  0  0  0
 39 40  1  0  0  0  0
 39 35  1  1  0  0  0
 40 37  1  0  0  0  0
 43 42  1  6  0  0  0
 43 41  1  0  0  0  0
 43 45  1  0  0  0  0
 45 46  1  0  0  0  0
 45 44  2  0  0  0  0
 47 48  2  0  0  0  0
 48 49  1  0  0  0  0
 48 43  1  0  0  0  0
 50 51  1  0  0  0  0
 50 10  1  0  0  0  0
 52 51  1  0  0  0  0
 54 53  2  0  0  0  0
 55 52  1  0  0  0  0
 55 54  1  0  0  0  0
 56 65  1  6  0  0  0
 56 54  1  0  0  0  0
 58 56  1  0  0  0  0
 58 57  1  0  0  0  0
 59 62  1  0  0  0  0
 59 61  1  0  0  0  0
 60 57  1  0  0  0  0
 61 60  1  0  0  0  0
 62 58  1  0  0  0  0
 63 65  2  0  0  0  0
 64 65  1  0  0  0  0
M  END
>  <MODEL>
8

>  <REMARK>
 VINA RESULT:      -4.5      3.018     11.052
  Name = 
  27 active torsions:
  status: ('A' for Active; 'I' for Inactive)
    1  A    between atoms: C_4  and  C_12
    2  A    between atoms: N_9  and  C_25
    3  A    between atoms: N_9  and  C_52
    4  A    between atoms: C_11  and  C_36
    5  A    between atoms: C_11  and  S_62
    6  A    between atoms: C_12  and  C_23
    7  A    between atoms: C_12  and  O_42
    8  A    between atoms: C_14  and  N_21
    9  A    between atoms: C_14  and  C_33
   10  A    between atoms: C_14  and  C_40
   11  A    between atoms: C_15  and  C_54
   12  A    between atoms: C_15  and  C_65
   13  A    between atoms: C_19  and  C_27
   14  A    between atoms: C_19  and  C_31
   15  A    between atoms: C_19  and  O_43
   16  A    between atoms: C_23  and  C_55
   17  A    between atoms: C_25  and  C_29
   18  A    between atoms: C_34  and  O_43
   19  A    between atoms: C_48  and  N_49
   20  A    between atoms: C_48  and  C_53
   21  A    between atoms: N_49  and  C_59
   22  A    between atoms: C_52  and  N_61
   23  A    between atoms: C_53  and  N_61
   24  A    between atoms: C_54  and  C_57
   25  A    between atoms: C_54  and  C_59
   26  A    between atoms: C_60  and  S_62
   27  A    between atoms: C_60  and  N_63
                            x       y       z     vdW  Elec       q    Type
                         _______ _______ _______ _____ _____    ______ ____

>  <TORSDO>
F 27

$$$$
=
 OpenBabel11042410153D

 65 69  0  0  1  0  0  0  0  0999 V2000
  189.8160  177.3600  143.6350 C   0  0  0  0  0  0  0  0  0  0  0  0
  191.8540  178.4540  144.6910 C   0  0  0  0  0  1  0  0  0  0  0  0
  189.0020  177.1420  144.6640 C   0  0  0  0  0  0  0  0  0  0  0  0
  191.1230  177.8900  143.5250 C   0  0  0  0  0  0  0  0  0  0  0  0
  189.1600  176.8690  142.5370 C   0  0  0  0  0  0  0  0  0  0  0  0
  189.7830  176.8660  141.3010 C   0  0  0  0  0  0  0  0  0  0  0  0
  187.8190  176.4810  144.1830 N   0  0  0  0  0  0  0  0  0  0  0  0
  191.7280  177.8730  142.2920 N   0  0  0  0  0  0  0  0  0  0  0  0
  190.4280  176.5790  139.2130 C   0  0  0  0  0  0  0  0  0  0  0  0
  191.5110  177.2170  139.9810 C   0  0  0  0  0  0  0  0  0  0  0  0
  187.9090  176.3220  142.9210 N   0  0  0  0  0  0  0  0  0  0  0  0
  189.3720  176.3470  140.0010 C   0  0  0  0  0  3  0  0  0  0  0  0
  191.0620  177.3640  141.2120 C   0  0  0  0  0  0  0  0  0  0  0  0
  190.5030  176.1740  137.7820 C   0  0  0  0  0  2  0  0  0  0  0  0
  190.6850  174.7340  137.6800 N   0  0  0  0  0  2  0  0  0  0  0  0
  189.6170  174.2370  136.8330 C   0  0  0  0  0  2  0  0  0  0  0  0
  189.0080  175.3410  136.1120 N   0  0  0  0  0  2  0  0  0  0  0  0
  187.6980  175.5600  136.7010 C   0  0  0  0  0  2  0  0  0  0  0  0
  186.5000  177.2410  135.4540 O   0  0  0  0  0  1  0  0  0  0  0  0
  186.6700  175.8620  135.6130 C   0  0  2  0  0  3  0  0  0  0  0  0
  185.3860  175.2160  135.8920 N   0  0  0  0  0  2  0  0  0  0  0  0
  184.3110  176.2080  135.9190 C   0  0  0  0  0  2  0  0  0  0  0  0
  183.1030  175.6990  136.7120 C   0  0  1  0  0  3  0  0  0  0  0  0
  181.8780  177.9230  136.7730 N   0  0  0  0  0  0  0  0  0  0  0  0
  181.1610  178.9680  137.4840 C   0  0  0  0  0  1  0  0  0  0  0  0
  182.0330  178.0290  135.4310 O   0  0  0  0  0  1  0  0  0  0  0  0
  182.3500  176.7420  138.7330 O   0  0  0  0  0  0  0  0  0  0  0  0
  182.4230  176.7970  137.4750 C   0  0  0  0  0  0  0  0  0  0  0  0
  182.1100  174.9380  135.8430 C   0  0  0  0  0  2  0  0  0  0  0  0
  182.1350  172.9310  137.1170 O   0  0  0  0  0  1  0  0  0  0  0  0
  181.3080  173.9700  136.6900 C   0  0  0  0  0  2  0  0  0  0  0  0
  189.3240  177.3440  146.1110 C   0  0  2  0  0  3  0  0  0  0  0  0
  190.2240  176.3560  146.5280 O   0  0  0  0  0  0  0  0  0  0  0  0
  190.7030  176.7960  147.7660 C   0  0  0  0  0  1  0  0  0  0  0  0
  188.0510  177.2660  146.9440 C   0  0  0  0  0  2  0  0  0  0  0  0
  186.0470  178.5130  147.8090 C   0  0  0  0  0  2  0  0  0  0  0  0
  185.2680  178.9120  145.5810 C   0  0  1  0  0  3  0  0  0  0  0  0
  184.8840  178.2480  146.8820 C   0  0  0  0  0  2  0  0  0  0  0  0
  187.2820  178.5820  146.9220 C   0  0  2  0  0  3  0  0  0  0  0  0
  186.7820  178.8390  145.5080 C   0  0  0  0  0  2  0  0  0  0  0  0
  184.6950  178.2150  144.5000 O   0  0  0  0  0  0  0  0  0  0  0  0
  184.4950  180.4520  143.9180 O   0  0  0  0  0  1  0  0  0  0  0  0
  184.1820  179.1330  143.5460 C   0  0  2  0  0  0  0  0  0  0  0  0
  182.0250  179.1210  144.5190 O   0  0  0  0  0  0  0  0  0  0  0  0
  182.6800  179.0060  143.4950 C   0  0  0  0  0  0  0  0  0  0  0  0
  181.8190  178.7040  141.9490 S   0  0  0  0  0  1  0  0  0  0  0  0
  184.7330  179.8250  141.1960 O   0  0  0  0  0  0  0  0  0  0  0  0
  184.7260  178.8330  142.1700 C   0  0  0  0  0  0  0  0  0  0  0  0
  185.2270  177.7080  141.9090 O   0  0  0  0  0  1  0  0  0  0  0  0
  192.8700  177.5810  139.4850 C   0  0  0  0  0  2  0  0  0  0  0  0
  193.9350  176.1130  139.4340 S   0  0  0  0  0  0  0  0  0  0  0  0
  193.9980  176.1730  137.6220 C   0  0  0  0  0  2  0  0  0  0  0  0
  196.4710  174.8080  137.8330 O   0  0  0  0  0  0  0  0  0  0  0  0
  195.5140  174.1990  137.2760 C   0  0  0  0  0  0  0  0  0  0  0  0
  194.2520  174.8430  137.0990 N   0  0  0  0  0  2  0  0  0  0  0  0
  195.6970  172.7870  136.7970 C   0  0  2  0  0  3  0  0  0  0  0  0
  197.2730  171.0610  137.2800 C   0  0  0  0  0  2  0  0  0  0  0  0
  197.1210  172.4130  136.7290 N   0  0  0  0  0  0  0  0  0  0  0  0
  199.0160  171.9430  135.2450 C   0  0  0  0  0  2  0  0  0  0  0  0
  198.7370  170.6360  137.2130 C   0  0  0  0  0  2  0  0  0  0  0  0
  199.1760  170.6080  135.8190 N   0  0  0  0  0  2  0  0  0  0  0  0
  197.5480  172.3620  135.3240 C   0  0  0  0  0  2  0  0  0  0  0  0
  194.5650  171.5180  135.1150 O   0  0  0  0  0  0  0  0  0  0  0  0
  194.8560  173.7620  134.6010 N   0  0  0  0  0  1  0  0  0  0  0  0
  195.0120  172.6410  135.4650 C   0  0  0  0  0  0  0  0  0  0  0  0
  1  3  2  0  0  0  0
  3 32  1  0  0  0  0
  4  1  1  0  0  0  0
  4  2  1  0  0  0  0
  5 11  1  0  0  0  0
  5  1  1  0  0  0  0
  6  5  2  0  0  0  0
  7  3  1  0  0  0  0
  8  4  2  0  0  0  0
  9 10  1  0  0  0  0
  9 12  2  0  0  0  0
 10 13  2  0  0  0  0
 11  7  2  0  0  0  0
 12  6  1  0  0  0  0
 13  6  1  0  0  0  0
 13  8  1  0  0  0  0
 14  9  1  0  0  0  0
 15 14  1  0  0  0  0
 16 15  1  0  0  0  0
 17 18  1  0  0  0  0
 17 16  1  0  0  0  0
 20 19  1  1  0  0  0
 20 21  1  0  0  0  0
 20 18  1  0  0  0  0
 21 22  1  0  0  0  0
 22 23  1  0  0  0  0
 23 29  1  6  0  0  0
 23 28  1  0  0  0  0
 24 28  1  0  0  0  0
 24 25  1  0  0  0  0
 26 24  1  0  0  0  0
 28 27  2  0  0  0  0
 29 31  1  0  0  0  0
 31 30  1  0  0  0  0
 32 33  1  0  0  0  0
 32 35  1  1  0  0  0
 33 34  1  0  0  0  0
 37 41  1  6  0  0  0
 37 38  1  0  0  0  0
 38 36  1  0  0  0  0
 39 35  1  6  0  0  0
 39 36  1  0  0  0  0
 40 37  1  0  0  0  0
 40 39  1  0  0  0  0
 43 42  1  1  0  0  0
 43 41  1  0  0  0  0
 45 43  1  0  0  0  0
 45 44  2  0  0  0  0
 46 45  1  0  0  0  0
 47 48  2  0  0  0  0
 48 43  1  0  0  0  0
 49 48  1  0  0  0  0
 50 10  1  0  0  0  0
 51 50  1  0  0  0  0
 52 51  1  0  0  0  0
 54 53  2  0  0  0  0
 55 54  1  0  0  0  0
 55 52  1  0  0  0  0
 56 65  1  6  0  0  0
 56 54  1  0  0  0  0
 58 56  1  0  0  0  0
 58 57  1  0  0  0  0
 59 62  1  0  0  0  0
 59 61  1  0  0  0  0
 60 57  1  0  0  0  0
 61 60  1  0  0  0  0
 62 58  1  0  0  0  0
 63 65  2  0  0  0  0
 64 65  1  0  0  0  0
M  END
>  <MODEL>
9

>  <REMARK>
 VINA RESULT:      -4.5      2.528      4.659
  Name = 
  27 active torsions:
  status: ('A' for Active; 'I' for Inactive)
    1  A    between atoms: C_4  and  C_12
    2  A    between atoms: N_9  and  C_25
    3  A    between atoms: N_9  and  C_52
    4  A    between atoms: C_11  and  C_36
    5  A    between atoms: C_11  and  S_62
    6  A    between atoms: C_12  and  C_23
    7  A    between atoms: C_12  and  O_42
    8  A    between atoms: C_14  and  N_21
    9  A    between atoms: C_14  and  C_33
   10  A    between atoms: C_14  and  C_40
   11  A    between atoms: C_15  and  C_54
   12  A    between atoms: C_15  and  C_65
   13  A    between atoms: C_19  and  C_27
   14  A    between atoms: C_19  and  C_31
   15  A    between atoms: C_19  and  O_43
   16  A    between atoms: C_23  and  C_55
   17  A    between atoms: C_25  and  C_29
   18  A    between atoms: C_34  and  O_43
   19  A    between atoms: C_48  and  N_49
   20  A    between atoms: C_48  and  C_53
   21  A    between atoms: N_49  and  C_59
   22  A    between atoms: C_52  and  N_61
   23  A    between atoms: C_53  and  N_61
   24  A    between atoms: C_54  and  C_57
   25  A    between atoms: C_54  and  C_59
   26  A    between atoms: C_60  and  S_62
   27  A    between atoms: C_60  and  N_63
                            x       y       z     vdW  Elec       q    Type
                         _______ _______ _______ _____ _____    ______ ____

>  <TORSDO>
F 27

$$$$
