=
 OpenBabel11032421303D

 26 28  0  0  1  0  0  0  0  0999 V2000
  189.0010  177.4340  140.5530 N   0  0  0  0  0  2  0  0  0  0  0  0
  189.6910  177.5350  141.8030 C   0  0  0  0  0  0  0  0  0  0  0  0
  187.6650  178.5100  138.9960 O   0  0  0  0  0  0  0  0  0  0  0  0
  187.8190  178.1620  140.1970 C   0  0  0  0  0  0  0  0  0  0  0  0
  189.4560  178.4900  142.5930 O   0  0  0  0  0  0  0  0  0  0  0  0
  185.8400  178.3380  143.4150 C   0  0  0  0  0  0  0  0  0  0  0  0
  184.6860  179.0060  142.9630 C   0  0  0  0  0  0  0  0  0  0  0  0
  186.7550  178.4650  141.1780 C   0  0  1  0  0  3  0  0  0  0  0  0
  183.7500  178.9150  145.1410 C   0  0  0  0  0  3  0  0  0  0  0  0
  183.6750  179.2760  143.8320 N   0  0  0  0  0  0  0  0  0  0  0  0
  184.8810  178.2490  145.6260 C   0  0  0  0  0  3  0  0  0  0  0  0
  185.5810  179.1170  140.7680 C   0  0  0  0  0  3  0  0  0  0  0  0
  184.5850  179.3740  141.6580 N   0  0  0  0  0  0  0  0  0  0  0  0
  185.9330  177.9590  144.7540 C   0  0  0  0  0  2  0  0  0  0  0  0
  186.8690  178.0650  142.5170 C   0  0  0  0  0  3  0  0  0  0  0  0
  190.7140  176.5110  142.1550 C   0  0  1  0  0  3  0  0  0  0  0  0
  191.9790  177.0730  142.1030 F   0  0  0  0  0  0  0  0  0  0  0  0
  190.4340  175.9570  143.5440 C   0  0  0  0  0  2  0  0  0  0  0  0
  191.6430  176.1170  144.4490 C   0  0  0  0  0  2  0  0  0  0  0  0
  191.4580  177.3160  145.3840 C   0  0  0  0  0  2  0  0  0  0  0  0
  191.3310  176.9410  146.8000 N   0  0  0  0  0  0  0  0  0  0  0  0
  189.9320  176.6710  147.1210 C   0  0  0  0  0  3  0  0  0  0  0  0
  189.0500  177.7400  146.5010 C   0  0  0  0  0  2  0  0  0  0  0  0
  189.3770  177.7980  147.9750 C   0  0  0  0  0  2  0  0  0  0  0  0
  192.9510  175.9270  148.2210 N   0  0  0  0  0  1  0  0  0  0  0  0
  192.1050  175.7310  147.0560 C   0  0  0  0  0  2  0  0  0  0  0  0
  1  2  1  0  0  0  0
  2 16  1  0  0  0  0
  2  5  2  0  0  0  0
  3  4  2  0  0  0  0
  4  1  1  0  0  0  0
  6 14  1  0  0  0  0
  7  6  1  0  0  0  0
  7 10  2  0  0  0  0
  8  4  1  6  0  0  0
  8 15  1  0  0  0  0
  9 11  2  0  0  0  0
 10  9  1  0  0  0  0
 12  8  1  0  0  0  0
 12 13  2  0  0  0  0
 13  7  1  0  0  0  0
 14 11  1  0  0  0  0
 15  6  2  0  0  0  0
 16 17  1  1  0  0  0
 16 18  1  0  0  0  0
 18 19  1  0  0  0  0
 19 20  1  0  0  0  0
 20 21  1  0  0  0  0
 21 26  1  0  0  0  0
 21 22  1  0  0  0  0
 22 24  1  0  0  0  0
 23 22  1  0  0  0  0
 23 24  1  0  0  0  0
 26 25  1  0  0  0  0
M  END
>  <MODEL>
1

>  <REMARK>
 VINA RESULT:      -8.2      0.000      0.000
  Name = 
  8 active torsions:
  status: ('A' for Active; 'I' for Inactive)
    1  A    between atoms: C_1  and  C_10
    2  A    between atoms: C_1  and  C_21
    3  A    between atoms: C_3  and  C_21
    4  A    between atoms: C_3  and  C_23
    5  A    between atoms: C_5  and  N_18
    6  A    between atoms: C_8  and  C_14
    7  A    between atoms: N_18  and  C_23
    8  A    between atoms: N_18  and  C_24
                            x       y       z     vdW  Elec       q    Type
                         _______ _______ _______ _____ _____    ______ ____

>  <TORSDO>
F 8

$$$$
=
 OpenBabel11032421303D

 26 28  0  0  1  0  0  0  0  0999 V2000
  189.9980  177.6580  145.5710 N   0  0  0  0  0  2  0  0  0  0  0  0
  189.8670  177.5320  144.1510 C   0  0  0  0  0  0  0  0  0  0  0  0
  189.2340  176.9660  147.6450 O   0  0  0  0  0  0  0  0  0  0  0  0
  188.9440  177.4550  146.5210 C   0  0  0  0  0  0  0  0  0  0  0  0
  188.8640  176.9600  143.6440 O   0  0  0  0  0  0  0  0  0  0  0  0
  185.7190  178.2280  144.7050 C   0  0  0  0  0  0  0  0  0  0  0  0
  184.9280  178.6780  145.7810 C   0  0  0  0  0  0  0  0  0  0  0  0
  187.5470  177.8520  146.2460 C   0  0  0  0  0  0  0  0  0  0  0  0
  183.1020  179.0540  144.3130 C   0  0  0  0  0  3  0  0  0  0  0  0
  183.6470  179.0780  145.5590 N   0  0  0  0  0  0  0  0  0  0  0  0
  183.8580  178.6150  143.2200 C   0  0  0  0  0  3  0  0  0  0  0  0
  186.7280  178.3200  147.2850 C   0  0  0  0  0  3  0  0  0  0  0  0
  185.4510  178.7150  147.0350 N   0  0  0  0  0  0  0  0  0  0  0  0
  185.1760  178.1990  143.4210 C   0  0  0  0  0  3  0  0  0  0  0  0
  187.0300  177.8220  144.9430 C   0  0  0  0  0  3  0  0  0  0  0  0
  190.9460  178.0620  143.2710 C   0  0  1  0  0  3  0  0  0  0  0  0
  192.0070  178.5070  144.0420 F   0  0  0  0  0  0  0  0  0  0  0  0
  191.4060  176.9790  142.3070 C   0  0  0  0  0  2  0  0  0  0  0  0
  191.3100  177.4530  140.8670 C   0  0  0  0  0  2  0  0  0  0  0  0
  189.9470  177.0880  140.2710 C   0  0  0  0  0  2  0  0  0  0  0  0
  189.1820  178.2500  139.7990 N   0  0  0  0  0  0  0  0  0  0  0  0
  188.5780  177.9570  138.5020 C   0  0  0  0  0  3  0  0  0  0  0  0
  189.6580  177.5410  137.5180 C   0  0  0  0  0  2  0  0  0  0  0  0
  189.0920  178.9420  137.4660 C   0  0  0  0  0  2  0  0  0  0  0  0
  186.8340  178.5540  140.0610 N   0  0  0  0  0  1  0  0  0  0  0  0
  188.1140  178.5500  140.7480 C   0  0  0  0  0  2  0  0  0  0  0  0
  1  4  1  0  0  0  0
  2  1  1  0  0  0  0
  4  3  2  0  0  0  0
  5  2  2  0  0  0  0
  6 15  1  0  0  0  0
  6  7  1  0  0  0  0
  7 13  1  0  0  0  0
  8  4  1  0  0  0  0
  8 12  1  0  0  0  0
  9 10  1  0  0  0  0
 10  7  2  0  0  0  0
 11 14  1  0  0  0  0
 11  9  2  0  0  0  0
 13 12  2  0  0  0  0
 14  6  2  0  0  0  0
 15  8  2  0  0  0  0
 16 17  1  1  0  0  0
 16  2  1  0  0  0  0
 18 16  1  0  0  0  0
 19 18  1  0  0  0  0
 20 19  1  0  0  0  0
 21 20  1  0  0  0  0
 21 26  1  0  0  0  0
 22 21  1  0  0  0  0
 23 22  1  0  0  0  0
 24 23  1  0  0  0  0
 24 22  1  0  0  0  0
 25 26  1  0  0  0  0
M  END
>  <MODEL>
2

>  <REMARK>
 VINA RESULT:      -8.1      2.144      5.699
  Name = 
  8 active torsions:
  status: ('A' for Active; 'I' for Inactive)
    1  A    between atoms: C_1  and  C_10
    2  A    between atoms: C_1  and  C_21
    3  A    between atoms: C_3  and  C_21
    4  A    between atoms: C_3  and  C_23
    5  A    between atoms: C_5  and  N_18
    6  A    between atoms: C_8  and  C_14
    7  A    between atoms: N_18  and  C_23
    8  A    between atoms: N_18  and  C_24
                            x       y       z     vdW  Elec       q    Type
                         _______ _______ _______ _____ _____    ______ ____

>  <TORSDO>
F 8

$$$$
=
 OpenBabel11032421303D

 26 28  0  0  1  0  0  0  0  0999 V2000
  185.6060  178.7750  145.7430 N   0  0  0  0  0  2  0  0  0  0  0  0
  186.7020  177.8850  145.5110 C   0  0  0  0  0  0  0  0  0  0  0  0
  183.3630  179.2120  145.3580 O   0  0  0  0  0  0  0  0  0  0  0  0
  184.4950  178.9690  144.8580 C   0  0  0  0  0  0  0  0  0  0  0  0
  186.6320  176.9940  144.6210 O   0  0  0  0  0  0  0  0  0  0  0  0
  183.9510  178.1840  141.1990 C   0  0  0  0  0  0  0  0  0  0  0  0
  185.0210  178.8990  140.6280 C   0  0  0  0  0  0  0  0  0  0  0  0
  184.6450  178.9500  143.3880 C   0  0  0  0  0  0  0  0  0  0  0  0
  184.3750  178.1830  138.4600 C   0  0  0  0  0  3  0  0  0  0  0  0
  185.2060  178.8810  139.2810 N   0  0  0  0  0  0  0  0  0  0  0  0
  183.3010  177.4610  138.9920 C   0  0  0  0  0  3  0  0  0  0  0  0
  185.7060  179.6360  142.7770 C   0  0  0  0  0  3  0  0  0  0  0  0
  185.8690  179.6000  141.4270 N   0  0  0  0  0  0  0  0  0  0  0  0
  183.0900  177.4620  140.3730 C   0  0  0  0  0  3  0  0  0  0  0  0
  183.7710  178.2090  142.5800 C   0  0  0  0  0  3  0  0  0  0  0  0
  187.9270  178.0040  146.3510 C   0  0  1  0  0  3  0  0  0  0  0  0
  187.5850  177.9430  147.6920 F   0  0  0  0  0  0  0  0  0  0  0  0
  188.9050  176.8930  146.0000 C   0  0  0  0  0  2  0  0  0  0  0  0
  190.1970  177.0360  146.7850 C   0  0  0  0  0  2  0  0  0  0  0  0
  191.3990  177.0820  145.8370 C   0  0  0  0  0  2  0  0  0  0  0  0
  191.0290  176.9940  144.4170 N   0  0  0  0  0  0  0  0  0  0  0  0
  191.6570  178.0800  143.6690 C   0  0  0  0  0  3  0  0  0  0  0  0
  191.1870  179.4160  144.2170 C   0  0  0  0  0  2  0  0  0  0  0  0
  190.5920  178.8770  142.9360 C   0  0  0  0  0  2  0  0  0  0  0  0
  190.5080  175.1940  142.9470 N   0  0  0  0  0  1  0  0  0  0  0  0
  191.4980  175.7250  143.8680 C   0  0  0  0  0  2  0  0  0  0  0  0
  2  1  1  0  0  0  0
  2 16  1  0  0  0  0
  4  3  2  0  0  0  0
  4  1  1  0  0  0  0
  5  2  2  0  0  0  0
  6 15  1  0  0  0  0
  7  6  1  0  0  0  0
  7 13  1  0  0  0  0
  8  4  1  0  0  0  0
  9 11  2  0  0  0  0
  9 10  1  0  0  0  0
 10  7  2  0  0  0  0
 11 14  1  0  0  0  0
 12  8  1  0  0  0  0
 13 12  2  0  0  0  0
 14  6  2  0  0  0  0
 15  8  2  0  0  0  0
 16 17  1  1  0  0  0
 18 16  1  0  0  0  0
 18 19  1  0  0  0  0
 20 19  1  0  0  0  0
 21 20  1  0  0  0  0
 22 23  1  0  0  0  0
 22 21  1  0  0  0  0
 24 22  1  0  0  0  0
 24 23  1  0  0  0  0
 25 26  1  0  0  0  0
 26 21  1  0  0  0  0
M  END
>  <MODEL>
3

>  <REMARK>
 VINA RESULT:      -8.1      2.767      4.633
  Name = 
  8 active torsions:
  status: ('A' for Active; 'I' for Inactive)
    1  A    between atoms: C_1  and  C_10
    2  A    between atoms: C_1  and  C_21
    3  A    between atoms: C_3  and  C_21
    4  A    between atoms: C_3  and  C_23
    5  A    between atoms: C_5  and  N_18
    6  A    between atoms: C_8  and  C_14
    7  A    between atoms: N_18  and  C_23
    8  A    between atoms: N_18  and  C_24
                            x       y       z     vdW  Elec       q    Type
                         _______ _______ _______ _____ _____    ______ ____

>  <TORSDO>
F 8

$$$$
=
 OpenBabel11032421303D

 26 28  0  0  1  0  0  0  0  0999 V2000
  184.2430  178.1710  140.5800 N   0  0  0  0  0  2  0  0  0  0  0  0
  185.5380  178.7440  140.3760 C   0  0  0  0  0  0  0  0  0  0  0  0
  182.1590  178.4180  141.5620 O   0  0  0  0  0  0  0  0  0  0  0  0
  183.4090  178.3950  141.7230 C   0  0  0  0  0  0  0  0  0  0  0  0
  185.9300  179.7160  141.0780 O   0  0  0  0  0  0  0  0  0  0  0  0
  185.7070  178.1380  144.7160 C   0  0  0  0  0  0  0  0  0  0  0  0
  184.9220  178.7850  145.6900 C   0  0  0  0  0  0  0  0  0  0  0  0
  183.9620  178.5400  143.0870 C   0  0  1  0  0  3  0  0  0  0  0  0
  186.6070  178.4240  147.3210 C   0  0  0  0  0  3  0  0  0  0  0  0
  185.3880  178.9100  146.9610 N   0  0  0  0  0  0  0  0  0  0  0  0
  187.4140  177.7760  146.3810 C   0  0  0  0  0  3  0  0  0  0  0  0
  183.2080  179.1640  144.0930 C   0  0  0  0  0  3  0  0  0  0  0  0
  183.6980  179.2750  145.3570 N   0  0  0  0  0  0  0  0  0  0  0  0
  186.9580  177.6320  145.0680 C   0  0  0  0  0  2  0  0  0  0  0  0
  185.2190  178.0140  143.4170 C   0  0  0  0  0  3  0  0  0  0  0  0
  186.4160  178.1970  139.3040 C   0  0  1  0  0  3  0  0  0  0  0  0
  186.0990  178.7830  138.0910 F   0  0  0  0  0  0  0  0  0  0  0  0
  187.8750  178.4490  139.6530 C   0  0  0  0  0  2  0  0  0  0  0  0
  188.3720  177.4440  140.6790 C   0  0  0  0  0  2  0  0  0  0  0  0
  188.9540  178.1660  141.8980 C   0  0  0  0  0  2  0  0  0  0  0  0
  190.3020  177.7060  142.2630 N   0  0  0  0  0  0  0  0  0  0  0  0
  190.4470  177.6930  143.7160 C   0  0  0  0  0  3  0  0  0  0  0  0
  190.4130  179.1160  144.2460 C   0  0  0  0  0  2  0  0  0  0  0  0
  191.7350  178.3970  144.1070 C   0  0  0  0  0  2  0  0  0  0  0  0
  190.3050  175.3970  142.8440 N   0  0  0  0  0  1  0  0  0  0  0  0
  190.5060  176.3490  141.7660 C   0  0  0  0  0  2  0  0  0  0  0  0
  1  4  1  0  0  0  0
  2  1  1  0  0  0  0
  2  5  2  0  0  0  0
  3  4  2  0  0  0  0
  6 14  1  0  0  0  0
  6  7  1  0  0  0  0
  7 10  2  0  0  0  0
  8  4  1  1  0  0  0
  8 15  1  0  0  0  0
  8 12  1  0  0  0  0
 10  9  1  0  0  0  0
 11  9  2  0  0  0  0
 12 13  2  0  0  0  0
 13  7  1  0  0  0  0
 14 11  1  0  0  0  0
 15  6  2  0  0  0  0
 16 17  1  6  0  0  0
 16 18  1  0  0  0  0
 16  2  1  0  0  0  0
 18 19  1  0  0  0  0
 19 20  1  0  0  0  0
 20 21  1  0  0  0  0
 21 22  1  0  0  0  0
 22 24  1  0  0  0  0
 22 23  1  0  0  0  0
 24 23  1  0  0  0  0
 26 21  1  0  0  0  0
 26 25  1  0  0  0  0
M  END
>  <MODEL>
4

>  <REMARK>
 VINA RESULT:      -8.0      2.758      4.374
  Name = 
  8 active torsions:
  status: ('A' for Active; 'I' for Inactive)
    1  A    between atoms: C_1  and  C_10
    2  A    between atoms: C_1  and  C_21
    3  A    between atoms: C_3  and  C_21
    4  A    between atoms: C_3  and  C_23
    5  A    between atoms: C_5  and  N_18
    6  A    between atoms: C_8  and  C_14
    7  A    between atoms: N_18  and  C_23
    8  A    between atoms: N_18  and  C_24
                            x       y       z     vdW  Elec       q    Type
                         _______ _______ _______ _____ _____    ______ ____

>  <TORSDO>
F 8

$$$$
=
 OpenBabel11032421303D

 26 28  0  0  1  0  0  0  0  0999 V2000
  189.9390  177.7920  145.6980 N   0  0  0  0  0  2  0  0  0  0  0  0
  189.8790  177.8070  144.2690 C   0  0  0  0  0  0  0  0  0  0  0  0
  189.0910  176.8820  147.6530 O   0  0  0  0  0  0  0  0  0  0  0  0
  188.8450  177.4780  146.5700 C   0  0  0  0  0  0  0  0  0  0  0  0
  188.9130  177.2740  143.6580 O   0  0  0  0  0  0  0  0  0  0  0  0
  185.6530  178.2410  144.6920 C   0  0  0  0  0  0  0  0  0  0  0  0
  184.8490  178.7140  145.7470 C   0  0  0  0  0  0  0  0  0  0  0  0
  187.4550  177.8800  146.2670 C   0  0  0  0  0  0  0  0  0  0  0  0
  183.0480  179.0770  144.2450 C   0  0  0  0  0  3  0  0  0  0  0  0
  183.5750  179.1190  145.4990 N   0  0  0  0  0  0  0  0  0  0  0  0
  183.8170  178.6130  143.1730 C   0  0  0  0  0  3  0  0  0  0  0  0
  186.6240  178.3720  147.2840 C   0  0  0  0  0  3  0  0  0  0  0  0
  185.3530  178.7700  147.0090 N   0  0  0  0  0  0  0  0  0  0  0  0
  185.1290  178.1930  143.4000 C   0  0  0  0  0  3  0  0  0  0  0  0
  186.9570  177.8290  144.9570 C   0  0  0  0  0  3  0  0  0  0  0  0
  190.9880  178.4400  143.5000 C   0  0  1  0  0  3  0  0  0  0  0  0
  191.7880  179.1810  144.3530 F   0  0  0  0  0  0  0  0  0  0  0  0
  191.8080  177.3680  142.7980 C   0  0  0  0  0  2  0  0  0  0  0  0
  191.6270  177.4420  141.2920 C   0  0  0  0  0  2  0  0  0  0  0  0
  190.4140  176.6150  140.8550 C   0  0  0  0  0  2  0  0  0  0  0  0
  190.0940  176.7510  139.4270 N   0  0  0  0  0  0  0  0  0  0  0  0
  189.4880  178.0550  139.1740 C   0  0  0  0  0  3  0  0  0  0  0  0
  188.3760  178.3050  140.1780 C   0  0  0  0  0  2  0  0  0  0  0  0
  188.0350  177.8730  138.7700 C   0  0  0  0  0  2  0  0  0  0  0  0
  191.0060  176.7700  137.2280 N   0  0  0  0  0  1  0  0  0  0  0  0
  191.3200  176.6510  138.6410 C   0  0  0  0  0  2  0  0  0  0  0  0
  1  4  1  0  0  0  0
  2  1  1  0  0  0  0
  4  3  2  0  0  0  0
  5  2  2  0  0  0  0
  6 15  1  0  0  0  0
  6  7  1  0  0  0  0
  7 13  1  0  0  0  0
  8  4  1  0  0  0  0
  8 12  1  0  0  0  0
  9 10  1  0  0  0  0
 10  7  2  0  0  0  0
 11 14  1  0  0  0  0
 11  9  2  0  0  0  0
 13 12  2  0  0  0  0
 14  6  2  0  0  0  0
 15  8  2  0  0  0  0
 16  2  1  0  0  0  0
 16 17  1  1  0  0  0
 18 16  1  0  0  0  0
 19 18  1  0  0  0  0
 20 19  1  0  0  0  0
 21 20  1  0  0  0  0
 22 21  1  0  0  0  0
 22 23  1  0  0  0  0
 24 22  1  0  0  0  0
 24 23  1  0  0  0  0
 25 26  1  0  0  0  0
 26 21  1  0  0  0  0
M  END
>  <MODEL>
5

>  <REMARK>
 VINA RESULT:      -7.8      2.285      5.504
  Name = 
  8 active torsions:
  status: ('A' for Active; 'I' for Inactive)
    1  A    between atoms: C_1  and  C_10
    2  A    between atoms: C_1  and  C_21
    3  A    between atoms: C_3  and  C_21
    4  A    between atoms: C_3  and  C_23
    5  A    between atoms: C_5  and  N_18
    6  A    between atoms: C_8  and  C_14
    7  A    between atoms: N_18  and  C_23
    8  A    between atoms: N_18  and  C_24
                            x       y       z     vdW  Elec       q    Type
                         _______ _______ _______ _____ _____    ______ ____

>  <TORSDO>
F 8

$$$$
=
 OpenBabel11032421303D

 26 28  0  0  1  0  0  0  0  0999 V2000
  189.4400  177.5780  142.3660 N   0  0  0  0  0  2  0  0  0  0  0  0
  190.0520  176.5540  143.1560 C   0  0  0  0  0  0  0  0  0  0  0  0
  188.4410  178.1160  140.3460 O   0  0  0  0  0  0  0  0  0  0  0  0
  189.4470  177.6350  140.9340 C   0  0  0  0  0  0  0  0  0  0  0  0
  190.4170  175.4670  142.6310 O   0  0  0  0  0  0  0  0  0  0  0  0
  191.5700  175.9690  138.2860 C   0  0  0  0  0  0  0  0  0  0  0  0
  192.8540  176.3700  138.7050 C   0  0  0  0  0  0  0  0  0  0  0  0
  190.6130  177.2040  140.1330 C   0  0  0  0  0  0  0  0  0  0  0  0
  193.8400  175.1820  136.9040 C   0  0  0  0  0  3  0  0  0  0  0  0
  193.9500  175.9680  138.0090 N   0  0  0  0  0  0  0  0  0  0  0  0
  192.5820  174.7640  136.4580 C   0  0  0  0  0  3  0  0  0  0  0  0
  191.9110  177.5680  140.5230 C   0  0  0  0  0  3  0  0  0  0  0  0
  192.9910  177.1520  139.8090 N   0  0  0  0  0  0  0  0  0  0  0  0
  191.4400  175.1610  137.1560 C   0  0  0  0  0  3  0  0  0  0  0  0
  190.4540  176.3850  139.0070 C   0  0  0  0  0  3  0  0  0  0  0  0
  190.2330  176.7730  144.6190 C   0  0  1  0  0  3  0  0  0  0  0  0
  191.5790  176.9160  144.9100 F   0  0  0  0  0  0  0  0  0  0  0  0
  189.4580  178.0070  145.0560 C   0  0  0  0  0  2  0  0  0  0  0  0
  188.2650  177.6260  145.9160 C   0  0  0  0  0  2  0  0  0  0  0  0
  187.0340  177.3720  145.0420 C   0  0  0  0  0  2  0  0  0  0  0  0
  185.9950  178.4020  145.1780 N   0  0  0  0  0  0  0  0  0  0  0  0
  184.9940  178.2460  144.1260 C   0  0  0  0  0  3  0  0  0  0  0  0
  185.6590  178.3780  142.7660 C   0  0  0  0  0  2  0  0  0  0  0  0
  184.8760  179.5390  143.3370 C   0  0  0  0  0  2  0  0  0  0  0  0
  185.6780  179.3780  147.3280 N   0  0  0  0  0  1  0  0  0  0  0  0
  185.3310  178.2580  146.4700 C   0  0  0  0  0  2  0  0  0  0  0  0
  1  2  1  0  0  0  0
  2 16  1  0  0  0  0
  3  4  2  0  0  0  0
  4  1  1  0  0  0  0
  5  2  2  0  0  0  0
  6  7  1  0  0  0  0
  6 15  1  0  0  0  0
  7 13  1  0  0  0  0
  8 12  1  0  0  0  0
  8  4  1  0  0  0  0
  9 10  1  0  0  0  0
 10  7  2  0  0  0  0
 11  9  2  0  0  0  0
 11 14  1  0  0  0  0
 13 12  2  0  0  0  0
 14  6  2  0  0  0  0
 15  8  2  0  0  0  0
 16 17  1  6  0  0  0
 16 18  1  0  0  0  0
 18 19  1  0  0  0  0
 20 21  1  0  0  0  0
 20 19  1  0  0  0  0
 21 26  1  0  0  0  0
 22 21  1  0  0  0  0
 23 24  1  0  0  0  0
 23 22  1  0  0  0  0
 24 22  1  0  0  0  0
 26 25  1  0  0  0  0
M  END
>  <MODEL>
6

>  <REMARK>
 VINA RESULT:      -7.7      3.199      6.925
  Name = 
  8 active torsions:
  status: ('A' for Active; 'I' for Inactive)
    1  A    between atoms: C_1  and  C_10
    2  A    between atoms: C_1  and  C_21
    3  A    between atoms: C_3  and  C_21
    4  A    between atoms: C_3  and  C_23
    5  A    between atoms: C_5  and  N_18
    6  A    between atoms: C_8  and  C_14
    7  A    between atoms: N_18  and  C_23
    8  A    between atoms: N_18  and  C_24
                            x       y       z     vdW  Elec       q    Type
                         _______ _______ _______ _____ _____    ______ ____

>  <TORSDO>
F 8

$$$$
=
 OpenBabel11032421303D

 26 28  0  0  1  0  0  0  0  0999 V2000
  189.3760  177.7430  146.6550 N   0  0  0  0  0  2  0  0  0  0  0  0
  189.6940  177.3280  145.3230 C   0  0  0  0  0  0  0  0  0  0  0  0
  187.9650  177.4730  148.4730 O   0  0  0  0  0  0  0  0  0  0  0  0
  188.0690  177.7180  147.2410 C   0  0  0  0  0  0  0  0  0  0  0  0
  188.8750  176.6480  144.6470 O   0  0  0  0  0  0  0  0  0  0  0  0
  185.6800  178.2200  144.3530 C   0  0  0  0  0  0  0  0  0  0  0  0
  184.5460  178.6880  145.0440 C   0  0  0  0  0  0  0  0  0  0  0  0
  186.8500  178.0260  146.4620 C   0  0  0  0  0  0  0  0  0  0  0  0
  183.3520  178.8860  143.0030 C   0  0  0  0  0  3  0  0  0  0  0  0
  183.4170  179.0080  144.3570 N   0  0  0  0  0  0  0  0  0  0  0  0
  184.4590  178.4260  142.2820 C   0  0  0  0  0  3  0  0  0  0  0  0
  185.7020  178.5090  147.1090 C   0  0  0  0  0  3  0  0  0  0  0  0
  184.5860  178.8230  146.3970 N   0  0  0  0  0  0  0  0  0  0  0  0
  185.6310  178.0910  142.9650 C   0  0  0  0  0  3  0  0  0  0  0  0
  186.8310  177.8960  145.0670 C   0  0  0  0  0  3  0  0  0  0  0  0
  191.0190  177.6880  144.7450 C   0  0  1  0  0  3  0  0  0  0  0  0
  191.7980  176.5510  144.6100 F   0  0  0  0  0  0  0  0  0  0  0  0
  190.8280  178.3660  143.3960 C   0  0  0  0  0  2  0  0  0  0  0  0
  191.5410  177.6000  142.2950 C   0  0  0  0  0  2  0  0  0  0  0  0
  190.5580  176.6900  141.5520 C   0  0  0  0  0  2  0  0  0  0  0  0
  189.9760  177.3090  140.3530 N   0  0  0  0  0  0  0  0  0  0  0  0
  190.1470  176.4270  139.2020 C   0  0  0  0  0  3  0  0  0  0  0  0
  191.5980  176.4490  138.7520 C   0  0  0  0  0  2  0  0  0  0  0  0
  190.5610  177.2430  137.9900 C   0  0  0  0  0  2  0  0  0  0  0  0
  188.1240  178.7160  139.8430 N   0  0  0  0  0  1  0  0  0  0  0  0
  188.5480  177.5270  140.5600 C   0  0  0  0  0  2  0  0  0  0  0  0
  1  4  1  0  0  0  0
  2  1  1  0  0  0  0
  4  3  2  0  0  0  0
  5  2  2  0  0  0  0
  6  7  1  0  0  0  0
  6 15  1  0  0  0  0
  7 13  1  0  0  0  0
  8 12  1  0  0  0  0
  8  4  1  0  0  0  0
  9 10  1  0  0  0  0
 10  7  2  0  0  0  0
 11 14  1  0  0  0  0
 11  9  2  0  0  0  0
 13 12  2  0  0  0  0
 14  6  2  0  0  0  0
 15  8  2  0  0  0  0
 16 17  1  6  0  0  0
 16  2  1  0  0  0  0
 18 16  1  0  0  0  0
 19 18  1  0  0  0  0
 20 19  1  0  0  0  0
 21 26  1  0  0  0  0
 21 20  1  0  0  0  0
 22 21  1  0  0  0  0
 23 22  1  0  0  0  0
 24 23  1  0  0  0  0
 24 22  1  0  0  0  0
 25 26  1  0  0  0  0
M  END
>  <MODEL>
7

>  <REMARK>
 VINA RESULT:      -7.7      2.208      5.549
  Name = 
  8 active torsions:
  status: ('A' for Active; 'I' for Inactive)
    1  A    between atoms: C_1  and  C_10
    2  A    between atoms: C_1  and  C_21
    3  A    between atoms: C_3  and  C_21
    4  A    between atoms: C_3  and  C_23
    5  A    between atoms: C_5  and  N_18
    6  A    between atoms: C_8  and  C_14
    7  A    between atoms: N_18  and  C_23
    8  A    between atoms: N_18  and  C_24
                            x       y       z     vdW  Elec       q    Type
                         _______ _______ _______ _____ _____    ______ ____

>  <TORSDO>
F 8

$$$$
=
 OpenBabel11032421303D

 26 28  0  0  1  0  0  0  0  0999 V2000
  183.7700  178.7800  143.1950 N   0  0  0  0  0  2  0  0  0  0  0  0
  184.5870  179.1590  142.0830 C   0  0  0  0  0  0  0  0  0  0  0  0
  183.3850  179.0040  145.4690 O   0  0  0  0  0  0  0  0  0  0  0  0
  184.2060  178.7110  144.5580 C   0  0  0  0  0  0  0  0  0  0  0  0
  185.6980  179.7280  142.2640 O   0  0  0  0  0  0  0  0  0  0  0  0
  187.3630  178.0570  146.5350 C   0  0  0  0  0  0  0  0  0  0  0  0
  188.1510  177.4320  145.5490 C   0  0  0  0  0  0  0  0  0  0  0  0
  185.5630  178.2550  144.9300 C   0  0  1  0  0  3  0  0  0  0  0  0
  189.9410  177.2060  147.0890 C   0  0  0  0  0  3  0  0  0  0  0  0
  189.4130  177.0250  145.8480 N   0  0  0  0  0  0  0  0  0  0  0  0
  189.1890  177.8240  148.0940 C   0  0  0  0  0  3  0  0  0  0  0  0
  186.3880  177.6400  143.9750 C   0  0  0  0  0  3  0  0  0  0  0  0
  187.6470  177.2430  144.3000 N   0  0  0  0  0  0  0  0  0  0  0  0
  187.8900  178.2520  147.8120 C   0  0  0  0  0  2  0  0  0  0  0  0
  186.0710  178.4710  146.2180 C   0  0  0  0  0  3  0  0  0  0  0  0
  184.1010  178.8980  140.6990 C   0  0  1  0  0  3  0  0  0  0  0  0
  185.1700  178.5860  139.8760 F   0  0  0  0  0  0  0  0  0  0  0  0
  183.0890  177.7620  140.7130 C   0  0  0  0  0  2  0  0  0  0  0  0
  181.7240  178.2420  140.2520 C   0  0  0  0  0  2  0  0  0  0  0  0
  180.6380  177.7970  141.2360 C   0  0  0  0  0  2  0  0  0  0  0  0
  179.7540  178.8900  141.6670 N   0  0  0  0  0  0  0  0  0  0  0  0
  180.1850  179.3970  142.9670 C   0  0  0  0  0  3  0  0  0  0  0  0
  180.2560  178.2540  143.9640 C   0  0  0  0  0  2  0  0  0  0  0  0
  179.0760  179.1990  143.9860 C   0  0  0  0  0  2  0  0  0  0  0  0
  179.6800  181.2530  141.3870 N   0  0  0  0  0  1  0  0  0  0  0  0
  179.8190  179.9810  140.7000 C   0  0  0  0  0  2  0  0  0  0  0  0
  1  4  1  0  0  0  0
  2  5  2  0  0  0  0
  2  1  1  0  0  0  0
  4  3  2  0  0  0  0
  6 14  1  0  0  0  0
  7 10  2  0  0  0  0
  7  6  1  0  0  0  0
  8  4  1  6  0  0  0
  8 15  1  0  0  0  0
  9 11  2  0  0  0  0
 10  9  1  0  0  0  0
 12 13  2  0  0  0  0
 12  8  1  0  0  0  0
 13  7  1  0  0  0  0
 14 11  1  0  0  0  0
 15  6  2  0  0  0  0
 16 17  1  6  0  0  0
 16 18  1  0  0  0  0
 16  2  1  0  0  0  0
 19 18  1  0  0  0  0
 19 20  1  0  0  0  0
 20 21  1  0  0  0  0
 21 22  1  0  0  0  0
 22 23  1  0  0  0  0
 22 24  1  0  0  0  0
 23 24  1  0  0  0  0
 26 25  1  0  0  0  0
 26 21  1  0  0  0  0
M  END
>  <MODEL>
8

>  <REMARK>
 VINA RESULT:      -7.5      3.539      8.260
  Name = 
  8 active torsions:
  status: ('A' for Active; 'I' for Inactive)
    1  A    between atoms: C_1  and  C_10
    2  A    between atoms: C_1  and  C_21
    3  A    between atoms: C_3  and  C_21
    4  A    between atoms: C_3  and  C_23
    5  A    between atoms: C_5  and  N_18
    6  A    between atoms: C_8  and  C_14
    7  A    between atoms: N_18  and  C_23
    8  A    between atoms: N_18  and  C_24
                            x       y       z     vdW  Elec       q    Type
                         _______ _______ _______ _____ _____    ______ ____

>  <TORSDO>
F 8

$$$$
=
 OpenBabel11032421303D

 26 28  0  0  1  0  0  0  0  0999 V2000
  190.4450  176.7860  140.7260 N   0  0  0  0  0  2  0  0  0  0  0  0
  189.4540  177.3240  141.6060 C   0  0  0  0  0  0  0  0  0  0  0  0
  191.7210  177.1250  138.8230 O   0  0  0  0  0  0  0  0  0  0  0  0
  190.5690  177.0920  139.3320 C   0  0  0  0  0  0  0  0  0  0  0  0
  188.7720  178.3310  141.2710 O   0  0  0  0  0  0  0  0  0  0  0  0
  187.5030  176.4690  137.2080 C   0  0  0  0  0  0  0  0  0  0  0  0
  187.2260  177.7810  136.7770 C   0  0  0  0  0  0  0  0  0  0  0  0
  189.3910  177.3120  138.4650 C   0  0  0  0  0  0  0  0  0  0  0  0
  185.3580  177.0060  135.5360 C   0  0  0  0  0  3  0  0  0  0  0  0
  186.1680  178.0150  135.9560 N   0  0  0  0  0  0  0  0  0  0  0  0
  185.6020  175.6900  135.9430 C   0  0  0  0  0  3  0  0  0  0  0  0
  189.0870  178.6010  138.0000 C   0  0  0  0  0  3  0  0  0  0  0  0
  188.0220  178.8070  137.1790 N   0  0  0  0  0  0  0  0  0  0  0  0
  186.6840  175.4220  136.7860 C   0  0  0  0  0  3  0  0  0  0  0  0
  188.5900  176.2400  138.0480 C   0  0  0  0  0  3  0  0  0  0  0  0
  189.2490  176.6980  142.9430 C   0  0  1  0  0  3  0  0  0  0  0  0
  188.0520  176.0010  142.9570 F   0  0  0  0  0  0  0  0  0  0  0  0
  190.4110  175.7680  143.2610 C   0  0  0  0  0  2  0  0  0  0  0  0
  191.3260  176.3790  144.3080 C   0  0  0  0  0  2  0  0  0  0  0  0
  190.5390  177.3180  145.2270 C   0  0  0  0  0  2  0  0  0  0  0  0
  190.8100  177.1040  146.6560 N   0  0  0  0  0  0  0  0  0  0  0  0
  189.5750  176.7560  147.3530 C   0  0  0  0  0  3  0  0  0  0  0  0
  188.4220  177.5630  146.7820 C   0  0  0  0  0  2  0  0  0  0  0  0
  189.0480  177.9700  148.0970 C   0  0  0  0  0  2  0  0  0  0  0  0
  192.4830  176.1560  148.0610 N   0  0  0  0  0  1  0  0  0  0  0  0
  191.7560  176.0030  146.8130 C   0  0  0  0  0  2  0  0  0  0  0  0
  1  2  1  0  0  0  0
  2 16  1  0  0  0  0
  3  4  2  0  0  0  0
  4  1  1  0  0  0  0
  5  2  2  0  0  0  0
  6 15  1  0  0  0  0
  7 13  1  0  0  0  0
  7  6  1  0  0  0  0
  8  4  1  0  0  0  0
  9 11  2  0  0  0  0
  9 10  1  0  0  0  0
 10  7  2  0  0  0  0
 11 14  1  0  0  0  0
 12  8  1  0  0  0  0
 13 12  2  0  0  0  0
 14  6  2  0  0  0  0
 15  8  2  0  0  0  0
 16 17  1  6  0  0  0
 16 18  1  0  0  0  0
 18 19  1  0  0  0  0
 19 20  1  0  0  0  0
 20 21  1  0  0  0  0
 21 26  1  0  0  0  0
 21 22  1  0  0  0  0
 22 24  1  0  0  0  0
 23 22  1  0  0  0  0
 23 24  1  0  0  0  0
 26 25  1  0  0  0  0
M  END
>  <MODEL>
9

>  <REMARK>
 VINA RESULT:      -7.4      3.161      4.726
  Name = 
  8 active torsions:
  status: ('A' for Active; 'I' for Inactive)
    1  A    between atoms: C_1  and  C_10
    2  A    between atoms: C_1  and  C_21
    3  A    between atoms: C_3  and  C_21
    4  A    between atoms: C_3  and  C_23
    5  A    between atoms: C_5  and  N_18
    6  A    between atoms: C_8  and  C_14
    7  A    between atoms: N_18  and  C_23
    8  A    between atoms: N_18  and  C_24
                            x       y       z     vdW  Elec       q    Type
                         _______ _______ _______ _____ _____    ______ ____

>  <TORSDO>
F 8

$$$$
