=
 OpenBabel11032421293D

 26 30  0  0  1  0  0  0  0  0999 V2000
  189.6380  177.4030  143.6610 C   0  0  1  0  0  0  0  0  0  0  0  0
  191.0990  177.7590  143.9350 C   0  0  1  0  0  3  0  0  0  0  0  0
  189.5030  176.5860  142.3910 C   0  0  2  0  0  3  0  0  0  0  0  0
  191.4910  177.4950  145.3100 N   0  0  0  0  0  1  0  0  0  0  0  0
  190.7510  176.4540  143.2460 C   0  0  2  0  0  3  0  0  0  0  0  0
  189.7450  176.6630  138.8190 C   0  0  2  0  0  3  0  0  0  0  0  0
  188.4240  177.3880  139.0940 C   0  0  1  0  0  3  0  0  0  0  0  0
  188.4900  177.8440  140.5080 C   0  0  0  0  0  0  0  0  0  0  0  0
  187.5210  178.5390  141.1070 C   0  0  0  0  0  2  0  0  0  0  0  0
  190.5400  176.6580  140.1270 C   0  0  2  0  0  3  0  0  0  0  0  0
  189.7670  177.4640  141.1720 C   0  0  2  0  0  3  0  0  0  0  0  0
  190.9730  177.5500  138.9820 C   0  0  0  0  0  2  0  0  0  0  0  0
  189.0790  179.3630  137.8300 N   0  0  0  0  0  2  0  0  0  0  0  0
  186.9070  178.5740  137.4170 N   0  0  0  0  0  2  0  0  0  0  0  0
  188.1580  178.4980  138.1040 C   0  0  0  0  0  0  0  0  0  0  0  0
  184.7650  178.1750  138.5040 C   0  0  0  0  0  1  0  0  0  0  0  0
  185.8370  177.6040  137.5960 C   0  0  0  0  0  2  0  0  0  0  0  0
  188.8780  176.7560  144.8130 C   0  0  0  0  0  2  0  0  0  0  0  0
  186.0520  178.5840  146.5780 C   0  0  0  0  0  3  0  0  0  0  0  0
  183.9530  179.2660  145.7130 O   0  0  0  0  0  0  0  0  0  0  0  0
  186.7080  177.5220  143.9890 C   0  0  0  0  0  3  0  0  0  0  0  0
  187.5730  177.4440  145.0100 C   0  0  0  0  0  0  0  0  0  0  0  0
  185.0620  178.7090  145.4980 C   0  0  0  0  0  0  0  0  0  0  0  0
  187.2290  177.9900  146.3460 C   0  0  0  0  0  3  0  0  0  0  0  0
  185.3990  178.1680  144.1710 C   0  0  0  0  0  0  0  0  0  0  0  0
  184.5720  178.2520  143.1820 N   0  0  0  0  0  2  0  0  0  0  0  0
  1  2  1  0  0  0  0
  1 18  1  1  0  0  0
  2  4  1  1  0  0  0
  3 11  1  6  0  0  0
  3  5  1  0  0  0  0
  3  1  1  0  0  0  0
  5  1  1  0  0  0  0
  5  2  1  0  0  0  0
  6 12  1  0  0  0  0
  6  7  1  0  0  0  0
  6 10  1  0  0  0  0
  7  8  1  0  0  0  0
  8  9  2  0  0  0  0
  8 11  1  0  0  0  0
 10 11  1  0  0  0  0
 12 10  1  0  0  0  0
 13 15  2  0  0  0  0
 14 17  1  0  0  0  0
 14 15  1  0  0  0  0
 15  7  1  0  0  0  0
 17 16  1  0  0  0  0
 18 22  1  0  0  0  0
 21 25  1  0  0  0  0
 21 22  2  0  0  0  0
 22 24  1  0  0  0  0
 23 20  2  0  0  0  0
 23 19  1  0  0  0  0
 24 19  2  0  0  0  0
 25 23  1  0  0  0  0
 26 25  2  0  0  0  0
M  END
>  <MODEL>
1

>  <REMARK>
 VINA RESULT:      -8.9      0.000      0.000
  Name = 
  5 active torsions:
  status: ('A' for Active; 'I' for Inactive)
    1  A    between atoms: C_3  and  C_26
    2  A    between atoms: C_4  and  C_6
    3  A    between atoms: C_4  and  C_16
    4  A    between atoms: C_11  and  C_12
    5  A    between atoms: N_13  and  C_25
                            x       y       z     vdW  Elec       q    Type
                         _______ _______ _______ _____ _____    ______ ____

>  <TORSDO>
F 5

$$$$
=
 OpenBabel11032421293D

 26 30  0  0  1  0  0  0  0  0999 V2000
  185.5230  178.4720  144.4050 C   0  0  1  0  0  0  0  0  0  0  0  0
  184.9600  179.2540  145.5920 C   0  0  1  0  0  3  0  0  0  0  0  0
  186.4460  177.3630  144.8690 C   0  0  2  0  0  3  0  0  0  0  0  0
  183.5220  179.4470  145.5050 N   0  0  0  0  0  1  0  0  0  0  0  0
  185.2680  177.7770  145.7340 C   0  0  2  0  0  3  0  0  0  0  0  0
  189.2370  176.8400  147.0520 C   0  0  2  0  0  3  0  0  0  0  0  0
  189.8490  176.6720  145.6570 C   0  0  1  0  0  3  0  0  0  0  0  0
  188.9220  177.3530  144.7150 C   0  0  0  0  0  0  0  0  0  0  0  0
  189.1340  177.4360  143.4000 C   0  0  0  0  0  2  0  0  0  0  0  0
  187.9070  177.5770  146.8770 C   0  0  2  0  0  3  0  0  0  0  0  0
  187.7470  177.9540  145.4030 C   0  0  2  0  0  3  0  0  0  0  0  0
  189.0950  178.2950  147.4830 C   0  0  0  0  0  2  0  0  0  0  0  0
  191.5770  178.1690  144.8220 N   0  0  0  0  0  2  0  0  0  0  0  0
  192.2890  176.5910  146.4070 N   0  0  0  0  0  2  0  0  0  0  0  0
  191.2720  177.1730  145.5870 C   0  0  0  0  0  0  0  0  0  0  0  0
  192.8260  175.7510  148.6290 C   0  0  0  0  0  1  0  0  0  0  0  0
  192.0320  175.5190  147.3580 C   0  0  0  0  0  2  0  0  0  0  0  0
  184.5010  177.9490  143.4020 C   0  0  0  0  0  2  0  0  0  0  0  0
  184.3510  178.5120  139.6460 C   0  0  0  0  0  3  0  0  0  0  0  0
  186.1330  178.8590  138.1220 O   0  0  0  0  0  0  0  0  0  0  0  0
  186.2780  178.3470  141.7720 C   0  0  0  0  0  3  0  0  0  0  0  0
  184.9660  178.2220  142.0150 C   0  0  0  0  0  0  0  0  0  0  0  0
  185.7750  178.6660  139.3140 C   0  0  0  0  0  0  0  0  0  0  0  0
  183.9750  178.3040  140.9140 C   0  0  0  0  0  3  0  0  0  0  0  0
  186.7620  178.5840  140.4040 C   0  0  0  0  0  0  0  0  0  0  0  0
  188.0270  178.7160  140.1740 N   0  0  0  0  0  2  0  0  0  0  0  0
  1 18  1  6  0  0  0
  1  3  1  0  0  0  0
  1  2  1  0  0  0  0
  1  5  1  0  0  0  0
  2  4  1  6  0  0  0
  2  5  1  0  0  0  0
  3 11  1  1  0  0  0
  3  5  1  0  0  0  0
  6 12  1  0  0  0  0
  7  6  1  0  0  0  0
  8 11  1  0  0  0  0
  8  7  1  0  0  0  0
  9  8  2  0  0  0  0
 10  6  1  0  0  0  0
 10 12  1  0  0  0  0
 11 10  1  0  0  0  0
 13 15  2  0  0  0  0
 14 17  1  0  0  0  0
 15  7  1  0  0  0  0
 15 14  1  0  0  0  0
 17 16  1  0  0  0  0
 19 24  2  0  0  0  0
 20 23  2  0  0  0  0
 21 22  2  0  0  0  0
 22 18  1  0  0  0  0
 23 19  1  0  0  0  0
 23 25  1  0  0  0  0
 24 22  1  0  0  0  0
 25 21  1  0  0  0  0
 26 25  2  0  0  0  0
M  END
>  <MODEL>
2

>  <REMARK>
 VINA RESULT:      -8.0      2.624      7.069
  Name = 
  5 active torsions:
  status: ('A' for Active; 'I' for Inactive)
    1  A    between atoms: C_3  and  C_26
    2  A    between atoms: C_4  and  C_6
    3  A    between atoms: C_4  and  C_16
    4  A    between atoms: C_11  and  C_12
    5  A    between atoms: N_13  and  C_25
                            x       y       z     vdW  Elec       q    Type
                         _______ _______ _______ _____ _____    ______ ____

>  <TORSDO>
F 5

$$$$
=
 OpenBabel11032421293D

 26 30  0  0  1  0  0  0  0  0999 V2000
  187.8260  177.5660  146.4890 C   0  0  1  0  0  0  0  0  0  0  0  0
  187.0410  177.5070  147.7990 C   0  0  1  0  0  3  0  0  0  0  0  0
  187.2780  178.6420  145.5720 C   0  0  2  0  0  3  0  0  0  0  0  0
  187.9050  177.4700  148.9680 N   0  0  0  0  0  1  0  0  0  0  0  0
  187.2150  178.8280  147.0780 C   0  0  2  0  0  3  0  0  0  0  0  0
  184.2070  179.7800  144.1240 C   0  0  2  0  0  3  0  0  0  0  0  0
  184.9290  179.1270  142.9400 C   0  0  1  0  0  3  0  0  0  0  0  0
  185.9390  178.2070  143.5300 C   0  0  0  0  0  0  0  0  0  0  0  0
  186.7530  177.4400  142.8030 C   0  0  0  0  0  2  0  0  0  0  0  0
  184.8710  179.2620  145.4020 C   0  0  2  0  0  3  0  0  0  0  0  0
  185.9220  178.2190  145.0180 C   0  0  2  0  0  3  0  0  0  0  0  0
  183.4840  178.7840  145.0220 C   0  0  0  0  0  2  0  0  0  0  0  0
  182.8380  178.0050  142.3990 N   0  0  0  0  0  2  0  0  0  0  0  0
  184.2910  178.3590  140.5910 N   0  0  0  0  0  2  0  0  0  0  0  0
  183.9750  178.4560  141.9810 C   0  0  0  0  0  0  0  0  0  0  0  0
  185.6940  178.3740  138.6000 C   0  0  0  0  0  1  0  0  0  0  0  0
  185.5080  178.9050  140.0080 C   0  0  0  0  0  2  0  0  0  0  0  0
  189.3410  177.6760  146.6190 C   0  0  0  0  0  2  0  0  0  0  0  0
  191.2630  178.8400  143.5540 C   0  0  0  0  0  3  0  0  0  0  0  0
  191.6580  177.6880  141.5200 O   0  0  0  0  0  0  0  0  0  0  0  0
  189.8220  176.5430  144.5070 C   0  0  0  0  0  3  0  0  0  0  0  0
  189.9700  177.6350  145.2710 C   0  0  0  0  0  0  0  0  0  0  0  0
  191.1430  177.6710  142.6690 C   0  0  0  0  0  0  0  0  0  0  0  0
  190.7120  178.8190  144.7730 C   0  0  0  0  0  3  0  0  0  0  0  0
  190.4070  176.4930  143.1590 C   0  0  0  0  0  0  0  0  0  0  0  0
  190.2720  175.4360  142.4290 N   0  0  0  0  0  2  0  0  0  0  0  0
  1 18  1  1  0  0  0
  1  5  1  0  0  0  0
  1  2  1  0  0  0  0
  2  4  1  1  0  0  0
  3 11  1  1  0  0  0
  3  1  1  0  0  0  0
  3  5  1  0  0  0  0
  5  2  1  0  0  0  0
  6 12  1  0  0  0  0
  6 10  1  0  0  0  0
  7  8  1  0  0  0  0
  7  6  1  0  0  0  0
  8 11  1  0  0  0  0
  9  8  2  0  0  0  0
 11 10  1  0  0  0  0
 12 10  1  0  0  0  0
 14 15  1  0  0  0  0
 15 13  2  0  0  0  0
 15  7  1  0  0  0  0
 16 17  1  0  0  0  0
 17 14  1  0  0  0  0
 19 24  2  0  0  0  0
 20 23  2  0  0  0  0
 21 22  2  0  0  0  0
 22 18  1  0  0  0  0
 23 25  1  0  0  0  0
 23 19  1  0  0  0  0
 24 22  1  0  0  0  0
 25 21  1  0  0  0  0
 26 25  2  0  0  0  0
M  END
>  <MODEL>
3

>  <REMARK>
 VINA RESULT:      -7.7      2.984      5.612
  Name = 
  5 active torsions:
  status: ('A' for Active; 'I' for Inactive)
    1  A    between atoms: C_3  and  C_26
    2  A    between atoms: C_4  and  C_6
    3  A    between atoms: C_4  and  C_16
    4  A    between atoms: C_11  and  C_12
    5  A    between atoms: N_13  and  C_25
                            x       y       z     vdW  Elec       q    Type
                         _______ _______ _______ _____ _____    ______ ____

>  <TORSDO>
F 5

$$$$
=
 OpenBabel11032421293D

 26 30  0  0  1  0  0  0  0  0999 V2000
  185.7840  178.6130  144.2960 C   0  0  1  0  0  0  0  0  0  0  0  0
  186.0040  178.7490  145.8030 C   0  0  1  0  0  3  0  0  0  0  0  0
  186.5820  177.4560  143.7290 C   0  0  2  0  0  3  0  0  0  0  0  0
  184.7590  178.8990  146.5390 N   0  0  0  0  0  1  0  0  0  0  0  0
  186.0480  177.3830  145.1490 C   0  0  2  0  0  3  0  0  0  0  0  0
  189.9040  176.1260  143.5880 C   0  0  2  0  0  3  0  0  0  0  0  0
  189.7230  176.7570  142.2030 C   0  0  1  0  0  3  0  0  0  0  0  0
  188.6180  177.7440  142.3420 C   0  0  0  0  0  0  0  0  0  0  0  0
  188.1850  178.5120  141.3400 C   0  0  0  0  0  2  0  0  0  0  0  0
  188.8350  176.7280  144.5040 C   0  0  2  0  0  3  0  0  0  0  0  0
  188.0690  177.7970  143.7240 C   0  0  2  0  0  3  0  0  0  0  0  0
  190.2870  177.1290  144.6690 C   0  0  0  0  0  2  0  0  0  0  0  0
  191.8300  177.9490  142.4540 N   0  0  0  0  0  2  0  0  0  0  0  0
  191.3510  177.1910  140.2860 N   0  0  0  0  0  2  0  0  0  0  0  0
  191.0050  177.3440  141.6640 C   0  0  0  0  0  0  0  0  0  0  0  0
  189.9500  177.4140  138.3060 C   0  0  0  0  0  1  0  0  0  0  0  0
  190.5290  176.4600  139.3320 C   0  0  0  0  0  2  0  0  0  0  0  0
  184.3340  178.5580  143.8320 C   0  0  0  0  0  2  0  0  0  0  0  0
  185.1240  179.2700  140.1840 C   0  0  0  0  0  3  0  0  0  0  0  0
  184.1440  178.3320  138.2390 O   0  0  0  0  0  0  0  0  0  0  0  0
  183.3990  177.6160  141.7800 C   0  0  0  0  0  3  0  0  0  0  0  0
  184.2790  178.4510  142.3490 C   0  0  0  0  0  0  0  0  0  0  0  0
  184.1860  178.3680  139.4970 C   0  0  0  0  0  0  0  0  0  0  0  0
  185.1650  179.3060  141.5210 C   0  0  0  0  0  3  0  0  0  0  0  0
  183.3050  177.5180  140.3160 C   0  0  0  0  0  0  0  0  0  0  0  0
  182.4640  176.7040  139.7700 N   0  0  0  0  0  2  0  0  0  0  0  0
  1 18  1  6  0  0  0
  1  5  1  0  0  0  0
  1  2  1  0  0  0  0
  2  4  1  1  0  0  0
  3 11  1  1  0  0  0
  3  1  1  0  0  0  0
  3  5  1  0  0  0  0
  5  2  1  0  0  0  0
  6 10  1  0  0  0  0
  6 12  1  0  0  0  0
  7  8  1  0  0  0  0
  7  6  1  0  0  0  0
  8 11  1  0  0  0  0
  9  8  2  0  0  0  0
 10 12  1  0  0  0  0
 11 10  1  0  0  0  0
 14 15  1  0  0  0  0
 15  7  1  0  0  0  0
 15 13  2  0  0  0  0
 16 17  1  0  0  0  0
 17 14  1  0  0  0  0
 19 24  2  0  0  0  0
 20 23  2  0  0  0  0
 21 22  2  0  0  0  0
 22 18  1  0  0  0  0
 23 19  1  0  0  0  0
 23 25  1  0  0  0  0
 24 22  1  0  0  0  0
 25 21  1  0  0  0  0
 26 25  2  0  0  0  0
M  END
>  <MODEL>
4

>  <REMARK>
 VINA RESULT:      -7.7      2.470      4.948
  Name = 
  5 active torsions:
  status: ('A' for Active; 'I' for Inactive)
    1  A    between atoms: C_3  and  C_26
    2  A    between atoms: C_4  and  C_6
    3  A    between atoms: C_4  and  C_16
    4  A    between atoms: C_11  and  C_12
    5  A    between atoms: N_13  and  C_25
                            x       y       z     vdW  Elec       q    Type
                         _______ _______ _______ _____ _____    ______ ____

>  <TORSDO>
F 5

$$$$
=
 OpenBabel11032421293D

 26 30  0  0  1  0  0  0  0  0999 V2000
  186.2730  178.5560  144.2770 C   0  0  1  0  0  0  0  0  0  0  0  0
  185.1810  179.3720  144.9690 C   0  0  1  0  0  3  0  0  0  0  0  0
  186.7950  177.4610  145.1860 C   0  0  2  0  0  3  0  0  0  0  0  0
  184.0080  179.5630  144.1300 N   0  0  0  0  0  1  0  0  0  0  0  0
  185.3440  177.9000  145.2870 C   0  0  2  0  0  3  0  0  0  0  0  0
  188.2920  176.8650  148.3840 C   0  0  2  0  0  3  0  0  0  0  0  0
  189.4960  176.8960  147.4370 C   0  0  1  0  0  3  0  0  0  0  0  0
  189.0440  177.6230  146.2200 C   0  0  0  0  0  0  0  0  0  0  0  0
  189.8320  177.8690  145.1710 C   0  0  0  0  0  2  0  0  0  0  0  0
  187.1240  177.5330  147.6540 C   0  0  2  0  0  3  0  0  0  0  0  0
  187.6270  178.0670  146.3120 C   0  0  2  0  0  3  0  0  0  0  0  0
  187.8090  178.2490  148.8010 C   0  0  0  0  0  2  0  0  0  0  0  0
  190.6570  178.6270  148.6950 N   0  0  0  0  0  2  0  0  0  0  0  0
  191.9640  176.7780  148.0780 N   0  0  0  0  0  2  0  0  0  0  0  0
  190.7250  177.4900  148.0840 C   0  0  0  0  0  0  0  0  0  0  0  0
  192.3900  175.5820  146.0000 C   0  0  0  0  0  1  0  0  0  0  0  0
  192.1250  175.4570  147.4870 C   0  0  0  0  0  2  0  0  0  0  0  0
  185.9270  178.0060  142.8990 C   0  0  0  0  0  2  0  0  0  0  0  0
  188.3860  178.5000  140.0430 C   0  0  0  0  0  3  0  0  0  0  0  0
  190.4870  177.4590  139.6920 O   0  0  0  0  0  0  0  0  0  0  0  0
  188.1170  177.0050  142.4830 C   0  0  0  0  0  3  0  0  0  0  0  0
  187.1650  177.8600  142.0860 C   0  0  0  0  0  0  0  0  0  0  0  0
  189.4710  177.5830  140.4260 C   0  0  0  0  0  0  0  0  0  0  0  0
  187.3060  178.6270  140.8240 C   0  0  0  0  0  3  0  0  0  0  0  0
  189.3340  176.8200  141.6770 C   0  0  0  0  0  0  0  0  0  0  0  0
  190.2560  176.0030  142.0680 N   0  0  0  0  0  2  0  0  0  0  0  0
  1 18  1  6  0  0  0
  1  2  1  0  0  0  0
  1  3  1  0  0  0  0
  1  5  1  0  0  0  0
  2  4  1  6  0  0  0
  2  5  1  0  0  0  0
  3  5  1  0  0  0  0
  3 11  1  1  0  0  0
  6 12  1  0  0  0  0
  7 15  1  0  0  0  0
  7  6  1  0  0  0  0
  8 11  1  0  0  0  0
  8  7  1  0  0  0  0
  9  8  2  0  0  0  0
 10  6  1  0  0  0  0
 10 12  1  0  0  0  0
 11 10  1  0  0  0  0
 14 15  1  0  0  0  0
 15 13  2  0  0  0  0
 16 17  1  0  0  0  0
 17 14  1  0  0  0  0
 19 23  1  0  0  0  0
 19 24  2  0  0  0  0
 20 23  2  0  0  0  0
 22 21  2  0  0  0  0
 22 18  1  0  0  0  0
 23 25  1  0  0  0  0
 24 22  1  0  0  0  0
 25 26  2  0  0  0  0
 25 21  1  0  0  0  0
M  END
>  <MODEL>
5

>  <REMARK>
 VINA RESULT:      -7.5      2.948      7.654
  Name = 
  5 active torsions:
  status: ('A' for Active; 'I' for Inactive)
    1  A    between atoms: C_3  and  C_26
    2  A    between atoms: C_4  and  C_6
    3  A    between atoms: C_4  and  C_16
    4  A    between atoms: C_11  and  C_12
    5  A    between atoms: N_13  and  C_25
                            x       y       z     vdW  Elec       q    Type
                         _______ _______ _______ _____ _____    ______ ____

>  <TORSDO>
F 5

$$$$
=
 OpenBabel11032421293D

 26 30  0  0  1  0  0  0  0  0999 V2000
  187.7150  178.0120  141.3460 C   0  0  1  0  0  0  0  0  0  0  0  0
  188.4330  177.3200  140.1870 C   0  0  1  0  0  3  0  0  0  0  0  0
  188.7060  178.6320  142.3110 C   0  0  2  0  0  3  0  0  0  0  0  0
  187.8750  177.6730  138.8920 N   0  0  0  0  0  1  0  0  0  0  0  0
  189.0410  178.5500  140.8310 C   0  0  2  0  0  3  0  0  0  0  0  0
  191.5530  177.8650  144.3430 C   0  0  2  0  0  3  0  0  0  0  0  0
  190.3980  177.8660  145.3490 C   0  0  1  0  0  3  0  0  0  0  0  0
  189.1570  177.6700  144.5520 C   0  0  0  0  0  0  0  0  0  0  0  0
  187.9380  177.5940  145.0900 C   0  0  0  0  0  2  0  0  0  0  0  0
  190.9390  177.7290  142.9480 C   0  0  2  0  0  3  0  0  0  0  0  0
  189.4280  177.5410  143.0950 C   0  0  2  0  0  3  0  0  0  0  0  0
  191.6820  176.5610  143.5650 C   0  0  0  0  0  2  0  0  0  0  0  0
  191.3060  175.7920  146.2430 N   0  0  0  0  0  2  0  0  0  0  0  0
  190.0240  177.0620  147.7440 N   0  0  0  0  0  2  0  0  0  0  0  0
  190.5880  176.8470  146.4480 C   0  0  0  0  0  0  0  0  0  0  0  0
  187.9510  177.8620  148.7400 C   0  0  0  0  0  1  0  0  0  0  0  0
  189.2670  178.2540  148.0980 C   0  0  0  0  0  2  0  0  0  0  0  0
  186.6270  179.0070  140.9620 C   0  0  0  0  0  2  0  0  0  0  0  0
  183.0700  178.4040  142.1570 C   0  0  0  0  0  3  0  0  0  0  0  0
  182.1810  178.6100  144.3450 O   0  0  0  0  0  0  0  0  0  0  0  0
  185.6410  179.1630  143.1930 C   0  0  0  0  0  3  0  0  0  0  0  0
  185.4730  178.8820  141.8940 C   0  0  0  0  0  0  0  0  0  0  0  0
  183.1890  178.6920  143.5950 C   0  0  0  0  0  0  0  0  0  0  0  0
  184.1430  178.4940  141.3620 C   0  0  0  0  0  3  0  0  0  0  0  0
  184.5070  179.0770  144.1260 C   0  0  0  0  0  0  0  0  0  0  0  0
  184.6740  179.3370  145.3800 N   0  0  0  0  0  2  0  0  0  0  0  0
  1 18  1  6  0  0  0
  1  3  1  0  0  0  0
  2  4  1  6  0  0  0
  2  5  1  0  0  0  0
  2  1  1  0  0  0  0
  3 11  1  1  0  0  0
  5  1  1  0  0  0  0
  5  3  1  0  0  0  0
  6  7  1  0  0  0  0
  7 15  1  0  0  0  0
  8  9  2  0  0  0  0
  8  7  1  0  0  0  0
 10 11  1  0  0  0  0
 10 12  1  0  0  0  0
 10  6  1  0  0  0  0
 11  8  1  0  0  0  0
 12  6  1  0  0  0  0
 13 15  2  0  0  0  0
 14 17  1  0  0  0  0
 15 14  1  0  0  0  0
 17 16  1  0  0  0  0
 18 22  1  0  0  0  0
 19 23  1  0  0  0  0
 21 25  1  0  0  0  0
 22 21  2  0  0  0  0
 23 25  1  0  0  0  0
 23 20  2  0  0  0  0
 24 22  1  0  0  0  0
 24 19  2  0  0  0  0
 25 26  2  0  0  0  0
M  END
>  <MODEL>
6

>  <REMARK>
 VINA RESULT:      -7.4      1.894      5.892
  Name = 
  5 active torsions:
  status: ('A' for Active; 'I' for Inactive)
    1  A    between atoms: C_3  and  C_26
    2  A    between atoms: C_4  and  C_6
    3  A    between atoms: C_4  and  C_16
    4  A    between atoms: C_11  and  C_12
    5  A    between atoms: N_13  and  C_25
                            x       y       z     vdW  Elec       q    Type
                         _______ _______ _______ _____ _____    ______ ____

>  <TORSDO>
F 5

$$$$
=
 OpenBabel11032421293D

 26 30  0  0  1  0  0  0  0  0999 V2000
  190.1240  177.1780  144.0750 C   0  0  1  0  0  0  0  0  0  0  0  0
  190.8280  175.9620  144.6780 C   0  0  1  0  0  3  0  0  0  0  0  0
  189.7360  178.1730  145.1500 C   0  0  2  0  0  3  0  0  0  0  0  0
  192.0480  175.6130  143.9680 N   0  0  0  0  0  1  0  0  0  0  0  0
  190.9850  177.3260  145.3200 C   0  0  2  0  0  3  0  0  0  0  0  0
  187.3180  178.9220  147.6830 C   0  0  2  0  0  3  0  0  0  0  0  0
  186.4720  178.8390  146.4080 C   0  0  1  0  0  3  0  0  0  0  0  0
  187.2740  178.0550  145.4310 C   0  0  0  0  0  0  0  0  0  0  0  0
  186.8530  177.7540  144.2010 C   0  0  0  0  0  2  0  0  0  0  0  0
  188.6480  178.2230  147.3910 C   0  0  2  0  0  3  0  0  0  0  0  0
  188.5860  177.6220  145.9860 C   0  0  2  0  0  3  0  0  0  0  0  0
  187.6290  177.5620  148.2970 C   0  0  0  0  0  2  0  0  0  0  0  0
  184.8840  177.5030  147.6790 N   0  0  0  0  0  2  0  0  0  0  0  0
  183.9960  178.6280  145.8210 N   0  0  0  0  0  2  0  0  0  0  0  0
  185.0950  178.2740  146.6640 C   0  0  0  0  0  0  0  0  0  0  0  0
  183.3620  179.0080  143.5000 C   0  0  0  0  0  1  0  0  0  0  0  0
  184.1130  179.5500  144.7010 C   0  0  0  0  0  2  0  0  0  0  0  0
  190.8450  177.8680  142.9230 C   0  0  0  0  0  2  0  0  0  0  0  0
  190.0540  176.7530  139.3770 C   0  0  0  0  0  3  0  0  0  0  0  0
  188.1180  177.1870  138.0790 O   0  0  0  0  0  0  0  0  0  0  0  0
  188.8700  178.2410  141.5330 C   0  0  0  0  0  3  0  0  0  0  0  0
  190.0810  177.6800  141.6610 C   0  0  0  0  0  0  0  0  0  0  0  0
  188.7190  177.3370  139.1760 C   0  0  0  0  0  0  0  0  0  0  0  0
  190.6900  176.9160  140.5440 C   0  0  0  0  0  3  0  0  0  0  0  0
  188.1110  178.0960  140.2820 C   0  0  0  0  0  0  0  0  0  0  0  0
  186.9400  178.6280  140.1650 N   0  0  0  0  0  2  0  0  0  0  0  0
  1 18  1  6  0  0  0
  1  2  1  0  0  0  0
  1  3  1  0  0  0  0
  1  5  1  0  0  0  0
  2  4  1  6  0  0  0
  2  5  1  0  0  0  0
  3  5  1  0  0  0  0
  3 11  1  1  0  0  0
  6 12  1  0  0  0  0
  7 15  1  0  0  0  0
  7  6  1  0  0  0  0
  8 11  1  0  0  0  0
  8  7  1  0  0  0  0
  9  8  2  0  0  0  0
 10  6  1  0  0  0  0
 10 12  1  0  0  0  0
 11 10  1  0  0  0  0
 14 15  1  0  0  0  0
 15 13  2  0  0  0  0
 16 17  1  0  0  0  0
 17 14  1  0  0  0  0
 19 24  2  0  0  0  0
 20 23  2  0  0  0  0
 21 22  2  0  0  0  0
 22 18  1  0  0  0  0
 23 19  1  0  0  0  0
 23 25  1  0  0  0  0
 24 22  1  0  0  0  0
 25 21  1  0  0  0  0
 26 25  2  0  0  0  0
M  END
>  <MODEL>
7

>  <REMARK>
 VINA RESULT:      -7.4      2.455      6.459
  Name = 
  5 active torsions:
  status: ('A' for Active; 'I' for Inactive)
    1  A    between atoms: C_3  and  C_26
    2  A    between atoms: C_4  and  C_6
    3  A    between atoms: C_4  and  C_16
    4  A    between atoms: C_11  and  C_12
    5  A    between atoms: N_13  and  C_25
                            x       y       z     vdW  Elec       q    Type
                         _______ _______ _______ _____ _____    ______ ____

>  <TORSDO>
F 5

$$$$
=
 OpenBabel11032421293D

 26 30  0  0  1  0  0  0  0  0999 V2000
  189.6560  177.1500  142.6520 C   0  0  1  0  0  0  0  0  0  0  0  0
  189.8760  177.9340  141.3590 C   0  0  1  0  0  3  0  0  0  0  0  0
  188.1960  176.7810  142.8260 C   0  0  2  0  0  3  0  0  0  0  0  0
  190.9950  177.4290  140.5800 N   0  0  0  0  0  1  0  0  0  0  0  0
  188.7900  176.8800  141.4320 C   0  0  2  0  0  3  0  0  0  0  0  0
  184.9480  178.2840  142.7030 C   0  0  2  0  0  3  0  0  0  0  0  0
  185.1280  177.9660  144.1920 C   0  0  1  0  0  3  0  0  0  0  0  0
  186.5930  177.8210  144.4080 C   0  0  0  0  0  0  0  0  0  0  0  0
  187.1420  177.5610  145.5960 C   0  0  0  0  0  2  0  0  0  0  0  0
  186.3380  178.2540  142.0620 C   0  0  2  0  0  3  0  0  0  0  0  0
  187.3780  178.0240  143.1600 C   0  0  2  0  0  3  0  0  0  0  0  0
  185.6290  179.5770  142.2700 C   0  0  0  0  0  2  0  0  0  0  0  0
  185.1970  179.7520  145.8440 N   0  0  0  0  0  2  0  0  0  0  0  0
  183.0590  179.1820  145.0620 N   0  0  0  0  0  2  0  0  0  0  0  0
  184.4760  178.9940  145.0850 C   0  0  0  0  0  0  0  0  0  0  0  0
  181.4790  179.3770  143.2180 C   0  0  0  0  0  1  0  0  0  0  0  0
  182.1680  178.4350  144.1860 C   0  0  0  0  0  2  0  0  0  0  0  0
  190.5560  175.9380  142.8620 C   0  0  0  0  0  2  0  0  0  0  0  0
  192.5130  174.8180  145.9220 C   0  0  0  0  0  3  0  0  0  0  0  0
  192.4310  175.6700  148.1330 O   0  0  0  0  0  0  0  0  0  0  0  0
  190.5560  176.7800  145.1560 C   0  0  0  0  0  3  0  0  0  0  0  0
  191.0550  175.9140  144.2640 C   0  0  0  0  0  0  0  0  0  0  0  0
  192.0110  175.7450  146.9480 C   0  0  0  0  0  0  0  0  0  0  0  0
  192.0630  174.9000  144.6640 C   0  0  0  0  0  3  0  0  0  0  0  0
  191.0110  176.7520  146.5550 C   0  0  0  0  0  0  0  0  0  0  0  0
  190.5370  177.5950  147.4110 N   0  0  0  0  0  2  0  0  0  0  0  0
  1  3  1  0  0  0  0
  1 18  1  1  0  0  0
  2  4  1  6  0  0  0
  2  5  1  0  0  0  0
  2  1  1  0  0  0  0
  3 11  1  6  0  0  0
  5  1  1  0  0  0  0
  5  3  1  0  0  0  0
  6  7  1  0  0  0  0
  7  8  1  0  0  0  0
  7 15  1  0  0  0  0
  8  9  2  0  0  0  0
 10 12  1  0  0  0  0
 10  6  1  0  0  0  0
 10 11  1  0  0  0  0
 11  8  1  0  0  0  0
 12  6  1  0  0  0  0
 14 15  1  0  0  0  0
 15 13  2  0  0  0  0
 16 17  1  0  0  0  0
 17 14  1  0  0  0  0
 18 22  1  0  0  0  0
 19 23  1  0  0  0  0
 21 25  1  0  0  0  0
 22 24  1  0  0  0  0
 22 21  2  0  0  0  0
 23 20  2  0  0  0  0
 24 19  2  0  0  0  0
 25 23  1  0  0  0  0
 25 26  2  0  0  0  0
M  END
>  <MODEL>
8

>  <REMARK>
 VINA RESULT:      -7.2      3.020      5.943
  Name = 
  5 active torsions:
  status: ('A' for Active; 'I' for Inactive)
    1  A    between atoms: C_3  and  C_26
    2  A    between atoms: C_4  and  C_6
    3  A    between atoms: C_4  and  C_16
    4  A    between atoms: C_11  and  C_12
    5  A    between atoms: N_13  and  C_25
                            x       y       z     vdW  Elec       q    Type
                         _______ _______ _______ _____ _____    ______ ____

>  <TORSDO>
F 5

$$$$
=
 OpenBabel11032421293D

 26 30  0  0  1  0  0  0  0  0999 V2000
  189.4840  177.3710  141.1730 C   0  0  1  0  0  0  0  0  0  0  0  0
  190.4320  176.2210  140.8350 C   0  0  1  0  0  3  0  0  0  0  0  0
  189.9790  178.1530  142.3740 C   0  0  2  0  0  3  0  0  0  0  0  0
  190.7590  176.1620  139.4190 N   0  0  0  0  0  1  0  0  0  0  0  0
  190.9770  177.5040  141.4300 C   0  0  2  0  0  3  0  0  0  0  0  0
  190.2850  178.1460  145.9410 C   0  0  2  0  0  3  0  0  0  0  0  0
  188.7690  178.1730  145.7220 C   0  0  1  0  0  3  0  0  0  0  0  0
  188.5430  177.6750  144.3390 C   0  0  0  0  0  0  0  0  0  0  0  0
  187.3340  177.5350  143.7920 C   0  0  0  0  0  2  0  0  0  0  0  0
  190.9240  177.6830  144.6300 C   0  0  2  0  0  3  0  0  0  0  0  0
  189.8120  177.3250  143.6440 C   0  0  2  0  0  3  0  0  0  0  0  0
  190.8930  176.7530  145.8270 C   0  0  0  0  0  2  0  0  0  0  0  0
  188.5630  176.3780  147.3530 N   0  0  0  0  0  2  0  0  0  0  0  0
  186.7210  177.8240  147.2060 N   0  0  0  0  0  2  0  0  0  0  0  0
  188.0190  177.4010  146.7820 C   0  0  0  0  0  0  0  0  0  0  0  0
  184.7170  178.6280  146.0790 C   0  0  0  0  0  1  0  0  0  0  0  0
  186.0550  179.0080  146.6830 C   0  0  0  0  0  2  0  0  0  0  0  0
  189.1240  178.3040  140.0220 C   0  0  0  0  0  2  0  0  0  0  0  0
  185.8320  177.8780  138.1720 C   0  0  0  0  0  3  0  0  0  0  0  0
  183.6260  178.2470  138.9570 O   0  0  0  0  0  0  0  0  0  0  0  0
  186.8190  178.6280  140.7650 C   0  0  0  0  0  3  0  0  0  0  0  0
  187.6560  178.2700  139.7820 C   0  0  0  0  0  0  0  0  0  0  0  0
  184.8600  178.2530  139.2100 C   0  0  0  0  0  0  0  0  0  0  0  0
  187.1430  177.8870  138.4440 C   0  0  0  0  0  3  0  0  0  0  0  0
  185.3650  178.6340  140.5390 C   0  0  0  0  0  0  0  0  0  0  0  0
  184.5600  178.9690  141.4920 N   0  0  0  0  0  2  0  0  0  0  0  0
  1 18  1  6  0  0  0
  1  5  1  0  0  0  0
  1  3  1  0  0  0  0
  2  4  1  6  0  0  0
  2  1  1  0  0  0  0
  2  5  1  0  0  0  0
  3 11  1  1  0  0  0
  5  3  1  0  0  0  0
  7  6  1  0  0  0  0
  7 15  1  0  0  0  0
  8  7  1  0  0  0  0
  9  8  2  0  0  0  0
 10 12  1  0  0  0  0
 10  6  1  0  0  0  0
 11  8  1  0  0  0  0
 11 10  1  0  0  0  0
 12  6  1  0  0  0  0
 15 14  1  0  0  0  0
 15 13  2  0  0  0  0
 16 17  1  0  0  0  0
 17 14  1  0  0  0  0
 19 24  2  0  0  0  0
 19 23  1  0  0  0  0
 20 23  2  0  0  0  0
 22 18  1  0  0  0  0
 22 21  2  0  0  0  0
 23 25  1  0  0  0  0
 24 22  1  0  0  0  0
 25 21  1  0  0  0  0
 25 26  2  0  0  0  0
M  END
>  <MODEL>
9

>  <REMARK>
 VINA RESULT:      -6.8      2.251      6.126
  Name = 
  5 active torsions:
  status: ('A' for Active; 'I' for Inactive)
    1  A    between atoms: C_3  and  C_26
    2  A    between atoms: C_4  and  C_6
    3  A    between atoms: C_4  and  C_16
    4  A    between atoms: C_11  and  C_12
    5  A    between atoms: N_13  and  C_25
                            x       y       z     vdW  Elec       q    Type
                         _______ _______ _______ _____ _____    ______ ____

>  <TORSDO>
F 5

$$$$
