=
 OpenBabel11032419173D

 30 32  0  0  1  0  0  0  0  0999 V2000
  191.2530  177.2630  139.9140 C   0  0  0  0  0  0  0  0  0  0  0  0
  190.2040  177.0610  140.8740 N   0  0  0  0  0  0  0  0  0  0  0  0
  188.4860  177.7410  139.2990 C   0  0  0  0  0  0  0  0  0  0  0  0
  189.5330  177.9750  138.2680 C   0  0  0  0  0  0  0  0  0  0  0  0
  188.8340  177.2940  140.5090 C   0  0  0  0  0  3  0  0  0  0  0  0
  189.2280  178.5220  137.0940 C   0  0  0  0  0  2  0  0  0  0  0  0
  192.4600  177.2550  140.2760 O   0  0  0  0  0  0  0  0  0  0  0  0
  190.9220  177.4300  138.4610 C   0  0  2  0  0  3  0  0  0  0  0  0
  186.4820  177.4630  137.8610 C   0  0  0  0  0  3  0  0  0  0  0  0
  186.7550  179.1970  141.1510 N   0  0  0  0  0  1  0  0  0  0  0  0
  185.1310  177.6700  137.5910 C   0  0  0  0  0  0  0  0  0  0  0  0
  187.0540  177.9800  139.0290 C   0  0  0  0  0  0  0  0  0  0  0  0
  184.9190  178.8860  139.6320 N   0  0  0  0  0  0  0  0  0  0  0  0
  184.3570  178.3980  138.4950 C   0  0  0  0  0  3  0  0  0  0  0  0
  186.2350  178.6960  139.9230 C   0  0  0  0  0  0  0  0  0  0  0  0
  184.4010  177.0240  136.0920 S   0  0  0  0  0  0  0  0  0  0  0  0
  186.0020  176.9540  135.2390 C   0  0  0  0  0  1  0  0  0  0  0  0
  191.4430  177.7000  142.9200 C   0  0  0  0  0  2  0  0  0  0  0  0
  189.5400  176.2250  144.3970 O   0  0  0  0  0  0  0  0  0  0  0  0
  190.5370  176.6600  142.2400 C   0  0  1  0  0  3  0  0  0  0  0  0
  189.0660  177.4390  144.9090 C   0  0  2  0  0  3  0  0  0  0  0  0
  190.2000  178.4650  144.9650 C   0  0  0  0  0  2  0  0  0  0  0  0
  190.6730  178.8490  143.5670 C   0  0  0  0  0  2  0  0  0  0  0  0
  189.2730  176.2900  143.0240 C   0  0  0  0  0  2  0  0  0  0  0  0
  189.3080  176.9600  147.2150 C   0  0  0  0  0  2  0  0  0  0  0  0
  188.5300  177.2210  146.2280 N   0  0  0  0  0  0  0  0  0  0  0  0
  191.8480  176.0600  136.5330 N   0  0  0  0  0  2  0  0  0  0  0  0
  191.0900  176.1250  137.7430 C   0  0  0  0  0  0  0  0  0  0  0  0
  190.5540  175.0880  138.2160 O   0  0  0  0  0  0  0  0  0  0  0  0
  192.0350  174.8160  135.8060 C   0  0  0  0  0  1  0  0  0  0  0  0
  1  7  2  0  0  0  0
  1  2  1  0  0  0  0
  3  5  2  0  0  0  0
  4  8  1  0  0  0  0
  4  3  1  0  0  0  0
  5  2  1  0  0  0  0
  6  4  2  0  0  0  0
  8 28  1  6  0  0  0
  8  1  1  0  0  0  0
  9 12  1  0  0  0  0
 11  9  2  0  0  0  0
 11 14  1  0  0  0  0
 12  3  1  0  0  0  0
 12 15  2  0  0  0  0
 13 15  1  0  0  0  0
 14 13  2  0  0  0  0
 15 10  1  0  0  0  0
 16 11  1  0  0  0  0
 17 16  1  0  0  0  0
 18 23  1  0  0  0  0
 19 21  1  0  0  0  0
 20  2  1  6  0  0  0
 20 18  1  0  0  0  0
 20 24  1  0  0  0  0
 21 22  1  0  0  0  0
 21 26  1  1  0  0  0
 23 22  1  0  0  0  0
 24 19  1  0  0  0  0
 26 25  2  0  0  0  0
 27 28  1  0  0  0  0
 28 29  2  0  0  0  0
 30 27  1  0  0  0  0
M  END
>  <MODEL>
1

>  <REMARK>
 VINA RESULT:      -7.4      0.000      0.000
  Name = 
  5 active torsions:
  status: ('A' for Active; 'I' for Inactive)
    1  A    between atoms: C_2  and  C_27
    2  A    between atoms: N_4  and  C_10
    3  A    between atoms: C_9  and  C_21
    4  A    between atoms: C_14  and  S_17
    5  A    between atoms: C_18  and  N_25
                            x       y       z     vdW  Elec       q    Type
                         _______ _______ _______ _____ _____    ______ ____

>  <TORSDO>
F 5

$$$$
=
 OpenBabel11032419173D

 30 32  0  0  1  0  0  0  0  0999 V2000
  191.4430  177.1740  139.8810 C   0  0  0  0  0  0  0  0  0  0  0  0
  190.3130  176.8380  140.7030 N   0  0  0  0  0  0  0  0  0  0  0  0
  188.7460  177.2070  138.8850 C   0  0  0  0  0  0  0  0  0  0  0  0
  189.8790  177.5730  137.9920 C   0  0  0  0  0  0  0  0  0  0  0  0
  188.9870  176.8490  140.1500 C   0  0  0  0  0  3  0  0  0  0  0  0
  189.6600  178.0370  136.7650 C   0  0  0  0  0  2  0  0  0  0  0  0
  192.5770  177.3600  140.4000 O   0  0  0  0  0  0  0  0  0  0  0  0
  191.2940  177.2510  138.3910 C   0  0  2  0  0  3  0  0  0  0  0  0
  186.4800  178.2160  138.8750 C   0  0  0  0  0  3  0  0  0  0  0  0
  187.7110  175.2590  136.9670 N   0  0  0  0  0  1  0  0  0  0  0  0
  185.1560  178.2500  138.4400 C   0  0  0  0  0  0  0  0  0  0  0  0
  187.3460  177.2180  138.4180 C   0  0  0  0  0  0  0  0  0  0  0  0
  185.5580  176.3190  137.0990 N   0  0  0  0  0  0  0  0  0  0  0  0
  184.7060  177.2780  137.5470 C   0  0  0  0  0  3  0  0  0  0  0  0
  186.8560  176.2650  137.5050 C   0  0  0  0  0  0  0  0  0  0  0  0
  184.0420  179.5150  139.0350 S   0  0  0  0  0  0  0  0  0  0  0  0
  184.2330  178.9930  140.7640 C   0  0  0  0  0  1  0  0  0  0  0  0
  191.4110  177.5740  142.7970 C   0  0  0  0  0  2  0  0  0  0  0  0
  189.3190  176.3040  144.2060 O   0  0  0  0  0  0  0  0  0  0  0  0
  190.5120  176.5270  142.1170 C   0  0  1  0  0  3  0  0  0  0  0  0
  188.8680  177.5740  144.5880 C   0  0  2  0  0  3  0  0  0  0  0  0
  190.0450  178.5480  144.6660 C   0  0  0  0  0  2  0  0  0  0  0  0
  190.6510  178.8030  143.2910 C   0  0  0  0  0  2  0  0  0  0  0  0
  189.1700  176.2760  142.8150 C   0  0  0  0  0  2  0  0  0  0  0  0
  186.9510  177.6740  145.9720 C   0  0  0  0  0  2  0  0  0  0  0  0
  188.2150  177.4810  145.8680 N   0  0  0  0  0  0  0  0  0  0  0  0
  192.8160  175.9740  136.8100 N   0  0  0  0  0  2  0  0  0  0  0  0
  191.7500  175.9710  137.7620 C   0  0  0  0  0  0  0  0  0  0  0  0
  191.1830  174.8920  138.0800 O   0  0  0  0  0  0  0  0  0  0  0  0
  193.2890  174.7550  136.1770 C   0  0  0  0  0  1  0  0  0  0  0  0
  1  7  2  0  0  0  0
  1  2  1  0  0  0  0
  3  5  2  0  0  0  0
  4  8  1  0  0  0  0
  4  3  1  0  0  0  0
  5  2  1  0  0  0  0
  6  4  2  0  0  0  0
  8 28  1  6  0  0  0
  8  1  1  0  0  0  0
 10 15  1  0  0  0  0
 11  9  1  0  0  0  0
 11 16  1  0  0  0  0
 12  9  2  0  0  0  0
 12  3  1  0  0  0  0
 13 15  2  0  0  0  0
 13 14  1  0  0  0  0
 14 11  2  0  0  0  0
 15 12  1  0  0  0  0
 16 17  1  0  0  0  0
 18 23  1  0  0  0  0
 19 21  1  0  0  0  0
 20  2  1  6  0  0  0
 20 18  1  0  0  0  0
 20 24  1  0  0  0  0
 21 22  1  0  0  0  0
 21 26  1  1  0  0  0
 23 22  1  0  0  0  0
 24 19  1  0  0  0  0
 26 25  2  0  0  0  0
 27 28  1  0  0  0  0
 28 29  2  0  0  0  0
 30 27  1  0  0  0  0
M  END
>  <MODEL>
2

>  <REMARK>
 VINA RESULT:      -7.3      1.540      2.102
  Name = 
  5 active torsions:
  status: ('A' for Active; 'I' for Inactive)
    1  A    between atoms: C_2  and  C_27
    2  A    between atoms: N_4  and  C_10
    3  A    between atoms: C_9  and  C_21
    4  A    between atoms: C_14  and  S_17
    5  A    between atoms: C_18  and  N_25
                            x       y       z     vdW  Elec       q    Type
                         _______ _______ _______ _____ _____    ______ ____

>  <TORSDO>
F 5

$$$$
=
 OpenBabel11032419173D

 30 32  0  0  1  0  0  0  0  0999 V2000
  190.2290  176.7000  135.9150 C   0  0  0  0  0  0  0  0  0  0  0  0
  191.0730  175.8430  136.7010 N   0  0  0  0  0  0  0  0  0  0  0  0
  190.4210  176.9280  138.7740 C   0  0  0  0  0  0  0  0  0  0  0  0
  189.5380  177.8480  138.0080 C   0  0  0  0  0  0  0  0  0  0  0  0
  191.1150  175.9840  138.1300 C   0  0  0  0  0  3  0  0  0  0  0  0
  188.9220  178.8630  138.6070 C   0  0  0  0  0  2  0  0  0  0  0  0
  190.3330  176.7200  134.6580 O   0  0  0  0  0  0  0  0  0  0  0  0
  189.1790  177.5400  136.5790 C   0  0  2  0  0  3  0  0  0  0  0  0
  189.4450  176.7410  141.0470 C   0  0  0  0  0  3  0  0  0  0  0  0
  192.9510  177.5730  140.0890 N   0  0  0  0  0  1  0  0  0  0  0  0
  189.5510  176.8070  142.4360 C   0  0  0  0  0  0  0  0  0  0  0  0
  190.5550  177.0130  140.2420 C   0  0  0  0  0  0  0  0  0  0  0  0
  191.8520  177.4010  142.2200 N   0  0  0  0  0  0  0  0  0  0  0  0
  190.7750  177.1490  143.0110 C   0  0  0  0  0  3  0  0  0  0  0  0
  191.7760  177.3400  140.8630 C   0  0  0  0  0  0  0  0  0  0  0  0
  188.1300  176.4750  143.4670 S   0  0  0  0  0  0  0  0  0  0  0  0
  188.9490  177.1200  144.9540 C   0  0  0  0  0  1  0  0  0  0  0  0
  193.2230  175.4940  135.5240 C   0  0  0  0  0  2  0  0  0  0  0  0
  193.1690  172.8290  136.4560 O   0  0  0  0  0  0  0  0  0  0  0  0
  191.9220  174.8550  136.0400 C   0  0  1  0  0  3  0  0  0  0  0  0
  194.2520  173.1470  137.2860 C   0  0  2  0  0  3  0  0  0  0  0  0
  195.0940  174.2540  136.6500 C   0  0  0  0  0  2  0  0  0  0  0  0
  194.3250  175.5680  136.5780 C   0  0  0  0  0  2  0  0  0  0  0  0
  192.1150  173.6200  136.9260 C   0  0  0  0  0  2  0  0  0  0  0  0
  196.3340  172.0490  137.5310 C   0  0  0  0  0  2  0  0  0  0  0  0
  195.0540  171.9690  137.4920 N   0  0  0  0  0  0  0  0  0  0  0  0
  187.6930  175.5190  136.9720 N   0  0  0  0  0  2  0  0  0  0  0  0
  187.8480  176.8580  136.4960 C   0  0  0  0  0  0  0  0  0  0  0  0
  186.8680  177.4760  136.0020 O   0  0  0  0  0  0  0  0  0  0  0  0
  186.4190  174.8220  136.9110 C   0  0  0  0  0  1  0  0  0  0  0  0
  1  8  1  0  0  0  0
  1  2  1  0  0  0  0
  2  5  1  0  0  0  0
  3 12  1  0  0  0  0
  4  6  2  0  0  0  0
  4  3  1  0  0  0  0
  5  3  2  0  0  0  0
  7  1  2  0  0  0  0
  8 28  1  1  0  0  0
  8  4  1  0  0  0  0
  9 11  1  0  0  0  0
 10 15  1  0  0  0  0
 11 14  2  0  0  0  0
 11 16  1  0  0  0  0
 12 15  1  0  0  0  0
 12  9  2  0  0  0  0
 13 14  1  0  0  0  0
 15 13  2  0  0  0  0
 16 17  1  0  0  0  0
 18 23  1  0  0  0  0
 19 24  1  0  0  0  0
 19 21  1  0  0  0  0
 20 18  1  1  0  0  0
 20  2  1  0  0  0  0
 20 24  1  0  0  0  0
 21 26  1  6  0  0  0
 22 21  1  0  0  0  0
 23 22  1  0  0  0  0
 26 25  2  0  0  0  0
 28 27  1  0  0  0  0
 29 28  2  0  0  0  0
 30 27  1  0  0  0  0
M  END
>  <MODEL>
3

>  <REMARK>
 VINA RESULT:      -6.7      3.448      7.023
  Name = 
  5 active torsions:
  status: ('A' for Active; 'I' for Inactive)
    1  A    between atoms: C_2  and  C_27
    2  A    between atoms: N_4  and  C_10
    3  A    between atoms: C_9  and  C_21
    4  A    between atoms: C_14  and  S_17
    5  A    between atoms: C_18  and  N_25
                            x       y       z     vdW  Elec       q    Type
                         _______ _______ _______ _____ _____    ______ ____

>  <TORSDO>
F 5

$$$$
=
 OpenBabel11032419173D

 30 32  0  0  1  0  0  0  0  0999 V2000
  192.1470  177.1190  138.8950 C   0  0  0  0  0  0  0  0  0  0  0  0
  190.9630  177.3060  139.6880 N   0  0  0  0  0  0  0  0  0  0  0  0
  189.5020  176.7510  137.8300 C   0  0  0  0  0  0  0  0  0  0  0  0
  190.6930  176.5520  136.9610 C   0  0  0  0  0  0  0  0  0  0  0  0
  189.6650  177.0880  139.1130 C   0  0  0  0  0  3  0  0  0  0  0  0
  190.5590  176.3230  135.6570 C   0  0  0  0  0  2  0  0  0  0  0  0
  193.2700  177.4960  139.3250 O   0  0  0  0  0  0  0  0  0  0  0  0
  192.0630  176.4210  137.5700 C   0  0  2  0  0  3  0  0  0  0  0  0
  187.5690  175.2970  137.2750 C   0  0  0  0  0  3  0  0  0  0  0  0
  187.8430  179.0040  136.9850 N   0  0  0  0  0  1  0  0  0  0  0  0
  186.2690  175.1130  136.8080 C   0  0  0  0  0  0  0  0  0  0  0  0
  188.1260  176.5790  137.3230 C   0  0  0  0  0  0  0  0  0  0  0  0
  186.0770  177.4640  136.4500 N   0  0  0  0  0  0  0  0  0  0  0  0
  185.5310  176.2210  136.3890 C   0  0  0  0  0  3  0  0  0  0  0  0
  187.3420  177.6720  136.9050 C   0  0  0  0  0  0  0  0  0  0  0  0
  185.5600  173.4740  136.7300 S   0  0  0  0  0  0  0  0  0  0  0  0
  183.9430  174.1040  136.1960 C   0  0  0  0  0  1  0  0  0  0  0  0
  189.6990  177.8990  141.7320 C   0  0  0  0  0  2  0  0  0  0  0  0
  191.9660  177.1170  143.2240 O   0  0  0  0  0  0  0  0  0  0  0  0
  191.0810  177.7630  141.0710 C   0  0  1  0  0  3  0  0  0  0  0  0
  191.2240  176.0230  143.6890 C   0  0  2  0  0  3  0  0  0  0  0  0
  189.7360  176.3760  143.7290 C   0  0  0  0  0  2  0  0  0  0  0  0
  189.1760  176.5940  142.3280 C   0  0  0  0  0  2  0  0  0  0  0  0
  192.0870  176.9050  141.8460 C   0  0  0  0  0  2  0  0  0  0  0  0
  191.6800  176.5210  145.9570 C   0  0  0  0  0  2  0  0  0  0  0  0
  191.6840  175.6620  145.0050 N   0  0  0  0  0  0  0  0  0  0  0  0
  193.8120  174.5800  137.5900 N   0  0  0  0  0  2  0  0  0  0  0  0
  192.4470  174.9810  137.7230 C   0  0  0  0  0  0  0  0  0  0  0  0
  191.5520  174.1280  137.9690 O   0  0  0  0  0  0  0  0  0  0  0  0
  194.2260  173.1950  137.7310 C   0  0  0  0  0  1  0  0  0  0  0  0
  1  7  2  0  0  0  0
  1  2  1  0  0  0  0
  3  5  2  0  0  0  0
  4  8  1  0  0  0  0
  4  3  1  0  0  0  0
  5  2  1  0  0  0  0
  6  4  2  0  0  0  0
  8 28  1  1  0  0  0
  8  1  1  0  0  0  0
  9 12  1  0  0  0  0
 11  9  2  0  0  0  0
 12  3  1  0  0  0  0
 13 15  1  0  0  0  0
 14 13  2  0  0  0  0
 14 11  1  0  0  0  0
 15 10  1  0  0  0  0
 15 12  2  0  0  0  0
 16 11  1  0  0  0  0
 17 16  1  0  0  0  0
 18 23  1  0  0  0  0
 19 21  1  0  0  0  0
 20  2  1  6  0  0  0
 20 18  1  0  0  0  0
 20 24  1  0  0  0  0
 21 22  1  0  0  0  0
 21 26  1  1  0  0  0
 23 22  1  0  0  0  0
 24 19  1  0  0  0  0
 26 25  2  0  0  0  0
 27 28  1  0  0  0  0
 27 30  1  0  0  0  0
 28 29  2  0  0  0  0
M  END
>  <MODEL>
4

>  <REMARK>
 VINA RESULT:      -6.5      2.306      2.735
  Name = 
  5 active torsions:
  status: ('A' for Active; 'I' for Inactive)
    1  A    between atoms: C_2  and  C_27
    2  A    between atoms: N_4  and  C_10
    3  A    between atoms: C_9  and  C_21
    4  A    between atoms: C_14  and  S_17
    5  A    between atoms: C_18  and  N_25
                            x       y       z     vdW  Elec       q    Type
                         _______ _______ _______ _____ _____    ______ ____

>  <TORSDO>
F 5

$$$$
=
 OpenBabel11032419173D

 30 32  0  0  1  0  0  0  0  0999 V2000
  182.7230  178.6300  141.9850 C   0  0  0  0  0  0  0  0  0  0  0  0
  183.9440  178.4950  141.2400 N   0  0  0  0  0  0  0  0  0  0  0  0
  182.8780  177.1300  139.5370 C   0  0  0  0  0  0  0  0  0  0  0  0
  181.5890  177.2310  140.2730 C   0  0  0  0  0  0  0  0  0  0  0  0
  183.9630  177.7520  140.0100 C   0  0  0  0  0  3  0  0  0  0  0  0
  180.5230  176.5350  139.8850 C   0  0  0  0  0  2  0  0  0  0  0  0
  182.7370  179.1050  143.1530 O   0  0  0  0  0  0  0  0  0  0  0  0
  181.4130  178.2600  141.3570 C   0  0  2  0  0  3  0  0  0  0  0  0
  183.4280  175.0330  138.3320 C   0  0  0  0  0  3  0  0  0  0  0  0
  182.2040  178.2630  136.9280 N   0  0  0  0  0  1  0  0  0  0  0  0
  183.5470  174.2890  137.1590 C   0  0  0  0  0  0  0  0  0  0  0  0
  183.0050  176.3650  138.2810 C   0  0  0  0  0  0  0  0  0  0  0  0
  182.8190  176.1800  135.8990 N   0  0  0  0  0  0  0  0  0  0  0  0
  183.2400  174.8880  135.9370 C   0  0  0  0  0  3  0  0  0  0  0  0
  182.6910  176.9270  137.0290 C   0  0  0  0  0  0  0  0  0  0  0  0
  184.1030  172.5910  137.2180 S   0  0  0  0  0  0  0  0  0  0  0  0
  185.8130  173.0730  137.5910 C   0  0  0  0  0  1  0  0  0  0  0  0
  185.3110  178.8450  143.2750 C   0  0  0  0  0  2  0  0  0  0  0  0
  187.5840  178.9060  141.5990 O   0  0  0  0  0  0  0  0  0  0  0  0
  185.1790  179.0780  141.7590 C   0  0  1  0  0  3  0  0  0  0  0  0
  187.9710  177.6820  142.1590 C   0  0  2  0  0  3  0  0  0  0  0  0
  187.4530  177.5730  143.5940 C   0  0  0  0  0  2  0  0  0  0  0  0
  185.9310  177.4970  143.6330 C   0  0  0  0  0  2  0  0  0  0  0  0
  186.3870  178.6280  140.9290 C   0  0  0  0  0  2  0  0  0  0  0  0
  189.9910  176.4710  142.3920 C   0  0  0  0  0  2  0  0  0  0  0  0
  189.4080  177.5850  142.1420 N   0  0  0  0  0  0  0  0  0  0  0  0
  179.6660  180.0920  141.5600 N   0  0  0  0  0  2  0  0  0  0  0  0
  180.7320  179.4850  140.8270 C   0  0  0  0  0  0  0  0  0  0  0  0
  181.1090  179.9730  139.7280 O   0  0  0  0  0  0  0  0  0  0  0  0
  178.9800  181.2800  141.0820 C   0  0  0  0  0  1  0  0  0  0  0  0
  1  7  2  0  0  0  0
  2 20  1  0  0  0  0
  2  1  1  0  0  0  0
  3  5  2  0  0  0  0
  3  4  1  0  0  0  0
  4  8  1  0  0  0  0
  5  2  1  0  0  0  0
  6  4  2  0  0  0  0
  8 28  1  6  0  0  0
  8  1  1  0  0  0  0
 10 15  1  0  0  0  0
 11 16  1  0  0  0  0
 11  9  2  0  0  0  0
 12  9  1  0  0  0  0
 12  3  1  0  0  0  0
 13 14  2  0  0  0  0
 13 15  1  0  0  0  0
 14 11  1  0  0  0  0
 15 12  2  0  0  0  0
 16 17  1  0  0  0  0
 18 23  1  0  0  0  0
 19 21  1  0  0  0  0
 20 24  1  6  0  0  0
 20 18  1  0  0  0  0
 21 26  1  1  0  0  0
 21 22  1  0  0  0  0
 22 23  1  0  0  0  0
 24 19  1  0  0  0  0
 26 25  2  0  0  0  0
 28 27  1  0  0  0  0
 29 28  2  0  0  0  0
 30 27  1  0  0  0  0
M  END
>  <MODEL>
5

>  <REMARK>
 VINA RESULT:      -6.5      4.184      7.318
  Name = 
  5 active torsions:
  status: ('A' for Active; 'I' for Inactive)
    1  A    between atoms: C_2  and  C_27
    2  A    between atoms: N_4  and  C_10
    3  A    between atoms: C_9  and  C_21
    4  A    between atoms: C_14  and  S_17
    5  A    between atoms: C_18  and  N_25
                            x       y       z     vdW  Elec       q    Type
                         _______ _______ _______ _____ _____    ______ ____

>  <TORSDO>
F 5

$$$$
=
 OpenBabel11032419173D

 30 32  0  0  1  0  0  0  0  0999 V2000
  188.5920  177.7510  137.3380 C   0  0  0  0  0  0  0  0  0  0  0  0
  188.1070  177.9400  138.6770 N   0  0  0  0  0  0  0  0  0  0  0  0
  185.7890  177.7620  137.9760 C   0  0  0  0  0  0  0  0  0  0  0  0
  186.2360  177.5710  136.5690 C   0  0  0  0  0  0  0  0  0  0  0  0
  186.6960  177.9150  138.9450 C   0  0  0  0  0  3  0  0  0  0  0  0
  185.3570  177.5250  135.5720 C   0  0  0  0  0  2  0  0  0  0  0  0
  189.8030  177.9680  137.0610 O   0  0  0  0  0  0  0  0  0  0  0  0
  187.6730  177.2410  136.2690 C   0  0  2  0  0  3  0  0  0  0  0  0
  183.5990  176.6190  138.1970 C   0  0  0  0  0  3  0  0  0  0  0  0
  184.4850  180.1280  139.0930 N   0  0  0  0  0  1  0  0  0  0  0  0
  182.2500  176.6120  138.5500 C   0  0  0  0  0  0  0  0  0  0  0  0
  184.3600  177.7820  138.3470 C   0  0  0  0  0  0  0  0  0  0  0  0
  182.4220  178.9010  139.2040 N   0  0  0  0  0  0  0  0  0  0  0  0
  181.6700  177.7780  139.0510 C   0  0  0  0  0  3  0  0  0  0  0  0
  183.7410  178.9330  138.8710 C   0  0  0  0  0  0  0  0  0  0  0  0
  181.2700  175.1320  138.3450 S   0  0  0  0  0  0  0  0  0  0  0  0
  180.2870  175.4720  139.8330 C   0  0  0  0  0  1  0  0  0  0  0  0
  188.3510  178.8590  140.9630 C   0  0  0  0  0  2  0  0  0  0  0  0
  190.5220  177.0880  141.3200 O   0  0  0  0  0  0  0  0  0  0  0  0
  189.0520  178.2020  139.7610 C   0  0  1  0  0  3  0  0  0  0  0  0
  189.7310  176.3780  142.2330 C   0  0  2  0  0  3  0  0  0  0  0  0
  188.7350  177.3210  142.9110 C   0  0  0  0  0  2  0  0  0  0  0  0
  187.7090  177.8560  141.9180 C   0  0  0  0  0  2  0  0  0  0  0  0
  189.8650  176.9460  140.0930 C   0  0  0  0  0  2  0  0  0  0  0  0
  191.6240  176.3670  143.6530 C   0  0  0  0  0  2  0  0  0  0  0  0
  190.5810  175.7610  143.2190 N   0  0  0  0  0  0  0  0  0  0  0  0
  187.2540  174.8480  137.0100 N   0  0  0  0  0  2  0  0  0  0  0  0
  187.8580  175.7640  136.0940 C   0  0  0  0  0  0  0  0  0  0  0  0
  188.5530  175.3400  135.1330 O   0  0  0  0  0  0  0  0  0  0  0  0
  187.4080  173.4100  136.8760 C   0  0  0  0  0  1  0  0  0  0  0  0
  1  2  1  0  0  0  0
  2  5  1  0  0  0  0
  3 12  1  0  0  0  0
  3  5  2  0  0  0  0
  4  3  1  0  0  0  0
  6  4  2  0  0  0  0
  7  1  2  0  0  0  0
  8 28  1  1  0  0  0
  8  4  1  0  0  0  0
  8  1  1  0  0  0  0
  9 12  2  0  0  0  0
  9 11  1  0  0  0  0
 11 14  2  0  0  0  0
 12 15  1  0  0  0  0
 14 13  1  0  0  0  0
 15 10  1  0  0  0  0
 15 13  2  0  0  0  0
 16 11  1  0  0  0  0
 16 17  1  0  0  0  0
 18 23  1  0  0  0  0
 19 21  1  0  0  0  0
 20  2  1  6  0  0  0
 20 24  1  0  0  0  0
 20 18  1  0  0  0  0
 21 22  1  0  0  0  0
 21 26  1  1  0  0  0
 23 22  1  0  0  0  0
 24 19  1  0  0  0  0
 26 25  2  0  0  0  0
 28 27  1  0  0  0  0
 29 28  2  0  0  0  0
 30 27  1  0  0  0  0
M  END
>  <MODEL>
6

>  <REMARK>
 VINA RESULT:      -6.5      2.495      3.752
  Name = 
  5 active torsions:
  status: ('A' for Active; 'I' for Inactive)
    1  A    between atoms: C_2  and  C_27
    2  A    between atoms: N_4  and  C_10
    3  A    between atoms: C_9  and  C_21
    4  A    between atoms: C_14  and  S_17
    5  A    between atoms: C_18  and  N_25
                            x       y       z     vdW  Elec       q    Type
                         _______ _______ _______ _____ _____    ______ ____

>  <TORSDO>
F 5

$$$$
=
 OpenBabel11032419173D

 30 32  0  0  1  0  0  0  0  0999 V2000
  190.0280  176.8350  140.8110 C   0  0  0  0  0  0  0  0  0  0  0  0
  189.1360  177.7180  140.1110 N   0  0  0  0  0  0  0  0  0  0  0  0
  187.5760  177.7890  141.9710 C   0  0  0  0  0  0  0  0  0  0  0  0
  188.4580  176.8680  142.7380 C   0  0  0  0  0  0  0  0  0  0  0  0
  187.9330  178.1830  140.7450 C   0  0  0  0  0  3  0  0  0  0  0  0
  188.0770  176.3750  143.9130 C   0  0  0  0  0  2  0  0  0  0  0  0
  190.9740  176.2670  140.2010 O   0  0  0  0  0  0  0  0  0  0  0  0
  189.8740  176.6250  142.2880 C   0  0  2  0  0  3  0  0  0  0  0  0
  186.0880  178.2360  143.9050 C   0  0  0  0  0  3  0  0  0  0  0  0
  185.5030  178.9990  140.3030 N   0  0  0  0  0  1  0  0  0  0  0  0
  184.8990  178.7180  144.4500 C   0  0  0  0  0  0  0  0  0  0  0  0
  186.3050  178.2970  142.5250 C   0  0  0  0  0  0  0  0  0  0  0  0
  184.1560  179.3240  142.2660 N   0  0  0  0  0  0  0  0  0  0  0  0
  183.9300  179.2590  143.6050 C   0  0  0  0  0  3  0  0  0  0  0  0
  185.3090  178.8650  141.7080 C   0  0  0  0  0  0  0  0  0  0  0  0
  184.6110  178.6270  146.2120 S   0  0  0  0  0  0  0  0  0  0  0  0
  186.3520  178.2540  146.5650 C   0  0  0  0  0  1  0  0  0  0  0  0
  190.1780  176.9880  137.9870 C   0  0  0  0  0  2  0  0  0  0  0  0
  188.3690  178.6910  136.6460 O   0  0  0  0  0  0  0  0  0  0  0  0
  189.4330  178.1070  138.7340 C   0  0  1  0  0  3  0  0  0  0  0  0
  187.7350  177.5460  136.1450 C   0  0  2  0  0  3  0  0  0  0  0  0
  188.7440  176.4040  136.0100 C   0  0  0  0  0  2  0  0  0  0  0  0
  189.2500  175.9430  137.3710 C   0  0  0  0  0  2  0  0  0  0  0  0
  188.1750  178.6280  138.0300 C   0  0  0  0  0  2  0  0  0  0  0  0
  185.9450  177.5060  134.5970 C   0  0  0  0  0  2  0  0  0  0  0  0
  187.1520  177.8480  134.8630 N   0  0  0  0  0  0  0  0  0  0  0  0
  190.4170  178.7860  143.5070 N   0  0  0  0  0  2  0  0  0  0  0  0
  190.8320  177.5020  143.0340 C   0  0  0  0  0  0  0  0  0  0  0  0
  192.0070  177.0960  143.2390 O   0  0  0  0  0  0  0  0  0  0  0  0
  191.3140  179.6660  144.2350 C   0  0  0  0  0  1  0  0  0  0  0  0
  1  8  1  0  0  0  0
  2  5  1  0  0  0  0
  2  1  1  0  0  0  0
  3 12  1  0  0  0  0
  3  4  1  0  0  0  0
  4  6  2  0  0  0  0
  5  3  2  0  0  0  0
  7  1  2  0  0  0  0
  8  4  1  0  0  0  0
  8 28  1  1  0  0  0
  9 11  1  0  0  0  0
 10 15  1  0  0  0  0
 11 16  1  0  0  0  0
 12  9  2  0  0  0  0
 13 14  1  0  0  0  0
 14 11  2  0  0  0  0
 15 13  2  0  0  0  0
 15 12  1  0  0  0  0
 16 17  1  0  0  0  0
 19 24  1  0  0  0  0
 20 18  1  6  0  0  0
 20  2  1  0  0  0  0
 21 26  1  6  0  0  0
 21 19  1  0  0  0  0
 22 21  1  0  0  0  0
 22 23  1  0  0  0  0
 23 18  1  0  0  0  0
 24 20  1  0  0  0  0
 25 26  2  0  0  0  0
 27 30  1  0  0  0  0
 28 29  2  0  0  0  0
 28 27  1  0  0  0  0
M  END
>  <MODEL>
7

>  <REMARK>
 VINA RESULT:      -6.5      3.090      6.721
  Name = 
  5 active torsions:
  status: ('A' for Active; 'I' for Inactive)
    1  A    between atoms: C_2  and  C_27
    2  A    between atoms: N_4  and  C_10
    3  A    between atoms: C_9  and  C_21
    4  A    between atoms: C_14  and  S_17
    5  A    between atoms: C_18  and  N_25
                            x       y       z     vdW  Elec       q    Type
                         _______ _______ _______ _____ _____    ______ ____

>  <TORSDO>
F 5

$$$$
=
 OpenBabel11032419173D

 30 32  0  0  1  0  0  0  0  0999 V2000
  185.7210  178.3290  138.3650 C   0  0  0  0  0  0  0  0  0  0  0  0
  185.2350  178.4630  139.7110 N   0  0  0  0  0  0  0  0  0  0  0  0
  182.9700  177.8740  139.0640 C   0  0  0  0  0  0  0  0  0  0  0  0
  183.4170  177.7290  137.6520 C   0  0  0  0  0  0  0  0  0  0  0  0
  183.8540  178.2020  140.0100 C   0  0  0  0  0  3  0  0  0  0  0  0
  182.5410  177.5100  136.6750 C   0  0  0  0  0  2  0  0  0  0  0  0
  186.8710  178.7430  138.0580 O   0  0  0  0  0  0  0  0  0  0  0  0
  184.8840  177.6440  137.3270 C   0  0  2  0  0  3  0  0  0  0  0  0
  181.1730  176.3960  139.9260 C   0  0  0  0  0  3  0  0  0  0  0  0
  180.9690  180.0050  139.0130 N   0  0  0  0  0  1  0  0  0  0  0  0
  179.8540  176.1710  140.3190 C   0  0  0  0  0  0  0  0  0  0  0  0
  181.5650  177.6570  139.4660 C   0  0  0  0  0  0  0  0  0  0  0  0
  179.3270  178.4410  139.8090 N   0  0  0  0  0  0  0  0  0  0  0  0
  178.9330  177.2160  140.2460 C   0  0  0  0  0  3  0  0  0  0  0  0
  180.6080  178.6880  139.4230 C   0  0  0  0  0  0  0  0  0  0  0  0
  179.3460  174.5560  140.8920 S   0  0  0  0  0  0  0  0  0  0  0  0
  179.2990  173.8770  139.2090 C   0  0  0  0  0  1  0  0  0  0  0  0
  185.3620  179.3120  142.0330 C   0  0  0  0  0  2  0  0  0  0  0  0
  187.9240  178.1360  142.2020 O   0  0  0  0  0  0  0  0  0  0  0  0
  186.1390  178.9080  140.7680 C   0  0  1  0  0  3  0  0  0  0  0  0
  187.3870  177.2090  143.1040 C   0  0  2  0  0  3  0  0  0  0  0  0
  186.2230  177.8370  143.8740 C   0  0  0  0  0  2  0  0  0  0  0  0
  185.0440  178.1380  142.9550 C   0  0  0  0  0  2  0  0  0  0  0  0
  187.2590  177.8860  140.9970 C   0  0  0  0  0  2  0  0  0  0  0  0
  188.5900  177.3950  145.1330 C   0  0  0  0  0  2  0  0  0  0  0  0
  188.4150  176.7850  144.0190 N   0  0  0  0  0  0  0  0  0  0  0  0
  184.5140  175.1600  137.7070 N   0  0  0  0  0  2  0  0  0  0  0  0
  185.3170  176.2170  137.1770 C   0  0  0  0  0  0  0  0  0  0  0  0
  186.3970  175.9600  136.5810 O   0  0  0  0  0  0  0  0  0  0  0  0
  184.8970  173.7640  137.5830 C   0  0  0  0  0  1  0  0  0  0  0  0
  1  2  1  0  0  0  0
  2  5  1  0  0  0  0
  3 12  1  0  0  0  0
  3  5  2  0  0  0  0
  4  3  1  0  0  0  0
  6  4  2  0  0  0  0
  7  1  2  0  0  0  0
  8 28  1  1  0  0  0
  8  4  1  0  0  0  0
  8  1  1  0  0  0  0
  9 11  1  0  0  0  0
 10 15  1  0  0  0  0
 11 16  1  0  0  0  0
 12  9  2  0  0  0  0
 13 14  1  0  0  0  0
 14 11  2  0  0  0  0
 15 12  1  0  0  0  0
 15 13  2  0  0  0  0
 17 16  1  0  0  0  0
 18 23  1  0  0  0  0
 19 21  1  0  0  0  0
 20  2  1  6  0  0  0
 20 24  1  0  0  0  0
 20 18  1  0  0  0  0
 21 22  1  0  0  0  0
 21 26  1  1  0  0  0
 23 22  1  0  0  0  0
 24 19  1  0  0  0  0
 26 25  2  0  0  0  0
 28 27  1  0  0  0  0
 29 28  2  0  0  0  0
 30 27  1  0  0  0  0
M  END
>  <MODEL>
8

>  <REMARK>
 VINA RESULT:      -6.4      3.663      5.661
  Name = 
  5 active torsions:
  status: ('A' for Active; 'I' for Inactive)
    1  A    between atoms: C_2  and  C_27
    2  A    between atoms: N_4  and  C_10
    3  A    between atoms: C_9  and  C_21
    4  A    between atoms: C_14  and  S_17
    5  A    between atoms: C_18  and  N_25
                            x       y       z     vdW  Elec       q    Type
                         _______ _______ _______ _____ _____    ______ ____

>  <TORSDO>
F 5

$$$$
=
 OpenBabel11032419173D

 30 32  0  0  1  0  0  0  0  0999 V2000
  189.1710  177.7290  144.5400 C   0  0  0  0  0  0  0  0  0  0  0  0
  188.1950  177.2980  143.5780 N   0  0  0  0  0  0  0  0  0  0  0  0
  189.7800  177.4510  141.7450 C   0  0  0  0  0  0  0  0  0  0  0  0
  190.8270  177.9090  142.6970 C   0  0  0  0  0  0  0  0  0  0  0  0
  188.5570  177.1550  142.1950 C   0  0  0  0  0  3  0  0  0  0  0  0
  192.0180  178.3140  142.2620 C   0  0  0  0  0  2  0  0  0  0  0  0
  188.8180  178.0480  145.7080 O   0  0  0  0  0  0  0  0  0  0  0  0
  190.6260  177.7500  144.1800 C   0  0  2  0  0  3  0  0  0  0  0  0
  191.0070  176.3770  139.8740 C   0  0  0  0  0  3  0  0  0  0  0  0
  188.3220  178.9590  139.7090 N   0  0  0  0  0  1  0  0  0  0  0  0
  191.2690  176.2130  138.5150 C   0  0  0  0  0  0  0  0  0  0  0  0
  190.0470  177.3010  140.3000 C   0  0  0  0  0  0  0  0  0  0  0  0
  189.6250  177.8670  138.0100 N   0  0  0  0  0  0  0  0  0  0  0  0
  190.5640  176.9800  137.5870 C   0  0  0  0  0  3  0  0  0  0  0  0
  189.3470  178.0440  139.3300 C   0  0  0  0  0  0  0  0  0  0  0  0
  192.5060  175.0450  137.9680 S   0  0  0  0  0  0  0  0  0  0  0  0
  193.4110  176.3100  137.0310 C   0  0  0  0  0  1  0  0  0  0  0  0
  186.6670  177.2080  145.5240 C   0  0  0  0  0  2  0  0  0  0  0  0
  184.5670  177.8920  143.7640 O   0  0  0  0  0  0  0  0  0  0  0  0
  186.8190  177.0490  144.0020 C   0  0  1  0  0  3  0  0  0  0  0  0
  184.4990  179.1360  144.4050 C   0  0  2  0  0  3  0  0  0  0  0  0
  184.9420  179.0010  145.8640 C   0  0  0  0  0  2  0  0  0  0  0  0
  186.4220  178.6480  145.9660 C   0  0  0  0  0  2  0  0  0  0  0  0
  185.8320  177.8700  143.1650 C   0  0  0  0  0  2  0  0  0  0  0  0
  182.2510  178.9960  143.6770 C   0  0  0  0  0  2  0  0  0  0  0  0
  183.1470  179.6290  144.3410 N   0  0  0  0  0  0  0  0  0  0  0  0
  191.7720  176.4370  146.0270 N   0  0  0  0  0  2  0  0  0  0  0  0
  191.2970  176.5080  144.6810 C   0  0  0  0  0  0  0  0  0  0  0  0
  191.4400  175.5270  143.9020 O   0  0  0  0  0  0  0  0  0  0  0  0
  192.4280  175.2520  146.5520 C   0  0  0  0  0  1  0  0  0  0  0  0
  1  7  2  0  0  0  0
  2 20  1  0  0  0  0
  2  1  1  0  0  0  0
  3  5  2  0  0  0  0
  3  4  1  0  0  0  0
  4  8  1  0  0  0  0
  5  2  1  0  0  0  0
  6  4  2  0  0  0  0
  8  1  1  0  0  0  0
  8 28  1  6  0  0  0
  9 12  1  0  0  0  0
 11  9  2  0  0  0  0
 12  3  1  0  0  0  0
 13 15  1  0  0  0  0
 14 13  2  0  0  0  0
 14 11  1  0  0  0  0
 15 10  1  0  0  0  0
 15 12  2  0  0  0  0
 16 11  1  0  0  0  0
 17 16  1  0  0  0  0
 18 23  1  0  0  0  0
 19 21  1  0  0  0  0
 20 24  1  6  0  0  0
 20 18  1  0  0  0  0
 21 26  1  1  0  0  0
 21 22  1  0  0  0  0
 22 23  1  0  0  0  0
 24 19  1  0  0  0  0
 25 26  2  0  0  0  0
 27 30  1  0  0  0  0
 28 27  1  0  0  0  0
 29 28  2  0  0  0  0
M  END
>  <MODEL>
9

>  <REMARK>
 VINA RESULT:      -6.4      3.204      5.859
  Name = 
  5 active torsions:
  status: ('A' for Active; 'I' for Inactive)
    1  A    between atoms: C_2  and  C_27
    2  A    between atoms: N_4  and  C_10
    3  A    between atoms: C_9  and  C_21
    4  A    between atoms: C_14  and  S_17
    5  A    between atoms: C_18  and  N_25
                            x       y       z     vdW  Elec       q    Type
                         _______ _______ _______ _____ _____    ______ ____

>  <TORSDO>
F 5

$$$$
