=
 OpenBabel11042410593D

 29 33  0  0  1  0  0  0  0  0999 V2000
  182.1140  179.1570  140.7560 C   0  0  0  0  0  0  0  0  0  0  0  0
  183.3040  179.4290  140.0250 C   0  0  0  0  0  0  0  0  0  0  0  0
  185.0280  179.0010  145.1680 C   0  0  0  0  0  3  0  0  0  0  0  0
  186.2190  178.1980  141.9420 O   0  0  0  0  0  0  0  0  0  0  0  0
  181.9760  180.5780  138.3640 C   0  0  0  0  0  3  0  0  0  0  0  0
  185.1830  178.6560  143.8930 C   0  0  0  0  0  0  0  0  0  0  0  0
  182.9760  178.2690  142.8670 C   0  0  0  0  0  3  0  0  0  0  0  0
  182.0670  178.3460  141.9440 N   0  0  0  0  0  0  0  0  0  0  0  0
  187.1000  178.1020  146.2770 C   0  0  0  0  0  3  0  0  0  0  0  0
  187.7080  177.3320  145.1880 C   0  0  0  0  0  3  0  0  0  0  0  0
  185.9670  178.7980  146.2740 C   0  0  0  0  0  3  0  0  0  0  0  0
  184.2140  179.0970  142.8390 C   0  0  2  0  0  3  0  0  0  0  0  0
  184.5970  178.9320  140.4040 N   0  0  0  0  0  0  0  0  0  0  0  0
  187.3770  177.2730  143.8990 C   0  0  0  0  0  0  0  0  0  0  0  0
  186.3550  178.0880  143.3030 N   0  0  0  0  0  0  0  0  0  0  0  0
  180.8950  179.6070  140.2360 C   0  0  0  0  0  3  0  0  0  0  0  0
  183.2140  180.1330  138.8210 C   0  0  0  0  0  3  0  0  0  0  0  0
  184.9960  178.7550  141.6220 C   0  0  0  0  0  0  0  0  0  0  0  0
  180.8510  180.3090  139.0730 N   0  0  0  0  0  0  0  0  0  0  0  0
  188.1710  176.4130  143.0740 N   0  0  0  0  0  2  0  0  0  0  0  0
  190.1130  177.4980  140.1850 N   0  0  0  0  0  0  0  0  0  0  0  0
  188.9810  177.2170  140.7540 C   0  0  0  0  0  3  0  0  0  0  0  0
  192.3340  177.5220  140.9990 O   0  0  0  0  0  0  0  0  0  0  0  0
  191.1030  177.3350  141.1910 C   0  0  0  0  0  0  0  0  0  0  0  0
  189.1840  176.8660  142.1700 C   0  0  0  0  0  0  0  0  0  0  0  0
  190.4840  176.9230  142.4340 C   0  0  0  0  0  0  0  0  0  0  0  0
  191.7110  175.3990  143.8450 O   0  0  0  0  0  1  0  0  0  0  0  0
  191.2840  177.5960  144.7400 C   0  0  0  0  0  1  0  0  0  0  0  0
  191.1550  176.6190  143.6690 N   0  0  0  0  0  0  0  0  0  0  0  0
  1  8  1  0  0  0  0
  2 13  1  0  0  0  0
  2  1  2  0  0  0  0
  3 11  1  0  0  0  0
  4 15  1  0  0  0  0
  5 17  2  0  0  0  0
  5 19  1  0  0  0  0
  6  3  2  0  0  0  0
  8  7  2  0  0  0  0
 10  9  1  0  0  0  0
 11  9  2  0  0  0  0
 12  7  1  6  0  0  0
 12  6  1  0  0  0  0
 13 18  2  0  0  0  0
 14 10  2  0  0  0  0
 15  6  1  0  0  0  0
 15 14  1  0  0  0  0
 16  1  1  0  0  0  0
 17  2  1  0  0  0  0
 18  4  1  0  0  0  0
 18 12  1  0  0  0  0
 19 16  2  0  0  0  0
 20 14  1  0  0  0  0
 21 22  2  0  0  0  0
 21 24  1  0  0  0  0
 22 25  1  0  0  0  0
 23 24  2  0  0  0  0
 24 26  1  0  0  0  0
 25 26  2  0  0  0  0
 25 20  1  0  0  0  0
 26 29  1  0  0  0  0
 29 27  1  0  0  0  0
 29 28  1  0  0  0  0
M  END
>  <MODEL>
1

>  <REMARK>
 VINA RESULT:      -8.8      0.000      0.000
  Name = 
  3 active torsions:
  status: ('A' for Active; 'I' for Inactive)
    1  A    between atoms: N_8  and  C_29
    2  A    between atoms: N_13  and  C_22
    3  A    between atoms: N_13  and  C_23
                            x       y       z     vdW  Elec       q    Type
                         _______ _______ _______ _____ _____    ______ ____

>  <TORSDO>
F 3

$$$$
=
 OpenBabel11042410593D

 29 33  0  0  1  0  0  0  0  0999 V2000
  181.9130  179.1920  140.7480 C   0  0  0  0  0  0  0  0  0  0  0  0
  183.1000  179.4250  140.0020 C   0  0  0  0  0  0  0  0  0  0  0  0
  184.8660  179.0640  145.1360 C   0  0  0  0  0  3  0  0  0  0  0  0
  186.0100  178.1750  141.9160 O   0  0  0  0  0  0  0  0  0  0  0  0
  181.7790  180.5680  138.3300 C   0  0  0  0  0  3  0  0  0  0  0  0
  185.0020  178.6910  143.8670 C   0  0  0  0  0  0  0  0  0  0  0  0
  182.7780  178.3280  142.8690 C   0  0  0  0  0  3  0  0  0  0  0  0
  181.8620  178.4050  141.9530 N   0  0  0  0  0  0  0  0  0  0  0  0
  186.9300  178.1470  146.2430 C   0  0  0  0  0  3  0  0  0  0  0  0
  187.5130  177.3440  145.1640 C   0  0  0  0  0  3  0  0  0  0  0  0
  185.8110  178.8650  146.2370 C   0  0  0  0  0  3  0  0  0  0  0  0
  184.0310  179.1310  142.8130 C   0  0  2  0  0  3  0  0  0  0  0  0
  184.3870  178.9120  140.3780 N   0  0  0  0  0  0  0  0  0  0  0  0
  187.1680  177.2660  143.8800 C   0  0  0  0  0  0  0  0  0  0  0  0
  186.1570  178.0900  143.2770 N   0  0  0  0  0  0  0  0  0  0  0  0
  180.6980  179.6550  140.2320 C   0  0  0  0  0  3  0  0  0  0  0  0
  183.0130  180.1080  138.7850 C   0  0  0  0  0  3  0  0  0  0  0  0
  184.7950  178.7500  141.5960 C   0  0  0  0  0  0  0  0  0  0  0  0
  180.6560  180.3350  139.0560 N   0  0  0  0  0  0  0  0  0  0  0  0
  187.9370  176.3750  143.0640 N   0  0  0  0  0  2  0  0  0  0  0  0
  191.5760  176.6010  143.1170 N   0  0  0  0  0  0  0  0  0  0  0  0
  190.4510  176.2380  143.6530 C   0  0  0  0  0  3  0  0  0  0  0  0
  192.0870  177.6410  141.0550 O   0  0  0  0  0  0  0  0  0  0  0  0
  191.2400  177.1720  141.8600 C   0  0  0  0  0  0  0  0  0  0  0  0
  189.3250  176.5510  142.7570 C   0  0  0  0  0  0  0  0  0  0  0  0
  189.8050  177.1360  141.6670 C   0  0  0  0  0  0  0  0  0  0  0  0
  188.4630  178.8570  140.6380 O   0  0  0  0  0  1  0  0  0  0  0  0
  188.9940  176.9400  139.2770 C   0  0  0  0  0  1  0  0  0  0  0  0
  189.0760  177.6550  140.5420 N   0  0  0  0  0  0  0  0  0  0  0  0
  1  8  1  0  0  0  0
  2 13  1  0  0  0  0
  2  1  2  0  0  0  0
  3 11  1  0  0  0  0
  4 15  1  0  0  0  0
  5 17  2  0  0  0  0
  5 19  1  0  0  0  0
  6  3  2  0  0  0  0
  8  7  2  0  0  0  0
 10  9  1  0  0  0  0
 11  9  2  0  0  0  0
 12  7  1  1  0  0  0
 12  6  1  0  0  0  0
 13 18  2  0  0  0  0
 14 10  2  0  0  0  0
 15  6  1  0  0  0  0
 15 14  1  0  0  0  0
 16  1  1  0  0  0  0
 17  2  1  0  0  0  0
 18  4  1  0  0  0  0
 18 12  1  0  0  0  0
 19 16  2  0  0  0  0
 20 14  1  0  0  0  0
 21 22  2  0  0  0  0
 23 24  2  0  0  0  0
 24 21  1  0  0  0  0
 25 20  1  0  0  0  0
 25 22  1  0  0  0  0
 26 24  1  0  0  0  0
 26 25  2  0  0  0  0
 28 29  1  0  0  0  0
 29 27  1  0  0  0  0
 29 26  1  0  0  0  0
M  END
>  <MODEL>
2

>  <REMARK>
 VINA RESULT:      -8.6      0.885      1.943
  Name = 
  3 active torsions:
  status: ('A' for Active; 'I' for Inactive)
    1  A    between atoms: N_8  and  C_29
    2  A    between atoms: N_13  and  C_22
    3  A    between atoms: N_13  and  C_23
                            x       y       z     vdW  Elec       q    Type
                         _______ _______ _______ _____ _____    ______ ____

>  <TORSDO>
F 3

$$$$
=
 OpenBabel11042410593D

 29 33  0  0  1  0  0  0  0  0999 V2000
  186.4080  178.7440  146.3080 C   0  0  0  0  0  0  0  0  0  0  0  0
  187.1170  177.8520  145.4570 C   0  0  0  0  0  0  0  0  0  0  0  0
  182.4180  178.6620  142.8350 C   0  0  0  0  0  3  0  0  0  0  0  0
  185.8140  178.1650  142.0080 O   0  0  0  0  0  0  0  0  0  0  0  0
  188.3050  177.0150  147.3890 C   0  0  0  0  0  3  0  0  0  0  0  0
  183.7460  178.6200  142.7840 C   0  0  0  0  0  0  0  0  0  0  0  0
  184.6840  179.6430  144.8210 C   0  0  0  0  0  3  0  0  0  0  0  0
  185.4860  179.7440  145.8360 N   0  0  0  0  0  0  0  0  0  0  0  0
  181.7420  178.8490  140.4190 C   0  0  0  0  0  3  0  0  0  0  0  0
  183.0400  179.0370  139.7630 C   0  0  0  0  0  3  0  0  0  0  0  0
  181.4770  178.6990  141.7140 C   0  0  0  0  0  3  0  0  0  0  0  0
  184.5700  178.3950  144.0160 C   0  0  2  0  0  3  0  0  0  0  0  0
  186.9780  177.8420  144.0280 N   0  0  0  0  0  0  0  0  0  0  0  0
  184.2700  178.9400  140.2650 C   0  0  0  0  0  0  0  0  0  0  0  0
  184.5490  178.5070  141.6070 N   0  0  0  0  0  0  0  0  0  0  0  0
  186.6990  178.7340  147.6760 C   0  0  0  0  0  3  0  0  0  0  0  0
  188.0730  176.9990  146.0150 C   0  0  0  0  0  3  0  0  0  0  0  0
  185.8850  178.1050  143.3860 C   0  0  0  0  0  0  0  0  0  0  0  0
  187.6200  177.8740  148.1850 N   0  0  0  0  0  0  0  0  0  0  0  0
  185.3510  179.1890  139.3600 N   0  0  0  0  0  2  0  0  0  0  0  0
  185.7380  176.6230  136.7980 N   0  0  0  0  0  0  0  0  0  0  0  0
  185.0050  177.4520  137.4770 C   0  0  0  0  0  3  0  0  0  0  0  0
  188.0630  176.1920  136.8060 O   0  0  0  0  0  0  0  0  0  0  0  0
  187.0700  176.8290  137.2460 C   0  0  0  0  0  0  0  0  0  0  0  0
  185.8350  178.2480  138.3960 C   0  0  0  0  0  0  0  0  0  0  0  0
  187.0970  177.8570  138.2670 C   0  0  0  0  0  0  0  0  0  0  0  0
  189.0010  179.3230  138.4840 O   0  0  0  0  0  1  0  0  0  0  0  0
  188.6300  177.7570  140.2790 C   0  0  0  0  0  1  0  0  0  0  0  0
  188.2500  178.3180  138.9910 N   0  0  0  0  0  0  0  0  0  0  0  0
  1 16  1  0  0  0  0
  2 17  1  0  0  0  0
  2  1  2  0  0  0  0
  4 18  1  0  0  0  0
  5 19  1  0  0  0  0
  6  3  2  0  0  0  0
  6 12  1  0  0  0  0
  7  8  2  0  0  0  0
  8  1  1  0  0  0  0
  9 11  2  0  0  0  0
 10 14  2  0  0  0  0
 10  9  1  0  0  0  0
 11  3  1  0  0  0  0
 12  7  1  1  0  0  0
 13  2  1  0  0  0  0
 14 15  1  0  0  0  0
 15  4  1  0  0  0  0
 15  6  1  0  0  0  0
 16 19  2  0  0  0  0
 17  5  2  0  0  0  0
 18 12  1  0  0  0  0
 18 13  2  0  0  0  0
 20 14  1  0  0  0  0
 21 24  1  0  0  0  0
 21 22  2  0  0  0  0
 22 25  1  0  0  0  0
 23 24  2  0  0  0  0
 24 26  1  0  0  0  0
 25 20  1  0  0  0  0
 26 25  2  0  0  0  0
 26 29  1  0  0  0  0
 27 29  1  0  0  0  0
 29 28  1  0  0  0  0
M  END
>  <MODEL>
3

>  <REMARK>
 VINA RESULT:      -8.5      2.518      6.259
  Name = 
  3 active torsions:
  status: ('A' for Active; 'I' for Inactive)
    1  A    between atoms: N_8  and  C_29
    2  A    between atoms: N_13  and  C_22
    3  A    between atoms: N_13  and  C_23
                            x       y       z     vdW  Elec       q    Type
                         _______ _______ _______ _____ _____    ______ ____

>  <TORSDO>
F 3

$$$$
=
 OpenBabel11042410593D

 29 33  0  0  1  0  0  0  0  0999 V2000
  181.8290  178.7070  139.5420 C   0  0  0  0  0  0  0  0  0  0  0  0
  182.6060  179.8180  139.1150 C   0  0  0  0  0  0  0  0  0  0  0  0
  185.3800  177.8780  143.3750 C   0  0  0  0  0  3  0  0  0  0  0  0
  186.0970  179.3780  140.2600 O   0  0  0  0  0  0  0  0  0  0  0  0
  180.5990  180.8300  138.2230 C   0  0  0  0  0  3  0  0  0  0  0  0
  185.3980  178.3010  142.1140 C   0  0  0  0  0  0  0  0  0  0  0  0
  183.4080  177.4550  140.9310 C   0  0  0  0  0  3  0  0  0  0  0  0
  182.3830  177.5190  140.1370 N   0  0  0  0  0  0  0  0  0  0  0  0
  187.8170  177.6670  143.9600 C   0  0  0  0  0  3  0  0  0  0  0  0
  188.4550  177.9010  142.6600 C   0  0  0  0  0  3  0  0  0  0  0  0
  186.5220  177.6480  144.2620 C   0  0  0  0  0  3  0  0  0  0  0  0
  184.1360  178.6690  141.3940 C   0  0  2  0  0  3  0  0  0  0  0  0
  184.0350  179.8840  139.2450 N   0  0  0  0  0  0  0  0  0  0  0  0
  187.9200  178.3120  141.5110 C   0  0  0  0  0  0  0  0  0  0  0  0
  186.5480  178.7160  141.3730 N   0  0  0  0  0  0  0  0  0  0  0  0
  180.4570  178.7090  139.2710 C   0  0  0  0  0  3  0  0  0  0  0  0
  181.9740  180.8700  138.4450 C   0  0  0  0  0  3  0  0  0  0  0  0
  184.7160  179.3630  140.2150 C   0  0  0  0  0  0  0  0  0  0  0  0
  179.8740  179.7600  138.6370 N   0  0  0  0  0  0  0  0  0  0  0  0
  188.8140  178.4420  140.4010 N   0  0  0  0  0  2  0  0  0  0  0  0
  190.4610  175.6570  138.7190 N   0  0  0  0  0  0  0  0  0  0  0  0
  190.3340  176.4610  139.7300 C   0  0  0  0  0  3  0  0  0  0  0  0
  189.2340  175.4300  136.7110 O   0  0  0  0  0  0  0  0  0  0  0  0
  189.4210  176.0040  137.8160 C   0  0  0  0  0  0  0  0  0  0  0  0
  189.1900  177.3670  139.5330 C   0  0  0  0  0  0  0  0  0  0  0  0
  188.6400  177.0990  138.3550 C   0  0  0  0  0  0  0  0  0  0  0  0
  187.6890  179.0040  137.2220 O   0  0  0  0  0  1  0  0  0  0  0  0
  186.2350  177.1130  137.5680 C   0  0  0  0  0  1  0  0  0  0  0  0
  187.5310  177.7560  137.7200 N   0  0  0  0  0  0  0  0  0  0  0  0
  1  8  1  0  0  0  0
  2 13  1  0  0  0  0
  2  1  2  0  0  0  0
  3 11  1  0  0  0  0
  4 15  1  0  0  0  0
  5 17  2  0  0  0  0
  5 19  1  0  0  0  0
  6  3  2  0  0  0  0
  8  7  2  0  0  0  0
  9 11  2  0  0  0  0
 10  9  1  0  0  0  0
 12  7  1  6  0  0  0
 12  6  1  0  0  0  0
 13 18  2  0  0  0  0
 14 10  2  0  0  0  0
 15 14  1  0  0  0  0
 15  6  1  0  0  0  0
 16  1  1  0  0  0  0
 17  2  1  0  0  0  0
 18  4  1  0  0  0  0
 18 12  1  0  0  0  0
 19 16  2  0  0  0  0
 20 14  1  0  0  0  0
 21 22  2  0  0  0  0
 23 24  2  0  0  0  0
 24 26  1  0  0  0  0
 24 21  1  0  0  0  0
 25 22  1  0  0  0  0
 25 20  1  0  0  0  0
 26 25  2  0  0  0  0
 27 29  1  0  0  0  0
 28 29  1  0  0  0  0
 29 26  1  0  0  0  0
M  END
>  <MODEL>
4

>  <REMARK>
 VINA RESULT:      -8.2      2.582      3.551
  Name = 
  3 active torsions:
  status: ('A' for Active; 'I' for Inactive)
    1  A    between atoms: N_8  and  C_29
    2  A    between atoms: N_13  and  C_22
    3  A    between atoms: N_13  and  C_23
                            x       y       z     vdW  Elec       q    Type
                         _______ _______ _______ _____ _____    ______ ____

>  <TORSDO>
F 3

$$$$
=
 OpenBabel11042410593D

 29 33  0  0  1  0  0  0  0  0999 V2000
  190.5150  176.9410  145.2800 C   0  0  0  0  0  0  0  0  0  0  0  0
  190.4370  176.2560  144.0360 C   0  0  0  0  0  0  0  0  0  0  0  0
  185.3630  178.0570  144.8230 C   0  0  0  0  0  3  0  0  0  0  0  0
  187.5610  177.5540  142.1050 O   0  0  0  0  0  0  0  0  0  0  0  0
  192.2820  174.8580  144.7350 C   0  0  0  0  0  3  0  0  0  0  0  0
  186.4040  177.9350  144.0030 C   0  0  0  0  0  0  0  0  0  0  0  0
  188.4910  178.3180  145.2560 C   0  0  0  0  0  3  0  0  0  0  0  0
  189.7180  178.0920  145.6140 N   0  0  0  0  0  0  0  0  0  0  0  0
  183.5340  178.9190  143.3270 C   0  0  0  0  0  3  0  0  0  0  0  0
  184.2660  179.1800  142.0840 C   0  0  0  0  0  3  0  0  0  0  0  0
  183.9960  178.4540  144.4850 C   0  0  0  0  0  3  0  0  0  0  0  0
  187.6980  177.3370  144.4650 C   0  0  2  0  0  3  0  0  0  0  0  0
  189.5420  176.6310  142.9790 N   0  0  0  0  0  0  0  0  0  0  0  0
  185.5170  178.8670  141.7510 C   0  0  0  0  0  0  0  0  0  0  0  0
  186.3870  178.0790  142.5810 N   0  0  0  0  0  0  0  0  0  0  0  0
  191.4970  176.5510  146.1960 C   0  0  0  0  0  3  0  0  0  0  0  0
  191.3400  175.2200  143.7750 C   0  0  0  0  0  3  0  0  0  0  0  0
  188.3590  177.1300  143.1490 C   0  0  0  0  0  0  0  0  0  0  0  0
  192.3420  175.5240  145.9160 N   0  0  0  0  0  0  0  0  0  0  0  0
  185.9510  179.2680  140.4470 N   0  0  0  0  0  2  0  0  0  0  0  0
  184.4770  177.3650  137.7080 N   0  0  0  0  0  0  0  0  0  0  0  0
  184.3660  178.0860  138.7810 C   0  0  0  0  0  3  0  0  0  0  0  0
  186.3570  176.6770  136.4490 O   0  0  0  0  0  0  0  0  0  0  0  0
  185.8680  177.3010  137.4270 C   0  0  0  0  0  0  0  0  0  0  0  0
  185.6890  178.5360  139.2450 C   0  0  0  0  0  0  0  0  0  0  0  0
  186.6110  178.0430  138.4260 C   0  0  0  0  0  0  0  0  0  0  0  0
  188.6270  179.3260  138.0970 O   0  0  0  0  0  1  0  0  0  0  0  0
  188.8860  177.1280  139.0530 C   0  0  0  0  0  1  0  0  0  0  0  0
  188.0390  178.1790  138.5090 N   0  0  0  0  0  0  0  0  0  0  0  0
  1  8  1  0  0  0  0
  1 16  1  0  0  0  0
  2  1  2  0  0  0  0
  4 15  1  0  0  0  0
  4 18  1  0  0  0  0
  5 19  1  0  0  0  0
  6 12  1  0  0  0  0
  6  3  2  0  0  0  0
  7  8  2  0  0  0  0
  9 11  2  0  0  0  0
 10  9  1  0  0  0  0
 11  3  1  0  0  0  0
 12  7  1  1  0  0  0
 13 18  2  0  0  0  0
 13  2  1  0  0  0  0
 14 10  2  0  0  0  0
 14 15  1  0  0  0  0
 15  6  1  0  0  0  0
 17  2  1  0  0  0  0
 17  5  2  0  0  0  0
 18 12  1  0  0  0  0
 19 16  2  0  0  0  0
 20 14  1  0  0  0  0
 21 22  2  0  0  0  0
 22 25  1  0  0  0  0
 23 24  2  0  0  0  0
 24 21  1  0  0  0  0
 24 26  1  0  0  0  0
 25 20  1  0  0  0  0
 26 29  1  0  0  0  0
 26 25  2  0  0  0  0
 27 29  1  0  0  0  0
 29 28  1  0  0  0  0
M  END
>  <MODEL>
5

>  <REMARK>
 VINA RESULT:      -8.2      2.499      7.069
  Name = 
  3 active torsions:
  status: ('A' for Active; 'I' for Inactive)
    1  A    between atoms: N_8  and  C_29
    2  A    between atoms: N_13  and  C_22
    3  A    between atoms: N_13  and  C_23
                            x       y       z     vdW  Elec       q    Type
                         _______ _______ _______ _____ _____    ______ ____

>  <TORSDO>
F 3

$$$$
=
 OpenBabel11042410593D

 29 33  0  0  1  0  0  0  0  0999 V2000
  190.5050  177.1160  146.4510 C   0  0  0  0  0  0  0  0  0  0  0  0
  191.0390  176.4270  145.3270 C   0  0  0  0  0  0  0  0  0  0  0  0
  185.9880  177.7060  143.7600 C   0  0  0  0  0  3  0  0  0  0  0  0
  189.1850  177.4290  142.2860 O   0  0  0  0  0  0  0  0  0  0  0  0
  192.5150  175.2230  146.8170 C   0  0  0  0  0  3  0  0  0  0  0  0
  187.2880  177.6900  143.4780 C   0  0  0  0  0  0  0  0  0  0  0  0
  188.5770  178.2820  145.4930 C   0  0  0  0  0  3  0  0  0  0  0  0
  189.5410  178.1810  146.3570 N   0  0  0  0  0  0  0  0  0  0  0  0
  184.9220  178.3790  141.5830 C   0  0  0  0  0  3  0  0  0  0  0  0
  186.0950  178.7140  140.7700 C   0  0  0  0  0  3  0  0  0  0  0  0
  184.8740  177.9630  142.8450 C   0  0  0  0  0  3  0  0  0  0  0  0
  188.3010  177.2260  144.4800 C   0  0  2  0  0  3  0  0  0  0  0  0
  190.6630  176.7100  143.9710 N   0  0  0  0  0  0  0  0  0  0  0  0
  187.3890  178.5290  141.0260 C   0  0  0  0  0  0  0  0  0  0  0  0
  187.8790  177.8320  142.1840 N   0  0  0  0  0  0  0  0  0  0  0  0
  191.0210  176.8270  147.7180 C   0  0  0  0  0  3  0  0  0  0  0  0
  192.0550  175.4880  145.5290 C   0  0  0  0  0  3  0  0  0  0  0  0
  189.4840  177.0870  143.5910 C   0  0  0  0  0  0  0  0  0  0  0  0
  191.9940  175.8910  147.8770 N   0  0  0  0  0  0  0  0  0  0  0  0
  188.3090  178.9720  140.0220 N   0  0  0  0  0  2  0  0  0  0  0  0
  190.6230  176.8580  138.1600 N   0  0  0  0  0  0  0  0  0  0  0  0
  190.2860  177.5060  139.2330 C   0  0  0  0  0  3  0  0  0  0  0  0
  189.5150  176.5220  136.0970 O   0  0  0  0  0  0  0  0  0  0  0  0
  189.5400  177.0180  137.2550 C   0  0  0  0  0  0  0  0  0  0  0  0
  188.9530  178.1120  139.0770 C   0  0  0  0  0  0  0  0  0  0  0  0
  188.5020  177.8270  137.8610 C   0  0  0  0  0  0  0  0  0  0  0  0
  187.1810  179.4760  136.6970 O   0  0  0  0  0  1  0  0  0  0  0  0
  186.1090  177.3700  137.1760 C   0  0  0  0  0  1  0  0  0  0  0  0
  187.2700  178.2440  137.2490 N   0  0  0  0  0  0  0  0  0  0  0  0
  1 16  1  0  0  0  0
  2 17  1  0  0  0  0
  2  1  2  0  0  0  0
  4 18  1  0  0  0  0
  5 19  1  0  0  0  0
  6  3  2  0  0  0  0
  6 12  1  0  0  0  0
  7  8  2  0  0  0  0
  8  1  1  0  0  0  0
  9 11  2  0  0  0  0
 10 14  2  0  0  0  0
 10  9  1  0  0  0  0
 11  3  1  0  0  0  0
 12  7  1  1  0  0  0
 13  2  1  0  0  0  0
 14 15  1  0  0  0  0
 15  4  1  0  0  0  0
 15  6  1  0  0  0  0
 16 19  2  0  0  0  0
 17  5  2  0  0  0  0
 18 13  2  0  0  0  0
 18 12  1  0  0  0  0
 20 14  1  0  0  0  0
 21 22  2  0  0  0  0
 23 24  2  0  0  0  0
 24 26  1  0  0  0  0
 24 21  1  0  0  0  0
 25 22  1  0  0  0  0
 25 20  1  0  0  0  0
 26 25  2  0  0  0  0
 27 29  1  0  0  0  0
 28 29  1  0  0  0  0
 29 26  1  0  0  0  0
M  END
>  <MODEL>
6

>  <REMARK>
 VINA RESULT:      -8.1      2.951      7.443
  Name = 
  3 active torsions:
  status: ('A' for Active; 'I' for Inactive)
    1  A    between atoms: N_8  and  C_29
    2  A    between atoms: N_13  and  C_22
    3  A    between atoms: N_13  and  C_23
                            x       y       z     vdW  Elec       q    Type
                         _______ _______ _______ _____ _____    ______ ____

>  <TORSDO>
F 3

$$$$
=
 OpenBabel11042410593D

 29 33  0  0  1  0  0  0  0  0999 V2000
  190.8430  176.0480  137.4030 C   0  0  0  0  0  0  0  0  0  0  0  0
  191.7250  176.4720  138.4350 C   0  0  0  0  0  0  0  0  0  0  0  0
  186.8960  178.4400  139.9890 C   0  0  0  0  0  3  0  0  0  0  0  0
  189.7810  177.0980  141.5200 O   0  0  0  0  0  0  0  0  0  0  0  0
  193.5430  176.4370  136.8420 C   0  0  0  0  0  3  0  0  0  0  0  0
  187.9990  177.7700  140.3120 C   0  0  0  0  0  0  0  0  0  0  0  0
  188.6430  176.2920  138.4490 C   0  0  0  0  0  3  0  0  0  0  0  0
  189.4570  175.7210  137.6140 N   0  0  0  0  0  0  0  0  0  0  0  0
  185.7450  178.7790  142.2000 C   0  0  0  0  0  3  0  0  0  0  0  0
  186.5770  177.9660  143.0950 C   0  0  0  0  0  3  0  0  0  0  0  0
  185.8720  178.9720  140.8910 C   0  0  0  0  0  3  0  0  0  0  0  0
  189.0480  177.4520  139.2900 C   0  0  2  0  0  3  0  0  0  0  0  0
  191.3230  176.6360  139.8040 N   0  0  0  0  0  0  0  0  0  0  0  0
  187.7420  177.3650  142.8610 C   0  0  0  0  0  0  0  0  0  0  0  0
  188.4770  177.5050  141.6330 N   0  0  0  0  0  0  0  0  0  0  0  0
  191.3690  175.8240  136.1260 C   0  0  0  0  0  3  0  0  0  0  0  0
  193.0790  176.6520  138.1380 C   0  0  0  0  0  3  0  0  0  0  0  0
  190.1540  177.0320  140.1920 C   0  0  0  0  0  0  0  0  0  0  0  0
  192.6870  176.0310  135.8700 N   0  0  0  0  0  0  0  0  0  0  0  0
  188.3120  176.6300  143.9490 N   0  0  0  0  0  2  0  0  0  0  0  0
  187.4660  177.8880  147.2650 N   0  0  0  0  0  0  0  0  0  0  0  0
  187.1220  177.4420  146.0960 C   0  0  0  0  0  3  0  0  0  0  0  0
  189.5770  178.1980  148.2850 O   0  0  0  0  0  0  0  0  0  0  0  0
  188.8850  177.8370  147.2970 C   0  0  0  0  0  0  0  0  0  0  0  0
  188.3110  177.0690  145.3120 C   0  0  0  0  0  0  0  0  0  0  0  0
  189.3920  177.3240  146.0400 C   0  0  0  0  0  0  0  0  0  0  0  0
  191.5450  176.2810  146.3470 O   0  0  0  0  0  1  0  0  0  0  0  0
  191.3690  177.8990  144.5680 C   0  0  0  0  0  1  0  0  0  0  0  0
  190.7710  177.1620  145.6720 N   0  0  0  0  0  0  0  0  0  0  0  0
  1  8  1  0  0  0  0
  1  2  1  0  0  0  0
  2 13  1  0  0  0  0
  3  6  2  0  0  0  0
  3 11  1  0  0  0  0
  4 15  1  0  0  0  0
  5 17  1  0  0  0  0
  6 15  1  0  0  0  0
  8  7  2  0  0  0  0
  9 10  1  0  0  0  0
 11  9  2  0  0  0  0
 12  7  1  6  0  0  0
 12 18  1  0  0  0  0
 12  6  1  0  0  0  0
 13 18  2  0  0  0  0
 14 10  2  0  0  0  0
 14 20  1  0  0  0  0
 15 14  1  0  0  0  0
 16  1  2  0  0  0  0
 17  2  2  0  0  0  0
 18  4  1  0  0  0  0
 19 16  1  0  0  0  0
 19  5  2  0  0  0  0
 20 25  1  0  0  0  0
 21 24  1  0  0  0  0
 22 21  2  0  0  0  0
 24 23  2  0  0  0  0
 25 26  2  0  0  0  0
 25 22  1  0  0  0  0
 26 24  1  0  0  0  0
 28 29  1  0  0  0  0
 29 26  1  0  0  0  0
 29 27  1  0  0  0  0
M  END
>  <MODEL>
7

>  <REMARK>
 VINA RESULT:      -8.0      3.211      6.869
  Name = 
  3 active torsions:
  status: ('A' for Active; 'I' for Inactive)
    1  A    between atoms: N_8  and  C_29
    2  A    between atoms: N_13  and  C_22
    3  A    between atoms: N_13  and  C_23
                            x       y       z     vdW  Elec       q    Type
                         _______ _______ _______ _____ _____    ______ ____

>  <TORSDO>
F 3

$$$$
=
 OpenBabel11042410593D

 29 33  0  0  1  0  0  0  0  0999 V2000
  191.6320  177.5050  140.7180 C   0  0  0  0  0  0  0  0  0  0  0  0
  190.5320  177.1570  139.8860 C   0  0  0  0  0  0  0  0  0  0  0  0
  188.4430  176.9990  144.9090 C   0  0  0  0  0  3  0  0  0  0  0  0
  187.3750  177.9020  141.6660 O   0  0  0  0  0  0  0  0  0  0  0  0
  192.0910  176.2930  138.2520 C   0  0  0  0  0  3  0  0  0  0  0  0
  188.3310  177.4190  143.6510 C   0  0  0  0  0  0  0  0  0  0  0  0
  190.5380  178.1290  142.8160 C   0  0  0  0  0  3  0  0  0  0  0  0
  191.5070  178.2250  141.9580 N   0  0  0  0  0  0  0  0  0  0  0  0
  186.2140  177.5710  145.9220 C   0  0  0  0  0  3  0  0  0  0  0  0
  185.5890  178.3470  144.8460 C   0  0  0  0  0  3  0  0  0  0  0  0
  187.4190  177.0100  145.9540 C   0  0  0  0  0  3  0  0  0  0  0  0
  189.4110  177.1710  142.6430 C   0  0  2  0  0  3  0  0  0  0  0  0
  189.1680  177.4730  140.2030 N   0  0  0  0  0  0  0  0  0  0  0  0
  185.9930  178.5400  143.5910 C   0  0  0  0  0  0  0  0  0  0  0  0
  187.1400  177.8930  143.0170 N   0  0  0  0  0  0  0  0  0  0  0  0
  192.9260  177.2370  140.2590 C   0  0  0  0  0  3  0  0  0  0  0  0
  190.7820  176.5590  138.6480 C   0  0  0  0  0  3  0  0  0  0  0  0
  188.6730  177.5120  141.3980 C   0  0  0  0  0  0  0  0  0  0  0  0
  193.1280  176.6340  139.0580 N   0  0  0  0  0  0  0  0  0  0  0  0
  185.1580  179.3640  142.7710 N   0  0  0  0  0  2  0  0  0  0  0  0
  181.5790  178.7240  143.0600 N   0  0  0  0  0  0  0  0  0  0  0  0
  182.7250  179.0350  143.5840 C   0  0  0  0  0  3  0  0  0  0  0  0
  180.9210  178.2930  140.8290 O   0  0  0  0  0  0  0  0  0  0  0  0
  181.8140  178.5940  141.6650 C   0  0  0  0  0  0  0  0  0  0  0  0
  183.7630  179.1320  142.5430 C   0  0  0  0  0  0  0  0  0  0  0  0
  183.2100  178.8470  141.3710 C   0  0  0  0  0  0  0  0  0  0  0  0
  184.6200  179.7960  139.6590 O   0  0  0  0  0  1  0  0  0  0  0  0
  183.7040  177.6100  139.2190 C   0  0  0  0  0  1  0  0  0  0  0  0
  183.8440  178.7720  140.0830 N   0  0  0  0  0  0  0  0  0  0  0  0
  1  8  1  0  0  0  0
  2 13  1  0  0  0  0
  2  1  2  0  0  0  0
  3 11  1  0  0  0  0
  4 15  1  0  0  0  0
  5 17  2  0  0  0  0
  5 19  1  0  0  0  0
  6  3  2  0  0  0  0
  8  7  2  0  0  0  0
  9 11  2  0  0  0  0
 10  9  1  0  0  0  0
 12  7  1  1  0  0  0
 12  6  1  0  0  0  0
 13 18  2  0  0  0  0
 14 10  2  0  0  0  0
 15 14  1  0  0  0  0
 15  6  1  0  0  0  0
 16  1  1  0  0  0  0
 17  2  1  0  0  0  0
 18  4  1  0  0  0  0
 18 12  1  0  0  0  0
 19 16  2  0  0  0  0
 20 14  1  0  0  0  0
 21 22  2  0  0  0  0
 23 24  2  0  0  0  0
 24 21  1  0  0  0  0
 25 20  1  0  0  0  0
 25 22  1  0  0  0  0
 26 24  1  0  0  0  0
 26 25  2  0  0  0  0
 27 29  1  0  0  0  0
 28 29  1  0  0  0  0
 29 26  1  0  0  0  0
M  END
>  <MODEL>
8

>  <REMARK>
 VINA RESULT:      -8.0      2.082      7.486
  Name = 
  3 active torsions:
  status: ('A' for Active; 'I' for Inactive)
    1  A    between atoms: N_8  and  C_29
    2  A    between atoms: N_13  and  C_22
    3  A    between atoms: N_13  and  C_23
                            x       y       z     vdW  Elec       q    Type
                         _______ _______ _______ _____ _____    ______ ____

>  <TORSDO>
F 3

$$$$
=
 OpenBabel11042410593D

 29 33  0  0  1  0  0  0  0  0999 V2000
  190.5940  176.9950  146.2480 C   0  0  0  0  0  0  0  0  0  0  0  0
  190.7320  176.3230  145.0020 C   0  0  0  0  0  0  0  0  0  0  0  0
  185.5250  177.9020  145.0350 C   0  0  0  0  0  3  0  0  0  0  0  0
  188.1220  177.5260  142.6720 O   0  0  0  0  0  0  0  0  0  0  0  0
  192.5110  174.9940  145.9590 C   0  0  0  0  0  3  0  0  0  0  0  0
  186.6800  177.8340  144.3790 C   0  0  0  0  0  0  0  0  0  0  0  0
  188.5400  178.2870  145.9310 C   0  0  0  0  0  3  0  0  0  0  0  0
  189.7080  178.1080  146.4670 N   0  0  0  0  0  0  0  0  0  0  0  0
  183.9030  178.7060  143.2890 C   0  0  0  0  0  3  0  0  0  0  0  0
  184.8000  179.0140  142.1710 C   0  0  0  0  0  3  0  0  0  0  0  0
  184.2070  178.2460  144.5000 C   0  0  0  0  0  3  0  0  0  0  0  0
  187.9160  177.2840  145.0250 C   0  0  2  0  0  3  0  0  0  0  0  0
  189.9880  176.6740  143.8250 N   0  0  0  0  0  0  0  0  0  0  0  0
  186.0990  178.7580  142.0270 C   0  0  0  0  0  0  0  0  0  0  0  0
  186.8680  177.9960  142.9710 N   0  0  0  0  0  0  0  0  0  0  0  0
  191.4450  176.6340  147.2980 C   0  0  0  0  0  3  0  0  0  0  0  0
  191.7070  175.3300  144.8720 C   0  0  0  0  0  3  0  0  0  0  0  0
  188.7730  177.1220  143.8210 C   0  0  0  0  0  0  0  0  0  0  0  0
  192.3660  175.6470  147.1400 N   0  0  0  0  0  0  0  0  0  0  0  0
  186.7040  179.1930  140.8040 N   0  0  0  0  0  2  0  0  0  0  0  0
  187.5180  177.2270  137.8440 N   0  0  0  0  0  0  0  0  0  0  0  0
  187.8290  177.7170  139.0050 C   0  0  0  0  0  3  0  0  0  0  0  0
  185.5330  177.3250  136.5620 O   0  0  0  0  0  0  0  0  0  0  0  0
  186.1750  177.6210  137.6040 C   0  0  0  0  0  0  0  0  0  0  0  0
  186.6890  178.4480  139.5820 C   0  0  0  0  0  0  0  0  0  0  0  0
  185.6810  178.4040  138.7190 C   0  0  0  0  0  0  0  0  0  0  0  0
  184.2850  180.3620  138.9120 O   0  0  0  0  0  1  0  0  0  0  0  0
  183.1580  178.2330  138.8380 C   0  0  0  0  0  1  0  0  0  0  0  0
  184.3850  179.0150  138.8320 N   0  0  0  0  0  0  0  0  0  0  0  0
  1  8  1  0  0  0  0
  1 16  1  0  0  0  0
  2  1  2  0  0  0  0
  4 15  1  0  0  0  0
  4 18  1  0  0  0  0
  5 19  1  0  0  0  0
  6 12  1  0  0  0  0
  6  3  2  0  0  0  0
  7  8  2  0  0  0  0
  9 11  2  0  0  0  0
 10  9  1  0  0  0  0
 11  3  1  0  0  0  0
 12  7  1  1  0  0  0
 13  2  1  0  0  0  0
 14 10  2  0  0  0  0
 14 15  1  0  0  0  0
 15  6  1  0  0  0  0
 17  2  1  0  0  0  0
 17  5  2  0  0  0  0
 18 13  2  0  0  0  0
 18 12  1  0  0  0  0
 19 16  2  0  0  0  0
 20 14  1  0  0  0  0
 21 22  2  0  0  0  0
 22 25  1  0  0  0  0
 23 24  2  0  0  0  0
 24 21  1  0  0  0  0
 24 26  1  0  0  0  0
 25 20  1  0  0  0  0
 26 29  1  0  0  0  0
 26 25  2  0  0  0  0
 29 28  1  0  0  0  0
 29 27  1  0  0  0  0
M  END
>  <MODEL>
9

>  <REMARK>
 VINA RESULT:      -7.9      2.477      7.565
  Name = 
  3 active torsions:
  status: ('A' for Active; 'I' for Inactive)
    1  A    between atoms: N_8  and  C_29
    2  A    between atoms: N_13  and  C_22
    3  A    between atoms: N_13  and  C_23
                            x       y       z     vdW  Elec       q    Type
                         _______ _______ _______ _____ _____    ______ ____

>  <TORSDO>
F 3

$$$$
