=
 OpenBabel11042413183D

 61 66  0  0  1  0  0  0  0  0999 V2000
  186.4560  176.6270  137.2090 C   0  0  0  0  0  2  0  0  0  0  0  0
  182.3800  176.7270  135.8640 C   0  0  1  0  0  3  0  0  0  0  0  0
  185.8230  179.0020  140.0790 C   0  0  1  0  0  3  0  0  0  0  0  0
  183.9420  177.3100  140.0720 C   0  0  0  0  0  2  0  0  0  0  0  0
  186.3790  177.9970  137.8550 C   0  0  0  0  0  2  0  0  0  0  0  0
  184.6180  176.8190  134.7600 C   0  0  0  0  0  2  0  0  0  0  0  0
  181.7170  176.9160  137.2320 C   0  0  1  0  0  0  0  0  0  0  0  0
  183.6740  177.5160  135.7200 C   0  0  0  0  0  2  0  0  0  0  0  0
  184.4150  178.7440  140.3310 C   0  0  1  0  0  3  0  0  0  0  0  0
  185.9910  177.4730  134.8400 C   0  0  0  0  0  2  0  0  0  0  0  0
  182.4930  177.2490  139.5990 C   0  0  1  0  0  3  0  0  0  0  0  0
  186.9580  176.7310  135.7700 C   0  0  2  0  0  3  0  0  0  0  0  0
  184.0020  178.8810  142.8750 N   0  0  0  0  0  2  0  0  0  0  0  0
  182.5440  175.6730  136.9480 C   0  0  0  0  0  2  0  0  0  0  0  0
  186.1430  179.0630  141.4900 N   0  0  0  0  0  2  0  0  0  0  0  0
  181.6010  177.8890  140.5500 N   0  0  0  0  0  1  0  0  0  0  0  0
  182.3490  177.8880  138.2240 C   0  0  0  0  0  2  0  0  0  0  0  0
  184.7100  178.8920  141.7930 C   0  0  0  0  0  0  0  0  0  0  0  0
  186.6020  177.8880  139.3580 C   0  0  1  0  0  3  0  0  0  0  0  0
  188.0720  177.9670  139.6510 C   0  0  0  0  0  0  0  0  0  0  0  0
  188.7880  178.9700  139.1540 C   0  0  0  0  0  2  0  0  0  0  0  0
  188.6910  176.9890  140.4280 O   0  0  0  0  0  0  0  0  0  0  0  0
  190.7530  177.8430  144.1310 C   0  0  0  0  0  0  0  0  0  0  0  0
  190.7290  177.0200  141.7390 C   0  0  0  0  0  2  0  0  0  0  0  0
  189.5620  177.3010  144.8780 C   0  0  2  0  0  3  0  0  0  0  0  0
  191.3800  176.9290  143.1260 C   0  0  0  0  0  2  0  0  0  0  0  0
  190.9850  179.1540  144.0530 C   0  0  0  0  0  2  0  0  0  0  0  0
  188.2900  177.3500  144.0270 C   0  0  0  0  0  2  0  0  0  0  0  0
  188.4340  176.5110  142.7610 C   0  0  0  0  0  2  0  0  0  0  0  0
  189.2140  177.2920  141.7120 C   0  0  2  0  0  3  0  0  0  0  0  0
  189.3890  177.9010  146.2830 C   0  0  1  0  0  3  0  0  0  0  0  0
  188.0230  177.1670  147.7720 O   0  0  0  0  0  1  0  0  0  0  0  0
  188.0470  177.9050  146.6790 O   0  0  0  0  0  0  0  0  0  0  0  0
  190.9890  176.1510  146.7200 O   0  0  0  0  0  1  0  0  0  0  0  0
  190.2650  177.1890  147.3140 C   0  0  0  0  0  2  0  0  0  0  0  0
  179.7960  175.4750  136.8320 O   0  0  0  0  0  1  0  0  0  0  0  0
  180.1960  176.7300  137.2940 C   0  0  2  0  0  3  0  0  0  0  0  0
  179.4580  177.8350  136.5490 C   0  0  0  0  0  2  0  0  0  0  0  0
  180.4040  178.7240  135.8910 N   0  0  0  0  0  2  0  0  0  0  0  0
  179.1120  180.7700  136.4590 N   0  0  0  0  0  2  0  0  0  0  0  0
  180.2660  180.1470  135.8790 C   0  0  0  0  0  0  0  0  0  0  0  0
  181.1720  180.8460  135.3580 O   0  0  0  0  0  0  0  0  0  0  0  0
  181.5480  184.4580  137.2610 C   0  0  0  0  0  1  0  0  0  0  0  0
  179.4260  182.8890  134.8910 S   0  0  0  0  0  0  0  0  0  0  0  0
  179.8800  182.8310  137.4780 C   0  0  2  0  0  3  0  0  0  0  0  0
  179.7680  184.4600  135.7330 C   0  0  0  0  0  2  0  0  0  0  0  0
  180.1200  184.2300  137.1340 N   0  0  0  0  0  0  0  0  0  0  0  0
  178.9310  182.2120  136.4750 C   0  0  2  0  0  3  0  0  0  0  0  0
  179.2890  182.7300  138.8790 C   0  0  0  0  0  2  0  0  0  0  0  0
  179.4770  181.3170  140.7580 O   0  0  0  0  0  0  0  0  0  0  0  0
  179.8250  181.5420  139.6080 C   0  0  0  0  0  3  0  0  0  0  0  0
  187.3040  175.3560  135.2040 C   0  0  0  0  0  2  0  0  0  0  0  0
  188.7290  175.3000  134.6690 C   0  0  0  0  0  2  0  0  0  0  0  0
  189.5490  174.2240  135.3660 C   0  0  2  0  0  3  0  0  0  0  0  0
  188.7370  173.5050  136.2490 O   0  0  0  0  0  1  0  0  0  0  0  0
  190.4670  175.1370  137.6120 C   0  0  2  0  0  3  0  0  0  0  0  0
  191.3610  173.9810  137.1740 C   0  0  0  0  0  2  0  0  0  0  0  0
  191.6020  175.6750  135.4480 O   0  0  0  0  0  1  0  0  0  0  0  0
  190.7010  174.8550  136.1360 C   0  0  1  0  0  0  0  0  0  0  0  0
  191.2960  176.2390  138.1170 C   0  0  0  0  0  0  0  0  0  0  0  0
  191.9400  177.1140  138.5150 N   0  0  0  0  0  0  0  0  0  0  0  0
  1  5  1  0  0  0  0
  2  8  1  1  0  0  0
  2 14  1  0  0  0  0
  2  7  1  0  0  0  0
  3  9  1  0  0  0  0
  3 15  1  1  0  0  0
  5 19  1  0  0  0  0
  6 10  1  0  0  0  0
  6  8  1  0  0  0  0
  7 37  1  1  0  0  0
  7 17  1  0  0  0  0
  9  4  1  1  0  0  0
  9 18  1  0  0  0  0
 10 12  1  0  0  0  0
 11  4  1  0  0  0  0
 11 16  1  1  0  0  0
 12 52  1  6  0  0  0
 12  1  1  0  0  0  0
 14  7  1  0  0  0  0
 15 18  1  0  0  0  0
 17 11  1  0  0  0  0
 18 13  2  0  0  0  0
 19 20  1  6  0  0  0
 19  3  1  0  0  0  0
 20 22  1  0  0  0  0
 21 20  2  0  0  0  0
 23 25  1  0  0  0  0
 24 26  1  0  0  0  0
 25 31  1  1  0  0  0
 26 23  1  0  0  0  0
 27 23  2  0  0  0  0
 28 25  1  0  0  0  0
 29 28  1  0  0  0  0
 30 22  1  6  0  0  0
 30 24  1  0  0  0  0
 30 29  1  0  0  0  0
 31 33  1  0  0  0  0
 31 35  1  1  0  0  0
 33 32  1  0  0  0  0
 34 35  1  0  0  0  0
 37 36  1  6  0  0  0
 38 37  1  0  0  0  0
 39 38  1  0  0  0  0
 41 39  1  0  0  0  0
 41 40  1  0  0  0  0
 42 41  2  0  0  0  0
 44 46  1  0  0  0  0
 44 48  1  0  0  0  0
 45 49  1  1  0  0  0
 46 47  1  0  0  0  0
 47 43  1  0  0  0  0
 47 45  1  0  0  0  0
 48 40  1  6  0  0  0
 48 45  1  0  0  0  0
 49 51  1  0  0  0  0
 51 50  2  0  0  0  0
 53 52  1  0  0  0  0
 53 54  1  0  0  0  0
 54 59  1  0  0  0  0
 54 55  1  1  0  0  0
 56 60  1  1  0  0  0
 57 56  1  0  0  0  0
 59 58  1  6  0  0  0
 59 57  1  0  0  0  0
 59 56  1  0  0  0  0
 60 61  3  0  0  0  0
M  END
>  <MODEL>
1

>  <REMARK>
 VINA RESULT:      -7.1      0.000      0.000
  Name = 
  17 active torsions:
  status: ('A' for Active; 'I' for Inactive)
    1  A    between atoms: N_4  and  C_53
    2  A    between atoms: C_6  and  C_8
    3  A    between atoms: C_9  and  C_14
    4  A    between atoms: C_9  and  C_39
    5  A    between atoms: C_11  and  O_48
    6  A    between atoms: C_11  and  C_54
    7  A    between atoms: C_14  and  C_50
    8  A    between atoms: C_20  and  C_55
    9  A    between atoms: C_22  and  C_24
   10  A    between atoms: C_22  and  O_45
   11  A    between atoms: C_22  and  C_59
   12  A    between atoms: C_29  and  C_39
   13  A    between atoms: C_35  and  C_42
   14  A    between atoms: C_35  and  C_52
   15  A    between atoms: N_40  and  C_61
   16  A    between atoms: O_48  and  C_60
   17  A    between atoms: C_53  and  C_55
                            x       y       z     vdW  Elec       q    Type
                         _______ _______ _______ _____ _____    ______ ____

>  <TORSDO>
F 17

$$$$
=
 OpenBabel11042413183D

 61 66  0  0  1  0  0  0  0  0999 V2000
  188.8530  177.8140  140.0320 C   0  0  0  0  0  2  0  0  0  0  0  0
  185.8880  178.3220  143.0960 C   0  0  1  0  0  3  0  0  0  0  0  0
  186.3480  176.6200  137.4670 C   0  0  1  0  0  3  0  0  0  0  0  0
  185.3470  178.6410  138.6130 C   0  0  0  0  0  2  0  0  0  0  0  0
  188.0510  176.7580  139.2960 C   0  0  0  0  0  2  0  0  0  0  0  0
  188.1920  177.3650  142.9950 C   0  0  0  0  0  2  0  0  0  0  0  0
  184.7180  178.7120  142.1870 C   0  0  1  0  0  0  0  0  0  0  0  0
  186.7680  177.2340  142.4940 C   0  0  0  0  0  2  0  0  0  0  0  0
  185.1430  177.2770  137.9470 C   0  0  1  0  0  3  0  0  0  0  0  0
  189.0980  176.4490  142.1810 C   0  0  0  0  0  2  0  0  0  0  0  0
  184.3240  178.9120  139.7130 C   0  0  1  0  0  3  0  0  0  0  0  0
  189.8110  177.1720  141.0330 C   0  0  2  0  0  3  0  0  0  0  0  0
  183.7390  178.0000  135.9050 N   0  0  0  0  0  2  0  0  0  0  0  0
  185.9680  179.5750  142.2380 C   0  0  0  0  0  2  0  0  0  0  0  0
  186.0410  176.9010  136.0800 N   0  0  0  0  0  2  0  0  0  0  0  0
  182.9670  178.8190  139.2050 N   0  0  0  0  0  1  0  0  0  0  0  0
  184.5220  177.9510  140.8790 C   0  0  0  0  0  2  0  0  0  0  0  0
  184.7630  177.4980  136.5140 C   0  0  0  0  0  0  0  0  0  0  0  0
  187.6850  177.2470  137.9010 C   0  0  1  0  0  3  0  0  0  0  0  0
  188.7890  176.9010  136.9440 C   0  0  0  0  0  0  0  0  0  0  0  0
  189.3540  177.8600  136.2190 C   0  0  0  0  0  2  0  0  0  0  0  0
  189.2130  175.5810  136.8020 O   0  0  0  0  0  0  0  0  0  0  0  0
  193.2210  174.3860  135.7040 C   0  0  0  0  0  0  0  0  0  0  0  0
  190.7110  174.2880  135.4030 C   0  0  0  0  0  2  0  0  0  0  0  0
  193.5690  174.3380  137.1690 C   0  0  2  0  0  3  0  0  0  0  0  0
  192.0540  173.5560  135.2700 C   0  0  0  0  0  2  0  0  0  0  0  0
  193.6320  175.3880  134.9270 C   0  0  0  0  0  2  0  0  0  0  0  0
  192.6280  175.2090  138.0040 C   0  0  0  0  0  2  0  0  0  0  0  0
  191.1800  174.7420  137.8810 C   0  0  0  0  0  2  0  0  0  0  0  0
  190.5790  175.2670  136.5840 C   0  0  2  0  0  3  0  0  0  0  0  0
  195.0590  174.5850  137.4580 C   0  0  1  0  0  3  0  0  0  0  0  0
  196.5370  175.1560  138.9110 O   0  0  0  0  0  1  0  0  0  0  0  0
  195.2430  175.2550  138.6730 O   0  0  0  0  0  0  0  0  0  0  0  0
  195.2990  172.3220  138.2540 O   0  0  0  0  0  1  0  0  0  0  0  0
  195.8660  173.2870  137.4170 C   0  0  0  0  0  2  0  0  0  0  0  0
  183.7640  179.9020  144.0860 O   0  0  0  0  0  1  0  0  0  0  0  0
  183.4660  179.2730  142.8740 C   0  0  2  0  0  3  0  0  0  0  0  0
  182.4000  178.2040  143.0740 C   0  0  0  0  0  2  0  0  0  0  0  0
  181.0720  178.7980  143.0430 N   0  0  0  0  0  2  0  0  0  0  0  0
  180.3910  177.5450  141.0080 N   0  0  0  0  0  2  0  0  0  0  0  0
  180.0810  178.4540  142.0720 C   0  0  0  0  0  0  0  0  0  0  0  0
  178.9310  178.9540  142.1660 O   0  0  0  0  0  0  0  0  0  0  0  0
  180.0520  177.4170  136.5300 C   0  0  0  0  0  1  0  0  0  0  0  0
  179.7320  175.4750  139.4810 S   0  0  0  0  0  0  0  0  0  0  0  0
  179.6180  177.9980  138.7560 C   0  0  2  0  0  3  0  0  0  0  0  0
  178.9370  175.8730  137.8990 C   0  0  0  0  0  2  0  0  0  0  0  0
  179.0730  177.2970  137.5960 N   0  0  0  0  0  0  0  0  0  0  0  0
  179.4160  177.1610  140.0010 C   0  0  2  0  0  3  0  0  0  0  0  0
  178.9310  179.3470  138.9230 C   0  0  0  0  0  2  0  0  0  0  0  0
  180.5200  180.5210  137.6350 O   0  0  0  0  0  0  0  0  0  0  0  0
  179.8810  180.4720  138.6760 C   0  0  0  0  0  3  0  0  0  0  0  0
  190.8100  178.1920  141.5750 C   0  0  0  0  0  2  0  0  0  0  0  0
  191.7430  177.5810  142.6140 C   0  0  0  0  0  2  0  0  0  0  0  0
  191.3920  178.0420  144.0220 C   0  0  2  0  0  3  0  0  0  0  0  0
  192.3120  179.0020  144.4520 O   0  0  0  0  0  1  0  0  0  0  0  0
  191.5180  177.1800  146.4640 C   0  0  2  0  0  3  0  0  0  0  0  0
  190.1950  176.7110  145.8680 C   0  0  0  0  0  2  0  0  0  0  0  0
  191.9210  175.6370  144.5360 O   0  0  0  0  0  1  0  0  0  0  0  0
  191.4070  176.8590  144.9810 C   0  0  1  0  0  0  0  0  0  0  0  0
  192.1260  176.0890  147.2360 C   0  0  0  0  0  0  0  0  0  0  0  0
  192.5930  175.2260  147.8490 N   0  0  0  0  0  0  0  0  0  0  0  0
  1 12  1  0  0  0  0
  2 14  1  6  0  0  0
  3 15  1  6  0  0  0
  3 19  1  0  0  0  0
  3  9  1  0  0  0  0
  4 11  1  0  0  0  0
  5  1  1  0  0  0  0
  7 14  1  0  0  0  0
  7 37  1  1  0  0  0
  7  2  1  0  0  0  0
  8  6  1  0  0  0  0
  8  2  1  0  0  0  0
  9  4  1  1  0  0  0
 10  6  1  0  0  0  0
 11 16  1  6  0  0  0
 11 17  1  0  0  0  0
 12 52  1  1  0  0  0
 12 10  1  0  0  0  0
 13 18  2  0  0  0  0
 15 18  1  0  0  0  0
 17  7  1  0  0  0  0
 18  9  1  0  0  0  0
 19 20  1  6  0  0  0
 19  5  1  0  0  0  0
 21 20  2  0  0  0  0
 22 20  1  0  0  0  0
 23 25  1  0  0  0  0
 24 30  1  0  0  0  0
 25 31  1  6  0  0  0
 25 28  1  0  0  0  0
 26 24  1  0  0  0  0
 26 23  1  0  0  0  0
 27 23  2  0  0  0  0
 29 28  1  0  0  0  0
 30 22  1  1  0  0  0
 30 29  1  0  0  0  0
 31 35  1  1  0  0  0
 31 33  1  0  0  0  0
 33 32  1  0  0  0  0
 35 34  1  0  0  0  0
 37 38  1  0  0  0  0
 37 36  1  1  0  0  0
 39 38  1  0  0  0  0
 40 41  1  0  0  0  0
 41 42  2  0  0  0  0
 41 39  1  0  0  0  0
 43 47  1  0  0  0  0
 44 48  1  0  0  0  0
 45 49  1  1  0  0  0
 45 48  1  0  0  0  0
 46 44  1  0  0  0  0
 47 46  1  0  0  0  0
 47 45  1  0  0  0  0
 48 40  1  1  0  0  0
 50 51  2  0  0  0  0
 51 49  1  0  0  0  0
 52 53  1  0  0  0  0
 53 54  1  0  0  0  0
 54 55  1  1  0  0  0
 54 59  1  0  0  0  0
 56 60  1  1  0  0  0
 57 56  1  0  0  0  0
 59 58  1  6  0  0  0
 59 57  1  0  0  0  0
 59 56  1  0  0  0  0
 60 61  3  0  0  0  0
M  END
>  <MODEL>
2

>  <REMARK>
 VINA RESULT:      -6.6      3.020      7.417
  Name = 
  17 active torsions:
  status: ('A' for Active; 'I' for Inactive)
    1  A    between atoms: N_4  and  C_53
    2  A    between atoms: C_6  and  C_8
    3  A    between atoms: C_9  and  C_14
    4  A    between atoms: C_9  and  C_39
    5  A    between atoms: C_11  and  O_48
    6  A    between atoms: C_11  and  C_54
    7  A    between atoms: C_14  and  C_50
    8  A    between atoms: C_20  and  C_55
    9  A    between atoms: C_22  and  C_24
   10  A    between atoms: C_22  and  O_45
   11  A    between atoms: C_22  and  C_59
   12  A    between atoms: C_29  and  C_39
   13  A    between atoms: C_35  and  C_42
   14  A    between atoms: C_35  and  C_52
   15  A    between atoms: N_40  and  C_61
   16  A    between atoms: O_48  and  C_60
   17  A    between atoms: C_53  and  C_55
                            x       y       z     vdW  Elec       q    Type
                         _______ _______ _______ _____ _____    ______ ____

>  <TORSDO>
F 17

$$$$
=
 OpenBabel11042413183D

 61 66  0  0  1  0  0  0  0  0999 V2000
  190.9210  177.3580  141.1470 C   0  0  0  0  0  2  0  0  0  0  0  0
  186.8210  178.0730  142.2000 C   0  0  1  0  0  3  0  0  0  0  0  0
  190.0760  176.2080  137.6490 C   0  0  1  0  0  3  0  0  0  0  0  0
  188.7260  178.2990  138.1000 C   0  0  0  0  0  2  0  0  0  0  0  0
  190.5730  176.3190  140.0990 C   0  0  0  0  0  2  0  0  0  0  0  0
  188.7850  177.0160  143.3220 C   0  0  0  0  0  2  0  0  0  0  0  0
  186.3220  178.4900  140.8120 C   0  0  1  0  0  0  0  0  0  0  0  0
  187.8290  176.9340  142.1490 C   0  0  0  0  0  2  0  0  0  0  0  0
  188.8340  176.9280  137.4250 C   0  0  1  0  0  3  0  0  0  0  0  0
  189.9340  176.0400  143.1050 C   0  0  0  0  0  2  0  0  0  0  0  0
  187.2940  178.6420  138.5010 C   0  0  1  0  0  3  0  0  0  0  0  0
  191.1790  176.7010  142.5020 C   0  0  2  0  0  3  0  0  0  0  0  0
  188.7470  177.6580  134.9510 N   0  0  0  0  0  2  0  0  0  0  0  0
  187.4020  179.2990  141.5120 C   0  0  0  0  0  2  0  0  0  0  0  0
  190.5560  176.4650  136.3070 N   0  0  0  0  0  2  0  0  0  0  0  0
  186.4020  178.5950  137.3560 N   0  0  0  0  0  1  0  0  0  0  0  0
  186.8030  177.7050  139.5960 C   0  0  0  0  0  2  0  0  0  0  0  0
  189.2730  177.1280  136.0060 C   0  0  0  0  0  0  0  0  0  0  0  0
  191.0180  176.7870  138.7200 C   0  0  1  0  0  3  0  0  0  0  0  0
  192.4400  176.3680  138.4850 C   0  0  0  0  0  0  0  0  0  0  0  0
  193.4310  177.1500  138.9000 C   0  0  0  0  0  2  0  0  0  0  0  0
  192.7250  175.1760  137.8230 O   0  0  0  0  0  0  0  0  0  0  0  0
  196.4770  174.3470  135.8390 C   0  0  0  0  0  0  0  0  0  0  0  0
  193.9570  174.5730  135.8250 C   0  0  0  0  0  2  0  0  0  0  0  0
  196.9240  173.6050  137.0710 C   0  0  2  0  0  3  0  0  0  0  0  0
  195.1930  173.8940  135.2180 C   0  0  0  0  0  2  0  0  0  0  0  0
  196.9440  175.5630  135.5550 C   0  0  0  0  0  2  0  0  0  0  0  0
  196.1530  174.0560  138.3150 C   0  0  0  0  0  2  0  0  0  0  0  0
  194.6560  173.8000  138.1660 C   0  0  0  0  0  2  0  0  0  0  0  0
  194.0260  174.9040  137.3270 C   0  0  2  0  0  3  0  0  0  0  0  0
  198.4500  173.5870  137.2620 C   0  0  1  0  0  3  0  0  0  0  0  0
  198.7760  175.3870  138.3910 O   0  0  0  0  0  1  0  0  0  0  0  0
  198.8160  174.0750  138.5220 O   0  0  0  0  0  0  0  0  0  0  0  0
  198.0460  171.3120  136.5750 O   0  0  0  0  0  1  0  0  0  0  0  0
  199.0340  172.1950  137.0200 C   0  0  0  0  0  2  0  0  0  0  0  0
  184.5140  179.6370  141.9730 O   0  0  0  0  0  1  0  0  0  0  0  0
  184.9270  179.1230  140.7410 C   0  0  2  0  0  3  0  0  0  0  0  0
  183.8900  178.1510  140.1930 C   0  0  0  0  0  2  0  0  0  0  0  0
  183.3690  178.6290  138.9200 N   0  0  0  0  0  2  0  0  0  0  0  0
  182.8580  176.3400  138.0960 N   0  0  0  0  0  2  0  0  0  0  0  0
  182.8300  177.7630  137.9190 C   0  0  0  0  0  0  0  0  0  0  0  0
  182.3250  178.2640  136.8820 O   0  0  0  0  0  0  0  0  0  0  0  0
  183.4580  172.0880  136.7770 C   0  0  0  0  0  1  0  0  0  0  0  0
  181.0270  174.4320  137.8630 S   0  0  0  0  0  0  0  0  0  0  0  0
  183.3850  174.4270  136.7060 C   0  0  2  0  0  3  0  0  0  0  0  0
  181.3700  173.1450  136.6300 C   0  0  0  0  0  2  0  0  0  0  0  0
  182.7600  173.2140  136.1830 N   0  0  0  0  0  0  0  0  0  0  0  0
  182.3180  175.4210  137.1090 C   0  0  2  0  0  3  0  0  0  0  0  0
  184.2940  175.0450  135.6500 C   0  0  0  0  0  2  0  0  0  0  0  0
  185.9860  174.9060  137.2860 O   0  0  0  0  0  0  0  0  0  0  0  0
  185.7150  175.0670  136.1050 C   0  0  0  0  0  3  0  0  0  0  0  0
  191.7960  177.6910  143.4880 C   0  0  0  0  0  2  0  0  0  0  0  0
  191.0130  177.7590  144.7940 C   0  0  0  0  0  2  0  0  0  0  0  0
  191.7600  177.0790  145.9330 C   0  0  2  0  0  3  0  0  0  0  0  0
  192.0940  175.7720  145.5680 O   0  0  0  0  0  1  0  0  0  0  0  0
  189.3950  177.1930  146.9870 C   0  0  2  0  0  3  0  0  0  0  0  0
  190.0070  175.8440  147.3500 C   0  0  0  0  0  2  0  0  0  0  0  0
  191.4420  177.5060  148.3910 O   0  0  0  0  0  1  0  0  0  0  0  0
  190.8960  177.0520  147.1860 C   0  0  1  0  0  0  0  0  0  0  0  0
  188.7180  177.7600  148.1620 C   0  0  0  0  0  0  0  0  0  0  0  0
  188.1970  178.2110  149.0900 N   0  0  0  0  0  0  0  0  0  0  0  0
  1 12  1  0  0  0  0
  2 14  1  6  0  0  0
  3 15  1  6  0  0  0
  3 19  1  0  0  0  0
  4 11  1  0  0  0  0
  5  1  1  0  0  0  0
  7 37  1  6  0  0  0
  7 14  1  0  0  0  0
  7  2  1  0  0  0  0
  8  2  1  0  0  0  0
  8  6  1  0  0  0  0
  9  3  1  0  0  0  0
  9  4  1  1  0  0  0
 10  6  1  0  0  0  0
 11 16  1  6  0  0  0
 11 17  1  0  0  0  0
 12 10  1  0  0  0  0
 12 52  1  1  0  0  0
 13 18  2  0  0  0  0
 17  7  1  0  0  0  0
 18 15  1  0  0  0  0
 18  9  1  0  0  0  0
 19 20  1  6  0  0  0
 19  5  1  0  0  0  0
 20 21  2  0  0  0  0
 22 20  1  0  0  0  0
 23 25  1  0  0  0  0
 24 30  1  0  0  0  0
 25 31  1  1  0  0  0
 25 28  1  0  0  0  0
 26 24  1  0  0  0  0
 26 23  1  0  0  0  0
 27 23  2  0  0  0  0
 29 28  1  0  0  0  0
 30 22  1  1  0  0  0
 30 29  1  0  0  0  0
 31 35  1  1  0  0  0
 31 33  1  0  0  0  0
 32 33  1  0  0  0  0
 34 35  1  0  0  0  0
 37 36  1  1  0  0  0
 38 37  1  0  0  0  0
 39 38  1  0  0  0  0
 41 40  1  0  0  0  0
 41 39  1  0  0  0  0
 42 41  2  0  0  0  0
 45 49  1  6  0  0  0
 45 48  1  0  0  0  0
 46 44  1  0  0  0  0
 47 46  1  0  0  0  0
 47 45  1  0  0  0  0
 47 43  1  0  0  0  0
 48 44  1  0  0  0  0
 48 40  1  1  0  0  0
 49 51  1  0  0  0  0
 51 50  2  0  0  0  0
 52 53  1  0  0  0  0
 53 54  1  0  0  0  0
 54 55  1  6  0  0  0
 54 59  1  0  0  0  0
 56 59  1  0  0  0  0
 56 57  1  0  0  0  0
 56 60  1  1  0  0  0
 59 57  1  0  0  0  0
 59 58  1  1  0  0  0
 60 61  3  0  0  0  0
M  END
>  <MODEL>
3

>  <REMARK>
 VINA RESULT:      -6.5      3.747      9.041
  Name = 
  17 active torsions:
  status: ('A' for Active; 'I' for Inactive)
    1  A    between atoms: N_4  and  C_53
    2  A    between atoms: C_6  and  C_8
    3  A    between atoms: C_9  and  C_14
    4  A    between atoms: C_9  and  C_39
    5  A    between atoms: C_11  and  O_48
    6  A    between atoms: C_11  and  C_54
    7  A    between atoms: C_14  and  C_50
    8  A    between atoms: C_20  and  C_55
    9  A    between atoms: C_22  and  C_24
   10  A    between atoms: C_22  and  O_45
   11  A    between atoms: C_22  and  C_59
   12  A    between atoms: C_29  and  C_39
   13  A    between atoms: C_35  and  C_42
   14  A    between atoms: C_35  and  C_52
   15  A    between atoms: N_40  and  C_61
   16  A    between atoms: O_48  and  C_60
   17  A    between atoms: C_53  and  C_55
                            x       y       z     vdW  Elec       q    Type
                         _______ _______ _______ _____ _____    ______ ____

>  <TORSDO>
F 17

$$$$
=
 OpenBabel11042413183D

 61 66  0  0  1  0  0  0  0  0999 V2000
  190.3400  177.2580  141.9070 C   0  0  0  0  0  2  0  0  0  0  0  0
  186.3170  177.7840  143.3130 C   0  0  1  0  0  3  0  0  0  0  0  0
  189.2700  176.6430  138.3350 C   0  0  1  0  0  3  0  0  0  0  0  0
  187.9600  178.6350  139.1820 C   0  0  0  0  0  2  0  0  0  0  0  0
  189.9210  176.3870  140.7380 C   0  0  0  0  0  2  0  0  0  0  0  0
  188.3440  176.5800  144.1360 C   0  0  0  0  0  2  0  0  0  0  0  0
  185.7330  178.4020  142.0380 C   0  0  1  0  0  0  0  0  0  0  0  0
  187.3150  176.6700  143.0260 C   0  0  0  0  0  2  0  0  0  0  0  0
  188.0190  177.3820  138.3020 C   0  0  1  0  0  3  0  0  0  0  0  0
  189.4740  175.6550  143.7020 C   0  0  0  0  0  2  0  0  0  0  0  0
  186.5580  178.9060  139.7190 C   0  0  1  0  0  3  0  0  0  0  0  0
  190.6800  176.4060  143.1280 C   0  0  2  0  0  3  0  0  0  0  0  0
  187.7780  178.4760  135.9770 N   0  0  0  0  0  2  0  0  0  0  0  0
  186.8580  179.1020  142.7820 C   0  0  0  0  0  2  0  0  0  0  0  0
  189.6650  177.1030  137.0200 N   0  0  0  0  0  2  0  0  0  0  0  0
  185.5940  179.0270  138.6390 N   0  0  0  0  0  1  0  0  0  0  0  0
  186.1330  177.8120  140.6890 C   0  0  0  0  0  2  0  0  0  0  0  0
  188.3680  177.7970  136.9050 C   0  0  0  0  0  0  0  0  0  0  0  0
  190.2800  177.0600  139.4200 C   0  0  1  0  0  3  0  0  0  0  0  0
  191.6830  176.6890  139.0350 C   0  0  0  0  0  0  0  0  0  0  0  0
  192.7020  177.4060  139.4990 C   0  0  0  0  0  2  0  0  0  0  0  0
  191.9210  175.6110  138.1850 O   0  0  0  0  0  0  0  0  0  0  0  0
  195.0770  175.5800  135.2300 C   0  0  0  0  0  0  0  0  0  0  0  0
  192.6300  175.5510  135.8680 C   0  0  0  0  0  2  0  0  0  0  0  0
  195.8570  174.6520  136.1250 C   0  0  2  0  0  3  0  0  0  0  0  0
  193.7000  175.1350  134.8490 C   0  0  0  0  0  2  0  0  0  0  0  0
  195.4000  176.8690  135.1180 C   0  0  0  0  0  2  0  0  0  0  0  0
  195.4090  174.7640  137.5840 C   0  0  0  0  0  2  0  0  0  0  0  0
  193.9370  174.3950  137.7440 C   0  0  0  0  0  2  0  0  0  0  0  0
  193.0640  175.5770  137.3450 C   0  0  2  0  0  3  0  0  0  0  0  0
  197.3800  174.7490  135.9370 C   0  0  1  0  0  3  0  0  0  0  0  0
  199.1740  174.8890  137.1140 O   0  0  0  0  0  1  0  0  0  0  0  0
  197.9850  175.4470  136.9880 O   0  0  0  0  0  0  0  0  0  0  0  0
  197.0590  172.4300  135.3610 O   0  0  0  0  0  1  0  0  0  0  0  0
  198.0160  173.3710  135.7530 C   0  0  0  0  0  2  0  0  0  0  0  0
  184.0920  179.5450  143.4260 O   0  0  0  0  0  1  0  0  0  0  0  0
  184.3390  179.0310  142.1510 C   0  0  2  0  0  3  0  0  0  0  0  0
  183.2420  178.0550  141.7460 C   0  0  0  0  0  2  0  0  0  0  0  0
  182.0080  178.7700  141.4520 N   0  0  0  0  0  2  0  0  0  0  0  0
  181.0010  176.8470  140.2430 N   0  0  0  0  0  2  0  0  0  0  0  0
  180.9050  178.1790  140.7620 C   0  0  0  0  0  0  0  0  0  0  0  0
  179.8450  178.8410  140.6210 O   0  0  0  0  0  0  0  0  0  0  0  0
  180.4070  174.0640  136.7660 C   0  0  0  0  0  1  0  0  0  0  0  0
  179.6630  174.5530  140.2000 S   0  0  0  0  0  0  0  0  0  0  0  0
  180.2870  175.9910  138.0910 C   0  0  2  0  0  3  0  0  0  0  0  0
  178.9470  174.0790  138.6010 C   0  0  0  0  0  2  0  0  0  0  0  0
  179.4950  174.9020  137.5240 N   0  0  0  0  0  0  0  0  0  0  0  0
  179.9040  176.2030  139.5390 C   0  0  2  0  0  3  0  0  0  0  0  0
  180.0540  177.2740  137.3020 C   0  0  0  0  0  2  0  0  0  0  0  0
  182.4080  177.4040  137.2280 O   0  0  0  0  0  0  0  0  0  0  0  0
  181.3440  177.9550  136.9850 C   0  0  0  0  0  3  0  0  0  0  0  0
  191.3620  177.2390  144.2110 C   0  0  0  0  0  2  0  0  0  0  0  0
  191.6370  176.4240  145.4690 C   0  0  0  0  0  2  0  0  0  0  0  0
  191.4070  177.2450  146.7310 C   0  0  2  0  0  3  0  0  0  0  0  0
  192.2410  176.7870  147.7550 O   0  0  0  0  0  1  0  0  0  0  0  0
  189.3960  178.2920  147.9860 C   0  0  2  0  0  3  0  0  0  0  0  0
  188.9930  178.1030  146.5270 C   0  0  0  0  0  2  0  0  0  0  0  0
  189.4070  175.8650  147.3790 O   0  0  0  0  0  1  0  0  0  0  0  0
  189.9540  177.1360  147.1720 C   0  0  1  0  0  0  0  0  0  0  0  0
  188.2880  177.8870  148.8610 C   0  0  0  0  0  0  0  0  0  0  0  0
  187.4240  177.5670  149.5600 N   0  0  0  0  0  0  0  0  0  0  0  0
  1 12  1  0  0  0  0
  2 14  1  6  0  0  0
  3 15  1  6  0  0  0
  3 19  1  0  0  0  0
  4 11  1  0  0  0  0
  5  1  1  0  0  0  0
  7 37  1  1  0  0  0
  7 14  1  0  0  0  0
  7  2  1  0  0  0  0
  8  2  1  0  0  0  0
  8  6  1  0  0  0  0
  9  3  1  0  0  0  0
  9  4  1  1  0  0  0
 10  6  1  0  0  0  0
 11 16  1  6  0  0  0
 11 17  1  0  0  0  0
 12 10  1  0  0  0  0
 12 52  1  1  0  0  0
 13 18  2  0  0  0  0
 17  7  1  0  0  0  0
 18 15  1  0  0  0  0
 18  9  1  0  0  0  0
 19 20  1  6  0  0  0
 19  5  1  0  0  0  0
 20 21  2  0  0  0  0
 22 20  1  0  0  0  0
 23 25  1  0  0  0  0
 24 30  1  0  0  0  0
 25 31  1  1  0  0  0
 25 28  1  0  0  0  0
 26 23  1  0  0  0  0
 26 24  1  0  0  0  0
 27 23  2  0  0  0  0
 28 29  1  0  0  0  0
 30 29  1  0  0  0  0
 30 22  1  1  0  0  0
 31 35  1  1  0  0  0
 31 33  1  0  0  0  0
 33 32  1  0  0  0  0
 34 35  1  0  0  0  0
 37 36  1  1  0  0  0
 38 37  1  0  0  0  0
 39 38  1  0  0  0  0
 40 41  1  0  0  0  0
 41 39  1  0  0  0  0
 42 41  2  0  0  0  0
 43 47  1  0  0  0  0
 45 49  1  6  0  0  0
 45 48  1  0  0  0  0
 46 44  1  0  0  0  0
 47 45  1  0  0  0  0
 47 46  1  0  0  0  0
 48 44  1  0  0  0  0
 48 40  1  1  0  0  0
 51 50  2  0  0  0  0
 51 49  1  0  0  0  0
 52 53  1  0  0  0  0
 53 54  1  0  0  0  0
 54 59  1  0  0  0  0
 54 55  1  1  0  0  0
 56 60  1  1  0  0  0
 57 59  1  0  0  0  0
 57 56  1  0  0  0  0
 59 58  1  1  0  0  0
 59 56  1  0  0  0  0
 60 61  3  0  0  0  0
M  END
>  <MODEL>
4

>  <REMARK>
 VINA RESULT:      -6.1      3.418      8.809
  Name = 
  17 active torsions:
  status: ('A' for Active; 'I' for Inactive)
    1  A    between atoms: N_4  and  C_53
    2  A    between atoms: C_6  and  C_8
    3  A    between atoms: C_9  and  C_14
    4  A    between atoms: C_9  and  C_39
    5  A    between atoms: C_11  and  O_48
    6  A    between atoms: C_11  and  C_54
    7  A    between atoms: C_14  and  C_50
    8  A    between atoms: C_20  and  C_55
    9  A    between atoms: C_22  and  C_24
   10  A    between atoms: C_22  and  O_45
   11  A    between atoms: C_22  and  C_59
   12  A    between atoms: C_29  and  C_39
   13  A    between atoms: C_35  and  C_42
   14  A    between atoms: C_35  and  C_52
   15  A    between atoms: N_40  and  C_61
   16  A    between atoms: O_48  and  C_60
   17  A    between atoms: C_53  and  C_55
                            x       y       z     vdW  Elec       q    Type
                         _______ _______ _______ _____ _____    ______ ____

>  <TORSDO>
F 17

$$$$
=
 OpenBabel11042413183D

 61 66  0  0  1  0  0  0  0  0999 V2000
  187.2440  176.6990  137.9820 C   0  0  0  0  0  2  0  0  0  0  0  0
  184.5170  179.0180  140.3530 C   0  0  1  0  0  3  0  0  0  0  0  0
  190.2590  177.7080  140.0250 C   0  0  1  0  0  3  0  0  0  0  0  0
  188.4140  177.1130  141.6500 C   0  0  0  0  0  2  0  0  0  0  0  0
  188.4350  177.5770  138.3170 C   0  0  0  0  0  2  0  0  0  0  0  0
  184.8550  178.6220  137.9110 C   0  0  0  0  0  2  0  0  0  0  0  0
  185.2450  178.8820  141.6950 C   0  0  1  0  0  0  0  0  0  0  0  0
  185.4700  179.1830  139.1770 C   0  0  0  0  0  2  0  0  0  0  0  0
  189.6330  177.9760  141.3090 C   0  0  1  0  0  3  0  0  0  0  0  0
  185.9180  178.5530  136.8220 C   0  0  0  0  0  2  0  0  0  0  0  0
  187.3920  177.8570  142.5040 C   0  0  1  0  0  3  0  0  0  0  0  0
  186.5640  177.1680  136.6980 C   0  0  2  0  0  3  0  0  0  0  0  0
  191.2390  177.2110  143.1780 N   0  0  0  0  0  2  0  0  0  0  0  0
  184.7170  177.6470  140.9820 C   0  0  0  0  0  2  0  0  0  0  0  0
  191.3950  177.0450  140.6310 N   0  0  0  0  0  2  0  0  0  0  0  0
  187.9920  178.3540  143.7300 N   0  0  0  0  0  1  0  0  0  0  0  0
  186.7660  179.0020  141.7180 C   0  0  0  0  0  2  0  0  0  0  0  0
  190.8410  177.3730  141.9590 C   0  0  0  0  0  0  0  0  0  0  0  0
  189.4890  176.7780  139.0710 C   0  0  1  0  0  3  0  0  0  0  0  0
  190.4100  176.1140  138.0880 C   0  0  0  0  0  0  0  0  0  0  0  0
  190.2750  174.8160  137.8350 C   0  0  0  0  0  2  0  0  0  0  0  0
  191.4130  176.8460  137.4550 O   0  0  0  0  0  0  0  0  0  0  0  0
  194.8640  174.9320  135.6860 C   0  0  0  0  0  0  0  0  0  0  0  0
  192.4510  175.6890  135.5960 C   0  0  0  0  0  2  0  0  0  0  0  0
  195.1630  174.3130  137.0270 C   0  0  2  0  0  3  0  0  0  0  0  0
  193.5020  174.6740  135.1230 C   0  0  0  0  0  2  0  0  0  0  0  0
  195.5750  175.9610  135.2240 C   0  0  0  0  0  2  0  0  0  0  0  0
  194.5290  175.1080  138.1720 C   0  0  0  0  0  2  0  0  0  0  0  0
  193.0100  175.1590  138.0400 C   0  0  0  0  0  2  0  0  0  0  0  0
  192.6160  176.2270  137.0290 C   0  0  2  0  0  3  0  0  0  0  0  0
  196.6520  173.9990  137.2430 C   0  0  1  0  0  3  0  0  0  0  0  0
  198.2310  175.4180  137.5780 O   0  0  0  0  0  1  0  0  0  0  0  0
  197.2220  174.8430  138.2030 O   0  0  0  0  0  0  0  0  0  0  0  0
  195.7300  171.9820  138.1890 O   0  0  0  0  0  1  0  0  0  0  0  0
  196.8740  172.5290  137.6010 C   0  0  0  0  0  2  0  0  0  0  0  0
  185.3340  179.7490  143.9680 O   0  0  0  0  0  1  0  0  0  0  0  0
  184.4790  179.3340  142.9450 C   0  0  2  0  0  3  0  0  0  0  0  0
  183.5270  178.2560  143.4470 C   0  0  0  0  0  2  0  0  0  0  0  0
  182.2500  178.8430  143.8280 N   0  0  0  0  0  2  0  0  0  0  0  0
  181.1930  178.3450  141.6340 N   0  0  0  0  0  2  0  0  0  0  0  0
  181.1050  178.8520  142.9720 C   0  0  0  0  0  0  0  0  0  0  0  0
  180.0170  179.3060  143.4090 O   0  0  0  0  0  0  0  0  0  0  0  0
  180.3950  178.6910  137.2270 C   0  0  0  0  0  1  0  0  0  0  0  0
  179.8320  176.6710  140.0870 S   0  0  0  0  0  0  0  0  0  0  0  0
  180.3620  179.1800  139.5160 C   0  0  2  0  0  3  0  0  0  0  0  0
  179.0300  177.4030  138.6330 C   0  0  0  0  0  2  0  0  0  0  0  0
  179.5310  178.7550  138.3920 N   0  0  0  0  0  0  0  0  0  0  0  0
  180.0550  178.3290  140.7300 C   0  0  2  0  0  3  0  0  0  0  0  0
  180.1030  180.6470  139.8350 C   0  0  0  0  0  2  0  0  0  0  0  0
  181.9000  181.6830  138.7130 O   0  0  0  0  0  0  0  0  0  0  0  0
  180.6880  181.5390  138.7910 C   0  0  0  0  0  3  0  0  0  0  0  0
  185.5480  176.1410  136.2030 C   0  0  0  0  0  2  0  0  0  0  0  0
  185.1170  175.1850  137.3090 C   0  0  0  0  0  2  0  0  0  0  0  0
  183.6040  175.0320  137.3600 C   0  0  2  0  0  3  0  0  0  0  0  0
  183.1550  175.1790  138.6770 O   0  0  0  0  0  1  0  0  0  0  0  0
  181.8080  173.5500  136.2210 C   0  0  2  0  0  3  0  0  0  0  0  0
  183.0510  173.5450  135.3380 C   0  0  0  0  0  2  0  0  0  0  0  0
  183.7410  172.5210  137.4310 O   0  0  0  0  0  1  0  0  0  0  0  0
  183.1950  173.6630  136.8350 C   0  0  1  0  0  0  0  0  0  0  0  0
  181.2580  172.1910  136.3080 C   0  0  0  0  0  0  0  0  0  0  0  0
  180.8290  171.1200  136.3880 N   0  0  0  0  0  0  0  0  0  0  0  0
  1  5  1  0  0  0  0
  2  8  1  6  0  0  0
  2 14  1  0  0  0  0
  2  7  1  0  0  0  0
  3 15  1  1  0  0  0
  3  9  1  0  0  0  0
  4 11  1  0  0  0  0
  5 19  1  0  0  0  0
  6  8  1  0  0  0  0
  7 17  1  0  0  0  0
  7 37  1  1  0  0  0
  9  4  1  6  0  0  0
  9 18  1  0  0  0  0
 10  6  1  0  0  0  0
 11 16  1  1  0  0  0
 12 52  1  1  0  0  0
 12 10  1  0  0  0  0
 12  1  1  0  0  0  0
 14  7  1  0  0  0  0
 15 18  1  0  0  0  0
 17 11  1  0  0  0  0
 18 13  2  0  0  0  0
 19 20  1  6  0  0  0
 19  3  1  0  0  0  0
 21 20  2  0  0  0  0
 22 20  1  0  0  0  0
 23 25  1  0  0  0  0
 24 30  1  0  0  0  0
 25 31  1  1  0  0  0
 25 28  1  0  0  0  0
 26 24  1  0  0  0  0
 26 23  1  0  0  0  0
 27 23  2  0  0  0  0
 29 28  1  0  0  0  0
 30 22  1  1  0  0  0
 30 29  1  0  0  0  0
 31 35  1  1  0  0  0
 31 33  1  0  0  0  0
 32 33  1  0  0  0  0
 35 34  1  0  0  0  0
 37 38  1  0  0  0  0
 37 36  1  1  0  0  0
 38 39  1  0  0  0  0
 40 41  1  0  0  0  0
 41 42  2  0  0  0  0
 41 39  1  0  0  0  0
 43 47  1  0  0  0  0
 44 48  1  0  0  0  0
 45 49  1  1  0  0  0
 45 48  1  0  0  0  0
 46 44  1  0  0  0  0
 47 46  1  0  0  0  0
 47 45  1  0  0  0  0
 48 40  1  1  0  0  0
 50 51  2  0  0  0  0
 51 49  1  0  0  0  0
 52 53  1  0  0  0  0
 53 54  1  0  0  0  0
 54 55  1  1  0  0  0
 56 60  1  1  0  0  0
 56 59  1  0  0  0  0
 57 56  1  0  0  0  0
 57 59  1  0  0  0  0
 59 54  1  0  0  0  0
 59 58  1  1  0  0  0
 60 61  3  0  0  0  0
M  END
>  <MODEL>
5

>  <REMARK>
 VINA RESULT:      -6.0      3.242      7.324
  Name = 
  17 active torsions:
  status: ('A' for Active; 'I' for Inactive)
    1  A    between atoms: N_4  and  C_53
    2  A    between atoms: C_6  and  C_8
    3  A    between atoms: C_9  and  C_14
    4  A    between atoms: C_9  and  C_39
    5  A    between atoms: C_11  and  O_48
    6  A    between atoms: C_11  and  C_54
    7  A    between atoms: C_14  and  C_50
    8  A    between atoms: C_20  and  C_55
    9  A    between atoms: C_22  and  C_24
   10  A    between atoms: C_22  and  O_45
   11  A    between atoms: C_22  and  C_59
   12  A    between atoms: C_29  and  C_39
   13  A    between atoms: C_35  and  C_42
   14  A    between atoms: C_35  and  C_52
   15  A    between atoms: N_40  and  C_61
   16  A    between atoms: O_48  and  C_60
   17  A    between atoms: C_53  and  C_55
                            x       y       z     vdW  Elec       q    Type
                         _______ _______ _______ _____ _____    ______ ____

>  <TORSDO>
F 17

$$$$
=
 OpenBabel11042413183D

 61 66  0  0  1  0  0  0  0  0999 V2000
  190.2200  177.1770  141.8320 C   0  0  0  0  0  2  0  0  0  0  0  0
  186.3720  177.8010  143.6340 C   0  0  1  0  0  3  0  0  0  0  0  0
  188.7960  176.7780  138.3540 C   0  0  1  0  0  3  0  0  0  0  0  0
  187.6630  178.7800  139.4070 C   0  0  0  0  0  2  0  0  0  0  0  0
  189.6550  176.3800  140.6710 C   0  0  0  0  0  2  0  0  0  0  0  0
  188.4100  176.4760  144.2080 C   0  0  0  0  0  2  0  0  0  0  0  0
  185.7020  178.5030  142.4480 C   0  0  1  0  0  0  0  0  0  0  0  0
  187.2880  176.6620  143.2060 C   0  0  0  0  0  2  0  0  0  0  0  0
  187.5820  177.5690  138.4720 C   0  0  1  0  0  3  0  0  0  0  0  0
  189.4510  175.5270  143.6290 C   0  0  0  0  0  2  0  0  0  0  0  0
  186.3300  179.0830  140.0860 C   0  0  1  0  0  3  0  0  0  0  0  0
  190.6320  176.2540  142.9770 C   0  0  2  0  0  3  0  0  0  0  0  0
  187.1770  178.7820  136.2300 N   0  0  0  0  0  2  0  0  0  0  0  0
  186.9220  179.1200  143.1120 C   0  0  0  0  0  2  0  0  0  0  0  0
  189.0880  177.2830  137.0290 N   0  0  0  0  0  2  0  0  0  0  0  0
  185.2770  179.2950  139.1080 N   0  0  0  0  0  1  0  0  0  0  0  0
  185.9470  177.9620  141.0430 C   0  0  0  0  0  2  0  0  0  0  0  0
  187.8190  178.0350  137.0670 C   0  0  0  0  0  0  0  0  0  0  0  0
  189.9200  177.1000  139.3550 C   0  0  1  0  0  3  0  0  0  0  0  0
  191.2630  176.6900  138.8230 C   0  0  0  0  0  0  0  0  0  0  0  0
  192.3460  177.3720  139.1820 C   0  0  0  0  0  2  0  0  0  0  0  0
  191.3770  175.6130  137.9470 O   0  0  0  0  0  0  0  0  0  0  0  0
  194.5130  175.1040  135.0140 C   0  0  0  0  0  0  0  0  0  0  0  0
  192.0770  175.0560  135.6950 C   0  0  0  0  0  2  0  0  0  0  0  0
  195.3630  174.4720  136.0850 C   0  0  2  0  0  3  0  0  0  0  0  0
  193.1700  174.4870  134.7790 C   0  0  0  0  0  2  0  0  0  0  0  0
  194.7390  176.3500  134.5950 C   0  0  0  0  0  2  0  0  0  0  0  0
  194.9150  174.8940  137.4870 C   0  0  0  0  0  2  0  0  0  0  0  0
  193.4740  174.4710  137.7620 C   0  0  0  0  0  2  0  0  0  0  0  0
  192.5150  175.4610  137.1140 C   0  0  2  0  0  3  0  0  0  0  0  0
  196.8740  174.6280  135.8460 C   0  0  1  0  0  3  0  0  0  0  0  0
  198.3100  175.1050  137.3730 O   0  0  0  0  0  1  0  0  0  0  0  0
  197.4080  175.6790  136.6010 O   0  0  0  0  0  0  0  0  0  0  0  0
  196.7340  172.2810  136.3790 O   0  0  0  0  0  1  0  0  0  0  0  0
  197.6260  173.3230  136.1090 C   0  0  0  0  0  2  0  0  0  0  0  0
  184.3290  179.8330  143.9570 O   0  0  0  0  0  1  0  0  0  0  0  0
  184.3540  179.1830  142.7210 C   0  0  2  0  0  3  0  0  0  0  0  0
  183.1920  178.2050  142.6070 C   0  0  0  0  0  2  0  0  0  0  0  0
  181.9350  178.8710  142.9140 N   0  0  0  0  0  2  0  0  0  0  0  0
  181.3780  179.2590  140.5240 N   0  0  0  0  0  2  0  0  0  0  0  0
  181.0330  179.3460  141.9120 C   0  0  0  0  0  0  0  0  0  0  0  0
  179.9300  179.8370  142.2630 O   0  0  0  0  0  0  0  0  0  0  0  0
  181.1720  179.2080  136.0360 C   0  0  0  0  0  1  0  0  0  0  0  0
  179.3890  178.3950  138.9920 S   0  0  0  0  0  0  0  0  0  0  0  0
  181.3000  180.0260  138.2260 C   0  0  2  0  0  3  0  0  0  0  0  0
  179.2390  179.1790  137.3630 C   0  0  0  0  0  2  0  0  0  0  0  0
  180.4400  179.9500  137.0470 N   0  0  0  0  0  0  0  0  0  0  0  0
  180.4920  179.7250  139.4690 C   0  0  2  0  0  3  0  0  0  0  0  0
  181.9170  181.4150  138.3350 C   0  0  0  0  0  2  0  0  0  0  0  0
  181.2450  183.5010  137.4650 O   0  0  0  0  0  0  0  0  0  0  0  0
  180.9100  182.4790  138.0450 C   0  0  0  0  0  3  0  0  0  0  0  0
  191.4490  177.0050  144.0250 C   0  0  0  0  0  2  0  0  0  0  0  0
  191.5850  176.2120  145.3190 C   0  0  0  0  0  2  0  0  0  0  0  0
  191.6630  177.1270  146.5330 C   0  0  2  0  0  3  0  0  0  0  0  0
  192.0580  176.3940  147.6570 O   0  0  0  0  0  1  0  0  0  0  0  0
  189.3420  176.9950  147.6790 C   0  0  2  0  0  3  0  0  0  0  0  0
  190.0590  178.2310  148.2110 C   0  0  0  0  0  2  0  0  0  0  0  0
  189.7700  178.6260  145.8300 O   0  0  0  0  0  1  0  0  0  0  0  0
  190.3090  177.7700  146.7960 C   0  0  1  0  0  0  0  0  0  0  0  0
  187.9370  177.3200  147.4020 C   0  0  0  0  0  0  0  0  0  0  0  0
  186.8290  177.5820  147.1960 N   0  0  0  0  0  0  0  0  0  0  0  0
  1 12  1  0  0  0  0
  2 14  1  6  0  0  0
  3 15  1  6  0  0  0
  3  9  1  0  0  0  0
  3 19  1  0  0  0  0
  4 11  1  0  0  0  0
  5  1  1  0  0  0  0
  7 37  1  1  0  0  0
  7 14  1  0  0  0  0
  7  2  1  0  0  0  0
  8  2  1  0  0  0  0
  8  6  1  0  0  0  0
  9  4  1  1  0  0  0
 10  6  1  0  0  0  0
 11 16  1  6  0  0  0
 11 17  1  0  0  0  0
 12 10  1  0  0  0  0
 12 52  1  1  0  0  0
 13 18  2  0  0  0  0
 15 18  1  0  0  0  0
 17  7  1  0  0  0  0
 18  9  1  0  0  0  0
 19 20  1  6  0  0  0
 19  5  1  0  0  0  0
 20 21  2  0  0  0  0
 22 20  1  0  0  0  0
 23 25  1  0  0  0  0
 24 30  1  0  0  0  0
 25 31  1  6  0  0  0
 25 28  1  0  0  0  0
 26 23  1  0  0  0  0
 26 24  1  0  0  0  0
 27 23  2  0  0  0  0
 28 29  1  0  0  0  0
 30 29  1  0  0  0  0
 30 22  1  1  0  0  0
 31 35  1  1  0  0  0
 31 33  1  0  0  0  0
 33 32  1  0  0  0  0
 35 34  1  0  0  0  0
 37 36  1  1  0  0  0
 38 37  1  0  0  0  0
 38 39  1  0  0  0  0
 40 41  1  0  0  0  0
 41 42  2  0  0  0  0
 41 39  1  0  0  0  0
 43 47  1  0  0  0  0
 44 48  1  0  0  0  0
 45 49  1  1  0  0  0
 45 48  1  0  0  0  0
 46 44  1  0  0  0  0
 47 46  1  0  0  0  0
 47 45  1  0  0  0  0
 48 40  1  1  0  0  0
 50 51  2  0  0  0  0
 51 49  1  0  0  0  0
 52 53  1  0  0  0  0
 53 54  1  0  0  0  0
 54 59  1  0  0  0  0
 54 55  1  1  0  0  0
 56 60  1  6  0  0  0
 56 57  1  0  0  0  0
 59 58  1  6  0  0  0
 59 56  1  0  0  0  0
 59 57  1  0  0  0  0
 61 60  3  0  0  0  0
M  END
>  <MODEL>
6

>  <REMARK>
 VINA RESULT:      -5.9      2.998      8.265
  Name = 
  17 active torsions:
  status: ('A' for Active; 'I' for Inactive)
    1  A    between atoms: N_4  and  C_53
    2  A    between atoms: C_6  and  C_8
    3  A    between atoms: C_9  and  C_14
    4  A    between atoms: C_9  and  C_39
    5  A    between atoms: C_11  and  O_48
    6  A    between atoms: C_11  and  C_54
    7  A    between atoms: C_14  and  C_50
    8  A    between atoms: C_20  and  C_55
    9  A    between atoms: C_22  and  C_24
   10  A    between atoms: C_22  and  O_45
   11  A    between atoms: C_22  and  C_59
   12  A    between atoms: C_29  and  C_39
   13  A    between atoms: C_35  and  C_42
   14  A    between atoms: C_35  and  C_52
   15  A    between atoms: N_40  and  C_61
   16  A    between atoms: O_48  and  C_60
   17  A    between atoms: C_53  and  C_55
                            x       y       z     vdW  Elec       q    Type
                         _______ _______ _______ _____ _____    ______ ____

>  <TORSDO>
F 17

$$$$
=
 OpenBabel11042413183D

 61 66  0  0  1  0  0  0  0  0999 V2000
  187.6020  177.0090  138.6480 C   0  0  0  0  0  2  0  0  0  0  0  0
  183.9490  178.8780  139.9140 C   0  0  1  0  0  3  0  0  0  0  0  0
  189.5310  178.1660  141.6850 C   0  0  1  0  0  3  0  0  0  0  0  0
  187.3050  177.2810  142.4990 C   0  0  0  0  0  2  0  0  0  0  0  0
  188.4790  177.9760  139.4220 C   0  0  0  0  0  2  0  0  0  0  0  0
  185.1940  178.6880  137.7570 C   0  0  0  0  0  2  0  0  0  0  0  0
  184.1520  178.7220  141.4240 C   0  0  1  0  0  0  0  0  0  0  0  0
  185.2380  179.2180  139.1770 C   0  0  0  0  0  2  0  0  0  0  0  0
  188.4540  178.2810  142.6550 C   0  0  1  0  0  3  0  0  0  0  0  0
  186.5800  178.8000  137.1350 C   0  0  0  0  0  2  0  0  0  0  0  0
  185.9630  177.8590  142.9380 C   0  0  1  0  0  3  0  0  0  0  0  0
  187.3840  177.4980  137.2170 C   0  0  2  0  0  3  0  0  0  0  0  0
  189.3510  177.5500  144.9620 N   0  0  0  0  0  2  0  0  0  0  0  0
  184.0670  177.4940  140.5330 C   0  0  0  0  0  2  0  0  0  0  0  0
  190.4380  177.5770  142.6470 N   0  0  0  0  0  2  0  0  0  0  0  0
  186.0150  178.3260  144.3120 N   0  0  0  0  0  1  0  0  0  0  0  0
  185.5350  178.9890  142.0100 C   0  0  0  0  0  2  0  0  0  0  0  0
  189.4060  177.7560  143.6870 C   0  0  0  0  0  0  0  0  0  0  0  0
  189.2730  177.2330  140.4880 C   0  0  1  0  0  3  0  0  0  0  0  0
  190.5590  176.7330  139.8950 C   0  0  0  0  0  0  0  0  0  0  0  0
  191.7010  177.3420  140.1970 C   0  0  0  0  0  2  0  0  0  0  0  0
  190.5590  175.6480  139.0220 O   0  0  0  0  0  0  0  0  0  0  0  0
  193.2090  175.7640  135.6070 C   0  0  0  0  0  0  0  0  0  0  0  0
  191.1250  176.5130  136.8300 C   0  0  0  0  0  2  0  0  0  0  0  0
  193.3720  174.2720  135.7270 C   0  0  2  0  0  3  0  0  0  0  0  0
  191.8070  176.2720  135.4760 C   0  0  0  0  0  2  0  0  0  0  0  0
  194.1700  176.6010  135.9990 C   0  0  0  0  0  2  0  0  0  0  0  0
  193.0530  173.7790  137.1420 C   0  0  0  0  0  2  0  0  0  0  0  0
  191.6120  174.0970  137.5300 C   0  0  0  0  0  2  0  0  0  0  0  0
  191.5060  175.5510  137.9700 C   0  0  2  0  0  3  0  0  0  0  0  0
  194.7110  173.7510  135.1790 C   0  0  1  0  0  3  0  0  0  0  0  0
  196.3200  172.9470  136.3560 O   0  0  0  0  0  1  0  0  0  0  0  0
  195.7790  174.1000  136.0130 O   0  0  0  0  0  0  0  0  0  0  0  0
  193.3550  171.7840  134.8520 O   0  0  0  0  0  1  0  0  0  0  0  0
  194.6740  172.2420  134.9340 C   0  0  0  0  0  2  0  0  0  0  0  0
  183.2540  178.9510  143.6760 O   0  0  0  0  0  1  0  0  0  0  0  0
  182.9370  179.0080  142.3170 C   0  0  2  0  0  3  0  0  0  0  0  0
  181.7700  178.0830  142.0000 C   0  0  0  0  0  2  0  0  0  0  0  0
  180.7710  178.7790  141.2030 N   0  0  0  0  0  2  0  0  0  0  0  0
  180.2380  176.7720  139.8380 N   0  0  0  0  0  2  0  0  0  0  0  0
  179.9970  178.1420  140.1840 C   0  0  0  0  0  0  0  0  0  0  0  0
  179.0970  178.7960  139.5980 O   0  0  0  0  0  0  0  0  0  0  0  0
  180.9950  174.1000  136.3060 C   0  0  0  0  0  1  0  0  0  0  0  0
  179.1720  174.3920  139.3350 S   0  0  0  0  0  0  0  0  0  0  0  0
  180.3090  175.9570  137.5560 C   0  0  2  0  0  3  0  0  0  0  0  0
  179.0350  173.9340  137.5850 C   0  0  0  0  0  2  0  0  0  0  0  0
  179.8250  174.8380  136.7500 N   0  0  0  0  0  0  0  0  0  0  0  0
  179.4740  176.0810  138.8130 C   0  0  2  0  0  3  0  0  0  0  0  0
  180.2320  177.2510  136.7560 C   0  0  0  0  0  2  0  0  0  0  0  0
  182.4530  177.3100  135.9670 O   0  0  0  0  0  0  0  0  0  0  0  0
  181.5800  177.8750  136.6080 C   0  0  0  0  0  3  0  0  0  0  0  0
  186.7440  176.4130  136.3540 C   0  0  0  0  0  2  0  0  0  0  0  0
  186.1770  175.2750  137.1940 C   0  0  0  0  0  2  0  0  0  0  0  0
  184.8430  174.7850  136.6480 C   0  0  2  0  0  3  0  0  0  0  0  0
  183.8650  174.8580  137.6440 O   0  0  0  0  0  1  0  0  0  0  0  0
  186.3190  172.6740  136.3570 C   0  0  2  0  0  3  0  0  0  0  0  0
  185.1320  172.3000  137.2390 C   0  0  0  0  0  2  0  0  0  0  0  0
  184.1730  172.9230  135.0940 O   0  0  0  0  0  1  0  0  0  0  0  0
  184.9690  173.3470  136.1640 C   0  0  1  0  0  0  0  0  0  0  0  0
  186.5650  171.6050  135.3800 C   0  0  0  0  0  0  0  0  0  0  0  0
  186.7550  170.7540  134.6190 N   0  0  0  0  0  0  0  0  0  0  0  0
  1  5  1  0  0  0  0
  2  8  1  6  0  0  0
  2 14  1  0  0  0  0
  2  7  1  0  0  0  0
  3 15  1  1  0  0  0
  3  9  1  0  0  0  0
  4 11  1  0  0  0  0
  5 19  1  0  0  0  0
  6  8  1  0  0  0  0
  7 17  1  0  0  0  0
  7 37  1  1  0  0  0
  9  4  1  6  0  0  0
  9 18  1  0  0  0  0
 10 12  1  0  0  0  0
 10  6  1  0  0  0  0
 11 16  1  1  0  0  0
 12 52  1  6  0  0  0
 12  1  1  0  0  0  0
 14  7  1  0  0  0  0
 15 18  1  0  0  0  0
 17 11  1  0  0  0  0
 18 13  2  0  0  0  0
 19 20  1  6  0  0  0
 19  3  1  0  0  0  0
 20 21  2  0  0  0  0
 22 20  1  0  0  0  0
 23 25  1  0  0  0  0
 23 27  2  0  0  0  0
 24 30  1  0  0  0  0
 25 31  1  1  0  0  0
 25 28  1  0  0  0  0
 26 23  1  0  0  0  0
 26 24  1  0  0  0  0
 28 29  1  0  0  0  0
 29 30  1  0  0  0  0
 30 22  1  1  0  0  0
 31 35  1  1  0  0  0
 31 33  1  0  0  0  0
 33 32  1  0  0  0  0
 34 35  1  0  0  0  0
 37 36  1  1  0  0  0
 38 37  1  0  0  0  0
 39 38  1  0  0  0  0
 40 41  1  0  0  0  0
 41 39  1  0  0  0  0
 42 41  2  0  0  0  0
 43 47  1  0  0  0  0
 45 49  1  6  0  0  0
 45 48  1  0  0  0  0
 46 44  1  0  0  0  0
 47 45  1  0  0  0  0
 47 46  1  0  0  0  0
 48 44  1  0  0  0  0
 48 40  1  1  0  0  0
 50 51  2  0  0  0  0
 51 49  1  0  0  0  0
 52 53  1  0  0  0  0
 54 53  1  0  0  0  0
 54 55  1  1  0  0  0
 56 60  1  6  0  0  0
 56 57  1  0  0  0  0
 59 58  1  6  0  0  0
 59 56  1  0  0  0  0
 59 54  1  0  0  0  0
 59 57  1  0  0  0  0
 61 60  3  0  0  0  0
M  END
>  <MODEL>
7

>  <REMARK>
 VINA RESULT:      -5.7      3.441      7.057
  Name = 
  17 active torsions:
  status: ('A' for Active; 'I' for Inactive)
    1  A    between atoms: N_4  and  C_53
    2  A    between atoms: C_6  and  C_8
    3  A    between atoms: C_9  and  C_14
    4  A    between atoms: C_9  and  C_39
    5  A    between atoms: C_11  and  O_48
    6  A    between atoms: C_11  and  C_54
    7  A    between atoms: C_14  and  C_50
    8  A    between atoms: C_20  and  C_55
    9  A    between atoms: C_22  and  C_24
   10  A    between atoms: C_22  and  O_45
   11  A    between atoms: C_22  and  C_59
   12  A    between atoms: C_29  and  C_39
   13  A    between atoms: C_35  and  C_42
   14  A    between atoms: C_35  and  C_52
   15  A    between atoms: N_40  and  C_61
   16  A    between atoms: O_48  and  C_60
   17  A    between atoms: C_53  and  C_55
                            x       y       z     vdW  Elec       q    Type
                         _______ _______ _______ _____ _____    ______ ____

>  <TORSDO>
F 17

$$$$
=
 OpenBabel11042413183D

 61 66  0  0  1  0  0  0  0  0999 V2000
  185.1430  177.6880  139.6470 C   0  0  0  0  0  2  0  0  0  0  0  0
  182.5210  176.3270  136.5310 C   0  0  1  0  0  3  0  0  0  0  0  0
  182.3200  179.0490  141.7600 C   0  0  1  0  0  3  0  0  0  0  0  0
  181.6150  176.7610  140.9440 C   0  0  0  0  0  2  0  0  0  0  0  0
  184.1850  178.7680  140.1140 C   0  0  0  0  0  2  0  0  0  0  0  0
  184.7100  177.5250  136.6140 C   0  0  0  0  0  2  0  0  0  0  0  0
  181.3150  175.9840  137.4120 C   0  0  1  0  0  0  0  0  0  0  0  0
  183.2410  177.5920  136.9790 C   0  0  0  0  0  2  0  0  0  0  0  0
  181.2280  178.1930  141.3280 C   0  0  1  0  0  3  0  0  0  0  0  0
  185.4520  178.6640  137.3030 C   0  0  0  0  0  2  0  0  0  0  0  0
  180.7240  176.1900  139.8450 C   0  0  1  0  0  3  0  0  0  0  0  0
  186.1230  178.2380  138.6140 C   0  0  2  0  0  3  0  0  0  0  0  0
  179.7210  177.7020  143.3640 N   0  0  0  0  0  2  0  0  0  0  0  0
  182.6390  175.2640  137.6120 C   0  0  0  0  0  2  0  0  0  0  0  0
  181.9180  178.9910  143.1490 N   0  0  0  0  0  2  0  0  0  0  0  0
  179.3230  176.2280  140.2300 N   0  0  0  0  0  1  0  0  0  0  0  0
  180.9350  176.9410  138.5380 C   0  0  0  0  0  2  0  0  0  0  0  0
  180.7450  178.1930  142.7460 C   0  0  0  0  0  0  0  0  0  0  0  0
  183.7430  178.5010  141.5470 C   0  0  1  0  0  3  0  0  0  0  0  0
  184.7210  179.1280  142.4970 C   0  0  0  0  0  0  0  0  0  0  0  0
  184.2830  179.6670  143.6300 C   0  0  0  0  0  2  0  0  0  0  0  0
  186.0800  179.1620  142.1910 O   0  0  0  0  0  0  0  0  0  0  0  0
  189.2860  177.3200  144.4330 C   0  0  0  0  0  0  0  0  0  0  0  0
  188.0930  177.8140  142.2580 C   0  0  0  0  0  2  0  0  0  0  0  0
  188.2870  176.9670  145.5040 C   0  0  2  0  0  3  0  0  0  0  0  0
  188.9770  176.8400  143.0500 C   0  0  0  0  0  2  0  0  0  0  0  0
  190.1540  178.3190  144.5970 C   0  0  0  0  0  2  0  0  0  0  0  0
  187.0580  177.8790  145.4540 C   0  0  0  0  0  2  0  0  0  0  0  0
  186.3310  177.7600  144.1170 C   0  0  0  0  0  2  0  0  0  0  0  0
  187.0450  178.5990  143.0670 C   0  0  2  0  0  3  0  0  0  0  0  0
  188.9050  176.8390  146.9060 C   0  0  1  0  0  3  0  0  0  0  0  0
  190.9430  176.2720  147.2870 O   0  0  0  0  0  1  0  0  0  0  0  0
  190.2200  177.3170  146.9350 O   0  0  0  0  0  0  0  0  0  0  0  0
  188.4530  178.8500  148.1570 O   0  0  0  0  0  1  0  0  0  0  0  0
  188.0460  177.5260  147.9680 C   0  0  0  0  0  2  0  0  0  0  0  0
  178.9410  175.7900  136.9080 O   0  0  0  0  0  1  0  0  0  0  0  0
  180.1870  175.1780  136.7550 C   0  0  2  0  0  3  0  0  0  0  0  0
  180.1440  173.7430  137.2640 C   0  0  0  0  0  2  0  0  0  0  0  0
  180.0490  172.8110  136.1500 N   0  0  0  0  0  2  0  0  0  0  0  0
  182.5130  172.6620  135.8640 N   0  0  0  0  0  2  0  0  0  0  0  0
  181.1890  172.2520  135.4950 C   0  0  0  0  0  0  0  0  0  0  0  0
  181.0180  171.3910  134.5950 O   0  0  0  0  0  0  0  0  0  0  0  0
  186.8800  172.1520  136.7830 C   0  0  0  0  0  1  0  0  0  0  0  0
  183.9470  170.4290  135.7790 S   0  0  0  0  0  0  0  0  0  0  0  0
  184.9230  172.8670  135.7170 C   0  0  2  0  0  3  0  0  0  0  0  0
  185.7160  170.6310  135.4290 C   0  0  0  0  0  2  0  0  0  0  0  0
  186.1120  172.0330  135.5570 N   0  0  0  0  0  0  0  0  0  0  0  0
  183.7020  172.1180  135.2290 C   0  0  2  0  0  3  0  0  0  0  0  0
  185.0820  174.1620  134.9300 C   0  0  0  0  0  2  0  0  0  0  0  0
  186.9850  175.5400  134.7280 O   0  0  0  0  0  0  0  0  0  0  0  0
  186.5140  174.4200  134.5960 C   0  0  0  0  0  3  0  0  0  0  0  0
  187.2560  177.2500  138.3450 C   0  0  0  0  0  2  0  0  0  0  0  0
  188.5360  177.6350  139.0770 C   0  0  0  0  0  2  0  0  0  0  0  0
  189.5460  176.4960  139.0790 C   0  0  2  0  0  3  0  0  0  0  0  0
  190.6340  176.8270  139.8920 O   0  0  0  0  0  1  0  0  0  0  0  0
  191.1520  175.2040  137.5070 C   0  0  2  0  0  3  0  0  0  0  0  0
  189.7220  174.8550  137.1080 C   0  0  0  0  0  2  0  0  0  0  0  0
  189.9410  177.2430  136.7090 O   0  0  0  0  0  1  0  0  0  0  0  0
  190.0340  176.2230  137.6630 C   0  0  1  0  0  0  0  0  0  0  0  0
  191.9610  175.4290  136.3020 C   0  0  0  0  0  0  0  0  0  0  0  0
  192.6010  175.6170  135.3570 N   0  0  0  0  0  0  0  0  0  0  0  0
  1  5  1  0  0  0  0
  2  8  1  1  0  0  0
  2  7  1  0  0  0  0
  2 14  1  0  0  0  0
  3 15  1  1  0  0  0
  5 19  1  0  0  0  0
  6  8  1  0  0  0  0
  6 10  1  0  0  0  0
  7 37  1  6  0  0  0
  7 14  1  0  0  0  0
  7 17  1  0  0  0  0
  9  4  1  1  0  0  0
  9  3  1  0  0  0  0
  9 18  1  0  0  0  0
 10 12  1  0  0  0  0
 11 16  1  1  0  0  0
 11  4  1  0  0  0  0
 12 52  1  6  0  0  0
 12  1  1  0  0  0  0
 17 11  1  0  0  0  0
 18 15  1  0  0  0  0
 18 13  2  0  0  0  0
 19  3  1  0  0  0  0
 19 20  1  1  0  0  0
 20 21  2  0  0  0  0
 22 20  1  0  0  0  0
 23 27  2  0  0  0  0
 23 25  1  0  0  0  0
 24 26  1  0  0  0  0
 24 30  1  0  0  0  0
 25 31  1  1  0  0  0
 26 23  1  0  0  0  0
 28 25  1  0  0  0  0
 29 28  1  0  0  0  0
 30 22  1  6  0  0  0
 30 29  1  0  0  0  0
 31 33  1  0  0  0  0
 31 35  1  1  0  0  0
 33 32  1  0  0  0  0
 35 34  1  0  0  0  0
 37 36  1  1  0  0  0
 37 38  1  0  0  0  0
 39 38  1  0  0  0  0
 41 40  1  0  0  0  0
 41 39  1  0  0  0  0
 42 41  2  0  0  0  0
 45 49  1  6  0  0  0
 46 47  1  0  0  0  0
 46 44  1  0  0  0  0
 47 45  1  0  0  0  0
 47 43  1  0  0  0  0
 48 45  1  0  0  0  0
 48 44  1  0  0  0  0
 48 40  1  1  0  0  0
 51 50  2  0  0  0  0
 51 49  1  0  0  0  0
 52 53  1  0  0  0  0
 53 54  1  0  0  0  0
 54 55  1  1  0  0  0
 56 60  1  6  0  0  0
 56 59  1  0  0  0  0
 57 56  1  0  0  0  0
 57 59  1  0  0  0  0
 59 58  1  6  0  0  0
 59 54  1  0  0  0  0
 61 60  3  0  0  0  0
M  END
>  <MODEL>
8

>  <REMARK>
 VINA RESULT:      -5.6      3.582      5.893
  Name = 
  17 active torsions:
  status: ('A' for Active; 'I' for Inactive)
    1  A    between atoms: N_4  and  C_53
    2  A    between atoms: C_6  and  C_8
    3  A    between atoms: C_9  and  C_14
    4  A    between atoms: C_9  and  C_39
    5  A    between atoms: C_11  and  O_48
    6  A    between atoms: C_11  and  C_54
    7  A    between atoms: C_14  and  C_50
    8  A    between atoms: C_20  and  C_55
    9  A    between atoms: C_22  and  C_24
   10  A    between atoms: C_22  and  O_45
   11  A    between atoms: C_22  and  C_59
   12  A    between atoms: C_29  and  C_39
   13  A    between atoms: C_35  and  C_42
   14  A    between atoms: C_35  and  C_52
   15  A    between atoms: N_40  and  C_61
   16  A    between atoms: O_48  and  C_60
   17  A    between atoms: C_53  and  C_55
                            x       y       z     vdW  Elec       q    Type
                         _______ _______ _______ _____ _____    ______ ____

>  <TORSDO>
F 17

$$$$
=
 OpenBabel11042413183D

 61 66  0  0  1  0  0  0  0  0999 V2000
  186.8720  176.6830  137.6880 C   0  0  0  0  0  2  0  0  0  0  0  0
  190.4710  175.6220  135.6010 C   0  0  1  0  0  3  0  0  0  0  0  0
  184.6940  174.4320  135.5740 C   0  0  1  0  0  3  0  0  0  0  0  0
  186.7550  173.1080  136.2060 C   0  0  0  0  0  2  0  0  0  0  0  0
  185.9770  176.3690  136.5040 C   0  0  0  0  0  2  0  0  0  0  0  0
  189.4650  177.7470  136.4410 C   0  0  0  0  0  2  0  0  0  0  0  0
  190.0920  174.1770  135.2600 C   0  0  1  0  0  0  0  0  0  0  0  0
  189.2970  176.5840  135.4840 C   0  0  0  0  0  2  0  0  0  0  0  0
  185.6600  173.4200  135.1800 C   0  0  1  0  0  3  0  0  0  0  0  0
  188.1670  178.5420  136.5010 C   0  0  0  0  0  2  0  0  0  0  0  0
  188.0740  172.7090  135.5490 C   0  0  1  0  0  3  0  0  0  0  0  0
  187.2790  178.1550  137.6890 C   0  0  2  0  0  3  0  0  0  0  0  0
  184.4680  171.1330  135.1130 N   0  0  0  0  0  2  0  0  0  0  0  0
  190.1990  174.6180  136.7110 C   0  0  0  0  0  2  0  0  0  0  0  0
  183.6500  173.4550  135.8020 N   0  0  0  0  0  2  0  0  0  0  0  0
  187.8980  171.5690  134.6660 N   0  0  0  0  0  1  0  0  0  0  0  0
  188.6720  173.8840  134.7870 C   0  0  0  0  0  2  0  0  0  0  0  0
  184.5680  172.4040  135.3240 C   0  0  0  0  0  0  0  0  0  0  0  0
  185.0240  175.2320  136.8470 C   0  0  1  0  0  3  0  0  0  0  0  0
  183.7830  175.7940  137.4790 C   0  0  0  0  0  0  0  0  0  0  0  0
  182.9630  174.9880  138.1450 C   0  0  0  0  0  2  0  0  0  0  0  0
  183.4810  177.1490  137.3590 O   0  0  0  0  0  0  0  0  0  0  0  0
  180.2510  179.2840  139.2830 C   0  0  0  0  0  0  0  0  0  0  0  0
  181.9890  179.0560  137.4600 C   0  0  0  0  0  2  0  0  0  0  0  0
  180.8460  178.9120  140.6160 C   0  0  2  0  0  3  0  0  0  0  0  0
  181.1520  180.0040  138.3300 C   0  0  0  0  0  2  0  0  0  0  0  0
  179.1630  178.6730  138.8150 C   0  0  0  0  0  2  0  0  0  0  0  0
  181.7380  177.6720  140.5110 C   0  0  0  0  0  2  0  0  0  0  0  0
  182.9070  177.9060  139.5580 C   0  0  0  0  0  2  0  0  0  0  0  0
  182.4380  177.7390  138.1190 C   0  0  2  0  0  3  0  0  0  0  0  0
  179.8140  178.8360  141.7540 C   0  0  1  0  0  3  0  0  0  0  0  0
  179.2790  177.8370  143.5810 O   0  0  0  0  0  1  0  0  0  0  0  0
  179.8830  177.6120  142.4300 O   0  0  0  0  0  0  0  0  0  0  0  0
  179.0890  181.0500  142.3720 O   0  0  0  0  0  1  0  0  0  0  0  0
  179.9530  180.0090  142.7230 C   0  0  0  0  0  2  0  0  0  0  0  0
  191.2870  172.0600  135.4190 O   0  0  0  0  0  1  0  0  0  0  0  0
  191.2150  173.2740  134.7330 C   0  0  2  0  0  3  0  0  0  0  0  0
  192.5650  173.9790  134.7510 C   0  0  0  0  0  2  0  0  0  0  0  0
  193.6470  173.0100  134.6550 N   0  0  0  0  0  2  0  0  0  0  0  0
  195.3140  174.5380  135.6830 N   0  0  0  0  0  2  0  0  0  0  0  0
  194.9680  173.2570  135.1420 C   0  0  0  0  0  0  0  0  0  0  0  0
  195.8220  172.3350  135.0940 O   0  0  0  0  0  0  0  0  0  0  0  0
  199.0270  172.3170  136.8920 C   0  0  0  0  0  1  0  0  0  0  0  0
  197.7980  174.9240  134.8260 S   0  0  0  0  0  0  0  0  0  0  0  0
  197.1290  173.6790  137.0410 C   0  0  2  0  0  3  0  0  0  0  0  0
  199.1200  174.4780  135.9860 C   0  0  0  0  0  2  0  0  0  0  0  0
  198.5890  173.6860  137.0950 N   0  0  0  0  0  0  0  0  0  0  0  0
  196.6430  174.8350  136.1940 C   0  0  2  0  0  3  0  0  0  0  0  0
  196.5520  173.7900  138.4460 C   0  0  0  0  0  2  0  0  0  0  0  0
  196.9520  175.1810  140.3080 O   0  0  0  0  0  0  0  0  0  0  0  0
  196.9400  175.0800  139.0900 C   0  0  0  0  0  3  0  0  0  0  0  0
  187.9410  178.5450  139.0080 C   0  0  0  0  0  2  0  0  0  0  0  0
  188.2500  177.3300  139.8740 C   0  0  0  0  0  2  0  0  0  0  0  0
  189.6490  177.4060  140.4690 C   0  0  2  0  0  3  0  0  0  0  0  0
  190.4660  176.4300  139.8900 O   0  0  0  0  0  1  0  0  0  0  0  0
  188.2270  176.8940  142.5750 C   0  0  2  0  0  3  0  0  0  0  0  0
  189.2710  175.7910  142.4330 C   0  0  0  0  0  2  0  0  0  0  0  0
  190.5350  177.8370  142.7830 O   0  0  0  0  0  1  0  0  0  0  0  0
  189.5920  177.1920  141.9750 C   0  0  1  0  0  0  0  0  0  0  0  0
  188.1250  177.2990  143.9830 C   0  0  0  0  0  0  0  0  0  0  0  0
  188.0350  177.6270  145.0890 N   0  0  0  0  0  0  0  0  0  0  0  0
  1 12  1  0  0  0  0
  2  8  1  6  0  0  0
  2 14  1  0  0  0  0
  3 15  1  1  0  0  0
  3 19  1  0  0  0  0
  5 19  1  0  0  0  0
  5  1  1  0  0  0  0
  6 10  1  0  0  0  0
  7 37  1  6  0  0  0
  7  2  1  0  0  0  0
  7 14  1  0  0  0  0
  8  6  1  0  0  0  0
  9 18  1  0  0  0  0
  9  3  1  0  0  0  0
  9  4  1  1  0  0  0
 10 12  1  0  0  0  0
 11 16  1  6  0  0  0
 11  4  1  0  0  0  0
 12 52  1  1  0  0  0
 13 18  2  0  0  0  0
 17  7  1  0  0  0  0
 17 11  1  0  0  0  0
 18 15  1  0  0  0  0
 19 20  1  6  0  0  0
 20 21  2  0  0  0  0
 22 20  1  0  0  0  0
 23 25  1  0  0  0  0
 24 30  1  0  0  0  0
 24 26  1  0  0  0  0
 25 31  1  1  0  0  0
 26 23  1  0  0  0  0
 27 23  2  0  0  0  0
 28 25  1  0  0  0  0
 29 28  1  0  0  0  0
 30 22  1  6  0  0  0
 30 29  1  0  0  0  0
 31 33  1  0  0  0  0
 31 35  1  1  0  0  0
 33 32  1  0  0  0  0
 34 35  1  0  0  0  0
 37 38  1  0  0  0  0
 37 36  1  1  0  0  0
 39 38  1  0  0  0  0
 39 41  1  0  0  0  0
 41 40  1  0  0  0  0
 42 41  2  0  0  0  0
 43 47  1  0  0  0  0
 44 46  1  0  0  0  0
 44 48  1  0  0  0  0
 45 47  1  0  0  0  0
 45 49  1  1  0  0  0
 46 47  1  0  0  0  0
 48 40  1  6  0  0  0
 48 45  1  0  0  0  0
 49 51  1  0  0  0  0
 51 50  2  0  0  0  0
 52 53  1  0  0  0  0
 53 54  1  0  0  0  0
 54 55  1  6  0  0  0
 54 59  1  0  0  0  0
 56 60  1  1  0  0  0
 57 56  1  0  0  0  0
 59 57  1  0  0  0  0
 59 56  1  0  0  0  0
 59 58  1  1  0  0  0
 60 61  3  0  0  0  0
M  END
>  <MODEL>
9

>  <REMARK>
 VINA RESULT:      -5.5      4.574     11.454
  Name = 
  17 active torsions:
  status: ('A' for Active; 'I' for Inactive)
    1  A    between atoms: N_4  and  C_53
    2  A    between atoms: C_6  and  C_8
    3  A    between atoms: C_9  and  C_14
    4  A    between atoms: C_9  and  C_39
    5  A    between atoms: C_11  and  O_48
    6  A    between atoms: C_11  and  C_54
    7  A    between atoms: C_14  and  C_50
    8  A    between atoms: C_20  and  C_55
    9  A    between atoms: C_22  and  C_24
   10  A    between atoms: C_22  and  O_45
   11  A    between atoms: C_22  and  C_59
   12  A    between atoms: C_29  and  C_39
   13  A    between atoms: C_35  and  C_42
   14  A    between atoms: C_35  and  C_52
   15  A    between atoms: N_40  and  C_61
   16  A    between atoms: O_48  and  C_60
   17  A    between atoms: C_53  and  C_55
                            x       y       z     vdW  Elec       q    Type
                         _______ _______ _______ _____ _____    ______ ____

>  <TORSDO>
F 17

$$$$
