=
 OpenBabel11042413263D

 50 55  0  0  1  0  0  0  0  0999 V2000
  185.5220  178.4570  141.0450 C   0  0  0  0  0  0  0  0  0  0  0  0
  189.1320  178.0220  140.2360 O   0  0  0  0  0  1  0  0  0  0  0  0
  182.7860  178.8470  140.6280 C   0  0  0  0  0  3  0  0  0  0  0  0
  184.8930  178.4540  145.9180 C   0  0  0  0  0  1  0  0  0  0  0  0
  183.2940  178.7510  141.9290 C   0  0  0  0  0  0  0  0  0  0  0  0
  184.3610  178.5600  144.5270 C   0  0  0  0  0  0  0  0  0  0  0  0
  185.2110  178.4370  143.4170 C   0  0  0  0  0  0  0  0  0  0  0  0
  187.7590  178.2130  140.1130 C   0  0  0  0  0  0  0  0  0  0  0  0
  186.9110  178.2630  141.2450 C   0  0  0  0  0  0  0  0  0  0  0  0
  187.3770  178.1410  142.5810 C   0  0  0  0  0  0  0  0  0  0  0  0
  185.8710  178.5240  138.6750 N   0  0  0  0  0  0  0  0  0  0  0  0
  187.2100  178.3660  138.8350 C   0  0  0  0  0  0  0  0  0  0  0  0
  183.1640  178.7980  138.3030 N   0  0  0  0  0  0  0  0  0  0  0  0
  184.6830  178.5410  142.1120 C   0  0  0  0  0  0  0  0  0  0  0  0
  186.5140  178.2330  143.5900 O   0  0  0  0  0  0  0  0  0  0  0  0
  185.0150  178.5720  139.7300 C   0  0  0  0  0  0  0  0  0  0  0  0
  182.4490  178.8720  143.0540 C   0  0  0  0  0  0  0  0  0  0  0  0
  183.6350  178.7420  139.5160 C   0  0  0  0  0  0  0  0  0  0  0  0
  182.9970  178.7820  144.3430 C   0  0  0  0  0  3  0  0  0  0  0  0
  181.4080  180.3160  137.9520 O   0  0  0  0  0  0  0  0  0  0  0  0
  180.9100  179.5040  134.6050 C   0  0  0  0  0  1  0  0  0  0  0  0
  181.7530  178.9510  137.9570 C   0  0  1  0  0  3  0  0  0  0  0  0
  180.8390  180.5770  136.6860 C   0  0  0  0  0  2  0  0  0  0  0  0
  181.4850  178.4080  136.5760 C   0  0  0  0  0  2  0  0  0  0  0  0
  180.5390  179.3260  136.0010 N   0  0  0  0  0  0  0  0  0  0  0  0
  180.7180  180.5010  143.0420 O   0  0  0  0  0  1  0  0  0  0  0  0
  180.9770  179.1370  142.8890 C   0  0  2  0  0  3  0  0  0  0  0  0
  180.1550  178.3430  143.8860 C   0  0  0  0  0  1  0  0  0  0  0  0
  188.8170  177.9120  142.9190 C   0  0  0  0  0  2  0  0  0  0  0  0
  189.0510  176.4680  143.3130 C   0  0  0  0  0  2  0  0  0  0  0  0
  190.3070  175.9530  142.6330 C   0  0  0  0  0  2  0  0  0  0  0  0
  191.3470  175.5800  143.6740 C   0  0  0  0  0  2  0  0  0  0  0  0
  191.5930  176.6980  144.5740 N   0  0  0  0  0  2  0  0  0  0  0  0
  192.1330  174.8220  145.6450 O   0  0  0  0  0  1  0  0  0  0  0  0
  192.1390  176.1720  145.7590 N   0  0  0  0  0  0  0  0  0  0  0  0
  191.2760  176.5300  146.8930 C   0  0  1  0  0  3  0  0  0  0  0  0
  192.0380  176.9450  147.9890 O   0  0  0  0  0  1  0  0  0  0  0  0
  190.1640  177.5360  146.5490 C   0  0  0  0  0  2  0  0  0  0  0  0
  188.7860  177.0960  147.0260 C   0  0  0  0  0  2  0  0  0  0  0  0
  188.4660  177.7380  148.3360 C   0  0  0  0  0  0  0  0  0  0  0  0
  187.3930  177.4490  148.9320 O   0  0  0  0  0  1  0  0  0  0  0  0
  189.3410  178.6540  148.9050 O   0  0  0  0  0  0  0  0  0  0  0  0
  188.0960  178.3590  137.6370 C   0  0  0  0  0  2  0  0  0  0  0  0
  188.5420  176.4460  136.0730 C   0  0  0  0  0  0  0  0  0  0  0  0
  191.1670  174.3580  137.2120 C   0  0  0  0  0  1  0  0  0  0  0  0
  189.8840  176.3360  136.5450 N   0  0  0  0  0  0  0  0  0  0  0  0
  190.9880  176.7150  137.4730 C   0  0  0  0  0  2  0  0  0  0  0  0
  191.2440  175.7210  136.5500 C   0  0  1  0  0  3  0  0  0  0  0  0
  188.1520  175.7150  135.1230 O   0  0  0  0  0  0  0  0  0  0  0  0
  187.6340  177.3710  136.6750 N   0  0  0  0  0  2  0  0  0  0  0  0
  1  9  1  0  0  0  0
  1 14  2  0  0  0  0
  3  5  2  0  0  0  0
  5 14  1  0  0  0  0
  5 17  1  0  0  0  0
  6  4  1  0  0  0  0
  7 15  1  0  0  0  0
  7  6  2  0  0  0  0
  8  2  1  0  0  0  0
  8  9  1  0  0  0  0
  9 10  2  0  0  0  0
 10 29  1  0  0  0  0
 10 15  1  0  0  0  0
 11 12  1  0  0  0  0
 11 16  2  0  0  0  0
 12  8  2  0  0  0  0
 13 18  2  0  0  0  0
 14  7  1  0  0  0  0
 16  1  1  0  0  0  0
 17 19  2  0  0  0  0
 18 16  1  0  0  0  0
 18  3  1  0  0  0  0
 19  6  1  0  0  0  0
 20 22  1  0  0  0  0
 21 25  1  0  0  0  0
 22 13  1  6  0  0  0
 23 20  1  0  0  0  0
 24 22  1  0  0  0  0
 25 24  1  0  0  0  0
 25 23  1  0  0  0  0
 27 26  1  0  0  0  0
 27 17  1  0  0  0  0
 27 28  1  1  0  0  0
 29 30  1  0  0  0  0
 31 30  1  0  0  0  0
 31 32  1  0  0  0  0
 32 33  1  0  0  0  0
 33 35  1  0  0  0  0
 34 35  1  0  0  0  0
 35 36  1  0  0  0  0
 36 37  1  1  0  0  0
 38 36  1  0  0  0  0
 38 39  1  0  0  0  0
 39 40  1  0  0  0  0
 40 42  2  0  0  0  0
 40 41  1  0  0  0  0
 43 12  1  0  0  0  0
 44 46  1  0  0  0  0
 44 50  1  0  0  0  0
 46 48  1  0  0  0  0
 46 47  1  0  0  0  0
 48 45  1  1  0  0  0
 48 47  1  0  0  0  0
 49 44  2  0  0  0  0
 50 43  1  0  0  0  0
M  END
>  <MODEL>
1

>  <REMARK>
 VINA RESULT:      -9.1      0.000      0.000
  Name = 
  14 active torsions:
  status: ('A' for Active; 'I' for Inactive)
    1  A    between atoms: C_16  and  C_17
    2  A    between atoms: C_16  and  C_24
    3  A    between atoms: C_17  and  C_49
    4  A    between atoms: C_18  and  C_31
    5  A    between atoms: C_18  and  C_34
    6  A    between atoms: N_19  and  C_23
    7  A    between atoms: N_19  and  N_37
    8  A    between atoms: C_23  and  C_49
    9  A    between atoms: C_25  and  C_46
   10  A    between atoms: C_26  and  C_29
   11  A    between atoms: C_26  and  N_47
   12  A    between atoms: C_28  and  C_34
   13  A    between atoms: C_28  and  N_37
   14  A    between atoms: N_30  and  C_32
                            x       y       z     vdW  Elec       q    Type
                         _______ _______ _______ _____ _____    ______ ____

>  <TORSDO>
F 14

$$$$
=
 OpenBabel11042413263D

 50 55  0  0  1  0  0  0  0  0999 V2000
  184.3570  178.5770  140.8290 C   0  0  0  0  0  0  0  0  0  0  0  0
  187.9180  178.0500  139.8740 O   0  0  0  0  0  1  0  0  0  0  0  0
  181.6120  179.0070  140.5240 C   0  0  0  0  0  3  0  0  0  0  0  0
  183.9490  178.7250  145.7230 C   0  0  0  0  0  1  0  0  0  0  0  0
  182.1770  178.9390  141.8030 C   0  0  0  0  0  0  0  0  0  0  0  0
  183.3570  178.8010  144.3560 C   0  0  0  0  0  0  0  0  0  0  0  0
  184.1540  178.6300  143.2120 C   0  0  0  0  0  0  0  0  0  0  0  0
  186.5450  178.2640  139.8060 C   0  0  0  0  0  0  0  0  0  0  0  0
  185.7500  178.3620  140.9720 C   0  0  0  0  0  0  0  0  0  0  0  0
  186.2730  178.2690  142.2900 C   0  0  0  0  0  0  0  0  0  0  0  0
  184.6000  178.5700  138.4450 N   0  0  0  0  0  0  0  0  0  0  0  0
  185.9420  178.3920  138.5500 C   0  0  0  0  0  0  0  0  0  0  0  0
  181.8850  178.8850  138.1860 N   0  0  0  0  0  0  0  0  0  0  0  0
  183.5690  178.7070  141.9300 C   0  0  0  0  0  0  0  0  0  0  0  0
  185.4590  178.4070  143.3330 O   0  0  0  0  0  0  0  0  0  0  0  0
  183.7930  178.6650  139.5350 C   0  0  0  0  0  0  0  0  0  0  0  0
  181.3860  179.1080  142.9600 C   0  0  0  0  0  0  0  0  0  0  0  0
  182.4090  178.8550  139.3790 C   0  0  0  0  0  0  0  0  0  0  0  0
  181.9900  179.0440  144.2250 C   0  0  0  0  0  3  0  0  0  0  0  0
  180.1230  180.4220  137.9580 O   0  0  0  0  0  0  0  0  0  0  0  0
  179.4980  179.7370  134.6040 C   0  0  0  0  0  1  0  0  0  0  0  0
  180.4620  179.0550  137.8990 C   0  0  1  0  0  3  0  0  0  0  0  0
  179.5090  180.7310  136.7250 C   0  0  0  0  0  2  0  0  0  0  0  0
  180.1410  178.5660  136.5100 C   0  0  0  0  0  2  0  0  0  0  0  0
  179.1780  179.5080  136.0050 N   0  0  0  0  0  0  0  0  0  0  0  0
  179.7080  180.7620  142.6470 O   0  0  0  0  0  1  0  0  0  0  0  0
  179.9130  179.3970  142.8540 C   0  0  2  0  0  3  0  0  0  0  0  0
  179.1680  178.9460  144.0960 C   0  0  0  0  0  1  0  0  0  0  0  0
  187.7230  178.0220  142.5700 C   0  0  0  0  0  2  0  0  0  0  0  0
  187.9160  176.6810  143.2470 C   0  0  0  0  0  2  0  0  0  0  0  0
  187.8690  176.8610  144.7540 C   0  0  0  0  0  2  0  0  0  0  0  0
  188.3830  178.2390  145.1310 C   0  0  0  0  0  2  0  0  0  0  0  0
  189.3860  178.1390  146.1830 N   0  0  0  0  0  2  0  0  0  0  0  0
  189.9730  176.3290  147.3390 O   0  0  0  0  0  1  0  0  0  0  0  0
  189.9650  176.8610  146.0930 N   0  0  0  0  0  0  0  0  0  0  0  0
  191.3600  176.9880  145.6520 C   0  0  1  0  0  3  0  0  0  0  0  0
  192.2250  176.3310  146.5320 O   0  0  0  0  0  1  0  0  0  0  0  0
  191.6020  176.5730  144.1900 C   0  0  0  0  0  2  0  0  0  0  0  0
  191.4340  177.7220  143.2030 C   0  0  0  0  0  2  0  0  0  0  0  0
  191.4470  177.2020  141.8020 C   0  0  0  0  0  0  0  0  0  0  0  0
  192.2660  177.6720  140.9670 O   0  0  0  0  0  0  0  0  0  0  0  0
  190.5630  176.2060  141.4110 O   0  0  0  0  0  1  0  0  0  0  0  0
  186.7730  178.3340  137.3140 C   0  0  0  0  0  2  0  0  0  0  0  0
  187.6630  176.2770  136.1800 C   0  0  0  0  0  0  0  0  0  0  0  0
  190.7330  175.1920  137.5750 C   0  0  0  0  0  1  0  0  0  0  0  0
  188.9950  176.6010  136.5760 N   0  0  0  0  0  0  0  0  0  0  0  0
  189.9800  177.4340  137.3260 C   0  0  0  0  0  2  0  0  0  0  0  0
  190.4650  176.3470  136.6270 C   0  0  1  0  0  3  0  0  0  0  0  0
  187.4570  175.2780  135.4400 O   0  0  0  0  0  0  0  0  0  0  0  0
  186.5600  177.0720  136.6240 N   0  0  0  0  0  2  0  0  0  0  0  0
  1  9  1  0  0  0  0
  1 14  2  0  0  0  0
  3  5  2  0  0  0  0
  5 14  1  0  0  0  0
  5 17  1  0  0  0  0
  6  4  1  0  0  0  0
  7 15  1  0  0  0  0
  7  6  2  0  0  0  0
  8  2  1  0  0  0  0
  8  9  1  0  0  0  0
  9 10  2  0  0  0  0
 10 29  1  0  0  0  0
 10 15  1  0  0  0  0
 11 12  1  0  0  0  0
 11 16  2  0  0  0  0
 12  8  2  0  0  0  0
 13 18  2  0  0  0  0
 14  7  1  0  0  0  0
 16  1  1  0  0  0  0
 17 19  2  0  0  0  0
 18 16  1  0  0  0  0
 18  3  1  0  0  0  0
 19  6  1  0  0  0  0
 21 25  1  0  0  0  0
 22 20  1  0  0  0  0
 22 13  1  6  0  0  0
 23 20  1  0  0  0  0
 24 22  1  0  0  0  0
 25 24  1  0  0  0  0
 25 23  1  0  0  0  0
 26 27  1  0  0  0  0
 27 17  1  0  0  0  0
 27 28  1  1  0  0  0
 29 30  1  0  0  0  0
 30 31  1  0  0  0  0
 31 32  1  0  0  0  0
 32 33  1  0  0  0  0
 35 33  1  0  0  0  0
 35 34  1  0  0  0  0
 36 35  1  0  0  0  0
 36 37  1  1  0  0  0
 38 36  1  0  0  0  0
 39 38  1  0  0  0  0
 40 39  1  0  0  0  0
 41 40  2  0  0  0  0
 42 40  1  0  0  0  0
 43 12  1  0  0  0  0
 44 46  1  0  0  0  0
 44 50  1  0  0  0  0
 46 48  1  0  0  0  0
 46 47  1  0  0  0  0
 48 47  1  0  0  0  0
 48 45  1  1  0  0  0
 49 44  2  0  0  0  0
 50 43  1  0  0  0  0
M  END
>  <MODEL>
2

>  <REMARK>
 VINA RESULT:      -8.4      1.447      2.624
  Name = 
  14 active torsions:
  status: ('A' for Active; 'I' for Inactive)
    1  A    between atoms: C_16  and  C_17
    2  A    between atoms: C_16  and  C_24
    3  A    between atoms: C_17  and  C_49
    4  A    between atoms: C_18  and  C_31
    5  A    between atoms: C_18  and  C_34
    6  A    between atoms: N_19  and  C_23
    7  A    between atoms: N_19  and  N_37
    8  A    between atoms: C_23  and  C_49
    9  A    between atoms: C_25  and  C_46
   10  A    between atoms: C_26  and  C_29
   11  A    between atoms: C_26  and  N_47
   12  A    between atoms: C_28  and  C_34
   13  A    between atoms: C_28  and  N_37
   14  A    between atoms: N_30  and  C_32
                            x       y       z     vdW  Elec       q    Type
                         _______ _______ _______ _____ _____    ______ ____

>  <TORSDO>
F 14

$$$$
=
 OpenBabel11042413263D

 50 55  0  0  1  0  0  0  0  0999 V2000
  186.6940  178.3120  142.0630 C   0  0  0  0  0  0  0  0  0  0  0  0
  183.2970  179.5460  141.1630 O   0  0  0  0  0  1  0  0  0  0  0  0
  189.3010  177.3640  141.7140 C   0  0  0  0  0  3  0  0  0  0  0  0
  187.1010  177.9610  146.9470 C   0  0  0  0  0  1  0  0  0  0  0  0
  188.7690  177.5080  143.0020 C   0  0  0  0  0  0  0  0  0  0  0  0
  187.6570  177.8070  145.5710 C   0  0  0  0  0  0  0  0  0  0  0  0
  186.9000  178.1590  144.4410 C   0  0  0  0  0  0  0  0  0  0  0  0
  184.6020  179.0710  141.0740 C   0  0  0  0  0  0  0  0  0  0  0  0
  185.3710  178.7900  142.2280 C   0  0  0  0  0  0  0  0  0  0  0  0
  184.8850  178.9480  143.5540 C   0  0  0  0  0  0  0  0  0  0  0  0
  186.4400  178.4270  139.6830 N   0  0  0  0  0  0  0  0  0  0  0  0
  185.1590  178.8610  139.8080 C   0  0  0  0  0  0  0  0  0  0  0  0
  189.0400  177.5970  139.3840 N   0  0  0  0  0  0  0  0  0  0  0  0
  187.4500  178.0030  143.1500 C   0  0  0  0  0  0  0  0  0  0  0  0
  185.6640  178.6280  144.5830 O   0  0  0  0  0  0  0  0  0  0  0  0
  187.2210  178.1490  140.7610 C   0  0  0  0  0  0  0  0  0  0  0  0
  189.5200  177.1590  144.1440 C   0  0  0  0  0  0  0  0  0  0  0  0
  188.5410  177.6980  140.5830 C   0  0  0  0  0  0  0  0  0  0  0  0
  188.9500  177.3060  145.4180 C   0  0  0  0  0  3  0  0  0  0  0  0
  190.5260  175.7790  139.3180 O   0  0  0  0  0  0  0  0  0  0  0  0
  191.0590  175.8910  135.8810 C   0  0  0  0  0  1  0  0  0  0  0  0
  190.4000  177.1610  139.0760 C   0  0  1  0  0  3  0  0  0  0  0  0
  191.0130  175.2090  138.1220 C   0  0  0  0  0  2  0  0  0  0  0  0
  190.7150  177.3990  137.6210 C   0  0  0  0  0  2  0  0  0  0  0  0
  191.4890  176.2530  137.2240 N   0  0  0  0  0  0  0  0  0  0  0  0
  190.8510  175.3120  143.4600 O   0  0  0  0  0  1  0  0  0  0  0  0
  190.9090  176.5920  144.0140 C   0  0  2  0  0  3  0  0  0  0  0  0
  191.6160  176.5420  145.3540 C   0  0  0  0  0  1  0  0  0  0  0  0
  183.5130  179.4660  143.8570 C   0  0  0  0  0  2  0  0  0  0  0  0
  182.5360  178.3210  144.0270 C   0  0  0  0  0  2  0  0  0  0  0  0
  181.1260  178.8710  144.1580 C   0  0  0  0  0  2  0  0  0  0  0  0
  180.1190  177.8480  143.6640 C   0  0  0  0  0  2  0  0  0  0  0  0
  179.0420  178.5030  142.9350 N   0  0  0  0  0  2  0  0  0  0  0  0
  179.2580  176.5770  141.8390 O   0  0  0  0  0  1  0  0  0  0  0  0
  178.9510  177.8860  141.6740 N   0  0  0  0  0  0  0  0  0  0  0  0
  179.9530  178.4700  140.7730 C   0  0  1  0  0  3  0  0  0  0  0  0
  180.6210  177.4740  140.0540 O   0  0  0  0  0  1  0  0  0  0  0  0
  179.4080  179.5780  139.8540 C   0  0  0  0  0  2  0  0  0  0  0  0
  180.2330  180.8580  139.8980 C   0  0  0  0  0  2  0  0  0  0  0  0
  181.0290  181.0000  138.6430 C   0  0  0  0  0  0  0  0  0  0  0  0
  181.7050  182.0450  138.4440 O   0  0  0  0  0  1  0  0  0  0  0  0
  181.0290  179.9910  137.6890 O   0  0  0  0  0  0  0  0  0  0  0  0
  184.3470  179.1110  138.5840 C   0  0  0  0  0  2  0  0  0  0  0  0
  184.1380  177.0940  137.1010 C   0  0  0  0  0  0  0  0  0  0  0  0
  187.2900  175.8400  136.0820 C   0  0  0  0  0  1  0  0  0  0  0  0
  185.4150  177.3550  136.5200 N   0  0  0  0  0  0  0  0  0  0  0  0
  186.6970  178.1140  136.4440 C   0  0  0  0  0  2  0  0  0  0  0  0
  186.5310  177.0530  135.5760 C   0  0  1  0  0  3  0  0  0  0  0  0
  183.4350  176.1450  136.6630 O   0  0  0  0  0  0  0  0  0  0  0  0
  183.6560  177.8960  138.1820 N   0  0  0  0  0  2  0  0  0  0  0  0
  1  9  1  0  0  0  0
  1 14  2  0  0  0  0
  3  5  2  0  0  0  0
  5 14  1  0  0  0  0
  5 17  1  0  0  0  0
  6  4  1  0  0  0  0
  7 15  1  0  0  0  0
  7  6  2  0  0  0  0
  8  2  1  0  0  0  0
  8  9  1  0  0  0  0
  9 10  2  0  0  0  0
 10 29  1  0  0  0  0
 10 15  1  0  0  0  0
 11 12  1  0  0  0  0
 11 16  2  0  0  0  0
 12  8  2  0  0  0  0
 13 18  2  0  0  0  0
 14  7  1  0  0  0  0
 16  1  1  0  0  0  0
 17 19  2  0  0  0  0
 18 16  1  0  0  0  0
 18  3  1  0  0  0  0
 19  6  1  0  0  0  0
 21 25  1  0  0  0  0
 22 20  1  0  0  0  0
 22 13  1  6  0  0  0
 23 20  1  0  0  0  0
 24 22  1  0  0  0  0
 25 24  1  0  0  0  0
 25 23  1  0  0  0  0
 26 27  1  0  0  0  0
 27 17  1  0  0  0  0
 27 28  1  1  0  0  0
 29 30  1  0  0  0  0
 30 31  1  0  0  0  0
 32 31  1  0  0  0  0
 33 32  1  0  0  0  0
 35 34  1  0  0  0  0
 35 33  1  0  0  0  0
 36 37  1  6  0  0  0
 36 35  1  0  0  0  0
 38 39  1  0  0  0  0
 38 36  1  0  0  0  0
 40 39  1  0  0  0  0
 41 40  1  0  0  0  0
 42 40  2  0  0  0  0
 43 12  1  0  0  0  0
 44 50  1  0  0  0  0
 46 44  1  0  0  0  0
 47 46  1  0  0  0  0
 48 45  1  1  0  0  0
 48 47  1  0  0  0  0
 48 46  1  0  0  0  0
 49 44  2  0  0  0  0
 50 43  1  0  0  0  0
M  END
>  <MODEL>
3

>  <REMARK>
 VINA RESULT:      -8.1      2.579      8.447
  Name = 
  14 active torsions:
  status: ('A' for Active; 'I' for Inactive)
    1  A    between atoms: C_16  and  C_17
    2  A    between atoms: C_16  and  C_24
    3  A    between atoms: C_17  and  C_49
    4  A    between atoms: C_18  and  C_31
    5  A    between atoms: C_18  and  C_34
    6  A    between atoms: N_19  and  C_23
    7  A    between atoms: N_19  and  N_37
    8  A    between atoms: C_23  and  C_49
    9  A    between atoms: C_25  and  C_46
   10  A    between atoms: C_26  and  C_29
   11  A    between atoms: C_26  and  N_47
   12  A    between atoms: C_28  and  C_34
   13  A    between atoms: C_28  and  N_37
   14  A    between atoms: N_30  and  C_32
                            x       y       z     vdW  Elec       q    Type
                         _______ _______ _______ _____ _____    ______ ____

>  <TORSDO>
F 14

$$$$
=
 OpenBabel11042413263D

 50 55  0  0  1  0  0  0  0  0999 V2000
  187.1880  178.2290  142.2140 C   0  0  0  0  0  0  0  0  0  0  0  0
  185.8670  178.6010  138.7510 O   0  0  0  0  0  1  0  0  0  0  0  0
  189.0290  177.7710  144.2670 C   0  0  0  0  0  3  0  0  0  0  0  0
  183.5370  178.7720  145.4570 C   0  0  0  0  0  1  0  0  0  0  0  0
  187.6830  178.0160  144.5680 C   0  0  0  0  0  0  0  0  0  0  0  0
  184.9680  178.5070  145.1260 C   0  0  0  0  0  0  0  0  0  0  0  0
  185.4150  178.5120  143.7950 C   0  0  1  0  0  3  0  0  0  0  0  0
  186.7210  178.3860  139.8280 C   0  0  0  0  0  0  0  0  0  0  0  0
  186.2620  178.4560  141.1650 C   0  0  0  0  0  0  0  0  0  0  0  0
  184.9150  178.7310  141.5210 C   0  0  0  0  0  0  0  0  0  0  0  0
  188.9320  177.8990  140.6040 N   0  0  0  0  0  0  0  0  0  0  0  0
  188.0640  178.0850  139.5770 C   0  0  0  0  0  0  0  0  0  0  0  0
  190.7320  177.5620  142.6500 N   0  0  0  0  0  2  0  0  0  0  0  0
  186.7740  178.2580  143.5090 C   0  0  0  0  0  0  0  0  0  0  0  0
  184.5610  178.7450  142.8030 O   0  0  0  0  0  0  0  0  0  0  0  0
  188.5420  177.9620  141.9050 C   0  0  0  0  0  0  0  0  0  0  0  0
  187.2230  178.0150  145.9020 C   0  0  0  0  0  0  0  0  0  0  0  0
  189.4750  177.7580  142.9360 C   0  0  0  0  0  0  0  0  0  0  0  0
  185.8650  178.2540  146.1640 C   0  0  0  0  0  3  0  0  0  0  0  0
  191.6790  178.3140  144.6640 O   0  0  0  0  0  0  0  0  0  0  0  0
  191.1140  175.3700  146.4320 C   0  0  0  0  0  1  0  0  0  0  0  0
  191.7930  177.3600  143.6330 C   0  0  1  0  0  3  0  0  0  0  0  0
  191.6260  177.5870  145.8730 C   0  0  0  0  0  2  0  0  0  0  0  0
  191.6780  175.9940  144.2620 C   0  0  0  0  0  2  0  0  0  0  0  0
  192.0140  176.2000  145.6450 N   0  0  0  0  0  0  0  0  0  0  0  0
  188.1020  176.3640  147.3690 O   0  0  0  0  0  1  0  0  0  0  0  0
  188.1590  177.7210  147.0430 C   0  0  2  0  0  3  0  0  0  0  0  0
  187.8270  178.5580  148.2630 C   0  0  0  0  0  1  0  0  0  0  0  0
  183.8500  179.0090  140.5050 C   0  0  0  0  0  2  0  0  0  0  0  0
  182.8180  177.9010  140.4950 C   0  0  0  0  0  2  0  0  0  0  0  0
  181.4250  178.5040  140.5380 C   0  0  0  0  0  2  0  0  0  0  0  0
  181.0880  179.1360  139.1990 C   0  0  0  0  0  2  0  0  0  0  0  0
  180.8560  180.5660  139.3540 N   0  0  0  0  0  2  0  0  0  0  0  0
  179.4900  179.8130  137.7650 O   0  0  0  0  0  1  0  0  0  0  0  0
  179.8220  180.9220  138.4700 N   0  0  0  0  0  0  0  0  0  0  0  0
  180.3170  181.9260  137.5200 C   0  0  1  0  0  3  0  0  0  0  0  0
  180.6990  181.3280  136.3140 O   0  0  0  0  0  1  0  0  0  0  0  0
  179.3620  183.1120  137.2980 C   0  0  0  0  0  2  0  0  0  0  0  0
  179.9450  184.4460  137.7480 C   0  0  0  0  0  2  0  0  0  0  0  0
  181.1990  184.7400  136.9920 C   0  0  0  0  0  0  0  0  0  0  0  0
  182.3050  184.7690  137.5980 O   0  0  0  0  0  1  0  0  0  0  0  0
  181.1590  184.9840  135.6260 O   0  0  0  0  0  0  0  0  0  0  0  0
  188.5510  177.9650  138.1740 C   0  0  0  0  0  2  0  0  0  0  0  0
  189.5260  175.6910  137.7400 C   0  0  0  0  0  0  0  0  0  0  0  0
  187.7830  173.9420  135.2000 C   0  0  0  0  0  1  0  0  0  0  0  0
  188.2790  175.2240  137.2290 N   0  0  0  0  0  0  0  0  0  0  0  0
  186.8660  175.4410  136.8020 C   0  0  0  0  0  2  0  0  0  0  0  0
  187.3900  174.1730  136.6480 C   0  0  1  0  0  3  0  0  0  0  0  0
  190.4920  174.8910  137.8570 O   0  0  0  0  0  0  0  0  0  0  0  0
  189.6890  177.0620  138.1120 N   0  0  0  0  0  2  0  0  0  0  0  0
  1 14  2  0  0  0  0
  2  8  1  0  0  0  0
  3  5  1  0  0  0  0
  5 17  2  0  0  0  0
  6  4  1  0  0  0  0
  6 19  2  0  0  0  0
  7 15  1  6  0  0  0
  7  6  1  0  0  0  0
  8  9  1  0  0  0  0
  9 10  2  0  0  0  0
  9  1  1  0  0  0  0
 10 15  1  0  0  0  0
 11 16  2  0  0  0  0
 12  8  2  0  0  0  0
 12 11  1  0  0  0  0
 13 18  1  0  0  0  0
 14  7  1  0  0  0  0
 14  5  1  0  0  0  0
 16  1  1  0  0  0  0
 16 18  1  0  0  0  0
 17 19  1  0  0  0  0
 17 27  1  0  0  0  0
 18  3  2  0  0  0  0
 20 23  1  0  0  0  0
 22 13  1  6  0  0  0
 22 24  1  0  0  0  0
 22 20  1  0  0  0  0
 24 25  1  0  0  0  0
 25 23  1  0  0  0  0
 25 21  1  0  0  0  0
 27 26  1  0  0  0  0
 27 28  1  1  0  0  0
 29 10  1  0  0  0  0
 30 29  1  0  0  0  0
 30 31  1  0  0  0  0
 32 33  1  0  0  0  0
 32 31  1  0  0  0  0
 34 35  1  0  0  0  0
 35 33  1  0  0  0  0
 36 37  1  6  0  0  0
 36 35  1  0  0  0  0
 38 36  1  0  0  0  0
 38 39  1  0  0  0  0
 40 41  1  0  0  0  0
 40 39  1  0  0  0  0
 42 40  2  0  0  0  0
 43 12  1  0  0  0  0
 44 49  2  0  0  0  0
 44 50  1  0  0  0  0
 46 44  1  0  0  0  0
 47 46  1  0  0  0  0
 48 45  1  6  0  0  0
 48 47  1  0  0  0  0
 48 46  1  0  0  0  0
 50 43  1  0  0  0  0
M  END
>  <MODEL>
4

>  <REMARK>
 VINA RESULT:      -7.6      2.252      9.424
  Name = 
  14 active torsions:
  status: ('A' for Active; 'I' for Inactive)
    1  A    between atoms: C_16  and  C_17
    2  A    between atoms: C_16  and  C_24
    3  A    between atoms: C_17  and  C_49
    4  A    between atoms: C_18  and  C_31
    5  A    between atoms: C_18  and  C_34
    6  A    between atoms: N_19  and  C_23
    7  A    between atoms: N_19  and  N_37
    8  A    between atoms: C_23  and  C_49
    9  A    between atoms: C_25  and  C_46
   10  A    between atoms: C_26  and  C_29
   11  A    between atoms: C_26  and  N_47
   12  A    between atoms: C_28  and  C_34
   13  A    between atoms: C_28  and  N_37
   14  A    between atoms: N_30  and  C_32
                            x       y       z     vdW  Elec       q    Type
                         _______ _______ _______ _____ _____    ______ ____

>  <TORSDO>
F 14

$$$$
=
 OpenBabel11042413263D

 50 55  0  0  1  0  0  0  0  0999 V2000
  187.0640  178.1680  140.8660 C   0  0  0  0  0  0  0  0  0  0  0  0
  189.6430  177.3760  138.2980 O   0  0  0  0  0  1  0  0  0  0  0  0
  184.6260  179.0190  141.9370 C   0  0  0  0  0  3  0  0  0  0  0  0
  188.8770  177.3460  145.3580 C   0  0  0  0  0  1  0  0  0  0  0  0
  185.6640  178.6100  142.7830 C   0  0  0  0  0  0  0  0  0  0  0  0
  187.7790  177.7840  144.4480 C   0  0  0  0  0  0  0  0  0  0  0  0
  187.9380  177.7500  143.0530 C   0  0  0  0  0  0  0  0  0  0  0  0
  188.4600  177.7820  138.9080 C   0  0  0  0  0  0  0  0  0  0  0  0
  188.2970  177.7410  140.3130 C   0  0  0  0  0  0  0  0  0  0  0  0
  189.3090  177.3070  141.2100 C   0  0  0  0  0  0  0  0  0  0  0  0
  186.2330  178.6250  138.6650 N   0  0  0  0  0  0  0  0  0  0  0  0
  187.4130  178.2490  138.1070 C   0  0  0  0  0  0  0  0  0  0  0  0
  183.8170  179.3510  139.7480 N   0  0  0  0  0  0  0  0  0  0  0  0
  186.8840  178.1710  142.2140 C   0  0  0  0  0  0  0  0  0  0  0  0
  189.0830  177.3320  142.5200 O   0  0  0  0  0  0  0  0  0  0  0  0
  186.0250  178.5990  140.0090 C   0  0  0  0  0  0  0  0  0  0  0  0
  185.5140  178.6390  144.1860 C   0  0  0  0  0  0  0  0  0  0  0  0
  184.7890  179.0020  140.5430 C   0  0  0  0  0  0  0  0  0  0  0  0
  186.5800  178.2310  145.0040 C   0  0  0  0  0  3  0  0  0  0  0  0
  181.8870  180.5690  139.1920 O   0  0  0  0  0  0  0  0  0  0  0  0
  179.7340  177.8360  139.2100 C   0  0  0  0  0  1  0  0  0  0  0  0
  182.4860  179.7670  140.1840 C   0  0  1  0  0  3  0  0  0  0  0  0
  180.6420  179.9720  138.8970 C   0  0  0  0  0  2  0  0  0  0  0  0
  181.5990  178.5670  140.3950 C   0  0  0  0  0  2  0  0  0  0  0  0
  180.3090  178.9760  139.9070 N   0  0  0  0  0  0  0  0  0  0  0  0
  184.1910  178.7480  146.1580 O   0  0  0  0  0  1  0  0  0  0  0  0
  184.2430  179.1390  144.8190 C   0  0  2  0  0  3  0  0  0  0  0  0
  183.0190  178.6270  144.0850 C   0  0  0  0  0  1  0  0  0  0  0  0
  190.6440  176.8130  140.7460 C   0  0  0  0  0  2  0  0  0  0  0  0
  191.7620  177.5600  141.4420 C   0  0  0  0  0  2  0  0  0  0  0  0
  193.0190  177.5030  140.5910 C   0  0  0  0  0  2  0  0  0  0  0  0
  192.7050  176.8900  139.2380 C   0  0  0  0  0  2  0  0  0  0  0  0
  193.8860  176.2410  138.6850 N   0  0  0  0  0  2  0  0  0  0  0  0
  192.1540  175.2610  137.6860 O   0  0  0  0  0  1  0  0  0  0  0  0
  193.4770  175.5210  137.5490 N   0  0  0  0  0  0  0  0  0  0  0  0
  194.1840  174.2340  137.5070 C   0  0  1  0  0  3  0  0  0  0  0  0
  194.8620  174.0750  136.2950 O   0  0  0  0  0  1  0  0  0  0  0  0
  195.1000  173.9760  138.7170 C   0  0  0  0  0  2  0  0  0  0  0  0
  196.5770  173.9050  138.3500 C   0  0  0  0  0  2  0  0  0  0  0  0
  197.3570  174.8840  139.1640 C   0  0  0  0  0  0  0  0  0  0  0  0
  196.8970  175.2920  140.2640 O   0  0  0  0  0  1  0  0  0  0  0  0
  198.5860  175.3520  138.7180 O   0  0  0  0  0  0  0  0  0  0  0  0
  187.5860  178.3390  136.6300 C   0  0  0  0  0  2  0  0  0  0  0  0
  185.9910  176.7970  135.4520 C   0  0  0  0  0  0  0  0  0  0  0  0
  186.1910  173.4730  136.6620 C   0  0  0  0  0  1  0  0  0  0  0  0
  186.8070  175.6690  135.7650 N   0  0  0  0  0  0  0  0  0  0  0  0
  187.9710  175.0350  136.4500 C   0  0  0  0  0  2  0  0  0  0  0  0
  187.1310  174.2120  135.7270 C   0  0  1  0  0  3  0  0  0  0  0  0
  184.9690  176.6470  134.7300 O   0  0  0  0  0  0  0  0  0  0  0  0
  186.3190  178.0920  135.9590 N   0  0  0  0  0  2  0  0  0  0  0  0
  1 14  2  0  0  0  0
  2  8  1  0  0  0  0
  3  5  2  0  0  0  0
  5 17  1  0  0  0  0
  6 19  1  0  0  0  0
  6  4  1  0  0  0  0
  7  6  2  0  0  0  0
  8  9  1  0  0  0  0
  9  1  1  0  0  0  0
  9 10  2  0  0  0  0
 10 15  1  0  0  0  0
 11 16  2  0  0  0  0
 12 11  1  0  0  0  0
 12  8  2  0  0  0  0
 13 18  2  0  0  0  0
 14  5  1  0  0  0  0
 14  7  1  0  0  0  0
 15  7  1  0  0  0  0
 16 18  1  0  0  0  0
 16  1  1  0  0  0  0
 17 27  1  0  0  0  0
 17 19  2  0  0  0  0
 18  3  1  0  0  0  0
 20 22  1  0  0  0  0
 21 25  1  0  0  0  0
 22 13  1  6  0  0  0
 22 24  1  0  0  0  0
 23 20  1  0  0  0  0
 23 25  1  0  0  0  0
 25 24  1  0  0  0  0
 27 28  1  6  0  0  0
 27 26  1  0  0  0  0
 29 10  1  0  0  0  0
 29 30  1  0  0  0  0
 31 30  1  0  0  0  0
 32 31  1  0  0  0  0
 33 32  1  0  0  0  0
 35 34  1  0  0  0  0
 35 33  1  0  0  0  0
 36 37  1  6  0  0  0
 36 35  1  0  0  0  0
 36 38  1  0  0  0  0
 39 38  1  0  0  0  0
 39 40  1  0  0  0  0
 40 41  1  0  0  0  0
 42 40  2  0  0  0  0
 43 12  1  0  0  0  0
 44 46  1  0  0  0  0
 44 50  1  0  0  0  0
 46 47  1  0  0  0  0
 48 46  1  0  0  0  0
 48 47  1  0  0  0  0
 48 45  1  1  0  0  0
 49 44  2  0  0  0  0
 50 43  1  0  0  0  0
M  END
>  <MODEL>
5

>  <REMARK>
 VINA RESULT:      -7.6      3.172      5.644
  Name = 
  14 active torsions:
  status: ('A' for Active; 'I' for Inactive)
    1  A    between atoms: C_16  and  C_17
    2  A    between atoms: C_16  and  C_24
    3  A    between atoms: C_17  and  C_49
    4  A    between atoms: C_18  and  C_31
    5  A    between atoms: C_18  and  C_34
    6  A    between atoms: N_19  and  C_23
    7  A    between atoms: N_19  and  N_37
    8  A    between atoms: C_23  and  C_49
    9  A    between atoms: C_25  and  C_46
   10  A    between atoms: C_26  and  C_29
   11  A    between atoms: C_26  and  N_47
   12  A    between atoms: C_28  and  C_34
   13  A    between atoms: C_28  and  N_37
   14  A    between atoms: N_30  and  C_32
                            x       y       z     vdW  Elec       q    Type
                         _______ _______ _______ _____ _____    ______ ____

>  <TORSDO>
F 14

$$$$
=
 OpenBabel11042413263D

 50 55  0  0  1  0  0  0  0  0999 V2000
  186.4670  178.3710  142.1790 C   0  0  0  0  0  0  0  0  0  0  0  0
  183.0090  179.5850  141.5170 O   0  0  0  0  0  1  0  0  0  0  0  0
  189.0610  177.4730  141.6500 C   0  0  0  0  0  3  0  0  0  0  0  0
  187.1590  177.8630  147.0170 C   0  0  0  0  0  1  0  0  0  0  0  0
  188.6020  177.5660  142.9690 C   0  0  0  0  0  0  0  0  0  0  0  0
  187.6370  177.7630  145.6060 C   0  0  0  0  0  0  0  0  0  0  0  0
  186.8120  178.1410  144.5350 C   0  0  0  0  0  0  0  0  0  0  0  0
  184.3120  179.1330  141.3370 C   0  0  0  0  0  0  0  0  0  0  0  0
  185.1500  178.8240  142.4350 C   0  0  0  0  0  0  0  0  0  0  0  0
  184.7390  178.9310  143.7910 C   0  0  0  0  0  0  0  0  0  0  0  0
  186.0750  178.5620  139.8220 N   0  0  0  0  0  0  0  0  0  0  0  0
  184.7980  178.9730  140.0360 C   0  0  0  0  0  0  0  0  0  0  0  0
  188.6640  177.7800  139.3470 N   0  0  0  0  0  0  0  0  0  0  0  0
  187.2880  178.0360  143.2100 C   0  0  0  0  0  0  0  0  0  0  0  0
  185.5810  178.5880  144.7630 O   0  0  0  0  0  0  0  0  0  0  0  0
  186.9200  178.2600  140.8440 C   0  0  0  0  0  0  0  0  0  0  0  0
  189.4220  177.1890  144.0550 C   0  0  0  0  0  0  0  0  0  0  0  0
  188.2330  177.8330  140.5750 C   0  0  0  0  0  0  0  0  0  0  0  0
  188.9250  177.2860  145.3630 C   0  0  0  0  0  3  0  0  0  0  0  0
  190.1930  176.0030  139.2130 O   0  0  0  0  0  0  0  0  0  0  0  0
  190.4620  176.0380  135.7440 C   0  0  0  0  0  1  0  0  0  0  0  0
  190.0090  177.3740  138.9470 C   0  0  1  0  0  3  0  0  0  0  0  0
  190.6060  175.4150  137.9980 C   0  0  0  0  0  2  0  0  0  0  0  0
  190.2060  177.5810  137.4670 C   0  0  0  0  0  2  0  0  0  0  0  0
  190.9810  176.4480  137.0400 N   0  0  0  0  0  0  0  0  0  0  0  0
  190.7340  175.3460  143.3240 O   0  0  0  0  0  1  0  0  0  0  0  0
  190.8080  176.6470  143.8250 C   0  0  2  0  0  3  0  0  0  0  0  0
  191.6270  176.6610  145.1010 C   0  0  0  0  0  1  0  0  0  0  0  0
  183.3800  179.4180  144.1900 C   0  0  0  0  0  2  0  0  0  0  0  0
  182.4900  178.2580  144.5810 C   0  0  0  0  0  2  0  0  0  0  0  0
  181.3140  178.1740  143.6240 C   0  0  0  0  0  2  0  0  0  0  0  0
  180.0200  178.4720  144.3600 C   0  0  0  0  0  2  0  0  0  0  0  0
  179.0200  179.0010  143.4420 N   0  0  0  0  0  2  0  0  0  0  0  0
  179.5750  180.9090  142.4370 O   0  0  0  0  0  1  0  0  0  0  0  0
  179.7060  179.5630  142.3510 N   0  0  0  0  0  0  0  0  0  0  0  0
  179.0690  179.1310  141.1000 C   0  0  1  0  0  3  0  0  0  0  0  0
  179.3320  180.0340  140.0660 O   0  0  0  0  0  1  0  0  0  0  0  0
  179.3900  177.6810  140.6950 C   0  0  0  0  0  2  0  0  0  0  0  0
  180.7080  177.5450  139.9420 C   0  0  0  0  0  2  0  0  0  0  0  0
  181.0970  176.1070  139.8420 C   0  0  0  0  0  0  0  0  0  0  0  0
  180.2850  175.2110  140.2000 O   0  0  0  0  0  1  0  0  0  0  0  0
  182.3480  175.7460  139.3600 O   0  0  0  0  0  0  0  0  0  0  0  0
  183.9140  179.2520  138.8690 C   0  0  0  0  0  2  0  0  0  0  0  0
  182.0600  180.8280  138.2470 C   0  0  0  0  0  0  0  0  0  0  0  0
  179.2650  179.1420  136.8700 C   0  0  0  0  0  1  0  0  0  0  0  0
  181.5570  179.9020  137.2860 N   0  0  0  0  0  0  0  0  0  0  0  0
  181.5580  178.5690  136.6150 C   0  0  0  0  0  2  0  0  0  0  0  0
  180.5970  179.4780  136.2240 C   0  0  1  0  0  3  0  0  0  0  0  0
  181.5270  181.9650  138.3560 O   0  0  0  0  0  0  0  0  0  0  0  0
  183.1550  180.4720  139.0940 N   0  0  0  0  0  2  0  0  0  0  0  0
  1  9  1  0  0  0  0
  1 14  2  0  0  0  0
  3  5  2  0  0  0  0
  5 14  1  0  0  0  0
  5 17  1  0  0  0  0
  6  4  1  0  0  0  0
  7 15  1  0  0  0  0
  7  6  2  0  0  0  0
  8  2  1  0  0  0  0
  8  9  1  0  0  0  0
  9 10  2  0  0  0  0
 10 29  1  0  0  0  0
 10 15  1  0  0  0  0
 11 12  1  0  0  0  0
 11 16  2  0  0  0  0
 12  8  2  0  0  0  0
 13 18  2  0  0  0  0
 14  7  1  0  0  0  0
 16  1  1  0  0  0  0
 17 19  2  0  0  0  0
 18 16  1  0  0  0  0
 18  3  1  0  0  0  0
 19  6  1  0  0  0  0
 21 25  1  0  0  0  0
 22 20  1  0  0  0  0
 22 13  1  6  0  0  0
 23 20  1  0  0  0  0
 24 22  1  0  0  0  0
 25 24  1  0  0  0  0
 25 23  1  0  0  0  0
 26 27  1  0  0  0  0
 27 17  1  0  0  0  0
 27 28  1  1  0  0  0
 29 30  1  0  0  0  0
 31 32  1  0  0  0  0
 31 30  1  0  0  0  0
 33 32  1  0  0  0  0
 35 34  1  0  0  0  0
 35 33  1  0  0  0  0
 36 37  1  6  0  0  0
 36 35  1  0  0  0  0
 38 36  1  0  0  0  0
 39 38  1  0  0  0  0
 40 39  1  0  0  0  0
 40 41  1  0  0  0  0
 42 40  2  0  0  0  0
 43 50  1  0  0  0  0
 43 12  1  0  0  0  0
 44 49  2  0  0  0  0
 44 50  1  0  0  0  0
 46 44  1  0  0  0  0
 47 46  1  0  0  0  0
 48 47  1  0  0  0  0
 48 45  1  1  0  0  0
 48 46  1  0  0  0  0
M  END
>  <MODEL>
6

>  <REMARK>
 VINA RESULT:      -7.6      2.421      8.868
  Name = 
  14 active torsions:
  status: ('A' for Active; 'I' for Inactive)
    1  A    between atoms: C_16  and  C_17
    2  A    between atoms: C_16  and  C_24
    3  A    between atoms: C_17  and  C_49
    4  A    between atoms: C_18  and  C_31
    5  A    between atoms: C_18  and  C_34
    6  A    between atoms: N_19  and  C_23
    7  A    between atoms: N_19  and  N_37
    8  A    between atoms: C_23  and  C_49
    9  A    between atoms: C_25  and  C_46
   10  A    between atoms: C_26  and  C_29
   11  A    between atoms: C_26  and  N_47
   12  A    between atoms: C_28  and  C_34
   13  A    between atoms: C_28  and  N_37
   14  A    between atoms: N_30  and  C_32
                            x       y       z     vdW  Elec       q    Type
                         _______ _______ _______ _____ _____    ______ ____

>  <TORSDO>
F 14

$$$$
=
 OpenBabel11042413263D

 50 55  0  0  1  0  0  0  0  0999 V2000
  187.8550  177.7510  140.6600 C   0  0  0  0  0  0  0  0  0  0  0  0
  184.8720  178.9760  138.7970 O   0  0  0  0  0  1  0  0  0  0  0  0
  190.4050  176.6890  141.0920 C   0  0  0  0  0  3  0  0  0  0  0  0
  187.0020  177.9590  145.4940 C   0  0  0  0  0  1  0  0  0  0  0  0
  189.5760  176.9980  142.1780 C   0  0  0  0  0  0  0  0  0  0  0  0
  187.8750  177.6280  144.3300 C   0  0  0  0  0  0  0  0  0  0  0  0
  187.4490  177.8700  143.0150 C   0  0  0  0  0  0  0  0  0  0  0  0
  186.1270  178.4540  139.0940 C   0  0  0  0  0  0  0  0  0  0  0  0
  186.5640  178.2860  140.4300 C   0  0  0  0  0  0  0  0  0  0  0  0
  185.7710  178.6130  141.5630 C   0  0  0  0  0  0  0  0  0  0  0  0
  188.2140  177.5970  138.2960 N   0  0  0  0  0  0  0  0  0  0  0  0
  186.9710  178.0810  138.0430 C   0  0  0  0  0  0  0  0  0  0  0  0
  190.7520  176.6570  138.7610 N   0  0  0  0  0  0  0  0  0  0  0  0
  188.2940  177.5470  141.9310 C   0  0  0  0  0  0  0  0  0  0  0  0
  186.2470  178.3910  142.7850 O   0  0  0  0  0  0  0  0  0  0  0  0
  188.6810  177.4220  139.5610 C   0  0  0  0  0  0  0  0  0  0  0  0
  189.9950  176.7610  143.5050 C   0  0  0  0  0  0  0  0  0  0  0  0
  189.9740  176.9120  139.7750 C   0  0  0  0  0  0  0  0  0  0  0  0
  189.1330  177.0730  144.5670 C   0  0  0  0  0  3  0  0  0  0  0  0
  192.1510  174.7940  138.4660 O   0  0  0  0  0  0  0  0  0  0  0  0
  194.1390  176.2390  136.0030 C   0  0  0  0  0  1  0  0  0  0  0  0
  192.1170  176.1460  138.8590 C   0  0  1  0  0  3  0  0  0  0  0  0
  193.1260  174.7000  137.4500 C   0  0  0  0  0  2  0  0  0  0  0  0
  193.0350  176.9100  137.9390 C   0  0  0  0  0  2  0  0  0  0  0  0
  193.9270  175.9170  137.4060 N   0  0  0  0  0  0  0  0  0  0  0  0
  191.2770  174.7610  143.5850 O   0  0  0  0  0  1  0  0  0  0  0  0
  191.3350  176.1400  143.7940 C   0  0  2  0  0  3  0  0  0  0  0  0
  191.7850  176.4270  145.2130 C   0  0  0  0  0  1  0  0  0  0  0  0
  184.4000  179.2040  141.4490 C   0  0  0  0  0  2  0  0  0  0  0  0
  183.4560  178.5610  142.4430 C   0  0  0  0  0  2  0  0  0  0  0  0
  182.0210  178.8380  142.0340 C   0  0  0  0  0  2  0  0  0  0  0  0
  181.9500  179.1320  140.5460 C   0  0  0  0  0  2  0  0  0  0  0  0
  180.6090  179.5580  140.1720 N   0  0  0  0  0  2  0  0  0  0  0  0
  179.6120  181.1890  141.3140 O   0  0  0  0  0  1  0  0  0  0  0  0
  180.5430  180.9500  140.3590 N   0  0  0  0  0  0  0  0  0  0  0  0
  180.0830  181.5860  139.1170 C   0  0  1  0  0  3  0  0  0  0  0  0
  179.1600  182.6020  139.3870 O   0  0  0  0  0  1  0  0  0  0  0  0
  181.2170  182.0690  138.1960 C   0  0  0  0  0  2  0  0  0  0  0  0
  180.7150  182.7110  136.9080 C   0  0  0  0  0  2  0  0  0  0  0  0
  181.3520  184.0480  136.7190 C   0  0  0  0  0  0  0  0  0  0  0  0
  182.1920  184.4680  137.5600 O   0  0  0  0  0  1  0  0  0  0  0  0
  181.0260  184.8360  135.6230 O   0  0  0  0  0  0  0  0  0  0  0  0
  186.5080  178.2120  136.6330 C   0  0  0  0  0  2  0  0  0  0  0  0
  186.9970  176.0400  135.4710 C   0  0  0  0  0  0  0  0  0  0  0  0
  184.0450  174.2880  134.5940 C   0  0  0  0  0  1  0  0  0  0  0  0
  185.7380  175.5060  135.8800 N   0  0  0  0  0  0  0  0  0  0  0  0
  184.3970  175.6380  136.5190 C   0  0  0  0  0  2  0  0  0  0  0  0
  184.7150  174.4210  135.9500 C   0  0  1  0  0  3  0  0  0  0  0  0
  187.8120  175.3080  134.8470 O   0  0  0  0  0  0  0  0  0  0  0  0
  187.3340  177.3990  135.7540 N   0  0  0  0  0  2  0  0  0  0  0  0
  1 14  2  0  0  0  0
  2  8  1  0  0  0  0
  3  5  2  0  0  0  0
  5 17  1  0  0  0  0
  6 19  1  0  0  0  0
  6  4  1  0  0  0  0
  7  6  2  0  0  0  0
  8  9  1  0  0  0  0
  9  1  1  0  0  0  0
  9 10  2  0  0  0  0
 10 15  1  0  0  0  0
 11 16  2  0  0  0  0
 12 11  1  0  0  0  0
 12  8  2  0  0  0  0
 13 18  2  0  0  0  0
 14  5  1  0  0  0  0
 14  7  1  0  0  0  0
 15  7  1  0  0  0  0
 16 18  1  0  0  0  0
 16  1  1  0  0  0  0
 17 27  1  0  0  0  0
 17 19  2  0  0  0  0
 18  3  1  0  0  0  0
 20 22  1  0  0  0  0
 21 25  1  0  0  0  0
 22 13  1  6  0  0  0
 23 20  1  0  0  0  0
 24 22  1  0  0  0  0
 25 23  1  0  0  0  0
 25 24  1  0  0  0  0
 26 27  1  0  0  0  0
 27 28  1  1  0  0  0
 29 10  1  0  0  0  0
 29 30  1  0  0  0  0
 31 30  1  0  0  0  0
 32 31  1  0  0  0  0
 33 35  1  0  0  0  0
 33 32  1  0  0  0  0
 35 34  1  0  0  0  0
 36 37  1  1  0  0  0
 36 35  1  0  0  0  0
 38 36  1  0  0  0  0
 39 38  1  0  0  0  0
 40 39  1  0  0  0  0
 40 41  1  0  0  0  0
 42 40  2  0  0  0  0
 43 12  1  0  0  0  0
 44 50  1  0  0  0  0
 44 46  1  0  0  0  0
 46 48  1  0  0  0  0
 46 47  1  0  0  0  0
 48 45  1  6  0  0  0
 48 47  1  0  0  0  0
 49 44  2  0  0  0  0
 50 43  1  0  0  0  0
M  END
>  <MODEL>
7

>  <REMARK>
 VINA RESULT:      -7.6      2.845      9.293
  Name = 
  14 active torsions:
  status: ('A' for Active; 'I' for Inactive)
    1  A    between atoms: C_16  and  C_17
    2  A    between atoms: C_16  and  C_24
    3  A    between atoms: C_17  and  C_49
    4  A    between atoms: C_18  and  C_31
    5  A    between atoms: C_18  and  C_34
    6  A    between atoms: N_19  and  C_23
    7  A    between atoms: N_19  and  N_37
    8  A    between atoms: C_23  and  C_49
    9  A    between atoms: C_25  and  C_46
   10  A    between atoms: C_26  and  C_29
   11  A    between atoms: C_26  and  N_47
   12  A    between atoms: C_28  and  C_34
   13  A    between atoms: C_28  and  N_37
   14  A    between atoms: N_30  and  C_32
                            x       y       z     vdW  Elec       q    Type
                         _______ _______ _______ _____ _____    ______ ____

>  <TORSDO>
F 14

$$$$
=
 OpenBabel11042413263D

 50 55  0  0  1  0  0  0  0  0999 V2000
  186.9540  178.3040  142.0420 C   0  0  0  0  0  0  0  0  0  0  0  0
  187.4780  178.1890  138.3570 O   0  0  0  0  0  1  0  0  0  0  0  0
  187.5650  178.1850  144.7680 C   0  0  0  0  0  3  0  0  0  0  0  0
  182.2030  179.0740  143.0280 C   0  0  0  0  0  1  0  0  0  0  0  0
  186.2470  178.4040  144.3490 C   0  0  0  0  0  0  0  0  0  0  0  0
  183.6100  178.8350  143.4640 C   0  0  0  0  0  0  0  0  0  0  0  0
  184.6440  178.6980  142.5240 C   0  0  1  0  0  3  0  0  0  0  0  0
  187.7010  178.1470  139.7290 C   0  0  0  0  0  0  0  0  0  0  0  0
  186.6550  178.3590  140.6590 C   0  0  0  0  0  0  0  0  0  0  0  0
  185.3090  178.6130  140.2830 C   0  0  0  0  0  0  0  0  0  0  0  0
  189.2530  177.8590  141.5290 N   0  0  0  0  0  0  0  0  0  0  0  0
  188.9920  177.8790  140.1960 C   0  0  0  0  0  0  0  0  0  0  0  0
  189.8330  177.8570  144.2130 N   0  0  0  0  0  2  0  0  0  0  0  0
  185.9670  178.4720  142.9630 C   0  0  0  0  0  0  0  0  0  0  0  0
  184.3810  178.7680  141.2230 O   0  0  0  0  0  0  0  0  0  0  0  0
  188.2830  178.0630  142.4610 C   0  0  0  0  0  0  0  0  0  0  0  0
  185.1990  178.5450  145.2840 C   0  0  0  0  0  0  0  0  0  0  0  0
  188.5990  178.0290  143.8310 C   0  0  0  0  0  0  0  0  0  0  0  0
  183.8880  178.7520  144.8280 C   0  0  0  0  0  3  0  0  0  0  0  0
  189.4330  176.9960  146.3610 O   0  0  0  0  0  0  0  0  0  0  0  0
  192.4320  175.2470  146.5960 C   0  0  0  0  0  1  0  0  0  0  0  0
  190.2830  177.8250  145.6020 C   0  0  1  0  0  3  0  0  0  0  0  0
  190.2650  176.0450  146.9900 C   0  0  0  0  0  2  0  0  0  0  0  0
  191.6760  177.2540  145.6930 C   0  0  0  0  0  2  0  0  0  0  0  0
  191.6620  176.4470  146.8830 N   0  0  0  0  0  0  0  0  0  0  0  0
  184.2700  178.1720  147.4410 O   0  0  0  0  0  1  0  0  0  0  0  0
  185.4620  178.4350  146.7630 C   0  0  2  0  0  3  0  0  0  0  0  0
  186.0970  179.6990  147.3090 C   0  0  0  0  0  1  0  0  0  0  0  0
  184.8730  178.7160  138.8540 C   0  0  0  0  0  2  0  0  0  0  0  0
  183.9920  177.5440  138.4770 C   0  0  0  0  0  2  0  0  0  0  0  0
  182.5350  177.9710  138.5130 C   0  0  0  0  0  2  0  0  0  0  0  0
  181.7290  177.0060  139.3640 C   0  0  0  0  0  2  0  0  0  0  0  0
  182.0730  175.6290  139.0390 N   0  0  0  0  0  2  0  0  0  0  0  0
  180.2710  174.4810  138.4100 O   0  0  0  0  0  1  0  0  0  0  0  0
  181.2850  175.2470  137.9390 N   0  0  0  0  0  0  0  0  0  0  0  0
  182.0870  174.4170  137.0300 C   0  0  1  0  0  3  0  0  0  0  0  0
  182.1880  175.0110  135.7680 O   0  0  0  0  0  1  0  0  0  0  0  0
  183.4630  174.0150  137.5890 C   0  0  0  0  0  2  0  0  0  0  0  0
  184.6190  174.3930  136.6710 C   0  0  0  0  0  2  0  0  0  0  0  0
  185.7320  173.4070  136.8130 C   0  0  0  0  0  0  0  0  0  0  0  0
  186.0680  173.0010  137.9590 O   0  0  0  0  0  1  0  0  0  0  0  0
  186.4020  172.9330  135.6930 O   0  0  0  0  0  0  0  0  0  0  0  0
  190.0940  177.6100  139.2300 C   0  0  0  0  0  2  0  0  0  0  0  0
  192.5420  177.0860  139.4230 C   0  0  0  0  0  0  0  0  0  0  0  0
  194.0220  176.3870  136.2810 C   0  0  0  0  0  1  0  0  0  0  0  0
  192.5070  176.3410  138.2070 N   0  0  0  0  0  0  0  0  0  0  0  0
  191.8120  175.8550  136.9800 C   0  0  0  0  0  2  0  0  0  0  0  0
  193.1370  175.5040  137.1430 C   0  0  1  0  0  3  0  0  0  0  0  0
  193.6060  177.1280  140.0990 O   0  0  0  0  0  0  0  0  0  0  0  0
  191.3840  177.7910  139.8760 N   0  0  0  0  0  2  0  0  0  0  0  0
  1 16  1  0  0  0  0
  1 14  2  0  0  0  0
  2  8  1  0  0  0  0
  4  6  1  0  0  0  0
  5  3  1  0  0  0  0
  5 17  2  0  0  0  0
  6 19  2  0  0  0  0
  7 15  1  6  0  0  0
  7 14  1  0  0  0  0
  7  6  1  0  0  0  0
  8 12  2  0  0  0  0
  8  9  1  0  0  0  0
  9  1  1  0  0  0  0
 10  9  2  0  0  0  0
 10 15  1  0  0  0  0
 11 16  2  0  0  0  0
 12 11  1  0  0  0  0
 14  5  1  0  0  0  0
 16 18  1  0  0  0  0
 17 27  1  0  0  0  0
 18 13  1  0  0  0  0
 18  3  2  0  0  0  0
 19 17  1  0  0  0  0
 20 23  1  0  0  0  0
 21 25  1  0  0  0  0
 22 13  1  6  0  0  0
 22 24  1  0  0  0  0
 22 20  1  0  0  0  0
 24 25  1  0  0  0  0
 25 23  1  0  0  0  0
 27 28  1  1  0  0  0
 27 26  1  0  0  0  0
 29 10  1  0  0  0  0
 30 31  1  0  0  0  0
 30 29  1  0  0  0  0
 31 32  1  0  0  0  0
 33 32  1  0  0  0  0
 35 34  1  0  0  0  0
 35 33  1  0  0  0  0
 36 37  1  6  0  0  0
 36 38  1  0  0  0  0
 36 35  1  0  0  0  0
 39 40  1  0  0  0  0
 39 38  1  0  0  0  0
 40 41  1  0  0  0  0
 42 40  2  0  0  0  0
 43 50  1  0  0  0  0
 43 12  1  0  0  0  0
 44 50  1  0  0  0  0
 44 49  2  0  0  0  0
 46 44  1  0  0  0  0
 47 48  1  0  0  0  0
 47 46  1  0  0  0  0
 48 45  1  6  0  0  0
 48 46  1  0  0  0  0
M  END
>  <MODEL>
8

>  <REMARK>
 VINA RESULT:      -7.6      2.741      8.691
  Name = 
  14 active torsions:
  status: ('A' for Active; 'I' for Inactive)
    1  A    between atoms: C_16  and  C_17
    2  A    between atoms: C_16  and  C_24
    3  A    between atoms: C_17  and  C_49
    4  A    between atoms: C_18  and  C_31
    5  A    between atoms: C_18  and  C_34
    6  A    between atoms: N_19  and  C_23
    7  A    between atoms: N_19  and  N_37
    8  A    between atoms: C_23  and  C_49
    9  A    between atoms: C_25  and  C_46
   10  A    between atoms: C_26  and  C_29
   11  A    between atoms: C_26  and  N_47
   12  A    between atoms: C_28  and  C_34
   13  A    between atoms: C_28  and  N_37
   14  A    between atoms: N_30  and  C_32
                            x       y       z     vdW  Elec       q    Type
                         _______ _______ _______ _____ _____    ______ ____

>  <TORSDO>
F 14

$$$$
=
 OpenBabel11042413263D

 50 55  0  0  1  0  0  0  0  0999 V2000
  187.0070  178.2750  142.1870 C   0  0  0  0  0  0  0  0  0  0  0  0
  185.5230  178.7580  138.8050 O   0  0  0  0  0  1  0  0  0  0  0  0
  188.9470  177.7700  144.1350 C   0  0  0  0  0  3  0  0  0  0  0  0
  183.5020  178.6310  145.6110 C   0  0  0  0  0  1  0  0  0  0  0  0
  187.6130  177.9810  144.5050 C   0  0  0  0  0  0  0  0  0  0  0  0
  184.9200  178.4030  145.2060 C   0  0  0  0  0  0  0  0  0  0  0  0
  185.3050  178.4670  143.8570 C   0  0  1  0  0  3  0  0  0  0  0  0
  186.4290  178.5160  139.8330 C   0  0  0  0  0  0  0  0  0  0  0  0
  186.0310  178.5270  141.1910 C   0  0  0  0  0  0  0  0  0  0  0  0
  184.6970  178.7640  141.6170 C   0  0  0  0  0  0  0  0  0  0  0  0
  188.6810  178.0380  140.4880 N   0  0  0  0  0  0  0  0  0  0  0  0
  187.7630  178.2480  139.5090 C   0  0  0  0  0  0  0  0  0  0  0  0
  190.5770  177.6530  142.4360 N   0  0  0  0  0  2  0  0  0  0  0  0
  186.6530  178.2470  143.4990 C   0  0  0  0  0  0  0  0  0  0  0  0
  184.4030  178.7230  142.9140 O   0  0  0  0  0  0  0  0  0  0  0  0
  188.3490  178.0440  141.8070 C   0  0  0  0  0  0  0  0  0  0  0  0
  187.2150  177.9200  145.8580 C   0  0  0  0  0  0  0  0  0  0  0  0
  189.3320  177.8160  142.7860 C   0  0  0  0  0  0  0  0  0  0  0  0
  185.8670  178.1250  146.1910 C   0  0  0  0  0  3  0  0  0  0  0  0
  191.6990  178.4410  144.3430 O   0  0  0  0  0  0  0  0  0  0  0  0
  191.0670  175.6350  146.3010 C   0  0  0  0  0  1  0  0  0  0  0  0
  191.6860  177.4310  143.3610 C   0  0  1  0  0  3  0  0  0  0  0  0
  191.6800  177.7820  145.5910 C   0  0  0  0  0  2  0  0  0  0  0  0
  191.5270  176.1100  144.0690 C   0  0  0  0  0  2  0  0  0  0  0  0
  191.9640  176.3630  145.4160 N   0  0  0  0  0  0  0  0  0  0  0  0
  187.9440  176.3310  147.4690 O   0  0  0  0  0  1  0  0  0  0  0  0
  188.2070  177.5980  146.9430 C   0  0  2  0  0  3  0  0  0  0  0  0
  188.1730  178.6320  148.0520 C   0  0  0  0  0  1  0  0  0  0  0  0
  183.5830  179.0640  140.6630 C   0  0  0  0  0  2  0  0  0  0  0  0
  182.3970  178.1580  140.9240 C   0  0  0  0  0  2  0  0  0  0  0  0
  181.2590  178.9690  141.5150 C   0  0  0  0  0  2  0  0  0  0  0  0
  179.9570  178.1950  141.4100 C   0  0  0  0  0  2  0  0  0  0  0  0
  179.8630  177.5270  140.1190 N   0  0  0  0  0  2  0  0  0  0  0  0
  179.3020  176.0560  141.6940 O   0  0  0  0  0  1  0  0  0  0  0  0
  179.3770  176.2280  140.3520 N   0  0  0  0  0  0  0  0  0  0  0  0
  180.3380  175.2480  139.8290 C   0  0  1  0  0  3  0  0  0  0  0  0
  179.7620  173.9760  139.7500 O   0  0  0  0  0  1  0  0  0  0  0  0
  181.0060  175.6610  138.5060 C   0  0  0  0  0  2  0  0  0  0  0  0
  182.4720  175.2540  138.4200 C   0  0  0  0  0  2  0  0  0  0  0  0
  183.2490  176.2890  137.6740 C   0  0  0  0  0  0  0  0  0  0  0  0
  184.4120  176.0260  137.2630 O   0  0  0  0  0  0  0  0  0  0  0  0
  182.7020  177.5410  137.4290 O   0  0  0  0  0  1  0  0  0  0  0  0
  188.1870  178.1910  138.0820 C   0  0  0  0  0  2  0  0  0  0  0  0
  190.2740  176.8490  137.6920 C   0  0  0  0  0  0  0  0  0  0  0  0
  189.7800  174.2430  135.3440 C   0  0  0  0  0  1  0  0  0  0  0  0
  189.5050  175.7210  137.2790 N   0  0  0  0  0  0  0  0  0  0  0  0
  188.2110  175.0660  136.9300 C   0  0  0  0  0  2  0  0  0  0  0  0
  189.3610  174.3140  136.8010 C   0  0  1  0  0  3  0  0  0  0  0  0
  191.5270  176.7500  137.7840 O   0  0  0  0  0  0  0  0  0  0  0  0
  189.6350  178.0930  137.9910 N   0  0  0  0  0  2  0  0  0  0  0  0
  1 14  2  0  0  0  0
  2  8  1  0  0  0  0
  3  5  1  0  0  0  0
  5 17  2  0  0  0  0
  6  4  1  0  0  0  0
  6 19  2  0  0  0  0
  7 15  1  6  0  0  0
  7  6  1  0  0  0  0
  8  9  1  0  0  0  0
  9 10  2  0  0  0  0
  9  1  1  0  0  0  0
 10 15  1  0  0  0  0
 11 16  2  0  0  0  0
 12  8  2  0  0  0  0
 12 11  1  0  0  0  0
 13 18  1  0  0  0  0
 14  7  1  0  0  0  0
 14  5  1  0  0  0  0
 16  1  1  0  0  0  0
 16 18  1  0  0  0  0
 17 19  1  0  0  0  0
 17 27  1  0  0  0  0
 18  3  2  0  0  0  0
 20 23  1  0  0  0  0
 22 13  1  6  0  0  0
 22 24  1  0  0  0  0
 22 20  1  0  0  0  0
 24 25  1  0  0  0  0
 25 23  1  0  0  0  0
 25 21  1  0  0  0  0
 27 26  1  0  0  0  0
 27 28  1  1  0  0  0
 29 30  1  0  0  0  0
 29 10  1  0  0  0  0
 30 31  1  0  0  0  0
 32 31  1  0  0  0  0
 33 35  1  0  0  0  0
 33 32  1  0  0  0  0
 35 34  1  0  0  0  0
 36 37  1  6  0  0  0
 36 35  1  0  0  0  0
 38 36  1  0  0  0  0
 39 38  1  0  0  0  0
 40 39  1  0  0  0  0
 41 40  2  0  0  0  0
 42 40  1  0  0  0  0
 43 12  1  0  0  0  0
 44 49  2  0  0  0  0
 44 50  1  0  0  0  0
 46 44  1  0  0  0  0
 47 46  1  0  0  0  0
 48 45  1  6  0  0  0
 48 47  1  0  0  0  0
 48 46  1  0  0  0  0
 50 43  1  0  0  0  0
M  END
>  <MODEL>
9

>  <REMARK>
 VINA RESULT:      -7.4      2.529      8.632
  Name = 
  14 active torsions:
  status: ('A' for Active; 'I' for Inactive)
    1  A    between atoms: C_16  and  C_17
    2  A    between atoms: C_16  and  C_24
    3  A    between atoms: C_17  and  C_49
    4  A    between atoms: C_18  and  C_31
    5  A    between atoms: C_18  and  C_34
    6  A    between atoms: N_19  and  C_23
    7  A    between atoms: N_19  and  N_37
    8  A    between atoms: C_23  and  C_49
    9  A    between atoms: C_25  and  C_46
   10  A    between atoms: C_26  and  C_29
   11  A    between atoms: C_26  and  N_47
   12  A    between atoms: C_28  and  C_34
   13  A    between atoms: C_28  and  N_37
   14  A    between atoms: N_30  and  C_32
                            x       y       z     vdW  Elec       q    Type
                         _______ _______ _______ _____ _____    ______ ____

>  <TORSDO>
F 14

$$$$
