=
 OpenBabel11042412293D

 27 29  0  0  1  0  0  0  0  0999 V2000
  190.7300  176.7890  138.6300 C   0  0  0  0  0  0  0  0  0  0  0  0
  187.3430  178.1310  141.3470 C   0  0  0  0  0  0  0  0  0  0  0  0
  191.9780  176.1200  138.1820 C   0  0  0  0  0  1  0  0  0  0  0  0
  190.0390  177.5020  137.7770 N   0  0  0  0  0  0  0  0  0  0  0  0
  186.4260  178.4040  142.3580 C   0  0  0  0  0  3  0  0  0  0  0  0
  188.7240  176.7850  142.8210 C   0  0  0  0  0  0  0  0  0  0  0  0
  188.7830  178.2250  138.0680 C   0  0  2  0  0  3  0  0  0  0  0  0
  190.3050  176.6440  139.9950 N   0  0  0  0  0  2  0  0  0  0  0  0
  186.6630  177.8530  143.6360 C   0  0  0  0  0  0  0  0  0  0  0  0
  188.4530  177.3480  141.5750 C   0  0  0  0  0  0  0  0  0  0  0  0
  187.8070  177.0480  143.8590 C   0  0  0  0  0  3  0  0  0  0  0  0
  188.9590  179.6360  137.7770 N   0  0  0  0  0  1  0  0  0  0  0  0
  187.3030  178.5470  140.0950 O   0  0  0  0  0  0  0  0  0  0  0  0
  188.3690  178.0510  139.4950 C   0  0  0  0  0  0  0  0  0  0  0  0
  189.1060  177.3060  140.3700 C   0  0  0  0  0  0  0  0  0  0  0  0
  185.7180  178.1170  144.7330 C   0  0  0  0  0  0  0  0  0  0  0  0
  186.1060  177.9260  146.0540 O   0  0  0  0  0  1  0  0  0  0  0  0
  184.5490  178.5170  144.4860 O   0  0  0  0  0  0  0  0  0  0  0  0
  189.8850  175.9740  143.0230 N   0  0  0  0  0  2  0  0  0  0  0  0
  191.1860  176.5150  143.3950 C   0  0  0  0  0  2  0  0  0  0  0  0
  191.4450  178.9620  143.9180 C   0  0  0  0  0  1  0  0  0  0  0  0
  191.0320  177.6000  144.4530 C   0  0  2  0  0  3  0  0  0  0  0  0
  191.7820  177.2640  145.6610 N   0  0  0  0  0  2  0  0  0  0  0  0
  191.2180  176.8240  146.9040 C   0  0  0  0  0  0  0  0  0  0  0  0
  192.0050  176.5510  147.8900 N   0  0  0  0  0  2  0  0  0  0  0  0
  189.2110  177.9300  147.8270 C   0  0  0  0  0  1  0  0  0  0  0  0
  189.7410  176.7090  147.0980 C   0  0  0  0  0  2  0  0  0  0  0  0
  1  8  1  0  0  0  0
  2 10  2  0  0  0  0
  2  5  1  0  0  0  0
  3  1  1  0  0  0  0
  4  7  1  0  0  0  0
  4  1  2  0  0  0  0
  5  9  2  0  0  0  0
  6 19  1  0  0  0  0
  6 11  2  0  0  0  0
  7 12  1  1  0  0  0
  7 14  1  0  0  0  0
  8 15  1  0  0  0  0
  9 11  1  0  0  0  0
  9 16  1  0  0  0  0
 10  6  1  0  0  0  0
 13  2  1  0  0  0  0
 14 13  1  0  0  0  0
 14 15  2  0  0  0  0
 15 10  1  0  0  0  0
 16 17  1  0  0  0  0
 18 16  2  0  0  0  0
 19 20  1  0  0  0  0
 20 22  1  0  0  0  0
 22 21  1  6  0  0  0
 22 23  1  0  0  0  0
 23 24  1  0  0  0  0
 24 27  1  0  0  0  0
 24 25  2  0  0  0  0
 27 26  1  0  0  0  0
M  END
>  <MODEL>
1

>  <REMARK>
 VINA RESULT:      -9.1      0.000      0.000
  Name = 
  6 active torsions:
  status: ('A' for Active; 'I' for Inactive)
    1  A    between atoms: N_3  and  C_13
    2  A    between atoms: C_7  and  N_16
    3  A    between atoms: C_11  and  C_27
    4  A    between atoms: C_13  and  C_21
    5  A    between atoms: C_15  and  C_20
    6  A    between atoms: N_16  and  C_21
                            x       y       z     vdW  Elec       q    Type
                         _______ _______ _______ _____ _____    ______ ____

>  <TORSDO>
F 6

$$$$
=
 OpenBabel11042412293D

 27 29  0  0  1  0  0  0  0  0999 V2000
  185.8070  178.2700  143.1400 C   0  0  0  0  0  0  0  0  0  0  0  0
  188.6800  177.2030  146.4950 C   0  0  0  0  0  0  0  0  0  0  0  0
  185.3040  178.5640  141.7730 C   0  0  0  0  0  1  0  0  0  0  0  0
  184.9770  178.3000  144.1520 N   0  0  0  0  0  0  0  0  0  0  0  0
  189.7360  176.8620  147.3360 C   0  0  0  0  0  3  0  0  0  0  0  0
  190.1060  177.1870  144.5300 C   0  0  0  0  0  0  0  0  0  0  0  0
  185.3220  178.0330  145.5640 C   0  0  2  0  0  3  0  0  0  0  0  0
  187.1980  177.9600  143.3260 N   0  0  0  0  0  2  0  0  0  0  0  0
  191.0110  176.6770  146.7600 C   0  0  0  0  0  0  0  0  0  0  0  0
  188.8630  177.3590  145.1390 C   0  0  0  0  0  0  0  0  0  0  0  0
  191.1880  176.8400  145.3640 C   0  0  0  0  0  3  0  0  0  0  0  0
  184.9860  179.1910  146.3720 N   0  0  0  0  0  1  0  0  0  0  0  0
  187.4230  177.4160  146.8330 O   0  0  0  0  0  0  0  0  0  0  0  0
  186.7750  177.7120  145.7220 C   0  0  0  0  0  0  0  0  0  0  0  0
  187.6240  177.6880  144.6530 C   0  0  0  0  0  0  0  0  0  0  0  0
  192.1540  176.3160  147.6140 C   0  0  0  0  0  0  0  0  0  0  0  0
  192.5070  177.1210  148.6910 O   0  0  0  0  0  1  0  0  0  0  0  0
  192.8240  175.2750  147.3770 O   0  0  0  0  0  0  0  0  0  0  0  0
  190.2610  177.3540  143.1170 N   0  0  0  0  0  2  0  0  0  0  0  0
  190.1850  176.2530  142.1670 C   0  0  0  0  0  2  0  0  0  0  0  0
  191.6790  177.4540  140.5380 C   0  0  0  0  0  1  0  0  0  0  0  0
  190.3390  176.7650  140.7400 C   0  0  2  0  0  3  0  0  0  0  0  0
  189.2360  177.6530  140.3800 N   0  0  0  0  0  2  0  0  0  0  0  0
  188.5030  177.6230  139.1470 C   0  0  0  0  0  0  0  0  0  0  0  0
  187.5410  178.4650  138.9670 N   0  0  0  0  0  2  0  0  0  0  0  0
  189.7830  177.3270  137.0560 C   0  0  0  0  0  1  0  0  0  0  0  0
  188.8490  176.6680  138.0520 C   0  0  0  0  0  2  0  0  0  0  0  0
  1  8  1  0  0  0  0
  1  4  2  0  0  0  0
  2 13  1  0  0  0  0
  2  5  1  0  0  0  0
  3  1  1  0  0  0  0
  4  7  1  0  0  0  0
  6 10  1  0  0  0  0
  6 11  2  0  0  0  0
  7 14  1  0  0  0  0
  7 12  1  1  0  0  0
  8 15  1  0  0  0  0
  9  5  2  0  0  0  0
  9 16  1  0  0  0  0
 10  2  2  0  0  0  0
 11  9  1  0  0  0  0
 14 13  1  0  0  0  0
 15 10  1  0  0  0  0
 15 14  2  0  0  0  0
 16 17  1  0  0  0  0
 18 16  2  0  0  0  0
 19  6  1  0  0  0  0
 20 19  1  0  0  0  0
 22 21  1  1  0  0  0
 22 20  1  0  0  0  0
 23 22  1  0  0  0  0
 24 23  1  0  0  0  0
 25 24  2  0  0  0  0
 26 27  1  0  0  0  0
 27 24  1  0  0  0  0
M  END
>  <MODEL>
2

>  <REMARK>
 VINA RESULT:      -8.8      2.935      6.730
  Name = 
  6 active torsions:
  status: ('A' for Active; 'I' for Inactive)
    1  A    between atoms: N_3  and  C_13
    2  A    between atoms: C_7  and  N_16
    3  A    between atoms: C_11  and  C_27
    4  A    between atoms: C_13  and  C_21
    5  A    between atoms: C_15  and  C_20
    6  A    between atoms: N_16  and  C_21
                            x       y       z     vdW  Elec       q    Type
                         _______ _______ _______ _____ _____    ______ ____

>  <TORSDO>
F 6

$$$$
=
 OpenBabel11042412293D

 27 29  0  0  1  0  0  0  0  0999 V2000
  186.2620  178.0300  144.6330 C   0  0  0  0  0  0  0  0  0  0  0  0
  187.8770  178.1600  140.3870 C   0  0  0  0  0  0  0  0  0  0  0  0
  186.1640  177.7080  146.0810 C   0  0  0  0  0  1  0  0  0  0  0  0
  185.3310  178.7590  144.0710 N   0  0  0  0  0  0  0  0  0  0  0  0
  188.5650  178.0590  139.1810 C   0  0  0  0  0  3  0  0  0  0  0  0
  189.5270  176.8180  141.5580 C   0  0  0  0  0  0  0  0  0  0  0  0
  185.2870  179.1620  142.6500 C   0  0  2  0  0  3  0  0  0  0  0  0
  187.3780  177.5340  143.8760 N   0  0  0  0  0  2  0  0  0  0  0  0
  189.7660  177.3190  139.1610 C   0  0  0  0  0  0  0  0  0  0  0  0
  188.3460  177.5580  141.5340 C   0  0  0  0  0  0  0  0  0  0  0  0
  190.2390  176.7050  140.3470 C   0  0  0  0  0  3  0  0  0  0  0  0
  184.0570  178.6790  142.0480 N   0  0  0  0  0  1  0  0  0  0  0  0
  186.7470  178.8010  140.6140 O   0  0  0  0  0  0  0  0  0  0  0  0
  186.4620  178.6310  141.8920 C   0  0  0  0  0  0  0  0  0  0  0  0
  187.4220  177.8710  142.4970 C   0  0  0  0  0  0  0  0  0  0  0  0
  190.5240  177.1880  137.9060 C   0  0  0  0  0  0  0  0  0  0  0  0
  191.8410  176.7430  137.9250 O   0  0  0  0  0  1  0  0  0  0  0  0
  189.9880  177.4780  136.8030 O   0  0  0  0  0  0  0  0  0  0  0  0
  189.9880  176.2080  142.7680 N   0  0  0  0  0  2  0  0  0  0  0  0
  191.2530  176.5470  143.4050 C   0  0  0  0  0  2  0  0  0  0  0  0
  191.4100  178.9900  143.9800 C   0  0  0  0  0  1  0  0  0  0  0  0
  191.0450  177.6030  144.4830 C   0  0  2  0  0  3  0  0  0  0  0  0
  191.7930  177.2720  145.6930 N   0  0  0  0  0  2  0  0  0  0  0  0
  191.2260  176.8530  146.9430 C   0  0  0  0  0  0  0  0  0  0  0  0
  192.0120  176.5820  147.9300 N   0  0  0  0  0  2  0  0  0  0  0  0
  189.2670  177.8840  148.0380 C   0  0  0  0  0  1  0  0  0  0  0  0
  189.7490  176.7600  147.1410 C   0  0  0  0  0  2  0  0  0  0  0  0
  1  3  1  0  0  0  0
  2 13  1  0  0  0  0
  2 10  1  0  0  0  0
  4  1  2  0  0  0  0
  5  2  2  0  0  0  0
  6 19  1  0  0  0  0
  7 12  1  6  0  0  0
  7  4  1  0  0  0  0
  8  1  1  0  0  0  0
  9  5  1  0  0  0  0
  9 11  2  0  0  0  0
 10  6  2  0  0  0  0
 10 15  1  0  0  0  0
 11  6  1  0  0  0  0
 13 14  1  0  0  0  0
 14 15  2  0  0  0  0
 14  7  1  0  0  0  0
 15  8  1  0  0  0  0
 16 17  1  0  0  0  0
 16  9  1  0  0  0  0
 18 16  2  0  0  0  0
 19 20  1  0  0  0  0
 20 22  1  0  0  0  0
 22 21  1  6  0  0  0
 22 23  1  0  0  0  0
 23 24  1  0  0  0  0
 24 27  1  0  0  0  0
 24 25  2  0  0  0  0
 27 26  1  0  0  0  0
M  END
>  <MODEL>
3

>  <REMARK>
 VINA RESULT:      -8.8      2.297      4.969
  Name = 
  6 active torsions:
  status: ('A' for Active; 'I' for Inactive)
    1  A    between atoms: N_3  and  C_13
    2  A    between atoms: C_7  and  N_16
    3  A    between atoms: C_11  and  C_27
    4  A    between atoms: C_13  and  C_21
    5  A    between atoms: C_15  and  C_20
    6  A    between atoms: N_16  and  C_21
                            x       y       z     vdW  Elec       q    Type
                         _______ _______ _______ _____ _____    ______ ____

>  <TORSDO>
F 6

$$$$
=
 OpenBabel11042412293D

 27 29  0  0  1  0  0  0  0  0999 V2000
  187.0930  178.2730  138.7010 C   0  0  0  0  0  0  0  0  0  0  0  0
  185.1700  178.7210  142.7950 C   0  0  0  0  0  0  0  0  0  0  0  0
  188.1180  177.9870  137.6640 C   0  0  0  0  0  1  0  0  0  0  0  0
  185.8980  178.6640  138.3360 N   0  0  0  0  0  0  0  0  0  0  0  0
  184.8080  178.7790  144.1370 C   0  0  0  0  0  3  0  0  0  0  0  0
  187.4240  177.9930  143.3270 C   0  0  0  0  0  0  0  0  0  0  0  0
  184.7760  178.9850  139.2430 C   0  0  2  0  0  3  0  0  0  0  0  0
  187.4330  178.1160  140.0890 N   0  0  0  0  0  2  0  0  0  0  0  0
  185.7790  178.4350  145.1030 C   0  0  0  0  0  0  0  0  0  0  0  0
  186.4360  178.3410  142.4070 C   0  0  0  0  0  0  0  0  0  0  0  0
  187.0770  178.0450  144.6930 C   0  0  0  0  0  3  0  0  0  0  0  0
  184.3460  180.3530  139.0160 N   0  0  0  0  0  1  0  0  0  0  0  0
  184.4150  178.9990  141.7480 O   0  0  0  0  0  0  0  0  0  0  0  0
  185.1640  178.8100  140.6780 C   0  0  0  0  0  0  0  0  0  0  0  0
  186.4170  178.4030  141.0380 C   0  0  0  0  0  0  0  0  0  0  0  0
  185.4370  178.4830  146.5330 C   0  0  0  0  0  0  0  0  0  0  0  0
  186.4100  178.7940  147.4770 O   0  0  0  0  0  1  0  0  0  0  0  0
  184.2610  178.2420  146.9170 O   0  0  0  0  0  0  0  0  0  0  0  0
  188.7290  177.6000  142.8900 N   0  0  0  0  0  2  0  0  0  0  0  0
  189.7140  176.9820  143.7670 C   0  0  0  0  0  2  0  0  0  0  0  0
  191.0200  179.1320  143.7850 C   0  0  0  0  0  1  0  0  0  0  0  0
  190.3970  178.0340  144.6320 C   0  0  2  0  0  3  0  0  0  0  0  0
  191.3910  177.4240  145.5120 N   0  0  0  0  0  2  0  0  0  0  0  0
  191.1220  176.7830  146.7670 C   0  0  0  0  0  0  0  0  0  0  0  0
  192.1020  176.2770  147.4370 N   0  0  0  0  0  2  0  0  0  0  0  0
  189.4790  177.9320  148.2090 C   0  0  0  0  0  1  0  0  0  0  0  0
  189.7420  176.7210  147.3350 C   0  0  0  0  0  2  0  0  0  0  0  0
  1  8  1  0  0  0  0
  2  5  1  0  0  0  0
  3  1  1  0  0  0  0
  4  1  2  0  0  0  0
  4  7  1  0  0  0  0
  5  9  2  0  0  0  0
  6 11  2  0  0  0  0
  7 12  1  1  0  0  0
  7 14  1  0  0  0  0
  8 15  1  0  0  0  0
  9 16  1  0  0  0  0
 10  2  2  0  0  0  0
 10  6  1  0  0  0  0
 11  9  1  0  0  0  0
 13  2  1  0  0  0  0
 14 15  2  0  0  0  0
 14 13  1  0  0  0  0
 15 10  1  0  0  0  0
 16 18  2  0  0  0  0
 16 17  1  0  0  0  0
 19  6  1  0  0  0  0
 19 20  1  0  0  0  0
 20 22  1  0  0  0  0
 22 21  1  6  0  0  0
 22 23  1  0  0  0  0
 23 24  1  0  0  0  0
 24 27  1  0  0  0  0
 24 25  2  0  0  0  0
 27 26  1  0  0  0  0
M  END
>  <MODEL>
4

>  <REMARK>
 VINA RESULT:      -8.6      2.015      2.620
  Name = 
  6 active torsions:
  status: ('A' for Active; 'I' for Inactive)
    1  A    between atoms: N_3  and  C_13
    2  A    between atoms: C_7  and  N_16
    3  A    between atoms: C_11  and  C_27
    4  A    between atoms: C_13  and  C_21
    5  A    between atoms: C_15  and  C_20
    6  A    between atoms: N_16  and  C_21
                            x       y       z     vdW  Elec       q    Type
                         _______ _______ _______ _____ _____    ______ ____

>  <TORSDO>
F 6

$$$$
=
 OpenBabel11042412293D

 27 29  0  0  1  0  0  0  0  0999 V2000
  185.1400  178.4670  145.8500 C   0  0  0  0  0  0  0  0  0  0  0  0
  186.2270  178.7300  141.4450 C   0  0  0  0  0  0  0  0  0  0  0  0
  185.2400  178.1370  147.2960 C   0  0  0  0  0  1  0  0  0  0  0  0
  184.0930  179.1160  145.4090 N   0  0  0  0  0  0  0  0  0  0  0  0
  186.7730  178.6860  140.1660 C   0  0  0  0  0  3  0  0  0  0  0  0
  188.1070  177.5280  142.4010 C   0  0  0  0  0  0  0  0  0  0  0  0
  183.8480  179.5150  144.0070 C   0  0  2  0  0  3  0  0  0  0  0  0
  186.1960  178.0640  144.9620 N   0  0  0  0  0  2  0  0  0  0  0  0
  188.0200  178.0470  139.9970 C   0  0  0  0  0  0  0  0  0  0  0  0
  186.8750  178.1680  142.5240 C   0  0  0  0  0  0  0  0  0  0  0  0
  188.6780  177.4740  141.1130 C   0  0  0  0  0  3  0  0  0  0  0  0
  182.6000  178.9330  143.5490 N   0  0  0  0  0  1  0  0  0  0  0  0
  185.0830  179.2760  141.8100 O   0  0  0  0  0  0  0  0  0  0  0  0
  184.9660  179.0830  143.1110 C   0  0  0  0  0  0  0  0  0  0  0  0
  186.0490  178.4040  143.5920 C   0  0  0  0  0  0  0  0  0  0  0  0
  188.6330  177.9790  138.6610 C   0  0  0  0  0  0  0  0  0  0  0  0
  189.0220  179.1430  138.0080 O   0  0  0  0  0  0  0  0  0  0  0  0
  188.8100  176.8670  138.0960 O   0  0  0  0  0  1  0  0  0  0  0  0
  188.7550  176.9580  143.5420 N   0  0  0  0  0  2  0  0  0  0  0  0
  190.2030  176.9070  143.7000 C   0  0  0  0  0  2  0  0  0  0  0  0
  191.3550  179.1320  143.9190 C   0  0  0  0  0  1  0  0  0  0  0  0
  190.6750  177.9920  144.6600 C   0  0  2  0  0  3  0  0  0  0  0  0
  191.5540  177.4370  145.6860 N   0  0  0  0  0  2  0  0  0  0  0  0
  191.1310  176.8280  146.9140 C   0  0  0  0  0  0  0  0  0  0  0  0
  192.0220  176.3700  147.7280 N   0  0  0  0  0  2  0  0  0  0  0  0
  189.2890  177.9570  148.1110 C   0  0  0  0  0  1  0  0  0  0  0  0
  189.6890  176.7450  147.2920 C   0  0  0  0  0  2  0  0  0  0  0  0
  1  3  1  0  0  0  0
  2 13  1  0  0  0  0
  2 10  1  0  0  0  0
  4  1  2  0  0  0  0
  5  2  2  0  0  0  0
  6 10  2  0  0  0  0
  6 19  1  0  0  0  0
  7 12  1  6  0  0  0
  7  4  1  0  0  0  0
  8  1  1  0  0  0  0
  9  5  1  0  0  0  0
  9 11  2  0  0  0  0
 10 15  1  0  0  0  0
 11  6  1  0  0  0  0
 13 14  1  0  0  0  0
 14 15  2  0  0  0  0
 14  7  1  0  0  0  0
 15  8  1  0  0  0  0
 16  9  1  0  0  0  0
 17 16  2  0  0  0  0
 18 16  1  0  0  0  0
 19 20  1  0  0  0  0
 20 22  1  0  0  0  0
 22 21  1  6  0  0  0
 22 23  1  0  0  0  0
 23 24  1  0  0  0  0
 24 27  1  0  0  0  0
 24 25  2  0  0  0  0
 27 26  1  0  0  0  0
M  END
>  <MODEL>
5

>  <REMARK>
 VINA RESULT:      -8.5      2.622      5.343
  Name = 
  6 active torsions:
  status: ('A' for Active; 'I' for Inactive)
    1  A    between atoms: N_3  and  C_13
    2  A    between atoms: C_7  and  N_16
    3  A    between atoms: C_11  and  C_27
    4  A    between atoms: C_13  and  C_21
    5  A    between atoms: C_15  and  C_20
    6  A    between atoms: N_16  and  C_21
                            x       y       z     vdW  Elec       q    Type
                         _______ _______ _______ _____ _____    ______ ____

>  <TORSDO>
F 6

$$$$
=
 OpenBabel11042412293D

 27 29  0  0  1  0  0  0  0  0999 V2000
  189.5590  177.5200  146.2200 C   0  0  0  0  0  0  0  0  0  0  0  0
  185.1550  178.5500  145.7780 C   0  0  0  0  0  0  0  0  0  0  0  0
  190.9450  177.1290  145.8530 C   0  0  0  0  0  1  0  0  0  0  0  0
  189.2680  177.7620  147.4730 N   0  0  0  0  0  0  0  0  0  0  0  0
  183.8460  178.8260  145.3930 C   0  0  0  0  0  3  0  0  0  0  0  0
  185.8340  178.0690  143.4980 C   0  0  0  0  0  0  0  0  0  0  0  0
  187.9430  178.1580  147.9940 C   0  0  2  0  0  3  0  0  0  0  0  0
  188.5620  177.6230  145.1900 N   0  0  0  0  0  2  0  0  0  0  0  0
  183.5210  178.7210  144.0230 C   0  0  0  0  0  0  0  0  0  0  0  0
  186.1140  178.1840  144.8590 C   0  0  0  0  0  0  0  0  0  0  0  0
  184.5150  178.3450  143.0860 C   0  0  0  0  0  3  0  0  0  0  0  0
  187.5020  177.1900  148.9810 N   0  0  0  0  0  1  0  0  0  0  0  0
  185.6570  178.5920  146.9980 O   0  0  0  0  0  0  0  0  0  0  0  0
  186.9300  178.2570  146.8970 C   0  0  0  0  0  0  0  0  0  0  0  0
  187.2540  177.9990  145.5960 C   0  0  0  0  0  0  0  0  0  0  0  0
  182.1490  179.0040  143.5740 C   0  0  0  0  0  0  0  0  0  0  0  0
  181.0620  178.6050  144.3430 O   0  0  0  0  0  1  0  0  0  0  0  0
  181.9450  179.6100  142.4870 O   0  0  0  0  0  0  0  0  0  0  0  0
  186.8540  177.6890  142.5690 N   0  0  0  0  0  2  0  0  0  0  0  0
  187.4330  178.6050  141.5960 C   0  0  0  0  0  2  0  0  0  0  0  0
  188.5090  177.7670  139.4820 C   0  0  0  0  0  1  0  0  0  0  0  0
  188.6870  178.0040  140.9730 C   0  0  2  0  0  3  0  0  0  0  0  0
  189.0720  176.7710  141.6560 N   0  0  0  0  0  2  0  0  0  0  0  0
  190.3450  176.5090  142.2620 C   0  0  0  0  0  0  0  0  0  0  0  0
  190.5430  175.3740  142.8430 N   0  0  0  0  0  2  0  0  0  0  0  0
  192.0930  177.5030  140.8280 C   0  0  0  0  0  1  0  0  0  0  0  0
  191.4600  177.5020  142.2060 C   0  0  0  0  0  2  0  0  0  0  0  0
  1  4  2  0  0  0  0
  2 13  1  0  0  0  0
  3  1  1  0  0  0  0
  4  7  1  0  0  0  0
  5  2  1  0  0  0  0
  6 10  1  0  0  0  0
  7 12  1  1  0  0  0
  8 15  1  0  0  0  0
  8  1  1  0  0  0  0
  9  5  2  0  0  0  0
 10 15  1  0  0  0  0
 10  2  2  0  0  0  0
 11  6  2  0  0  0  0
 11  9  1  0  0  0  0
 14 13  1  0  0  0  0
 14  7  1  0  0  0  0
 15 14  2  0  0  0  0
 16  9  1  0  0  0  0
 16 17  1  0  0  0  0
 18 16  2  0  0  0  0
 19  6  1  0  0  0  0
 20 19  1  0  0  0  0
 22 21  1  6  0  0  0
 22 20  1  0  0  0  0
 22 23  1  0  0  0  0
 23 24  1  0  0  0  0
 24 25  2  0  0  0  0
 26 27  1  0  0  0  0
 27 24  1  0  0  0  0
M  END
>  <MODEL>
6

>  <REMARK>
 VINA RESULT:      -8.5      2.373      6.106
  Name = 
  6 active torsions:
  status: ('A' for Active; 'I' for Inactive)
    1  A    between atoms: N_3  and  C_13
    2  A    between atoms: C_7  and  N_16
    3  A    between atoms: C_11  and  C_27
    4  A    between atoms: C_13  and  C_21
    5  A    between atoms: C_15  and  C_20
    6  A    between atoms: N_16  and  C_21
                            x       y       z     vdW  Elec       q    Type
                         _______ _______ _______ _____ _____    ______ ____

>  <TORSDO>
F 6

$$$$
=
 OpenBabel11042412293D

 27 29  0  0  1  0  0  0  0  0999 V2000
  188.4200  177.9320  140.0360 C   0  0  0  0  0  0  0  0  0  0  0  0
  191.0680  176.9880  143.6070 C   0  0  0  0  0  0  0  0  0  0  0  0
  187.2020  178.2540  139.2470 C   0  0  0  0  0  1  0  0  0  0  0  0
  189.5710  177.8110  139.4240 N   0  0  0  0  0  0  0  0  0  0  0  0
  191.6630  176.7230  144.8370 C   0  0  0  0  0  3  0  0  0  0  0  0
  188.8710  177.2380  144.6080 C   0  0  0  0  0  0  0  0  0  0  0  0
  190.8640  177.4950  140.0660 C   0  0  2  0  0  3  0  0  0  0  0  0
  188.3100  177.7570  141.4590 N   0  0  0  0  0  2  0  0  0  0  0  0
  190.8420  176.7140  145.9850 C   0  0  0  0  0  0  0  0  0  0  0  0
  189.7170  177.2360  143.5000 C   0  0  0  0  0  0  0  0  0  0  0  0
  189.4540  176.9720  145.8640 C   0  0  0  0  0  3  0  0  0  0  0  0
  191.4100  176.2820  139.4830 N   0  0  0  0  0  1  0  0  0  0  0  0
  191.6560  177.0420  142.4270 O   0  0  0  0  0  0  0  0  0  0  0  0
  190.7150  177.3210  141.5450 C   0  0  0  0  0  0  0  0  0  0  0  0
  189.5040  177.4490  142.1630 C   0  0  0  0  0  0  0  0  0  0  0  0
  191.4310  176.4380  147.3040 C   0  0  0  0  0  0  0  0  0  0  0  0
  191.7470  177.4840  148.1640 O   0  0  0  0  0  1  0  0  0  0  0  0
  191.6560  175.2530  147.6680 O   0  0  0  0  0  0  0  0  0  0  0  0
  187.4720  177.5020  144.4630 N   0  0  0  0  0  2  0  0  0  0  0  0
  186.5070  177.3220  145.5390 C   0  0  0  0  0  2  0  0  0  0  0  0
  186.1970  178.9980  147.3890 C   0  0  0  0  0  1  0  0  0  0  0  0
  185.8940  178.6580  145.9380 C   0  0  2  0  0  3  0  0  0  0  0  0
  184.4550  178.6710  145.6890 N   0  0  0  0  0  2  0  0  0  0  0  0
  183.8220  178.9900  144.4420 C   0  0  0  0  0  0  0  0  0  0  0  0
  182.5340  178.9510  144.3630 N   0  0  0  0  0  2  0  0  0  0  0  0
  184.6670  178.2710  142.2360 C   0  0  0  0  0  1  0  0  0  0  0  0
  184.6120  179.4030  143.2440 C   0  0  0  0  0  2  0  0  0  0  0  0
  1  8  1  0  0  0  0
  2  5  1  0  0  0  0
  3  1  1  0  0  0  0
  4  1  2  0  0  0  0
  4  7  1  0  0  0  0
  5  9  2  0  0  0  0
  6 11  2  0  0  0  0
  7 12  1  6  0  0  0
  7 14  1  0  0  0  0
  8 15  1  0  0  0  0
  9 16  1  0  0  0  0
 10  2  2  0  0  0  0
 10  6  1  0  0  0  0
 11  9  1  0  0  0  0
 13  2  1  0  0  0  0
 14 15  2  0  0  0  0
 14 13  1  0  0  0  0
 15 10  1  0  0  0  0
 16 18  2  0  0  0  0
 16 17  1  0  0  0  0
 19  6  1  0  0  0  0
 19 20  1  0  0  0  0
 20 22  1  0  0  0  0
 22 21  1  1  0  0  0
 23 22  1  0  0  0  0
 24 23  1  0  0  0  0
 25 24  2  0  0  0  0
 26 27  1  0  0  0  0
 27 24  1  0  0  0  0
M  END
>  <MODEL>
7

>  <REMARK>
 VINA RESULT:      -8.4      3.196      5.441
  Name = 
  6 active torsions:
  status: ('A' for Active; 'I' for Inactive)
    1  A    between atoms: N_3  and  C_13
    2  A    between atoms: C_7  and  N_16
    3  A    between atoms: C_11  and  C_27
    4  A    between atoms: C_13  and  C_21
    5  A    between atoms: C_15  and  C_20
    6  A    between atoms: N_16  and  C_21
                            x       y       z     vdW  Elec       q    Type
                         _______ _______ _______ _____ _____    ______ ____

>  <TORSDO>
F 6

$$$$
=
 OpenBabel11042412293D

 27 29  0  0  1  0  0  0  0  0999 V2000
  189.7600  177.4970  146.1640 C   0  0  0  0  0  0  0  0  0  0  0  0
  185.3510  178.4720  145.6500 C   0  0  0  0  0  0  0  0  0  0  0  0
  191.1570  177.1260  145.8200 C   0  0  0  0  0  1  0  0  0  0  0  0
  189.4440  177.7310  147.4130 N   0  0  0  0  0  0  0  0  0  0  0  0
  184.0450  178.7320  145.2430 C   0  0  0  0  0  3  0  0  0  0  0  0
  186.0750  178.0080  143.3800 C   0  0  0  0  0  0  0  0  0  0  0  0
  188.1050  178.1080  147.9120 C   0  0  2  0  0  3  0  0  0  0  0  0
  188.7790  177.5910  145.1180 N   0  0  0  0  0  2  0  0  0  0  0  0
  183.7450  178.6280  143.8680 C   0  0  0  0  0  0  0  0  0  0  0  0
  186.3300  178.1220  144.7460 C   0  0  0  0  0  0  0  0  0  0  0  0
  184.7590  178.2680  142.9470 C   0  0  0  0  0  3  0  0  0  0  0  0
  187.6600  177.1300  148.8890 N   0  0  0  0  0  1  0  0  0  0  0  0
  185.8310  178.5150  146.8780 O   0  0  0  0  0  0  0  0  0  0  0  0
  187.1100  178.1980  146.7990 C   0  0  0  0  0  0  0  0  0  0  0  0
  187.4600  177.9480  145.5020 C   0  0  0  0  0  0  0  0  0  0  0  0
  182.3770  178.8950  143.3960 C   0  0  0  0  0  0  0  0  0  0  0  0
  182.1200  179.0400  142.0370 O   0  0  0  0  0  0  0  0  0  0  0  0
  181.4260  178.9970  144.2170 O   0  0  0  0  0  1  0  0  0  0  0  0
  187.1160  177.6450  142.4680 N   0  0  0  0  0  2  0  0  0  0  0  0
  187.5700  178.5080  141.3850 C   0  0  0  0  0  2  0  0  0  0  0  0
  189.8530  177.4540  141.4570 C   0  0  0  0  0  1  0  0  0  0  0  0
  188.6680  177.8240  140.5800 C   0  0  2  0  0  3  0  0  0  0  0  0
  189.0890  178.6570  139.4560 N   0  0  0  0  0  2  0  0  0  0  0  0
  188.5960  178.5670  138.1120 C   0  0  0  0  0  0  0  0  0  0  0  0
  189.0540  179.3780  137.2190 N   0  0  0  0  0  2  0  0  0  0  0  0
  186.1870  178.0630  137.9090 C   0  0  0  0  0  1  0  0  0  0  0  0
  187.5950  177.5340  137.7130 C   0  0  0  0  0  2  0  0  0  0  0  0
  1  4  2  0  0  0  0
  2 13  1  0  0  0  0
  3  1  1  0  0  0  0
  4  7  1  0  0  0  0
  5  2  1  0  0  0  0
  6 10  1  0  0  0  0
  7 12  1  1  0  0  0
  8 15  1  0  0  0  0
  8  1  1  0  0  0  0
  9  5  2  0  0  0  0
 10 15  1  0  0  0  0
 10  2  2  0  0  0  0
 11  6  2  0  0  0  0
 11  9  1  0  0  0  0
 14 13  1  0  0  0  0
 14  7  1  0  0  0  0
 15 14  2  0  0  0  0
 16  9  1  0  0  0  0
 16 18  1  0  0  0  0
 17 16  2  0  0  0  0
 19  6  1  0  0  0  0
 20 19  1  0  0  0  0
 22 20  1  0  0  0  0
 22 21  1  1  0  0  0
 23 22  1  0  0  0  0
 24 23  1  0  0  0  0
 25 24  2  0  0  0  0
 27 26  1  0  0  0  0
 27 24  1  0  0  0  0
M  END
>  <MODEL>
8

>  <REMARK>
 VINA RESULT:      -8.3      2.217      6.860
  Name = 
  6 active torsions:
  status: ('A' for Active; 'I' for Inactive)
    1  A    between atoms: N_3  and  C_13
    2  A    between atoms: C_7  and  N_16
    3  A    between atoms: C_11  and  C_27
    4  A    between atoms: C_13  and  C_21
    5  A    between atoms: C_15  and  C_20
    6  A    between atoms: N_16  and  C_21
                            x       y       z     vdW  Elec       q    Type
                         _______ _______ _______ _____ _____    ______ ____

>  <TORSDO>
F 6

$$$$
=
 OpenBabel11042412293D

 27 29  0  0  1  0  0  0  0  0999 V2000
  190.2980  177.5050  141.2140 C   0  0  0  0  0  0  0  0  0  0  0  0
  185.8720  178.5380  141.1980 C   0  0  0  0  0  0  0  0  0  0  0  0
  191.6390  177.1140  141.7230 C   0  0  0  0  0  1  0  0  0  0  0  0
  190.1350  177.7330  139.9360 N   0  0  0  0  0  0  0  0  0  0  0  0
  184.5300  178.8100  141.4450 C   0  0  0  0  0  3  0  0  0  0  0  0
  186.3190  178.0890  143.5410 C   0  0  0  0  0  0  0  0  0  0  0  0
  188.8710  178.1270  139.2800 C   0  0  2  0  0  3  0  0  0  0  0  0
  189.2030  177.6260  142.1380 N   0  0  0  0  0  2  0  0  0  0  0  0
  184.0670  178.7190  142.7750 C   0  0  0  0  0  0  0  0  0  0  0  0
  186.7350  178.1900  142.2140 C   0  0  0  0  0  0  0  0  0  0  0  0
  184.9630  178.3600  143.8120 C   0  0  0  0  0  3  0  0  0  0  0  0
  189.0540  179.3960  138.5980 N   0  0  0  0  0  1  0  0  0  0  0  0
  186.4950  178.5660  140.0350 O   0  0  0  0  0  0  0  0  0  0  0  0
  187.7540  178.2430  140.2680 C   0  0  0  0  0  0  0  0  0  0  0  0
  187.9450  178.0030  141.5990 C   0  0  0  0  0  0  0  0  0  0  0  0
  182.6550  178.9990  143.0790 C   0  0  0  0  0  0  0  0  0  0  0  0
  182.1940  178.9360  144.3900 O   0  0  0  0  0  1  0  0  0  0  0  0
  181.8500  179.2970  142.1570 O   0  0  0  0  0  0  0  0  0  0  0  0
  187.2400  177.7230  144.5730 N   0  0  0  0  0  2  0  0  0  0  0  0
  186.9630  177.8950  145.9930 C   0  0  0  0  0  2  0  0  0  0  0  0
  188.1820  178.2520  148.1640 C   0  0  0  0  0  1  0  0  0  0  0  0
  188.1860  177.5320  146.8250 C   0  0  2  0  0  3  0  0  0  0  0  0
  189.4190  177.8010  146.0910 N   0  0  0  0  0  2  0  0  0  0  0  0
  190.6730  177.1280  146.2790 C   0  0  0  0  0  0  0  0  0  0  0  0
  191.6820  177.4650  145.5480 N   0  0  0  0  0  2  0  0  0  0  0  0
  192.2990  175.6390  147.3890 C   0  0  0  0  0  1  0  0  0  0  0  0
  190.8480  176.0760  147.3230 C   0  0  0  0  0  2  0  0  0  0  0  0
  1  3  1  0  0  0  0
  1  8  1  0  0  0  0
  2  5  2  0  0  0  0
  2 10  1  0  0  0  0
  4  1  2  0  0  0  0
  5  9  1  0  0  0  0
  6 11  1  0  0  0  0
  6 19  1  0  0  0  0
  7 12  1  1  0  0  0
  7  4  1  0  0  0  0
  7 14  1  0  0  0  0
  9 16  1  0  0  0  0
  9 11  2  0  0  0  0
 10  6  2  0  0  0  0
 13 14  1  0  0  0  0
 13  2  1  0  0  0  0
 14 15  2  0  0  0  0
 15  8  1  0  0  0  0
 15 10  1  0  0  0  0
 16 17  1  0  0  0  0
 18 16  2  0  0  0  0
 19 20  1  0  0  0  0
 20 22  1  0  0  0  0
 22 21  1  1  0  0  0
 23 24  1  0  0  0  0
 23 22  1  0  0  0  0
 24 27  1  0  0  0  0
 25 24  2  0  0  0  0
 27 26  1  0  0  0  0
M  END
>  <MODEL>
9

>  <REMARK>
 VINA RESULT:      -8.2      1.872      2.943
  Name = 
  6 active torsions:
  status: ('A' for Active; 'I' for Inactive)
    1  A    between atoms: N_3  and  C_13
    2  A    between atoms: C_7  and  N_16
    3  A    between atoms: C_11  and  C_27
    4  A    between atoms: C_13  and  C_21
    5  A    between atoms: C_15  and  C_20
    6  A    between atoms: N_16  and  C_21
                            x       y       z     vdW  Elec       q    Type
                         _______ _______ _______ _____ _____    ______ ____

>  <TORSDO>
F 6

$$$$
