=
 OpenBabel11032420243D

 39 42  0  0  1  0  0  0  0  0999 V2000
  188.5090  176.8330  144.3440 N   0  0  0  0  0  2  0  0  0  0  0  0
  188.5340  177.9400  142.1400 C   0  0  0  0  0  0  0  0  0  0  0  0
  188.3040  177.5630  145.5880 C   0  0  2  0  0  3  0  0  0  0  0  0
  187.3780  178.7650  142.4880 C   0  0  0  0  0  3  0  0  0  0  0  0
  185.1280  179.6120  142.2010 C   0  0  0  0  0  2  0  0  0  0  0  0
  190.5570  177.0840  146.6980 N   0  0  0  0  0  2  0  0  0  0  0  0
  186.3720  178.9870  141.6500 C   0  0  0  0  0  0  0  0  0  0  0  0
  188.6620  177.4360  140.9030 C   0  0  0  0  0  3  0  0  0  0  0  0
  184.5780  178.7350  143.3330 C   0  0  1  0  0  3  0  0  0  0  0  0
  188.5860  176.2050  147.5560 O   0  0  0  0  0  0  0  0  0  0  0  0
  191.4130  176.8260  144.4230 C   0  0  0  0  0  2  0  0  0  0  0  0
  185.1240  179.1350  144.6750 C   0  0  0  0  0  3  0  0  0  0  0  0
  185.9930  178.3770  145.3010 C   0  0  0  0  0  0  0  0  0  0  0  0
  189.1340  176.9280  146.6770 C   0  0  0  0  0  0  0  0  0  0  0  0
  189.2740  177.3760  143.2690 C   0  0  0  0  0  0  0  0  0  0  0  0
  190.6120  177.3720  143.2860 C   0  0  0  0  0  3  0  0  0  0  0  0
  185.4520  178.5650  139.5040 O   0  0  0  0  0  0  0  0  0  0  0  0
  191.3120  177.7370  145.6370 C   0  0  0  0  0  2  0  0  0  0  0  0
  187.7050  177.7860  139.7820 C   0  0  1  0  0  3  0  0  0  0  0  0
  186.4370  178.4480  140.2760 C   0  0  0  0  0  0  0  0  0  0  0  0
  186.8400  177.6030  145.9310 C   0  0  0  0  0  3  0  0  0  0  0  0
  183.0870  178.6790  143.3110 C   0  0  0  0  0  0  0  0  0  0  0  0
  182.4220  178.6810  144.3860 O   0  0  0  0  0  0  0  0  0  0  0  0
  182.4260  178.6950  142.0480 N   0  0  0  0  0  2  0  0  0  0  0  0
  180.9780  178.6380  141.9090 C   0  0  0  0  0  2  0  0  0  0  0  0
  180.0810  180.6350  142.8820 O   0  0  0  0  0  0  0  0  0  0  0  0
  180.4150  180.0190  141.8270 C   0  0  0  0  0  0  0  0  0  0  0  0
  180.2520  180.6120  140.5710 O   0  0  0  0  0  0  0  0  0  0  0  0
  179.1560  181.4740  140.2880 C   0  0  0  0  0  1  0  0  0  0  0  0
  188.3690  178.6230  138.7970 N   0  0  0  0  0  2  0  0  0  0  0  0
  189.7410  178.1350  138.7170 C   0  0  0  0  0  2  0  0  0  0  0  0
  189.1110  177.7840  136.3350 C   0  0  0  0  0  3  0  0  0  0  0  0
  189.3180  177.2130  135.0750 C   0  0  0  0  0  3  0  0  0  0  0  0
  190.3970  176.3510  134.8660 C   0  0  0  0  0  3  0  0  0  0  0  0
  191.2710  176.0530  135.9200 C   0  0  0  0  0  3  0  0  0  0  0  0
  189.9820  177.4930  137.3930 C   0  0  0  0  0  0  0  0  0  0  0  0
  191.0630  176.6150  137.1870 C   0  0  0  0  0  0  0  0  0  0  0  0
  193.3700  176.6530  137.9110 N   0  0  0  0  0  1  0  0  0  0  0  0
  192.0130  176.2760  138.2910 C   0  0  0  0  0  2  0  0  0  0  0  0
  1  3  1  0  0  0  0
  2  4  1  0  0  0  0
  2 15  1  0  0  0  0
  3 21  1  1  0  0  0
  3 14  1  0  0  0  0
  5  9  1  0  0  0  0
  7  5  1  0  0  0  0
  7  4  2  0  0  0  0
  8  2  2  0  0  0  0
  9 22  1  1  0  0  0
  9 12  1  0  0  0  0
 11 18  1  0  0  0  0
 12 13  2  0  0  0  0
 13 21  2  0  0  0  0
 14  6  1  0  0  0  0
 14 10  2  0  0  0  0
 15 16  2  0  0  0  0
 15  1  1  0  0  0  0
 16 11  1  0  0  0  0
 17 20  2  0  0  0  0
 18  6  1  0  0  0  0
 19 30  1  6  0  0  0
 19 20  1  0  0  0  0
 19  8  1  0  0  0  0
 20  7  1  0  0  0  0
 22 23  2  0  0  0  0
 24 22  1  0  0  0  0
 25 24  1  0  0  0  0
 27 25  1  0  0  0  0
 27 26  2  0  0  0  0
 28 27  1  0  0  0  0
 29 28  1  0  0  0  0
 31 30  1  0  0  0  0
 32 36  1  0  0  0  0
 33 32  2  0  0  0  0
 34 33  1  0  0  0  0
 34 35  2  0  0  0  0
 35 37  1  0  0  0  0
 36 31  1  0  0  0  0
 37 36  2  0  0  0  0
 37 39  1  0  0  0  0
 38 39  1  0  0  0  0
M  END
>  <MODEL>
1

>  <REMARK>
 VINA RESULT:      -9.1      0.000      0.000
  Name = 
  8 active torsions:
  status: ('A' for Active; 'I' for Inactive)
    1  A    between atoms: N_3  and  C_8
    2  A    between atoms: N_3  and  C_30
    3  A    between atoms: C_8  and  C_35
    4  A    between atoms: C_10  and  C_31
    5  A    between atoms: C_10  and  N_37
    6  A    between atoms: O_15  and  C_31
    7  A    between atoms: C_17  and  C_23
    8  A    between atoms: C_27  and  C_39
                            x       y       z     vdW  Elec       q    Type
                         _______ _______ _______ _____ _____    ______ ____

>  <TORSDO>
F 8

$$$$
=
 OpenBabel11032420243D

 39 42  0  0  1  0  0  0  0  0999 V2000
  184.5320  177.6760  141.9290 N   0  0  0  0  0  2  0  0  0  0  0  0
  186.9370  178.0960  142.2870 C   0  0  0  0  0  0  0  0  0  0  0  0
  183.6790  178.5870  141.1790 C   0  0  2  0  0  3  0  0  0  0  0  0
  187.1180  178.5190  140.8990 C   0  0  0  0  0  3  0  0  0  0  0  0
  188.0980  178.4050  138.6880 C   0  0  0  0  0  2  0  0  0  0  0  0
  182.0700  179.2490  143.0520 N   0  0  0  0  0  2  0  0  0  0  0  0
  188.1550  178.1400  140.1600 C   0  0  0  0  0  0  0  0  0  0  0  0
  187.8760  177.3620  142.9040 C   0  0  0  0  0  3  0  0  0  0  0  0
  186.8570  177.7220  138.0970 C   0  0  1  0  0  3  0  0  0  0  0  0
  181.3480  177.9880  141.2400 O   0  0  0  0  0  0  0  0  0  0  0  0
  183.9120  178.7190  144.5690 C   0  0  0  0  0  2  0  0  0  0  0  0
  185.6590  178.6290  138.0960 C   0  0  0  0  0  3  0  0  0  0  0  0
  184.6590  178.4220  138.9200 C   0  0  0  0  0  0  0  0  0  0  0  0
  182.3030  178.5990  141.7970 C   0  0  0  0  0  0  0  0  0  0  0  0
  185.5650  178.1500  142.7930 C   0  0  0  0  0  0  0  0  0  0  0  0
  185.2960  178.6250  144.0150 C   0  0  0  0  0  3  0  0  0  0  0  0
  190.1550  176.8680  140.0580 O   0  0  0  0  0  0  0  0  0  0  0  0
  183.1290  179.8210  143.8720 C   0  0  0  0  0  2  0  0  0  0  0  0
  189.2080  177.0410  142.2560 C   0  0  1  0  0  3  0  0  0  0  0  0
  189.2200  177.3160  140.7690 C   0  0  0  0  0  0  0  0  0  0  0  0
  183.6520  178.1950  139.7270 C   0  0  0  0  0  3  0  0  0  0  0  0
  187.1390  177.1380  136.7530 C   0  0  0  0  0  0  0  0  0  0  0  0
  186.2890  176.4000  136.1770 O   0  0  0  0  0  0  0  0  0  0  0  0
  188.3570  177.4880  136.1030 N   0  0  0  0  0  2  0  0  0  0  0  0
  188.7360  176.9720  134.7950 C   0  0  0  0  0  2  0  0  0  0  0  0
  190.9180  175.9820  134.7730 O   0  0  0  0  0  0  0  0  0  0  0  0
  189.6740  175.8200  134.9500 C   0  0  0  0  0  0  0  0  0  0  0  0
  189.1570  174.5630  135.2800 O   0  0  0  0  0  0  0  0  0  0  0  0
  189.3160  174.0060  136.5790 C   0  0  0  0  0  1  0  0  0  0  0  0
  190.2780  177.7670  142.9200 N   0  0  0  0  0  2  0  0  0  0  0  0
  189.7020  178.2870  144.1550 C   0  0  0  0  0  2  0  0  0  0  0  0
  191.4910  176.9810  145.2890 C   0  0  0  0  0  3  0  0  0  0  0  0
  191.9880  176.2510  146.3740 C   0  0  0  0  0  3  0  0  0  0  0  0
  191.1870  176.0370  147.4980 C   0  0  0  0  0  3  0  0  0  0  0  0
  189.8830  176.5500  147.5380 C   0  0  0  0  0  3  0  0  0  0  0  0
  190.1900  177.4990  145.3220 C   0  0  0  0  0  0  0  0  0  0  0  0
  189.3780  177.2730  146.4500 C   0  0  0  0  0  0  0  0  0  0  0  0
  187.6850  178.2310  147.8860 N   0  0  0  0  0  1  0  0  0  0  0  0
  187.9820  177.8050  146.5240 C   0  0  0  0  0  2  0  0  0  0  0  0
  1 15  1  0  0  0  0
  2 15  1  0  0  0  0
  2  8  2  0  0  0  0
  3 21  1  6  0  0  0
  3 14  1  0  0  0  0
  3  1  1  0  0  0  0
  4  2  1  0  0  0  0
  5  7  1  0  0  0  0
  6 18  1  0  0  0  0
  7 20  1  0  0  0  0
  7  4  2  0  0  0  0
  9 22  1  6  0  0  0
  9  5  1  0  0  0  0
 10 14  2  0  0  0  0
 12  9  1  0  0  0  0
 12 13  2  0  0  0  0
 13 21  2  0  0  0  0
 14  6  1  0  0  0  0
 15 16  2  0  0  0  0
 16 11  1  0  0  0  0
 17 20  2  0  0  0  0
 18 11  1  0  0  0  0
 19  8  1  0  0  0  0
 19 30  1  1  0  0  0
 20 19  1  0  0  0  0
 23 22  2  0  0  0  0
 24 22  1  0  0  0  0
 25 27  1  0  0  0  0
 25 24  1  0  0  0  0
 26 27  2  0  0  0  0
 27 28  1  0  0  0  0
 28 29  1  0  0  0  0
 30 31  1  0  0  0  0
 31 36  1  0  0  0  0
 32 36  2  0  0  0  0
 32 33  1  0  0  0  0
 33 34  2  0  0  0  0
 34 35  1  0  0  0  0
 36 37  1  0  0  0  0
 37 39  1  0  0  0  0
 37 35  2  0  0  0  0
 39 38  1  0  0  0  0
M  END
>  <MODEL>
2

>  <REMARK>
 VINA RESULT:      -9.0      2.579      8.326
  Name = 
  8 active torsions:
  status: ('A' for Active; 'I' for Inactive)
    1  A    between atoms: N_3  and  C_8
    2  A    between atoms: N_3  and  C_30
    3  A    between atoms: C_8  and  C_35
    4  A    between atoms: C_10  and  C_31
    5  A    between atoms: C_10  and  N_37
    6  A    between atoms: O_15  and  C_31
    7  A    between atoms: C_17  and  C_23
    8  A    between atoms: C_27  and  C_39
                            x       y       z     vdW  Elec       q    Type
                         _______ _______ _______ _____ _____    ______ ____

>  <TORSDO>
F 8

$$$$
=
 OpenBabel11032420243D

 39 42  0  0  1  0  0  0  0  0999 V2000
  188.6350  176.7170  144.4180 N   0  0  0  0  0  2  0  0  0  0  0  0
  188.9090  177.7690  142.2040 C   0  0  0  0  0  0  0  0  0  0  0  0
  188.3220  177.4810  145.6180 C   0  0  2  0  0  3  0  0  0  0  0  0
  187.7430  178.6250  142.4130 C   0  0  0  0  0  3  0  0  0  0  0  0
  185.5530  179.5100  141.8790 C   0  0  0  0  0  2  0  0  0  0  0  0
  190.4390  176.9850  146.9620 N   0  0  0  0  0  2  0  0  0  0  0  0
  186.8320  178.8470  141.4720 C   0  0  0  0  0  0  0  0  0  0  0  0
  189.1510  177.2320  140.9980 C   0  0  0  0  0  3  0  0  0  0  0  0
  184.8720  178.6720  142.9680 C   0  0  1  0  0  3  0  0  0  0  0  0
  188.3720  176.1660  147.6340 O   0  0  0  0  0  0  0  0  0  0  0  0
  191.5150  176.6540  144.7930 C   0  0  0  0  0  2  0  0  0  0  0  0
  185.2870  179.0940  144.3500 C   0  0  0  0  0  3  0  0  0  0  0  0
  186.0710  178.3340  145.0780 C   0  0  0  0  0  0  0  0  0  0  0  0
  189.0220  176.8570  146.7990 C   0  0  0  0  0  0  0  0  0  0  0  0
  189.5180  177.2180  143.4140 C   0  0  0  0  0  0  0  0  0  0  0  0
  190.8470  177.1870  143.5680 C   0  0  0  0  0  3  0  0  0  0  0  0
  186.1260  178.3900  139.2540 O   0  0  0  0  0  0  0  0  0  0  0  0
  191.3130  177.5950  145.9700 C   0  0  0  0  0  2  0  0  0  0  0  0
  188.3210  177.5740  139.7770 C   0  0  1  0  0  3  0  0  0  0  0  0
  187.0250  178.2730  140.1240 C   0  0  0  0  0  0  0  0  0  0  0  0
  186.8320  177.5580  145.8090 C   0  0  0  0  0  3  0  0  0  0  0  0
  183.3890  178.6450  142.7950 C   0  0  0  0  0  0  0  0  0  0  0  0
  182.6180  178.8160  143.7820 O   0  0  0  0  0  0  0  0  0  0  0  0
  182.8630  178.4930  141.4800 N   0  0  0  0  0  2  0  0  0  0  0  0
  181.4350  178.4470  141.1960 C   0  0  0  0  0  2  0  0  0  0  0  0
  181.3780  179.9750  139.3510 O   0  0  0  0  0  0  0  0  0  0  0  0
  181.0030  179.7140  140.5320 C   0  0  0  0  0  0  0  0  0  0  0  0
  180.1940  180.6090  141.2390 O   0  0  0  0  0  0  0  0  0  0  0  0
  179.6840  180.2970  142.5300 C   0  0  0  0  0  1  0  0  0  0  0  0
  189.1000  178.3730  138.8470 N   0  0  0  0  0  2  0  0  0  0  0  0
  188.9880  177.7050  137.5540 C   0  0  0  0  0  2  0  0  0  0  0  0
  191.2780  176.7600  137.7810 C   0  0  0  0  0  3  0  0  0  0  0  0
  192.1820  175.6930  137.7470 C   0  0  0  0  0  3  0  0  0  0  0  0
  191.7380  174.4100  137.4230 C   0  0  0  0  0  3  0  0  0  0  0  0
  190.3850  174.1890  137.1290 C   0  0  0  0  0  3  0  0  0  0  0  0
  189.9240  176.5480  137.4900 C   0  0  0  0  0  0  0  0  0  0  0  0
  189.4770  175.2560  137.1530 C   0  0  0  0  0  0  0  0  0  0  0  0
  187.8590  174.9350  135.3860 N   0  0  0  0  0  1  0  0  0  0  0  0
  188.0410  174.9880  136.8310 C   0  0  0  0  0  2  0  0  0  0  0  0
  1  3  1  0  0  0  0
  2  4  1  0  0  0  0
  2 15  1  0  0  0  0
  3 21  1  1  0  0  0
  3 14  1  0  0  0  0
  5  9  1  0  0  0  0
  7  5  1  0  0  0  0
  7  4  2  0  0  0  0
  8  2  2  0  0  0  0
  9 22  1  1  0  0  0
  9 12  1  0  0  0  0
 11 18  1  0  0  0  0
 12 13  2  0  0  0  0
 13 21  2  0  0  0  0
 14  6  1  0  0  0  0
 14 10  2  0  0  0  0
 15 16  2  0  0  0  0
 15  1  1  0  0  0  0
 16 11  1  0  0  0  0
 17 20  2  0  0  0  0
 18  6  1  0  0  0  0
 19 30  1  6  0  0  0
 19 20  1  0  0  0  0
 19  8  1  0  0  0  0
 20  7  1  0  0  0  0
 22 23  2  0  0  0  0
 24 22  1  0  0  0  0
 25 24  1  0  0  0  0
 26 27  2  0  0  0  0
 27 25  1  0  0  0  0
 27 28  1  0  0  0  0
 28 29  1  0  0  0  0
 31 30  1  0  0  0  0
 33 32  1  0  0  0  0
 34 33  2  0  0  0  0
 35 37  2  0  0  0  0
 35 34  1  0  0  0  0
 36 31  1  0  0  0  0
 36 32  2  0  0  0  0
 37 36  1  0  0  0  0
 38 39  1  0  0  0  0
 39 37  1  0  0  0  0
M  END
>  <MODEL>
3

>  <REMARK>
 VINA RESULT:      -8.9      1.296      1.897
  Name = 
  8 active torsions:
  status: ('A' for Active; 'I' for Inactive)
    1  A    between atoms: N_3  and  C_8
    2  A    between atoms: N_3  and  C_30
    3  A    between atoms: C_8  and  C_35
    4  A    between atoms: C_10  and  C_31
    5  A    between atoms: C_10  and  N_37
    6  A    between atoms: O_15  and  C_31
    7  A    between atoms: C_17  and  C_23
    8  A    between atoms: C_27  and  C_39
                            x       y       z     vdW  Elec       q    Type
                         _______ _______ _______ _____ _____    ______ ____

>  <TORSDO>
F 8

$$$$
=
 OpenBabel11032420243D

 39 42  0  0  1  0  0  0  0  0999 V2000
  183.8110  177.6360  141.4340 N   0  0  0  0  0  2  0  0  0  0  0  0
  186.0370  178.1440  142.3670 C   0  0  0  0  0  0  0  0  0  0  0  0
  183.1430  178.5060  140.4750 C   0  0  2  0  0  3  0  0  0  0  0  0
  186.5450  178.5540  141.0580 C   0  0  0  0  0  3  0  0  0  0  0  0
  188.0460  178.4440  139.1620 C   0  0  0  0  0  2  0  0  0  0  0  0
  181.1000  179.1370  141.8760 N   0  0  0  0  0  2  0  0  0  0  0  0
  187.7430  178.2010  140.6070 C   0  0  0  0  0  0  0  0  0  0  0  0
  186.8160  177.4520  143.2130 C   0  0  0  0  0  3  0  0  0  0  0  0
  187.0120  177.7110  138.2970 C   0  0  1  0  0  3  0  0  0  0  0  0
  180.8890  177.8270  139.9700 O   0  0  0  0  0  0  0  0  0  0  0  0
  182.5230  178.6930  143.8130 C   0  0  0  0  0  2  0  0  0  0  0  0
  185.8240  178.5750  137.9790 C   0  0  0  0  0  3  0  0  0  0  0  0
  184.6580  178.3450  138.5340 C   0  0  0  0  0  0  0  0  0  0  0  0
  181.6570  178.4780  140.7330 C   0  0  0  0  0  0  0  0  0  0  0  0
  184.5820  178.1570  142.5160 C   0  0  0  0  0  0  0  0  0  0  0  0
  184.0030  178.6390  143.6220 C   0  0  0  0  0  3  0  0  0  0  0  0
  189.7440  176.9990  141.0320 O   0  0  0  0  0  0  0  0  0  0  0  0
  181.9040  179.7570  142.9210 C   0  0  0  0  0  2  0  0  0  0  0  0
  188.2760  177.1690  142.9230 C   0  0  1  0  0  3  0  0  0  0  0  0
  188.6490  177.4240  141.4790 C   0  0  0  0  0  0  0  0  0  0  0  0
  183.4900  178.0930  139.0710 C   0  0  0  0  0  3  0  0  0  0  0  0
  187.6360  177.1180  137.0780 C   0  0  0  0  0  0  0  0  0  0  0  0
  187.2270  177.4310  135.9230 O   0  0  0  0  0  0  0  0  0  0  0  0
  188.7510  176.2460  137.2420 N   0  0  0  0  0  2  0  0  0  0  0  0
  189.4320  175.6070  136.1250 C   0  0  0  0  0  2  0  0  0  0  0  0
  190.6280  174.0190  137.4620 O   0  0  0  0  0  0  0  0  0  0  0  0
  190.6830  174.9440  136.5980 C   0  0  0  0  0  0  0  0  0  0  0  0
  191.9130  175.3680  136.0840 O   0  0  0  0  0  0  0  0  0  0  0  0
  192.9290  175.9040  136.9230 C   0  0  0  0  0  1  0  0  0  0  0  0
  189.1250  177.9410  143.8150 N   0  0  0  0  0  2  0  0  0  0  0  0
  189.6220  176.9970  144.8100 C   0  0  0  0  0  2  0  0  0  0  0  0
  187.8610  177.9020  146.3170 C   0  0  0  0  0  3  0  0  0  0  0  0
  187.3860  178.2650  147.5810 C   0  0  0  0  0  3  0  0  0  0  0  0
  188.2020  178.1170  148.7050 C   0  0  0  0  0  3  0  0  0  0  0  0
  189.5010  177.6070  148.5660 C   0  0  0  0  0  3  0  0  0  0  0  0
  189.1570  177.3900  146.1700 C   0  0  0  0  0  0  0  0  0  0  0  0
  189.9850  177.2510  147.3000 C   0  0  0  0  0  0  0  0  0  0  0  0
  192.1500  177.0880  148.3630 N   0  0  0  0  0  1  0  0  0  0  0  0
  191.3760  176.7130  147.1860 C   0  0  0  0  0  2  0  0  0  0  0  0
  1 15  1  0  0  0  0
  2 15  1  0  0  0  0
  2  8  2  0  0  0  0
  3 21  1  6  0  0  0
  3 14  1  0  0  0  0
  3  1  1  0  0  0  0
  4  2  1  0  0  0  0
  5  7  1  0  0  0  0
  6 18  1  0  0  0  0
  7  4  2  0  0  0  0
  7 20  1  0  0  0  0
  9 22  1  6  0  0  0
  9  5  1  0  0  0  0
 10 14  2  0  0  0  0
 12  9  1  0  0  0  0
 12 13  2  0  0  0  0
 13 21  2  0  0  0  0
 14  6  1  0  0  0  0
 15 16  2  0  0  0  0
 16 11  1  0  0  0  0
 17 20  2  0  0  0  0
 18 11  1  0  0  0  0
 19  8  1  0  0  0  0
 19 30  1  1  0  0  0
 20 19  1  0  0  0  0
 22 24  1  0  0  0  0
 23 22  2  0  0  0  0
 25 27  1  0  0  0  0
 25 24  1  0  0  0  0
 27 26  2  0  0  0  0
 28 27  1  0  0  0  0
 28 29  1  0  0  0  0
 30 31  1  0  0  0  0
 31 36  1  0  0  0  0
 32 33  1  0  0  0  0
 33 34  2  0  0  0  0
 35 34  1  0  0  0  0
 36 32  2  0  0  0  0
 36 37  1  0  0  0  0
 37 35  2  0  0  0  0
 39 37  1  0  0  0  0
 39 38  1  0  0  0  0
M  END
>  <MODEL>
4

>  <REMARK>
 VINA RESULT:      -8.8      2.606      8.910
  Name = 
  8 active torsions:
  status: ('A' for Active; 'I' for Inactive)
    1  A    between atoms: N_3  and  C_8
    2  A    between atoms: N_3  and  C_30
    3  A    between atoms: C_8  and  C_35
    4  A    between atoms: C_10  and  C_31
    5  A    between atoms: C_10  and  N_37
    6  A    between atoms: O_15  and  C_31
    7  A    between atoms: C_17  and  C_23
    8  A    between atoms: C_27  and  C_39
                            x       y       z     vdW  Elec       q    Type
                         _______ _______ _______ _____ _____    ______ ____

>  <TORSDO>
F 8

$$$$
=
 OpenBabel11032420243D

 39 42  0  0  1  0  0  0  0  0999 V2000
  185.4460  179.2860  142.3980 N   0  0  0  0  0  2  0  0  0  0  0  0
  187.3110  178.1220  141.2790 C   0  0  0  0  0  0  0  0  0  0  0  0
  184.4950  178.5990  143.2600 C   0  0  2  0  0  3  0  0  0  0  0  0
  187.6210  177.3580  142.4870 C   0  0  0  0  0  3  0  0  0  0  0  0
  189.0460  176.6050  144.2940 C   0  0  0  0  0  2  0  0  0  0  0  0
  182.3690  179.0060  141.9000 N   0  0  0  0  0  2  0  0  0  0  0  0
  188.8630  177.1590  142.9160 C   0  0  0  0  0  0  0  0  0  0  0  0
  188.2980  178.5870  140.4970 C   0  0  0  0  0  3  0  0  0  0  0  0
  188.3690  177.5350  145.3090 C   0  0  1  0  0  3  0  0  0  0  0  0
  182.6700  179.9950  143.9800 O   0  0  0  0  0  0  0  0  0  0  0  0
  183.8580  179.1670  139.9680 C   0  0  0  0  0  2  0  0  0  0  0  0
  186.9410  177.1460  145.5680 C   0  0  0  0  0  3  0  0  0  0  0  0
  185.9520  177.8810  145.1170 C   0  0  0  0  0  0  0  0  0  0  0  0
  183.1330  179.2240  143.0910 C   0  0  0  0  0  0  0  0  0  0  0  0
  185.9620  178.6820  141.2120 C   0  0  0  0  0  0  0  0  0  0  0  0
  185.2460  178.6270  140.0830 C   0  0  0  0  0  3  0  0  0  0  0  0
  191.1720  177.5660  142.5540 O   0  0  0  0  0  0  0  0  0  0  0  0
  182.8770  178.2940  140.7360 C   0  0  0  0  0  2  0  0  0  0  0  0
  189.7540  178.2510  140.7430 C   0  0  1  0  0  3  0  0  0  0  0  0
  189.9980  177.6590  142.1130 C   0  0  0  0  0  0  0  0  0  0  0  0
  184.9690  178.6330  144.6870 C   0  0  0  0  0  3  0  0  0  0  0  0
  189.1700  177.6560  146.5630 C   0  0  0  0  0  0  0  0  0  0  0  0
  188.7030  178.2560  147.5740 O   0  0  0  0  0  0  0  0  0  0  0  0
  190.4430  177.0190  146.6190 N   0  0  0  0  0  2  0  0  0  0  0  0
  191.3100  177.0780  147.7880 C   0  0  0  0  0  2  0  0  0  0  0  0
  192.4180  175.2590  146.6910 O   0  0  0  0  0  0  0  0  0  0  0  0
  192.3490  176.0080  147.7100 C   0  0  0  0  0  0  0  0  0  0  0  0
  193.2310  175.8390  148.7830 O   0  0  0  0  0  0  0  0  0  0  0  0
  193.5270  176.8990  149.6820 C   0  0  0  0  0  1  0  0  0  0  0  0
  190.2460  177.3600  139.7050 N   0  0  0  0  0  2  0  0  0  0  0  0
  189.5570  177.7530  138.4800 C   0  0  0  0  0  2  0  0  0  0  0  0
  190.0850  175.4820  137.6090 C   0  0  0  0  0  3  0  0  0  0  0  0
  189.7530  174.3270  136.8940 C   0  0  0  0  0  3  0  0  0  0  0  0
  188.5110  174.2260  136.2640 C   0  0  0  0  0  3  0  0  0  0  0  0
  187.5960  175.2850  136.3440 C   0  0  0  0  0  3  0  0  0  0  0  0
  189.1760  176.5450  137.6950 C   0  0  0  0  0  0  0  0  0  0  0  0
  187.9270  176.4490  137.0500 C   0  0  0  0  0  0  0  0  0  0  0  0
  186.0670  177.5210  135.9400 N   0  0  0  0  0  1  0  0  0  0  0  0
  186.9300  177.5620  137.1150 C   0  0  0  0  0  2  0  0  0  0  0  0
  1  3  1  0  0  0  0
  2  4  1  0  0  0  0
  3 21  1  1  0  0  0
  4  7  2  0  0  0  0
  5  9  1  0  0  0  0
  6 14  1  0  0  0  0
  7  5  1  0  0  0  0
  8 19  1  0  0  0  0
  8  2  2  0  0  0  0
  9 12  1  0  0  0  0
  9 22  1  1  0  0  0
 11 16  1  0  0  0  0
 11 18  1  0  0  0  0
 13 12  2  0  0  0  0
 14  3  1  0  0  0  0
 14 10  2  0  0  0  0
 15  2  1  0  0  0  0
 15  1  1  0  0  0  0
 16 15  2  0  0  0  0
 18  6  1  0  0  0  0
 19 30  1  6  0  0  0
 19 20  1  0  0  0  0
 20 17  2  0  0  0  0
 20  7  1  0  0  0  0
 21 13  2  0  0  0  0
 22 24  1  0  0  0  0
 22 23  2  0  0  0  0
 24 25  1  0  0  0  0
 26 27  2  0  0  0  0
 27 25  1  0  0  0  0
 27 28  1  0  0  0  0
 28 29  1  0  0  0  0
 31 30  1  0  0  0  0
 32 36  1  0  0  0  0
 33 32  2  0  0  0  0
 34 35  2  0  0  0  0
 34 33  1  0  0  0  0
 35 37  1  0  0  0  0
 36 31  1  0  0  0  0
 37 39  1  0  0  0  0
 37 36  2  0  0  0  0
 38 39  1  0  0  0  0
M  END
>  <MODEL>
5

>  <REMARK>
 VINA RESULT:      -8.7      2.315      7.290
  Name = 
  8 active torsions:
  status: ('A' for Active; 'I' for Inactive)
    1  A    between atoms: N_3  and  C_8
    2  A    between atoms: N_3  and  C_30
    3  A    between atoms: C_8  and  C_35
    4  A    between atoms: C_10  and  C_31
    5  A    between atoms: C_10  and  N_37
    6  A    between atoms: O_15  and  C_31
    7  A    between atoms: C_17  and  C_23
    8  A    between atoms: C_27  and  C_39
                            x       y       z     vdW  Elec       q    Type
                         _______ _______ _______ _____ _____    ______ ____

>  <TORSDO>
F 8

$$$$
=
 OpenBabel11032420243D

 39 42  0  0  1  0  0  0  0  0999 V2000
  186.6020  179.0040  139.9180 N   0  0  0  0  0  2  0  0  0  0  0  0
  185.9030  178.4120  142.2080 C   0  0  0  0  0  0  0  0  0  0  0  0
  186.2680  178.1880  138.7580 C   0  0  2  0  0  3  0  0  0  0  0  0
  184.5610  178.0460  141.7550 C   0  0  0  0  0  3  0  0  0  0  0  0
  182.1460  178.2040  141.7190 C   0  0  0  0  0  2  0  0  0  0  0  0
  188.6340  177.5410  138.0390 N   0  0  0  0  0  2  0  0  0  0  0  0
  183.4590  178.3930  142.4110 C   0  0  0  0  0  0  0  0  0  0  0  0
  186.0760  179.0510  143.3750 C   0  0  0  0  0  3  0  0  0  0  0  0
  182.1460  178.9940  140.4040 C   0  0  1  0  0  3  0  0  0  0  0  0
  187.3200  178.9340  136.7250 O   0  0  0  0  0  0  0  0  0  0  0  0
  189.2380  177.8750  140.3840 C   0  0  0  0  0  2  0  0  0  0  0  0
  182.6370  178.1680  139.2480 C   0  0  0  0  0  3  0  0  0  0  0  0
  183.8100  178.3990  138.7070 C   0  0  0  0  0  0  0  0  0  0  0  0
  187.4100  178.2350  137.7740 C   0  0  0  0  0  0  0  0  0  0  0  0
  186.9400  178.4220  141.1770 C   0  0  0  0  0  0  0  0  0  0  0  0
  188.1530  177.9060  141.4100 C   0  0  0  0  0  3  0  0  0  0  0  0
  182.5420  179.5350  144.2770 O   0  0  0  0  0  0  0  0  0  0  0  0
  188.9200  176.8620  139.2960 C   0  0  0  0  0  2  0  0  0  0  0  0
  184.9310  179.3160  144.3310 C   0  0  1  0  0  3  0  0  0  0  0  0
  183.5740  179.1140  143.6950 C   0  0  0  0  0  0  0  0  0  0  0  0
  184.9710  178.6520  138.1550 C   0  0  0  0  0  3  0  0  0  0  0  0
  180.8200  179.6240  140.1400 C   0  0  0  0  0  0  0  0  0  0  0  0
  179.7640  179.1530  140.6530 O   0  0  0  0  0  0  0  0  0  0  0  0
  180.7780  180.8120  139.3540 N   0  0  0  0  0  2  0  0  0  0  0  0
  179.5400  181.5060  139.0280 C   0  0  0  0  0  2  0  0  0  0  0  0
  179.0830  183.8010  138.5090 O   0  0  0  0  0  0  0  0  0  0  0  0
  179.8420  182.7990  138.3450 C   0  0  0  0  0  0  0  0  0  0  0  0
  180.9630  182.8820  137.5120 O   0  0  0  0  0  0  0  0  0  0  0  0
  181.1800  183.9990  136.6590 C   0  0  0  0  0  1  0  0  0  0  0  0
  185.0680  178.4910  145.5200 N   0  0  0  0  0  2  0  0  0  0  0  0
  186.1270  177.5330  145.2220 C   0  0  0  0  0  2  0  0  0  0  0  0
  186.9270  178.1400  147.4990 C   0  0  0  0  0  3  0  0  0  0  0  0
  187.9320  178.2530  148.4650 C   0  0  0  0  0  3  0  0  0  0  0  0
  189.2430  177.8840  148.1560 C   0  0  0  0  0  3  0  0  0  0  0  0
  189.5540  177.4030  146.8770 C   0  0  0  0  0  3  0  0  0  0  0  0
  187.2280  177.6580  146.2190 C   0  0  0  0  0  0  0  0  0  0  0  0
  188.5520  177.2960  145.9030 C   0  0  0  0  0  0  0  0  0  0  0  0
  190.3670  176.7550  144.4000 N   0  0  0  0  0  1  0  0  0  0  0  0
  188.9160  176.7810  144.5470 C   0  0  0  0  0  2  0  0  0  0  0  0
  1 15  1  0  0  0  0
  2  8  2  0  0  0  0
  3 21  1  6  0  0  0
  3  1  1  0  0  0  0
  4  2  1  0  0  0  0
  4  7  2  0  0  0  0
  5  7  1  0  0  0  0
  6 18  1  0  0  0  0
  7 20  1  0  0  0  0
  8 19  1  0  0  0  0
  9 22  1  6  0  0  0
  9  5  1  0  0  0  0
 10 14  2  0  0  0  0
 11 16  1  0  0  0  0
 12  9  1  0  0  0  0
 13 12  2  0  0  0  0
 14  6  1  0  0  0  0
 14  3  1  0  0  0  0
 15 16  2  0  0  0  0
 15  2  1  0  0  0  0
 18 11  1  0  0  0  0
 19 30  1  1  0  0  0
 20 17  2  0  0  0  0
 20 19  1  0  0  0  0
 21 13  2  0  0  0  0
 22 23  2  0  0  0  0
 24 22  1  0  0  0  0
 25 24  1  0  0  0  0
 27 26  2  0  0  0  0
 27 25  1  0  0  0  0
 28 27  1  0  0  0  0
 29 28  1  0  0  0  0
 31 30  1  0  0  0  0
 31 36  1  0  0  0  0
 32 33  1  0  0  0  0
 34 33  2  0  0  0  0
 35 34  1  0  0  0  0
 36 32  2  0  0  0  0
 37 36  1  0  0  0  0
 37 35  2  0  0  0  0
 38 39  1  0  0  0  0
 39 37  1  0  0  0  0
M  END
>  <MODEL>
6

>  <REMARK>
 VINA RESULT:      -8.6      2.532      7.006
  Name = 
  8 active torsions:
  status: ('A' for Active; 'I' for Inactive)
    1  A    between atoms: N_3  and  C_8
    2  A    between atoms: N_3  and  C_30
    3  A    between atoms: C_8  and  C_35
    4  A    between atoms: C_10  and  C_31
    5  A    between atoms: C_10  and  N_37
    6  A    between atoms: O_15  and  C_31
    7  A    between atoms: C_17  and  C_23
    8  A    between atoms: C_27  and  C_39
                            x       y       z     vdW  Elec       q    Type
                         _______ _______ _______ _____ _____    ______ ____

>  <TORSDO>
F 8

$$$$
=
 OpenBabel11032420243D

 39 42  0  0  1  0  0  0  0  0999 V2000
  188.7050  176.7130  144.6090 N   0  0  0  0  0  2  0  0  0  0  0  0
  189.0540  177.7750  142.4100 C   0  0  0  0  0  0  0  0  0  0  0  0
  188.3340  177.4700  145.7970 C   0  0  2  0  0  3  0  0  0  0  0  0
  187.8690  178.6160  142.5750 C   0  0  0  0  0  3  0  0  0  0  0  0
  185.6920  179.4740  141.9540 C   0  0  0  0  0  2  0  0  0  0  0  0
  190.4010  176.9970  147.2240 N   0  0  0  0  0  2  0  0  0  0  0  0
  186.9950  178.8280  141.5980 C   0  0  0  0  0  0  0  0  0  0  0  0
  189.3510  177.2440  141.2130 C   0  0  0  0  0  3  0  0  0  0  0  0
  184.9780  178.6240  143.0130 C   0  0  1  0  0  3  0  0  0  0  0  0
  188.3190  176.1500  147.8110 O   0  0  0  0  0  0  0  0  0  0  0  0
  191.5680  176.6850  145.0990 C   0  0  0  0  0  2  0  0  0  0  0  0
  185.3320  179.0480  144.4120 C   0  0  0  0  0  3  0  0  0  0  0  0
  186.0950  178.2960  145.1690 C   0  0  0  0  0  0  0  0  0  0  0  0
  188.9940  176.8510  147.0040 C   0  0  0  0  0  0  0  0  0  0  0  0
  189.6210  177.2280  143.6430 C   0  0  0  0  0  0  0  0  0  0  0  0
  190.9420  177.2140  143.8500 C   0  0  0  0  0  3  0  0  0  0  0  0
  186.3840  178.3690  139.3520 O   0  0  0  0  0  0  0  0  0  0  0  0
  191.3060  177.6210  146.2690 C   0  0  0  0  0  2  0  0  0  0  0  0
  188.5660  177.5790  139.9620 C   0  0  1  0  0  3  0  0  0  0  0  0
  187.2490  178.2610  140.2580 C   0  0  0  0  0  0  0  0  0  0  0  0
  186.8370  177.5280  145.9280 C   0  0  0  0  0  3  0  0  0  0  0  0
  183.5040  178.5790  142.7810 C   0  0  0  0  0  0  0  0  0  0  0  0
  182.6930  178.6330  143.7490 O   0  0  0  0  0  0  0  0  0  0  0  0
  183.0300  178.5470  141.4370 N   0  0  0  0  0  2  0  0  0  0  0  0
  181.6160  178.4950  141.0950 C   0  0  0  0  0  2  0  0  0  0  0  0
  180.2040  177.1550  139.6980 O   0  0  0  0  0  0  0  0  0  0  0  0
  181.3840  177.4750  140.0290 C   0  0  0  0  0  0  0  0  0  0  0  0
  182.4870  176.8700  139.4160 O   0  0  0  0  0  0  0  0  0  0  0  0
  182.3720  175.6330  138.7230 C   0  0  0  0  0  1  0  0  0  0  0  0
  189.3720  178.3900  139.0650 N   0  0  0  0  0  2  0  0  0  0  0  0
  189.8450  177.4850  138.0230 C   0  0  0  0  0  2  0  0  0  0  0  0
  188.1700  178.3980  136.4250 C   0  0  0  0  0  3  0  0  0  0  0  0
  187.1790  178.2380  135.4510 C   0  0  0  0  0  3  0  0  0  0  0  0
  186.7960  176.9570  135.0460 C   0  0  0  0  0  3  0  0  0  0  0  0
  187.4010  175.8300  135.6180 C   0  0  0  0  0  3  0  0  0  0  0  0
  188.7810  177.2760  137.0010 C   0  0  0  0  0  0  0  0  0  0  0  0
  188.3870  175.9840  136.6020 C   0  0  0  0  0  0  0  0  0  0  0  0
  188.2320  173.5830  136.8350 N   0  0  0  0  0  1  0  0  0  0  0  0
  189.0120  174.7620  137.1950 C   0  0  0  0  0  2  0  0  0  0  0  0
  1  3  1  0  0  0  0
  2  4  1  0  0  0  0
  2 15  1  0  0  0  0
  3 21  1  1  0  0  0
  3 14  1  0  0  0  0
  5  9  1  0  0  0  0
  7  5  1  0  0  0  0
  7  4  2  0  0  0  0
  8  2  2  0  0  0  0
  9 22  1  6  0  0  0
  9 12  1  0  0  0  0
 11 18  1  0  0  0  0
 12 13  2  0  0  0  0
 13 21  2  0  0  0  0
 14  6  1  0  0  0  0
 14 10  2  0  0  0  0
 15 16  2  0  0  0  0
 15  1  1  0  0  0  0
 16 11  1  0  0  0  0
 17 20  2  0  0  0  0
 18  6  1  0  0  0  0
 19 30  1  6  0  0  0
 19 20  1  0  0  0  0
 19  8  1  0  0  0  0
 20  7  1  0  0  0  0
 22 23  2  0  0  0  0
 24 22  1  0  0  0  0
 25 24  1  0  0  0  0
 26 27  2  0  0  0  0
 27 25  1  0  0  0  0
 28 27  1  0  0  0  0
 29 28  1  0  0  0  0
 31 30  1  0  0  0  0
 32 36  1  0  0  0  0
 33 32  2  0  0  0  0
 34 33  1  0  0  0  0
 34 35  2  0  0  0  0
 35 37  1  0  0  0  0
 36 31  1  0  0  0  0
 37 36  2  0  0  0  0
 37 39  1  0  0  0  0
 38 39  1  0  0  0  0
M  END
>  <MODEL>
7

>  <REMARK>
 VINA RESULT:      -8.5      1.769      2.303
  Name = 
  8 active torsions:
  status: ('A' for Active; 'I' for Inactive)
    1  A    between atoms: N_3  and  C_8
    2  A    between atoms: N_3  and  C_30
    3  A    between atoms: C_8  and  C_35
    4  A    between atoms: C_10  and  C_31
    5  A    between atoms: C_10  and  N_37
    6  A    between atoms: O_15  and  C_31
    7  A    between atoms: C_17  and  C_23
    8  A    between atoms: C_27  and  C_39
                            x       y       z     vdW  Elec       q    Type
                         _______ _______ _______ _____ _____    ______ ____

>  <TORSDO>
F 8

$$$$
=
 OpenBabel11032420243D

 39 42  0  0  1  0  0  0  0  0999 V2000
  186.1290  179.0760  141.4690 N   0  0  0  0  0  2  0  0  0  0  0  0
  187.6130  178.0430  139.7910 C   0  0  0  0  0  0  0  0  0  0  0  0
  185.4640  178.3060  142.5110 C   0  0  2  0  0  3  0  0  0  0  0  0
  188.2570  177.2090  140.8050 C   0  0  0  0  0  3  0  0  0  0  0  0
  190.1400  176.3760  142.0800 C   0  0  0  0  0  2  0  0  0  0  0  0
  183.0380  178.7430  141.8350 N   0  0  0  0  0  2  0  0  0  0  0  0
  189.5710  177.0170  140.8530 C   0  0  0  0  0  0  0  0  0  0  0  0
  188.3350  178.5880  138.8000 C   0  0  0  0  0  3  0  0  0  0  0  0
  189.7680  177.2160  143.3090 C   0  0  1  0  0  3  0  0  0  0  0  0
  183.9050  179.5970  143.8130 O   0  0  0  0  0  0  0  0  0  0  0  0
  183.9220  179.0750  139.5800 C   0  0  0  0  0  2  0  0  0  0  0  0
  188.4730  176.7700  143.9290 C   0  0  0  0  0  3  0  0  0  0  0  0
  187.3910  177.5060  143.8280 C   0  0  0  0  0  0  0  0  0  0  0  0
  184.1050  178.9020  142.7770 C   0  0  0  0  0  0  0  0  0  0  0  0
  186.2950  178.5680  140.1450 C   0  0  0  0  0  0  0  0  0  0  0  0
  185.2900  178.5690  139.2620 C   0  0  0  0  0  3  0  0  0  0  0  0
  191.6810  177.5130  139.8880 O   0  0  0  0  0  0  0  0  0  0  0  0
  183.2040  178.1250  140.5260 C   0  0  0  0  0  2  0  0  0  0  0  0
  189.8050  178.2770  138.6020 C   0  0  1  0  0  3  0  0  0  0  0  0
  190.4300  177.6010  139.8030 C   0  0  0  0  0  0  0  0  0  0  0  0
  186.3210  178.2570  143.7460 C   0  0  0  0  0  3  0  0  0  0  0  0
  190.8880  177.2760  144.2940 C   0  0  0  0  0  0  0  0  0  0  0  0
  191.6810  178.2610  144.3150 O   0  0  0  0  0  0  0  0  0  0  0  0
  191.0000  176.2330  145.2580 N   0  0  0  0  0  2  0  0  0  0  0  0
  192.0560  176.1860  146.2600 C   0  0  0  0  0  2  0  0  0  0  0  0
  192.3450  177.0590  148.4730 O   0  0  0  0  0  0  0  0  0  0  0  0
  191.5390  176.6790  147.5720 C   0  0  0  0  0  0  0  0  0  0  0  0
  190.1580  176.7010  147.7930 O   0  0  0  0  0  0  0  0  0  0  0  0
  189.4600  177.9140  148.0440 C   0  0  0  0  0  1  0  0  0  0  0  0
  189.9920  177.4730  137.4070 N   0  0  0  0  0  2  0  0  0  0  0  0
  188.6530  177.1340  136.9380 C   0  0  0  0  0  2  0  0  0  0  0  0
  189.6270  174.8450  136.8840 C   0  0  0  0  0  3  0  0  0  0  0  0
  189.5040  173.4520  136.8580 C   0  0  0  0  0  3  0  0  0  0  0  0
  188.2390  172.8600  136.8420 C   0  0  0  0  0  3  0  0  0  0  0  0
  187.0900  173.6630  136.8470 C   0  0  0  0  0  3  0  0  0  0  0  0
  188.4830  175.6540  136.8920 C   0  0  0  0  0  0  0  0  0  0  0  0
  187.2070  175.0590  136.8640 C   0  0  0  0  0  0  0  0  0  0  0  0
  184.8250  175.0740  136.4500 N   0  0  0  0  0  1  0  0  0  0  0  0
  185.9620  175.8870  136.8670 C   0  0  0  0  0  2  0  0  0  0  0  0
  1  3  1  0  0  0  0
  2 15  1  0  0  0  0
  2  4  1  0  0  0  0
  3 14  1  0  0  0  0
  3 21  1  1  0  0  0
  4  7  2  0  0  0  0
  5  9  1  0  0  0  0
  6 14  1  0  0  0  0
  7  5  1  0  0  0  0
  8  2  2  0  0  0  0
  9 12  1  0  0  0  0
  9 22  1  1  0  0  0
 11 18  1  0  0  0  0
 13 12  2  0  0  0  0
 14 10  2  0  0  0  0
 15  1  1  0  0  0  0
 16 11  1  0  0  0  0
 16 15  2  0  0  0  0
 18  6  1  0  0  0  0
 19 30  1  6  0  0  0
 19  8  1  0  0  0  0
 19 20  1  0  0  0  0
 20 17  2  0  0  0  0
 20  7  1  0  0  0  0
 21 13  2  0  0  0  0
 22 23  2  0  0  0  0
 22 24  1  0  0  0  0
 24 25  1  0  0  0  0
 25 27  1  0  0  0  0
 27 28  1  0  0  0  0
 27 26  2  0  0  0  0
 28 29  1  0  0  0  0
 31 30  1  0  0  0  0
 32 36  1  0  0  0  0
 33 32  2  0  0  0  0
 34 35  2  0  0  0  0
 34 33  1  0  0  0  0
 35 37  1  0  0  0  0
 36 31  1  0  0  0  0
 37 39  1  0  0  0  0
 37 36  2  0  0  0  0
 38 39  1  0  0  0  0
M  END
>  <MODEL>
8

>  <REMARK>
 VINA RESULT:      -8.4      2.646      7.088
  Name = 
  8 active torsions:
  status: ('A' for Active; 'I' for Inactive)
    1  A    between atoms: N_3  and  C_8
    2  A    between atoms: N_3  and  C_30
    3  A    between atoms: C_8  and  C_35
    4  A    between atoms: C_10  and  C_31
    5  A    between atoms: C_10  and  N_37
    6  A    between atoms: O_15  and  C_31
    7  A    between atoms: C_17  and  C_23
    8  A    between atoms: C_27  and  C_39
                            x       y       z     vdW  Elec       q    Type
                         _______ _______ _______ _____ _____    ______ ____

>  <TORSDO>
F 8

$$$$
=
 OpenBabel11032420243D

 39 42  0  0  1  0  0  0  0  0999 V2000
  183.2410  179.5310  141.7450 N   0  0  0  0  0  2  0  0  0  0  0  0
  185.2740  178.2540  141.1790 C   0  0  0  0  0  0  0  0  0  0  0  0
  182.1660  178.9770  142.5570 C   0  0  2  0  0  3  0  0  0  0  0  0
  185.3870  177.7380  142.5430 C   0  0  0  0  0  3  0  0  0  0  0  0
  186.5010  177.3850  144.6630 C   0  0  0  0  0  2  0  0  0  0  0  0
  180.2900  179.0450  140.8220 N   0  0  0  0  0  2  0  0  0  0  0  0
  186.5420  177.6690  143.1950 C   0  0  0  0  0  0  0  0  0  0  0  0
  186.3720  178.6050  140.4920 C   0  0  0  0  0  3  0  0  0  0  0  0
  185.6580  178.4590  145.3640 C   0  0  1  0  0  3  0  0  0  0  0  0
  180.2360  180.4100  142.7010 O   0  0  0  0  0  0  0  0  0  0  0  0
  182.0750  178.9050  139.1590 C   0  0  0  0  0  2  0  0  0  0  0  0
  184.2100  178.0690  145.4590 C   0  0  0  0  0  3  0  0  0  0  0  0
  183.3030  178.6700  144.7260 C   0  0  0  0  0  0  0  0  0  0  0  0
  180.8450  179.5080  142.0580 C   0  0  0  0  0  0  0  0  0  0  0  0
  183.9500  178.7390  140.7920 C   0  0  0  0  0  0  0  0  0  0  0  0
  183.4300  178.4500  139.5940 C   0  0  0  0  0  3  0  0  0  0  0  0
  188.8770  178.0910  143.1380 O   0  0  0  0  0  0  0  0  0  0  0  0
  180.9890  178.1500  139.9090 C   0  0  0  0  0  2  0  0  0  0  0  0
  187.7710  178.3760  141.0270 C   0  0  1  0  0  3  0  0  0  0  0  0
  187.7910  178.0560  142.5050 C   0  0  0  0  0  0  0  0  0  0  0  0
  182.3990  179.2920  144.0100 C   0  0  0  0  0  3  0  0  0  0  0  0
  186.2400  178.8400  146.6850 C   0  0  0  0  0  0  0  0  0  0  0  0
  185.7530  179.7940  147.3560 O   0  0  0  0  0  0  0  0  0  0  0  0
  187.3110  178.0570  147.2050 N   0  0  0  0  0  2  0  0  0  0  0  0
  187.9570  178.3420  148.4790 C   0  0  0  0  0  2  0  0  0  0  0  0
  190.2460  178.5320  149.1620 O   0  0  0  0  0  0  0  0  0  0  0  0
  189.3980  177.9520  148.4210 C   0  0  0  0  0  0  0  0  0  0  0  0
  189.7950  176.9510  147.5290 O   0  0  0  0  0  0  0  0  0  0  0  0
  191.1640  176.6080  147.3510 C   0  0  0  0  0  1  0  0  0  0  0  0
  188.4340  177.3300  140.2670 N   0  0  0  0  0  2  0  0  0  0  0  0
  189.5900  177.9610  139.6400 C   0  0  0  0  0  2  0  0  0  0  0  0
  190.5670  176.1060  138.3000 C   0  0  0  0  0  3  0  0  0  0  0  0
  190.8340  175.4710  137.0820 C   0  0  0  0  0  3  0  0  0  0  0  0
  190.4090  176.0480  135.8840 C   0  0  0  0  0  3  0  0  0  0  0  0
  189.7160  177.2670  135.8990 C   0  0  0  0  0  3  0  0  0  0  0  0
  189.8730  177.3240  138.3230 C   0  0  0  0  0  0  0  0  0  0  0  0
  189.4540  177.9120  137.1150 C   0  0  0  0  0  0  0  0  0  0  0  0
  187.2890  178.9690  136.9110 N   0  0  0  0  0  1  0  0  0  0  0  0
  188.7150  179.2120  137.0970 C   0  0  0  0  0  2  0  0  0  0  0  0
  1  3  1  0  0  0  0
  2  4  1  0  0  0  0
  3 21  1  1  0  0  0
  4  7  2  0  0  0  0
  5  9  1  0  0  0  0
  6 14  1  0  0  0  0
  7  5  1  0  0  0  0
  8 19  1  0  0  0  0
  8  2  2  0  0  0  0
  9 12  1  0  0  0  0
  9 22  1  1  0  0  0
 11 16  1  0  0  0  0
 11 18  1  0  0  0  0
 13 12  2  0  0  0  0
 14  3  1  0  0  0  0
 14 10  2  0  0  0  0
 15  2  1  0  0  0  0
 15  1  1  0  0  0  0
 16 15  2  0  0  0  0
 18  6  1  0  0  0  0
 19 30  1  6  0  0  0
 19 20  1  0  0  0  0
 20 17  2  0  0  0  0
 20  7  1  0  0  0  0
 21 13  2  0  0  0  0
 22 24  1  0  0  0  0
 22 23  2  0  0  0  0
 24 25  1  0  0  0  0
 27 25  1  0  0  0  0
 27 26  2  0  0  0  0
 28 27  1  0  0  0  0
 29 28  1  0  0  0  0
 31 30  1  0  0  0  0
 32 36  1  0  0  0  0
 33 32  2  0  0  0  0
 34 35  2  0  0  0  0
 34 33  1  0  0  0  0
 35 37  1  0  0  0  0
 36 31  1  0  0  0  0
 37 36  2  0  0  0  0
 38 39  1  0  0  0  0
 39 37  1  0  0  0  0
M  END
>  <MODEL>
9

>  <REMARK>
 VINA RESULT:      -8.4      2.089      6.885
  Name = 
  8 active torsions:
  status: ('A' for Active; 'I' for Inactive)
    1  A    between atoms: N_3  and  C_8
    2  A    between atoms: N_3  and  C_30
    3  A    between atoms: C_8  and  C_35
    4  A    between atoms: C_10  and  C_31
    5  A    between atoms: C_10  and  N_37
    6  A    between atoms: O_15  and  C_31
    7  A    between atoms: C_17  and  C_23
    8  A    between atoms: C_27  and  C_39
                            x       y       z     vdW  Elec       q    Type
                         _______ _______ _______ _____ _____    ______ ____

>  <TORSDO>
F 8

$$$$
