=
 OpenBabel11032420393D

 45 47  0  0  1  0  0  0  0  0999 V2000
  189.1070  176.4360  140.7390 C   0  0  0  0  0  3  0  0  0  0  0  0
  188.5480  178.6100  140.3440 N   0  0  0  0  0  0  0  0  0  0  0  0
  189.5030  176.7490  139.3330 C   0  0  1  0  0  3  0  0  0  0  0  0
  189.0880  178.1810  139.2540 C   0  0  0  0  0  0  0  0  0  0  0  0
  188.5710  177.5300  141.2700 C   0  0  0  0  0  0  0  0  0  0  0  0
  187.1550  177.8320  145.2880 C   0  0  0  0  0  3  0  0  0  0  0  0
  188.4680  177.4220  145.0390 C   0  0  0  0  0  0  0  0  0  0  0  0
  188.9000  177.3340  143.7120 C   0  0  0  0  0  3  0  0  0  0  0  0
  186.3260  178.1370  144.2570 N   0  0  0  0  0  0  0  0  0  0  0  0
  188.0440  177.6520  142.6510 C   0  0  0  0  0  0  0  0  0  0  0  0
  185.7880  178.3840  141.9370 N   0  0  0  0  0  1  0  0  0  0  0  0
  186.7260  178.0620  142.9600 C   0  0  0  0  0  0  0  0  0  0  0  0
  190.7910  177.0890  145.9420 N   0  0  0  0  0  2  0  0  0  0  0  0
  189.3760  177.0910  146.1500 C   0  0  0  0  0  0  0  0  0  0  0  0
  188.9060  176.8060  147.2860 O   0  0  0  0  0  0  0  0  0  0  0  0
  191.7260  176.7610  147.0060 C   0  0  0  0  0  2  0  0  0  0  0  0
  192.2620  175.3610  146.7900 C   0  0  0  0  0  1  0  0  0  0  0  0
  190.9830  176.5900  139.1530 C   0  0  0  0  0  0  0  0  0  0  0  0
  191.4680  175.7000  138.1510 N   0  0  0  0  0  2  0  0  0  0  0  0
  191.7930  177.2220  139.8870 O   0  0  0  0  0  0  0  0  0  0  0  0
  192.6830  175.7090  135.6590 O   0  0  0  0  0  0  0  0  0  0  0  0
  195.1370  174.1030  138.5030 O   0  0  0  0  0  0  0  0  0  0  0  0
  193.4180  175.4860  136.6600 C   0  0  0  0  0  0  0  0  0  0  0  0
  194.8230  175.2330  136.4780 N   0  0  0  0  0  0  0  0  0  0  0  0
  197.0760  174.9730  137.5550 N   0  0  0  0  0  0  0  0  0  0  0  0
  192.8420  175.4960  137.9680 N   0  0  0  0  0  2  0  0  0  0  0  0
  195.3820  175.3500  135.1360 C   0  0  0  0  0  1  0  0  0  0  0  0
  197.6270  175.8880  136.7150 O   0  0  0  0  0  1  0  0  0  0  0  0
  195.6550  174.7520  137.5530 C   0  0  0  0  0  0  0  0  0  0  0  0
  198.4050  175.1600  139.4480 C   0  0  0  0  0  1  0  0  0  0  0  0
  199.0230  173.7290  137.6930 C   0  0  0  0  0  1  0  0  0  0  0  0
  197.8890  174.2420  138.4420 N   0  0  0  0  0  0  0  0  0  0  0  0
  189.2060  179.0250  138.0290 C   0  0  0  0  0  2  0  0  0  0  0  0
  188.1080  178.6670  137.0410 C   0  0  0  0  0  2  0  0  0  0  0  0
  188.6860  177.8970  135.8640 C   0  0  0  0  0  2  0  0  0  0  0  0
  187.1240  176.4870  136.7880 N   0  0  0  0  0  2  0  0  0  0  0  0
  187.0390  175.0560  137.0650 C   0  0  2  0  0  3  0  0  0  0  0  0
  188.2780  174.4280  136.4720 C   0  0  0  0  0  2  0  0  0  0  0  0
  187.9750  176.6420  135.6790 N   0  0  0  0  0  0  0  0  0  0  0  0
  188.9530  175.5680  135.7600 C   0  0  0  0  0  2  0  0  0  0  0  0
  185.7770  174.4600  136.4300 C   0  0  1  0  0  3  0  0  0  0  0  0
  186.1270  173.3090  135.4980 C   0  0  0  0  0  1  0  0  0  0  0  0
  184.8060  173.9880  137.4670 C   0  0  0  0  0  0  0  0  0  0  0  0
  184.9320  172.7090  137.9920 O   0  0  0  0  0  1  0  0  0  0  0  0
  183.8740  174.7380  137.8630 O   0  0  0  0  0  0  0  0  0  0  0  0
  1  5  2  0  0  0  0
  2  5  1  0  0  0  0
  3 18  1  1  0  0  0
  3  1  1  0  0  0  0
  4  3  1  0  0  0  0
  4  2  2  0  0  0  0
  5 10  1  0  0  0  0
  7  6  1  0  0  0  0
  7 14  1  0  0  0  0
  8  7  2  0  0  0  0
  9  6  2  0  0  0  0
 10 12  2  0  0  0  0
 10  8  1  0  0  0  0
 11 12  1  0  0  0  0
 12  9  1  0  0  0  0
 13 14  1  0  0  0  0
 13 16  1  0  0  0  0
 14 15  2  0  0  0  0
 17 16  1  0  0  0  0
 18 20  2  0  0  0  0
 19 18  1  0  0  0  0
 21 23  2  0  0  0  0
 23 26  1  0  0  0  0
 24 23  1  0  0  0  0
 24 29  1  0  0  0  0
 25 32  1  0  0  0  0
 26 19  1  0  0  0  0
 27 24  1  0  0  0  0
 28 25  1  0  0  0  0
 29 25  1  0  0  0  0
 29 22  2  0  0  0  0
 31 32  1  0  0  0  0
 32 30  1  0  0  0  0
 33  4  1  0  0  0  0
 34 33  1  0  0  0  0
 35 34  1  0  0  0  0
 36 37  1  0  0  0  0
 37 41  1  6  0  0  0
 38 37  1  0  0  0  0
 39 40  1  0  0  0  0
 39 35  1  0  0  0  0
 39 36  1  0  0  0  0
 40 38  1  0  0  0  0
 41 42  1  6  0  0  0
 41 43  1  0  0  0  0
 43 45  2  0  0  0  0
 43 44  1  0  0  0  0
M  END
>  <MODEL>
1

>  <REMARK>
 VINA RESULT:      -7.8      0.000      0.000
  Name = 
  12 active torsions:
  status: ('A' for Active; 'I' for Inactive)
    1  A    between atoms: C_4  and  C_30
    2  A    between atoms: C_8  and  C_33
    3  A    between atoms: C_9  and  C_20
    4  A    between atoms: N_11  and  N_25
    5  A    between atoms: N_12  and  C_29
    6  A    between atoms: N_15  and  N_22
    7  A    between atoms: C_16  and  C_34
    8  A    between atoms: C_16  and  C_35
    9  A    between atoms: C_20  and  C_23
   10  A    between atoms: C_24  and  C_37
   11  A    between atoms: C_34  and  C_38
   12  A    between atoms: C_38  and  N_43
                            x       y       z     vdW  Elec       q    Type
                         _______ _______ _______ _____ _____    ______ ____

>  <TORSDO>
F 12

$$$$
=
 OpenBabel11032420393D

 45 47  0  0  1  0  0  0  0  0999 V2000
  189.0050  178.6070  139.6010 C   0  0  0  0  0  3  0  0  0  0  0  0
  189.1140  176.3340  139.4700 N   0  0  0  0  0  0  0  0  0  0  0  0
  188.4410  178.2100  138.2760 C   0  0  1  0  0  3  0  0  0  0  0  0
  188.5740  176.7250  138.3660 C   0  0  0  0  0  0  0  0  0  0  0  0
  189.3700  177.5010  140.2420 C   0  0  0  0  0  0  0  0  0  0  0  0
  191.0150  177.3570  144.1810 C   0  0  0  0  0  3  0  0  0  0  0  0
  189.6280  177.3780  144.0030 C   0  0  0  0  0  0  0  0  0  0  0  0
  189.1230  177.4250  142.7010 C   0  0  0  0  0  3  0  0  0  0  0  0
  191.8440  177.3800  143.1060 N   0  0  0  0  0  0  0  0  0  0  0  0
  189.9790  177.4460  141.5940 C   0  0  0  0  0  0  0  0  0  0  0  0
  192.3120  177.4590  140.7590 N   0  0  0  0  0  1  0  0  0  0  0  0
  191.3740  177.4210  141.8300 C   0  0  0  0  0  0  0  0  0  0  0  0
  187.3110  177.4860  144.9700 N   0  0  0  0  0  2  0  0  0  0  0  0
  188.7210  177.3530  145.1630 C   0  0  0  0  0  0  0  0  0  0  0  0
  189.1890  177.2150  146.3280 O   0  0  0  0  0  0  0  0  0  0  0  0
  186.3770  177.4740  146.0850 C   0  0  0  0  0  2  0  0  0  0  0  0
  185.9830  178.8960  146.4260 C   0  0  0  0  0  1  0  0  0  0  0  0
  187.0070  178.6310  138.1650 C   0  0  0  0  0  0  0  0  0  0  0  0
  186.1920  178.6370  139.3350 N   0  0  0  0  0  0  0  0  0  0  0  0
  186.5170  178.9610  137.0480 O   0  0  0  0  0  0  0  0  0  0  0  0
  184.4050  178.1660  141.4020 O   0  0  0  0  0  0  0  0  0  0  0  0
  182.4550  179.0760  137.9280 O   0  0  0  0  0  0  0  0  0  0  0  0
  183.9510  178.7070  140.3560 C   0  0  0  0  0  0  0  0  0  0  0  0
  182.5530  179.0370  140.2670 N   0  0  0  0  0  0  0  0  0  0  0  0
  180.7450  180.2350  139.0020 N   0  0  0  0  0  0  0  0  0  0  0  0
  184.8380  178.9930  139.2720 N   0  0  0  0  0  0  0  0  0  0  0  0
  181.7140  178.8330  141.4420 C   0  0  0  0  0  1  0  0  0  0  0  0
  180.3260  180.8740  140.1250 O   0  0  0  0  0  1  0  0  0  0  0  0
  181.9450  179.4410  139.0230 C   0  0  0  0  0  0  0  0  0  0  0  0
  179.4220  181.6820  137.7610 C   0  0  0  0  0  1  0  0  0  0  0  0
  178.9310  179.3880  137.8400 C   0  0  0  0  0  1  0  0  0  0  0  0
  180.0160  180.3530  137.8030 N   0  0  0  0  0  0  0  0  0  0  0  0
  188.1990  175.7790  137.2750 C   0  0  0  0  0  2  0  0  0  0  0  0
  189.3450  175.6410  136.2870 C   0  0  0  0  0  2  0  0  0  0  0  0
  190.0620  174.3150  136.4880 C   0  0  0  0  0  2  0  0  0  0  0  0
  192.0430  174.2420  137.6520 N   0  0  0  0  0  2  0  0  0  0  0  0
  193.2000  175.1190  137.8050 C   0  0  2  0  0  3  0  0  0  0  0  0
  192.9960  176.2720  136.8500 C   0  0  0  0  0  2  0  0  0  0  0  0
  191.5010  174.4930  136.3790 N   0  0  0  0  0  0  0  0  0  0  0  0
  191.7480  175.8990  136.0980 C   0  0  0  0  0  2  0  0  0  0  0  0
  194.4920  174.3640  137.4680 C   0  0  1  0  0  3  0  0  0  0  0  0
  195.2890  175.0980  136.3990 C   0  0  0  0  0  1  0  0  0  0  0  0
  195.3470  174.1640  138.6810 C   0  0  0  0  0  0  0  0  0  0  0  0
  195.8500  172.9010  138.9640 O   0  0  0  0  0  0  0  0  0  0  0  0
  195.6090  175.1280  139.4490 O   0  0  0  0  0  1  0  0  0  0  0  0
  1  5  2  0  0  0  0
  2  5  1  0  0  0  0
  3 18  1  1  0  0  0
  3  4  1  0  0  0  0
  3  1  1  0  0  0  0
  4  2  2  0  0  0  0
  5 10  1  0  0  0  0
  7  6  1  0  0  0  0
  7 14  1  0  0  0  0
  8  7  2  0  0  0  0
  9  6  2  0  0  0  0
 10 12  2  0  0  0  0
 10  8  1  0  0  0  0
 11 12  1  0  0  0  0
 12  9  1  0  0  0  0
 13 14  1  0  0  0  0
 13 16  1  0  0  0  0
 14 15  2  0  0  0  0
 16 17  1  0  0  0  0
 18 19  1  0  0  0  0
 20 18  2  0  0  0  0
 22 29  2  0  0  0  0
 23 21  2  0  0  0  0
 24 23  1  0  0  0  0
 24 27  1  0  0  0  0
 25 29  1  0  0  0  0
 25 28  1  0  0  0  0
 26 19  2  0  0  0  0
 26 23  1  0  0  0  0
 29 24  1  0  0  0  0
 30 32  1  0  0  0  0
 32 31  1  0  0  0  0
 32 25  1  0  0  0  0
 33  4  1  0  0  0  0
 34 35  1  0  0  0  0
 34 33  1  0  0  0  0
 36 37  1  0  0  0  0
 37 41  1  6  0  0  0
 38 37  1  0  0  0  0
 39 35  1  0  0  0  0
 39 36  1  0  0  0  0
 40 39  1  0  0  0  0
 40 38  1  0  0  0  0
 41 42  1  6  0  0  0
 41 43  1  0  0  0  0
 43 44  2  0  0  0  0
 43 45  1  0  0  0  0
M  END
>  <MODEL>
2

>  <REMARK>
 VINA RESULT:      -7.8      3.538      9.411
  Name = 
  12 active torsions:
  status: ('A' for Active; 'I' for Inactive)
    1  A    between atoms: C_4  and  C_30
    2  A    between atoms: C_8  and  C_33
    3  A    between atoms: C_9  and  C_20
    4  A    between atoms: N_11  and  N_25
    5  A    between atoms: N_12  and  C_29
    6  A    between atoms: N_15  and  N_22
    7  A    between atoms: C_16  and  C_34
    8  A    between atoms: C_16  and  C_35
    9  A    between atoms: C_20  and  C_23
   10  A    between atoms: C_24  and  C_37
   11  A    between atoms: C_34  and  C_38
   12  A    between atoms: C_38  and  N_43
                            x       y       z     vdW  Elec       q    Type
                         _______ _______ _______ _____ _____    ______ ____

>  <TORSDO>
F 12

$$$$
=
 OpenBabel11032420393D

 45 47  0  0  1  0  0  0  0  0999 V2000
  189.4760  176.3010  141.2740 C   0  0  0  0  0  3  0  0  0  0  0  0
  188.8160  178.4700  141.0340 N   0  0  0  0  0  0  0  0  0  0  0  0
  189.6110  176.6500  139.8280 C   0  0  1  0  0  3  0  0  0  0  0  0
  189.1620  178.0740  139.8560 C   0  0  0  0  0  0  0  0  0  0  0  0
  189.0220  177.3740  141.9160 C   0  0  0  0  0  0  0  0  0  0  0  0
  188.1190  177.6570  146.0810 C   0  0  0  0  0  3  0  0  0  0  0  0
  187.1210  177.8940  145.1320 C   0  0  0  0  0  0  0  0  0  0  0  0
  187.4500  177.7940  143.7770 C   0  0  0  0  0  3  0  0  0  0  0  0
  189.3780  177.3330  145.6850 N   0  0  0  0  0  0  0  0  0  0  0  0
  188.7470  177.4570  143.3720 C   0  0  0  0  0  0  0  0  0  0  0  0
  191.0650  176.8980  144.0430 N   0  0  0  0  0  1  0  0  0  0  0  0
  189.7180  177.2250  144.3730 C   0  0  0  0  0  0  0  0  0  0  0  0
  184.7740  178.5980  144.5720 N   0  0  0  0  0  2  0  0  0  0  0  0
  185.7530  178.2450  145.5520 C   0  0  0  0  0  0  0  0  0  0  0  0
  185.4460  178.2350  146.7760 O   0  0  0  0  0  0  0  0  0  0  0  0
  183.4140  178.9580  144.9380 C   0  0  0  0  0  2  0  0  0  0  0  0
  182.5540  179.0090  143.6920 C   0  0  0  0  0  1  0  0  0  0  0  0
  191.0380  176.5280  139.3860 C   0  0  0  0  0  0  0  0  0  0  0  0
  191.3900  175.5090  138.4530 N   0  0  0  0  0  2  0  0  0  0  0  0
  191.9230  177.3040  139.8440 O   0  0  0  0  0  0  0  0  0  0  0  0
  192.2790  176.1810  135.9140 O   0  0  0  0  0  0  0  0  0  0  0  0
  194.9800  173.8080  137.8560 O   0  0  0  0  0  0  0  0  0  0  0  0
  193.1220  175.6760  136.7070 C   0  0  0  0  0  0  0  0  0  0  0  0
  194.4760  175.4570  136.2730 N   0  0  0  0  0  0  0  0  0  0  0  0
  196.8290  174.8680  136.9210 N   0  0  0  0  0  0  0  0  0  0  0  0
  192.7170  175.3370  138.0360 N   0  0  0  0  0  2  0  0  0  0  0  0
  194.8660  175.9270  134.9500 C   0  0  0  0  0  1  0  0  0  0  0  0
  197.3200  175.9680  136.2930 O   0  0  0  0  0  1  0  0  0  0  0  0
  195.4090  174.6830  137.0550 C   0  0  0  0  0  0  0  0  0  0  0  0
  198.6040  174.5780  138.3880 C   0  0  0  0  0  1  0  0  0  0  0  0
  198.5130  173.3770  136.3720 C   0  0  0  0  0  1  0  0  0  0  0  0
  197.7050  173.9060  137.4590 N   0  0  0  0  0  0  0  0  0  0  0  0
  189.0450  178.9440  138.6490 C   0  0  0  0  0  2  0  0  0  0  0  0
  189.0720  178.0950  137.3890 C   0  0  0  0  0  2  0  0  0  0  0  0
  187.6780  177.9950  136.7890 C   0  0  0  0  0  2  0  0  0  0  0  0
  187.1480  175.8040  137.2410 N   0  0  0  0  0  2  0  0  0  0  0  0
  187.7020  174.5000  136.8920 C   0  0  2  0  0  3  0  0  0  0  0  0
  188.8260  174.7560  135.9150 C   0  0  0  0  0  2  0  0  0  0  0  0
  187.4740  176.6840  136.1930 N   0  0  0  0  0  0  0  0  0  0  0  0
  188.7550  176.2380  135.6670 C   0  0  0  0  0  2  0  0  0  0  0  0
  186.6260  173.6130  136.2530 C   0  0  1  0  0  3  0  0  0  0  0  0
  187.1600  172.2140  135.9870 C   0  0  0  0  0  1  0  0  0  0  0  0
  185.4010  173.5280  137.1090 C   0  0  0  0  0  0  0  0  0  0  0  0
  184.2300  174.1460  136.6930 O   0  0  0  0  0  0  0  0  0  0  0  0
  185.4240  172.9060  138.2050 O   0  0  0  0  0  1  0  0  0  0  0  0
  1  5  2  0  0  0  0
  2  5  1  0  0  0  0
  3 18  1  1  0  0  0
  3  4  1  0  0  0  0
  3  1  1  0  0  0  0
  4  2  2  0  0  0  0
  5 10  1  0  0  0  0
  7 14  1  0  0  0  0
  7  6  2  0  0  0  0
  8  7  1  0  0  0  0
  9  6  1  0  0  0  0
 10  8  2  0  0  0  0
 10 12  1  0  0  0  0
 11 12  1  0  0  0  0
 12  9  2  0  0  0  0
 13 16  1  0  0  0  0
 13 14  1  0  0  0  0
 14 15  2  0  0  0  0
 17 16  1  0  0  0  0
 18 20  2  0  0  0  0
 19 18  1  0  0  0  0
 21 23  2  0  0  0  0
 23 26  1  0  0  0  0
 24 23  1  0  0  0  0
 24 29  1  0  0  0  0
 25 29  1  0  0  0  0
 25 32  1  0  0  0  0
 26 19  1  0  0  0  0
 27 24  1  0  0  0  0
 28 25  1  0  0  0  0
 29 22  2  0  0  0  0
 31 32  1  0  0  0  0
 32 30  1  0  0  0  0
 33  4  1  0  0  0  0
 34 33  1  0  0  0  0
 35 34  1  0  0  0  0
 37 41  1  6  0  0  0
 37 36  1  0  0  0  0
 38 37  1  0  0  0  0
 39 35  1  0  0  0  0
 39 36  1  0  0  0  0
 40 38  1  0  0  0  0
 40 39  1  0  0  0  0
 41 42  1  1  0  0  0
 41 43  1  0  0  0  0
 43 45  1  0  0  0  0
 44 43  2  0  0  0  0
M  END
>  <MODEL>
3

>  <REMARK>
 VINA RESULT:      -7.7      1.373      2.836
  Name = 
  12 active torsions:
  status: ('A' for Active; 'I' for Inactive)
    1  A    between atoms: C_4  and  C_30
    2  A    between atoms: C_8  and  C_33
    3  A    between atoms: C_9  and  C_20
    4  A    between atoms: N_11  and  N_25
    5  A    between atoms: N_12  and  C_29
    6  A    between atoms: N_15  and  N_22
    7  A    between atoms: C_16  and  C_34
    8  A    between atoms: C_16  and  C_35
    9  A    between atoms: C_20  and  C_23
   10  A    between atoms: C_24  and  C_37
   11  A    between atoms: C_34  and  C_38
   12  A    between atoms: C_38  and  N_43
                            x       y       z     vdW  Elec       q    Type
                         _______ _______ _______ _____ _____    ______ ____

>  <TORSDO>
F 12

$$$$
=
 OpenBabel11032420393D

 45 47  0  0  1  0  0  0  0  0999 V2000
  189.0920  178.5290  139.0420 C   0  0  0  0  0  3  0  0  0  0  0  0
  189.7810  176.3740  138.7680 N   0  0  0  0  0  0  0  0  0  0  0  0
  188.8160  178.1510  137.6230 C   0  0  1  0  0  3  0  0  0  0  0  0
  189.3040  176.7400  137.6260 C   0  0  0  0  0  0  0  0  0  0  0  0
  189.6380  177.4800  139.6500 C   0  0  0  0  0  0  0  0  0  0  0  0
  190.7540  177.3460  143.7700 C   0  0  0  0  0  3  0  0  0  0  0  0
  189.4030  177.3330  143.4120 C   0  0  0  0  0  0  0  0  0  0  0  0
  189.0720  177.3780  142.0540 C   0  0  0  0  0  3  0  0  0  0  0  0
  191.7170  177.3990  142.8130 N   0  0  0  0  0  0  0  0  0  0  0  0
  190.0650  177.4300  141.0690 C   0  0  0  0  0  0  0  0  0  0  0  0
  192.4860  177.5100  140.5480 N   0  0  0  0  0  1  0  0  0  0  0  0
  191.4170  177.4390  141.4870 C   0  0  0  0  0  0  0  0  0  0  0  0
  188.6490  177.6550  145.7880 N   0  0  0  0  0  2  0  0  0  0  0  0
  188.3520  177.2740  144.4420 C   0  0  0  0  0  0  0  0  0  0  0  0
  187.1910  176.8850  144.1380 O   0  0  0  0  0  0  0  0  0  0  0  0
  187.6480  177.6060  146.8400 C   0  0  0  0  0  2  0  0  0  0  0  0
  188.3160  177.8230  148.1820 C   0  0  0  0  0  1  0  0  0  0  0  0
  187.3480  178.2290  137.3300 C   0  0  0  0  0  0  0  0  0  0  0  0
  186.4180  177.9880  138.3830 N   0  0  0  0  0  2  0  0  0  0  0  0
  186.9370  178.4880  136.1650 O   0  0  0  0  0  0  0  0  0  0  0  0
  184.7450  179.9360  139.4320 O   0  0  0  0  0  0  0  0  0  0  0  0
  182.6130  176.7530  138.0110 O   0  0  0  0  0  0  0  0  0  0  0  0
  184.2120  179.0310  138.7320 C   0  0  0  0  0  0  0  0  0  0  0  0
  182.7880  179.0300  138.5210 N   0  0  0  0  0  0  0  0  0  0  0  0
  180.8430  178.0650  137.2610 N   0  0  0  0  0  0  0  0  0  0  0  0
  185.0360  178.0190  138.1480 N   0  0  0  0  0  2  0  0  0  0  0  0
  182.0090  180.1480  139.0390 C   0  0  0  0  0  1  0  0  0  0  0  0
  180.4060  179.3030  136.9080 O   0  0  0  0  0  1  0  0  0  0  0  0
  182.1080  177.9060  137.9270 C   0  0  0  0  0  0  0  0  0  0  0  0
  179.4380  177.1290  135.6680 C   0  0  0  0  0  1  0  0  0  0  0  0
  179.0110  176.8340  137.9580 C   0  0  0  0  0  1  0  0  0  0  0  0
  180.0690  176.9270  136.9660 N   0  0  0  0  0  0  0  0  0  0  0  0
  189.3180  175.8520  136.4270 C   0  0  0  0  0  2  0  0  0  0  0  0
  188.3060  174.7310  136.5950 C   0  0  0  0  0  2  0  0  0  0  0  0
  187.1020  174.9650  135.6950 C   0  0  0  0  0  2  0  0  0  0  0  0
  184.8910  174.6050  136.2060 N   0  0  0  0  0  2  0  0  0  0  0  0
  184.1580  173.7680  137.1520 C   0  0  2  0  0  3  0  0  0  0  0  0
  185.1820  172.8940  137.8380 C   0  0  0  0  0  2  0  0  0  0  0  0
  186.0950  173.9400  135.9160 N   0  0  0  0  0  0  0  0  0  0  0  0
  186.4650  173.2150  137.1220 C   0  0  0  0  0  2  0  0  0  0  0  0
  183.1230  172.9080  136.4170 C   0  0  1  0  0  3  0  0  0  0  0  0
  183.0930  171.4930  136.9760 C   0  0  0  0  0  1  0  0  0  0  0  0
  181.7520  173.5060  136.4940 C   0  0  0  0  0  0  0  0  0  0  0  0
  181.2000  173.7950  137.7340 O   0  0  0  0  0  1  0  0  0  0  0  0
  181.0950  173.7440  135.4450 O   0  0  0  0  0  0  0  0  0  0  0  0
  1  5  2  0  0  0  0
  2  5  1  0  0  0  0
  3 18  1  1  0  0  0
  3  4  1  0  0  0  0
  3  1  1  0  0  0  0
  4  2  2  0  0  0  0
  5 10  1  0  0  0  0
  7  6  1  0  0  0  0
  7 14  1  0  0  0  0
  8  7  2  0  0  0  0
  9  6  2  0  0  0  0
 10 12  2  0  0  0  0
 10  8  1  0  0  0  0
 11 12  1  0  0  0  0
 12  9  1  0  0  0  0
 13 16  1  0  0  0  0
 14 13  1  0  0  0  0
 15 14  2  0  0  0  0
 16 17  1  0  0  0  0
 18 19  1  0  0  0  0
 20 18  2  0  0  0  0
 23 21  2  0  0  0  0
 24 23  1  0  0  0  0
 24 27  1  0  0  0  0
 25 29  1  0  0  0  0
 26 19  1  0  0  0  0
 26 23  1  0  0  0  0
 28 25  1  0  0  0  0
 29 22  2  0  0  0  0
 29 24  1  0  0  0  0
 30 32  1  0  0  0  0
 32 25  1  0  0  0  0
 32 31  1  0  0  0  0
 33 34  1  0  0  0  0
 33  4  1  0  0  0  0
 35 39  1  0  0  0  0
 35 34  1  0  0  0  0
 36 37  1  0  0  0  0
 37 41  1  6  0  0  0
 37 38  1  0  0  0  0
 39 36  1  0  0  0  0
 39 40  1  0  0  0  0
 40 38  1  0  0  0  0
 41 43  1  0  0  0  0
 41 42  1  1  0  0  0
 43 44  1  0  0  0  0
 45 43  2  0  0  0  0
M  END
>  <MODEL>
4

>  <REMARK>
 VINA RESULT:      -7.7      4.222      8.398
  Name = 
  12 active torsions:
  status: ('A' for Active; 'I' for Inactive)
    1  A    between atoms: C_4  and  C_30
    2  A    between atoms: C_8  and  C_33
    3  A    between atoms: C_9  and  C_20
    4  A    between atoms: N_11  and  N_25
    5  A    between atoms: N_12  and  C_29
    6  A    between atoms: N_15  and  N_22
    7  A    between atoms: C_16  and  C_34
    8  A    between atoms: C_16  and  C_35
    9  A    between atoms: C_20  and  C_23
   10  A    between atoms: C_24  and  C_37
   11  A    between atoms: C_34  and  C_38
   12  A    between atoms: C_38  and  N_43
                            x       y       z     vdW  Elec       q    Type
                         _______ _______ _______ _____ _____    ______ ____

>  <TORSDO>
F 12

$$$$
=
 OpenBabel11032420393D

 45 47  0  0  1  0  0  0  0  0999 V2000
  184.7290  178.9930  140.6280 C   0  0  0  0  0  3  0  0  0  0  0  0
  184.3090  177.9090  142.5880 N   0  0  0  0  0  0  0  0  0  0  0  0
  185.9370  179.1520  141.4920 C   0  0  1  0  0  3  0  0  0  0  0  0
  185.5020  178.3870  142.6980 C   0  0  0  0  0  0  0  0  0  0  0  0
  183.8340  178.2740  141.2980 C   0  0  0  0  0  0  0  0  0  0  0  0
  180.0210  177.0830  139.7880 C   0  0  0  0  0  3  0  0  0  0  0  0
  181.1820  176.4600  139.3230 C   0  0  0  0  0  0  0  0  0  0  0  0
  182.4140  176.8740  139.8370 C   0  0  0  0  0  3  0  0  0  0  0  0
  180.0980  178.0660  140.7220 N   0  0  0  0  0  0  0  0  0  0  0  0
  182.4910  177.8850  140.8020 C   0  0  0  0  0  0  0  0  0  0  0  0
  181.2800  179.5300  142.2040 N   0  0  0  0  0  1  0  0  0  0  0  0
  181.2850  178.4810  141.2390 C   0  0  0  0  0  0  0  0  0  0  0  0
  179.8520  174.7820  138.0060 N   0  0  0  0  0  2  0  0  0  0  0  0
  181.1080  175.3920  138.3110 C   0  0  0  0  0  0  0  0  0  0  0  0
  182.1550  175.0140  137.7150 O   0  0  0  0  0  0  0  0  0  0  0  0
  179.7310  173.7200  137.0210 C   0  0  0  0  0  2  0  0  0  0  0  0
  179.9700  172.3830  137.6910 C   0  0  0  0  0  1  0  0  0  0  0  0
  187.1370  178.5300  140.8440 C   0  0  0  0  0  0  0  0  0  0  0  0
  187.1480  178.3530  139.4300 N   0  0  0  0  0  2  0  0  0  0  0  0
  188.1200  178.1500  141.5400 O   0  0  0  0  0  0  0  0  0  0  0  0
  186.8560  176.4190  137.4630 O   0  0  0  0  0  0  0  0  0  0  0  0
  190.6890  176.5380  138.8760 O   0  0  0  0  0  0  0  0  0  0  0  0
  188.0330  176.7370  137.7930 C   0  0  0  0  0  0  0  0  0  0  0  0
  189.1540  176.0880  137.1660 N   0  0  0  0  0  0  0  0  0  0  0  0
  191.6390  176.0530  136.8070 N   0  0  0  0  0  0  0  0  0  0  0  0
  188.2340  177.7460  138.7850 N   0  0  0  0  0  2  0  0  0  0  0  0
  188.8970  175.1510  136.0800 C   0  0  0  0  0  1  0  0  0  0  0  0
  191.4840  176.0160  135.4580 O   0  0  0  0  0  1  0  0  0  0  0  0
  190.4990  176.2470  137.6630 C   0  0  0  0  0  0  0  0  0  0  0  0
  193.9020  176.3850  136.4140 C   0  0  0  0  0  1  0  0  0  0  0  0
  193.1600  174.4990  137.6000 C   0  0  0  0  0  1  0  0  0  0  0  0
  192.9180  175.9150  137.3800 N   0  0  0  0  0  0  0  0  0  0  0  0
  186.3150  178.2410  143.9410 C   0  0  0  0  0  2  0  0  0  0  0  0
  185.4820  178.6140  145.1560 C   0  0  0  0  0  2  0  0  0  0  0  0
  185.9730  177.8650  146.3850 C   0  0  0  0  0  2  0  0  0  0  0  0
  188.0690  176.9240  146.2990 N   0  0  0  0  0  2  0  0  0  0  0  0
  189.2200  176.8490  147.1930 C   0  0  2  0  0  3  0  0  0  0  0  0
  188.8950  177.7150  148.3880 C   0  0  0  0  0  2  0  0  0  0  0  0
  187.3890  178.1170  146.6010 N   0  0  0  0  0  0  0  0  0  0  0  0
  187.5800  178.3490  148.0250 C   0  0  0  0  0  2  0  0  0  0  0  0
  190.4820  177.3600  146.4860 C   0  0  1  0  0  3  0  0  0  0  0  0
  191.6650  176.4400  146.7510 C   0  0  0  0  0  1  0  0  0  0  0  0
  190.2720  177.4940  145.0100 C   0  0  0  0  0  0  0  0  0  0  0  0
  190.3370  176.3670  144.2030 O   0  0  0  0  0  0  0  0  0  0  0  0
  190.0420  178.6210  144.4930 O   0  0  0  0  0  1  0  0  0  0  0  0
  1  5  2  0  0  0  0
  1  3  1  0  0  0  0
  2  4  2  0  0  0  0
  3 18  1  6  0  0  0
  3  4  1  0  0  0  0
  4 33  1  0  0  0  0
  5  2  1  0  0  0  0
  6  9  1  0  0  0  0
  7  6  2  0  0  0  0
  7  8  1  0  0  0  0
  8 10  2  0  0  0  0
  9 12  2  0  0  0  0
 10 12  1  0  0  0  0
 10  5  1  0  0  0  0
 12 11  1  0  0  0  0
 13 14  1  0  0  0  0
 14  7  1  0  0  0  0
 15 14  2  0  0  0  0
 16 17  1  0  0  0  0
 16 13  1  0  0  0  0
 18 20  2  0  0  0  0
 19 18  1  0  0  0  0
 21 23  2  0  0  0  0
 23 26  1  0  0  0  0
 24 29  1  0  0  0  0
 24 23  1  0  0  0  0
 25 32  1  0  0  0  0
 25 29  1  0  0  0  0
 26 19  1  0  0  0  0
 27 24  1  0  0  0  0
 28 25  1  0  0  0  0
 29 22  2  0  0  0  0
 30 32  1  0  0  0  0
 32 31  1  0  0  0  0
 33 34  1  0  0  0  0
 34 35  1  0  0  0  0
 35 39  1  0  0  0  0
 36 39  1  0  0  0  0
 36 37  1  0  0  0  0
 37 41  1  6  0  0  0
 37 38  1  0  0  0  0
 39 40  1  0  0  0  0
 40 38  1  0  0  0  0
 41 42  1  6  0  0  0
 43 41  1  0  0  0  0
 44 43  2  0  0  0  0
 45 43  1  0  0  0  0
M  END
>  <MODEL>
5

>  <REMARK>
 VINA RESULT:      -7.6      3.243      8.627
  Name = 
  12 active torsions:
  status: ('A' for Active; 'I' for Inactive)
    1  A    between atoms: C_4  and  C_30
    2  A    between atoms: C_8  and  C_33
    3  A    between atoms: C_9  and  C_20
    4  A    between atoms: N_11  and  N_25
    5  A    between atoms: N_12  and  C_29
    6  A    between atoms: N_15  and  N_22
    7  A    between atoms: C_16  and  C_34
    8  A    between atoms: C_16  and  C_35
    9  A    between atoms: C_20  and  C_23
   10  A    between atoms: C_24  and  C_37
   11  A    between atoms: C_34  and  C_38
   12  A    between atoms: C_38  and  N_43
                            x       y       z     vdW  Elec       q    Type
                         _______ _______ _______ _____ _____    ______ ____

>  <TORSDO>
F 12

$$$$
=
 OpenBabel11032420393D

 45 47  0  0  1  0  0  0  0  0999 V2000
  189.3860  178.6610  138.9820 C   0  0  0  0  0  3  0  0  0  0  0  0
  190.0440  176.5070  138.6370 N   0  0  0  0  0  0  0  0  0  0  0  0
  189.1240  178.3410  137.5470 C   0  0  1  0  0  3  0  0  0  0  0  0
  189.5890  176.9220  137.5030 C   0  0  0  0  0  0  0  0  0  0  0  0
  189.9060  177.5820  139.5580 C   0  0  0  0  0  0  0  0  0  0  0  0
  190.9620  177.2780  143.6840 C   0  0  0  0  0  3  0  0  0  0  0  0
  189.6170  177.3160  143.3090 C   0  0  0  0  0  0  0  0  0  0  0  0
  189.3050  177.4160  141.9500 C   0  0  0  0  0  3  0  0  0  0  0  0
  191.9390  177.3340  142.7420 N   0  0  0  0  0  0  0  0  0  0  0  0
  190.3130  177.4720  140.9800 C   0  0  0  0  0  0  0  0  0  0  0  0
  192.7420  177.4990  140.4920 N   0  0  0  0  0  1  0  0  0  0  0  0
  191.6580  177.4280  141.4150 C   0  0  0  0  0  0  0  0  0  0  0  0
  188.7370  177.8790  145.5960 N   0  0  0  0  0  2  0  0  0  0  0  0
  188.5500  177.2540  144.3240 C   0  0  0  0  0  0  0  0  0  0  0  0
  187.4730  176.6460  144.0710 O   0  0  0  0  0  0  0  0  0  0  0  0
  187.7170  177.8380  146.6310 C   0  0  0  0  0  2  0  0  0  0  0  0
  188.2840  177.1760  147.8690 C   0  0  0  0  0  1  0  0  0  0  0  0
  187.6620  178.4550  137.2370 C   0  0  0  0  0  0  0  0  0  0  0  0
  186.7310  178.5390  138.3120 N   0  0  0  0  0  0  0  0  0  0  0  0
  187.2550  178.4590  136.0420 O   0  0  0  0  0  0  0  0  0  0  0  0
  184.9010  179.3690  140.2230 O   0  0  0  0  0  0  0  0  0  0  0  0
  183.0420  177.5260  137.0860 O   0  0  0  0  0  0  0  0  0  0  0  0
  184.4460  179.0260  139.0970 C   0  0  0  0  0  0  0  0  0  0  0  0
  183.0280  179.0600  138.8550 N   0  0  0  0  0  0  0  0  0  0  0  0
  181.1720  178.9100  137.1700 N   0  0  0  0  0  0  0  0  0  0  0  0
  185.3520  178.6140  138.0710 N   0  0  0  0  0  0  0  0  0  0  0  0
  182.1580  179.5970  139.8940 C   0  0  0  0  0  1  0  0  0  0  0  0
  180.6360  180.0840  137.5970 O   0  0  0  0  0  1  0  0  0  0  0  0
  182.4440  178.4680  137.6760 C   0  0  0  0  0  0  0  0  0  0  0  0
  179.8610  179.0160  135.2580 C   0  0  0  0  0  1  0  0  0  0  0  0
  179.4400  177.3980  136.9060 C   0  0  0  0  0  1  0  0  0  0  0  0
  180.4950  178.1240  136.2190 N   0  0  0  0  0  0  0  0  0  0  0  0
  189.6060  176.0790  136.2720 C   0  0  0  0  0  2  0  0  0  0  0  0
  190.9660  175.4210  136.1090 C   0  0  0  0  0  2  0  0  0  0  0  0
  190.8680  173.9290  136.3850 C   0  0  0  0  0  2  0  0  0  0  0  0
  192.8980  174.5110  137.2910 N   0  0  0  0  0  2  0  0  0  0  0  0
  194.2990  174.2270  136.9910 C   0  0  2  0  0  3  0  0  0  0  0  0
  194.3030  173.2190  135.8660 C   0  0  0  0  0  2  0  0  0  0  0  0
  192.1490  173.4110  136.8380 N   0  0  0  0  0  0  0  0  0  0  0  0
  192.8480  172.8890  135.6740 C   0  0  0  0  0  2  0  0  0  0  0  0
  195.0060  173.6570  138.2260 C   0  0  1  0  0  3  0  0  0  0  0  0
  195.5030  172.2420  137.9650 C   0  0  0  0  0  1  0  0  0  0  0  0
  196.1530  174.5200  138.6540 C   0  0  0  0  0  0  0  0  0  0  0  0
  197.0460  174.9930  137.7030 O   0  0  0  0  0  0  0  0  0  0  0  0
  196.3160  174.8160  139.8680 O   0  0  0  0  0  1  0  0  0  0  0  0
  1  5  2  0  0  0  0
  2  5  1  0  0  0  0
  3 18  1  1  0  0  0
  3  1  1  0  0  0  0
  4  3  1  0  0  0  0
  4  2  2  0  0  0  0
  5 10  1  0  0  0  0
  7  6  1  0  0  0  0
  7 14  1  0  0  0  0
  8  7  2  0  0  0  0
  9  6  2  0  0  0  0
 10 12  2  0  0  0  0
 10  8  1  0  0  0  0
 11 12  1  0  0  0  0
 12  9  1  0  0  0  0
 13 16  1  0  0  0  0
 14 13  1  0  0  0  0
 15 14  2  0  0  0  0
 16 17  1  0  0  0  0
 18 19  1  0  0  0  0
 20 18  2  0  0  0  0
 22 29  2  0  0  0  0
 23 21  2  0  0  0  0
 24 23  1  0  0  0  0
 24 27  1  0  0  0  0
 25 28  1  0  0  0  0
 25 29  1  0  0  0  0
 26 19  2  0  0  0  0
 26 23  1  0  0  0  0
 29 24  1  0  0  0  0
 30 32  1  0  0  0  0
 32 31  1  0  0  0  0
 32 25  1  0  0  0  0
 33  4  1  0  0  0  0
 34 33  1  0  0  0  0
 34 35  1  0  0  0  0
 35 39  1  0  0  0  0
 37 36  1  0  0  0  0
 37 41  1  1  0  0  0
 38 37  1  0  0  0  0
 39 36  1  0  0  0  0
 40 38  1  0  0  0  0
 40 39  1  0  0  0  0
 41 42  1  6  0  0  0
 41 43  1  0  0  0  0
 43 45  1  0  0  0  0
 44 43  2  0  0  0  0
M  END
>  <MODEL>
6

>  <REMARK>
 VINA RESULT:      -7.4      3.399      9.234
  Name = 
  12 active torsions:
  status: ('A' for Active; 'I' for Inactive)
    1  A    between atoms: C_4  and  C_30
    2  A    between atoms: C_8  and  C_33
    3  A    between atoms: C_9  and  C_20
    4  A    between atoms: N_11  and  N_25
    5  A    between atoms: N_12  and  C_29
    6  A    between atoms: N_15  and  N_22
    7  A    between atoms: C_16  and  C_34
    8  A    between atoms: C_16  and  C_35
    9  A    between atoms: C_20  and  C_23
   10  A    between atoms: C_24  and  C_37
   11  A    between atoms: C_34  and  C_38
   12  A    between atoms: C_38  and  N_43
                            x       y       z     vdW  Elec       q    Type
                         _______ _______ _______ _____ _____    ______ ____

>  <TORSDO>
F 12

$$$$
=
 OpenBabel11032420393D

 45 47  0  0  1  0  0  0  0  0999 V2000
  185.0110  179.4040  142.3690 C   0  0  0  0  0  3  0  0  0  0  0  0
  186.9610  178.2260  142.3020 N   0  0  0  0  0  0  0  0  0  0  0  0
  185.4680  179.3800  140.9470 C   0  0  1  0  0  3  0  0  0  0  0  0
  186.7180  178.5750  141.0840 C   0  0  0  0  0  0  0  0  0  0  0  0
  185.8950  178.7300  143.0980 C   0  0  0  0  0  0  0  0  0  0  0  0
  185.7920  178.0570  147.3140 C   0  0  0  0  0  3  0  0  0  0  0  0
  186.9770  177.8520  146.6030 C   0  0  0  0  0  0  0  0  0  0  0  0
  186.9780  178.0810  145.2240 C   0  0  0  0  0  3  0  0  0  0  0  0
  184.6700  178.4720  146.6700 N   0  0  0  0  0  0  0  0  0  0  0  0
  185.8210  178.5120  144.5630 C   0  0  0  0  0  0  0  0  0  0  0  0
  183.4260  179.1230  144.7310 N   0  0  0  0  0  1  0  0  0  0  0  0
  184.6490  178.7050  145.3310 C   0  0  0  0  0  0  0  0  0  0  0  0
  189.4500  177.4000  146.5990 N   0  0  0  0  0  2  0  0  0  0  0  0
  188.2000  177.4030  147.2920 C   0  0  0  0  0  0  0  0  0  0  0  0
  188.1420  177.0190  148.4930 O   0  0  0  0  0  0  0  0  0  0  0  0
  190.6810  176.9590  147.2350 C   0  0  0  0  0  2  0  0  0  0  0  0
  191.5990  176.3570  146.1910 C   0  0  0  0  0  1  0  0  0  0  0  0
  184.4580  178.6920  140.0790 C   0  0  0  0  0  0  0  0  0  0  0  0
  183.6610  177.6500  140.6350 N   0  0  0  0  0  2  0  0  0  0  0  0
  184.3240  179.0160  138.8650 O   0  0  0  0  0  0  0  0  0  0  0  0
  180.9260  178.0830  140.7990 O   0  0  0  0  0  0  0  0  0  0  0  0
  181.7660  174.6200  138.8000 O   0  0  0  0  0  0  0  0  0  0  0  0
  181.3250  177.1990  139.9910 C   0  0  0  0  0  0  0  0  0  0  0  0
  180.3700  176.4530  139.2150 N   0  0  0  0  0  0  0  0  0  0  0  0
  179.9840  174.8520  137.3210 N   0  0  0  0  0  0  0  0  0  0  0  0
  182.7270  176.9570  139.8530 N   0  0  0  0  0  2  0  0  0  0  0  0
  178.9620  176.8190  139.3070 C   0  0  0  0  0  1  0  0  0  0  0  0
  179.0670  175.6800  136.7540 O   0  0  0  0  0  1  0  0  0  0  0  0
  180.7520  175.2880  138.4550 C   0  0  0  0  0  0  0  0  0  0  0  0
  180.4390  173.6900  135.3640 C   0  0  0  0  0  1  0  0  0  0  0  0
  178.9750  172.7980  136.9680 C   0  0  0  0  0  1  0  0  0  0  0  0
  180.1980  173.5630  136.7950 N   0  0  0  0  0  0  0  0  0  0  0  0
  187.6440  178.2600  139.9570 C   0  0  0  0  0  2  0  0  0  0  0  0
  188.6970  177.2620  140.4100 C   0  0  0  0  0  2  0  0  0  0  0  0
  190.0550  177.6260  139.8310 C   0  0  0  0  0  2  0  0  0  0  0  0
  191.9480  176.6930  138.9210 N   0  0  0  0  0  2  0  0  0  0  0  0
  192.3630  176.2500  137.5930 C   0  0  2  0  0  3  0  0  0  0  0  0
  191.1540  176.3840  136.6970 C   0  0  0  0  0  2  0  0  0  0  0  0
  190.5500  176.5530  138.9830 N   0  0  0  0  0  0  0  0  0  0  0  0
  190.0530  176.7920  137.6370 C   0  0  0  0  0  2  0  0  0  0  0  0
  192.8400  174.7940  137.6380 C   0  0  1  0  0  3  0  0  0  0  0  0
  192.1880  173.9720  136.5350 C   0  0  0  0  0  1  0  0  0  0  0  0
  194.3300  174.6970  137.5200 C   0  0  0  0  0  0  0  0  0  0  0  0
  195.1330  175.2450  138.5120 O   0  0  0  0  0  1  0  0  0  0  0  0
  194.8610  174.1290  136.5290 O   0  0  0  0  0  0  0  0  0  0  0  0
  1  5  2  0  0  0  0
  2  5  1  0  0  0  0
  3 18  1  6  0  0  0
  3  4  1  0  0  0  0
  3  1  1  0  0  0  0
  4  2  2  0  0  0  0
  5 10  1  0  0  0  0
  7 14  1  0  0  0  0
  7  6  2  0  0  0  0
  8  7  1  0  0  0  0
  9  6  1  0  0  0  0
 10  8  2  0  0  0  0
 10 12  1  0  0  0  0
 11 12  1  0  0  0  0
 12  9  2  0  0  0  0
 13 16  1  0  0  0  0
 13 14  1  0  0  0  0
 14 15  2  0  0  0  0
 17 16  1  0  0  0  0
 18 19  1  0  0  0  0
 20 18  2  0  0  0  0
 23 21  2  0  0  0  0
 24 27  1  0  0  0  0
 24 23  1  0  0  0  0
 25 29  1  0  0  0  0
 26 23  1  0  0  0  0
 26 19  1  0  0  0  0
 28 25  1  0  0  0  0
 29 22  2  0  0  0  0
 29 24  1  0  0  0  0
 30 32  1  0  0  0  0
 32 31  1  0  0  0  0
 32 25  1  0  0  0  0
 33 34  1  0  0  0  0
 33  4  1  0  0  0  0
 35 34  1  0  0  0  0
 36 39  1  0  0  0  0
 37 41  1  1  0  0  0
 37 36  1  0  0  0  0
 38 37  1  0  0  0  0
 38 40  1  0  0  0  0
 39 35  1  0  0  0  0
 40 39  1  0  0  0  0
 41 42  1  6  0  0  0
 43 41  1  0  0  0  0
 43 44  1  0  0  0  0
 45 43  2  0  0  0  0
M  END
>  <MODEL>
7

>  <REMARK>
 VINA RESULT:      -7.1      3.386      9.336
  Name = 
  12 active torsions:
  status: ('A' for Active; 'I' for Inactive)
    1  A    between atoms: C_4  and  C_30
    2  A    between atoms: C_8  and  C_33
    3  A    between atoms: C_9  and  C_20
    4  A    between atoms: N_11  and  N_25
    5  A    between atoms: N_12  and  C_29
    6  A    between atoms: N_15  and  N_22
    7  A    between atoms: C_16  and  C_34
    8  A    between atoms: C_16  and  C_35
    9  A    between atoms: C_20  and  C_23
   10  A    between atoms: C_24  and  C_37
   11  A    between atoms: C_34  and  C_38
   12  A    between atoms: C_38  and  N_43
                            x       y       z     vdW  Elec       q    Type
                         _______ _______ _______ _____ _____    ______ ____

>  <TORSDO>
F 12

$$$$
=
 OpenBabel11032420393D

 45 47  0  0  1  0  0  0  0  0999 V2000
  190.9380  176.7780  137.6690 C   0  0  0  0  0  3  0  0  0  0  0  0
  189.3400  175.3780  136.8440 N   0  0  0  0  0  0  0  0  0  0  0  0
  189.6220  177.4700  137.8140 C   0  0  1  0  0  3  0  0  0  0  0  0
  188.7120  176.4290  137.2510 C   0  0  0  0  0  0  0  0  0  0  0  0
  190.7200  175.5900  137.1140 C   0  0  0  0  0  0  0  0  0  0  0  0
  193.7840  172.7350  136.2760 C   0  0  0  0  0  3  0  0  0  0  0  0
  193.9270  173.6170  137.3510 C   0  0  0  0  0  0  0  0  0  0  0  0
  192.9060  174.5390  137.5980 C   0  0  0  0  0  3  0  0  0  0  0  0
  192.6730  172.7790  135.4960 N   0  0  0  0  0  0  0  0  0  0  0  0
  191.7600  174.5810  136.7950 C   0  0  0  0  0  0  0  0  0  0  0  0
  190.5420  173.6550  134.8460 N   0  0  0  0  0  1  0  0  0  0  0  0
  191.6660  173.6650  135.7210 C   0  0  0  0  0  0  0  0  0  0  0  0
  196.1070  174.6140  138.1080 N   0  0  0  0  0  2  0  0  0  0  0  0
  195.1280  173.5770  138.2040 C   0  0  0  0  0  0  0  0  0  0  0  0
  195.2920  172.6250  139.0170 O   0  0  0  0  0  0  0  0  0  0  0  0
  197.3110  174.6130  138.9230 C   0  0  0  0  0  2  0  0  0  0  0  0
  197.0050  175.2260  140.2740 C   0  0  0  0  0  1  0  0  0  0  0  0
  189.3250  177.7450  139.2570 C   0  0  0  0  0  0  0  0  0  0  0  0
  189.7710  176.8190  140.2450 N   0  0  0  0  0  2  0  0  0  0  0  0
  188.6740  178.7720  139.5970 O   0  0  0  0  0  0  0  0  0  0  0  0
  191.7130  176.7500  142.2230 O   0  0  0  0  0  0  0  0  0  0  0  0
  187.9580  176.5180  143.8170 O   0  0  0  0  0  0  0  0  0  0  0  0
  190.5210  176.9490  142.5890 C   0  0  0  0  0  0  0  0  0  0  0  0
  190.2160  177.1110  143.9860 N   0  0  0  0  0  0  0  0  0  0  0  0
  188.5090  177.7560  145.7100 N   0  0  0  0  0  0  0  0  0  0  0  0
  189.4880  177.0170  141.6030 N   0  0  0  0  0  2  0  0  0  0  0  0
  191.3190  177.1500  144.9380 C   0  0  0  0  0  1  0  0  0  0  0  0
  189.3700  178.6290  146.2950 O   0  0  0  0  0  1  0  0  0  0  0  0
  188.8580  177.1120  144.4720 C   0  0  0  0  0  0  0  0  0  0  0  0
  186.3180  178.5050  145.8690 C   0  0  0  0  0  1  0  0  0  0  0  0
  187.4120  177.6090  147.7430 C   0  0  0  0  0  1  0  0  0  0  0  0
  187.2610  177.4840  146.3030 N   0  0  0  0  0  0  0  0  0  0  0  0
  187.2370  176.5950  137.0960 C   0  0  0  0  0  2  0  0  0  0  0  0
  186.5450  175.2470  137.2170 C   0  0  0  0  0  2  0  0  0  0  0  0
  185.0730  175.3740  136.8550 C   0  0  0  0  0  2  0  0  0  0  0  0
  183.9680  176.7980  138.2820 N   0  0  0  0  0  2  0  0  0  0  0  0
  182.8930  177.7770  138.1580 C   0  0  2  0  0  3  0  0  0  0  0  0
  182.5690  177.8790  136.6860 C   0  0  0  0  0  2  0  0  0  0  0  0
  184.6210  176.7450  137.0370 N   0  0  0  0  0  0  0  0  0  0  0  0
  183.6060  177.0090  136.0300 C   0  0  0  0  0  2  0  0  0  0  0  0
  183.3410  179.1380  138.7050 C   0  0  1  0  0  3  0  0  0  0  0  0
  182.1700  180.1070  138.7820 C   0  0  0  0  0  1  0  0  0  0  0  0
  183.9740  179.0090  140.0560 C   0  0  0  0  0  0  0  0  0  0  0  0
  185.3020  179.3750  140.2280 O   0  0  0  0  0  0  0  0  0  0  0  0
  183.3150  178.5670  141.0350 O   0  0  0  0  0  1  0  0  0  0  0  0
  1  3  1  0  0  0  0
  2  5  1  0  0  0  0
  2  4  2  0  0  0  0
  3 18  1  1  0  0  0
  4  3  1  0  0  0  0
  5  1  2  0  0  0  0
  6  7  1  0  0  0  0
  7  8  2  0  0  0  0
  7 14  1  0  0  0  0
  9 12  1  0  0  0  0
  9  6  2  0  0  0  0
 10  5  1  0  0  0  0
 10  8  1  0  0  0  0
 11 12  1  0  0  0  0
 12 10  2  0  0  0  0
 13 14  1  0  0  0  0
 13 16  1  0  0  0  0
 14 15  2  0  0  0  0
 16 17  1  0  0  0  0
 18 20  2  0  0  0  0
 18 19  1  0  0  0  0
 19 26  1  0  0  0  0
 21 23  2  0  0  0  0
 22 29  2  0  0  0  0
 23 24  1  0  0  0  0
 24 29  1  0  0  0  0
 24 27  1  0  0  0  0
 25 28  1  0  0  0  0
 25 32  1  0  0  0  0
 26 23  1  0  0  0  0
 29 25  1  0  0  0  0
 30 32  1  0  0  0  0
 32 31  1  0  0  0  0
 33 34  1  0  0  0  0
 33  4  1  0  0  0  0
 35 39  1  0  0  0  0
 35 34  1  0  0  0  0
 37 36  1  0  0  0  0
 37 41  1  6  0  0  0
 38 37  1  0  0  0  0
 39 36  1  0  0  0  0
 40 38  1  0  0  0  0
 40 39  1  0  0  0  0
 41 42  1  1  0  0  0
 41 43  1  0  0  0  0
 43 44  2  0  0  0  0
 43 45  1  0  0  0  0
M  END
>  <MODEL>
8

>  <REMARK>
 VINA RESULT:      -7.1      2.863      8.351
  Name = 
  12 active torsions:
  status: ('A' for Active; 'I' for Inactive)
    1  A    between atoms: C_4  and  C_30
    2  A    between atoms: C_8  and  C_33
    3  A    between atoms: C_9  and  C_20
    4  A    between atoms: N_11  and  N_25
    5  A    between atoms: N_12  and  C_29
    6  A    between atoms: N_15  and  N_22
    7  A    between atoms: C_16  and  C_34
    8  A    between atoms: C_16  and  C_35
    9  A    between atoms: C_20  and  C_23
   10  A    between atoms: C_24  and  C_37
   11  A    between atoms: C_34  and  C_38
   12  A    between atoms: C_38  and  N_43
                            x       y       z     vdW  Elec       q    Type
                         _______ _______ _______ _____ _____    ______ ____

>  <TORSDO>
F 12

$$$$
=
 OpenBabel11032420393D

 45 47  0  0  1  0  0  0  0  0999 V2000
  183.1010  178.5390  141.0930 C   0  0  0  0  0  3  0  0  0  0  0  0
  185.3610  178.6470  140.8170 N   0  0  0  0  0  0  0  0  0  0  0  0
  183.3700  178.5400  139.6230 C   0  0  1  0  0  3  0  0  0  0  0  0
  184.8630  178.5970  139.6280 C   0  0  0  0  0  0  0  0  0  0  0  0
  184.2680  178.5990  141.7260 C   0  0  0  0  0  0  0  0  0  0  0  0
  184.9060  178.6060  145.9490 C   0  0  0  0  0  3  0  0  0  0  0  0
  185.9300  178.1990  145.0890 C   0  0  0  0  0  0  0  0  0  0  0  0
  185.6890  178.2080  143.7120 C   0  0  0  0  0  3  0  0  0  0  0  0
  183.7080  179.0020  145.4480 N   0  0  0  0  0  0  0  0  0  0  0  0
  184.4530  178.6200  143.1980 C   0  0  0  0  0  0  0  0  0  0  0  0
  182.1630  179.4370  143.6710 N   0  0  0  0  0  1  0  0  0  0  0  0
  183.4530  179.0230  144.1130 C   0  0  0  0  0  0  0  0  0  0  0  0
  187.4000  177.5700  147.0280 N   0  0  0  0  0  2  0  0  0  0  0  0
  187.2340  177.7690  145.6220 C   0  0  0  0  0  0  0  0  0  0  0  0
  188.2040  177.5770  144.8380 O   0  0  0  0  0  0  0  0  0  0  0  0
  188.6700  177.1530  147.6020 C   0  0  0  0  0  2  0  0  0  0  0  0
  189.2020  178.2520  148.4980 C   0  0  0  0  0  1  0  0  0  0  0  0
  182.8670  177.2760  138.9930 C   0  0  0  0  0  0  0  0  0  0  0  0
  183.8070  176.2980  138.5550 N   0  0  0  0  0  0  0  0  0  0  0  0
  181.6290  177.0840  138.8350 O   0  0  0  0  0  0  0  0  0  0  0  0
  185.5320  174.5890  137.2160 O   0  0  0  0  0  0  0  0  0  0  0  0
  181.6310  173.7680  136.3180 O   0  0  0  0  0  0  0  0  0  0  0  0
  184.3080  174.2800  137.2330 C   0  0  0  0  0  0  0  0  0  0  0  0
  183.8590  173.0900  136.5590 N   0  0  0  0  0  0  0  0  0  0  0  0
  181.9800  171.4720  136.1650 N   0  0  0  0  0  0  0  0  0  0  0  0
  183.3840  175.1160  137.9320 N   0  0  0  0  0  0  0  0  0  0  0  0
  184.8570  172.2120  135.9610 C   0  0  0  0  0  1  0  0  0  0  0  0
  182.7750  170.4130  136.4710 O   0  0  0  0  0  1  0  0  0  0  0  0
  182.4580  172.8150  136.3550 C   0  0  0  0  0  0  0  0  0  0  0  0
  179.7770  171.1290  136.8080 C   0  0  0  0  0  1  0  0  0  0  0  0
  180.6670  170.0030  134.9510 C   0  0  0  0  0  1  0  0  0  0  0  0
  180.6780  171.2640  135.6720 N   0  0  0  0  0  0  0  0  0  0  0  0
  185.7060  178.6680  138.3990 C   0  0  0  0  0  2  0  0  0  0  0  0
  187.1130  178.1790  138.7020 C   0  0  0  0  0  2  0  0  0  0  0  0
  188.0100  178.3630  137.4880 C   0  0  0  0  0  2  0  0  0  0  0  0
  189.7040  176.8270  137.2510 N   0  0  0  0  0  2  0  0  0  0  0  0
  190.6480  176.1640  138.1450 C   0  0  2  0  0  3  0  0  0  0  0  0
  190.4530  176.7780  139.5120 C   0  0  0  0  0  2  0  0  0  0  0  0
  189.3930  178.0710  137.8300 N   0  0  0  0  0  0  0  0  0  0  0  0
  189.4580  177.8800  139.2710 C   0  0  0  0  0  2  0  0  0  0  0  0
  192.0880  176.3790  137.6600 C   0  0  1  0  0  3  0  0  0  0  0  0
  193.0030  176.7520  138.8170 C   0  0  0  0  0  1  0  0  0  0  0  0
  192.6250  175.1640  136.9690 C   0  0  0  0  0  0  0  0  0  0  0  0
  192.9610  175.2340  135.6240 O   0  0  0  0  0  0  0  0  0  0  0  0
  192.7690  174.0800  137.5940 O   0  0  0  0  0  1  0  0  0  0  0  0
  1  5  2  0  0  0  0
  2  5  1  0  0  0  0
  3 18  1  1  0  0  0
  3  4  1  0  0  0  0
  3  1  1  0  0  0  0
  4  2  2  0  0  0  0
  5 10  1  0  0  0  0
  7 14  1  0  0  0  0
  7  6  2  0  0  0  0
  8  7  1  0  0  0  0
  9  6  1  0  0  0  0
 10  8  2  0  0  0  0
 10 12  1  0  0  0  0
 11 12  1  0  0  0  0
 12  9  2  0  0  0  0
 13 16  1  0  0  0  0
 14 13  1  0  0  0  0
 15 14  2  0  0  0  0
 16 17  1  0  0  0  0
 19 18  1  0  0  0  0
 20 18  2  0  0  0  0
 21 23  2  0  0  0  0
 22 29  2  0  0  0  0
 23 26  1  0  0  0  0
 24 23  1  0  0  0  0
 25 29  1  0  0  0  0
 25 28  1  0  0  0  0
 26 19  2  0  0  0  0
 27 24  1  0  0  0  0
 29 24  1  0  0  0  0
 31 32  1  0  0  0  0
 32 25  1  0  0  0  0
 32 30  1  0  0  0  0
 33 34  1  0  0  0  0
 33  4  1  0  0  0  0
 35 39  1  0  0  0  0
 35 34  1  0  0  0  0
 36 39  1  0  0  0  0
 36 37  1  0  0  0  0
 37 41  1  6  0  0  0
 37 38  1  0  0  0  0
 39 40  1  0  0  0  0
 40 38  1  0  0  0  0
 41 42  1  1  0  0  0
 43 45  1  0  0  0  0
 43 41  1  0  0  0  0
 44 43  2  0  0  0  0
M  END
>  <MODEL>
9

>  <REMARK>
 VINA RESULT:      -7.0      3.327      8.553
  Name = 
  12 active torsions:
  status: ('A' for Active; 'I' for Inactive)
    1  A    between atoms: C_4  and  C_30
    2  A    between atoms: C_8  and  C_33
    3  A    between atoms: C_9  and  C_20
    4  A    between atoms: N_11  and  N_25
    5  A    between atoms: N_12  and  C_29
    6  A    between atoms: N_15  and  N_22
    7  A    between atoms: C_16  and  C_34
    8  A    between atoms: C_16  and  C_35
    9  A    between atoms: C_20  and  C_23
   10  A    between atoms: C_24  and  C_37
   11  A    between atoms: C_34  and  C_38
   12  A    between atoms: C_38  and  N_43
                            x       y       z     vdW  Elec       q    Type
                         _______ _______ _______ _____ _____    ______ ____

>  <TORSDO>
F 12

$$$$
