=
 OpenBabel11042410523D

 26 28  0  0  1  0  0  0  0  0999 V2000
  190.4240  178.1600  143.3730 C   0  0  0  0  0  0  0  0  0  0  0  0
  189.8510  177.5100  142.2330 N   0  0  0  0  0  2  0  0  0  0  0  0
  190.0030  177.8070  144.6920 N   0  0  0  0  0  2  0  0  0  0  0  0
  191.3400  179.0610  143.2210 N   0  0  0  0  0  2  0  0  0  0  0  0
  190.5660  176.5160  140.1310 C   0  0  0  0  0  2  0  0  0  0  0  0
  190.2260  177.8180  140.8620 C   0  0  1  0  0  3  0  0  0  0  0  0
  188.7170  176.8120  138.0850 S   0  0  0  0  0  0  0  0  0  0  0  0
  189.1180  178.6320  140.1790 C   0  0  0  0  0  2  0  0  0  0  0  0
  191.1110  175.4970  137.9390 C   0  0  0  0  0  1  0  0  0  0  0  0
  190.4650  176.6830  138.6220 C   0  0  2  0  0  3  0  0  0  0  0  0
  188.0670  177.7280  139.5400 C   0  0  1  0  0  3  0  0  0  0  0  0
  186.8680  178.4840  139.1870 N   0  0  0  0  0  2  0  0  0  0  0  0
  184.8840  178.9240  139.9640 C   0  0  0  0  0  1  0  0  0  0  0  0
  186.2250  178.8350  140.3300 O   0  0  0  0  0  0  0  0  0  0  0  0
  189.0000  176.7850  144.9550 C   0  0  0  0  0  2  0  0  0  0  0  0
  183.6210  179.1060  145.6830 N   0  0  0  0  0  0  0  0  0  0  0  0
  186.8450  177.4890  143.8880 N   0  0  0  0  0  0  0  0  0  0  0  0
  183.5410  178.8760  144.3270 C   0  0  0  0  0  3  0  0  0  0  0  0
  187.6340  177.3900  144.9960 C   0  0  0  0  0  0  0  0  0  0  0  0
  184.7200  178.8140  146.3930 N   0  0  0  0  0  0  0  0  0  0  0  0
  185.7090  178.0410  144.3470 C   0  0  0  0  0  0  0  0  0  0  0  0
  184.5950  178.3340  143.6430 N   0  0  0  0  0  2  0  0  0  0  0  0
  185.7720  178.2850  145.7370 C   0  0  0  0  0  0  0  0  0  0  0  0
  187.0040  177.8660  146.1530 C   0  0  0  0  0  0  0  0  0  0  0  0
  187.9420  177.9100  148.5730 N   0  0  0  0  0  0  0  0  0  0  0  0
  187.5240  177.8910  147.4950 C   0  0  0  0  0  0  0  0  0  0  0  0
  1  3  1  0  0  0  0
  2  1  1  0  0  0  0
  3 15  1  0  0  0  0
  4  1  2  0  0  0  0
  5  6  1  0  0  0  0
  6  2  1  1  0  0  0
  7 10  1  0  0  0  0
  7 11  1  0  0  0  0
  8  6  1  0  0  0  0
 10  9  1  6  0  0  0
 10  5  1  0  0  0  0
 11 12  1  6  0  0  0
 11  8  1  0  0  0  0
 12 14  1  0  0  0  0
 13 14  1  0  0  0  0
 15 19  1  0  0  0  0
 16 20  1  0  0  0  0
 17 21  2  0  0  0  0
 17 19  1  0  0  0  0
 18 16  2  0  0  0  0
 19 24  2  0  0  0  0
 21 23  1  0  0  0  0
 22 18  1  0  0  0  0
 22 21  1  0  0  0  0
 23 24  1  0  0  0  0
 23 20  2  0  0  0  0
 24 26  1  0  0  0  0
 26 25  3  0  0  0  0
M  END
>  <MODEL>
1

>  <REMARK>
 VINA RESULT:      -7.7      0.000      0.000
  Name = 
  6 active torsions:
  status: ('A' for Active; 'I' for Inactive)
    1  A    between atoms: C_5  and  N_8
    2  A    between atoms: C_7  and  C_16
    3  A    between atoms: C_7  and  N_23
    4  A    between atoms: O_13  and  N_24
    5  A    between atoms: C_21  and  C_22
    6  A    between atoms: N_24  and  C_25
                            x       y       z     vdW  Elec       q    Type
                         _______ _______ _______ _____ _____    ______ ____

>  <TORSDO>
F 6

$$$$
=
 OpenBabel11042410523D

 26 28  0  0  1  0  0  0  0  0999 V2000
  190.6760  177.2770  141.9070 C   0  0  0  0  0  0  0  0  0  0  0  0
  189.8690  177.0500  140.7460 N   0  0  0  0  0  2  0  0  0  0  0  0
  190.2750  176.7560  143.1760 N   0  0  0  0  0  2  0  0  0  0  0  0
  191.7830  177.9390  141.8160 N   0  0  0  0  0  2  0  0  0  0  0  0
  190.4560  176.3650  138.4860 C   0  0  0  0  0  2  0  0  0  0  0  0
  190.2110  177.5510  139.4230 C   0  0  1  0  0  3  0  0  0  0  0  0
  188.5530  177.0590  136.5930 S   0  0  0  0  0  0  0  0  0  0  0  0
  189.1220  178.5110  138.9220 C   0  0  0  0  0  2  0  0  0  0  0  0
  190.8690  175.6760  136.1430 C   0  0  0  0  0  1  0  0  0  0  0  0
  190.3100  176.7690  137.0270 C   0  0  2  0  0  3  0  0  0  0  0  0
  188.0030  177.7660  138.1990 C   0  0  1  0  0  3  0  0  0  0  0  0
  186.8330  178.6210  138.0190 N   0  0  0  0  0  2  0  0  0  0  0  0
  184.8030  178.6610  138.8000 C   0  0  0  0  0  1  0  0  0  0  0  0
  186.1420  178.6600  139.1860 O   0  0  0  0  0  0  0  0  0  0  0  0
  189.0600  175.9750  143.3620 C   0  0  0  0  0  2  0  0  0  0  0  0
  185.0600  179.1520  146.3210 N   0  0  0  0  0  0  0  0  0  0  0  0
  186.8620  177.1760  143.3080 N   0  0  0  0  0  0  0  0  0  0  0  0
  184.3930  179.0900  145.1180 C   0  0  0  0  0  3  0  0  0  0  0  0
  187.9890  176.8130  143.9840 C   0  0  0  0  0  0  0  0  0  0  0  0
  186.2630  178.5880  146.5010 N   0  0  0  0  0  0  0  0  0  0  0  0
  186.1530  177.8740  144.2120 C   0  0  0  0  0  0  0  0  0  0  0  0
  184.9400  178.4410  144.0440 N   0  0  0  0  0  2  0  0  0  0  0  0
  186.8220  177.9490  145.4540 C   0  0  0  0  0  0  0  0  0  0  0  0
  187.9970  177.2680  145.3080 C   0  0  0  0  0  0  0  0  0  0  0  0
  189.8180  176.8760  147.1160 N   0  0  0  0  0  0  0  0  0  0  0  0
  189.0060  177.0510  146.3110 C   0  0  0  0  0  0  0  0  0  0  0  0
  1  3  1  0  0  0  0
  2  1  1  0  0  0  0
  3 15  1  0  0  0  0
  4  1  2  0  0  0  0
  5  6  1  0  0  0  0
  6  2  1  1  0  0  0
  7 10  1  0  0  0  0
  7 11  1  0  0  0  0
  8  6  1  0  0  0  0
 10  9  1  6  0  0  0
 10  5  1  0  0  0  0
 11 12  1  6  0  0  0
 11  8  1  0  0  0  0
 12 14  1  0  0  0  0
 13 14  1  0  0  0  0
 15 19  1  0  0  0  0
 16 20  1  0  0  0  0
 17 19  1  0  0  0  0
 17 21  2  0  0  0  0
 18 16  2  0  0  0  0
 19 24  2  0  0  0  0
 21 23  1  0  0  0  0
 22 21  1  0  0  0  0
 22 18  1  0  0  0  0
 23 20  2  0  0  0  0
 24 23  1  0  0  0  0
 24 26  1  0  0  0  0
 26 25  3  0  0  0  0
M  END
>  <MODEL>
2

>  <REMARK>
 VINA RESULT:      -7.4      1.328      1.510
  Name = 
  6 active torsions:
  status: ('A' for Active; 'I' for Inactive)
    1  A    between atoms: C_5  and  N_8
    2  A    between atoms: C_7  and  C_16
    3  A    between atoms: C_7  and  N_23
    4  A    between atoms: O_13  and  N_24
    5  A    between atoms: C_21  and  C_22
    6  A    between atoms: N_24  and  C_25
                            x       y       z     vdW  Elec       q    Type
                         _______ _______ _______ _____ _____    ______ ____

>  <TORSDO>
F 6

$$$$
=
 OpenBabel11042410523D

 26 28  0  0  1  0  0  0  0  0999 V2000
  190.7990  177.2040  141.2500 C   0  0  0  0  0  0  0  0  0  0  0  0
  189.8010  177.2140  140.2240 N   0  0  0  0  0  2  0  0  0  0  0  0
  190.4630  176.8010  142.5790 N   0  0  0  0  0  2  0  0  0  0  0  0
  192.0180  177.5420  140.9810 N   0  0  0  0  0  2  0  0  0  0  0  0
  190.1980  176.3610  137.9810 C   0  0  0  0  0  2  0  0  0  0  0  0
  190.0670  177.6140  138.8510 C   0  0  1  0  0  3  0  0  0  0  0  0
  188.1940  177.0160  136.1800 S   0  0  0  0  0  0  0  0  0  0  0  0
  188.9840  178.5870  138.3630 C   0  0  0  0  0  2  0  0  0  0  0  0
  190.4170  175.5070  135.6650 C   0  0  0  0  0  1  0  0  0  0  0  0
  189.9650  176.6770  136.5110 C   0  0  2  0  0  3  0  0  0  0  0  0
  187.7880  177.8470  137.7680 C   0  0  1  0  0  3  0  0  0  0  0  0
  186.6430  178.7390  137.6120 N   0  0  0  0  0  2  0  0  0  0  0  0
  184.6790  178.3310  138.4550 C   0  0  0  0  0  1  0  0  0  0  0  0
  185.9590  178.7750  138.7840 O   0  0  0  0  0  0  0  0  0  0  0  0
  189.1240  176.3770  142.9620 C   0  0  0  0  0  2  0  0  0  0  0  0
  187.4300  178.4940  148.2060 N   0  0  0  0  0  0  0  0  0  0  0  0
  189.7000  176.7510  145.3720 N   0  0  0  0  0  0  0  0  0  0  0  0
  188.6880  178.0720  148.5750 C   0  0  0  0  0  3  0  0  0  0  0  0
  188.8050  176.8390  144.3470 C   0  0  0  0  0  0  0  0  0  0  0  0
  186.9600  178.3350  146.9610 N   0  0  0  0  0  0  0  0  0  0  0  0
  189.0550  177.2970  146.4160 C   0  0  0  0  0  0  0  0  0  0  0  0
  189.5190  177.4670  147.6720 N   0  0  0  0  0  2  0  0  0  0  0  0
  187.7610  177.7350  146.0570 C   0  0  0  0  0  0  0  0  0  0  0  0
  187.6010  177.4440  144.7320 C   0  0  0  0  0  0  0  0  0  0  0  0
  185.5280  177.9460  143.2540 N   0  0  0  0  0  0  0  0  0  0  0  0
  186.4520  177.7230  143.9130 C   0  0  0  0  0  0  0  0  0  0  0  0
  1  3  1  0  0  0  0
  2  1  1  0  0  0  0
  3 15  1  0  0  0  0
  4  1  2  0  0  0  0
  5  6  1  0  0  0  0
  6  2  1  1  0  0  0
  7 10  1  0  0  0  0
  7 11  1  0  0  0  0
  8  6  1  0  0  0  0
 10  9  1  6  0  0  0
 10  5  1  0  0  0  0
 11 12  1  6  0  0  0
 11  8  1  0  0  0  0
 12 14  1  0  0  0  0
 13 14  1  0  0  0  0
 15 19  1  0  0  0  0
 16 18  2  0  0  0  0
 17 21  2  0  0  0  0
 19 24  2  0  0  0  0
 19 17  1  0  0  0  0
 20 16  1  0  0  0  0
 21 22  1  0  0  0  0
 22 18  1  0  0  0  0
 23 21  1  0  0  0  0
 23 20  2  0  0  0  0
 24 23  1  0  0  0  0
 25 26  3  0  0  0  0
 26 24  1  0  0  0  0
M  END
>  <MODEL>
3

>  <REMARK>
 VINA RESULT:      -7.2      1.705      3.175
  Name = 
  6 active torsions:
  status: ('A' for Active; 'I' for Inactive)
    1  A    between atoms: C_5  and  N_8
    2  A    between atoms: C_7  and  C_16
    3  A    between atoms: C_7  and  N_23
    4  A    between atoms: O_13  and  N_24
    5  A    between atoms: C_21  and  C_22
    6  A    between atoms: N_24  and  C_25
                            x       y       z     vdW  Elec       q    Type
                         _______ _______ _______ _____ _____    ______ ____

>  <TORSDO>
F 6

$$$$
=
 OpenBabel11042410523D

 26 28  0  0  1  0  0  0  0  0999 V2000
  184.5430  178.8590  141.0890 C   0  0  0  0  0  0  0  0  0  0  0  0
  183.2750  178.2350  141.3180 N   0  0  0  0  0  2  0  0  0  0  0  0
  185.5360  178.8740  142.1170 N   0  0  0  0  0  2  0  0  0  0  0  0
  184.8100  179.3990  139.9440 N   0  0  0  0  0  2  0  0  0  0  0  0
  182.0790  176.7460  139.8120 C   0  0  0  0  0  2  0  0  0  0  0  0
  182.2160  178.1830  140.3230 C   0  0  1  0  0  3  0  0  0  0  0  0
  179.4020  176.4340  140.4640 S   0  0  0  0  0  0  0  0  0  0  0  0
  180.9140  178.7530  140.9030 C   0  0  0  0  0  2  0  0  0  0  0  0
  180.7330  175.2030  138.4160 C   0  0  0  0  0  1  0  0  0  0  0  0
  180.7130  176.5060  139.1860 C   0  0  2  0  0  3  0  0  0  0  0  0
  180.1000  177.6800  141.6210 C   0  0  1  0  0  3  0  0  0  0  0  0
  179.0490  178.2780  142.4400 N   0  0  0  0  0  2  0  0  0  0  0  0
  178.9310  179.2880  144.3630 C   0  0  0  0  0  1  0  0  0  0  0  0
  179.3760  178.1200  143.7480 O   0  0  0  0  0  0  0  0  0  0  0  0
  185.3310  178.2640  143.4230 C   0  0  0  0  0  2  0  0  0  0  0  0
  190.3270  177.1240  146.3530 N   0  0  0  0  0  0  0  0  0  0  0  0
  187.7200  177.5200  143.3070 N   0  0  0  0  0  0  0  0  0  0  0  0
  190.7910  176.8530  145.0840 C   0  0  0  0  0  3  0  0  0  0  0  0
  186.6420  177.9080  144.0460 C   0  0  0  0  0  0  0  0  0  0  0  0
  189.0620  177.5010  146.5850 N   0  0  0  0  0  0  0  0  0  0  0  0
  188.6890  177.3340  144.2200 C   0  0  0  0  0  0  0  0  0  0  0  0
  189.9660  176.9600  143.9970 N   0  0  0  0  0  2  0  0  0  0  0  0
  188.2320  177.6070  145.5280 C   0  0  0  0  0  0  0  0  0  0  0  0
  186.9220  177.9770  145.4170 C   0  0  0  0  0  0  0  0  0  0  0  0
  185.3240  178.6870  147.3350 N   0  0  0  0  0  0  0  0  0  0  0  0
  186.0360  178.3710  146.4800 C   0  0  0  0  0  0  0  0  0  0  0  0
  1  2  1  0  0  0  0
  1  3  1  0  0  0  0
  3 15  1  0  0  0  0
  4  1  2  0  0  0  0
  5  6  1  0  0  0  0
  6  8  1  0  0  0  0
  6  2  1  1  0  0  0
  7 11  1  0  0  0  0
  8 11  1  0  0  0  0
 10  9  1  1  0  0  0
 10  5  1  0  0  0  0
 10  7  1  0  0  0  0
 11 12  1  6  0  0  0
 12 14  1  0  0  0  0
 14 13  1  0  0  0  0
 15 19  1  0  0  0  0
 16 20  1  0  0  0  0
 17 19  1  0  0  0  0
 17 21  2  0  0  0  0
 18 16  2  0  0  0  0
 19 24  2  0  0  0  0
 21 23  1  0  0  0  0
 22 21  1  0  0  0  0
 22 18  1  0  0  0  0
 23 20  2  0  0  0  0
 24 23  1  0  0  0  0
 24 26  1  0  0  0  0
 26 25  3  0  0  0  0
M  END
>  <MODEL>
4

>  <REMARK>
 VINA RESULT:      -7.1      3.708      6.588
  Name = 
  6 active torsions:
  status: ('A' for Active; 'I' for Inactive)
    1  A    between atoms: C_5  and  N_8
    2  A    between atoms: C_7  and  C_16
    3  A    between atoms: C_7  and  N_23
    4  A    between atoms: O_13  and  N_24
    5  A    between atoms: C_21  and  C_22
    6  A    between atoms: N_24  and  C_25
                            x       y       z     vdW  Elec       q    Type
                         _______ _______ _______ _____ _____    ______ ____

>  <TORSDO>
F 6

$$$$
=
 OpenBabel11042410523D

 26 28  0  0  1  0  0  0  0  0999 V2000
  184.8280  178.7940  141.6670 C   0  0  0  0  0  0  0  0  0  0  0  0
  183.4880  178.2890  141.6710 N   0  0  0  0  0  2  0  0  0  0  0  0
  185.6590  178.6400  142.8200 N   0  0  0  0  0  2  0  0  0  0  0  0
  185.3050  179.3780  140.6170 N   0  0  0  0  0  2  0  0  0  0  0  0
  182.4710  177.0530  139.8390 C   0  0  0  0  0  2  0  0  0  0  0  0
  182.5830  178.4100  140.5390 C   0  0  1  0  0  3  0  0  0  0  0  0
  179.7190  176.8060  140.0680 S   0  0  0  0  0  0  0  0  0  0  0  0
  181.2320  178.9750  140.9990 C   0  0  0  0  0  2  0  0  0  0  0  0
  181.2890  175.7590  138.0880 C   0  0  0  0  0  1  0  0  0  0  0  0
  181.2030  176.9610  139.0040 C   0  0  2  0  0  3  0  0  0  0  0  0
  180.2850  177.8680  141.4570 C   0  0  1  0  0  3  0  0  0  0  0  0
  179.1480  178.4190  142.1900 N   0  0  0  0  0  2  0  0  0  0  0  0
  178.9310  179.3770  144.1300 C   0  0  0  0  0  1  0  0  0  0  0  0
  179.3370  178.1960  143.5150 O   0  0  0  0  0  0  0  0  0  0  0  0
  185.2130  177.9700  144.0330 C   0  0  0  0  0  2  0  0  0  0  0  0
  189.7660  177.4920  147.7600 N   0  0  0  0  0  2  0  0  0  0  0  0
  186.1620  178.5230  146.2850 N   0  0  0  0  0  0  0  0  0  0  0  0
  188.9270  178.2080  148.5850 C   0  0  0  0  0  3  0  0  0  0  0  0
  186.3050  177.9540  145.0540 C   0  0  0  0  0  0  0  0  0  0  0  0
  189.4180  177.1470  146.5130 N   0  0  0  0  0  0  0  0  0  0  0  0
  187.3280  178.2630  146.9000 C   0  0  0  0  0  0  0  0  0  0  0  0
  187.6880  178.6010  148.1560 N   0  0  0  0  0  0  0  0  0  0  0  0
  188.2030  177.5280  146.0690 C   0  0  0  0  0  0  0  0  0  0  0  0
  187.5480  177.3290  144.8880 C   0  0  0  0  0  0  0  0  0  0  0  0
  188.4130  176.0350  142.8110 N   0  0  0  0  0  0  0  0  0  0  0  0
  188.0280  176.6120  143.7370 C   0  0  0  0  0  0  0  0  0  0  0  0
  1  2  1  0  0  0  0
  1  3  1  0  0  0  0
  3 15  1  0  0  0  0
  4  1  2  0  0  0  0
  5  6  1  0  0  0  0
  6  8  1  0  0  0  0
  6  2  1  1  0  0  0
  7 11  1  0  0  0  0
  8 11  1  0  0  0  0
 10  9  1  6  0  0  0
 10  5  1  0  0  0  0
 10  7  1  0  0  0  0
 11 12  1  6  0  0  0
 12 14  1  0  0  0  0
 14 13  1  0  0  0  0
 15 19  1  0  0  0  0
 16 18  1  0  0  0  0
 17 21  2  0  0  0  0
 19 17  1  0  0  0  0
 20 16  1  0  0  0  0
 21 22  1  0  0  0  0
 22 18  2  0  0  0  0
 23 20  2  0  0  0  0
 23 21  1  0  0  0  0
 24 19  2  0  0  0  0
 24 23  1  0  0  0  0
 25 26  3  0  0  0  0
 26 24  1  0  0  0  0
M  END
>  <MODEL>
5

>  <REMARK>
 VINA RESULT:      -6.9      3.695      6.461
  Name = 
  6 active torsions:
  status: ('A' for Active; 'I' for Inactive)
    1  A    between atoms: C_5  and  N_8
    2  A    between atoms: C_7  and  C_16
    3  A    between atoms: C_7  and  N_23
    4  A    between atoms: O_13  and  N_24
    5  A    between atoms: C_21  and  C_22
    6  A    between atoms: N_24  and  C_25
                            x       y       z     vdW  Elec       q    Type
                         _______ _______ _______ _____ _____    ______ ____

>  <TORSDO>
F 6

$$$$
=
 OpenBabel11042410523D

 26 28  0  0  1  0  0  0  0  0999 V2000
  188.6670  176.8900  142.7020 C   0  0  0  0  0  0  0  0  0  0  0  0
  187.8860  177.6450  143.6360 N   0  0  0  0  0  2  0  0  0  0  0  0
  188.9520  177.4210  141.4060 N   0  0  0  0  0  2  0  0  0  0  0  0
  189.1360  175.7300  143.0270 N   0  0  0  0  0  2  0  0  0  0  0  0
  188.4390  177.8850  145.9930 C   0  0  0  0  0  2  0  0  0  0  0  0
  187.5530  177.1690  144.9690 C   0  0  1  0  0  3  0  0  0  0  0  0
  186.3760  178.9500  147.5070 S   0  0  0  0  0  0  0  0  0  0  0  0
  186.0510  177.3430  145.2340 C   0  0  0  0  0  2  0  0  0  0  0  0
  188.8660  178.2600  148.4040 C   0  0  0  0  0  1  0  0  0  0  0  0
  187.8290  177.8400  147.3850 C   0  0  2  0  0  3  0  0  0  0  0  0
  185.7340  178.7250  145.8000 C   0  0  1  0  0  3  0  0  0  0  0  0
  184.3010  179.0020  145.7400 N   0  0  0  0  0  2  0  0  0  0  0  0
  183.0590  179.0030  143.9550 C   0  0  0  0  0  1  0  0  0  0  0  0
  184.0460  179.7260  144.6210 O   0  0  0  0  0  0  0  0  0  0  0  0
  188.4890  178.7310  140.9680 C   0  0  0  0  0  2  0  0  0  0  0  0
  183.3660  178.2560  138.0730 N   0  0  0  0  0  2  0  0  0  0  0  0
  186.0040  179.0510  141.0120 N   0  0  0  0  0  0  0  0  0  0  0  0
  182.8700  178.7970  139.2380 C   0  0  0  0  0  3  0  0  0  0  0  0
  187.1260  178.6280  140.3620 C   0  0  0  0  0  0  0  0  0  0  0  0
  184.6700  177.9940  137.9060 N   0  0  0  0  0  0  0  0  0  0  0  0
  185.0150  178.8260  140.1310 C   0  0  0  0  0  0  0  0  0  0  0  0
  183.7010  179.0910  140.2860 N   0  0  0  0  0  0  0  0  0  0  0  0
  185.5050  178.2710  138.9280 C   0  0  0  0  0  0  0  0  0  0  0  0
  186.8570  178.1460  139.0750 C   0  0  0  0  0  0  0  0  0  0  0  0
  188.5500  177.2470  137.3250 N   0  0  0  0  0  0  0  0  0  0  0  0
  187.7950  177.6480  138.1050 C   0  0  0  0  0  0  0  0  0  0  0  0
  1  4  2  0  0  0  0
  1  2  1  0  0  0  0
  3  1  1  0  0  0  0
  5 10  1  0  0  0  0
  6  2  1  6  0  0  0
  6  8  1  0  0  0  0
  6  5  1  0  0  0  0
  8 11  1  0  0  0  0
 10  7  1  0  0  0  0
 10  9  1  1  0  0  0
 11 12  1  1  0  0  0
 11  7  1  0  0  0  0
 13 14  1  0  0  0  0
 14 12  1  0  0  0  0
 15  3  1  0  0  0  0
 16 18  1  0  0  0  0
 18 22  2  0  0  0  0
 19 15  1  0  0  0  0
 19 17  1  0  0  0  0
 20 16  1  0  0  0  0
 20 23  2  0  0  0  0
 21 22  1  0  0  0  0
 21 17  2  0  0  0  0
 23 24  1  0  0  0  0
 23 21  1  0  0  0  0
 24 19  2  0  0  0  0
 25 26  3  0  0  0  0
 26 24  1  0  0  0  0
M  END
>  <MODEL>
6

>  <REMARK>
 VINA RESULT:      -6.8      2.961      6.627
  Name = 
  6 active torsions:
  status: ('A' for Active; 'I' for Inactive)
    1  A    between atoms: C_5  and  N_8
    2  A    between atoms: C_7  and  C_16
    3  A    between atoms: C_7  and  N_23
    4  A    between atoms: O_13  and  N_24
    5  A    between atoms: C_21  and  C_22
    6  A    between atoms: N_24  and  C_25
                            x       y       z     vdW  Elec       q    Type
                         _______ _______ _______ _____ _____    ______ ____

>  <TORSDO>
F 6

$$$$
=
 OpenBabel11042410523D

 26 28  0  0  1  0  0  0  0  0999 V2000
  188.9390  178.2630  139.4840 C   0  0  0  0  0  0  0  0  0  0  0  0
  189.6600  177.0430  139.2840 N   0  0  0  0  0  2  0  0  0  0  0  0
  188.2410  178.4950  140.7100 N   0  0  0  0  0  2  0  0  0  0  0  0
  188.9260  179.1740  138.5670 N   0  0  0  0  0  2  0  0  0  0  0  0
  191.6170  175.8880  138.4150 C   0  0  0  0  0  2  0  0  0  0  0  0
  190.3910  176.7340  138.0650 C   0  0  1  0  0  3  0  0  0  0  0  0
  190.9940  173.7370  136.7800 S   0  0  0  0  0  0  0  0  0  0  0  0
  189.4590  176.0680  137.0430 C   0  0  0  0  0  2  0  0  0  0  0  0
  193.5000  174.5590  137.5040 C   0  0  0  0  0  1  0  0  0  0  0  0
  192.1240  175.1150  137.2070 C   0  0  2  0  0  3  0  0  0  0  0  0
  189.4090  174.5530  137.2290 C   0  0  1  0  0  3  0  0  0  0  0  0
  188.2930  173.9690  136.4900 N   0  0  0  0  0  2  0  0  0  0  0  0
  186.2780  173.6090  137.2260 C   0  0  0  0  0  1  0  0  0  0  0  0
  187.1550  174.6200  136.8380 O   0  0  0  0  0  0  0  0  0  0  0  0
  188.2280  177.5370  141.8060 C   0  0  0  0  0  2  0  0  0  0  0  0
  184.3370  178.6480  146.1040 N   0  0  0  0  0  0  0  0  0  0  0  0
  185.9220  178.3040  142.4170 N   0  0  0  0  0  0  0  0  0  0  0  0
  183.5230  178.9540  145.0350 C   0  0  0  0  0  3  0  0  0  0  0  0
  187.1650  177.8890  142.7960 C   0  0  0  0  0  0  0  0  0  0  0  0
  185.6080  178.2550  145.9440 N   0  0  0  0  0  0  0  0  0  0  0  0
  185.2690  178.4760  143.5790 C   0  0  0  0  0  0  0  0  0  0  0  0
  183.9890  178.8670  143.7510 N   0  0  0  0  0  2  0  0  0  0  0  0
  186.0880  178.1680  144.6870 C   0  0  0  0  0  0  0  0  0  0  0  0
  187.3010  177.7900  144.1870 C   0  0  0  0  0  0  0  0  0  0  0  0
  189.3830  177.0190  145.5320 N   0  0  0  0  0  0  0  0  0  0  0  0
  188.4550  177.3620  144.9320 C   0  0  0  0  0  0  0  0  0  0  0  0
  1  3  1  0  0  0  0
  2  1  1  0  0  0  0
  3 15  1  0  0  0  0
  4  1  2  0  0  0  0
  6  5  1  0  0  0  0
  6  2  1  1  0  0  0
  7 10  1  0  0  0  0
  7 11  1  0  0  0  0
  8 11  1  0  0  0  0
  8  6  1  0  0  0  0
 10  9  1  1  0  0  0
 10  5  1  0  0  0  0
 11 12  1  6  0  0  0
 12 14  1  0  0  0  0
 14 13  1  0  0  0  0
 15 19  1  0  0  0  0
 17 19  1  0  0  0  0
 17 21  2  0  0  0  0
 18 16  2  0  0  0  0
 19 24  2  0  0  0  0
 20 16  1  0  0  0  0
 21 22  1  0  0  0  0
 21 23  1  0  0  0  0
 22 18  1  0  0  0  0
 23 20  2  0  0  0  0
 24 23  1  0  0  0  0
 24 26  1  0  0  0  0
 26 25  3  0  0  0  0
M  END
>  <MODEL>
7

>  <REMARK>
 VINA RESULT:      -6.6      2.470      3.388
  Name = 
  6 active torsions:
  status: ('A' for Active; 'I' for Inactive)
    1  A    between atoms: C_5  and  N_8
    2  A    between atoms: C_7  and  C_16
    3  A    between atoms: C_7  and  N_23
    4  A    between atoms: O_13  and  N_24
    5  A    between atoms: C_21  and  C_22
    6  A    between atoms: N_24  and  C_25
                            x       y       z     vdW  Elec       q    Type
                         _______ _______ _______ _____ _____    ______ ____

>  <TORSDO>
F 6

$$$$
=
 OpenBabel11042410523D

 26 28  0  0  1  0  0  0  0  0999 V2000
  189.6020  176.6160  142.3900 C   0  0  0  0  0  0  0  0  0  0  0  0
  188.5870  177.2810  143.1500 N   0  0  0  0  0  2  0  0  0  0  0  0
  190.0090  177.1350  141.1220 N   0  0  0  0  0  2  0  0  0  0  0  0
  190.1720  175.5510  142.8500 N   0  0  0  0  0  2  0  0  0  0  0  0
  188.8890  177.5370  145.5500 C   0  0  0  0  0  2  0  0  0  0  0  0
  188.1190  176.8110  144.4450 C   0  0  1  0  0  3  0  0  0  0  0  0
  186.6740  178.5990  146.8350 S   0  0  0  0  0  0  0  0  0  0  0  0
  186.5960  176.9770  144.5500 C   0  0  0  0  0  2  0  0  0  0  0  0
  189.0600  177.9280  147.9910 C   0  0  0  0  0  1  0  0  0  0  0  0
  188.1380  177.4960  146.8720 C   0  0  2  0  0  3  0  0  0  0  0  0
  186.2150  178.3610  145.0710 C   0  0  1  0  0  3  0  0  0  0  0  0
  184.7950  178.6290  144.8610 N   0  0  0  0  0  2  0  0  0  0  0  0
  183.9210  178.8050  142.8770 C   0  0  0  0  0  1  0  0  0  0  0  0
  184.6670  179.4990  143.8270 O   0  0  0  0  0  0  0  0  0  0  0  0
  189.4420  178.3450  140.5440 C   0  0  0  0  0  2  0  0  0  0  0  0
  186.4010  176.9620  135.6770 N   0  0  0  0  0  2  0  0  0  0  0  0
  187.2150  178.2710  139.3990 N   0  0  0  0  0  0  0  0  0  0  0  0
  185.3510  177.4610  136.4150 C   0  0  0  0  0  3  0  0  0  0  0  0
  188.5520  178.0070  139.3910 C   0  0  0  0  0  0  0  0  0  0  0  0
  187.6490  176.9020  136.1610 N   0  0  0  0  0  0  0  0  0  0  0  0
  186.7960  177.8600  138.1890 C   0  0  0  0  0  0  0  0  0  0  0  0
  185.5440  177.9200  137.6890 N   0  0  0  0  0  0  0  0  0  0  0  0
  187.8600  177.3450  137.4170 C   0  0  0  0  0  0  0  0  0  0  0  0
  188.9850  177.4400  138.1850 C   0  0  0  0  0  0  0  0  0  0  0  0
  191.3990  176.7540  137.5240 N   0  0  0  0  0  0  0  0  0  0  0  0
  190.3240  177.0600  137.8190 C   0  0  0  0  0  0  0  0  0  0  0  0
  1  4  2  0  0  0  0
  1  2  1  0  0  0  0
  3  1  1  0  0  0  0
  5 10  1  0  0  0  0
  6  2  1  6  0  0  0
  6  8  1  0  0  0  0
  6  5  1  0  0  0  0
  7 10  1  0  0  0  0
  8 11  1  0  0  0  0
 10  9  1  1  0  0  0
 11 12  1  1  0  0  0
 11  7  1  0  0  0  0
 13 14  1  0  0  0  0
 14 12  1  0  0  0  0
 15  3  1  0  0  0  0
 16 20  1  0  0  0  0
 16 18  1  0  0  0  0
 18 22  2  0  0  0  0
 19 17  1  0  0  0  0
 19 15  1  0  0  0  0
 20 23  2  0  0  0  0
 21 17  2  0  0  0  0
 22 21  1  0  0  0  0
 23 24  1  0  0  0  0
 23 21  1  0  0  0  0
 24 19  2  0  0  0  0
 25 26  3  0  0  0  0
 26 24  1  0  0  0  0
M  END
>  <MODEL>
8

>  <REMARK>
 VINA RESULT:      -6.6      2.820      7.088
  Name = 
  6 active torsions:
  status: ('A' for Active; 'I' for Inactive)
    1  A    between atoms: C_5  and  N_8
    2  A    between atoms: C_7  and  C_16
    3  A    between atoms: C_7  and  N_23
    4  A    between atoms: O_13  and  N_24
    5  A    between atoms: C_21  and  C_22
    6  A    between atoms: N_24  and  C_25
                            x       y       z     vdW  Elec       q    Type
                         _______ _______ _______ _____ _____    ______ ____

>  <TORSDO>
F 6

$$$$
=
 OpenBabel11042410523D

 26 28  0  0  1  0  0  0  0  0999 V2000
  186.7670  178.5020  140.4860 C   0  0  0  0  0  0  0  0  0  0  0  0
  185.3590  178.6010  140.2440 N   0  0  0  0  0  2  0  0  0  0  0  0
  187.2550  178.2460  141.8040 N   0  0  0  0  0  2  0  0  0  0  0  0
  187.6090  178.6280  139.5130 N   0  0  0  0  0  2  0  0  0  0  0  0
  184.4880  177.5310  138.2400 C   0  0  0  0  0  2  0  0  0  0  0  0
  184.7890  178.8630  138.9310 C   0  0  1  0  0  3  0  0  0  0  0  0
  181.7850  177.9900  137.8290 S   0  0  0  0  0  0  0  0  0  0  0  0
  183.5610  179.7760  139.0600 C   0  0  0  0  0  2  0  0  0  0  0  0
  183.4290  176.4510  136.2770 C   0  0  0  0  0  1  0  0  0  0  0  0
  183.4560  177.6970  137.1350 C   0  0  2  0  0  3  0  0  0  0  0  0
  182.2850  178.9730  139.3000 C   0  0  1  0  0  3  0  0  0  0  0  0
  181.1950  179.8380  139.7430 N   0  0  0  0  0  2  0  0  0  0  0  0
  180.0280  181.6270  139.3300 C   0  0  0  0  0  1  0  0  0  0  0  0
  180.9040  180.7140  138.7480 O   0  0  0  0  0  0  0  0  0  0  0  0
  186.3770  178.0620  142.9510 C   0  0  0  0  0  2  0  0  0  0  0  0
  189.1510  177.5370  148.1350 N   0  0  0  0  0  0  0  0  0  0  0  0
  188.4710  177.4200  144.1660 N   0  0  0  0  0  0  0  0  0  0  0  0
  190.1890  177.1270  147.3280 C   0  0  0  0  0  3  0  0  0  0  0  0
  187.1770  177.8490  144.1950 C   0  0  0  0  0  0  0  0  0  0  0  0
  187.9550  177.8820  147.6390 N   0  0  0  0  0  0  0  0  0  0  0  0
  188.8350  177.3960  145.4600 C   0  0  0  0  0  0  0  0  0  0  0  0
  190.0370  177.0560  145.9690 N   0  0  0  0  0  2  0  0  0  0  0  0
  187.7820  177.8130  146.3040 C   0  0  0  0  0  0  0  0  0  0  0  0
  186.7210  178.1050  145.4940 C   0  0  0  0  0  0  0  0  0  0  0  0
  184.3880  178.9820  146.2190 N   0  0  0  0  0  0  0  0  0  0  0  0
  185.4280  178.5910  145.8960 C   0  0  0  0  0  0  0  0  0  0  0  0
  1  3  1  0  0  0  0
  2  1  1  0  0  0  0
  3 15  1  0  0  0  0
  4  1  2  0  0  0  0
  5  6  1  0  0  0  0
  6  8  1  0  0  0  0
  6  2  1  1  0  0  0
  7 11  1  0  0  0  0
  8 11  1  0  0  0  0
 10  9  1  1  0  0  0
 10  7  1  0  0  0  0
 10  5  1  0  0  0  0
 11 12  1  6  0  0  0
 14 13  1  0  0  0  0
 14 12  1  0  0  0  0
 15 19  1  0  0  0  0
 17 19  1  0  0  0  0
 17 21  2  0  0  0  0
 18 16  2  0  0  0  0
 19 24  2  0  0  0  0
 20 16  1  0  0  0  0
 21 22  1  0  0  0  0
 21 23  1  0  0  0  0
 22 18  1  0  0  0  0
 23 20  2  0  0  0  0
 24 26  1  0  0  0  0
 24 23  1  0  0  0  0
 26 25  3  0  0  0  0
M  END
>  <MODEL>
9

>  <REMARK>
 VINA RESULT:      -6.4      2.985      5.206
  Name = 
  6 active torsions:
  status: ('A' for Active; 'I' for Inactive)
    1  A    between atoms: C_5  and  N_8
    2  A    between atoms: C_7  and  C_16
    3  A    between atoms: C_7  and  N_23
    4  A    between atoms: O_13  and  N_24
    5  A    between atoms: C_21  and  C_22
    6  A    between atoms: N_24  and  C_25
                            x       y       z     vdW  Elec       q    Type
                         _______ _______ _______ _____ _____    ______ ____

>  <TORSDO>
F 6

$$$$
