=
 OpenBabel11032419093D

 42 48  0  0  1  0  0  0  0  0999 V2000
  188.1580  177.4830  145.2970 C   0  0  0  0  0  0  0  0  0  0  0  0
  189.4390  177.3180  144.7500 C   0  0  0  0  0  0  0  0  0  0  0  0
  189.1700  177.0850  147.4970 C   0  0  0  0  0  3  0  0  0  0  0  0
  191.2630  177.0640  143.3240 N   0  0  0  0  0  0  0  0  0  0  0  0
  189.8760  177.3350  143.4010 N   0  0  0  0  0  0  0  0  0  0  0  0
  190.4330  176.9210  146.9010 C   0  0  0  0  0  0  0  0  0  0  0  0
  190.5190  177.0470  145.5160 C   0  0  0  0  0  0  0  0  0  0  0  0
  191.6500  176.8900  144.6750 N   0  0  0  0  0  0  0  0  0  0  0  0
  191.6300  176.6150  147.7320 C   0  0  0  0  0  1  0  0  0  0  0  0
  188.0380  177.3630  146.6990 C   0  0  0  0  0  3  0  0  0  0  0  0
  187.0000  177.7670  144.4390 C   0  0  0  0  0  3  0  0  0  0  0  0
  185.8340  178.2030  144.9000 C   0  0  0  0  0  3  0  0  0  0  0  0
  184.7300  178.4690  143.9390 C   0  0  2  0  0  3  0  0  0  0  0  0
  185.0110  179.6350  143.2080 O   0  0  0  0  0  0  0  0  0  0  0  0
  180.3800  178.0590  141.3220 C   0  0  0  0  0  2  0  0  0  0  0  0
  182.3740  177.0520  140.0210 C   0  0  0  0  0  2  0  0  0  0  0  0
  185.8860  178.6920  141.1280 C   0  0  0  0  0  1  0  0  0  0  0  0
  183.4250  178.6730  144.6890 C   0  0  0  0  0  2  0  0  0  0  0  0
  182.2510  179.3290  142.5160 C   0  0  1  0  0  3  0  0  0  0  0  0
  183.2600  177.3890  141.2190 C   0  0  0  0  0  2  0  0  0  0  0  0
  182.2260  178.4470  143.7740 C   0  0  0  0  0  2  0  0  0  0  0  0
  183.3200  178.8950  141.4900 C   0  0  2  0  0  3  0  0  0  0  0  0
  180.8580  179.3960  141.8860 C   0  0  0  0  0  2  0  0  0  0  0  0
  181.0330  177.8020  139.9630 C   0  0  1  0  0  3  0  0  0  0  0  0
  184.7400  179.4040  141.8410 C   0  0  1  0  0  3  0  0  0  0  0  0
  180.1040  177.1720  139.0230 N   0  0  0  0  0  2  0  0  0  0  0  0
  180.6810  175.9480  138.4790 C   0  0  0  0  0  1  0  0  0  0  0  0
  189.5090  177.4480  141.0210 C   0  0  0  0  0  3  0  0  0  0  0  0
  189.0390  177.5340  142.2590 C   0  0  0  0  0  3  0  0  0  0  0  0
  188.6010  177.6570  139.8560 C   0  0  0  0  0  2  0  0  0  0  0  0
  191.6030  176.7150  137.7870 O   0  0  0  0  0  0  0  0  0  0  0  0
  189.0590  176.4830  137.3960 N   0  0  0  0  0  0  0  0  0  0  0  0
  189.2000  177.1160  138.6470 N   0  0  0  0  0  0  0  0  0  0  0  0
  190.3510  176.7590  137.9050 C   0  0  0  0  0  0  0  0  0  0  0  0
  186.4630  174.8320  136.7860 C   0  0  0  0  0  0  0  0  0  0  0  0
  186.7800  176.2120  136.6830 C   0  0  0  0  0  0  0  0  0  0  0  0
  185.8530  177.2160  136.8920 C   0  0  0  0  0  3  0  0  0  0  0  0
  188.2040  175.9750  136.3370 C   0  0  2  0  0  3  0  0  0  0  0  0
  188.1290  174.2480  136.4100 S   0  0  0  0  0  0  0  0  0  0  0  0
  185.1990  174.3730  137.1050 C   0  0  0  0  0  3  0  0  0  0  0  0
  184.5500  176.7690  137.2190 C   0  0  0  0  0  3  0  0  0  0  0  0
  184.2320  175.3820  137.3240 C   0  0  0  0  0  3  0  0  0  0  0  0
  1 10  1  0  0  0  0
  2  1  2  0  0  0  0
  2  7  1  0  0  0  0
  4  5  1  0  0  0  0
  4  8  2  0  0  0  0
  5  2  1  0  0  0  0
  6  3  1  0  0  0  0
  6  9  1  0  0  0  0
  7  6  2  0  0  0  0
  8  7  1  0  0  0  0
 10  3  2  0  0  0  0
 11 12  2  0  0  0  0
 11  1  1  0  0  0  0
 13 18  1  0  0  0  0
 13 12  1  1  0  0  0
 14 13  1  0  0  0  0
 15 23  1  0  0  0  0
 16 20  1  0  0  0  0
 19 23  1  6  0  0  0
 19 21  1  0  0  0  0
 21 18  1  0  0  0  0
 22 20  1  1  0  0  0
 22 25  1  0  0  0  0
 22 19  1  0  0  0  0
 24 26  1  6  0  0  0
 24 16  1  0  0  0  0
 24 15  1  0  0  0  0
 25 17  1  1  0  0  0
 25 14  1  0  0  0  0
 27 26  1  0  0  0  0
 28 29  2  0  0  0  0
 29  5  1  0  0  0  0
 30 28  1  0  0  0  0
 31 34  2  0  0  0  0
 32 34  1  0  0  0  0
 32 33  1  0  0  0  0
 33 30  1  0  0  0  0
 34 33  1  0  0  0  0
 35 40  1  0  0  0  0
 36 35  2  0  0  0  0
 36 37  1  0  0  0  0
 37 41  2  0  0  0  0
 38 39  1  0  0  0  0
 38 36  1  0  0  0  0
 38 32  1  1  0  0  0
 39 35  1  0  0  0  0
 40 42  2  0  0  0  0
 41 42  1  0  0  0  0
M  END
>  <MODEL>
1

>  <REMARK>
 VINA RESULT:      -9.9      0.000      0.000
  Name = 
  7 active torsions:
  status: ('A' for Active; 'I' for Inactive)
    1  A    between atoms: C_1  and  C_3
    2  A    between atoms: C_2  and  C_40
    3  A    between atoms: N_12  and  C_33
    4  A    between atoms: C_17  and  N_19
    5  A    between atoms: C_22  and  C_29
    6  A    between atoms: N_27  and  C_36
    7  A    between atoms: C_29  and  N_38
                            x       y       z     vdW  Elec       q    Type
                         _______ _______ _______ _____ _____    ______ ____

>  <TORSDO>
F 7

$$$$
=
 OpenBabel11032419093D

 42 48  0  0  1  0  0  0  0  0999 V2000
  187.6190  177.6040  144.3390 C   0  0  0  0  0  0  0  0  0  0  0  0
  186.5590  178.0430  145.1460 C   0  0  0  0  0  0  0  0  0  0  0  0
  188.9270  177.3420  146.3990 C   0  0  0  0  0  3  0  0  0  0  0  0
  184.5490  178.8980  145.9530 N   0  0  0  0  0  0  0  0  0  0  0  0
  185.2630  178.5040  144.7970 N   0  0  0  0  0  0  0  0  0  0  0  0
  187.8380  177.7950  147.1640 C   0  0  0  0  0  0  0  0  0  0  0  0
  186.6670  178.1370  146.4890 C   0  0  0  0  0  0  0  0  0  0  0  0
  185.4550  178.6520  147.0130 N   0  0  0  0  0  0  0  0  0  0  0  0
  187.9460  177.9100  148.6440 C   0  0  0  0  0  1  0  0  0  0  0  0
  188.8190  177.2490  144.9940 C   0  0  0  0  0  3  0  0  0  0  0  0
  187.4760  177.5230  142.8790 C   0  0  0  0  0  3  0  0  0  0  0  0
  188.1150  178.3210  142.0330 C   0  0  0  0  0  3  0  0  0  0  0  0
  187.9040  178.1430  140.5710 C   0  0  2  0  0  3  0  0  0  0  0  0
  188.7810  178.9800  139.8620 O   0  0  0  0  0  0  0  0  0  0  0  0
  186.0900  176.5120  136.1000 C   0  0  0  0  0  2  0  0  0  0  0  0
  188.2370  175.2400  136.7800 C   0  0  0  0  0  2  0  0  0  0  0  0
  190.5570  177.4090  139.2630 C   0  0  0  0  0  1  0  0  0  0  0  0
  186.4790  178.5150  140.2020 C   0  0  0  0  0  2  0  0  0  0  0  0
  187.0290  178.2540  137.7200 C   0  0  1  0  0  3  0  0  0  0  0  0
  188.2440  176.0500  138.0750 C   0  0  0  0  0  2  0  0  0  0  0  0
  186.0770  177.8900  138.8700 C   0  0  0  0  0  2  0  0  0  0  0  0
  188.4000  177.5520  137.8190 C   0  0  2  0  0  3  0  0  0  0  0  0
  186.3560  177.9920  136.3700 C   0  0  0  0  0  2  0  0  0  0  0  0
  187.3780  175.8240  135.6450 C   0  0  1  0  0  3  0  0  0  0  0  0
  189.3700  178.2500  138.8050 C   0  0  1  0  0  3  0  0  0  0  0  0
  187.1250  174.8330  134.5980 N   0  0  0  0  0  2  0  0  0  0  0  0
  186.1680  173.8340  135.0590 C   0  0  0  0  0  1  0  0  0  0  0  0
  183.4570  178.7650  143.2220 C   0  0  0  0  0  3  0  0  0  0  0  0
  184.7540  178.6220  143.4660 C   0  0  0  0  0  3  0  0  0  0  0  0
  182.9660  178.8890  141.8190 C   0  0  0  0  0  2  0  0  0  0  0  0
  179.4310  179.0710  143.1040 O   0  0  0  0  0  0  0  0  0  0  0  0
  180.5000  177.8930  141.0680 N   0  0  0  0  0  0  0  0  0  0  0  0
  181.5590  178.5290  141.7440 N   0  0  0  0  0  0  0  0  0  0  0  0
  180.2400  178.6340  142.2450 C   0  0  0  0  0  0  0  0  0  0  0  0
  180.8430  177.2250  138.0230 C   0  0  0  0  0  0  0  0  0  0  0  0
  181.1920  176.5320  139.2110 C   0  0  0  0  0  0  0  0  0  0  0  0
  182.3060  175.7190  139.3120 C   0  0  0  0  0  3  0  0  0  0  0  0
  180.0330  177.0440  139.9840 C   0  0  2  0  0  3  0  0  0  0  0  0
  179.3730  178.0130  138.7130 S   0  0  0  0  0  0  0  0  0  0  0  0
  181.5880  177.1480  136.8620 C   0  0  0  0  0  3  0  0  0  0  0  0
  183.0840  175.6240  138.1330 C   0  0  0  0  0  3  0  0  0  0  0  0
  182.7350  176.3210  136.9380 C   0  0  0  0  0  3  0  0  0  0  0  0
  1 10  2  0  0  0  0
  1  2  1  0  0  0  0
  2  7  2  0  0  0  0
  3  6  2  0  0  0  0
  4  8  2  0  0  0  0
  5  2  1  0  0  0  0
  5  4  1  0  0  0  0
  6  9  1  0  0  0  0
  7  8  1  0  0  0  0
  7  6  1  0  0  0  0
 10  3  1  0  0  0  0
 11  1  1  0  0  0  0
 12 11  2  0  0  0  0
 13 12  1  1  0  0  0
 14 13  1  0  0  0  0
 15 23  1  0  0  0  0
 16 20  1  0  0  0  0
 18 13  1  0  0  0  0
 19 23  1  6  0  0  0
 19 22  1  0  0  0  0
 19 21  1  0  0  0  0
 21 18  1  0  0  0  0
 22 20  1  1  0  0  0
 22 25  1  0  0  0  0
 24 26  1  6  0  0  0
 24 15  1  0  0  0  0
 24 16  1  0  0  0  0
 25 17  1  1  0  0  0
 25 14  1  0  0  0  0
 26 27  1  0  0  0  0
 28 29  2  0  0  0  0
 29  5  1  0  0  0  0
 30 28  1  0  0  0  0
 32 33  1  0  0  0  0
 32 34  1  0  0  0  0
 33 30  1  0  0  0  0
 33 34  1  0  0  0  0
 34 31  2  0  0  0  0
 35 39  1  0  0  0  0
 35 36  1  0  0  0  0
 36 37  2  0  0  0  0
 36 38  1  0  0  0  0
 38 32  1  1  0  0  0
 39 38  1  0  0  0  0
 40 42  1  0  0  0  0
 40 35  2  0  0  0  0
 41 37  1  0  0  0  0
 42 41  2  0  0  0  0
M  END
>  <MODEL>
2

>  <REMARK>
 VINA RESULT:      -9.9      2.918      6.407
  Name = 
  7 active torsions:
  status: ('A' for Active; 'I' for Inactive)
    1  A    between atoms: C_1  and  C_3
    2  A    between atoms: C_2  and  C_40
    3  A    between atoms: N_12  and  C_33
    4  A    between atoms: C_17  and  N_19
    5  A    between atoms: C_22  and  C_29
    6  A    between atoms: N_27  and  C_36
    7  A    between atoms: C_29  and  N_38
                            x       y       z     vdW  Elec       q    Type
                         _______ _______ _______ _____ _____    ______ ____

>  <TORSDO>
F 7

$$$$
=
 OpenBabel11032419093D

 42 48  0  0  1  0  0  0  0  0999 V2000
  185.4420  177.4490  137.5210 C   0  0  0  0  0  0  0  0  0  0  0  0
  185.1640  178.2340  138.6500 C   0  0  0  0  0  0  0  0  0  0  0  0
  183.0770  177.6880  136.9140 C   0  0  0  0  0  3  0  0  0  0  0  0
  185.2640  179.3830  140.6730 N   0  0  0  0  0  0  0  0  0  0  0  0
  186.0010  178.6380  139.7220 N   0  0  0  0  0  0  0  0  0  0  0  0
  182.8460  178.4650  138.0630 C   0  0  0  0  0  0  0  0  0  0  0  0
  183.9270  178.7130  138.9070 C   0  0  0  0  0  0  0  0  0  0  0  0
  183.9550  179.4220  140.1340 N   0  0  0  0  0  0  0  0  0  0  0  0
  181.4860  178.9920  138.3620 C   0  0  0  0  0  1  0  0  0  0  0  0
  184.3670  177.1810  136.6450 C   0  0  0  0  0  3  0  0  0  0  0  0
  186.7950  176.9330  137.2730 C   0  0  0  0  0  3  0  0  0  0  0  0
  187.0440  175.8190  136.5960 C   0  0  0  0  0  3  0  0  0  0  0  0
  188.4550  175.3940  136.3930 C   0  0  2  0  0  3  0  0  0  0  0  0
  188.7620  175.4140  135.0230 O   0  0  0  0  0  0  0  0  0  0  0  0
  193.2160  173.8180  137.2820 C   0  0  0  0  0  2  0  0  0  0  0  0
  193.0910  176.3900  137.0450 C   0  0  0  0  0  2  0  0  0  0  0  0
  189.9310  177.5530  134.8290 C   0  0  0  0  0  1  0  0  0  0  0  0
  188.6520  173.9810  136.9110 C   0  0  0  0  0  2  0  0  0  0  0  0
  191.0260  173.9410  135.9660 C   0  0  1  0  0  3  0  0  0  0  0  0
  191.5790  176.2500  136.8750 C   0  0  0  0  0  2  0  0  0  0  0  0
  190.1260  173.6990  137.1880 C   0  0  0  0  0  2  0  0  0  0  0  0
  191.2090  175.4370  135.6310 C   0  0  2  0  0  3  0  0  0  0  0  0
  192.3720  173.2350  136.1500 C   0  0  0  0  0  2  0  0  0  0  0  0
  193.9000  175.1040  136.8140 C   0  0  1  0  0  3  0  0  0  0  0  0
  190.0190  176.0310  134.8360 C   0  0  1  0  0  3  0  0  0  0  0  0
  195.2600  175.2210  137.3460 N   0  0  0  0  0  2  0  0  0  0  0  0
  195.5700  174.0870  138.2090 C   0  0  0  0  0  1  0  0  0  0  0  0
  187.9530  178.1970  141.0660 C   0  0  0  0  0  3  0  0  0  0  0  0
  187.3810  178.2970  139.8720 C   0  0  0  0  0  3  0  0  0  0  0  0
  189.3950  177.8340  141.1800 C   0  0  0  0  0  2  0  0  0  0  0  0
  191.6830  179.0870  143.8970 O   0  0  0  0  0  0  0  0  0  0  0  0
  189.6110  177.5430  143.9210 N   0  0  0  0  0  0  0  0  0  0  0  0
  189.8190  177.8860  142.5700 N   0  0  0  0  0  0  0  0  0  0  0  0
  190.6880  178.3900  143.5670 C   0  0  0  0  0  0  0  0  0  0  0  0
  187.8240  177.8190  146.4840 C   0  0  0  0  0  0  0  0  0  0  0  0
  187.5440  177.4440  145.1430 C   0  0  0  0  0  0  0  0  0  0  0  0
  186.3430  177.7220  144.5180 C   0  0  0  0  0  3  0  0  0  0  0  0
  188.8660  176.8050  144.9270 C   0  0  2  0  0  3  0  0  0  0  0  0
  189.4970  177.1430  146.5010 S   0  0  0  0  0  0  0  0  0  0  0  0
  186.9190  178.4950  147.2800 C   0  0  0  0  0  3  0  0  0  0  0  0
  185.3990  178.4130  145.3150 C   0  0  0  0  0  3  0  0  0  0  0  0
  185.6810  178.7910  146.6620 C   0  0  0  0  0  3  0  0  0  0  0  0
  1  2  1  0  0  0  0
  2  7  2  0  0  0  0
  2  5  1  0  0  0  0
  3  6  2  0  0  0  0
  5 29  1  0  0  0  0
  5  4  1  0  0  0  0
  6  9  1  0  0  0  0
  6  7  1  0  0  0  0
  7  8  1  0  0  0  0
  8  4  2  0  0  0  0
 10  3  1  0  0  0  0
 10  1  2  0  0  0  0
 11  1  1  0  0  0  0
 12 11  2  0  0  0  0
 13 12  1  6  0  0  0
 13 18  1  0  0  0  0
 14 13  1  0  0  0  0
 18 21  1  0  0  0  0
 19 23  1  1  0  0  0
 19 21  1  0  0  0  0
 20 16  1  0  0  0  0
 22 19  1  0  0  0  0
 22 20  1  1  0  0  0
 23 15  1  0  0  0  0
 24 16  1  0  0  0  0
 24 15  1  0  0  0  0
 24 26  1  1  0  0  0
 25 17  1  1  0  0  0
 25 14  1  0  0  0  0
 25 22  1  0  0  0  0
 26 27  1  0  0  0  0
 28 30  1  0  0  0  0
 29 28  2  0  0  0  0
 30 33  1  0  0  0  0
 33 34  1  0  0  0  0
 33 32  1  0  0  0  0
 34 31  2  0  0  0  0
 34 32  1  0  0  0  0
 35 39  1  0  0  0  0
 35 40  1  0  0  0  0
 36 35  2  0  0  0  0
 37 36  1  0  0  0  0
 37 41  2  0  0  0  0
 38 32  1  6  0  0  0
 38 36  1  0  0  0  0
 38 39  1  0  0  0  0
 41 42  1  0  0  0  0
 42 40  2  0  0  0  0
M  END
>  <MODEL>
3

>  <REMARK>
 VINA RESULT:      -9.5      3.322      9.828
  Name = 
  7 active torsions:
  status: ('A' for Active; 'I' for Inactive)
    1  A    between atoms: C_1  and  C_3
    2  A    between atoms: C_2  and  C_40
    3  A    between atoms: N_12  and  C_33
    4  A    between atoms: C_17  and  N_19
    5  A    between atoms: C_22  and  C_29
    6  A    between atoms: N_27  and  C_36
    7  A    between atoms: C_29  and  N_38
                            x       y       z     vdW  Elec       q    Type
                         _______ _______ _______ _____ _____    ______ ____

>  <TORSDO>
F 7

$$$$
=
 OpenBabel11032419093D

 42 48  0  0  1  0  0  0  0  0999 V2000
  186.8130  177.8130  144.0080 C   0  0  0  0  0  0  0  0  0  0  0  0
  188.2110  177.7090  143.9810 C   0  0  0  0  0  0  0  0  0  0  0  0
  186.9590  177.6170  146.4490 C   0  0  0  0  0  3  0  0  0  0  0  0
  190.4410  177.5030  143.3430 N   0  0  0  0  0  0  0  0  0  0  0  0
  189.1140  177.6780  142.8860 N   0  0  0  0  0  0  0  0  0  0  0  0
  188.3590  177.5080  146.3700 C   0  0  0  0  0  0  0  0  0  0  0  0
  188.9440  177.5600  145.1060 C   0  0  0  0  0  0  0  0  0  0  0  0
  190.3110  177.4340  144.7510 N   0  0  0  0  0  0  0  0  0  0  0  0
  189.1780  177.3370  147.6020 C   0  0  0  0  0  1  0  0  0  0  0  0
  186.1900  177.7670  145.2750 C   0  0  0  0  0  3  0  0  0  0  0  0
  186.0410  177.9640  142.7670 C   0  0  0  0  0  3  0  0  0  0  0  0
  184.7500  178.2730  142.7380 C   0  0  0  0  0  3  0  0  0  0  0  0
  184.0690  178.4120  141.4230 C   0  0  2  0  0  3  0  0  0  0  0  0
  184.6140  179.4990  140.7200 O   0  0  0  0  0  0  0  0  0  0  0  0
  180.9390  177.6320  137.4810 C   0  0  0  0  0  2  0  0  0  0  0  0
  183.2490  176.5350  137.0960 C   0  0  0  0  0  2  0  0  0  0  0  0
  186.1590  178.3610  139.2060 C   0  0  0  0  0  1  0  0  0  0  0  0
  182.5860  178.6660  141.6290 C   0  0  0  0  0  2  0  0  0  0  0  0
  182.2810  179.0610  139.1230 C   0  0  1  0  0  3  0  0  0  0  0  0
  183.6530  177.0170  138.4890 C   0  0  0  0  0  2  0  0  0  0  0  0
  181.7910  178.3180  140.3750 C   0  0  0  0  0  2  0  0  0  0  0  0
  183.6380  178.5440  138.6000 C   0  0  2  0  0  3  0  0  0  0  0  0
  181.2070  179.0310  138.0330 C   0  0  0  0  0  2  0  0  0  0  0  0
  182.0310  177.2460  136.4820 C   0  0  1  0  0  3  0  0  0  0  0  0
  184.8470  179.1180  139.3800 C   0  0  1  0  0  3  0  0  0  0  0  0
  181.4900  176.4990  135.3450 N   0  0  0  0  0  2  0  0  0  0  0  0
  182.0190  175.1400  135.3280 C   0  0  0  0  0  1  0  0  0  0  0  0
  189.6420  177.6080  140.5350 C   0  0  0  0  0  3  0  0  0  0  0  0
  188.7480  177.7510  141.5060 C   0  0  0  0  0  3  0  0  0  0  0  0
  189.2190  177.6850  139.1080 C   0  0  0  0  0  2  0  0  0  0  0  0
  192.6890  176.6180  138.1080 O   0  0  0  0  0  0  0  0  0  0  0  0
  190.3390  175.9580  137.2620 N   0  0  0  0  0  0  0  0  0  0  0  0
  190.1290  176.9190  138.2710 N   0  0  0  0  0  0  0  0  0  0  0  0
  191.4460  176.5280  137.9340 C   0  0  0  0  0  0  0  0  0  0  0  0
  188.7320  173.3110  136.7670 C   0  0  0  0  0  0  0  0  0  0  0  0
  188.4140  174.6830  136.5920 C   0  0  0  0  0  0  0  0  0  0  0  0
  187.1400  175.1910  136.7620 C   0  0  0  0  0  3  0  0  0  0  0  0
  189.8020  175.0750  136.2400 C   0  0  2  0  0  3  0  0  0  0  0  0
  190.4890  173.4960  136.3990 S   0  0  0  0  0  0  0  0  0  0  0  0
  187.7920  172.3620  137.1240 C   0  0  0  0  0  3  0  0  0  0  0  0
  186.1600  174.2370  137.1270 C   0  0  0  0  0  3  0  0  0  0  0  0
  186.4780  172.8570  137.3040 C   0  0  0  0  0  3  0  0  0  0  0  0
  1 10  1  0  0  0  0
  2  1  2  0  0  0  0
  2  7  1  0  0  0  0
  4  8  2  0  0  0  0
  5  4  1  0  0  0  0
  5  2  1  0  0  0  0
  6  3  1  0  0  0  0
  6  9  1  0  0  0  0
  7  6  2  0  0  0  0
  8  7  1  0  0  0  0
 10  3  2  0  0  0  0
 11  1  1  0  0  0  0
 12 11  2  0  0  0  0
 13 18  1  0  0  0  0
 13 12  1  1  0  0  0
 14 13  1  0  0  0  0
 15 23  1  0  0  0  0
 16 20  1  0  0  0  0
 19 23  1  6  0  0  0
 19 21  1  0  0  0  0
 21 18  1  0  0  0  0
 22 20  1  1  0  0  0
 22 19  1  0  0  0  0
 22 25  1  0  0  0  0
 24 26  1  6  0  0  0
 24 16  1  0  0  0  0
 24 15  1  0  0  0  0
 25 17  1  1  0  0  0
 25 14  1  0  0  0  0
 27 26  1  0  0  0  0
 28 29  2  0  0  0  0
 29  5  1  0  0  0  0
 30 28  1  0  0  0  0
 32 34  1  0  0  0  0
 32 33  1  0  0  0  0
 33 30  1  0  0  0  0
 34 31  2  0  0  0  0
 34 33  1  0  0  0  0
 35 40  1  0  0  0  0
 36 37  1  0  0  0  0
 36 35  2  0  0  0  0
 37 41  2  0  0  0  0
 38 39  1  0  0  0  0
 38 36  1  0  0  0  0
 38 32  1  1  0  0  0
 39 35  1  0  0  0  0
 40 42  2  0  0  0  0
 41 42  1  0  0  0  0
M  END
>  <MODEL>
4

>  <REMARK>
 VINA RESULT:      -9.4      1.717      2.519
  Name = 
  7 active torsions:
  status: ('A' for Active; 'I' for Inactive)
    1  A    between atoms: C_1  and  C_3
    2  A    between atoms: C_2  and  C_40
    3  A    between atoms: N_12  and  C_33
    4  A    between atoms: C_17  and  N_19
    5  A    between atoms: C_22  and  C_29
    6  A    between atoms: N_27  and  C_36
    7  A    between atoms: C_29  and  N_38
                            x       y       z     vdW  Elec       q    Type
                         _______ _______ _______ _____ _____    ______ ____

>  <TORSDO>
F 7

$$$$
=
 OpenBabel11032419093D

 42 48  0  0  1  0  0  0  0  0999 V2000
  188.1740  177.3960  145.2380 C   0  0  0  0  0  0  0  0  0  0  0  0
  189.3860  177.0570  144.6190 C   0  0  0  0  0  0  0  0  0  0  0  0
  189.3330  177.1430  147.3860 C   0  0  0  0  0  3  0  0  0  0  0  0
  191.0540  176.4880  143.0970 N   0  0  0  0  0  0  0  0  0  0  0  0
  189.7060  176.8910  143.2470 N   0  0  0  0  0  0  0  0  0  0  0  0
  190.5230  176.8020  146.7190 C   0  0  0  0  0  0  0  0  0  0  0  0
  190.5010  176.7710  145.3260 C   0  0  0  0  0  0  0  0  0  0  0  0
  191.5400  176.4230  144.4260 N   0  0  0  0  0  0  0  0  0  0  0  0
  191.7570  176.4770  147.4870 C   0  0  0  0  0  1  0  0  0  0  0  0
  188.1640  177.4370  146.6500 C   0  0  0  0  0  3  0  0  0  0  0  0
  186.9740  177.6920  144.4430 C   0  0  0  0  0  3  0  0  0  0  0  0
  185.8790  178.2490  144.9460 C   0  0  0  0  0  3  0  0  0  0  0  0
  184.7250  178.5150  144.0470 C   0  0  2  0  0  3  0  0  0  0  0  0
  184.9290  179.7230  143.3600 O   0  0  0  0  0  0  0  0  0  0  0  0
  180.2810  178.0530  141.6000 C   0  0  0  0  0  2  0  0  0  0  0  0
  182.2530  177.1860  140.1690 C   0  0  0  0  0  2  0  0  0  0  0  0
  185.7460  178.9120  141.2030 C   0  0  0  0  0  1  0  0  0  0  0  0
  183.4480  178.6320  144.8600 C   0  0  0  0  0  2  0  0  0  0  0  0
  182.1550  179.3400  142.7720 C   0  0  1  0  0  3  0  0  0  0  0  0
  183.1770  177.5030  141.3440 C   0  0  0  0  0  2  0  0  0  0  0  0
  182.2190  178.4010  143.9870 C   0  0  0  0  0  2  0  0  0  0  0  0
  183.1930  178.9960  141.6820 C   0  0  2  0  0  3  0  0  0  0  0  0
  180.7340  179.3810  142.2070 C   0  0  0  0  0  2  0  0  0  0  0  0
  180.8830  177.8840  140.2050 C   0  0  1  0  0  3  0  0  0  0  0  0
  184.6070  179.5440  141.9960 C   0  0  1  0  0  3  0  0  0  0  0  0
  179.9380  177.2610  139.2760 N   0  0  0  0  0  2  0  0  0  0  0  0
  180.4980  176.0330  138.7250 C   0  0  0  0  0  1  0  0  0  0  0  0
  189.2060  177.3720  140.9380 C   0  0  0  0  0  3  0  0  0  0  0  0
  188.7940  177.0430  142.1560 C   0  0  0  0  0  3  0  0  0  0  0  0
  188.2230  177.5160  139.8260 C   0  0  0  0  0  2  0  0  0  0  0  0
  189.0390  180.1320  137.2420 O   0  0  0  0  0  0  0  0  0  0  0  0
  189.7990  177.6830  137.5610 N   0  0  0  0  0  0  0  0  0  0  0  0
  188.8960  177.9450  138.6110 N   0  0  0  0  0  0  0  0  0  0  0  0
  189.1940  178.9580  137.6680 C   0  0  0  0  0  0  0  0  0  0  0  0
  190.3510  174.6520  136.9740 C   0  0  0  0  0  0  0  0  0  0  0  0
  189.8490  175.7160  136.1790 C   0  0  0  0  0  0  0  0  0  0  0  0
  188.9130  175.5360  135.1790 C   0  0  0  0  0  3  0  0  0  0  0  0
  190.6670  176.7550  136.8560 C   0  0  2  0  0  3  0  0  0  0  0  0
  191.4340  175.6870  137.9800 S   0  0  0  0  0  0  0  0  0  0  0  0
  189.9440  173.3400  136.8140 C   0  0  0  0  0  3  0  0  0  0  0  0
  188.4830  174.1990  134.9970 C   0  0  0  0  0  3  0  0  0  0  0  0
  188.9860  173.1280  135.7950 C   0  0  0  0  0  3  0  0  0  0  0  0
  1 10  1  0  0  0  0
  2  1  2  0  0  0  0
  2  7  1  0  0  0  0
  4  5  1  0  0  0  0
  4  8  2  0  0  0  0
  5  2  1  0  0  0  0
  6  3  1  0  0  0  0
  6  9  1  0  0  0  0
  7  6  2  0  0  0  0
  8  7  1  0  0  0  0
 10  3  2  0  0  0  0
 11 12  2  0  0  0  0
 11  1  1  0  0  0  0
 13 18  1  0  0  0  0
 13 12  1  1  0  0  0
 14 13  1  0  0  0  0
 15 23  1  0  0  0  0
 16 24  1  0  0  0  0
 16 20  1  0  0  0  0
 19 23  1  6  0  0  0
 19 21  1  0  0  0  0
 21 18  1  0  0  0  0
 22 20  1  1  0  0  0
 22 25  1  0  0  0  0
 22 19  1  0  0  0  0
 24 26  1  6  0  0  0
 24 15  1  0  0  0  0
 25 17  1  1  0  0  0
 25 14  1  0  0  0  0
 27 26  1  0  0  0  0
 28 29  2  0  0  0  0
 29  5  1  0  0  0  0
 30 28  1  0  0  0  0
 31 34  2  0  0  0  0
 32 34  1  0  0  0  0
 32 33  1  0  0  0  0
 33 30  1  0  0  0  0
 34 33  1  0  0  0  0
 35 39  1  0  0  0  0
 36 38  1  0  0  0  0
 36 35  2  0  0  0  0
 37 36  1  0  0  0  0
 38 32  1  1  0  0  0
 38 39  1  0  0  0  0
 40 35  1  0  0  0  0
 41 37  2  0  0  0  0
 41 42  1  0  0  0  0
 42 40  2  0  0  0  0
M  END
>  <MODEL>
5

>  <REMARK>
 VINA RESULT:      -9.4      1.669      2.035
  Name = 
  7 active torsions:
  status: ('A' for Active; 'I' for Inactive)
    1  A    between atoms: C_1  and  C_3
    2  A    between atoms: C_2  and  C_40
    3  A    between atoms: N_12  and  C_33
    4  A    between atoms: C_17  and  N_19
    5  A    between atoms: C_22  and  C_29
    6  A    between atoms: N_27  and  C_36
    7  A    between atoms: C_29  and  N_38
                            x       y       z     vdW  Elec       q    Type
                         _______ _______ _______ _____ _____    ______ ____

>  <TORSDO>
F 7

$$$$
=
 OpenBabel11032419093D

 42 48  0  0  1  0  0  0  0  0999 V2000
  185.9250  178.1770  144.3410 C   0  0  0  0  0  0  0  0  0  0  0  0
  187.3030  177.9270  144.2670 C   0  0  0  0  0  0  0  0  0  0  0  0
  186.1640  178.1350  146.7830 C   0  0  0  0  0  3  0  0  0  0  0  0
  189.4700  177.4510  143.5590 N   0  0  0  0  0  0  0  0  0  0  0  0
  188.1470  177.7300  143.1430 N   0  0  0  0  0  0  0  0  0  0  0  0
  187.5410  177.8780  146.6570 C   0  0  0  0  0  0  0  0  0  0  0  0
  188.0690  177.7820  145.3700 C   0  0  0  0  0  0  0  0  0  0  0  0
  189.3990  177.4930  144.9720 N   0  0  0  0  0  0  0  0  0  0  0  0
  188.3950  177.7080  147.8650 C   0  0  0  0  0  1  0  0  0  0  0  0
  185.3600  178.2810  145.6310 C   0  0  0  0  0  3  0  0  0  0  0  0
  185.1150  178.3200  143.1230 C   0  0  0  0  0  3  0  0  0  0  0  0
  183.8240  178.6280  143.1320 C   0  0  0  0  0  3  0  0  0  0  0  0
  183.1030  178.7590  141.8370 C   0  0  2  0  0  3  0  0  0  0  0  0
  182.2380  177.6660  141.6660 O   0  0  0  0  0  0  0  0  0  0  0  0
  181.5150  180.5270  137.3330 C   0  0  0  0  0  2  0  0  0  0  0  0
  179.9030  181.1940  139.2410 C   0  0  0  0  0  2  0  0  0  0  0  0
  180.1010  178.6370  142.3520 C   0  0  0  0  0  1  0  0  0  0  0  0
  184.0950  178.7740  140.6880 C   0  0  0  0  0  2  0  0  0  0  0  0
  182.1770  178.7050  139.0010 C   0  0  1  0  0  3  0  0  0  0  0  0
  180.8540  180.5030  140.2170 C   0  0  0  0  0  2  0  0  0  0  0  0
  183.4780  179.3960  139.4400 C   0  0  0  0  0  2  0  0  0  0  0  0
  180.9850  179.0040  139.9340 C   0  0  2  0  0  3  0  0  0  0  0  0
  181.8560  179.0530  137.5450 C   0  0  0  0  0  2  0  0  0  0  0  0
  180.0730  180.7970  137.7650 C   0  0  1  0  0  3  0  0  0  0  0  0
  180.9830  178.1310  141.2140 C   0  0  1  0  0  3  0  0  0  0  0  0
  179.4060  181.7470  136.8730 N   0  0  0  0  0  2  0  0  0  0  0  0
  180.0390  181.7460  135.5590 C   0  0  0  0  0  1  0  0  0  0  0  0
  188.4830  178.2600  140.8160 C   0  0  0  0  0  3  0  0  0  0  0  0
  187.7260  177.7440  141.7770 C   0  0  0  0  0  3  0  0  0  0  0  0
  188.0100  178.2520  139.4010 C   0  0  0  0  0  2  0  0  0  0  0  0
  190.7910  175.7870  138.7900 O   0  0  0  0  0  0  0  0  0  0  0  0
  188.4510  176.0880  137.7380 N   0  0  0  0  0  0  0  0  0  0  0  0
  188.5820  177.1220  138.6860 N   0  0  0  0  0  0  0  0  0  0  0  0
  189.6400  176.2020  138.4960 C   0  0  0  0  0  0  0  0  0  0  0  0
  186.0900  174.0970  137.1910 C   0  0  0  0  0  0  0  0  0  0  0  0
  186.2300  175.5000  137.0290 C   0  0  0  0  0  0  0  0  0  0  0  0
  185.1830  176.3870  137.1890 C   0  0  0  0  0  3  0  0  0  0  0  0
  187.6760  175.4300  136.6990 C   0  0  2  0  0  3  0  0  0  0  0  0
  187.8200  173.7130  136.8480 S   0  0  0  0  0  0  0  0  0  0  0  0
  184.8910  173.4960  137.5260 C   0  0  0  0  0  3  0  0  0  0  0  0
  183.9440  175.7940  137.5310 C   0  0  0  0  0  3  0  0  0  0  0  0
  183.8020  174.3830  137.6960 C   0  0  0  0  0  3  0  0  0  0  0  0
  1 10  1  0  0  0  0
  2  1  2  0  0  0  0
  2  7  1  0  0  0  0
  4  8  2  0  0  0  0
  5  4  1  0  0  0  0
  5  2  1  0  0  0  0
  6  3  1  0  0  0  0
  6  9  1  0  0  0  0
  7  6  2  0  0  0  0
  8  7  1  0  0  0  0
 10  3  2  0  0  0  0
 11 12  2  0  0  0  0
 11  1  1  0  0  0  0
 13 12  1  1  0  0  0
 14 13  1  0  0  0  0
 15 23  1  0  0  0  0
 15 24  1  0  0  0  0
 16 20  1  0  0  0  0
 18 13  1  0  0  0  0
 19 23  1  6  0  0  0
 19 21  1  0  0  0  0
 19 22  1  0  0  0  0
 21 18  1  0  0  0  0
 22 20  1  1  0  0  0
 22 25  1  0  0  0  0
 24 26  1  6  0  0  0
 24 16  1  0  0  0  0
 25 14  1  0  0  0  0
 25 17  1  1  0  0  0
 27 26  1  0  0  0  0
 28 29  2  0  0  0  0
 29  5  1  0  0  0  0
 30 28  1  0  0  0  0
 32 34  1  0  0  0  0
 32 33  1  0  0  0  0
 33 30  1  0  0  0  0
 34 33  1  0  0  0  0
 34 31  2  0  0  0  0
 35 40  1  0  0  0  0
 36 37  1  0  0  0  0
 36 35  2  0  0  0  0
 37 41  2  0  0  0  0
 38 39  1  0  0  0  0
 38 36  1  0  0  0  0
 38 32  1  1  0  0  0
 39 35  1  0  0  0  0
 40 42  2  0  0  0  0
 41 42  1  0  0  0  0
M  END
>  <MODEL>
6

>  <REMARK>
 VINA RESULT:      -9.3      2.015      3.082
  Name = 
  7 active torsions:
  status: ('A' for Active; 'I' for Inactive)
    1  A    between atoms: C_1  and  C_3
    2  A    between atoms: C_2  and  C_40
    3  A    between atoms: N_12  and  C_33
    4  A    between atoms: C_17  and  N_19
    5  A    between atoms: C_22  and  C_29
    6  A    between atoms: N_27  and  C_36
    7  A    between atoms: C_29  and  N_38
                            x       y       z     vdW  Elec       q    Type
                         _______ _______ _______ _____ _____    ______ ____

>  <TORSDO>
F 7

$$$$
=
 OpenBabel11032419093D

 42 48  0  0  1  0  0  0  0  0999 V2000
  183.5160  178.6950  141.8380 C   0  0  0  0  0  0  0  0  0  0  0  0
  183.9880  178.9790  140.5480 C   0  0  0  0  0  0  0  0  0  0  0  0
  181.2770  179.2820  141.0260 C   0  0  0  0  0  3  0  0  0  0  0  0
  185.3050  179.3790  138.6700 N   0  0  0  0  0  0  0  0  0  0  0  0
  185.3050  178.9600  140.0220 N   0  0  0  0  0  0  0  0  0  0  0  0
  181.7980  179.5630  139.7510 C   0  0  0  0  0  0  0  0  0  0  0  0
  183.1680  179.3960  139.5580 C   0  0  0  0  0  0  0  0  0  0  0  0
  183.9410  179.6460  138.3960 N   0  0  0  0  0  0  0  0  0  0  0  0
  180.9070  180.0300  138.6530 C   0  0  0  0  0  1  0  0  0  0  0  0
  182.1310  178.8520  142.0650 C   0  0  0  0  0  3  0  0  0  0  0  0
  184.4330  178.2530  142.8980 C   0  0  0  0  0  3  0  0  0  0  0  0
  185.0080  179.0790  143.7630 C   0  0  0  0  0  3  0  0  0  0  0  0
  185.9120  178.5220  144.8050 C   0  0  2  0  0  3  0  0  0  0  0  0
  185.7010  177.1390  144.9230 O   0  0  0  0  0  0  0  0  0  0  0  0
  189.4410  178.1410  148.4580 C   0  0  0  0  0  2  0  0  0  0  0  0
  190.4070  177.5510  146.1330 C   0  0  0  0  0  2  0  0  0  0  0  0
  187.5550  176.2590  143.5940 C   0  0  0  0  0  1  0  0  0  0  0  0
  185.6220  179.1710  146.1470 C   0  0  0  0  0  2  0  0  0  0  0  0
  187.2350  177.5600  147.3010 C   0  0  1  0  0  3  0  0  0  0  0  0
  189.0380  177.8780  145.5380 C   0  0  0  0  0  2  0  0  0  0  0  0
  186.8060  179.0210  147.0960 C   0  0  0  0  0  2  0  0  0  0  0  0
  187.9390  176.9530  146.0690 C   0  0  2  0  0  3  0  0  0  0  0  0
  188.0920  177.4300  148.5630 C   0  0  0  0  0  2  0  0  0  0  0  0
  190.4190  177.2880  147.6480 C   0  0  1  0  0  3  0  0  0  0  0  0
  186.9490  176.4800  144.9760 C   0  0  1  0  0  3  0  0  0  0  0  0
  191.7760  177.3500  148.1930 N   0  0  0  0  0  2  0  0  0  0  0  0
  192.4300  176.0510  148.0860 C   0  0  0  0  0  1  0  0  0  0  0  0
  187.6050  178.2510  140.1460 C   0  0  0  0  0  3  0  0  0  0  0  0
  186.4870  178.6280  140.7530 C   0  0  0  0  0  3  0  0  0  0  0  0
  188.8190  177.9180  140.9450 C   0  0  0  0  0  2  0  0  0  0  0  0
  192.5010  177.5030  140.2710 O   0  0  0  0  0  0  0  0  0  0  0  0
  190.3970  177.1050  138.8250 N   0  0  0  0  0  0  0  0  0  0  0  0
  189.9270  177.5860  140.0640 N   0  0  0  0  0  0  0  0  0  0  0  0
  191.3170  177.4250  139.8520 C   0  0  0  0  0  0  0  0  0  0  0  0
  188.1450  176.2020  136.8380 C   0  0  0  0  0  0  0  0  0  0  0  0
  188.9380  177.3750  136.9340 C   0  0  0  0  0  0  0  0  0  0  0  0
  188.4790  178.6280  136.5730 C   0  0  0  0  0  3  0  0  0  0  0  0
  190.1270  176.6630  137.4680 C   0  0  2  0  0  3  0  0  0  0  0  0
  189.4100  175.0890  137.4860 S   0  0  0  0  0  0  0  0  0  0  0  0
  186.8430  176.2110  136.3750 C   0  0  0  0  0  3  0  0  0  0  0  0
  187.1470  178.6620  136.0940 C   0  0  0  0  0  3  0  0  0  0  0  0
  186.3480  177.4830  135.9990 C   0  0  0  0  0  3  0  0  0  0  0  0
  1 10  1  0  0  0  0
  1 11  1  0  0  0  0
  2  1  2  0  0  0  0
  3 10  2  0  0  0  0
  4  5  1  0  0  0  0
  5  2  1  0  0  0  0
  5 29  1  0  0  0  0
  6  3  1  0  0  0  0
  7  6  2  0  0  0  0
  7  2  1  0  0  0  0
  8  4  2  0  0  0  0
  8  7  1  0  0  0  0
  9  6  1  0  0  0  0
 11 12  2  0  0  0  0
 13 12  1  6  0  0  0
 13 14  1  0  0  0  0
 13 18  1  0  0  0  0
 14 25  1  0  0  0  0
 15 23  1  0  0  0  0
 16 24  1  0  0  0  0
 18 21  1  0  0  0  0
 19 21  1  6  0  0  0
 19 23  1  0  0  0  0
 20 16  1  0  0  0  0
 22 20  1  6  0  0  0
 22 19  1  0  0  0  0
 24 26  1  1  0  0  0
 24 15  1  0  0  0  0
 25 17  1  6  0  0  0
 25 22  1  0  0  0  0
 27 26  1  0  0  0  0
 28 29  2  0  0  0  0
 28 30  1  0  0  0  0
 32 34  1  0  0  0  0
 32 33  1  0  0  0  0
 33 30  1  0  0  0  0
 34 33  1  0  0  0  0
 34 31  2  0  0  0  0
 35 36  1  0  0  0  0
 35 39  1  0  0  0  0
 36 38  1  0  0  0  0
 37 36  2  0  0  0  0
 38 39  1  0  0  0  0
 38 32  1  1  0  0  0
 40 35  2  0  0  0  0
 41 37  1  0  0  0  0
 42 41  2  0  0  0  0
 42 40  1  0  0  0  0
M  END
>  <MODEL>
7

>  <REMARK>
 VINA RESULT:      -9.2      1.976      7.191
  Name = 
  7 active torsions:
  status: ('A' for Active; 'I' for Inactive)
    1  A    between atoms: C_1  and  C_3
    2  A    between atoms: C_2  and  C_40
    3  A    between atoms: N_12  and  C_33
    4  A    between atoms: C_17  and  N_19
    5  A    between atoms: C_22  and  C_29
    6  A    between atoms: N_27  and  C_36
    7  A    between atoms: C_29  and  N_38
                            x       y       z     vdW  Elec       q    Type
                         _______ _______ _______ _____ _____    ______ ____

>  <TORSDO>
F 7

$$$$
=
 OpenBabel11032419093D

 42 48  0  0  1  0  0  0  0  0999 V2000
  189.5000  174.8300  136.8640 C   0  0  0  0  0  0  0  0  0  0  0  0
  190.7700  175.1830  137.3430 C   0  0  0  0  0  0  0  0  0  0  0  0
  190.6180  173.1400  135.4800 C   0  0  0  0  0  3  0  0  0  0  0  0
  192.5720  176.2200  138.3930 N   0  0  0  0  0  0  0  0  0  0  0  0
  191.1650  176.2000  138.2510 N   0  0  0  0  0  0  0  0  0  0  0  0
  191.8690  173.5360  135.9840 C   0  0  0  0  0  0  0  0  0  0  0  0
  191.8960  174.5680  136.9200 C   0  0  0  0  0  0  0  0  0  0  0  0
  193.0140  175.1760  137.5440 N   0  0  0  0  0  0  0  0  0  0  0  0
  193.1180  172.8710  135.5200 C   0  0  0  0  0  1  0  0  0  0  0  0
  189.4390  173.7850  135.9160 C   0  0  0  0  0  3  0  0  0  0  0  0
  188.2940  175.5240  137.3360 C   0  0  0  0  0  3  0  0  0  0  0  0
  187.4780  176.2020  136.5380 C   0  0  0  0  0  3  0  0  0  0  0  0
  186.2760  176.8580  137.1210 C   0  0  2  0  0  3  0  0  0  0  0  0
  185.5060  177.4310  136.0950 O   0  0  0  0  0  0  0  0  0  0  0  0
  182.8300  178.5720  140.4560 C   0  0  0  0  0  2  0  0  0  0  0  0
  182.1080  176.3190  139.4110 C   0  0  0  0  0  2  0  0  0  0  0  0
  183.7780  175.7280  135.7900 C   0  0  0  0  0  1  0  0  0  0  0  0
  186.6980  177.9580  138.0790 C   0  0  0  0  0  2  0  0  0  0  0  0
  184.2640  178.6930  138.3430 C   0  0  1  0  0  3  0  0  0  0  0  0
  183.4290  176.3110  138.6440 C   0  0  0  0  0  2  0  0  0  0  0  0
  185.5720  178.3010  139.0490 C   0  0  0  0  0  2  0  0  0  0  0  0
  183.5480  177.4960  137.6820 C   0  0  2  0  0  3  0  0  0  0  0  0
  183.3420  179.4410  139.3090 C   0  0  0  0  0  2  0  0  0  0  0  0
  181.6810  177.6870  139.9690 C   0  0  1  0  0  3  0  0  0  0  0  0
  184.1450  177.1170  136.3040 C   0  0  1  0  0  3  0  0  0  0  0  0
  180.6320  177.5510  140.9810 N   0  0  0  0  0  2  0  0  0  0  0  0
  180.7230  178.6280  141.9600 C   0  0  0  0  0  1  0  0  0  0  0  0
  190.0950  177.1140  140.2080 C   0  0  0  0  0  3  0  0  0  0  0  0
  190.2850  177.1250  138.8950 C   0  0  0  0  0  3  0  0  0  0  0  0
  189.1730  178.1000  140.8430 C   0  0  0  0  0  2  0  0  0  0  0  0
  191.0230  179.0950  143.9680 O   0  0  0  0  0  0  0  0  0  0  0  0
  188.8620  177.7380  143.5650 N   0  0  0  0  0  0  0  0  0  0  0  0
  189.3400  178.0880  142.2870 N   0  0  0  0  0  0  0  0  0  0  0  0
  190.0510  178.4950  143.4410 C   0  0  0  0  0  0  0  0  0  0  0  0
  186.4730  178.1370  145.5590 C   0  0  0  0  0  0  0  0  0  0  0  0
  186.5500  177.6700  144.2200 C   0  0  0  0  0  0  0  0  0  0  0  0
  185.5490  177.8780  143.2900 C   0  0  0  0  0  3  0  0  0  0  0  0
  187.8870  177.0490  144.3940 C   0  0  2  0  0  3  0  0  0  0  0  0
  188.0900  177.5030  146.0510 S   0  0  0  0  0  0  0  0  0  0  0  0
  185.3890  178.8410  146.0480 C   0  0  0  0  0  3  0  0  0  0  0  0
  184.4270  178.5970  143.7690 C   0  0  0  0  0  3  0  0  0  0  0  0
  184.3500  179.0670  145.1150 C   0  0  0  0  0  3  0  0  0  0  0  0
  1 11  1  0  0  0  0
  1  2  1  0  0  0  0
  2  5  1  0  0  0  0
  3 10  1  0  0  0  0
  3  6  2  0  0  0  0
  5  4  1  0  0  0  0
  5 29  1  0  0  0  0
  6  7  1  0  0  0  0
  7  2  2  0  0  0  0
  7  8  1  0  0  0  0
  8  4  2  0  0  0  0
  9  6  1  0  0  0  0
 10  1  2  0  0  0  0
 12 11  2  0  0  0  0
 13 12  1  6  0  0  0
 13 18  1  0  0  0  0
 14 25  1  0  0  0  0
 14 13  1  0  0  0  0
 16 24  1  0  0  0  0
 18 21  1  0  0  0  0
 19 21  1  1  0  0  0
 19 23  1  0  0  0  0
 20 16  1  0  0  0  0
 22 19  1  0  0  0  0
 22 20  1  1  0  0  0
 23 15  1  0  0  0  0
 24 15  1  0  0  0  0
 24 26  1  1  0  0  0
 25 17  1  1  0  0  0
 25 22  1  0  0  0  0
 26 27  1  0  0  0  0
 28 30  1  0  0  0  0
 29 28  2  0  0  0  0
 30 33  1  0  0  0  0
 33 34  1  0  0  0  0
 33 32  1  0  0  0  0
 34 32  1  0  0  0  0
 34 31  2  0  0  0  0
 35 40  1  0  0  0  0
 35 39  1  0  0  0  0
 36 38  1  0  0  0  0
 36 35  2  0  0  0  0
 37 41  2  0  0  0  0
 37 36  1  0  0  0  0
 38 32  1  6  0  0  0
 38 39  1  0  0  0  0
 41 42  1  0  0  0  0
 42 40  2  0  0  0  0
M  END
>  <MODEL>
8

>  <REMARK>
 VINA RESULT:      -9.2      2.879      7.156
  Name = 
  7 active torsions:
  status: ('A' for Active; 'I' for Inactive)
    1  A    between atoms: C_1  and  C_3
    2  A    between atoms: C_2  and  C_40
    3  A    between atoms: N_12  and  C_33
    4  A    between atoms: C_17  and  N_19
    5  A    between atoms: C_22  and  C_29
    6  A    between atoms: N_27  and  C_36
    7  A    between atoms: C_29  and  N_38
                            x       y       z     vdW  Elec       q    Type
                         _______ _______ _______ _____ _____    ______ ____

>  <TORSDO>
F 7

$$$$
=
 OpenBabel11032419093D

 42 48  0  0  1  0  0  0  0  0999 V2000
  188.0770  177.5340  144.0640 C   0  0  0  0  0  0  0  0  0  0  0  0
  189.3600  177.4010  143.5130 C   0  0  0  0  0  0  0  0  0  0  0  0
  189.1030  177.1390  146.2580 C   0  0  0  0  0  3  0  0  0  0  0  0
  191.1850  177.1990  142.0810 N   0  0  0  0  0  0  0  0  0  0  0  0
  189.7930  177.4390  142.1630 N   0  0  0  0  0  0  0  0  0  0  0  0
  190.3680  177.0060  145.6580 C   0  0  0  0  0  0  0  0  0  0  0  0
  190.4470  177.1460  144.2730 C   0  0  0  0  0  0  0  0  0  0  0  0
  191.5790  177.0200  143.4290 N   0  0  0  0  0  0  0  0  0  0  0  0
  191.5730  176.7180  146.4830 C   0  0  0  0  0  1  0  0  0  0  0  0
  187.9640  177.3990  145.4660 C   0  0  0  0  0  3  0  0  0  0  0  0
  186.9110  177.8010  143.2110 C   0  0  0  0  0  3  0  0  0  0  0  0
  185.7330  178.1940  143.6800 C   0  0  0  0  0  3  0  0  0  0  0  0
  184.6210  178.4470  142.7240 C   0  0  2  0  0  3  0  0  0  0  0  0
  184.9730  179.4940  141.8570 O   0  0  0  0  0  0  0  0  0  0  0  0
  180.1610  178.1290  140.2850 C   0  0  0  0  0  2  0  0  0  0  0  0
  182.0170  176.8120  139.0560 C   0  0  0  0  0  2  0  0  0  0  0  0
  185.6910  178.2530  139.8770 C   0  0  0  0  0  1  0  0  0  0  0  0
  183.3660  178.8460  143.4800 C   0  0  0  0  0  2  0  0  0  0  0  0
  182.1750  179.3560  141.2770 C   0  0  1  0  0  3  0  0  0  0  0  0
  182.9700  177.2030  140.1850 C   0  0  0  0  0  2  0  0  0  0  0  0
  182.1210  178.6250  142.6280 C   0  0  0  0  0  2  0  0  0  0  0  0
  183.1660  178.7180  140.2800 C   0  0  2  0  0  3  0  0  0  0  0  0
  180.7700  179.4740  140.6810 C   0  0  0  0  0  2  0  0  0  0  0  0
  180.7420  177.6660  138.9480 C   0  0  1  0  0  3  0  0  0  0  0  0
  184.6350  179.1370  140.5330 C   0  0  1  0  0  3  0  0  0  0  0  0
  179.7310  177.0180  138.1110 N   0  0  0  0  0  2  0  0  0  0  0  0
  180.3620  176.3000  137.0100 C   0  0  0  0  0  1  0  0  0  0  0  0
  189.4440  177.8470  139.8130 C   0  0  0  0  0  3  0  0  0  0  0  0
  188.9490  177.6300  141.0250 C   0  0  0  0  0  3  0  0  0  0  0  0
  188.5290  178.0370  138.6500 C   0  0  0  0  0  2  0  0  0  0  0  0
  186.2450  175.5790  136.9400 O   0  0  0  0  0  0  0  0  0  0  0  0
  188.7790  175.5610  137.4460 N   0  0  0  0  0  0  0  0  0  0  0  0
  188.2870  176.7650  137.9870 N   0  0  0  0  0  0  0  0  0  0  0  0
  187.4030  175.8730  137.3350 C   0  0  0  0  0  0  0  0  0  0  0  0
  191.5630  175.2200  136.0420 C   0  0  0  0  0  0  0  0  0  0  0  0
  191.1740  175.3620  137.4000 C   0  0  0  0  0  0  0  0  0  0  0  0
  191.9520  176.0060  138.3450 C   0  0  0  0  0  3  0  0  0  0  0  0
  189.8860  174.6460  137.2230 C   0  0  2  0  0  3  0  0  0  0  0  0
  190.0730  174.3400  135.5310 S   0  0  0  0  0  0  0  0  0  0  0  0
  192.7550  175.7150  135.5460 C   0  0  0  0  0  3  0  0  0  0  0  0
  193.1780  176.5200  137.8590 C   0  0  0  0  0  3  0  0  0  0  0  0
  193.5700  176.3790  136.4940 C   0  0  0  0  0  3  0  0  0  0  0  0
  1 10  1  0  0  0  0
  2  1  2  0  0  0  0
  2  7  1  0  0  0  0
  4  5  1  0  0  0  0
  4  8  2  0  0  0  0
  5  2  1  0  0  0  0
  6  3  1  0  0  0  0
  6  9  1  0  0  0  0
  7  6  2  0  0  0  0
  8  7  1  0  0  0  0
 10  3  2  0  0  0  0
 11 12  2  0  0  0  0
 11  1  1  0  0  0  0
 13 18  1  0  0  0  0
 13 12  1  1  0  0  0
 14 13  1  0  0  0  0
 15 23  1  0  0  0  0
 16 20  1  0  0  0  0
 19 23  1  6  0  0  0
 19 21  1  0  0  0  0
 21 18  1  0  0  0  0
 22 20  1  1  0  0  0
 22 25  1  0  0  0  0
 22 19  1  0  0  0  0
 24 26  1  1  0  0  0
 24 16  1  0  0  0  0
 24 15  1  0  0  0  0
 25 17  1  1  0  0  0
 25 14  1  0  0  0  0
 27 26  1  0  0  0  0
 28 29  2  0  0  0  0
 29  5  1  0  0  0  0
 30 28  1  0  0  0  0
 31 34  2  0  0  0  0
 32 33  1  0  0  0  0
 33 30  1  0  0  0  0
 34 32  1  0  0  0  0
 34 33  1  0  0  0  0
 35 36  1  0  0  0  0
 36 37  2  0  0  0  0
 38 36  1  0  0  0  0
 38 32  1  6  0  0  0
 39 35  1  0  0  0  0
 39 38  1  0  0  0  0
 40 35  2  0  0  0  0
 40 42  1  0  0  0  0
 41 37  1  0  0  0  0
 42 41  2  0  0  0  0
M  END
>  <MODEL>
9

>  <REMARK>
 VINA RESULT:      -9.2      1.732      3.130
  Name = 
  7 active torsions:
  status: ('A' for Active; 'I' for Inactive)
    1  A    between atoms: C_1  and  C_3
    2  A    between atoms: C_2  and  C_40
    3  A    between atoms: N_12  and  C_33
    4  A    between atoms: C_17  and  N_19
    5  A    between atoms: C_22  and  C_29
    6  A    between atoms: N_27  and  C_36
    7  A    between atoms: C_29  and  N_38
                            x       y       z     vdW  Elec       q    Type
                         _______ _______ _______ _____ _____    ______ ____

>  <TORSDO>
F 7

$$$$
