=
 OpenBabel11042409513D

 33 36  0  0  1  0  0  0  0  0999 V2000
  184.3560  179.0130  143.1300 C   0  0  0  0  0  3  0  0  0  0  0  0
  186.6580  177.9820  141.0170 C   0  0  0  0  0  2  0  0  0  0  0  0
  187.6580  178.0910  142.1700 C   0  0  1  0  0  3  0  0  0  0  0  0
  185.3060  178.4550  143.8180 C   0  0  0  0  0  0  0  0  0  0  0  0
  187.2680  177.1810  143.3370 C   0  0  0  0  0  2  0  0  0  0  0  0
  186.3680  177.8870  144.3090 C   0  0  0  0  0  0  0  0  0  0  0  0
  184.3420  178.7970  141.6490 C   0  0  0  0  0  2  0  0  0  0  0  0
  185.6810  179.1600  140.9970 C   0  0  0  0  0  2  0  0  0  0  0  0
  190.0340  177.5690  142.5110 N   0  0  0  0  0  0  0  0  0  0  0  0
  191.2310  177.3190  141.7130 C   0  0  0  0  0  2  0  0  0  0  0  0
  189.4570  177.6860  140.3240 C   0  0  0  0  0  0  0  0  0  0  0  0
  189.0420  177.7670  141.7110 C   0  0  0  0  0  0  0  0  0  0  0  0
  190.7490  177.4140  140.2960 C   0  0  0  0  0  3  0  0  0  0  0  0
  188.5170  176.5530  138.3600 C   0  0  0  0  0  3  0  0  0  0  0  0
  187.3700  178.7520  136.5490 C   0  0  0  0  0  3  0  0  0  0  0  0
  187.7700  176.4000  137.2700 C   0  0  0  0  0  3  0  0  0  0  0  0
  188.5500  179.3150  137.1480 N   0  0  0  0  0  0  0  0  0  0  0  0
  188.5980  177.8400  139.1100 C   0  0  2  0  0  3  0  0  0  0  0  0
  186.9790  177.4690  136.6130 C   0  0  0  0  0  0  0  0  0  0  0  0
  189.1330  178.9310  138.2420 C   0  0  0  0  0  3  0  0  0  0  0  0
  185.8040  177.1150  135.8800 N   0  0  0  0  0  2  0  0  0  0  0  0
  184.5400  176.8810  136.5000 C   0  0  0  0  0  3  0  0  0  0  0  0
  184.2780  177.4030  137.6870 C   0  0  0  0  0  2  0  0  0  0  0  0
  185.6400  177.9080  146.5830 O   0  0  0  0  0  1  0  0  0  0  0  0
  186.7460  178.1000  145.7490 C   0  0  1  0  0  3  0  0  0  0  0  0
  188.5760  178.5690  147.9540 O   0  0  0  0  0  0  0  0  0  0  0  0
  188.6820  177.4920  147.3080 C   0  0  0  0  0  0  0  0  0  0  0  0
  187.8530  177.2400  146.1670 N   0  0  0  0  0  2  0  0  0  0  0  0
  189.6410  176.4530  147.7710 C   0  0  0  0  0  2  0  0  0  0  0  0
  192.2090  175.6600  146.0780 C   0  0  0  0  0  2  0  0  0  0  0  0
  191.0610  176.8740  147.4270 C   0  0  0  0  0  3  0  0  0  0  0  0
  191.9970  175.6900  147.5770 C   0  0  0  0  0  2  0  0  0  0  0  0
  191.2660  176.8380  145.9270 C   0  0  0  0  0  2  0  0  0  0  0  0
  1  4  2  0  0  0  0
  2  3  1  0  0  0  0
  3 12  1  6  0  0  0
  3  5  1  0  0  0  0
  4  6  2  0  0  0  0
  5  6  1  0  0  0  0
  6 25  1  0  0  0  0
  7  1  1  0  0  0  0
  8  2  1  0  0  0  0
  8  7  1  0  0  0  0
 10  9  1  0  0  0  0
 11 12  1  0  0  0  0
 12  9  2  0  0  0  0
 13 11  2  0  0  0  0
 13 10  1  0  0  0  0
 14 18  1  0  0  0  0
 15 19  2  0  0  0  0
 15 17  1  0  0  0  0
 16 14  2  0  0  0  0
 17 20  2  0  0  0  0
 18 11  1  1  0  0  0
 19 16  1  0  0  0  0
 20 18  1  0  0  0  0
 21 22  1  0  0  0  0
 21 19  1  0  0  0  0
 22 23  2  0  0  0  0
 25 28  1  0  0  0  0
 25 24  1  1  0  0  0
 27 29  1  0  0  0  0
 27 26  2  0  0  0  0
 28 27  1  0  0  0  0
 30 32  1  0  0  0  0
 31 32  1  0  0  0  0
 31 29  1  0  0  0  0
 33 30  1  0  0  0  0
 33 31  1  0  0  0  0
M  END
>  <MODEL>
1

>  <REMARK>
 VINA RESULT:      -8.6      0.000      0.000
  Name = 
  8 active torsions:
  status: ('A' for Active; 'I' for Inactive)
    1  A    between atoms: C_7  and  C_18
    2  A    between atoms: N_8  and  C_16
    3  A    between atoms: N_8  and  C_26
    4  A    between atoms: C_12  and  C_27
    5  A    between atoms: C_14  and  C_31
    6  A    between atoms: C_19  and  N_23
    7  A    between atoms: C_19  and  C_24
    8  A    between atoms: C_21  and  C_31
                            x       y       z     vdW  Elec       q    Type
                         _______ _______ _______ _____ _____    ______ ____

>  <TORSDO>
F 8

$$$$
=
 OpenBabel11042409513D

 33 36  0  0  1  0  0  0  0  0999 V2000
  184.5170  178.2570  146.2160 C   0  0  0  0  0  3  0  0  0  0  0  0
  187.1750  178.5350  144.2940 C   0  0  0  0  0  2  0  0  0  0  0  0
  186.2420  178.3110  143.1010 C   0  0  1  0  0  3  0  0  0  0  0  0
  184.1210  178.6470  145.0420 C   0  0  0  0  0  0  0  0  0  0  0  0
  185.1620  179.3930  143.0260 C   0  0  0  0  0  2  0  0  0  0  0  0
  183.9390  179.0040  143.8050 C   0  0  0  0  0  0  0  0  0  0  0  0
  185.9810  178.3290  146.5220 C   0  0  0  0  0  2  0  0  0  0  0  0
  186.8300  177.6120  145.4660 C   0  0  0  0  0  2  0  0  0  0  0  0
  186.5180  178.6030  140.6780 N   0  0  0  0  0  0  0  0  0  0  0  0
  187.5390  178.3970  139.6550 C   0  0  0  0  0  3  0  0  0  0  0  0
  188.3790  177.8030  141.6920 C   0  0  0  0  0  0  0  0  0  0  0  0
  187.0110  178.2690  141.8220 C   0  0  2  0  0  3  0  0  0  0  0  0
  188.7190  177.8750  140.4180 C   0  0  0  0  0  3  0  0  0  0  0  0
  190.1790  178.4610  143.2240 C   0  0  0  0  0  3  0  0  0  0  0  0
  191.2720  175.8670  144.4530 C   0  0  0  0  0  3  0  0  0  0  0  0
  191.0480  178.3380  144.2250 C   0  0  0  0  0  3  0  0  0  0  0  0
  190.9220  175.5400  143.0970 N   0  0  0  0  0  0  0  0  0  0  0  0
  189.2890  177.3470  142.7870 C   0  0  2  0  0  3  0  0  0  0  0  0
  191.3050  177.0960  144.9930 C   0  0  0  0  0  0  0  0  0  0  0  0
  190.0890  176.1730  142.3280 C   0  0  0  0  0  3  0  0  0  0  0  0
  191.7520  177.1950  146.3470 N   0  0  0  0  0  2  0  0  0  0  0  0
  190.9560  176.7940  147.4610 C   0  0  0  0  0  3  0  0  0  0  0  0
  189.7350  177.2810  147.6130 C   0  0  0  0  0  2  0  0  0  0  0  0
  181.7770  179.9510  143.4440 O   0  0  0  0  0  1  0  0  0  0  0  0
  182.5890  178.8490  143.1600 C   0  0  1  0  0  3  0  0  0  0  0  0
  180.4990  177.8570  141.4050 O   0  0  0  0  0  0  0  0  0  0  0  0
  181.5920  178.2150  140.8910 C   0  0  0  0  0  0  0  0  0  0  0  0
  182.6830  178.6440  141.7150 N   0  0  0  0  0  2  0  0  0  0  0  0
  181.7290  178.2420  139.4090 C   0  0  0  0  0  2  0  0  0  0  0  0
  182.6320  175.6480  137.8120 C   0  0  0  0  0  2  0  0  0  0  0  0
  182.9370  177.4180  138.9900 C   0  0  0  0  0  3  0  0  0  0  0  0
  182.6880  175.9530  139.2940 C   0  0  0  0  0  2  0  0  0  0  0  0
  182.8710  177.1140  137.5070 C   0  0  0  0  0  2  0  0  0  0  0  0
  1  7  1  0  0  0  0
  2  8  1  0  0  0  0
  3  5  1  6  0  0  0
  3  2  1  0  0  0  0
  4  1  2  0  0  0  0
  5  6  1  0  0  0  0
  6  4  2  0  0  0  0
  8  7  1  0  0  0  0
 10 13  1  0  0  0  0
 10  9  2  0  0  0  0
 11 12  1  0  0  0  0
 12  9  1  6  0  0  0
 12  3  1  0  0  0  0
 13 11  2  0  0  0  0
 14 16  2  0  0  0  0
 15 19  2  0  0  0  0
 16 19  1  0  0  0  0
 17 15  1  0  0  0  0
 18 11  1  6  0  0  0
 18 14  1  0  0  0  0
 19 21  1  0  0  0  0
 20 18  1  0  0  0  0
 20 17  2  0  0  0  0
 21 22  1  0  0  0  0
 22 23  2  0  0  0  0
 25 24  1  6  0  0  0
 25  6  1  0  0  0  0
 27 26  2  0  0  0  0
 27 28  1  0  0  0  0
 28 25  1  0  0  0  0
 29 27  1  0  0  0  0
 30 32  1  0  0  0  0
 31 32  1  0  0  0  0
 31 29  1  0  0  0  0
 33 30  1  0  0  0  0
 33 31  1  0  0  0  0
M  END
>  <MODEL>
2

>  <REMARK>
 VINA RESULT:      -8.5      2.705      7.730
  Name = 
  8 active torsions:
  status: ('A' for Active; 'I' for Inactive)
    1  A    between atoms: C_7  and  C_18
    2  A    between atoms: N_8  and  C_16
    3  A    between atoms: N_8  and  C_26
    4  A    between atoms: C_12  and  C_27
    5  A    between atoms: C_14  and  C_31
    6  A    between atoms: C_19  and  N_23
    7  A    between atoms: C_19  and  C_24
    8  A    between atoms: C_21  and  C_31
                            x       y       z     vdW  Elec       q    Type
                         _______ _______ _______ _____ _____    ______ ____

>  <TORSDO>
F 8

$$$$
=
 OpenBabel11042409513D

 33 36  0  0  1  0  0  0  0  0999 V2000
  184.4830  178.2950  145.8520 C   0  0  0  0  0  3  0  0  0  0  0  0
  187.2310  178.6050  144.0660 C   0  0  0  0  0  2  0  0  0  0  0  0
  186.3750  178.2960  142.8350 C   0  0  1  0  0  3  0  0  0  0  0  0
  184.1380  178.6220  144.6420 C   0  0  0  0  0  0  0  0  0  0  0  0
  185.2590  179.3280  142.6560 C   0  0  0  0  0  2  0  0  0  0  0  0
  184.0110  178.9210  143.3840 C   0  0  0  0  0  0  0  0  0  0  0  0
  185.9230  178.4390  146.2330 C   0  0  0  0  0  2  0  0  0  0  0  0
  186.8570  177.7160  145.2560 C   0  0  0  0  0  2  0  0  0  0  0  0
  186.7860  178.5450  140.4260 N   0  0  0  0  0  0  0  0  0  0  0  0
  187.8630  178.3260  139.4660 C   0  0  0  0  0  3  0  0  0  0  0  0
  188.5890  177.7710  141.5570 C   0  0  0  0  0  0  0  0  0  0  0  0
  187.2150  178.2330  141.6020 C   0  0  2  0  0  3  0  0  0  0  0  0
  189.0010  177.8210  140.3040 C   0  0  0  0  0  3  0  0  0  0  0  0
  190.3030  178.4600  143.1730 C   0  0  0  0  0  3  0  0  0  0  0  0
  191.3240  175.8930  144.5130 C   0  0  0  0  0  3  0  0  0  0  0  0
  191.1150  178.3590  144.2220 C   0  0  0  0  0  3  0  0  0  0  0  0
  191.0500  175.5380  143.1470 N   0  0  0  0  0  0  0  0  0  0  0  0
  189.4370  177.3370  142.7100 C   0  0  2  0  0  3  0  0  0  0  0  0
  191.3290  177.1330  145.0280 C   0  0  0  0  0  0  0  0  0  0  0  0
  190.2610  176.1550  142.3200 C   0  0  0  0  0  3  0  0  0  0  0  0
  191.7000  177.2600  146.4030 N   0  0  0  0  0  2  0  0  0  0  0  0
  190.8720  176.8210  147.4780 C   0  0  0  0  0  3  0  0  0  0  0  0
  189.6390  177.2860  147.5960 C   0  0  0  0  0  2  0  0  0  0  0  0
  181.6490  179.2730  143.3760 O   0  0  0  0  0  1  0  0  0  0  0  0
  182.7060  178.6850  142.6740 C   0  0  1  0  0  3  0  0  0  0  0  0
  183.0670  177.0790  140.2820 O   0  0  0  0  0  0  0  0  0  0  0  0
  182.8440  178.3120  140.1470 C   0  0  0  0  0  0  0  0  0  0  0  0
  182.7290  179.1650  141.2920 N   0  0  0  0  0  2  0  0  0  0  0  0
  182.6440  178.8730  138.7830 C   0  0  0  0  0  2  0  0  0  0  0  0
  180.9590  180.9010  137.0100 C   0  0  0  0  0  2  0  0  0  0  0  0
  181.3880  179.7310  138.7600 C   0  0  0  0  0  3  0  0  0  0  0  0
  181.7340  181.1320  138.2910 C   0  0  0  0  0  2  0  0  0  0  0  0
  180.6210  179.4970  137.4750 C   0  0  0  0  0  2  0  0  0  0  0  0
  1  7  1  0  0  0  0
  2  8  1  0  0  0  0
  3  5  1  6  0  0  0
  3  2  1  0  0  0  0
  4  1  2  0  0  0  0
  5  6  1  0  0  0  0
  6  4  2  0  0  0  0
  8  7  1  0  0  0  0
 10 13  1  0  0  0  0
 10  9  2  0  0  0  0
 11 12  1  0  0  0  0
 12  9  1  6  0  0  0
 12  3  1  0  0  0  0
 13 11  2  0  0  0  0
 14 16  2  0  0  0  0
 15 19  2  0  0  0  0
 16 19  1  0  0  0  0
 17 15  1  0  0  0  0
 18 11  1  6  0  0  0
 18 14  1  0  0  0  0
 19 21  1  0  0  0  0
 20 18  1  0  0  0  0
 20 17  2  0  0  0  0
 21 22  1  0  0  0  0
 22 23  2  0  0  0  0
 25 24  1  1  0  0  0
 25  6  1  0  0  0  0
 27 26  2  0  0  0  0
 27 28  1  0  0  0  0
 28 25  1  0  0  0  0
 29 27  1  0  0  0  0
 30 33  1  0  0  0  0
 30 32  1  0  0  0  0
 31 29  1  0  0  0  0
 32 31  1  0  0  0  0
 33 31  1  0  0  0  0
M  END
>  <MODEL>
3

>  <REMARK>
 VINA RESULT:      -8.4      2.897      8.114
  Name = 
  8 active torsions:
  status: ('A' for Active; 'I' for Inactive)
    1  A    between atoms: C_7  and  C_18
    2  A    between atoms: N_8  and  C_16
    3  A    between atoms: N_8  and  C_26
    4  A    between atoms: C_12  and  C_27
    5  A    between atoms: C_14  and  C_31
    6  A    between atoms: C_19  and  N_23
    7  A    between atoms: C_19  and  C_24
    8  A    between atoms: C_21  and  C_31
                            x       y       z     vdW  Elec       q    Type
                         _______ _______ _______ _____ _____    ______ ____

>  <TORSDO>
F 8

$$$$
=
 OpenBabel11042409513D

 33 36  0  0  1  0  0  0  0  0999 V2000
  184.7290  178.1440  143.4540 C   0  0  0  0  0  3  0  0  0  0  0  0
  188.0140  177.9730  143.3630 C   0  0  0  0  0  2  0  0  0  0  0  0
  187.8880  177.8100  141.8460 C   0  0  1  0  0  3  0  0  0  0  0  0
  185.1150  178.5200  142.2720 C   0  0  0  0  0  0  0  0  0  0  0  0
  187.1940  179.0170  141.2100 C   0  0  0  0  0  2  0  0  0  0  0  0
  185.7050  178.8320  141.1570 C   0  0  0  0  0  0  0  0  0  0  0  0
  185.7640  178.0420  144.5300 C   0  0  0  0  0  2  0  0  0  0  0  0
  186.9510  177.1660  144.1120 C   0  0  0  0  0  2  0  0  0  0  0  0
  189.4560  177.7430  139.9560 N   0  0  0  0  0  0  0  0  0  0  0  0
  190.8560  177.4200  139.7000 C   0  0  0  0  0  3  0  0  0  0  0  0
  190.4150  177.1650  141.9250 C   0  0  0  0  0  0  0  0  0  0  0  0
  189.2260  177.6010  141.2170 C   0  0  2  0  0  3  0  0  0  0  0  0
  191.3980  177.0560  141.0500 C   0  0  0  0  0  3  0  0  0  0  0  0
  190.8200  178.1810  144.1220 C   0  0  0  0  0  3  0  0  0  0  0  0
  191.3620  175.8670  146.0670 C   0  0  0  0  0  3  0  0  0  0  0  0
  190.9290  178.2420  145.4470 C   0  0  0  0  0  3  0  0  0  0  0  0
  191.9450  175.4690  144.8140 N   0  0  0  0  0  0  0  0  0  0  0  0
  190.5540  176.9080  143.3910 C   0  0  2  0  0  3  0  0  0  0  0  0
  190.8720  177.0810  146.3680 C   0  0  0  0  0  0  0  0  0  0  0  0
  191.6440  175.9160  143.6330 C   0  0  0  0  0  3  0  0  0  0  0  0
  190.4040  177.2760  147.7050 N   0  0  0  0  0  2  0  0  0  0  0  0
  189.1930  177.9630  148.0130 C   0  0  0  0  0  3  0  0  0  0  0  0
  188.0260  177.4150  147.7170 C   0  0  0  0  0  2  0  0  0  0  0  0
  184.3220  180.0530  139.6420 O   0  0  0  0  0  1  0  0  0  0  0  0
  184.9410  178.8190  139.8620 C   0  0  1  0  0  3  0  0  0  0  0  0
  184.2380  177.0560  137.6640 O   0  0  0  0  0  0  0  0  0  0  0  0
  185.3550  177.6380  137.6310 C   0  0  0  0  0  0  0  0  0  0  0  0
  185.7840  178.4620  138.7210 N   0  0  0  0  0  2  0  0  0  0  0  0
  186.2110  177.5080  136.4200 C   0  0  0  0  0  2  0  0  0  0  0  0
  189.0330  176.1570  135.8690 C   0  0  0  0  0  2  0  0  0  0  0  0
  187.6770  177.5230  136.8230 C   0  0  0  0  0  3  0  0  0  0  0  0
  188.1470  176.1070  137.0970 C   0  0  0  0  0  2  0  0  0  0  0  0
  188.5560  177.5690  135.5900 C   0  0  0  0  0  2  0  0  0  0  0  0
  1  7  1  0  0  0  0
  2  8  1  0  0  0  0
  3  5  1  6  0  0  0
  3  2  1  0  0  0  0
  4  1  2  0  0  0  0
  6  5  1  0  0  0  0
  6  4  2  0  0  0  0
  8  7  1  0  0  0  0
 10  9  2  0  0  0  0
 10 13  1  0  0  0  0
 12  9  1  6  0  0  0
 12  3  1  0  0  0  0
 12 11  1  0  0  0  0
 13 11  2  0  0  0  0
 14 16  2  0  0  0  0
 15 19  2  0  0  0  0
 16 19  1  0  0  0  0
 17 15  1  0  0  0  0
 18 11  1  6  0  0  0
 18 20  1  0  0  0  0
 18 14  1  0  0  0  0
 19 21  1  0  0  0  0
 20 17  2  0  0  0  0
 21 22  1  0  0  0  0
 23 22  2  0  0  0  0
 25 24  1  6  0  0  0
 25  6  1  0  0  0  0
 27 26  2  0  0  0  0
 27 28  1  0  0  0  0
 28 25  1  0  0  0  0
 29 31  1  0  0  0  0
 29 27  1  0  0  0  0
 30 32  1  0  0  0  0
 31 32  1  0  0  0  0
 33 30  1  0  0  0  0
 33 31  1  0  0  0  0
M  END
>  <MODEL>
4

>  <REMARK>
 VINA RESULT:      -8.0      2.569      7.802
  Name = 
  8 active torsions:
  status: ('A' for Active; 'I' for Inactive)
    1  A    between atoms: C_7  and  C_18
    2  A    between atoms: N_8  and  C_16
    3  A    between atoms: N_8  and  C_26
    4  A    between atoms: C_12  and  C_27
    5  A    between atoms: C_14  and  C_31
    6  A    between atoms: C_19  and  N_23
    7  A    between atoms: C_19  and  C_24
    8  A    between atoms: C_21  and  C_31
                            x       y       z     vdW  Elec       q    Type
                         _______ _______ _______ _____ _____    ______ ____

>  <TORSDO>
F 8

$$$$
=
 OpenBabel11042409513D

 33 36  0  0  1  0  0  0  0  0999 V2000
  191.9460  177.7060  142.1980 C   0  0  0  0  0  3  0  0  0  0  0  0
  188.8010  177.9030  143.1470 C   0  0  0  0  0  2  0  0  0  0  0  0
  188.4620  178.2370  141.6920 C   0  0  1  0  0  3  0  0  0  0  0  0
  191.2010  177.4690  141.1600 C   0  0  0  0  0  0  0  0  0  0  0  0
  188.8770  177.1070  140.7480 C   0  0  0  0  0  2  0  0  0  0  0  0
  190.2840  177.2890  140.2560 C   0  0  0  0  0  0  0  0  0  0  0  0
  191.2970  177.6910  143.5460 C   0  0  0  0  0  2  0  0  0  0  0  0
  190.0750  178.6150  143.6120 C   0  0  0  0  0  2  0  0  0  0  0  0
  186.4230  178.6750  140.3940 N   0  0  0  0  0  0  0  0  0  0  0  0
  185.0150  178.9800  140.6280 C   0  0  0  0  0  3  0  0  0  0  0  0
  186.0750  178.7180  142.6320 C   0  0  0  0  0  0  0  0  0  0  0  0
  187.0050  178.5230  141.5350 C   0  0  2  0  0  3  0  0  0  0  0  0
  184.8860  178.9840  142.1220 C   0  0  0  0  0  3  0  0  0  0  0  0
  186.5090  177.1820  144.4960 C   0  0  0  0  0  3  0  0  0  0  0  0
  186.2950  178.8450  147.0680 C   0  0  0  0  0  3  0  0  0  0  0  0
  186.8250  176.8080  145.7330 C   0  0  0  0  0  3  0  0  0  0  0  0
  185.3060  179.3820  146.1730 N   0  0  0  0  0  0  0  0  0  0  0  0
  186.3650  178.6110  144.0950 C   0  0  2  0  0  3  0  0  0  0  0  0
  187.0100  177.7230  146.8860 C   0  0  0  0  0  0  0  0  0  0  0  0
  185.2820  179.2780  144.8780 C   0  0  0  0  0  3  0  0  0  0  0  0
  187.8900  177.3390  147.9440 N   0  0  0  0  0  2  0  0  0  0  0  0
  189.2490  177.7670  148.0210 C   0  0  0  0  0  3  0  0  0  0  0  0
  190.1850  177.1280  147.3390 C   0  0  0  0  0  2  0  0  0  0  0  0
  191.5160  176.4580  138.3870 O   0  0  0  0  0  1  0  0  0  0  0  0
  190.6140  177.4450  138.7970 C   0  0  1  0  0  3  0  0  0  0  0  0
  189.0530  179.7400  137.9440 O   0  0  0  0  0  0  0  0  0  0  0  0
  188.7300  178.6020  137.5080 C   0  0  0  0  0  0  0  0  0  0  0  0
  189.4200  177.4270  137.9520 N   0  0  0  0  0  2  0  0  0  0  0  0
  187.6590  178.4880  136.4820 C   0  0  0  0  0  2  0  0  0  0  0  0
  184.9070  177.0280  135.8600 C   0  0  0  0  0  2  0  0  0  0  0  0
  186.8780  177.2010  136.6960 C   0  0  0  0  0  3  0  0  0  0  0  0
  185.4750  177.5260  137.1720 C   0  0  0  0  0  2  0  0  0  0  0  0
  186.3100  176.7110  135.3800 C   0  0  0  0  0  2  0  0  0  0  0  0
  1  7  1  0  0  0  0
  2  8  1  0  0  0  0
  3  5  1  6  0  0  0
  3  2  1  0  0  0  0
  4  1  2  0  0  0  0
  6  5  1  0  0  0  0
  6  4  2  0  0  0  0
  7  8  1  0  0  0  0
  9 10  2  0  0  0  0
 10 13  1  0  0  0  0
 12  9  1  6  0  0  0
 12  3  1  0  0  0  0
 12 11  1  0  0  0  0
 13 11  2  0  0  0  0
 14 16  2  0  0  0  0
 16 19  1  0  0  0  0
 17 15  1  0  0  0  0
 18 11  1  6  0  0  0
 18 14  1  0  0  0  0
 18 20  1  0  0  0  0
 19 15  2  0  0  0  0
 19 21  1  0  0  0  0
 20 17  2  0  0  0  0
 21 22  1  0  0  0  0
 23 22  2  0  0  0  0
 25 24  1  6  0  0  0
 25  6  1  0  0  0  0
 27 26  2  0  0  0  0
 27 28  1  0  0  0  0
 28 25  1  0  0  0  0
 29 31  1  0  0  0  0
 29 27  1  0  0  0  0
 30 32  1  0  0  0  0
 31 32  1  0  0  0  0
 33 30  1  0  0  0  0
 33 31  1  0  0  0  0
M  END
>  <MODEL>
5

>  <REMARK>
 VINA RESULT:      -7.9      2.910      8.634
  Name = 
  8 active torsions:
  status: ('A' for Active; 'I' for Inactive)
    1  A    between atoms: C_7  and  C_18
    2  A    between atoms: N_8  and  C_16
    3  A    between atoms: N_8  and  C_26
    4  A    between atoms: C_12  and  C_27
    5  A    between atoms: C_14  and  C_31
    6  A    between atoms: C_19  and  N_23
    7  A    between atoms: C_19  and  C_24
    8  A    between atoms: C_21  and  C_31
                            x       y       z     vdW  Elec       q    Type
                         _______ _______ _______ _____ _____    ______ ____

>  <TORSDO>
F 8

$$$$
=
 OpenBabel11042409513D

 33 36  0  0  1  0  0  0  0  0999 V2000
  185.6610  178.8540  146.7660 C   0  0  0  0  0  3  0  0  0  0  0  0
  188.7030  178.2490  147.8670 C   0  0  0  0  0  2  0  0  0  0  0  0
  188.8930  177.3650  146.6320 C   0  0  1  0  0  3  0  0  0  0  0  0
  186.3980  178.5360  145.7450 C   0  0  0  0  0  0  0  0  0  0  0  0
  188.7220  178.1680  145.3400 C   0  0  0  0  0  2  0  0  0  0  0  0
  187.2940  178.1700  144.8770 C   0  0  0  0  0  0  0  0  0  0  0  0
  186.3500  179.1750  148.0560 C   0  0  0  0  0  2  0  0  0  0  0  0
  187.3160  178.0660  148.4890 C   0  0  0  0  0  2  0  0  0  0  0  0
  190.7920  176.2490  147.7170 N   0  0  0  0  0  0  0  0  0  0  0  0
  192.1010  175.7100  147.3600 C   0  0  0  0  0  2  0  0  0  0  0  0
  191.0870  176.5340  145.4890 C   0  0  0  0  0  0  0  0  0  0  0  0
  190.2310  176.7030  146.6480 C   0  0  0  0  0  0  0  0  0  0  0  0
  192.2000  175.9420  145.8810 C   0  0  0  0  0  3  0  0  0  0  0  0
  190.5000  175.7040  143.2550 C   0  0  0  0  0  3  0  0  0  0  0  0
  190.8670  178.0630  141.3230 C   0  0  0  0  0  3  0  0  0  0  0  0
  190.1460  175.7680  141.9740 C   0  0  0  0  0  3  0  0  0  0  0  0
  191.9070  178.1990  142.3080 N   0  0  0  0  0  0  0  0  0  0  0  0
  190.7840  176.9170  144.0760 C   0  0  2  0  0  3  0  0  0  0  0  0
  190.0480  177.0100  141.1700 C   0  0  0  0  0  0  0  0  0  0  0  0
  191.9240  177.6940  143.5040 C   0  0  0  0  0  3  0  0  0  0  0  0
  189.1310  177.0590  140.0740 N   0  0  0  0  0  2  0  0  0  0  0  0
  189.5110  177.4570  138.7590 C   0  0  0  0  0  3  0  0  0  0  0  0
  189.0440  178.5850  138.2470 C   0  0  0  0  0  2  0  0  0  0  0  0
  187.2710  176.2700  143.4310 O   0  0  0  0  0  1  0  0  0  0  0  0
  186.8770  177.6070  143.5460 C   0  0  1  0  0  3  0  0  0  0  0  0
  185.5610  179.5510  141.8370 O   0  0  0  0  0  0  0  0  0  0  0  0
  184.8530  178.6750  142.4030 C   0  0  0  0  0  0  0  0  0  0  0  0
  185.4390  177.7360  143.3130 N   0  0  0  0  0  2  0  0  0  0  0  0
  183.4030  178.5850  142.0780 C   0  0  0  0  0  2  0  0  0  0  0  0
  180.8330  178.5500  143.9440 C   0  0  0  0  0  2  0  0  0  0  0  0
  182.6010  179.4050  143.0760 C   0  0  0  0  0  3  0  0  0  0  0  0
  181.1310  179.3680  142.7050 C   0  0  0  0  0  2  0  0  0  0  0  0
  182.3040  178.5790  144.3110 C   0  0  0  0  0  2  0  0  0  0  0  0
  1  7  1  0  0  0  0
  2  8  1  0  0  0  0
  3 12  1  1  0  0  0
  3  2  1  0  0  0  0
  4  1  2  0  0  0  0
  5  3  1  0  0  0  0
  6  5  1  0  0  0  0
  6  4  2  0  0  0  0
  7  8  1  0  0  0  0
 10  9  1  0  0  0  0
 11 13  2  0  0  0  0
 11 12  1  0  0  0  0
 12  9  2  0  0  0  0
 13 10  1  0  0  0  0
 14 18  1  0  0  0  0
 15 17  1  0  0  0  0
 16 14  2  0  0  0  0
 17 20  2  0  0  0  0
 18 11  1  1  0  0  0
 19 15  2  0  0  0  0
 19 16  1  0  0  0  0
 20 18  1  0  0  0  0
 21 19  1  0  0  0  0
 22 21  1  0  0  0  0
 23 22  2  0  0  0  0
 25 24  1  1  0  0  0
 25  6  1  0  0  0  0
 26 27  2  0  0  0  0
 27 28  1  0  0  0  0
 28 25  1  0  0  0  0
 29 27  1  0  0  0  0
 29 31  1  0  0  0  0
 30 33  1  0  0  0  0
 31 33  1  0  0  0  0
 32 31  1  0  0  0  0
 32 30  1  0  0  0  0
M  END
>  <MODEL>
6

>  <REMARK>
 VINA RESULT:      -7.8      2.456      6.408
  Name = 
  8 active torsions:
  status: ('A' for Active; 'I' for Inactive)
    1  A    between atoms: C_7  and  C_18
    2  A    between atoms: N_8  and  C_16
    3  A    between atoms: N_8  and  C_26
    4  A    between atoms: C_12  and  C_27
    5  A    between atoms: C_14  and  C_31
    6  A    between atoms: C_19  and  N_23
    7  A    between atoms: C_19  and  C_24
    8  A    between atoms: C_21  and  C_31
                            x       y       z     vdW  Elec       q    Type
                         _______ _______ _______ _____ _____    ______ ____

>  <TORSDO>
F 8

$$$$
=
 OpenBabel11042409513D

 33 36  0  0  1  0  0  0  0  0999 V2000
  184.5700  178.2520  143.9740 C   0  0  0  0  0  3  0  0  0  0  0  0
  187.7780  178.0180  143.2750 C   0  0  0  0  0  2  0  0  0  0  0  0
  187.3720  177.9120  141.8030 C   0  0  1  0  0  3  0  0  0  0  0  0
  184.7430  178.6630  142.7530 C   0  0  0  0  0  0  0  0  0  0  0  0
  186.6060  179.1550  141.3430 C   0  0  0  0  0  2  0  0  0  0  0  0
  185.1280  179.0020  141.5590 C   0  0  0  0  0  0  0  0  0  0  0  0
  185.7820  178.0910  144.8370 C   0  0  0  0  0  2  0  0  0  0  0  0
  186.8490  177.2060  144.1810 C   0  0  0  0  0  2  0  0  0  0  0  0
  188.5530  177.8390  139.6500 N   0  0  0  0  0  0  0  0  0  0  0  0
  189.8790  177.5110  139.1340 C   0  0  0  0  0  3  0  0  0  0  0  0
  189.8670  177.2610  141.4030 C   0  0  0  0  0  0  0  0  0  0  0  0
  188.5670  177.6990  140.9320 C   0  0  2  0  0  3  0  0  0  0  0  0
  190.6670  177.1470  140.3580 C   0  0  0  0  0  3  0  0  0  0  0  0
  190.8130  178.2520  143.4390 C   0  0  0  0  0  3  0  0  0  0  0  0
  191.5190  175.9150  145.3020 C   0  0  0  0  0  3  0  0  0  0  0  0
  191.1990  178.3150  144.7110 C   0  0  0  0  0  3  0  0  0  0  0  0
  191.7890  175.4470  143.9690 N   0  0  0  0  0  0  0  0  0  0  0  0
  190.2810  177.0050  142.8170 C   0  0  2  0  0  3  0  0  0  0  0  0
  191.2220  177.1750  145.6590 C   0  0  0  0  0  0  0  0  0  0  0  0
  191.2960  175.9110  142.8610 C   0  0  0  0  0  3  0  0  0  0  0  0
  191.0610  177.4290  147.0560 N   0  0  0  0  0  2  0  0  0  0  0  0
  189.8370  177.2040  147.7530 C   0  0  0  0  0  3  0  0  0  0  0  0
  188.7460  177.8660  147.4060 C   0  0  0  0  0  2  0  0  0  0  0  0
  184.5510  179.9660  139.4520 O   0  0  0  0  0  1  0  0  0  0  0  0
  184.1390  179.0520  140.4270 C   0  0  1  0  0  3  0  0  0  0  0  0
  181.7000  177.4810  140.5520 O   0  0  0  0  0  0  0  0  0  0  0  0
  182.6620  177.0390  139.8670 C   0  0  0  0  0  0  0  0  0  0  0  0
  183.9130  177.7360  139.8280 N   0  0  0  0  0  2  0  0  0  0  0  0
  182.4730  175.8100  139.0500 C   0  0  0  0  0  2  0  0  0  0  0  0
  183.2070  174.5540  136.2260 C   0  0  0  0  0  2  0  0  0  0  0  0
  183.5610  175.7250  137.9910 C   0  0  0  0  0  3  0  0  0  0  0  0
  183.7820  174.2770  137.5990 C   0  0  0  0  0  2  0  0  0  0  0  0
  182.9770  176.0000  136.6210 C   0  0  0  0  0  2  0  0  0  0  0  0
  1  7  1  0  0  0  0
  2  8  1  0  0  0  0
  3  5  1  6  0  0  0
  3  2  1  0  0  0  0
  4  1  2  0  0  0  0
  5  6  1  0  0  0  0
  6  4  2  0  0  0  0
  8  7  1  0  0  0  0
 10  9  2  0  0  0  0
 10 13  1  0  0  0  0
 12  9  1  6  0  0  0
 12 11  1  0  0  0  0
 12  3  1  0  0  0  0
 13 11  2  0  0  0  0
 14 16  2  0  0  0  0
 15 19  2  0  0  0  0
 16 19  1  0  0  0  0
 17 15  1  0  0  0  0
 18 11  1  6  0  0  0
 18 20  1  0  0  0  0
 18 14  1  0  0  0  0
 19 21  1  0  0  0  0
 20 17  2  0  0  0  0
 21 22  1  0  0  0  0
 23 22  2  0  0  0  0
 25 24  1  6  0  0  0
 25  6  1  0  0  0  0
 27 26  2  0  0  0  0
 28 27  1  0  0  0  0
 28 25  1  0  0  0  0
 29 27  1  0  0  0  0
 30 33  1  0  0  0  0
 30 32  1  0  0  0  0
 31 29  1  0  0  0  0
 32 31  1  0  0  0  0
 33 31  1  0  0  0  0
M  END
>  <MODEL>
7

>  <REMARK>
 VINA RESULT:      -7.8      2.835      7.887
  Name = 
  8 active torsions:
  status: ('A' for Active; 'I' for Inactive)
    1  A    between atoms: C_7  and  C_18
    2  A    between atoms: N_8  and  C_16
    3  A    between atoms: N_8  and  C_26
    4  A    between atoms: C_12  and  C_27
    5  A    between atoms: C_14  and  C_31
    6  A    between atoms: C_19  and  N_23
    7  A    between atoms: C_19  and  C_24
    8  A    between atoms: C_21  and  C_31
                            x       y       z     vdW  Elec       q    Type
                         _______ _______ _______ _____ _____    ______ ____

>  <TORSDO>
F 8

$$$$
=
 OpenBabel11042409513D

 33 36  0  0  1  0  0  0  0  0999 V2000
  186.2200  178.4220  142.2680 C   0  0  0  0  0  3  0  0  0  0  0  0
  183.0580  179.0170  141.5740 C   0  0  0  0  0  2  0  0  0  0  0  0
  182.7590  178.7280  143.0470 C   0  0  1  0  0  3  0  0  0  0  0  0
  185.6350  178.7980  143.3650 C   0  0  0  0  0  0  0  0  0  0  0  0
  183.5050  179.6940  143.9690 C   0  0  0  0  0  2  0  0  0  0  0  0
  184.8590  179.1640  144.3430 C   0  0  0  0  0  0  0  0  0  0  0  0
  185.4930  178.6360  140.9770 C   0  0  0  0  0  2  0  0  0  0  0  0
  184.0820  178.0360  140.9980 C   0  0  0  0  0  2  0  0  0  0  0  0
  180.7560  178.4770  144.4470 N   0  0  0  0  0  0  0  0  0  0  0  0
  179.3090  178.6270  144.3330 C   0  0  0  0  0  2  0  0  0  0  0  0
  180.2850  179.1720  142.3430 C   0  0  0  0  0  0  0  0  0  0  0  0
  181.2920  178.7950  143.3170 C   0  0  0  0  0  0  0  0  0  0  0  0
  179.1000  179.0870  142.9200 C   0  0  0  0  0  3  0  0  0  0  0  0
  179.7640  180.8810  140.6600 C   0  0  0  0  0  3  0  0  0  0  0  0
  180.7280  179.7730  137.9630 C   0  0  0  0  0  3  0  0  0  0  0  0
  179.8370  181.5230  139.4970 C   0  0  0  0  0  3  0  0  0  0  0  0
  180.2380  178.6380  138.6990 N   0  0  0  0  0  0  0  0  0  0  0  0
  180.5100  179.6190  140.9340 C   0  0  2  0  0  3  0  0  0  0  0  0
  180.5940  181.0640  138.3080 C   0  0  0  0  0  0  0  0  0  0  0  0
  180.1000  178.5400  139.9860 C   0  0  0  0  0  3  0  0  0  0  0  0
  181.0980  182.0340  137.3860 N   0  0  0  0  0  2  0  0  0  0  0  0
  180.6710  183.3940  137.3760 C   0  0  0  0  0  3  0  0  0  0  0  0
  181.5550  184.3660  137.2210 C   0  0  0  0  0  2  0  0  0  0  0  0
  184.1980  178.2780  146.4590 O   0  0  0  0  0  1  0  0  0  0  0  0
  185.2510  178.8860  145.7680 C   0  0  1  0  0  3  0  0  0  0  0  0
  187.1190  178.8030  147.9890 O   0  0  0  0  0  0  0  0  0  0  0  0
  187.3100  178.0230  147.0180 C   0  0  0  0  0  0  0  0  0  0  0  0
  186.4620  178.0710  145.8640 N   0  0  0  0  0  2  0  0  0  0  0  0
  188.3940  177.0070  147.0980 C   0  0  0  0  0  2  0  0  0  0  0  0
  191.3080  176.5720  145.9100 C   0  0  0  0  0  2  0  0  0  0  0  0
  189.7420  177.6770  146.8790 C   0  0  0  0  0  3  0  0  0  0  0  0
  190.8530  176.7540  147.3430 C   0  0  0  0  0  2  0  0  0  0  0  0
  190.1920  177.4870  145.4450 C   0  0  0  0  0  2  0  0  0  0  0  0
  1  4  2  0  0  0  0
  2  3  1  0  0  0  0
  3 12  1  6  0  0  0
  3  5  1  0  0  0  0
  4  6  2  0  0  0  0
  5  6  1  0  0  0  0
  6 25  1  0  0  0  0
  7  8  1  0  0  0  0
  7  1  1  0  0  0  0
  8  2  1  0  0  0  0
 10  9  1  0  0  0  0
 11 13  2  0  0  0  0
 11 12  1  0  0  0  0
 12  9  2  0  0  0  0
 13 10  1  0  0  0  0
 14 18  1  0  0  0  0
 15 19  2  0  0  0  0
 15 17  1  0  0  0  0
 16 14  2  0  0  0  0
 17 20  2  0  0  0  0
 18 11  1  1  0  0  0
 19 16  1  0  0  0  0
 20 18  1  0  0  0  0
 21 19  1  0  0  0  0
 22 21  1  0  0  0  0
 23 22  2  0  0  0  0
 25 28  1  0  0  0  0
 25 24  1  6  0  0  0
 27 29  1  0  0  0  0
 27 26  2  0  0  0  0
 28 27  1  0  0  0  0
 30 32  1  0  0  0  0
 31 29  1  0  0  0  0
 31 32  1  0  0  0  0
 33 30  1  0  0  0  0
 33 31  1  0  0  0  0
M  END
>  <MODEL>
8

>  <REMARK>
 VINA RESULT:      -7.8      3.887      6.346
  Name = 
  8 active torsions:
  status: ('A' for Active; 'I' for Inactive)
    1  A    between atoms: C_7  and  C_18
    2  A    between atoms: N_8  and  C_16
    3  A    between atoms: N_8  and  C_26
    4  A    between atoms: C_12  and  C_27
    5  A    between atoms: C_14  and  C_31
    6  A    between atoms: C_19  and  N_23
    7  A    between atoms: C_19  and  C_24
    8  A    between atoms: C_21  and  C_31
                            x       y       z     vdW  Elec       q    Type
                         _______ _______ _______ _____ _____    ______ ____

>  <TORSDO>
F 8

$$$$
=
 OpenBabel11042409513D

 33 36  0  0  1  0  0  0  0  0999 V2000
  186.1450  178.3500  145.1060 C   0  0  0  0  0  3  0  0  0  0  0  0
  182.8850  178.4910  144.6700 C   0  0  0  0  0  2  0  0  0  0  0  0
  183.1730  178.9780  143.2480 C   0  0  1  0  0  3  0  0  0  0  0  0
  185.9070  178.2310  143.8340 C   0  0  0  0  0  0  0  0  0  0  0  0
  183.9780  177.9450  142.4560 C   0  0  0  0  0  2  0  0  0  0  0  0
  185.4560  178.1580  142.6170 C   0  0  0  0  0  0  0  0  0  0  0  0
  184.9930  178.2050  146.0510 C   0  0  0  0  0  2  0  0  0  0  0  0
  183.8270  179.1330  145.6920 C   0  0  0  0  0  2  0  0  0  0  0  0
  180.9240  179.9470  143.0550 N   0  0  0  0  0  0  0  0  0  0  0  0
  179.8460  180.0380  142.0750 C   0  0  0  0  0  3  0  0  0  0  0  0
  181.5950  178.8830  141.1720 C   0  0  0  0  0  0  0  0  0  0  0  0
  181.9050  179.2990  142.5260 C   0  0  2  0  0  3  0  0  0  0  0  0
  180.3820  179.3130  140.8760 C   0  0  0  0  0  3  0  0  0  0  0  0
  182.9200  179.0090  139.1100 C   0  0  0  0  0  3  0  0  0  0  0  0
  183.6340  176.1200  138.3520 C   0  0  0  0  0  3  0  0  0  0  0  0
  183.7590  178.6010  138.1610 C   0  0  0  0  0  3  0  0  0  0  0  0
  182.3130  176.0600  138.9170 N   0  0  0  0  0  0  0  0  0  0  0  0
  182.4780  178.1280  140.2300 C   0  0  2  0  0  3  0  0  0  0  0  0
  184.3160  177.2330  138.0360 C   0  0  0  0  0  0  0  0  0  0  0  0
  181.7610  176.9250  139.7120 C   0  0  0  0  0  3  0  0  0  0  0  0
  185.5920  177.0540  137.4170 N   0  0  0  0  0  2  0  0  0  0  0  0
  186.6670  177.9800  137.5670 C   0  0  0  0  0  3  0  0  0  0  0  0
  187.2490  178.4980  136.4970 C   0  0  0  0  0  2  0  0  0  0  0  0
  185.8850  179.5610  140.7330 O   0  0  0  0  0  1  0  0  0  0  0  0
  186.3580  178.4590  141.4520 C   0  0  1  0  0  3  0  0  0  0  0  0
  188.3160  176.4210  142.1190 O   0  0  0  0  0  0  0  0  0  0  0  0
  188.6850  177.6260  142.1150 C   0  0  0  0  0  0  0  0  0  0  0  0
  187.7450  178.6770  141.8640 N   0  0  0  0  0  2  0  0  0  0  0  0
  190.1220  177.9510  142.3210 C   0  0  0  0  0  2  0  0  0  0  0  0
  191.2540  177.4390  145.2450 C   0  0  0  0  0  2  0  0  0  0  0  0
  190.3150  178.5840  143.6900 C   0  0  0  0  0  3  0  0  0  0  0  0
  189.8300  177.6330  144.7670 C   0  0  0  0  0  2  0  0  0  0  0  0
  191.7400  178.3830  144.1620 C   0  0  0  0  0  2  0  0  0  0  0  0
  1  7  1  0  0  0  0
  2  8  1  0  0  0  0
  3  5  1  6  0  0  0
  3  2  1  0  0  0  0
  4  1  2  0  0  0  0
  5  6  1  0  0  0  0
  6  4  2  0  0  0  0
  8  7  1  0  0  0  0
 10  9  2  0  0  0  0
 12 11  1  1  0  0  0
 12  9  1  0  0  0  0
 12  3  1  0  0  0  0
 13 11  2  0  0  0  0
 13 10  1  0  0  0  0
 14 18  1  0  0  0  0
 15 17  1  0  0  0  0
 16 14  2  0  0  0  0
 17 20  2  0  0  0  0
 18 11  1  1  0  0  0
 19 16  1  0  0  0  0
 19 15  2  0  0  0  0
 20 18  1  0  0  0  0
 21 22  1  0  0  0  0
 21 19  1  0  0  0  0
 23 22  2  0  0  0  0
 25 24  1  1  0  0  0
 25 28  1  0  0  0  0
 25  6  1  0  0  0  0
 27 26  2  0  0  0  0
 27 29  1  0  0  0  0
 28 27  1  0  0  0  0
 29 31  1  0  0  0  0
 31 33  1  0  0  0  0
 31 32  1  0  0  0  0
 32 30  1  0  0  0  0
 33 30  1  0  0  0  0
M  END
>  <MODEL>
9

>  <REMARK>
 VINA RESULT:      -7.8      2.933      5.665
  Name = 
  8 active torsions:
  status: ('A' for Active; 'I' for Inactive)
    1  A    between atoms: C_7  and  C_18
    2  A    between atoms: N_8  and  C_16
    3  A    between atoms: N_8  and  C_26
    4  A    between atoms: C_12  and  C_27
    5  A    between atoms: C_14  and  C_31
    6  A    between atoms: C_19  and  N_23
    7  A    between atoms: C_19  and  C_24
    8  A    between atoms: C_21  and  C_31
                            x       y       z     vdW  Elec       q    Type
                         _______ _______ _______ _____ _____    ______ ____

>  <TORSDO>
F 8

$$$$
