=
 OpenBabel11032420203D

 32 34  0  0  1  0  0  0  0  0999 V2000
  188.6970  178.2410  143.3280 O   0  0  0  0  0  0  0  0  0  0  0  0
  187.9580  177.6890  144.3950 C   0  0  2  0  0  0  0  0  0  0  0  0
  188.5730  177.3340  142.2650 C   0  0  2  0  0  3  0  0  0  0  0  0
  188.4390  175.9370  142.8140 C   0  0  0  0  0  2  0  0  0  0  0  0
  187.9490  176.1680  144.2110 C   0  0  0  0  0  2  0  0  0  0  0  0
  192.1260  177.2760  139.4250 N   0  0  0  0  0  0  0  0  0  0  0  0
  189.8380  177.6760  138.8300 C   0  0  0  0  0  0  0  0  0  0  0  0
  191.4720  176.8260  143.2910 S   0  0  0  0  0  1  0  0  0  0  0  0
  189.6940  177.4690  141.2700 C   0  0  0  0  0  0  0  0  0  0  0  0
  192.1440  177.4880  140.7050 C   0  0  0  0  0  3  0  0  0  0  0  0
  190.9990  177.2650  141.6130 C   0  0  0  0  0  0  0  0  0  0  0  0
  190.9800  176.7320  138.7190 C   0  0  0  0  0  2  0  0  0  0  0  0
  189.2900  177.9480  139.9750 N   0  0  0  0  0  0  0  0  0  0  0  0
  189.1820  178.3910  137.3730 Cl  0  0  0  0  0  0  0  0  0  0  0  0
  183.6240  178.7900  143.6060 C   0  0  0  0  0  0  0  0  0  0  0  0
  186.0020  178.6510  145.6380 C   0  0  0  0  0  3  0  0  0  0  0  0
  186.0980  178.6930  143.1110 C   0  0  0  0  0  3  0  0  0  0  0  0
  184.8300  178.9210  142.7800 C   0  0  0  0  0  3  0  0  0  0  0  0
  184.7160  178.8910  145.8720 C   0  0  0  0  0  3  0  0  0  0  0  0
  183.5930  178.8110  144.9350 C   0  0  0  0  0  3  0  0  0  0  0  0
  186.5910  178.2530  144.3870 N   0  0  0  0  0  0  0  0  0  0  0  0
  182.3140  178.7550  142.8920 C   0  0  0  0  0  2  0  0  0  0  0  0
  179.9180  178.3340  143.6090 C   0  0  0  0  0  0  0  0  0  0  0  0
  181.2130  178.8960  143.8360 N   0  0  0  0  0  2  0  0  0  0  0  0
  178.9310  178.4730  144.5730 O   0  0  0  0  0  1  0  0  0  0  0  0
  179.6630  177.7190  142.5390 O   0  0  0  0  0  0  0  0  0  0  0  0
  188.6880  178.0400  145.7010 C   0  0  0  0  0  2  0  0  0  0  0  0
  189.2910  176.8350  146.4120 C   0  0  0  0  0  2  0  0  0  0  0  0
  192.3180  177.1180  148.4400 O   0  0  0  0  0  0  0  0  0  0  0  0
  191.5350  176.7000  147.5500 C   0  0  0  0  0  0  0  0  0  0  0  0
  190.2380  177.2820  147.4210 N   0  0  0  0  0  2  0  0  0  0  0  0
  191.9490  175.6480  146.6840 N   0  0  0  0  0  1  0  0  0  0  0  0
  1  2  1  0  0  0  0
  2 27  1  1  0  0  0
  3  9  1  6  0  0  0
  3  4  1  0  0  0  0
  3  1  1  0  0  0  0
  4  5  1  0  0  0  0
  5  2  1  0  0  0  0
  6 10  2  0  0  0  0
  7 13  2  0  0  0  0
  9 11  2  0  0  0  0
 10 11  1  0  0  0  0
 11  8  1  0  0  0  0
 12  7  1  0  0  0  0
 12  6  1  0  0  0  0
 13  9  1  0  0  0  0
 14  7  1  0  0  0  0
 15 20  2  0  0  0  0
 16 19  2  0  0  0  0
 17 21  1  0  0  0  0
 18 17  2  0  0  0  0
 18 15  1  0  0  0  0
 20 19  1  0  0  0  0
 21  2  1  0  0  0  0
 21 16  1  0  0  0  0
 22 15  1  0  0  0  0
 22 24  1  0  0  0  0
 23 24  1  0  0  0  0
 23 25  1  0  0  0  0
 26 23  2  0  0  0  0
 27 28  1  0  0  0  0
 28 31  1  0  0  0  0
 30 29  2  0  0  0  0
 31 30  1  0  0  0  0
 32 30  1  0  0  0  0
M  END
>  <MODEL>
1

>  <REMARK>
 VINA RESULT:      -8.7      0.000      0.000
  Name = 
  7 active torsions:
  status: ('A' for Active; 'I' for Inactive)
    1  A    between atoms: C_2  and  C_13
    2  A    between atoms: C_2  and  N_32
    3  A    between atoms: C_6  and  C_17
    4  A    between atoms: C_7  and  C_12
    5  A    between atoms: C_11  and  C_13
    6  A    between atoms: C_11  and  N_26
    7  A    between atoms: C_17  and  N_18
                            x       y       z     vdW  Elec       q    Type
                         _______ _______ _______ _____ _____    ______ ____

>  <TORSDO>
F 7

$$$$
=
 OpenBabel11032420203D

 32 34  0  0  1  0  0  0  0  0999 V2000
  188.7130  178.2580  143.3570 O   0  0  0  0  0  0  0  0  0  0  0  0
  187.9900  177.7090  144.4360 C   0  0  2  0  0  0  0  0  0  0  0  0
  188.5620  177.3560  142.2930 C   0  0  2  0  0  3  0  0  0  0  0  0
  188.4280  175.9590  142.8400 C   0  0  0  0  0  2  0  0  0  0  0  0
  187.9660  176.1890  144.2470 C   0  0  0  0  0  2  0  0  0  0  0  0
  192.0580  177.2760  139.3840 N   0  0  0  0  0  0  0  0  0  0  0  0
  189.7650  177.7180  138.8390 C   0  0  0  0  0  0  0  0  0  0  0  0
  191.4730  176.7920  143.2570 S   0  0  0  0  0  1  0  0  0  0  0  0
  189.6660  177.4850  141.2780 C   0  0  0  0  0  0  0  0  0  0  0  0
  192.1040  177.4740  140.6650 C   0  0  0  0  0  3  0  0  0  0  0  0
  190.9740  177.2570  141.5940 C   0  0  0  0  0  0  0  0  0  0  0  0
  190.8900  176.7580  138.6940 C   0  0  0  0  0  2  0  0  0  0  0  0
  189.2440  177.9860  139.9970 N   0  0  0  0  0  0  0  0  0  0  0  0
  189.0920  178.4590  137.4030 Cl  0  0  0  0  0  0  0  0  0  0  0  0
  183.6700  178.8940  143.6910 C   0  0  0  0  0  0  0  0  0  0  0  0
  186.0330  178.6060  145.7250 C   0  0  0  0  0  3  0  0  0  0  0  0
  186.1470  178.8080  143.2060 C   0  0  0  0  0  3  0  0  0  0  0  0
  184.8830  179.0670  142.8830 C   0  0  0  0  0  3  0  0  0  0  0  0
  184.7480  178.8420  145.9660 C   0  0  0  0  0  3  0  0  0  0  0  0
  183.6300  178.8310  145.0190 C   0  0  0  0  0  3  0  0  0  0  0  0
  186.6270  178.2840  144.4550 N   0  0  0  0  0  0  0  0  0  0  0  0
  182.3650  178.9160  142.9680 C   0  0  0  0  0  2  0  0  0  0  0  0
  181.4330  178.1810  140.7280 C   0  0  0  0  0  0  0  0  0  0  0  0
  182.5350  178.4770  141.5900 N   0  0  0  0  0  2  0  0  0  0  0  0
  181.6720  177.8090  139.4120 O   0  0  0  0  0  0  0  0  0  0  0  0
  180.2490  178.2470  141.1520 O   0  0  0  0  0  1  0  0  0  0  0  0
  188.7470  178.0500  145.7290 C   0  0  0  0  0  2  0  0  0  0  0  0
  189.2980  176.8310  146.4600 C   0  0  0  0  0  2  0  0  0  0  0  0
  192.3500  177.0830  148.4540 O   0  0  0  0  0  0  0  0  0  0  0  0
  191.5600  176.6860  147.5590 C   0  0  0  0  0  0  0  0  0  0  0  0
  190.2540  177.2540  147.4710 N   0  0  0  0  0  2  0  0  0  0  0  0
  191.9750  175.6730  146.6490 N   0  0  0  0  0  1  0  0  0  0  0  0
  1  2  1  0  0  0  0
  2 21  1  0  0  0  0
  2 27  1  1  0  0  0
  3  9  1  6  0  0  0
  3  4  1  0  0  0  0
  3  1  1  0  0  0  0
  4  5  1  0  0  0  0
  5  2  1  0  0  0  0
  6 10  2  0  0  0  0
  7 13  2  0  0  0  0
  9 11  2  0  0  0  0
 10 11  1  0  0  0  0
 11  8  1  0  0  0  0
 12  7  1  0  0  0  0
 12  6  1  0  0  0  0
 13  9  1  0  0  0  0
 14  7  1  0  0  0  0
 15 20  2  0  0  0  0
 16 19  2  0  0  0  0
 17 21  1  0  0  0  0
 18 17  2  0  0  0  0
 18 15  1  0  0  0  0
 20 19  1  0  0  0  0
 21 16  1  0  0  0  0
 22 15  1  0  0  0  0
 23 26  1  0  0  0  0
 23 24  1  0  0  0  0
 24 22  1  0  0  0  0
 25 23  2  0  0  0  0
 27 28  1  0  0  0  0
 28 31  1  0  0  0  0
 30 29  2  0  0  0  0
 31 30  1  0  0  0  0
 32 30  1  0  0  0  0
M  END
>  <MODEL>
2

>  <REMARK>
 VINA RESULT:      -8.2      0.968      1.310
  Name = 
  7 active torsions:
  status: ('A' for Active; 'I' for Inactive)
    1  A    between atoms: C_2  and  C_13
    2  A    between atoms: C_2  and  N_32
    3  A    between atoms: C_6  and  C_17
    4  A    between atoms: C_7  and  C_12
    5  A    between atoms: C_11  and  C_13
    6  A    between atoms: C_11  and  N_26
    7  A    between atoms: C_17  and  N_18
                            x       y       z     vdW  Elec       q    Type
                         _______ _______ _______ _____ _____    ______ ____

>  <TORSDO>
F 7

$$$$
=
 OpenBabel11032420203D

 32 34  0  0  1  0  0  0  0  0999 V2000
  186.5910  177.4920  142.1110 O   0  0  0  0  0  0  0  0  0  0  0  0
  185.6850  178.2700  142.8610 C   0  0  2  0  0  0  0  0  0  0  0  0
  187.6530  178.3480  141.7820 C   0  0  2  0  0  3  0  0  0  0  0  0
  187.1320  179.7540  141.6340 C   0  0  0  0  0  2  0  0  0  0  0  0
  185.8580  179.7290  142.4230 C   0  0  0  0  0  2  0  0  0  0  0  0
  189.9070  176.4310  138.3280 N   0  0  0  0  0  0  0  0  0  0  0  0
  188.0100  177.8860  138.1530 C   0  0  0  0  0  0  0  0  0  0  0  0
  190.1270  176.5140  142.2680 S   0  0  0  0  0  1  0  0  0  0  0  0
  188.4110  177.8730  140.5720 C   0  0  0  0  0  0  0  0  0  0  0  0
  190.3480  176.6570  139.5270 C   0  0  0  0  0  3  0  0  0  0  0  0
  189.5060  177.0640  140.6720 C   0  0  0  0  0  0  0  0  0  0  0  0
  188.5040  176.4980  137.9640 C   0  0  0  0  0  2  0  0  0  0  0  0
  187.9660  178.4380  139.3270 N   0  0  0  0  0  0  0  0  0  0  0  0
  187.4200  178.7740  136.7650 Cl  0  0  0  0  0  0  0  0  0  0  0  0
  187.4890  177.8460  147.0070 C   0  0  0  0  0  0  0  0  0  0  0  0
  184.9970  178.5720  145.2550 C   0  0  0  0  0  3  0  0  0  0  0  0
  186.9880  177.1410  144.6350 C   0  0  0  0  0  3  0  0  0  0  0  0
  187.6380  177.0390  145.7900 C   0  0  0  0  0  3  0  0  0  0  0  0
  185.1910  178.7720  146.5550 C   0  0  0  0  0  3  0  0  0  0  0  0
  186.4140  178.5600  147.3320 C   0  0  0  0  0  3  0  0  0  0  0  0
  185.9630  178.0920  144.3030 N   0  0  0  0  0  0  0  0  0  0  0  0
  188.5820  177.7570  148.0190 C   0  0  0  0  0  2  0  0  0  0  0  0
  190.7790  176.8050  147.1850 C   0  0  0  0  0  0  0  0  0  0  0  0
  189.8830  177.9020  147.3810 N   0  0  0  0  0  2  0  0  0  0  0  0
  191.9850  177.0120  146.5310 O   0  0  0  0  0  0  0  0  0  0  0  0
  190.4870  175.6540  147.6070 O   0  0  0  0  0  1  0  0  0  0  0  0
  184.2640  177.8000  142.5130 C   0  0  0  0  0  2  0  0  0  0  0  0
  183.5970  178.6150  141.4120 C   0  0  0  0  0  2  0  0  0  0  0  0
  184.3670  177.9990  137.8930 O   0  0  0  0  0  0  0  0  0  0  0  0
  184.2460  178.6230  138.9780 C   0  0  0  0  0  0  0  0  0  0  0  0
  183.7610  177.9420  140.1340 N   0  0  0  0  0  2  0  0  0  0  0  0
  184.5890  180.0040  139.0390 N   0  0  0  0  0  1  0  0  0  0  0  0
  1  2  1  0  0  0  0
  2 27  1  6  0  0  0
  2 21  1  0  0  0  0
  3  9  1  6  0  0  0
  3  1  1  0  0  0  0
  4  3  1  0  0  0  0
  4  5  1  0  0  0  0
  5  2  1  0  0  0  0
  6 10  2  0  0  0  0
  7 13  2  0  0  0  0
  9 11  2  0  0  0  0
 10 11  1  0  0  0  0
 11  8  1  0  0  0  0
 12  7  1  0  0  0  0
 12  6  1  0  0  0  0
 13  9  1  0  0  0  0
 14  7  1  0  0  0  0
 15 20  2  0  0  0  0
 15 22  1  0  0  0  0
 16 19  2  0  0  0  0
 17 18  2  0  0  0  0
 18 15  1  0  0  0  0
 19 20  1  0  0  0  0
 21 17  1  0  0  0  0
 21 16  1  0  0  0  0
 23 24  1  0  0  0  0
 23 26  1  0  0  0  0
 24 22  1  0  0  0  0
 25 23  2  0  0  0  0
 28 27  1  0  0  0  0
 29 30  2  0  0  0  0
 30 32  1  0  0  0  0
 30 31  1  0  0  0  0
 31 28  1  0  0  0  0
M  END
>  <MODEL>
3

>  <REMARK>
 VINA RESULT:      -8.2      2.667      6.605
  Name = 
  7 active torsions:
  status: ('A' for Active; 'I' for Inactive)
    1  A    between atoms: C_2  and  C_13
    2  A    between atoms: C_2  and  N_32
    3  A    between atoms: C_6  and  C_17
    4  A    between atoms: C_7  and  C_12
    5  A    between atoms: C_11  and  C_13
    6  A    between atoms: C_11  and  N_26
    7  A    between atoms: C_17  and  N_18
                            x       y       z     vdW  Elec       q    Type
                         _______ _______ _______ _____ _____    ______ ____

>  <TORSDO>
F 7

$$$$
=
 OpenBabel11032420203D

 32 34  0  0  1  0  0  0  0  0999 V2000
  187.0960  178.6650  144.1640 O   0  0  0  0  0  0  0  0  0  0  0  0
  185.8690  178.4000  144.8060 C   0  0  2  0  0  0  0  0  0  0  0  0
  187.5190  177.4410  143.6230 C   0  0  2  0  0  3  0  0  0  0  0  0
  187.0350  176.3150  144.4990 C   0  0  0  0  0  2  0  0  0  0  0  0
  185.8790  176.9280  145.2310 C   0  0  0  0  0  2  0  0  0  0  0  0
  191.9570  177.8040  142.6930 N   0  0  0  0  0  0  0  0  0  0  0  0
  190.9880  177.3260  144.8340 C   0  0  0  0  0  0  0  0  0  0  0  0
  188.5370  178.0340  140.7370 S   0  0  0  0  0  1  0  0  0  0  0  0
  189.0060  177.4070  143.3920 C   0  0  0  0  0  0  0  0  0  0  0  0
  190.9980  177.5300  141.8630 C   0  0  0  0  0  3  0  0  0  0  0  0
  189.5570  177.6560  142.1680 C   0  0  0  0  0  0  0  0  0  0  0  0
  191.7360  178.3270  144.0290 C   0  0  0  0  0  2  0  0  0  0  0  0
  189.7780  176.9730  144.5260 N   0  0  0  0  0  0  0  0  0  0  0  0
  191.7410  176.6530  146.2640 Cl  0  0  0  0  0  0  0  0  0  0  0  0
  182.8930  178.6210  141.3830 C   0  0  0  0  0  0  0  0  0  0  0  0
  183.4770  179.0560  144.4280 C   0  0  0  0  0  3  0  0  0  0  0  0
  185.1260  178.9570  142.5130 C   0  0  0  0  0  3  0  0  0  0  0  0
  184.3280  178.9230  141.4500 C   0  0  0  0  0  3  0  0  0  0  0  0
  182.3100  179.0660  143.7910 C   0  0  0  0  0  3  0  0  0  0  0  0
  182.0360  178.7200  142.3950 C   0  0  0  0  0  3  0  0  0  0  0  0
  184.7560  178.6970  143.8780 N   0  0  0  0  0  0  0  0  0  0  0  0
  182.3300  178.2990  140.0400 C   0  0  0  0  0  2  0  0  0  0  0  0
  182.6750  175.9490  139.1510 C   0  0  0  0  0  0  0  0  0  0  0  0
  183.1370  177.2830  139.3760 N   0  0  0  0  0  2  0  0  0  0  0  0
  183.4840  175.0480  138.4730 O   0  0  0  0  0  0  0  0  0  0  0  0
  181.5450  175.5810  139.5680 O   0  0  0  0  0  1  0  0  0  0  0  0
  185.7930  179.2900  146.0570 C   0  0  0  0  0  2  0  0  0  0  0  0
  186.0590  178.5460  147.3590 C   0  0  0  0  0  2  0  0  0  0  0  0
  189.4870  178.4890  148.6230 O   0  0  0  0  0  0  0  0  0  0  0  0
  188.4090  178.0690  148.1300 C   0  0  0  0  0  0  0  0  0  0  0  0
  187.3280  178.9770  147.9220 N   0  0  0  0  0  2  0  0  0  0  0  0
  188.2780  176.6930  147.7890 N   0  0  0  0  0  1  0  0  0  0  0  0
  1  2  1  0  0  0  0
  2  5  1  0  0  0  0
  2 27  1  1  0  0  0
  3  9  1  1  0  0  0
  3  1  1  0  0  0  0
  3  4  1  0  0  0  0
  4  5  1  0  0  0  0
  6 12  1  0  0  0  0
  7 14  1  0  0  0  0
  8 11  1  0  0  0  0
  9 13  1  0  0  0  0
 10 11  1  0  0  0  0
 10  6  2  0  0  0  0
 11  9  2  0  0  0  0
 12  7  1  0  0  0  0
 13  7  2  0  0  0  0
 15 18  1  0  0  0  0
 15 20  2  0  0  0  0
 17 21  1  0  0  0  0
 18 17  2  0  0  0  0
 19 16  2  0  0  0  0
 20 19  1  0  0  0  0
 21 16  1  0  0  0  0
 21  2  1  0  0  0  0
 22 15  1  0  0  0  0
 23 24  1  0  0  0  0
 23 26  1  0  0  0  0
 24 22  1  0  0  0  0
 25 23  2  0  0  0  0
 27 28  1  0  0  0  0
 28 31  1  0  0  0  0
 30 29  2  0  0  0  0
 31 30  1  0  0  0  0
 32 30  1  0  0  0  0
M  END
>  <MODEL>
4

>  <REMARK>
 VINA RESULT:      -8.1      3.094      3.981
  Name = 
  7 active torsions:
  status: ('A' for Active; 'I' for Inactive)
    1  A    between atoms: C_2  and  C_13
    2  A    between atoms: C_2  and  N_32
    3  A    between atoms: C_6  and  C_17
    4  A    between atoms: C_7  and  C_12
    5  A    between atoms: C_11  and  C_13
    6  A    between atoms: C_11  and  N_26
    7  A    between atoms: C_17  and  N_18
                            x       y       z     vdW  Elec       q    Type
                         _______ _______ _______ _____ _____    ______ ____

>  <TORSDO>
F 7

$$$$
=
 OpenBabel11032420203D

 32 34  0  0  1  0  0  0  0  0999 V2000
  183.0710  179.5870  140.2210 O   0  0  0  0  0  0  0  0  0  0  0  0
  184.0030  178.5930  140.5860 C   0  0  2  0  0  0  0  0  0  0  0  0
  181.8590  178.9140  140.0000 C   0  0  2  0  0  3  0  0  0  0  0  0
  182.1440  177.5280  139.4850 C   0  0  0  0  0  2  0  0  0  0  0  0
  183.5480  177.2770  139.9470 C   0  0  0  0  0  2  0  0  0  0  0  0
  179.1660  181.6830  137.5980 N   0  0  0  0  0  0  0  0  0  0  0  0
  180.8930  180.2690  136.7220 C   0  0  0  0  0  0  0  0  0  0  0  0
  179.6480  180.6330  141.3710 S   0  0  0  0  0  1  0  0  0  0  0  0
  180.9320  179.6940  139.1060 C   0  0  0  0  0  0  0  0  0  0  0  0
  178.9320  181.1790  138.7700 C   0  0  0  0  0  3  0  0  0  0  0  0
  179.9340  180.4800  139.6030 C   0  0  0  0  0  0  0  0  0  0  0  0
  180.4730  181.6730  136.9670 C   0  0  0  0  0  2  0  0  0  0  0  0
  181.1070  179.4430  137.7000 N   0  0  0  0  0  0  0  0  0  0  0  0
  181.1600  179.7380  135.0760 Cl  0  0  0  0  0  0  0  0  0  0  0  0
  185.0870  178.7120  144.9940 C   0  0  0  0  0  0  0  0  0  0  0  0
  182.8440  178.6460  142.8100 C   0  0  0  0  0  3  0  0  0  0  0  0
  185.2550  177.9080  142.6070 C   0  0  0  0  0  3  0  0  0  0  0  0
  185.6890  178.0020  143.8600 C   0  0  0  0  0  3  0  0  0  0  0  0
  182.7340  178.8840  144.1140 C   0  0  0  0  0  3  0  0  0  0  0  0
  183.8060  179.0550  145.0980 C   0  0  0  0  0  3  0  0  0  0  0  0
  184.0630  178.4970  142.0610 N   0  0  0  0  0  0  0  0  0  0  0  0
  185.9570  178.9580  146.1810 C   0  0  0  0  0  2  0  0  0  0  0  0
  187.8630  177.7940  147.3830 C   0  0  0  0  0  0  0  0  0  0  0  0
  187.0470  177.9920  146.2260 N   0  0  0  0  0  2  0  0  0  0  0  0
  188.8560  176.8250  147.3650 O   0  0  0  0  0  0  0  0  0  0  0  0
  187.6940  178.4950  148.4160 O   0  0  0  0  0  1  0  0  0  0  0  0
  185.3680  178.9960  140.0070 C   0  0  0  0  0  2  0  0  0  0  0  0
  185.7370  178.2550  138.7280 C   0  0  0  0  0  2  0  0  0  0  0  0
  188.9350  178.4810  136.9730 O   0  0  0  0  0  0  0  0  0  0  0  0
  187.6960  178.3530  137.1460 C   0  0  0  0  0  0  0  0  0  0  0  0
  187.1600  178.4010  138.4680 N   0  0  0  0  0  2  0  0  0  0  0  0
  186.8420  178.1580  136.0230 N   0  0  0  0  0  1  0  0  0  0  0  0
  1  2  1  0  0  0  0
  2 27  1  6  0  0  0
  2 21  1  0  0  0  0
  3  9  1  6  0  0  0
  3  1  1  0  0  0  0
  4  5  1  0  0  0  0
  4  3  1  0  0  0  0
  5  2  1  0  0  0  0
  6 10  2  0  0  0  0
  7 12  1  0  0  0  0
  7 13  2  0  0  0  0
  9 11  2  0  0  0  0
 10 11  1  0  0  0  0
 11  8  1  0  0  0  0
 12  6  1  0  0  0  0
 13  9  1  0  0  0  0
 14  7  1  0  0  0  0
 15 20  2  0  0  0  0
 15 22  1  0  0  0  0
 16 19  2  0  0  0  0
 17 18  2  0  0  0  0
 18 15  1  0  0  0  0
 19 20  1  0  0  0  0
 21 17  1  0  0  0  0
 21 16  1  0  0  0  0
 22 24  1  0  0  0  0
 23 26  1  0  0  0  0
 24 23  1  0  0  0  0
 25 23  2  0  0  0  0
 28 27  1  0  0  0  0
 29 30  2  0  0  0  0
 30 31  1  0  0  0  0
 31 28  1  0  0  0  0
 32 30  1  0  0  0  0
M  END
>  <MODEL>
5

>  <REMARK>
 VINA RESULT:      -7.5      4.676      8.623
  Name = 
  7 active torsions:
  status: ('A' for Active; 'I' for Inactive)
    1  A    between atoms: C_2  and  C_13
    2  A    between atoms: C_2  and  N_32
    3  A    between atoms: C_6  and  C_17
    4  A    between atoms: C_7  and  C_12
    5  A    between atoms: C_11  and  C_13
    6  A    between atoms: C_11  and  N_26
    7  A    between atoms: C_17  and  N_18
                            x       y       z     vdW  Elec       q    Type
                         _______ _______ _______ _____ _____    ______ ____

>  <TORSDO>
F 7

$$$$
=
 OpenBabel11032420203D

 32 34  0  0  1  0  0  0  0  0999 V2000
  187.9820  176.6860  138.3020 O   0  0  0  0  0  0  0  0  0  0  0  0
  189.3130  177.1000  138.5150 C   0  0  2  0  0  0  0  0  0  0  0  0
  187.5130  177.4400  137.2160 C   0  0  2  0  0  3  0  0  0  0  0  0
  188.1870  178.7880  137.2170 C   0  0  0  0  0  2  0  0  0  0  0  0
  189.4320  178.5430  138.0140 C   0  0  0  0  0  2  0  0  0  0  0  0
  182.9720  177.2100  137.0840 N   0  0  0  0  0  0  0  0  0  0  0  0
  184.2940  178.2360  138.8020 C   0  0  0  0  0  0  0  0  0  0  0  0
  186.0170  176.0790  134.8430 S   0  0  0  0  0  1  0  0  0  0  0  0
  186.0110  177.5350  137.1970 C   0  0  0  0  0  0  0  0  0  0  0  0
  183.7940  177.1260  136.0840 C   0  0  0  0  0  3  0  0  0  0  0  0
  185.2600  176.9720  136.2080 C   0  0  0  0  0  0  0  0  0  0  0  0
  183.3850  177.1080  138.4720 C   0  0  0  0  0  2  0  0  0  0  0  0
  185.4510  178.3660  138.2300 N   0  0  0  0  0  0  0  0  0  0  0  0
  183.8110  179.3830  140.0330 Cl  0  0  0  0  0  0  0  0  0  0  0  0
  192.7990  174.6410  136.9580 C   0  0  0  0  0  0  0  0  0  0  0  0
  189.6990  174.9700  137.2460 C   0  0  0  0  0  3  0  0  0  0  0  0
  191.4860  176.7550  137.3830 C   0  0  0  0  0  3  0  0  0  0  0  0
  192.5820  176.0910  137.0270 C   0  0  0  0  0  3  0  0  0  0  0  0
  190.3920  173.9120  136.8370 C   0  0  0  0  0  3  0  0  0  0  0  0
  191.8450  173.7220  136.8440 C   0  0  0  0  0  3  0  0  0  0  0  0
  190.2300  176.1900  137.7930 N   0  0  0  0  0  0  0  0  0  0  0  0
  194.2130  174.1700  136.8830 C   0  0  0  0  0  2  0  0  0  0  0  0
  195.7440  174.2460  138.9020 C   0  0  0  0  0  0  0  0  0  0  0  0
  195.0460  174.8920  137.8350 N   0  0  0  0  0  2  0  0  0  0  0  0
  196.5530  174.9950  139.7450 O   0  0  0  0  0  1  0  0  0  0  0  0
  195.6270  173.0060  139.0900 O   0  0  0  0  0  0  0  0  0  0  0  0
  189.5800  177.0620  140.0270 C   0  0  0  0  0  2  0  0  0  0  0  0
  188.5870  177.8740  140.8490 C   0  0  0  0  0  2  0  0  0  0  0  0
  189.3850  177.8050  144.4150 O   0  0  0  0  0  0  0  0  0  0  0  0
  188.8560  177.4760  143.3220 C   0  0  0  0  0  0  0  0  0  0  0  0
  189.1710  178.2070  142.1380 N   0  0  0  0  0  2  0  0  0  0  0  0
  187.9470  176.3810  143.2790 N   0  0  0  0  0  1  0  0  0  0  0  0
  1  2  1  0  0  0  0
  2 27  1  1  0  0  0
  3  9  1  1  0  0  0
  3  4  1  0  0  0  0
  3  1  1  0  0  0  0
  4  5  1  0  0  0  0
  5  2  1  0  0  0  0
  6 12  1  0  0  0  0
  7 14  1  0  0  0  0
  8 11  1  0  0  0  0
  9 13  1  0  0  0  0
 10 11  1  0  0  0  0
 10  6  2  0  0  0  0
 11  9  2  0  0  0  0
 12  7  1  0  0  0  0
 13  7  2  0  0  0  0
 15 18  1  0  0  0  0
 16 21  1  0  0  0  0
 17 21  1  0  0  0  0
 18 17  2  0  0  0  0
 19 20  1  0  0  0  0
 19 16  2  0  0  0  0
 20 15  2  0  0  0  0
 21  2  1  0  0  0  0
 22 15  1  0  0  0  0
 22 24  1  0  0  0  0
 23 26  2  0  0  0  0
 23 25  1  0  0  0  0
 24 23  1  0  0  0  0
 27 28  1  0  0  0  0
 28 31  1  0  0  0  0
 30 29  2  0  0  0  0
 31 30  1  0  0  0  0
 32 30  1  0  0  0  0
M  END
>  <MODEL>
6

>  <REMARK>
 VINA RESULT:      -7.5      4.789      9.693
  Name = 
  7 active torsions:
  status: ('A' for Active; 'I' for Inactive)
    1  A    between atoms: C_2  and  C_13
    2  A    between atoms: C_2  and  N_32
    3  A    between atoms: C_6  and  C_17
    4  A    between atoms: C_7  and  C_12
    5  A    between atoms: C_11  and  C_13
    6  A    between atoms: C_11  and  N_26
    7  A    between atoms: C_17  and  N_18
                            x       y       z     vdW  Elec       q    Type
                         _______ _______ _______ _____ _____    ______ ____

>  <TORSDO>
F 7

$$$$
=
 OpenBabel11032420203D

 32 34  0  0  1  0  0  0  0  0999 V2000
  189.0460  178.1700  143.4730 O   0  0  0  0  0  0  0  0  0  0  0  0
  188.6990  177.8600  142.1410 C   0  0  2  0  0  0  0  0  0  0  0  0
  188.8090  177.0020  144.2140 C   0  0  2  0  0  3  0  0  0  0  0  0
  187.6630  176.2430  143.5960 C   0  0  0  0  0  2  0  0  0  0  0  0
  187.6400  176.7530  142.1870 C   0  0  0  0  0  2  0  0  0  0  0  0
  188.5850  178.2030  148.5960 N   0  0  0  0  0  0  0  0  0  0  0  0
  186.7760  178.2280  147.0210 C   0  0  0  0  0  0  0  0  0  0  0  0
  191.3030  176.8450  146.0780 S   0  0  0  0  0  1  0  0  0  0  0  0
  188.6010  177.2910  145.6760 C   0  0  0  0  0  0  0  0  0  0  0  0
  189.4570  177.4230  148.0370 C   0  0  0  0  0  3  0  0  0  0  0  0
  189.6250  177.2540  146.5770 C   0  0  0  0  0  0  0  0  0  0  0  0
  187.6840  179.0630  147.8490 C   0  0  0  0  0  2  0  0  0  0  0  0
  187.2270  177.4830  146.0590 N   0  0  0  0  0  0  0  0  0  0  0  0
  185.0530  178.2980  147.3160 Cl  0  0  0  0  0  0  0  0  0  0  0  0
  191.9130  176.8760  139.0880 C   0  0  0  0  0  0  0  0  0  0  0  0
  191.1860  177.5470  142.0590 C   0  0  0  0  0  3  0  0  0  0  0  0
  189.6880  176.6080  140.2510 C   0  0  0  0  0  3  0  0  0  0  0  0
  190.5450  176.3730  139.2620 C   0  0  0  0  0  3  0  0  0  0  0  0
  192.3830  177.5010  141.4810 C   0  0  0  0  0  3  0  0  0  0  0  0
  192.6990  177.3280  140.0620 C   0  0  0  0  0  3  0  0  0  0  0  0
  189.9090  177.4330  141.4070 N   0  0  0  0  0  0  0  0  0  0  0  0
  192.5130  176.7530  137.7280 C   0  0  0  0  0  2  0  0  0  0  0  0
  194.4370  175.1020  137.6890 C   0  0  0  0  0  0  0  0  0  0  0  0
  193.9310  176.4330  137.8200 N   0  0  0  0  0  2  0  0  0  0  0  0
  195.8050  174.8790  137.7460 O   0  0  0  0  0  1  0  0  0  0  0  0
  193.6530  174.1290  137.5300 O   0  0  0  0  0  0  0  0  0  0  0  0
  188.0900  179.1210  141.5100 C   0  0  0  0  0  2  0  0  0  0  0  0
  186.6020  179.0010  141.2060 C   0  0  0  0  0  2  0  0  0  0  0  0
  183.8660  179.3490  143.6040 O   0  0  0  0  0  0  0  0  0  0  0  0
  184.4970  178.9560  142.5900 C   0  0  0  0  0  0  0  0  0  0  0  0
  185.8270  179.4190  142.3630 N   0  0  0  0  0  2  0  0  0  0  0  0
  183.8760  178.0570  141.6770 N   0  0  0  0  0  1  0  0  0  0  0  0
  1  3  1  0  0  0  0
  2 27  1  6  0  0  0
  2  5  1  0  0  0  0
  2  1  1  0  0  0  0
  3  9  1  1  0  0  0
  4  3  1  0  0  0  0
  5  4  1  0  0  0  0
  7 14  1  0  0  0  0
  7 12  1  0  0  0  0
  8 11  1  0  0  0  0
  9 13  1  0  0  0  0
  9 11  2  0  0  0  0
 10  6  2  0  0  0  0
 11 10  1  0  0  0  0
 12  6  1  0  0  0  0
 13  7  2  0  0  0  0
 15 18  1  0  0  0  0
 15 20  2  0  0  0  0
 17 21  1  0  0  0  0
 18 17  2  0  0  0  0
 19 16  2  0  0  0  0
 20 19  1  0  0  0  0
 21 16  1  0  0  0  0
 21  2  1  0  0  0  0
 22 24  1  0  0  0  0
 22 15  1  0  0  0  0
 23 25  1  0  0  0  0
 23 24  1  0  0  0  0
 26 23  2  0  0  0  0
 28 27  1  0  0  0  0
 28 31  1  0  0  0  0
 30 29  2  0  0  0  0
 31 30  1  0  0  0  0
 32 30  1  0  0  0  0
M  END
>  <MODEL>
7

>  <REMARK>
 VINA RESULT:      -7.4      3.529      8.907
  Name = 
  7 active torsions:
  status: ('A' for Active; 'I' for Inactive)
    1  A    between atoms: C_2  and  C_13
    2  A    between atoms: C_2  and  N_32
    3  A    between atoms: C_6  and  C_17
    4  A    between atoms: C_7  and  C_12
    5  A    between atoms: C_11  and  C_13
    6  A    between atoms: C_11  and  N_26
    7  A    between atoms: C_17  and  N_18
                            x       y       z     vdW  Elec       q    Type
                         _______ _______ _______ _____ _____    ______ ____

>  <TORSDO>
F 7

$$$$
=
 OpenBabel11032420203D

 32 34  0  0  1  0  0  0  0  0999 V2000
  183.7260  178.0630  141.3220 O   0  0  0  0  0  0  0  0  0  0  0  0
  183.2820  178.1010  139.9840 C   0  0  2  0  0  0  0  0  0  0  0  0
  184.8850  178.8530  141.3660 C   0  0  2  0  0  3  0  0  0  0  0  0
  185.5960  178.7690  140.0400 C   0  0  0  0  0  2  0  0  0  0  0  0
  184.5080  178.3460  139.0990 C   0  0  0  0  0  2  0  0  0  0  0  0
  187.1750  177.4670  145.0430 N   0  0  0  0  0  0  0  0  0  0  0  0
  187.9750  177.4560  142.7830 C   0  0  0  0  0  0  0  0  0  0  0  0
  183.6340  179.0030  144.2180 S   0  0  0  0  0  1  0  0  0  0  0  0
  185.7700  178.4990  142.5300 C   0  0  0  0  0  0  0  0  0  0  0  0
  186.1760  178.2940  145.0030 C   0  0  0  0  0  3  0  0  0  0  0  0
  185.3220  178.5280  143.8190 C   0  0  0  0  0  0  0  0  0  0  0  0
  187.5540  176.6130  143.9320 C   0  0  0  0  0  2  0  0  0  0  0  0
  187.1440  178.2530  142.1830 N   0  0  0  0  0  0  0  0  0  0  0  0
  189.6170  177.3260  142.1910 Cl  0  0  0  0  0  0  0  0  0  0  0  0
  180.3120  181.2200  138.5450 C   0  0  0  0  0  0  0  0  0  0  0  0
  181.2370  179.2850  140.8260 C   0  0  0  0  0  3  0  0  0  0  0  0
  182.6030  180.2270  138.9180 C   0  0  0  0  0  3  0  0  0  0  0  0
  181.7640  181.1010  138.3700 C   0  0  0  0  0  3  0  0  0  0  0  0
  180.1000  179.9650  140.7170 C   0  0  0  0  0  3  0  0  0  0  0  0
  179.6190  180.7520  139.5790 C   0  0  0  0  0  3  0  0  0  0  0  0
  182.2710  179.1700  139.8340 N   0  0  0  0  0  0  0  0  0  0  0  0
  179.5730  182.0440  137.5450 C   0  0  0  0  0  2  0  0  0  0  0  0
  180.7730  183.8040  136.1700 C   0  0  0  0  0  0  0  0  0  0  0  0
  180.1950  183.3530  137.3970 N   0  0  0  0  0  2  0  0  0  0  0  0
  181.3100  185.0810  136.0930 O   0  0  0  0  0  1  0  0  0  0  0  0
  180.8060  183.0520  135.1600 O   0  0  0  0  0  0  0  0  0  0  0  0
  182.6810  176.7270  139.6510 C   0  0  0  0  0  2  0  0  0  0  0  0
  182.9360  176.2730  138.2190 C   0  0  0  0  0  2  0  0  0  0  0  0
  184.7680  173.1710  137.6050 O   0  0  0  0  0  0  0  0  0  0  0  0
  184.4990  174.4000  137.5930 C   0  0  0  0  0  0  0  0  0  0  0  0
  183.2980  174.8650  138.2070 N   0  0  0  0  0  2  0  0  0  0  0  0
  185.3950  175.3110  136.9650 N   0  0  0  0  0  1  0  0  0  0  0  0
  1  3  1  0  0  0  0
  2 27  1  6  0  0  0
  2  1  1  0  0  0  0
  3  9  1  1  0  0  0
  4  3  1  0  0  0  0
  5  2  1  0  0  0  0
  5  4  1  0  0  0  0
  7 12  1  0  0  0  0
  9 11  2  0  0  0  0
 10  6  2  0  0  0  0
 11  8  1  0  0  0  0
 11 10  1  0  0  0  0
 12  6  1  0  0  0  0
 13  9  1  0  0  0  0
 13  7  2  0  0  0  0
 14  7  1  0  0  0  0
 15 20  2  0  0  0  0
 17 21  1  0  0  0  0
 18 15  1  0  0  0  0
 18 17  2  0  0  0  0
 19 16  2  0  0  0  0
 20 19  1  0  0  0  0
 21  2  1  0  0  0  0
 21 16  1  0  0  0  0
 22 15  1  0  0  0  0
 23 24  1  0  0  0  0
 24 22  1  0  0  0  0
 25 23  1  0  0  0  0
 26 23  2  0  0  0  0
 28 27  1  0  0  0  0
 30 29  2  0  0  0  0
 30 31  1  0  0  0  0
 31 28  1  0  0  0  0
 32 30  1  0  0  0  0
M  END
>  <MODEL>
8

>  <REMARK>
 VINA RESULT:      -7.4      5.252      7.857
  Name = 
  7 active torsions:
  status: ('A' for Active; 'I' for Inactive)
    1  A    between atoms: C_2  and  C_13
    2  A    between atoms: C_2  and  N_32
    3  A    between atoms: C_6  and  C_17
    4  A    between atoms: C_7  and  C_12
    5  A    between atoms: C_11  and  C_13
    6  A    between atoms: C_11  and  N_26
    7  A    between atoms: C_17  and  N_18
                            x       y       z     vdW  Elec       q    Type
                         _______ _______ _______ _____ _____    ______ ____

>  <TORSDO>
F 7

$$$$
=
 OpenBabel11032420203D

 32 34  0  0  1  0  0  0  0  0999 V2000
  189.1850  176.8680  142.7990 O   0  0  0  0  0  0  0  0  0  0  0  0
  190.5550  177.1590  142.6250 C   0  0  2  0  0  0  0  0  0  0  0  0
  188.5240  178.1050  142.7780 C   0  0  2  0  0  3  0  0  0  0  0  0
  189.4330  179.1660  143.3420 C   0  0  0  0  0  2  0  0  0  0  0  0
  190.7970  178.5720  143.1650 C   0  0  0  0  0  2  0  0  0  0  0  0
  184.6920  178.2580  145.2260 N   0  0  0  0  0  0  0  0  0  0  0  0
  184.8870  178.6370  142.8660 C   0  0  0  0  0  0  0  0  0  0  0  0
  188.5230  177.5350  145.8440 S   0  0  0  0  0  1  0  0  0  0  0  0
  187.1890  178.0460  143.4720 C   0  0  0  0  0  0  0  0  0  0  0  0
  185.7900  177.6330  145.5200 C   0  0  0  0  0  3  0  0  0  0  0  0
  187.0760  177.8070  144.8110 C   0  0  0  0  0  0  0  0  0  0  0  0
  184.5970  179.2630  144.1820 C   0  0  0  0  0  2  0  0  0  0  0  0
  186.0540  178.1370  142.5930 N   0  0  0  0  0  0  0  0  0  0  0  0
  183.6410  178.6270  141.6370 Cl  0  0  0  0  0  0  0  0  0  0  0  0
  192.4390  176.3830  138.5670 C   0  0  0  0  0  0  0  0  0  0  0  0
  189.8370  176.8670  140.2390 C   0  0  0  0  0  3  0  0  0  0  0  0
  192.2160  177.4940  140.8230 C   0  0  0  0  0  3  0  0  0  0  0  0
  192.8710  177.2070  139.7020 C   0  0  0  0  0  3  0  0  0  0  0  0
  189.9570  176.4600  138.9790 C   0  0  0  0  0  3  0  0  0  0  0  0
  191.1780  176.1000  138.2550 C   0  0  0  0  0  3  0  0  0  0  0  0
  190.8990  177.0500  141.1910 N   0  0  0  0  0  0  0  0  0  0  0  0
  193.4960  175.9320  137.6150 C   0  0  0  0  0  2  0  0  0  0  0  0
  195.1040  174.3100  138.7160 C   0  0  0  0  0  0  0  0  0  0  0  0
  193.9350  174.5810  137.9400 N   0  0  0  0  0  2  0  0  0  0  0  0
  195.4360  172.9970  139.0210 O   0  0  0  0  0  0  0  0  0  0  0  0
  195.8400  175.2490  139.1200 O   0  0  0  0  0  1  0  0  0  0  0  0
  191.3580  176.1500  143.4600 C   0  0  0  0  0  2  0  0  0  0  0  0
  191.8610  176.7090  144.7850 C   0  0  0  0  0  2  0  0  0  0  0  0
  192.1240  174.8700  147.9330 O   0  0  0  0  0  0  0  0  0  0  0  0
  191.9550  175.8380  147.1470 C   0  0  0  0  0  0  0  0  0  0  0  0
  192.0430  175.6270  145.7390 N   0  0  0  0  0  2  0  0  0  0  0  0
  191.6820  177.1330  147.6720 N   0  0  0  0  0  1  0  0  0  0  0  0
  2  1  1  0  0  0  0
  2  5  1  0  0  0  0
  2 27  1  1  0  0  0
  3  1  1  0  0  0  0
  3  4  1  0  0  0  0
  3  9  1  1  0  0  0
  5  4  1  0  0  0  0
  6 10  2  0  0  0  0
  7 12  1  0  0  0  0
  9 11  2  0  0  0  0
 11 10  1  0  0  0  0
 11  8  1  0  0  0  0
 12  6  1  0  0  0  0
 13  7  2  0  0  0  0
 13  9  1  0  0  0  0
 14  7  1  0  0  0  0
 15 18  1  0  0  0  0
 16 21  1  0  0  0  0
 17 21  1  0  0  0  0
 18 17  2  0  0  0  0
 19 16  2  0  0  0  0
 20 15  2  0  0  0  0
 20 19  1  0  0  0  0
 21  2  1  0  0  0  0
 22 24  1  0  0  0  0
 22 15  1  0  0  0  0
 23 25  2  0  0  0  0
 23 26  1  0  0  0  0
 24 23  1  0  0  0  0
 27 28  1  0  0  0  0
 28 31  1  0  0  0  0
 30 32  1  0  0  0  0
 30 29  2  0  0  0  0
 31 30  1  0  0  0  0
M  END
>  <MODEL>
9

>  <REMARK>
 VINA RESULT:      -7.3      3.410      8.352
  Name = 
  7 active torsions:
  status: ('A' for Active; 'I' for Inactive)
    1  A    between atoms: C_2  and  C_13
    2  A    between atoms: C_2  and  N_32
    3  A    between atoms: C_6  and  C_17
    4  A    between atoms: C_7  and  C_12
    5  A    between atoms: C_11  and  C_13
    6  A    between atoms: C_11  and  N_26
    7  A    between atoms: C_17  and  N_18
                            x       y       z     vdW  Elec       q    Type
                         _______ _______ _______ _____ _____    ______ ____

>  <TORSDO>
F 7

$$$$
