=
 OpenBabel11042413223D

 50 57  0  0  1  0  0  0  0  0999 V2000
  188.4990  176.3230  138.1520 C   0  0  0  0  0  2  0  0  0  0  0  0
  189.7560  177.1460  138.4190 C   0  0  1  0  0  0  0  0  0  0  0  0
  189.5430  176.4610  137.0520 C   0  0  1  0  0  0  0  0  0  0  0  0
  189.3890  178.6130  138.5750 C   0  0  0  0  0  1  0  0  0  0  0  0
  193.5230  173.5670  136.3070 C   0  0  0  0  0  0  0  0  0  0  0  0
  192.1280  173.9360  136.5240 C   0  0  0  0  0  0  0  0  0  0  0  0
  193.9430  176.0850  136.3000 C   0  0  0  0  0  3  0  0  0  0  0  0
  192.6850  176.3160  136.5690 N   0  0  0  0  0  0  0  0  0  0  0  0
  191.0430  173.1430  136.5370 N   0  0  0  0  0  0  0  0  0  0  0  0
  193.8940  172.3650  136.3610 O   0  0  0  0  0  0  0  0  0  0  0  0
  191.7530  175.2360  136.6680 C   0  0  0  0  0  0  0  0  0  0  0  0
  190.4150  175.3030  136.7960 N   0  0  0  0  0  0  0  0  0  0  0  0
  190.0080  174.0100  136.7110 C   0  0  0  0  0  3  0  0  0  0  0  0
  194.5170  174.6840  136.0800 C   0  0  0  0  0  2  0  0  0  0  0  0
  189.2640  177.3750  135.8340 C   0  0  0  0  0  2  0  0  0  0  0  0
  186.8500  177.4210  135.6920 C   0  0  2  0  0  3  0  0  0  0  0  0
  187.3590  178.2600  134.6000 N   0  0  0  0  0  2  0  0  0  0  0  0
  188.0490  177.0110  134.9830 C   0  0  1  0  0  3  0  0  0  0  0  0
  185.6140  176.6670  135.2090 C   0  0  0  0  0  2  0  0  0  0  0  0
  185.2770  175.5120  136.1600 C   0  0  0  0  0  2  0  0  0  0  0  0
  183.0440  175.8620  137.2350 C   0  0  0  0  0  2  0  0  0  0  0  0
  183.6720  177.2320  137.0220 C   0  0  2  0  0  3  0  0  0  0  0  0
  184.5350  176.0420  137.3790 C   0  0  2  0  0  3  0  0  0  0  0  0
  183.5290  178.0180  138.2340 N   0  0  0  0  0  2  0  0  0  0  0  0
  185.6420  179.0190  138.2740 O   0  0  0  0  0  0  0  0  0  0  0  0
  184.6200  178.6420  138.9090 C   0  0  0  0  0  0  0  0  0  0  0  0
  184.5370  178.8170  140.3620 C   0  0  0  0  0  0  0  0  0  0  0  0
  185.3070  179.6200  140.9670 O   0  0  0  0  0  0  0  0  0  0  0  0
  183.5980  178.0580  141.0620 O   0  0  0  0  0  0  0  0  0  0  0  0
  181.4490  179.1140  140.7780 C   0  0  0  0  0  1  0  0  0  0  0  0
  182.4970  178.6300  141.7680 C   0  0  0  0  0  2  0  0  0  0  0  0
  190.5910  176.4560  139.4930 C   0  0  0  0  0  2  0  0  0  0  0  0
  191.2780  177.4300  140.4360 C   0  0  0  0  0  2  0  0  0  0  0  0
  190.4640  177.7260  141.5420 O   0  0  0  0  0  0  0  0  0  0  0  0
  190.0220  176.4640  141.9850 C   0  0  0  0  0  2  0  0  0  0  0  0
  190.8280  175.9740  143.1900 C   0  0  0  0  0  2  0  0  0  0  0  0
  184.5860  178.5010  144.7830 N   0  0  0  0  0  0  0  0  0  0  0  0
  189.2880  177.1960  144.7690 C   0  0  0  0  0  0  0  0  0  0  0  0
  188.0920  177.2630  148.2370 C   0  0  0  0  0  1  0  0  0  0  0  0
  188.1580  177.7240  146.8610 N   0  0  0  0  0  0  0  0  0  0  0  0
  186.9500  178.0380  146.1400 C   0  0  0  0  0  0  0  0  0  0  0  0
  186.8750  177.8220  144.7390 C   0  0  0  0  0  0  0  0  0  0  0  0
  188.0360  177.2510  143.9470 C   0  0  0  0  0  3  0  0  0  0  0  0
  185.6620  178.0500  144.0890 C   0  0  0  0  0  2  0  0  0  0  0  0
  190.4800  176.6890  144.4100 N   0  0  0  0  0  0  0  0  0  0  0  0
  185.8270  178.5210  146.8220 C   0  0  0  0  0  3  0  0  0  0  0  0
  184.6490  178.7590  146.1170 C   0  0  0  0  0  3  0  0  0  0  0  0
  191.2350  176.7100  145.5330 C   0  0  0  0  0  3  0  0  0  0  0  0
  189.3450  177.5080  146.0940 C   0  0  0  0  0  0  0  0  0  0  0  0
  190.5540  177.1940  146.5980 N   0  0  0  0  0  0  0  0  0  0  0  0
  1  2  1  0  0  0  0
  2  4  1  1  0  0  0
  2 32  1  0  0  0  0
  3 15  1  6  0  0  0
  3  1  1  0  0  0  0
  3  2  1  0  0  0  0
  5 10  2  0  0  0  0
  5  6  1  0  0  0  0
  6  9  1  0  0  0  0
  6 11  2  0  0  0  0
  7  8  2  0  0  0  0
  8 11  1  0  0  0  0
  9 13  2  0  0  0  0
 11 12  1  0  0  0  0
 12  3  1  0  0  0  0
 13 12  1  0  0  0  0
 14  7  1  0  0  0  0
 14  5  1  0  0  0  0
 16 19  1  6  0  0  0
 17 18  1  0  0  0  0
 17 16  1  0  0  0  0
 18 16  1  0  0  0  0
 18 15  1  1  0  0  0
 19 20  1  0  0  0  0
 21 23  1  0  0  0  0
 22 21  1  0  0  0  0
 22 23  1  0  0  0  0
 22 24  1  1  0  0  0
 23 20  1  6  0  0  0
 24 26  1  0  0  0  0
 25 26  2  0  0  0  0
 26 27  1  0  0  0  0
 27 28  2  0  0  0  0
 27 29  1  0  0  0  0
 29 31  1  0  0  0  0
 30 31  1  0  0  0  0
 32 33  1  0  0  0  0
 33 34  1  0  0  0  0
 34 35  1  0  0  0  0
 35 36  1  0  0  0  0
 36 45  1  0  0  0  0
 37 47  2  0  0  0  0
 38 49  2  0  0  0  0
 40 39  1  0  0  0  0
 41 46  2  0  0  0  0
 41 40  1  0  0  0  0
 42 41  1  0  0  0  0
 43 42  2  0  0  0  0
 43 38  1  0  0  0  0
 44 42  1  0  0  0  0
 44 37  1  0  0  0  0
 45 38  1  0  0  0  0
 45 48  1  0  0  0  0
 47 46  1  0  0  0  0
 48 50  2  0  0  0  0
 49 50  1  0  0  0  0
 49 40  1  0  0  0  0
M  END
>  <MODEL>
1

>  <REMARK>
 VINA RESULT:      -8.0      0.000      0.000
  Name = 
  16 active torsions:
  status: ('A' for Active; 'I' for Inactive)
    1  A    between atoms: N_10  and  C_40
    2  A    between atoms: C_11  and  C_19
    3  A    between atoms: C_15  and  C_25
    4  A    between atoms: C_15  and  C_28
    5  A    between atoms: C_16  and  C_20
    6  A    between atoms: C_16  and  N_38
    7  A    between atoms: O_18  and  C_24
    8  A    between atoms: O_18  and  C_44
    9  A    between atoms: C_19  and  C_34
   10  A    between atoms: C_20  and  O_31
   11  A    between atoms: C_23  and  C_47
   12  A    between atoms: C_24  and  C_29
   13  A    between atoms: C_28  and  O_31
   14  A    between atoms: C_34  and  C_49
   15  A    between atoms: C_35  and  N_36
   16  A    between atoms: C_35  and  C_47
                            x       y       z     vdW  Elec       q    Type
                         _______ _______ _______ _____ _____    ______ ____

>  <TORSDO>
F 16

$$$$
=
 OpenBabel11042413223D

 50 57  0  0  1  0  0  0  0  0999 V2000
  188.9840  176.3560  139.3030 C   0  0  0  0  0  2  0  0  0  0  0  0
  189.8040  177.4560  139.9700 C   0  0  1  0  0  0  0  0  0  0  0  0
  189.9540  177.1720  138.4590 C   0  0  1  0  0  0  0  0  0  0  0  0
  188.8870  178.5810  140.4220 C   0  0  0  0  0  1  0  0  0  0  0  0
  193.3210  174.0690  136.5090 C   0  0  0  0  0  0  0  0  0  0  0  0
  192.7820  175.2450  137.1850 C   0  0  0  0  0  0  0  0  0  0  0  0
  190.8920  173.2870  136.4380 C   0  0  0  0  0  3  0  0  0  0  0  0
  190.4940  174.4070  136.9810 N   0  0  0  0  0  0  0  0  0  0  0  0
  193.4470  176.2600  137.7610 N   0  0  0  0  0  0  0  0  0  0  0  0
  194.5310  174.0150  136.1650 O   0  0  0  0  0  0  0  0  0  0  0  0
  191.4440  175.4000  137.3790 C   0  0  0  0  0  0  0  0  0  0  0  0
  191.2210  176.5320  138.0710 N   0  0  0  0  0  0  0  0  0  0  0  0
  192.4620  177.0360  138.2920 C   0  0  0  0  0  3  0  0  0  0  0  0
  192.3610  172.9480  136.1810 C   0  0  0  0  0  2  0  0  0  0  0  0
  189.4120  178.2400  137.4780 C   0  0  0  0  0  2  0  0  0  0  0  0
  188.0460  176.8360  136.0580 C   0  0  2  0  0  3  0  0  0  0  0  0
  187.8100  178.2240  135.6420 N   0  0  0  0  0  2  0  0  0  0  0  0
  189.1570  177.7710  136.0460 C   0  0  1  0  0  3  0  0  0  0  0  0
  188.0430  175.9370  134.8260 C   0  0  0  0  0  2  0  0  0  0  0  0
  187.3130  174.6200  135.1160 C   0  0  0  0  0  2  0  0  0  0  0  0
  186.8250  173.2920  137.1800 C   0  0  0  0  0  2  0  0  0  0  0  0
  185.4950  173.7800  136.6220 C   0  0  2  0  0  3  0  0  0  0  0  0
  186.7310  174.6470  136.5230 C   0  0  2  0  0  3  0  0  0  0  0  0
  184.6930  174.3260  137.7020 N   0  0  0  0  0  2  0  0  0  0  0  0
  182.5710  174.0380  136.7650 O   0  0  0  0  0  0  0  0  0  0  0  0
  183.3120  174.6570  137.5760 C   0  0  0  0  0  0  0  0  0  0  0  0
  182.7750  175.7480  138.3950 C   0  0  0  0  0  0  0  0  0  0  0  0
  181.5520  175.7760  138.7230 O   0  0  0  0  0  0  0  0  0  0  0  0
  183.6470  176.7650  138.7880 O   0  0  0  0  0  0  0  0  0  0  0  0
  185.5040  178.2580  138.4190 C   0  0  0  0  0  1  0  0  0  0  0  0
  184.1820  177.7300  137.8830 C   0  0  0  0  0  2  0  0  0  0  0  0
  190.7790  176.8280  140.9610 C   0  0  0  0  0  2  0  0  0  0  0  0
  190.8110  177.5410  142.3030 C   0  0  0  0  0  2  0  0  0  0  0  0
  191.8320  177.0330  143.1230 O   0  0  0  0  0  0  0  0  0  0  0  0
  191.3240  177.1800  144.4280 C   0  0  0  0  0  2  0  0  0  0  0  0
  189.9820  176.4640  144.5950 C   0  0  0  0  0  2  0  0  0  0  0  0
  183.8680  178.5810  142.1400 N   0  0  0  0  0  0  0  0  0  0  0  0
  187.8120  177.7160  144.8810 C   0  0  0  0  0  0  0  0  0  0  0  0
  184.8990  178.0760  147.0840 C   0  0  0  0  0  1  0  0  0  0  0  0
  185.7080  178.3780  145.9150 N   0  0  0  0  0  0  0  0  0  0  0  0
  185.0950  178.4960  144.6160 C   0  0  0  0  0  0  0  0  0  0  0  0
  185.8090  178.1130  143.4500 C   0  0  0  0  0  0  0  0  0  0  0  0
  187.2200  177.5610  143.5130 C   0  0  0  0  0  3  0  0  0  0  0  0
  185.1530  178.1520  142.2190 C   0  0  0  0  0  2  0  0  0  0  0  0
  189.0090  177.2810  145.3080 N   0  0  0  0  0  0  0  0  0  0  0  0
  183.7770  178.9500  144.4960 C   0  0  0  0  0  3  0  0  0  0  0  0
  183.1810  178.9970  143.2380 C   0  0  0  0  0  3  0  0  0  0  0  0
  189.0190  177.5010  146.6430 C   0  0  0  0  0  3  0  0  0  0  0  0
  187.1230  178.1830  145.9600 C   0  0  0  0  0  0  0  0  0  0  0  0
  187.8580  178.0410  147.0810 N   0  0  0  0  0  0  0  0  0  0  0  0
  1  2  1  0  0  0  0
  2  4  1  1  0  0  0
  2 32  1  0  0  0  0
  3 15  1  6  0  0  0
  3  1  1  0  0  0  0
  3  2  1  0  0  0  0
  5  6  1  0  0  0  0
  6 11  2  0  0  0  0
  6  9  1  0  0  0  0
  7  8  2  0  0  0  0
  8 11  1  0  0  0  0
  9 13  2  0  0  0  0
 10  5  2  0  0  0  0
 11 12  1  0  0  0  0
 12 13  1  0  0  0  0
 12  3  1  0  0  0  0
 14  7  1  0  0  0  0
 14  5  1  0  0  0  0
 16 19  1  6  0  0  0
 17 18  1  0  0  0  0
 17 16  1  0  0  0  0
 18 16  1  0  0  0  0
 18 15  1  1  0  0  0
 19 20  1  0  0  0  0
 22 21  1  0  0  0  0
 22 24  1  1  0  0  0
 23 20  1  6  0  0  0
 23 22  1  0  0  0  0
 23 21  1  0  0  0  0
 25 26  2  0  0  0  0
 26 24  1  0  0  0  0
 26 27  1  0  0  0  0
 27 28  2  0  0  0  0
 27 29  1  0  0  0  0
 31 30  1  0  0  0  0
 31 29  1  0  0  0  0
 32 33  1  0  0  0  0
 33 34  1  0  0  0  0
 34 35  1  0  0  0  0
 35 36  1  0  0  0  0
 36 45  1  0  0  0  0
 37 44  1  0  0  0  0
 37 47  2  0  0  0  0
 38 45  1  0  0  0  0
 38 49  2  0  0  0  0
 40 49  1  0  0  0  0
 40 39  1  0  0  0  0
 41 40  1  0  0  0  0
 42 43  2  0  0  0  0
 42 41  1  0  0  0  0
 43 38  1  0  0  0  0
 44 42  1  0  0  0  0
 45 48  1  0  0  0  0
 46 41  2  0  0  0  0
 47 46  1  0  0  0  0
 48 50  2  0  0  0  0
 49 50  1  0  0  0  0
M  END
>  <MODEL>
2

>  <REMARK>
 VINA RESULT:      -7.8      1.841      2.946
  Name = 
  16 active torsions:
  status: ('A' for Active; 'I' for Inactive)
    1  A    between atoms: N_10  and  C_40
    2  A    between atoms: C_11  and  C_19
    3  A    between atoms: C_15  and  C_25
    4  A    between atoms: C_15  and  C_28
    5  A    between atoms: C_16  and  C_20
    6  A    between atoms: C_16  and  N_38
    7  A    between atoms: O_18  and  C_24
    8  A    between atoms: O_18  and  C_44
    9  A    between atoms: C_19  and  C_34
   10  A    between atoms: C_20  and  O_31
   11  A    between atoms: C_23  and  C_47
   12  A    between atoms: C_24  and  C_29
   13  A    between atoms: C_28  and  O_31
   14  A    between atoms: C_34  and  C_49
   15  A    between atoms: C_35  and  N_36
   16  A    between atoms: C_35  and  C_47
                            x       y       z     vdW  Elec       q    Type
                         _______ _______ _______ _____ _____    ______ ____

>  <TORSDO>
F 16

$$$$
=
 OpenBabel11042413223D

 50 57  0  0  1  0  0  0  0  0999 V2000
  183.3550  177.3650  140.0160 C   0  0  0  0  0  2  0  0  0  0  0  0
  184.1110  178.6610  139.7370 C   0  0  1  0  0  0  0  0  0  0  0  0
  182.5780  178.6720  139.9240 C   0  0  1  0  0  0  0  0  0  0  0  0
  185.0010  179.0040  140.9210 C   0  0  0  0  0  1  0  0  0  0  0  0
  180.3800  180.8700  136.0380 C   0  0  0  0  0  0  0  0  0  0  0  0
  180.8550  179.8000  136.9080 C   0  0  0  0  0  0  0  0  0  0  0  0
  181.3250  182.4260  137.8270 C   0  0  0  0  0  3  0  0  0  0  0  0
  181.7810  181.4050  138.5040 N   0  0  0  0  0  0  0  0  0  0  0  0
  180.6590  178.4750  136.7940 N   0  0  0  0  0  0  0  0  0  0  0  0
  179.9200  180.6210  134.8920 O   0  0  0  0  0  0  0  0  0  0  0  0
  181.5350  180.0690  138.0560 C   0  0  0  0  0  0  0  0  0  0  0  0
  181.8060  178.9170  138.6960 N   0  0  0  0  0  0  0  0  0  0  0  0
  181.2570  177.9600  137.9030 C   0  0  0  0  0  3  0  0  0  0  0  0
  180.5170  182.2920  136.5350 C   0  0  0  0  0  2  0  0  0  0  0  0
  182.0230  179.3300  141.2100 C   0  0  0  0  0  2  0  0  0  0  0  0
  182.5380  179.5460  143.5640 C   0  0  2  0  0  3  0  0  0  0  0  0
  181.2060  178.9360  143.4720 N   0  0  0  0  0  2  0  0  0  0  0  0
  182.2740  178.5770  142.5160 C   0  0  1  0  0  3  0  0  0  0  0  0
  183.2930  178.9270  144.7370 C   0  0  0  0  0  2  0  0  0  0  0  0
  184.7760  179.3130  144.6940 C   0  0  0  0  0  2  0  0  0  0  0  0
  185.3360  177.7700  146.5820 C   0  0  0  0  0  2  0  0  0  0  0  0
  186.5960  178.5540  146.2390 C   0  0  2  0  0  3  0  0  0  0  0  0
  185.6320  178.1390  145.1500 C   0  0  2  0  0  3  0  0  0  0  0  0
  187.7230  177.6410  146.1640 N   0  0  0  0  0  2  0  0  0  0  0  0
  188.3230  177.6120  148.4230 O   0  0  0  0  0  0  0  0  0  0  0  0
  188.6620  177.4510  147.2200 C   0  0  0  0  0  0  0  0  0  0  0  0
  190.0400  177.0860  146.8750 C   0  0  0  0  0  0  0  0  0  0  0  0
  190.9400  177.0260  147.7630 O   0  0  0  0  0  0  0  0  0  0  0  0
  190.3340  176.8270  145.5350 O   0  0  0  0  0  0  0  0  0  0  0  0
  191.8290  175.3750  144.3230 C   0  0  0  0  0  1  0  0  0  0  0  0
  191.6650  176.7080  145.0340 C   0  0  0  0  0  2  0  0  0  0  0  0
  184.7050  178.6060  138.3330 C   0  0  0  0  0  2  0  0  0  0  0  0
  184.7880  177.1960  137.7720 C   0  0  0  0  0  2  0  0  0  0  0  0
  184.4900  177.1780  136.4000 O   0  0  0  0  0  0  0  0  0  0  0  0
  185.7460  177.3240  135.7780 C   0  0  0  0  0  2  0  0  0  0  0  0
  186.6640  176.1360  136.0750 C   0  0  0  0  0  2  0  0  0  0  0  0
  190.1990  177.6000  141.8410 N   0  0  0  0  0  0  0  0  0  0  0  0
  188.7970  176.8220  137.2330 C   0  0  0  0  0  0  0  0  0  0  0  0
  192.3630  176.0130  137.5350 C   0  0  0  0  0  1  0  0  0  0  0  0
  191.1570  176.7650  137.8340 N   0  0  0  0  0  0  0  0  0  0  0  0
  190.8280  177.1020  139.1960 C   0  0  1  0  0  3  0  0  0  0  0  0
  189.4710  177.1870  139.6050 C   0  0  0  0  0  0  0  0  0  0  0  0
  188.3220  176.9230  138.6500 C   0  0  0  0  0  3  0  0  0  0  0  0
  189.1900  177.4230  140.9510 C   0  0  0  0  0  3  0  0  0  0  0  0
  188.0650  176.5310  136.1440 N   0  0  0  0  0  0  0  0  0  0  0  0
  191.8430  177.3060  140.1370 C   0  0  0  0  0  3  0  0  0  0  0  0
  191.5050  177.5680  141.4630 C   0  0  0  0  0  3  0  0  0  0  0  0
  188.9570  176.3860  135.1360 C   0  0  0  0  0  3  0  0  0  0  0  0
  190.1090  176.8440  136.8650 C   0  0  0  0  0  0  0  0  0  0  0  0
  190.2330  176.5550  135.5540 N   0  0  0  0  0  0  0  0  0  0  0  0
  2  3  1  0  0  0  0
  2  1  1  0  0  0  0
  2  4  1  1  0  0  0
  3  1  1  0  0  0  0
  3 15  1  1  0  0  0
  5 14  1  0  0  0  0
  5  6  1  0  0  0  0
  6 11  2  0  0  0  0
  7  8  2  0  0  0  0
  9  6  1  0  0  0  0
  9 13  2  0  0  0  0
 10  5  2  0  0  0  0
 11  8  1  0  0  0  0
 11 12  1  0  0  0  0
 12  3  1  0  0  0  0
 13 12  1  0  0  0  0
 14  7  1  0  0  0  0
 16 19  1  1  0  0  0
 17 16  1  0  0  0  0
 18 15  1  6  0  0  0
 18 17  1  0  0  0  0
 18 16  1  0  0  0  0
 20 19  1  0  0  0  0
 22 24  1  6  0  0  0
 22 21  1  0  0  0  0
 23 20  1  1  0  0  0
 23 22  1  0  0  0  0
 23 21  1  0  0  0  0
 24 26  1  0  0  0  0
 26 25  2  0  0  0  0
 27 26  1  0  0  0  0
 27 28  2  0  0  0  0
 29 27  1  0  0  0  0
 30 31  1  0  0  0  0
 31 29  1  0  0  0  0
 32  2  1  0  0  0  0
 33 32  1  0  0  0  0
 34 33  1  0  0  0  0
 35 36  1  0  0  0  0
 35 34  1  0  0  0  0
 36 45  1  0  0  0  0
 38 43  1  0  0  0  0
 39 40  1  0  0  0  0
 40 41  1  0  0  0  0
 41 42  1  0  0  0  0
 41 46  1  1  0  0  0
 42 44  1  0  0  0  0
 43 42  2  0  0  0  0
 44 37  2  0  0  0  0
 45 38  1  0  0  0  0
 46 47  2  0  0  0  0
 47 37  1  0  0  0  0
 48 50  2  0  0  0  0
 48 45  1  0  0  0  0
 49 38  2  0  0  0  0
 49 40  1  0  0  0  0
 50 49  1  0  0  0  0
M  END
>  <MODEL>
3

>  <REMARK>
 VINA RESULT:      -7.7      2.729      9.722
  Name = 
  16 active torsions:
  status: ('A' for Active; 'I' for Inactive)
    1  A    between atoms: N_10  and  C_40
    2  A    between atoms: C_11  and  C_19
    3  A    between atoms: C_15  and  C_25
    4  A    between atoms: C_15  and  C_28
    5  A    between atoms: C_16  and  C_20
    6  A    between atoms: C_16  and  N_38
    7  A    between atoms: O_18  and  C_24
    8  A    between atoms: O_18  and  C_44
    9  A    between atoms: C_19  and  C_34
   10  A    between atoms: C_20  and  O_31
   11  A    between atoms: C_23  and  C_47
   12  A    between atoms: C_24  and  C_29
   13  A    between atoms: C_28  and  O_31
   14  A    between atoms: C_34  and  C_49
   15  A    between atoms: C_35  and  N_36
   16  A    between atoms: C_35  and  C_47
                            x       y       z     vdW  Elec       q    Type
                         _______ _______ _______ _____ _____    ______ ____

>  <TORSDO>
F 16

$$$$
=
 OpenBabel11042413223D

 50 57  0  0  1  0  0  0  0  0999 V2000
  188.9260  176.4900  139.5990 C   0  0  0  0  0  2  0  0  0  0  0  0
  189.4870  177.5520  140.5400 C   0  0  1  0  0  0  0  0  0  0  0  0
  189.9650  177.4720  139.0740 C   0  0  1  0  0  0  0  0  0  0  0  0
  188.3960  178.5450  140.9070 C   0  0  0  0  0  1  0  0  0  0  0  0
  193.9380  174.9020  137.5310 C   0  0  0  0  0  0  0  0  0  0  0  0
  193.1630  175.9300  138.2170 C   0  0  0  0  0  0  0  0  0  0  0  0
  191.6620  173.9910  136.8230 C   0  0  0  0  0  3  0  0  0  0  0  0
  191.0560  174.9920  137.4050 N   0  0  0  0  0  0  0  0  0  0  0  0
  193.5960  176.8890  139.0540 N   0  0  0  0  0  0  0  0  0  0  0  0
  195.1930  174.9740  137.4590 O   0  0  0  0  0  0  0  0  0  0  0  0
  191.8060  175.9720  138.1290 C   0  0  0  0  0  0  0  0  0  0  0  0
  191.3390  176.9740  138.8960 N   0  0  0  0  0  0  0  0  0  0  0  0
  192.4540  177.5160  139.4500 C   0  0  0  0  0  3  0  0  0  0  0  0
  193.1770  173.7840  136.8550 C   0  0  0  0  0  2  0  0  0  0  0  0
  189.5350  178.6140  138.1220 C   0  0  0  0  0  2  0  0  0  0  0  0
  187.4300  177.7450  137.3060 C   0  0  2  0  0  3  0  0  0  0  0  0
  187.5780  179.0960  136.7530 N   0  0  0  0  0  2  0  0  0  0  0  0
  188.7430  178.1970  136.8830 C   0  0  1  0  0  3  0  0  0  0  0  0
  186.7720  176.8460  136.2640 C   0  0  0  0  0  2  0  0  0  0  0  0
  185.3020  177.2340  136.0620 C   0  0  0  0  0  2  0  0  0  0  0  0
  184.0610  175.3980  137.2240 C   0  0  0  0  0  2  0  0  0  0  0  0
  183.0620  176.5040  136.9130 C   0  0  2  0  0  3  0  0  0  0  0  0
  184.4880  176.8430  137.2880 C   0  0  2  0  0  3  0  0  0  0  0  0
  182.2520  176.7630  138.0910 N   0  0  0  0  0  2  0  0  0  0  0  0
  181.1880  178.7200  137.3810 O   0  0  0  0  0  0  0  0  0  0  0  0
  181.5800  177.9960  138.3360 C   0  0  0  0  0  0  0  0  0  0  0  0
  181.3750  178.4180  139.7250 C   0  0  0  0  0  0  0  0  0  0  0  0
  181.5960  179.6130  140.0830 O   0  0  0  0  0  0  0  0  0  0  0  0
  180.9460  177.4600  140.6460 O   0  0  0  0  0  0  0  0  0  0  0  0
  179.4540  175.5680  140.7020 C   0  0  0  0  0  1  0  0  0  0  0  0
  179.5800  177.0800  140.8020 C   0  0  0  0  0  2  0  0  0  0  0  0
  190.2950  176.8730  141.6410 C   0  0  0  0  0  2  0  0  0  0  0  0
  190.7730  177.8370  142.7140 C   0  0  0  0  0  2  0  0  0  0  0  0
  191.6650  177.2090  143.5990 O   0  0  0  0  0  0  0  0  0  0  0  0
  191.2060  177.5950  144.8740 C   0  0  0  0  0  2  0  0  0  0  0  0
  190.0530  176.7100  145.3510 C   0  0  0  0  0  2  0  0  0  0  0  0
  184.0930  178.5120  142.3320 N   0  0  0  0  0  0  0  0  0  0  0  0
  187.8100  177.8600  145.4250 C   0  0  0  0  0  0  0  0  0  0  0  0
  184.6970  178.0990  147.3540 C   0  0  0  0  0  1  0  0  0  0  0  0
  185.5930  178.4290  146.2590 N   0  0  0  0  0  0  0  0  0  0  0  0
  185.0940  178.5070  144.9090 C   0  0  0  0  0  0  0  0  0  0  0  0
  185.9270  178.1480  143.8160 C   0  0  0  0  0  0  0  0  0  0  0  0
  187.3520  177.6650  144.0120 C   0  0  0  0  0  3  0  0  0  0  0  0
  185.3840  178.1450  142.5310 C   0  0  0  0  0  2  0  0  0  0  0  0
  188.9830  177.4860  145.9630 N   0  0  0  0  0  0  0  0  0  0  0  0
  183.7720  178.8960  144.6650 C   0  0  0  0  0  3  0  0  0  0  0  0
  183.2900  178.9040  143.3590 C   0  0  0  0  0  3  0  0  0  0  0  0
  188.8620  177.7180  147.2910 C   0  0  0  0  0  3  0  0  0  0  0  0
  187.0060  178.3030  146.4330 C   0  0  0  0  0  0  0  0  0  0  0  0
  187.6420  178.2050  147.6160 N   0  0  0  0  0  0  0  0  0  0  0  0
  1  2  1  0  0  0  0
  2  4  1  1  0  0  0
  2 32  1  0  0  0  0
  3 15  1  6  0  0  0
  3  1  1  0  0  0  0
  3  2  1  0  0  0  0
  5  6  1  0  0  0  0
  6  9  1  0  0  0  0
  7 14  1  0  0  0  0
  7  8  2  0  0  0  0
  8 11  1  0  0  0  0
  9 13  2  0  0  0  0
 10  5  2  0  0  0  0
 11  6  2  0  0  0  0
 11 12  1  0  0  0  0
 12  3  1  0  0  0  0
 12 13  1  0  0  0  0
 14  5  1  0  0  0  0
 16 19  1  6  0  0  0
 17 18  1  0  0  0  0
 17 16  1  0  0  0  0
 18 16  1  0  0  0  0
 18 15  1  1  0  0  0
 20 19  1  0  0  0  0
 21 23  1  0  0  0  0
 22 21  1  0  0  0  0
 22 23  1  0  0  0  0
 22 24  1  1  0  0  0
 23 20  1  6  0  0  0
 24 26  1  0  0  0  0
 25 26  2  0  0  0  0
 26 27  1  0  0  0  0
 27 28  2  0  0  0  0
 27 29  1  0  0  0  0
 29 31  1  0  0  0  0
 30 31  1  0  0  0  0
 32 33  1  0  0  0  0
 33 34  1  0  0  0  0
 34 35  1  0  0  0  0
 35 36  1  0  0  0  0
 36 45  1  0  0  0  0
 37 44  1  0  0  0  0
 37 47  2  0  0  0  0
 38 45  1  0  0  0  0
 38 49  2  0  0  0  0
 40 49  1  0  0  0  0
 40 39  1  0  0  0  0
 41 40  1  0  0  0  0
 42 43  2  0  0  0  0
 42 41  1  0  0  0  0
 43 38  1  0  0  0  0
 44 42  1  0  0  0  0
 45 48  1  0  0  0  0
 46 41  2  0  0  0  0
 47 46  1  0  0  0  0
 48 50  2  0  0  0  0
 49 50  1  0  0  0  0
M  END
>  <MODEL>
4

>  <REMARK>
 VINA RESULT:      -7.7      1.870      2.716
  Name = 
  16 active torsions:
  status: ('A' for Active; 'I' for Inactive)
    1  A    between atoms: N_10  and  C_40
    2  A    between atoms: C_11  and  C_19
    3  A    between atoms: C_15  and  C_25
    4  A    between atoms: C_15  and  C_28
    5  A    between atoms: C_16  and  C_20
    6  A    between atoms: C_16  and  N_38
    7  A    between atoms: O_18  and  C_24
    8  A    between atoms: O_18  and  C_44
    9  A    between atoms: C_19  and  C_34
   10  A    between atoms: C_20  and  O_31
   11  A    between atoms: C_23  and  C_47
   12  A    between atoms: C_24  and  C_29
   13  A    between atoms: C_28  and  O_31
   14  A    between atoms: C_34  and  C_49
   15  A    between atoms: C_35  and  N_36
   16  A    between atoms: C_35  and  C_47
                            x       y       z     vdW  Elec       q    Type
                         _______ _______ _______ _____ _____    ______ ____

>  <TORSDO>
F 16

$$$$
=
 OpenBabel11042413223D

 50 57  0  0  1  0  0  0  0  0999 V2000
  187.2030  176.4620  143.4680 C   0  0  0  0  0  2  0  0  0  0  0  0
  186.7820  177.8890  143.8050 C   0  0  1  0  0  0  0  0  0  0  0  0
  188.2770  177.5100  143.7250 C   0  0  1  0  0  0  0  0  0  0  0  0
  186.1170  178.5300  142.5980 C   0  0  0  0  0  1  0  0  0  0  0  0
  191.6170  176.6210  147.3060 C   0  0  0  0  0  0  0  0  0  0  0  0
  190.4340  177.1720  146.6520 C   0  0  0  0  0  0  0  0  0  0  0  0
  191.9690  175.3820  145.1020 C   0  0  0  0  0  3  0  0  0  0  0  0
  190.9350  175.9820  144.5750 N   0  0  0  0  0  0  0  0  0  0  0  0
  189.4610  177.9330  147.1810 N   0  0  0  0  0  0  0  0  0  0  0  0
  191.9880  177.0370  148.4350 O   0  0  0  0  0  0  0  0  0  0  0  0
  190.1400  176.8780  145.3560 C   0  0  0  0  0  0  0  0  0  0  0  0
  188.9750  177.4630  145.0190 N   0  0  0  0  0  0  0  0  0  0  0  0
  188.5830  178.0990  146.1530 C   0  0  0  0  0  3  0  0  0  0  0  0
  192.4140  175.5810  146.5520 C   0  0  0  0  0  2  0  0  0  0  0  0
  189.0930  178.0830  142.5410 C   0  0  0  0  0  2  0  0  0  0  0  0
  188.8250  178.1660  140.1380 C   0  0  2  0  0  3  0  0  0  0  0  0
  190.1970  177.7130  140.4000 N   0  0  0  0  0  2  0  0  0  0  0  0
  189.0730  177.2660  141.2500 C   0  0  1  0  0  3  0  0  0  0  0  0
  188.2790  177.4300  138.9190 C   0  0  0  0  0  2  0  0  0  0  0  0
  188.3470  178.3200  137.6710 C   0  0  0  0  0  2  0  0  0  0  0  0
  189.1350  176.9310  135.7440 C   0  0  0  0  0  2  0  0  0  0  0  0
  189.8730  176.4540  136.9880 C   0  0  2  0  0  3  0  0  0  0  0  0
  189.5380  177.9190  136.8110 C   0  0  2  0  0  3  0  0  0  0  0  0
  191.2850  176.3130  136.6820 N   0  0  0  0  0  2  0  0  0  0  0  0
  191.7690  174.4640  138.0280 O   0  0  0  0  0  0  0  0  0  0  0  0
  192.1820  175.4950  137.4300 C   0  0  0  0  0  0  0  0  0  0  0  0
  193.5910  175.8910  137.5100 C   0  0  0  0  0  0  0  0  0  0  0  0
  194.0820  176.7210  136.6900 O   0  0  0  0  0  0  0  0  0  0  0  0
  194.3800  175.3110  138.5050 O   0  0  0  0  0  0  0  0  0  0  0  0
  196.5570  174.3240  138.8220 C   0  0  0  0  0  1  0  0  0  0  0  0
  195.1400  174.1200  138.3070 C   0  0  0  0  0  2  0  0  0  0  0  0
  186.0730  177.9000  145.1560 C   0  0  0  0  0  2  0  0  0  0  0  0
  185.3410  179.2020  145.4370 C   0  0  0  0  0  2  0  0  0  0  0  0
  184.0830  178.9620  146.0150 O   0  0  0  0  0  0  0  0  0  0  0  0
  183.3230  178.4200  144.9600 C   0  0  0  0  0  2  0  0  0  0  0  0
  182.8530  179.5030  143.9870 C   0  0  0  0  0  2  0  0  0  0  0  0
  182.7370  177.6130  137.3310 N   0  0  0  0  0  0  0  0  0  0  0  0
  181.5990  178.7130  141.9470 C   0  0  0  0  0  0  0  0  0  0  0  0
  179.2830  176.1340  140.7420 C   0  0  0  0  0  1  0  0  0  0  0  0
  180.1210  177.3140  140.6090 N   0  0  0  0  0  0  0  0  0  0  0  0
  180.9950  177.4610  139.4720 C   0  0  0  0  0  0  0  0  0  0  0  0
  182.2330  178.1420  139.6050 C   0  0  0  0  0  0  0  0  0  0  0  0
  182.6950  178.7290  140.9250 C   0  0  0  0  0  3  0  0  0  0  0  0
  183.0960  178.1850  138.5090 C   0  0  0  0  0  2  0  0  0  0  0  0
  181.6760  179.0910  143.2340 N   0  0  0  0  0  0  0  0  0  0  0  0
  180.6490  176.8980  138.2390 C   0  0  0  0  0  3  0  0  0  0  0  0
  181.5360  176.9960  137.1690 C   0  0  0  0  0  3  0  0  0  0  0  0
  180.4940  178.7340  143.7880 C   0  0  0  0  0  3  0  0  0  0  0  0
  180.3810  178.1340  141.7500 C   0  0  0  0  0  0  0  0  0  0  0  0
  179.6770  178.1210  142.8990 N   0  0  0  0  0  0  0  0  0  0  0  0
  1  3  1  0  0  0  0
  1  2  1  0  0  0  0
  2  4  1  6  0  0  0
  2 32  1  0  0  0  0
  3 15  1  6  0  0  0
  3  2  1  0  0  0  0
  3 12  1  0  0  0  0
  5 10  2  0  0  0  0
  6  9  1  0  0  0  0
  6  5  1  0  0  0  0
  7 14  1  0  0  0  0
  8  7  2  0  0  0  0
  8 11  1  0  0  0  0
 11  6  2  0  0  0  0
 12 11  1  0  0  0  0
 12 13  1  0  0  0  0
 13  9  2  0  0  0  0
 14  5  1  0  0  0  0
 16 19  1  6  0  0  0
 16 17  1  0  0  0  0
 16 18  1  0  0  0  0
 17 18  1  0  0  0  0
 18 15  1  1  0  0  0
 20 19  1  0  0  0  0
 21 23  1  0  0  0  0
 21 22  1  0  0  0  0
 22 24  1  6  0  0  0
 23 22  1  0  0  0  0
 23 20  1  1  0  0  0
 24 26  1  0  0  0  0
 26 27  1  0  0  0  0
 26 25  2  0  0  0  0
 27 29  1  0  0  0  0
 28 27  2  0  0  0  0
 31 29  1  0  0  0  0
 31 30  1  0  0  0  0
 32 33  1  0  0  0  0
 33 34  1  0  0  0  0
 35 34  1  0  0  0  0
 36 35  1  0  0  0  0
 37 44  1  0  0  0  0
 38 45  1  0  0  0  0
 40 39  1  0  0  0  0
 40 49  1  0  0  0  0
 41 42  1  0  0  0  0
 41 40  1  0  0  0  0
 42 43  2  0  0  0  0
 43 38  1  0  0  0  0
 44 42  1  0  0  0  0
 45 48  1  0  0  0  0
 45 36  1  0  0  0  0
 46 41  2  0  0  0  0
 47 37  2  0  0  0  0
 47 46  1  0  0  0  0
 49 38  2  0  0  0  0
 49 50  1  0  0  0  0
 50 48  2  0  0  0  0
M  END
>  <MODEL>
5

>  <REMARK>
 VINA RESULT:      -7.7      2.563      8.975
  Name = 
  16 active torsions:
  status: ('A' for Active; 'I' for Inactive)
    1  A    between atoms: N_10  and  C_40
    2  A    between atoms: C_11  and  C_19
    3  A    between atoms: C_15  and  C_25
    4  A    between atoms: C_15  and  C_28
    5  A    between atoms: C_16  and  C_20
    6  A    between atoms: C_16  and  N_38
    7  A    between atoms: O_18  and  C_24
    8  A    between atoms: O_18  and  C_44
    9  A    between atoms: C_19  and  C_34
   10  A    between atoms: C_20  and  O_31
   11  A    between atoms: C_23  and  C_47
   12  A    between atoms: C_24  and  C_29
   13  A    between atoms: C_28  and  O_31
   14  A    between atoms: C_34  and  C_49
   15  A    between atoms: C_35  and  N_36
   16  A    between atoms: C_35  and  C_47
                            x       y       z     vdW  Elec       q    Type
                         _______ _______ _______ _____ _____    ______ ____

>  <TORSDO>
F 16

$$$$
=
 OpenBabel11042413223D

 50 57  0  0  1  0  0  0  0  0999 V2000
  183.4860  178.6350  138.1770 C   0  0  0  0  0  2  0  0  0  0  0  0
  184.0410  177.8360  139.3520 C   0  0  1  0  0  0  0  0  0  0  0  0
  183.9990  177.2210  137.9360 C   0  0  1  0  0  0  0  0  0  0  0  0
  185.3330  178.4700  139.8420 C   0  0  0  0  0  1  0  0  0  0  0  0
  181.7940  172.7880  137.4310 C   0  0  0  0  0  0  0  0  0  0  0  0
  181.9290  174.2320  137.5860 C   0  0  0  0  0  0  0  0  0  0  0  0
  184.3450  172.7940  137.3510 C   0  0  0  0  0  3  0  0  0  0  0  0
  184.3700  174.0820  137.5680 N   0  0  0  0  0  0  0  0  0  0  0  0
  180.9660  175.1700  137.5900 N   0  0  0  0  0  0  0  0  0  0  0  0
  180.6730  172.2250  137.5400 O   0  0  0  0  0  0  0  0  0  0  0  0
  183.1510  174.8250  137.6720 C   0  0  0  0  0  0  0  0  0  0  0  0
  182.9970  176.1590  137.7510 N   0  0  0  0  0  0  0  0  0  0  0  0
  181.6520  176.3410  137.6970 C   0  0  0  0  0  3  0  0  0  0  0  0
  183.0550  171.9860  137.2000 C   0  0  0  0  0  2  0  0  0  0  0  0
  185.3500  177.0040  137.2140 C   0  0  0  0  0  2  0  0  0  0  0  0
  187.5840  177.8700  136.8830 C   0  0  2  0  0  3  0  0  0  0  0  0
  186.8420  178.1170  135.6410 N   0  0  0  0  0  2  0  0  0  0  0  0
  186.1870  178.2570  136.9590 C   0  0  1  0  0  3  0  0  0  0  0  0
  188.5180  179.0460  137.1510 C   0  0  0  0  0  2  0  0  0  0  0  0
  189.0750  178.9840  138.5780 C   0  0  0  0  0  2  0  0  0  0  0  0
  189.7330  177.4180  140.4150 C   0  0  0  0  0  2  0  0  0  0  0  0
  190.8350  177.3840  139.3650 C   0  0  2  0  0  3  0  0  0  0  0  0
  189.3890  177.5420  138.9520 C   0  0  2  0  0  3  0  0  0  0  0  0
  191.1950  176.0040  139.0920 N   0  0  0  0  0  2  0  0  0  0  0  0
  192.8630  176.3690  137.4960 O   0  0  0  0  0  0  0  0  0  0  0  0
  191.9950  175.5970  137.9840 C   0  0  0  0  0  0  0  0  0  0  0  0
  191.7700  174.2670  137.4090 C   0  0  0  0  0  0  0  0  0  0  0  0
  192.7140  173.6260  136.8610 O   0  0  0  0  0  0  0  0  0  0  0  0
  190.4800  173.7370  137.4660 O   0  0  0  0  0  0  0  0  0  0  0  0
  189.8960  174.9580  135.4710 C   0  0  0  0  0  1  0  0  0  0  0  0
  189.3820  174.2660  136.7240 C   0  0  0  0  0  2  0  0  0  0  0  0
  182.9160  177.5460  140.3410 C   0  0  0  0  0  2  0  0  0  0  0  0
  182.7780  178.6070  141.4190 C   0  0  0  0  0  2  0  0  0  0  0  0
  183.1440  178.1030  142.6780 O   0  0  0  0  0  0  0  0  0  0  0  0
  183.6590  179.2250  143.3560 C   0  0  0  0  0  2  0  0  0  0  0  0
  185.1810  179.1480  143.5010 C   0  0  0  0  0  2  0  0  0  0  0  0
  191.4470  176.6040  144.9650 N   0  0  0  0  0  0  0  0  0  0  0  0
  186.7800  178.0220  145.0920 C   0  0  0  0  0  0  0  0  0  0  0  0
  188.1650  178.2130  148.4850 C   0  0  0  0  0  1  0  0  0  0  0  0
  188.0140  177.6410  147.1580 N   0  0  0  0  0  0  0  0  0  0  0  0
  189.1730  177.2370  146.4030 C   0  0  0  0  0  0  0  0  0  0  0  0
  189.1740  177.3350  144.9870 C   0  0  0  0  0  0  0  0  0  0  0  0
  187.9840  177.8680  144.2130 C   0  0  0  0  0  3  0  0  0  0  0  0
  190.3450  177.0230  144.2940 C   0  0  0  0  0  2  0  0  0  0  0  0
  185.5820  178.5280  144.7570 N   0  0  0  0  0  0  0  0  0  0  0  0
  190.3220  176.7850  147.0620 C   0  0  0  0  0  3  0  0  0  0  0  0
  191.4540  176.4590  146.3180 C   0  0  0  0  0  3  0  0  0  0  0  0
  184.8900  178.6190  145.9160 C   0  0  0  0  0  3  0  0  0  0  0  0
  186.7910  177.8230  146.4410 C   0  0  0  0  0  0  0  0  0  0  0  0
  185.6180  178.2090  146.9800 N   0  0  0  0  0  0  0  0  0  0  0  0
  1  2  1  0  0  0  0
  2  4  1  1  0  0  0
  2 32  1  0  0  0  0
  3 15  1  6  0  0  0
  3  1  1  0  0  0  0
  3  2  1  0  0  0  0
  5 10  2  0  0  0  0
  5  6  1  0  0  0  0
  6  9  1  0  0  0  0
  6 11  2  0  0  0  0
  7  8  2  0  0  0  0
  8 11  1  0  0  0  0
  9 13  2  0  0  0  0
 11 12  1  0  0  0  0
 12  3  1  0  0  0  0
 13 12  1  0  0  0  0
 14  7  1  0  0  0  0
 14  5  1  0  0  0  0
 16 18  1  0  0  0  0
 16 19  1  1  0  0  0
 17 16  1  0  0  0  0
 17 18  1  0  0  0  0
 18 15  1  6  0  0  0
 19 20  1  0  0  0  0
 22 24  1  6  0  0  0
 22 21  1  0  0  0  0
 23 20  1  1  0  0  0
 23 22  1  0  0  0  0
 23 21  1  0  0  0  0
 25 26  2  0  0  0  0
 26 24  1  0  0  0  0
 27 29  1  0  0  0  0
 27 26  1  0  0  0  0
 28 27  2  0  0  0  0
 30 31  1  0  0  0  0
 31 29  1  0  0  0  0
 32 33  1  0  0  0  0
 33 34  1  0  0  0  0
 34 35  1  0  0  0  0
 35 36  1  0  0  0  0
 36 45  1  0  0  0  0
 37 47  2  0  0  0  0
 38 49  2  0  0  0  0
 40 39  1  0  0  0  0
 41 46  2  0  0  0  0
 41 40  1  0  0  0  0
 42 41  1  0  0  0  0
 43 42  2  0  0  0  0
 43 38  1  0  0  0  0
 44 37  1  0  0  0  0
 44 42  1  0  0  0  0
 45 38  1  0  0  0  0
 45 48  1  0  0  0  0
 47 46  1  0  0  0  0
 48 50  2  0  0  0  0
 49 50  1  0  0  0  0
 49 40  1  0  0  0  0
M  END
>  <MODEL>
6

>  <REMARK>
 VINA RESULT:      -7.6      2.145      7.227
  Name = 
  16 active torsions:
  status: ('A' for Active; 'I' for Inactive)
    1  A    between atoms: N_10  and  C_40
    2  A    between atoms: C_11  and  C_19
    3  A    between atoms: C_15  and  C_25
    4  A    between atoms: C_15  and  C_28
    5  A    between atoms: C_16  and  C_20
    6  A    between atoms: C_16  and  N_38
    7  A    between atoms: O_18  and  C_24
    8  A    between atoms: O_18  and  C_44
    9  A    between atoms: C_19  and  C_34
   10  A    between atoms: C_20  and  O_31
   11  A    between atoms: C_23  and  C_47
   12  A    between atoms: C_24  and  C_29
   13  A    between atoms: C_28  and  O_31
   14  A    between atoms: C_34  and  C_49
   15  A    between atoms: C_35  and  N_36
   16  A    between atoms: C_35  and  C_47
                            x       y       z     vdW  Elec       q    Type
                         _______ _______ _______ _____ _____    ______ ____

>  <TORSDO>
F 16

$$$$
=
 OpenBabel11042413223D

 50 57  0  0  1  0  0  0  0  0999 V2000
  188.1450  176.4760  138.0440 C   0  0  0  0  0  2  0  0  0  0  0  0
  189.5160  177.1440  138.0510 C   0  0  1  0  0  0  0  0  0  0  0  0
  188.9580  176.5140  136.7560 C   0  0  1  0  0  0  0  0  0  0  0  0
  189.3600  178.6400  138.2690 C   0  0  0  0  0  1  0  0  0  0  0  0
  192.3190  173.2180  135.1410 C   0  0  0  0  0  0  0  0  0  0  0  0
  191.0690  173.7300  135.6930 C   0  0  0  0  0  0  0  0  0  0  0  0
  192.9540  175.6800  134.9130 C   0  0  0  0  0  3  0  0  0  0  0  0
  191.8370  176.0430  135.4870 N   0  0  0  0  0  0  0  0  0  0  0  0
  189.9570  173.0520  136.0210 N   0  0  0  0  0  0  0  0  0  0  0  0
  192.5770  171.9860  135.1510 O   0  0  0  0  0  0  0  0  0  0  0  0
  190.8670  175.0640  135.8710 C   0  0  0  0  0  0  0  0  0  0  0  0
  189.6210  175.2690  136.3360 N   0  0  0  0  0  0  0  0  0  0  0  0
  189.0880  174.0220  136.4170 C   0  0  0  0  0  3  0  0  0  0  0  0
  193.3180  174.2250  134.6150 C   0  0  0  0  0  2  0  0  0  0  0  0
  188.5490  177.4760  135.6150 C   0  0  0  0  0  2  0  0  0  0  0  0
  186.1890  176.9620  135.4910 C   0  0  2  0  0  3  0  0  0  0  0  0
  186.4270  178.0990  134.5940 N   0  0  0  0  0  2  0  0  0  0  0  0
  187.4120  177.0040  134.7100 C   0  0  1  0  0  3  0  0  0  0  0  0
  185.1440  176.0410  134.8670 C   0  0  0  0  0  2  0  0  0  0  0  0
  185.2040  174.6450  135.4980 C   0  0  0  0  0  2  0  0  0  0  0  0
  183.8050  173.6690  137.3290 C   0  0  0  0  0  2  0  0  0  0  0  0
  183.3720  175.1170  137.1410 C   0  0  2  0  0  3  0  0  0  0  0  0
  184.8230  174.7230  136.9700 C   0  0  2  0  0  3  0  0  0  0  0  0
  183.2680  175.7580  138.4390 N   0  0  0  0  0  2  0  0  0  0  0  0
  180.9750  176.2130  138.4410 O   0  0  0  0  0  0  0  0  0  0  0  0
  182.1260  176.4940  138.8720 C   0  0  0  0  0  0  0  0  0  0  0  0
  182.3220  177.6030  139.8110 C   0  0  0  0  0  0  0  0  0  0  0  0
  181.3610  178.3630  140.1310 O   0  0  0  0  0  0  0  0  0  0  0  0
  183.6020  177.8080  140.3280 O   0  0  0  0  0  0  0  0  0  0  0  0
  185.7810  178.7890  140.6490 C   0  0  0  0  0  1  0  0  0  0  0  0
  184.4770  178.8370  139.8680 C   0  0  0  0  0  2  0  0  0  0  0  0
  190.4630  176.3430  138.9390 C   0  0  0  0  0  2  0  0  0  0  0  0
  190.4770  176.8190  140.3820 C   0  0  0  0  0  2  0  0  0  0  0  0
  191.7700  177.2020  140.7770 O   0  0  0  0  0  0  0  0  0  0  0  0
  191.6060  177.6240  142.1110 C   0  0  0  0  0  2  0  0  0  0  0  0
  190.8500  176.5850  142.9430 C   0  0  0  0  0  2  0  0  0  0  0  0
  184.5280  178.5490  144.9610 N   0  0  0  0  0  0  0  0  0  0  0  0
  189.2830  177.4850  144.7030 C   0  0  0  0  0  0  0  0  0  0  0  0
  188.1460  176.9790  148.1550 C   0  0  0  0  0  1  0  0  0  0  0  0
  188.1670  177.6420  146.8620 N   0  0  0  0  0  0  0  0  0  0  0  0
  186.9330  178.0020  146.2090 C   0  0  0  0  0  0  0  0  0  0  0  0
  186.8450  177.9940  144.7920 C   0  0  0  0  0  0  0  0  0  0  0  0
  188.0160  177.6010  143.9120 C   0  0  0  0  0  3  0  0  0  0  0  0
  185.6110  178.2570  144.1960 C   0  0  0  0  0  2  0  0  0  0  0  0
  190.4900  177.0940  144.2600 N   0  0  0  0  0  0  0  0  0  0  0  0
  185.8020  178.3250  146.9660 C   0  0  0  0  0  3  0  0  0  0  0  0
  184.6020  178.6090  146.3180 C   0  0  0  0  0  3  0  0  0  0  0  0
  191.2630  176.9840  145.3650 C   0  0  0  0  0  3  0  0  0  0  0  0
  189.3490  177.5980  146.0590 C   0  0  0  0  0  0  0  0  0  0  0  0
  190.5800  177.2710  146.4980 N   0  0  0  0  0  0  0  0  0  0  0  0
  1  2  1  0  0  0  0
  2  4  1  1  0  0  0
  2 32  1  0  0  0  0
  3 15  1  6  0  0  0
  3  1  1  0  0  0  0
  3  2  1  0  0  0  0
  5 10  2  0  0  0  0
  5  6  1  0  0  0  0
  6 11  2  0  0  0  0
  6  9  1  0  0  0  0
  7  8  2  0  0  0  0
  8 11  1  0  0  0  0
  9 13  2  0  0  0  0
 11 12  1  0  0  0  0
 12 13  1  0  0  0  0
 12  3  1  0  0  0  0
 14  7  1  0  0  0  0
 14  5  1  0  0  0  0
 16 19  1  6  0  0  0
 17 18  1  0  0  0  0
 17 16  1  0  0  0  0
 18 16  1  0  0  0  0
 18 15  1  1  0  0  0
 19 20  1  0  0  0  0
 22 21  1  0  0  0  0
 22 24  1  1  0  0  0
 23 20  1  6  0  0  0
 23 22  1  0  0  0  0
 23 21  1  0  0  0  0
 24 26  1  0  0  0  0
 25 26  2  0  0  0  0
 26 27  1  0  0  0  0
 27 28  2  0  0  0  0
 27 29  1  0  0  0  0
 31 29  1  0  0  0  0
 31 30  1  0  0  0  0
 32 33  1  0  0  0  0
 33 34  1  0  0  0  0
 34 35  1  0  0  0  0
 35 36  1  0  0  0  0
 36 45  1  0  0  0  0
 37 47  2  0  0  0  0
 38 49  2  0  0  0  0
 40 39  1  0  0  0  0
 41 40  1  0  0  0  0
 41 46  2  0  0  0  0
 42 41  1  0  0  0  0
 43 38  1  0  0  0  0
 43 42  2  0  0  0  0
 44 42  1  0  0  0  0
 44 37  1  0  0  0  0
 45 38  1  0  0  0  0
 45 48  1  0  0  0  0
 47 46  1  0  0  0  0
 48 50  2  0  0  0  0
 49 50  1  0  0  0  0
 49 40  1  0  0  0  0
M  END
>  <MODEL>
7

>  <REMARK>
 VINA RESULT:      -7.5      1.267      1.706
  Name = 
  16 active torsions:
  status: ('A' for Active; 'I' for Inactive)
    1  A    between atoms: N_10  and  C_40
    2  A    between atoms: C_11  and  C_19
    3  A    between atoms: C_15  and  C_25
    4  A    between atoms: C_15  and  C_28
    5  A    between atoms: C_16  and  C_20
    6  A    between atoms: C_16  and  N_38
    7  A    between atoms: O_18  and  C_24
    8  A    between atoms: O_18  and  C_44
    9  A    between atoms: C_19  and  C_34
   10  A    between atoms: C_20  and  O_31
   11  A    between atoms: C_23  and  C_47
   12  A    between atoms: C_24  and  C_29
   13  A    between atoms: C_28  and  O_31
   14  A    between atoms: C_34  and  C_49
   15  A    between atoms: C_35  and  N_36
   16  A    between atoms: C_35  and  C_47
                            x       y       z     vdW  Elec       q    Type
                         _______ _______ _______ _____ _____    ______ ____

>  <TORSDO>
F 16

$$$$
=
 OpenBabel11042413223D

 50 57  0  0  1  0  0  0  0  0999 V2000
  183.4030  177.4110  140.1110 C   0  0  0  0  0  2  0  0  0  0  0  0
  184.1790  178.6910  139.8200 C   0  0  1  0  0  0  0  0  0  0  0  0
  182.6530  178.7350  140.0500 C   0  0  1  0  0  0  0  0  0  0  0  0
  185.1100  179.0060  140.9800 C   0  0  0  0  0  1  0  0  0  0  0  0
  180.4220  181.0030  136.2230 C   0  0  0  0  0  0  0  0  0  0  0  0
  180.8810  179.9180  137.0840 C   0  0  0  0  0  0  0  0  0  0  0  0
  181.4880  182.5270  137.9700 C   0  0  0  0  0  3  0  0  0  0  0  0
  181.9240  181.4920  138.6380 N   0  0  0  0  0  0  0  0  0  0  0  0
  180.6260  178.6020  136.9850 N   0  0  0  0  0  0  0  0  0  0  0  0
  179.9150  180.7670  135.0940 O   0  0  0  0  0  0  0  0  0  0  0  0
  181.6080  180.1640  138.2080 C   0  0  0  0  0  0  0  0  0  0  0  0
  181.8510  179.0050  138.8460 N   0  0  0  0  0  0  0  0  0  0  0  0
  181.2380  178.0680  138.0770 C   0  0  0  0  0  3  0  0  0  0  0  0
  180.6350  182.4200  136.7060 C   0  0  0  0  0  2  0  0  0  0  0  0
  182.1490  179.3960  141.3560 C   0  0  0  0  0  2  0  0  0  0  0  0
  182.6510  179.5150  143.7190 C   0  0  2  0  0  3  0  0  0  0  0  0
  181.2920  178.9750  143.5970 N   0  0  0  0  0  2  0  0  0  0  0  0
  182.3500  178.5920  142.6400 C   0  0  1  0  0  3  0  0  0  0  0  0
  183.3630  178.8260  144.8790 C   0  0  0  0  0  2  0  0  0  0  0  0
  184.8570  179.1720  144.8830 C   0  0  0  0  0  2  0  0  0  0  0  0
  185.4000  178.0320  147.0440 C   0  0  0  0  0  2  0  0  0  0  0  0
  186.6940  178.6160  146.4930 C   0  0  2  0  0  3  0  0  0  0  0  0
  185.6470  178.0570  145.5560 C   0  0  2  0  0  3  0  0  0  0  0  0
  187.7450  177.6180  146.5810 N   0  0  0  0  0  2  0  0  0  0  0  0
  189.0300  178.5880  148.2770 O   0  0  0  0  0  0  0  0  0  0  0  0
  188.9720  177.8170  147.2800 C   0  0  0  0  0  0  0  0  0  0  0  0
  190.1720  177.1240  146.8010 C   0  0  0  0  0  0  0  0  0  0  0  0
  191.0280  176.6670  147.6140 O   0  0  0  0  0  0  0  0  0  0  0  0
  190.3520  177.0000  145.4230 O   0  0  0  0  0  0  0  0  0  0  0  0
  191.6660  177.4450  143.4510 C   0  0  0  0  0  1  0  0  0  0  0  0
  190.8770  178.0440  144.6040 C   0  0  0  0  0  2  0  0  0  0  0  0
  184.7320  178.6330  138.3990 C   0  0  0  0  0  2  0  0  0  0  0  0
  184.9140  177.2150  137.8840 C   0  0  0  0  0  2  0  0  0  0  0  0
  185.3420  177.2120  136.5460 O   0  0  0  0  0  0  0  0  0  0  0  0
  186.6080  176.5970  136.5970 C   0  0  0  0  0  2  0  0  0  0  0  0
  187.7320  177.6270  136.7350 C   0  0  0  0  0  2  0  0  0  0  0  0
  193.9290  174.6910  135.8020 N   0  0  0  0  0  0  0  0  0  0  0  0
  189.8890  176.7020  137.6590 C   0  0  0  0  0  0  0  0  0  0  0  0
  192.7190  177.4950  139.8560 C   0  0  0  0  0  1  0  0  0  0  0  0
  191.9530  176.6550  138.9510 N   0  0  0  0  0  0  0  0  0  0  0  0
  192.6130  175.9370  137.8900 C   0  0  0  0  0  0  0  0  0  0  0  0
  191.9420  175.7000  136.6610 C   0  0  0  0  0  0  0  0  0  0  0  0
  190.5300  176.1900  136.4050 C   0  0  0  0  0  3  0  0  0  0  0  0
  192.6420  175.0840  135.6230 C   0  0  0  0  0  2  0  0  0  0  0  0
  188.6770  177.2690  137.7850 N   0  0  0  0  0  0  0  0  0  0  0  0
  193.9340  175.5030  138.0470 C   0  0  0  0  0  3  0  0  0  0  0  0
  194.5750  174.8660  136.9860 C   0  0  0  0  0  3  0  0  0  0  0  0
  188.6190  177.7190  139.0600 C   0  0  0  0  0  3  0  0  0  0  0  0
  190.5370  176.8240  138.8510 C   0  0  0  0  0  0  0  0  0  0  0  0
  189.7620  177.4750  139.7410 N   0  0  0  0  0  0  0  0  0  0  0  0
  2  3  1  0  0  0  0
  2  1  1  0  0  0  0
  2  4  1  1  0  0  0
  3  1  1  0  0  0  0
  3 15  1  1  0  0  0
  5 14  1  0  0  0  0
  5  6  1  0  0  0  0
  6 11  2  0  0  0  0
  7  8  2  0  0  0  0
  9  6  1  0  0  0  0
  9 13  2  0  0  0  0
 10  5  2  0  0  0  0
 11  8  1  0  0  0  0
 11 12  1  0  0  0  0
 12  3  1  0  0  0  0
 13 12  1  0  0  0  0
 14  7  1  0  0  0  0
 16 19  1  1  0  0  0
 17 16  1  0  0  0  0
 18 15  1  6  0  0  0
 18 17  1  0  0  0  0
 18 16  1  0  0  0  0
 19 20  1  0  0  0  0
 22 24  1  1  0  0  0
 22 21  1  0  0  0  0
 23 20  1  6  0  0  0
 23 22  1  0  0  0  0
 23 21  1  0  0  0  0
 24 26  1  0  0  0  0
 26 25  2  0  0  0  0
 27 26  1  0  0  0  0
 27 28  2  0  0  0  0
 29 27  1  0  0  0  0
 30 31  1  0  0  0  0
 31 29  1  0  0  0  0
 32  2  1  0  0  0  0
 33 32  1  0  0  0  0
 34 35  1  0  0  0  0
 34 33  1  0  0  0  0
 35 36  1  0  0  0  0
 36 45  1  0  0  0  0
 37 47  2  0  0  0  0
 38 45  1  0  0  0  0
 38 49  2  0  0  0  0
 40 39  1  0  0  0  0
 41 46  2  0  0  0  0
 41 40  1  0  0  0  0
 42 41  1  0  0  0  0
 43 42  2  0  0  0  0
 43 38  1  0  0  0  0
 44 37  1  0  0  0  0
 44 42  1  0  0  0  0
 45 48  1  0  0  0  0
 47 46  1  0  0  0  0
 48 50  2  0  0  0  0
 49 40  1  0  0  0  0
 49 50  1  0  0  0  0
M  END
>  <MODEL>
8

>  <REMARK>
 VINA RESULT:      -7.3      2.767     10.007
  Name = 
  16 active torsions:
  status: ('A' for Active; 'I' for Inactive)
    1  A    between atoms: N_10  and  C_40
    2  A    between atoms: C_11  and  C_19
    3  A    between atoms: C_15  and  C_25
    4  A    between atoms: C_15  and  C_28
    5  A    between atoms: C_16  and  C_20
    6  A    between atoms: C_16  and  N_38
    7  A    between atoms: O_18  and  C_24
    8  A    between atoms: O_18  and  C_44
    9  A    between atoms: C_19  and  C_34
   10  A    between atoms: C_20  and  O_31
   11  A    between atoms: C_23  and  C_47
   12  A    between atoms: C_24  and  C_29
   13  A    between atoms: C_28  and  O_31
   14  A    between atoms: C_34  and  C_49
   15  A    between atoms: C_35  and  N_36
   16  A    between atoms: C_35  and  C_47
                            x       y       z     vdW  Elec       q    Type
                         _______ _______ _______ _____ _____    ______ ____

>  <TORSDO>
F 16

$$$$
=
 OpenBabel11042413223D

 50 57  0  0  1  0  0  0  0  0999 V2000
  190.0730  178.7660  141.6330 C   0  0  0  0  0  2  0  0  0  0  0  0
  189.1790  177.8450  140.8080 C   0  0  1  0  0  0  0  0  0  0  0  0
  190.5430  177.3480  141.3340 C   0  0  1  0  0  0  0  0  0  0  0  0
  187.9200  177.5110  141.5920 C   0  0  0  0  0  1  0  0  0  0  0  0
  192.9800  176.0520  137.1930 C   0  0  0  0  0  0  0  0  0  0  0  0
  192.7160  176.7070  138.4700 C   0  0  0  0  0  0  0  0  0  0  0  0
  190.7140  174.9370  137.5640 C   0  0  0  0  0  3  0  0  0  0  0  0
  190.5310  175.6250  138.6600 N   0  0  0  0  0  0  0  0  0  0  0  0
  193.5330  177.4870  139.1980 N   0  0  0  0  0  0  0  0  0  0  0  0
  193.9730  176.3750  136.4900 O   0  0  0  0  0  0  0  0  0  0  0  0
  191.5460  176.5130  139.1370 C   0  0  0  0  0  0  0  0  0  0  0  0
  191.5810  177.1810  140.3050 N   0  0  0  0  0  0  0  0  0  0  0  0
  192.8070  177.7650  140.3160 C   0  0  0  0  0  3  0  0  0  0  0  0
  191.9840  175.0190  136.7160 C   0  0  0  0  0  2  0  0  0  0  0  0
  190.5270  176.2790  142.4540 C   0  0  0  0  0  2  0  0  0  0  0  0
  190.7870  176.2900  144.8590 C   0  0  2  0  0  3  0  0  0  0  0  0
  191.6530  175.2250  144.3400 N   0  0  0  0  0  2  0  0  0  0  0  0
  191.4990  176.5020  143.6120 C   0  0  1  0  0  3  0  0  0  0  0  0
  191.4790  176.9710  146.0350 C   0  0  0  0  0  2  0  0  0  0  0  0
  190.6570  176.8070  147.3190 C   0  0  0  0  0  2  0  0  0  0  0  0
  189.1130  178.2690  148.6380 C   0  0  0  0  0  2  0  0  0  0  0  0
  188.2860  177.1270  148.0640 C   0  0  2  0  0  3  0  0  0  0  0  0
  189.4340  177.7140  147.2730 C   0  0  2  0  0  3  0  0  0  0  0  0
  187.0680  177.6620  147.4830 N   0  0  0  0  0  2  0  0  0  0  0  0
  187.2670  176.7740  145.3300 O   0  0  0  0  0  0  0  0  0  0  0  0
  186.7890  177.6630  146.0850 C   0  0  0  0  0  0  0  0  0  0  0  0
  185.9530  178.7370  145.5380 C   0  0  0  0  0  0  0  0  0  0  0  0
  185.6460  179.7450  146.2390 O   0  0  0  0  0  0  0  0  0  0  0  0
  185.4900  178.6050  144.2270 O   0  0  0  0  0  0  0  0  0  0  0  0
  183.0990  178.8630  144.3930 C   0  0  0  0  0  1  0  0  0  0  0  0
  184.3750  179.3330  143.7140 C   0  0  0  0  0  2  0  0  0  0  0  0
  189.0650  178.3910  139.3890 C   0  0  0  0  0  2  0  0  0  0  0  0
  187.8510  177.8670  138.6410 C   0  0  0  0  0  2  0  0  0  0  0  0
  188.0820  177.8380  137.2550 O   0  0  0  0  0  0  0  0  0  0  0  0
  186.7910  177.9130  136.6950 C   0  0  0  0  0  2  0  0  0  0  0  0
  185.8870  176.7900  137.2070 C   0  0  0  0  0  2  0  0  0  0  0  0
  180.9240  179.2080  141.3790 N   0  0  0  0  0  0  0  0  0  0  0  0
  183.4920  177.4690  137.6120 C   0  0  0  0  0  0  0  0  0  0  0  0
  180.7810  179.5770  136.3190 C   0  0  0  0  0  1  0  0  0  0  0  0
  181.3820  178.6280  137.2400 N   0  0  0  0  0  0  0  0  0  0  0  0
  181.2030  178.7800  138.6620 C   0  0  1  0  0  3  0  0  0  0  0  0
  182.2270  178.3770  139.5590 C   0  0  0  0  0  0  0  0  0  0  0  0
  183.5390  177.7880  139.0760 C   0  0  0  0  0  3  0  0  0  0  0  0
  182.0610  178.6240  140.9220 C   0  0  0  0  0  3  0  0  0  0  0  0
  184.4910  177.0020  136.8450 N   0  0  0  0  0  0  0  0  0  0  0  0
  180.0370  179.3640  139.1690 C   0  0  0  0  0  3  0  0  0  0  0  0
  179.9110  179.5600  140.5420 C   0  0  0  0  0  3  0  0  0  0  0  0
  184.0220  177.0390  135.5760 C   0  0  0  0  0  3  0  0  0  0  0  0
  182.4460  177.7830  136.7970 C   0  0  0  0  0  0  0  0  0  0  0  0
  182.7650  177.5370  135.5110 N   0  0  0  0  0  0  0  0  0  0  0  0
  2  3  1  0  0  0  0
  2  4  1  1  0  0  0
  2  1  1  0  0  0  0
  3  1  1  0  0  0  0
  3 15  1  1  0  0  0
  5  6  1  0  0  0  0
  6 11  2  0  0  0  0
  6  9  1  0  0  0  0
  7  8  2  0  0  0  0
  8 11  1  0  0  0  0
  9 13  2  0  0  0  0
 10  5  2  0  0  0  0
 11 12  1  0  0  0  0
 12 13  1  0  0  0  0
 12  3  1  0  0  0  0
 14  5  1  0  0  0  0
 14  7  1  0  0  0  0
 16 19  1  1  0  0  0
 17 16  1  0  0  0  0
 18 15  1  6  0  0  0
 18 17  1  0  0  0  0
 18 16  1  0  0  0  0
 19 20  1  0  0  0  0
 22 24  1  6  0  0  0
 22 21  1  0  0  0  0
 23 20  1  1  0  0  0
 23 22  1  0  0  0  0
 23 21  1  0  0  0  0
 25 26  2  0  0  0  0
 26 24  1  0  0  0  0
 27 26  1  0  0  0  0
 27 28  2  0  0  0  0
 29 27  1  0  0  0  0
 31 29  1  0  0  0  0
 31 30  1  0  0  0  0
 32  2  1  0  0  0  0
 33 32  1  0  0  0  0
 34 33  1  0  0  0  0
 35 36  1  0  0  0  0
 35 34  1  0  0  0  0
 38 43  1  0  0  0  0
 39 40  1  0  0  0  0
 40 41  1  0  0  0  0
 41 46  1  6  0  0  0
 41 42  1  0  0  0  0
 42 44  1  0  0  0  0
 43 42  2  0  0  0  0
 44 37  2  0  0  0  0
 45 36  1  0  0  0  0
 45 38  1  0  0  0  0
 46 47  2  0  0  0  0
 47 37  1  0  0  0  0
 48 45  1  0  0  0  0
 49 40  1  0  0  0  0
 49 38  2  0  0  0  0
 50 48  2  0  0  0  0
 50 49  1  0  0  0  0
M  END
>  <MODEL>
9

>  <REMARK>
 VINA RESULT:      -7.3      2.245      7.925
  Name = 
  16 active torsions:
  status: ('A' for Active; 'I' for Inactive)
    1  A    between atoms: N_10  and  C_40
    2  A    between atoms: C_11  and  C_19
    3  A    between atoms: C_15  and  C_25
    4  A    between atoms: C_15  and  C_28
    5  A    between atoms: C_16  and  C_20
    6  A    between atoms: C_16  and  N_38
    7  A    between atoms: O_18  and  C_24
    8  A    between atoms: O_18  and  C_44
    9  A    between atoms: C_19  and  C_34
   10  A    between atoms: C_20  and  O_31
   11  A    between atoms: C_23  and  C_47
   12  A    between atoms: C_24  and  C_29
   13  A    between atoms: C_28  and  O_31
   14  A    between atoms: C_34  and  C_49
   15  A    between atoms: C_35  and  N_36
   16  A    between atoms: C_35  and  C_47
                            x       y       z     vdW  Elec       q    Type
                         _______ _______ _______ _____ _____    ______ ____

>  <TORSDO>
F 16

$$$$
