=
 OpenBabel11032419483D

 27 31  0  0  1  0  0  0  0  0999 V2000
  186.7390  177.9930  146.4920 C   0  0  0  0  0  3  0  0  0  0  0  0
  185.3920  178.3590  146.5160 C   0  0  0  0  0  3  0  0  0  0  0  0
  185.3800  178.4940  144.0940 C   0  0  0  0  0  0  0  0  0  0  0  0
  187.4240  177.8610  145.2740 C   0  0  0  0  0  0  0  0  0  0  0  0
  186.7300  178.1240  144.0800 C   0  0  0  0  0  3  0  0  0  0  0  0
  184.7130  178.6070  145.3220 C   0  0  0  0  0  3  0  0  0  0  0  0
  190.9840  177.0380  144.0980 C   0  0  0  0  0  0  0  0  0  0  0  0
  191.5620  176.7770  145.2990 N   0  0  0  0  0  0  0  0  0  0  0  0
  189.8370  177.6200  141.6120 C   0  0  0  0  0  3  0  0  0  0  0  0
  191.7500  176.9480  142.9320 C   0  0  0  0  0  3  0  0  0  0  0  0
  189.6180  177.4130  144.0280 C   0  0  0  0  0  0  0  0  0  0  0  0
  189.0650  177.7100  142.7720 C   0  0  0  0  0  3  0  0  0  0  0  0
  188.8670  177.4990  145.2280 C   0  0  0  0  0  0  0  0  0  0  0  0
  191.1780  177.2360  141.6910 C   0  0  0  0  0  3  0  0  0  0  0  0
  189.5180  177.2280  146.4410 C   0  0  0  0  0  3  0  0  0  0  0  0
  190.8660  176.8720  146.4600 C   0  0  0  0  0  0  0  0  0  0  0  0
  191.5330  176.5610  147.7520 C   0  0  0  0  0  2  0  0  0  0  0  0
  192.6210  175.6250  147.5290 N   0  0  0  0  0  1  0  0  0  0  0  0
  183.3530  178.2330  141.2240 C   0  0  1  0  0  3  0  0  0  0  0  0
  185.3130  179.2920  141.7060 C   0  0  0  0  0  2  0  0  0  0  0  0
  183.4170  178.3180  142.6330 O   0  0  0  0  0  0  0  0  0  0  0  0
  182.0800  178.8130  140.6670 C   0  0  0  0  0  3  0  0  0  0  0  0
  182.0900  179.5420  139.5390 C   0  0  0  0  0  3  0  0  0  0  0  0
  184.5200  178.9990  140.7180 C   0  0  2  0  0  3  0  0  0  0  0  0
  184.6940  178.7480  142.8600 N   0  0  0  0  0  0  0  0  0  0  0  0
  184.5110  179.6580  139.4520 N   0  0  0  0  0  0  0  0  0  0  0  0
  183.3690  179.8970  138.8740 C   0  0  0  0  0  3  0  0  0  0  0  0
  1  2  1  0  0  0  0
  3  6  1  0  0  0  0
  4  1  2  0  0  0  0
  5  3  2  0  0  0  0
  5  4  1  0  0  0  0
  6  2  2  0  0  0  0
  7  8  2  0  0  0  0
  8 16  1  0  0  0  0
  9 14  1  0  0  0  0
  9 12  2  0  0  0  0
 10  7  1  0  0  0  0
 11  7  1  0  0  0  0
 11 13  2  0  0  0  0
 12 11  1  0  0  0  0
 13  4  1  0  0  0  0
 13 15  1  0  0  0  0
 14 10  2  0  0  0  0
 15 16  2  0  0  0  0
 16 17  1  0  0  0  0
 18 17  1  0  0  0  0
 19 22  1  6  0  0  0
 19 21  1  0  0  0  0
 20 25  1  0  0  0  0
 21 25  1  0  0  0  0
 23 22  2  0  0  0  0
 24 19  1  0  0  0  0
 24 20  1  1  0  0  0
 25  3  1  0  0  0  0
 26 24  1  0  0  0  0
 27 26  2  0  0  0  0
 27 23  1  0  0  0  0
M  END
>  <MODEL>
1

>  <REMARK>
 VINA RESULT:     -10.7      0.000      0.000
  Name = 
  3 active torsions:
  status: ('A' for Active; 'I' for Inactive)
    1  A    between atoms: C_14  and  N_19
    2  A    between atoms: C_15  and  C_18
    3  A    between atoms: C_23  and  C_25
                            x       y       z     vdW  Elec       q    Type
                         _______ _______ _______ _____ _____    ______ ____

>  <TORSDO>
F 3

$$$$
=
 OpenBabel11032419483D

 27 31  0  0  1  0  0  0  0  0999 V2000
  186.4870  178.0740  146.1190 C   0  0  0  0  0  3  0  0  0  0  0  0
  185.2130  178.4730  146.5300 C   0  0  0  0  0  3  0  0  0  0  0  0
  184.4970  178.5850  144.2140 C   0  0  0  0  0  0  0  0  0  0  0  0
  186.7830  177.9150  144.7560 C   0  0  0  0  0  0  0  0  0  0  0  0
  185.7770  178.1840  143.8120 C   0  0  0  0  0  3  0  0  0  0  0  0
  184.2200  178.7250  145.5820 C   0  0  0  0  0  3  0  0  0  0  0  0
  190.4800  176.8890  144.6320 C   0  0  0  0  0  0  0  0  0  0  0  0
  190.6490  176.8230  143.2870 N   0  0  0  0  0  0  0  0  0  0  0  0
  190.1520  176.9670  147.4110 C   0  0  0  0  0  3  0  0  0  0  0  0
  191.5570  176.6010  145.4760 C   0  0  0  0  0  3  0  0  0  0  0  0
  189.2180  177.2360  145.1780 C   0  0  0  0  0  0  0  0  0  0  0  0
  189.0720  177.2590  146.5740 C   0  0  0  0  0  3  0  0  0  0  0  0
  188.1430  177.5200  144.2970 C   0  0  0  0  0  0  0  0  0  0  0  0
  191.3940  176.6410  146.8620 C   0  0  0  0  0  3  0  0  0  0  0  0
  188.3730  177.4260  142.9160 C   0  0  0  0  0  3  0  0  0  0  0  0
  189.6290  177.0730  142.4270 C   0  0  0  0  0  0  0  0  0  0  0  0
  189.8620  177.0050  140.9600 C   0  0  0  0  0  2  0  0  0  0  0  0
  188.7190  177.5630  140.2570 N   0  0  0  0  0  1  0  0  0  0  0  0
  181.4620  178.7560  142.4340 C   0  0  1  0  0  3  0  0  0  0  0  0
  183.6570  178.6250  141.8400 C   0  0  0  0  0  2  0  0  0  0  0  0
  182.2010  179.1580  143.5700 O   0  0  0  0  0  0  0  0  0  0  0  0
  180.4330  179.7770  142.0240 C   0  0  0  0  0  3  0  0  0  0  0  0
  180.2110  180.0500  140.7280 C   0  0  0  0  0  3  0  0  0  0  0  0
  182.4560  178.5770  141.3460 C   0  0  2  0  0  3  0  0  0  0  0  0
  183.4860  178.8430  143.2300 N   0  0  0  0  0  0  0  0  0  0  0  0
  182.1270  178.7680  139.9710 N   0  0  0  0  0  0  0  0  0  0  0  0
  181.0540  179.4420  139.6670 C   0  0  0  0  0  3  0  0  0  0  0  0
  1  2  1  0  0  0  0
  3  6  1  0  0  0  0
  4  1  2  0  0  0  0
  5  3  2  0  0  0  0
  5  4  1  0  0  0  0
  6  2  2  0  0  0  0
  7 11  2  0  0  0  0
  7 10  1  0  0  0  0
  8  7  1  0  0  0  0
 10 14  2  0  0  0  0
 11 12  1  0  0  0  0
 12  9  2  0  0  0  0
 13  4  1  0  0  0  0
 13 11  1  0  0  0  0
 14  9  1  0  0  0  0
 15 13  2  0  0  0  0
 16 15  1  0  0  0  0
 16  8  2  0  0  0  0
 17 16  1  0  0  0  0
 18 17  1  0  0  0  0
 19 22  1  6  0  0  0
 19 21  1  0  0  0  0
 20 25  1  0  0  0  0
 23 22  2  0  0  0  0
 24 20  1  1  0  0  0
 24 19  1  0  0  0  0
 25 21  1  0  0  0  0
 25  3  1  0  0  0  0
 26 24  1  0  0  0  0
 27 26  2  0  0  0  0
 27 23  1  0  0  0  0
M  END
>  <MODEL>
2

>  <REMARK>
 VINA RESULT:     -10.7      1.581      3.267
  Name = 
  3 active torsions:
  status: ('A' for Active; 'I' for Inactive)
    1  A    between atoms: C_14  and  N_19
    2  A    between atoms: C_15  and  C_18
    3  A    between atoms: C_23  and  C_25
                            x       y       z     vdW  Elec       q    Type
                         _______ _______ _______ _____ _____    ______ ____

>  <TORSDO>
F 3

$$$$
=
 OpenBabel11032419483D

 27 31  0  0  1  0  0  0  0  0999 V2000
  187.1030  178.2670  147.0450 C   0  0  0  0  0  3  0  0  0  0  0  0
  185.7740  178.6580  147.2250 C   0  0  0  0  0  3  0  0  0  0  0  0
  185.3330  178.2590  144.8730 C   0  0  0  0  0  0  0  0  0  0  0  0
  187.5650  177.8580  145.7850 C   0  0  0  0  0  0  0  0  0  0  0  0
  186.6670  177.8670  144.7030 C   0  0  0  0  0  3  0  0  0  0  0  0
  184.8910  178.6520  146.1440 C   0  0  0  0  0  3  0  0  0  0  0  0
  190.9460  176.9840  144.1920 C   0  0  0  0  0  0  0  0  0  0  0  0
  191.6500  176.6830  145.3130 N   0  0  0  0  0  0  0  0  0  0  0  0
  189.5360  177.6440  141.8660 C   0  0  0  0  0  3  0  0  0  0  0  0
  191.5710  176.9020  142.9440 C   0  0  0  0  0  3  0  0  0  0  0  0
  189.5900  177.3890  144.2870 C   0  0  0  0  0  0  0  0  0  0  0  0
  188.9040  177.7260  143.1090 C   0  0  0  0  0  3  0  0  0  0  0  0
  188.9840  177.4660  145.5670 C   0  0  0  0  0  0  0  0  0  0  0  0
  190.8670  177.2300  141.7830 C   0  0  0  0  0  3  0  0  0  0  0  0
  189.7630  177.1540  146.6910 C   0  0  0  0  0  3  0  0  0  0  0  0
  191.0950  176.7690  146.5480 C   0  0  0  0  0  0  0  0  0  0  0  0
  191.8980  176.4150  147.7490 C   0  0  0  0  0  2  0  0  0  0  0  0
  192.8080  175.3300  147.4270 N   0  0  0  0  0  1  0  0  0  0  0  0
  183.9010  178.5970  141.6720 C   0  0  1  0  0  3  0  0  0  0  0  0
  183.1020  178.7260  143.8020 C   0  0  0  0  0  2  0  0  0  0  0  0
  184.8520  177.9440  142.4880 O   0  0  0  0  0  0  0  0  0  0  0  0
  183.4220  177.7320  140.5360 C   0  0  0  0  0  3  0  0  0  0  0  0
  182.1310  177.7290  140.1680 C   0  0  0  0  0  3  0  0  0  0  0  0
  182.7630  178.9330  142.5640 C   0  0  2  0  0  3  0  0  0  0  0  0
  184.4370  178.2500  143.7530 N   0  0  0  0  0  0  0  0  0  0  0  0
  181.4210  179.0310  142.0880 N   0  0  0  0  0  0  0  0  0  0  0  0
  181.1170  178.4870  140.9450 C   0  0  0  0  0  3  0  0  0  0  0  0
  1  2  1  0  0  0  0
  3  6  1  0  0  0  0
  4  1  2  0  0  0  0
  5  3  2  0  0  0  0
  5  4  1  0  0  0  0
  6  2  2  0  0  0  0
  7 11  1  0  0  0  0
  7  8  2  0  0  0  0
  8 16  1  0  0  0  0
  9 12  2  0  0  0  0
 10  7  1  0  0  0  0
 11 13  2  0  0  0  0
 12 11  1  0  0  0  0
 13  4  1  0  0  0  0
 13 15  1  0  0  0  0
 14  9  1  0  0  0  0
 14 10  2  0  0  0  0
 16 15  2  0  0  0  0
 16 17  1  0  0  0  0
 18 17  1  0  0  0  0
 19 22  1  6  0  0  0
 19 21  1  0  0  0  0
 19 24  1  0  0  0  0
 21 25  1  0  0  0  0
 23 22  2  0  0  0  0
 23 27  1  0  0  0  0
 24 20  1  1  0  0  0
 25 20  1  0  0  0  0
 25  3  1  0  0  0  0
 26 24  1  0  0  0  0
 27 26  2  0  0  0  0
M  END
>  <MODEL>
3

>  <REMARK>
 VINA RESULT:     -10.6      1.236      1.484
  Name = 
  3 active torsions:
  status: ('A' for Active; 'I' for Inactive)
    1  A    between atoms: C_14  and  N_19
    2  A    between atoms: C_15  and  C_18
    3  A    between atoms: C_23  and  C_25
                            x       y       z     vdW  Elec       q    Type
                         _______ _______ _______ _____ _____    ______ ____

>  <TORSDO>
F 3

$$$$
=
 OpenBabel11032419483D

 27 31  0  0  1  0  0  0  0  0999 V2000
  190.2210  176.7470  144.2780 C   0  0  0  0  0  3  0  0  0  0  0  0
  191.1380  176.3920  143.2860 C   0  0  0  0  0  3  0  0  0  0  0  0
  189.5630  177.0870  141.5760 C   0  0  0  0  0  0  0  0  0  0  0  0
  188.9700  177.2840  143.9380 C   0  0  0  0  0  0  0  0  0  0  0  0
  188.6510  177.4400  142.5780 C   0  0  0  0  0  3  0  0  0  0  0  0
  190.8120  176.5630  141.9400 C   0  0  0  0  0  3  0  0  0  0  0  0
  185.7650  178.3570  145.7590 C   0  0  0  0  0  0  0  0  0  0  0  0
  186.2110  178.3160  147.0400 N   0  0  0  0  0  0  0  0  0  0  0  0
  184.8000  178.4030  143.1320 C   0  0  0  0  0  3  0  0  0  0  0  0
  184.4410  178.7270  145.5030 C   0  0  0  0  0  3  0  0  0  0  0  0
  186.6310  178.0150  144.6890 C   0  0  0  0  0  0  0  0  0  0  0  0
  186.1240  178.0350  143.3800 C   0  0  0  0  0  3  0  0  0  0  0  0
  187.9680  177.6410  144.9800 C   0  0  0  0  0  0  0  0  0  0  0  0
  183.9600  178.7510  144.1920 C   0  0  0  0  0  3  0  0  0  0  0  0
  188.3710  177.6060  146.3230 C   0  0  0  0  0  3  0  0  0  0  0  0
  187.4810  177.9420  147.3420 C   0  0  0  0  0  0  0  0  0  0  0  0
  187.9330  177.9270  148.7580 C   0  0  0  0  0  2  0  0  0  0  0  0
  189.3450  178.2640  148.8250 N   0  0  0  0  0  1  0  0  0  0  0  0
  189.6650  177.5260  138.0820 C   0  0  1  0  0  3  0  0  0  0  0  0
  188.2450  178.1900  139.7360 C   0  0  0  0  0  2  0  0  0  0  0  0
  189.9220  176.6800  139.1840 O   0  0  0  0  0  0  0  0  0  0  0  0
  189.3550  176.7590  136.8240 C   0  0  0  0  0  3  0  0  0  0  0  0
  188.3960  177.1750  135.9820 C   0  0  0  0  0  3  0  0  0  0  0  0
  188.4950  178.3530  138.4700 C   0  0  2  0  0  3  0  0  0  0  0  0
  189.2150  177.2650  140.1960 N   0  0  0  0  0  0  0  0  0  0  0  0
  187.5710  178.8670  137.5120 N   0  0  0  0  0  0  0  0  0  0  0  0
  187.5330  178.3340  136.3250 C   0  0  0  0  0  3  0  0  0  0  0  0
  2  1  2  0  0  0  0
  3  6  2  0  0  0  0
  3  5  1  0  0  0  0
  4  1  1  0  0  0  0
  4 13  1  0  0  0  0
  5  4  2  0  0  0  0
  6  2  1  0  0  0  0
  7  8  2  0  0  0  0
  8 16  1  0  0  0  0
  9 12  2  0  0  0  0
  9 14  1  0  0  0  0
 10  7  1  0  0  0  0
 11 13  2  0  0  0  0
 11  7  1  0  0  0  0
 12 11  1  0  0  0  0
 13 15  1  0  0  0  0
 14 10  2  0  0  0  0
 15 16  2  0  0  0  0
 16 17  1  0  0  0  0
 17 18  1  0  0  0  0
 19 22  1  6  0  0  0
 19 24  1  0  0  0  0
 19 21  1  0  0  0  0
 20 25  1  0  0  0  0
 21 25  1  0  0  0  0
 23 27  1  0  0  0  0
 23 22  2  0  0  0  0
 24 20  1  1  0  0  0
 25  3  1  0  0  0  0
 26 24  1  0  0  0  0
 27 26  2  0  0  0  0
M  END
>  <MODEL>
4

>  <REMARK>
 VINA RESULT:     -10.4      3.173      5.392
  Name = 
  3 active torsions:
  status: ('A' for Active; 'I' for Inactive)
    1  A    between atoms: C_14  and  N_19
    2  A    between atoms: C_15  and  C_18
    3  A    between atoms: C_23  and  C_25
                            x       y       z     vdW  Elec       q    Type
                         _______ _______ _______ _____ _____    ______ ____

>  <TORSDO>
F 3

$$$$
=
 OpenBabel11032419483D

 27 31  0  0  1  0  0  0  0  0999 V2000
  184.0190  178.8740  145.2660 C   0  0  0  0  0  3  0  0  0  0  0  0
  184.7760  178.7180  146.4300 C   0  0  0  0  0  3  0  0  0  0  0  0
  186.6400  177.8960  145.1130 C   0  0  0  0  0  0  0  0  0  0  0  0
  184.5610  178.5540  144.0110 C   0  0  0  0  0  0  0  0  0  0  0  0
  185.8740  178.0570  143.9520 C   0  0  0  0  0  3  0  0  0  0  0  0
  186.0820  178.2330  146.3540 C   0  0  0  0  0  3  0  0  0  0  0  0
  181.6800  178.7810  141.4850 C   0  0  0  0  0  0  0  0  0  0  0  0
  182.3970  178.9080  140.3390 N   0  0  0  0  0  0  0  0  0  0  0  0
  180.1720  178.5700  143.8340 C   0  0  0  0  0  3  0  0  0  0  0  0
  180.2830  178.7720  141.4250 C   0  0  0  0  0  3  0  0  0  0  0  0
  182.3420  178.6700  142.7340 C   0  0  0  0  0  0  0  0  0  0  0  0
  181.5670  178.5760  143.9010 C   0  0  0  0  0  3  0  0  0  0  0  0
  183.7600  178.6850  142.7630 C   0  0  0  0  0  0  0  0  0  0  0  0
  179.5310  178.6650  142.5960 C   0  0  0  0  0  3  0  0  0  0  0  0
  184.4490  178.8300  141.5490 C   0  0  0  0  0  3  0  0  0  0  0  0
  183.7530  178.9440  140.3470 C   0  0  0  0  0  0  0  0  0  0  0  0
  184.5000  179.0680  139.0670 C   0  0  0  0  0  2  0  0  0  0  0  0
  185.9040  178.7640  139.2870 N   0  0  0  0  0  1  0  0  0  0  0  0
  190.1400  177.5250  145.2650 C   0  0  1  0  0  3  0  0  0  0  0  0
  188.5100  176.7460  143.8770 C   0  0  0  0  0  2  0  0  0  0  0  0
  188.9250  177.6590  145.9730 O   0  0  0  0  0  0  0  0  0  0  0  0
  191.1750  176.7480  146.0350 C   0  0  0  0  0  3  0  0  0  0  0  0
  191.9730  175.8630  145.4160 C   0  0  0  0  0  3  0  0  0  0  0  0
  189.8010  176.8090  144.0100 C   0  0  2  0  0  3  0  0  0  0  0  0
  187.9810  177.3940  145.0220 N   0  0  0  0  0  0  0  0  0  0  0  0
  190.7360  175.9700  143.3320 N   0  0  0  0  0  0  0  0  0  0  0  0
  191.7790  175.5370  143.9800 C   0  0  0  0  0  3  0  0  0  0  0  0
  1  2  1  0  0  0  0
  3  6  1  0  0  0  0
  4  1  2  0  0  0  0
  5  4  1  0  0  0  0
  5  3  2  0  0  0  0
  6  2  2  0  0  0  0
  7 11  1  0  0  0  0
  8 16  2  0  0  0  0
  8  7  1  0  0  0  0
  9 12  1  0  0  0  0
 10  7  2  0  0  0  0
 10 14  1  0  0  0  0
 11 13  1  0  0  0  0
 11 12  2  0  0  0  0
 13  4  1  0  0  0  0
 14  9  2  0  0  0  0
 15 13  2  0  0  0  0
 16 15  1  0  0  0  0
 17 18  1  0  0  0  0
 17 16  1  0  0  0  0
 19 21  1  0  0  0  0
 19 22  1  1  0  0  0
 20 25  1  0  0  0  0
 23 22  2  0  0  0  0
 24 20  1  1  0  0  0
 24 19  1  0  0  0  0
 25  3  1  0  0  0  0
 25 21  1  0  0  0  0
 26 27  2  0  0  0  0
 26 24  1  0  0  0  0
 27 23  1  0  0  0  0
M  END
>  <MODEL>
5

>  <REMARK>
 VINA RESULT:     -10.3      2.206      8.142
  Name = 
  3 active torsions:
  status: ('A' for Active; 'I' for Inactive)
    1  A    between atoms: C_14  and  N_19
    2  A    between atoms: C_15  and  C_18
    3  A    between atoms: C_23  and  C_25
                            x       y       z     vdW  Elec       q    Type
                         _______ _______ _______ _____ _____    ______ ____

>  <TORSDO>
F 3

$$$$
=
 OpenBabel11032419483D

 27 31  0  0  1  0  0  0  0  0999 V2000
  184.9320  178.6060  145.6620 C   0  0  0  0  0  3  0  0  0  0  0  0
  183.6090  178.9980  145.4420 C   0  0  0  0  0  3  0  0  0  0  0  0
  183.8850  178.6130  143.0630 C   0  0  0  0  0  0  0  0  0  0  0  0
  185.7460  178.2030  144.5920 C   0  0  0  0  0  0  0  0  0  0  0  0
  185.2090  178.2210  143.2930 C   0  0  0  0  0  3  0  0  0  0  0  0
  183.0870  179.0000  144.1480 C   0  0  0  0  0  3  0  0  0  0  0  0
  189.1800  177.4730  146.1450 C   0  0  0  0  0  0  0  0  0  0  0  0
  189.8480  177.0720  145.0330 N   0  0  0  0  0  0  0  0  0  0  0  0
  187.8180  178.2460  148.4650 C   0  0  0  0  0  3  0  0  0  0  0  0
  189.8440  177.4990  147.3740 C   0  0  0  0  0  3  0  0  0  0  0  0
  187.8150  177.8500  146.0620 C   0  0  0  0  0  0  0  0  0  0  0  0
  187.1480  178.2240  147.2390 C   0  0  0  0  0  3  0  0  0  0  0  0
  187.1660  177.8100  144.8010 C   0  0  0  0  0  0  0  0  0  0  0  0
  189.1660  177.8860  148.5320 C   0  0  0  0  0  3  0  0  0  0  0  0
  187.9030  177.3780  143.6880 C   0  0  0  0  0  3  0  0  0  0  0  0
  189.2410  177.0090  143.8210 C   0  0  0  0  0  0  0  0  0  0  0  0
  190.0140  176.5800  142.6250 C   0  0  0  0  0  2  0  0  0  0  0  0
  190.5570  175.2500  142.8430 N   0  0  0  0  0  1  0  0  0  0  0  0
  183.2750  179.2820  139.6580 C   0  0  1  0  0  3  0  0  0  0  0  0
  181.9760  178.6480  141.4200 C   0  0  0  0  0  2  0  0  0  0  0  0
  184.1590  178.7600  140.6300 O   0  0  0  0  0  0  0  0  0  0  0  0
  183.4340  178.6170  138.3160 C   0  0  0  0  0  3  0  0  0  0  0  0
  182.3640  178.3230  137.5610 C   0  0  0  0  0  3  0  0  0  0  0  0
  181.9070  179.0390  140.1820 C   0  0  2  0  0  3  0  0  0  0  0  0
  183.3600  178.6130  141.7280 N   0  0  0  0  0  0  0  0  0  0  0  0
  180.7830  178.8490  139.3240 N   0  0  0  0  0  0  0  0  0  0  0  0
  180.9870  178.5350  138.0770 C   0  0  0  0  0  3  0  0  0  0  0  0
  2  1  1  0  0  0  0
  3  5  2  0  0  0  0
  3  6  1  0  0  0  0
  4 13  1  0  0  0  0
  4  1  2  0  0  0  0
  5  4  1  0  0  0  0
  6  2  2  0  0  0  0
  7 10  1  0  0  0  0
  8  7  1  0  0  0  0
  9 14  1  0  0  0  0
 10 14  2  0  0  0  0
 11  7  2  0  0  0  0
 11 12  1  0  0  0  0
 12  9  2  0  0  0  0
 13 11  1  0  0  0  0
 15 16  1  0  0  0  0
 15 13  2  0  0  0  0
 16  8  2  0  0  0  0
 17 18  1  0  0  0  0
 17 16  1  0  0  0  0
 19 22  1  6  0  0  0
 19 24  1  0  0  0  0
 19 21  1  0  0  0  0
 20 25  1  0  0  0  0
 21 25  1  0  0  0  0
 23 27  1  0  0  0  0
 23 22  2  0  0  0  0
 24 20  1  6  0  0  0
 25  3  1  0  0  0  0
 26 24  1  0  0  0  0
 27 26  2  0  0  0  0
M  END
>  <MODEL>
6

>  <REMARK>
 VINA RESULT:     -10.2      1.682      3.523
  Name = 
  3 active torsions:
  status: ('A' for Active; 'I' for Inactive)
    1  A    between atoms: C_14  and  N_19
    2  A    between atoms: C_15  and  C_18
    3  A    between atoms: C_23  and  C_25
                            x       y       z     vdW  Elec       q    Type
                         _______ _______ _______ _____ _____    ______ ____

>  <TORSDO>
F 3

$$$$
=
 OpenBabel11032419483D

 27 31  0  0  1  0  0  0  0  0999 V2000
  189.8450  176.7000  144.1030 C   0  0  0  0  0  3  0  0  0  0  0  0
  190.7890  176.2920  143.1570 C   0  0  0  0  0  3  0  0  0  0  0  0
  189.3550  177.0940  141.3720 C   0  0  0  0  0  0  0  0  0  0  0  0
  188.6510  177.3180  143.7010 C   0  0  0  0  0  0  0  0  0  0  0  0
  188.4150  177.5010  142.3280 C   0  0  0  0  0  3  0  0  0  0  0  0
  190.5470  176.4900  141.7970 C   0  0  0  0  0  3  0  0  0  0  0  0
  186.8110  178.2530  146.9380 C   0  0  0  0  0  0  0  0  0  0  0  0
  185.5730  178.4880  146.4320 N   0  0  0  0  0  0  0  0  0  0  0  0
  189.3630  177.8250  148.0050 C   0  0  0  0  0  3  0  0  0  0  0  0
  187.0330  178.4010  148.3100 C   0  0  0  0  0  3  0  0  0  0  0  0
  187.8740  177.8720  146.0800 C   0  0  0  0  0  0  0  0  0  0  0  0
  189.1480  177.6730  146.6340 C   0  0  0  0  0  3  0  0  0  0  0  0
  187.6190  177.7330  144.6910 C   0  0  0  0  0  0  0  0  0  0  0  0
  188.3060  178.1860  148.8430 C   0  0  0  0  0  3  0  0  0  0  0  0
  186.3230  177.9980  144.2230 C   0  0  0  0  0  3  0  0  0  0  0  0
  185.3130  178.3790  145.1050 C   0  0  0  0  0  0  0  0  0  0  0  0
  183.9390  178.6290  144.5950 C   0  0  0  0  0  2  0  0  0  0  0  0
  183.9480  178.6280  143.1420 N   0  0  0  0  0  1  0  0  0  0  0  0
  189.6410  177.8530  137.9440 C   0  0  1  0  0  3  0  0  0  0  0  0
  187.9600  177.9900  139.4760 C   0  0  0  0  0  2  0  0  0  0  0  0
  190.0120  177.0040  139.0110 O   0  0  0  0  0  0  0  0  0  0  0  0
  189.6500  177.1470  136.6140 C   0  0  0  0  0  3  0  0  0  0  0  0
  188.6920  177.3820  135.7030 C   0  0  0  0  0  3  0  0  0  0  0  0
  188.2680  178.3220  138.2580 C   0  0  2  0  0  3  0  0  0  0  0  0
  189.0940  177.3010  139.9770 N   0  0  0  0  0  0  0  0  0  0  0  0
  187.3290  178.6710  137.2410 N   0  0  0  0  0  0  0  0  0  0  0  0
  187.5330  178.2530  136.0250 C   0  0  0  0  0  3  0  0  0  0  0  0
  2  1  2  0  0  0  0
  3  6  2  0  0  0  0
  3  5  1  0  0  0  0
  4  1  1  0  0  0  0
  4 13  1  0  0  0  0
  5  4  2  0  0  0  0
  6  2  1  0  0  0  0
  7 10  1  0  0  0  0
  8  7  1  0  0  0  0
  9 14  1  0  0  0  0
 10 14  2  0  0  0  0
 11 12  1  0  0  0  0
 11  7  2  0  0  0  0
 12  9  2  0  0  0  0
 13 11  1  0  0  0  0
 15 13  2  0  0  0  0
 15 16  1  0  0  0  0
 16  8  2  0  0  0  0
 17 16  1  0  0  0  0
 18 17  1  0  0  0  0
 19 22  1  6  0  0  0
 19 24  1  0  0  0  0
 19 21  1  0  0  0  0
 20 25  1  0  0  0  0
 21 25  1  0  0  0  0
 23 27  1  0  0  0  0
 23 22  2  0  0  0  0
 24 20  1  6  0  0  0
 25  3  1  0  0  0  0
 26 24  1  0  0  0  0
 27 26  2  0  0  0  0
M  END
>  <MODEL>
7

>  <REMARK>
 VINA RESULT:     -10.0      3.321      6.008
  Name = 
  3 active torsions:
  status: ('A' for Active; 'I' for Inactive)
    1  A    between atoms: C_14  and  N_19
    2  A    between atoms: C_15  and  C_18
    3  A    between atoms: C_23  and  C_25
                            x       y       z     vdW  Elec       q    Type
                         _______ _______ _______ _____ _____    ______ ____

>  <TORSDO>
F 3

$$$$
=
 OpenBabel11032419483D

 27 31  0  0  1  0  0  0  0  0999 V2000
  187.1620  178.3440  142.2010 C   0  0  0  0  0  3  0  0  0  0  0  0
  186.9160  178.5120  140.8360 C   0  0  0  0  0  3  0  0  0  0  0  0
  189.0700  177.5200  140.3220 C   0  0  0  0  0  0  0  0  0  0  0  0
  188.3550  177.7550  142.6470 C   0  0  0  0  0  0  0  0  0  0  0  0
  189.3060  177.3550  141.6920 C   0  0  0  0  0  3  0  0  0  0  0  0
  187.8650  178.1000  139.8990 C   0  0  0  0  0  3  0  0  0  0  0  0
  188.0970  177.6920  146.4760 C   0  0  0  0  0  0  0  0  0  0  0  0
  189.3540  177.2780  146.7780 N   0  0  0  0  0  0  0  0  0  0  0  0
  185.4830  178.4990  145.8850 C   0  0  0  0  0  3  0  0  0  0  0  0
  187.1880  177.9420  147.5080 C   0  0  0  0  0  3  0  0  0  0  0  0
  187.7050  177.8580  145.1230 C   0  0  0  0  0  0  0  0  0  0  0  0
  186.3860  178.2540  144.8480 C   0  0  0  0  0  3  0  0  0  0  0  0
  188.6480  177.5940  144.0970 C   0  0  0  0  0  0  0  0  0  0  0  0
  185.8840  178.3470  147.2140 C   0  0  0  0  0  3  0  0  0  0  0  0
  189.9290  177.1580  144.4680 C   0  0  0  0  0  3  0  0  0  0  0  0
  190.2650  177.0020  145.8110 C   0  0  0  0  0  0  0  0  0  0  0  0
  191.6370  176.5660  146.1870 C   0  0  0  0  0  2  0  0  0  0  0  0
  191.8430  176.7690  147.6110 N   0  0  0  0  0  1  0  0  0  0  0  0
  190.9790  175.6580  138.0190 C   0  0  1  0  0  3  0  0  0  0  0  0
  191.4480  177.3100  139.5170 C   0  0  0  0  0  2  0  0  0  0  0  0
  189.7460  176.2810  138.3150 O   0  0  0  0  0  0  0  0  0  0  0  0
  191.2650  175.6170  136.5410 C   0  0  0  0  0  3  0  0  0  0  0  0
  192.5030  175.8400  136.0720 C   0  0  0  0  0  3  0  0  0  0  0  0
  192.0160  176.4640  138.7110 C   0  0  2  0  0  3  0  0  0  0  0  0
  190.0540  177.0940  139.3690 N   0  0  0  0  0  0  0  0  0  0  0  0
  193.3540  176.5690  138.2240 N   0  0  0  0  0  0  0  0  0  0  0  0
  193.6000  176.2520  136.9850 C   0  0  0  0  0  3  0  0  0  0  0  0
  1  4  1  0  0  0  0
  2  1  2  0  0  0  0
  3  5  1  0  0  0  0
  4 13  1  0  0  0  0
  5  4  2  0  0  0  0
  6  3  2  0  0  0  0
  6  2  1  0  0  0  0
  7  8  1  0  0  0  0
  7 10  1  0  0  0  0
  9 14  1  0  0  0  0
 11  7  2  0  0  0  0
 12 11  1  0  0  0  0
 12  9  2  0  0  0  0
 13 15  2  0  0  0  0
 13 11  1  0  0  0  0
 14 10  2  0  0  0  0
 15 16  1  0  0  0  0
 16 17  1  0  0  0  0
 16  8  2  0  0  0  0
 17 18  1  0  0  0  0
 19 22  1  6  0  0  0
 19 21  1  0  0  0  0
 19 24  1  0  0  0  0
 21 25  1  0  0  0  0
 23 22  2  0  0  0  0
 23 27  1  0  0  0  0
 24 20  1  6  0  0  0
 25 20  1  0  0  0  0
 25  3  1  0  0  0  0
 26 24  1  0  0  0  0
 27 26  2  0  0  0  0
M  END
>  <MODEL>
8

>  <REMARK>
 VINA RESULT:      -9.8      3.405      6.334
  Name = 
  3 active torsions:
  status: ('A' for Active; 'I' for Inactive)
    1  A    between atoms: C_14  and  N_19
    2  A    between atoms: C_15  and  C_18
    3  A    between atoms: C_23  and  C_25
                            x       y       z     vdW  Elec       q    Type
                         _______ _______ _______ _____ _____    ______ ____

>  <TORSDO>
F 3

$$$$
=
 OpenBabel11032419483D

 27 31  0  0  1  0  0  0  0  0999 V2000
  191.6710  177.4480  142.5520 C   0  0  0  0  0  3  0  0  0  0  0  0
  192.0720  177.4740  141.2140 C   0  0  0  0  0  3  0  0  0  0  0  0
  189.7610  177.2500  140.5110 C   0  0  0  0  0  0  0  0  0  0  0  0
  190.3130  177.3340  142.8900 C   0  0  0  0  0  0  0  0  0  0  0  0
  189.3680  177.2270  141.8550 C   0  0  0  0  0  3  0  0  0  0  0  0
  191.1210  177.3770  140.1970 C   0  0  0  0  0  3  0  0  0  0  0  0
  188.2210  177.4440  146.1060 C   0  0  0  0  0  0  0  0  0  0  0  0
  189.1910  177.1620  147.0140 N   0  0  0  0  0  0  0  0  0  0  0  0
  186.1890  177.9760  144.2570 C   0  0  0  0  0  3  0  0  0  0  0  0
  186.9120  177.6610  146.5440 C   0  0  0  0  0  3  0  0  0  0  0  0
  188.5320  177.5040  144.7240 C   0  0  0  0  0  0  0  0  0  0  0  0
  187.4960  177.7620  143.8120 C   0  0  0  0  0  3  0  0  0  0  0  0
  189.8690  177.2750  144.3090 C   0  0  0  0  0  0  0  0  0  0  0  0
  185.8980  177.9290  145.6220 C   0  0  0  0  0  3  0  0  0  0  0  0
  190.8270  176.9780  145.2900 C   0  0  0  0  0  3  0  0  0  0  0  0
  190.4720  176.9220  146.6370 C   0  0  0  0  0  0  0  0  0  0  0  0
  191.5070  176.6330  147.6650 C   0  0  0  0  0  2  0  0  0  0  0  0
  192.4330  175.6340  147.1610 N   0  0  0  0  0  1  0  0  0  0  0  0
  188.1190  176.9430  137.4090 C   0  0  1  0  0  3  0  0  0  0  0  0
  187.6400  177.9930  139.3740 C   0  0  0  0  0  2  0  0  0  0  0  0
  188.9380  176.3370  138.3890 O   0  0  0  0  0  0  0  0  0  0  0  0
  187.2910  175.9410  136.6490 C   0  0  0  0  0  3  0  0  0  0  0  0
  186.0170  176.2080  136.3210 C   0  0  0  0  0  3  0  0  0  0  0  0
  187.2310  177.8770  138.1450 C   0  0  2  0  0  3  0  0  0  0  0  0
  188.7740  177.1480  139.4750 N   0  0  0  0  0  0  0  0  0  0  0  0
  185.9240  178.2140  137.6820 N   0  0  0  0  0  0  0  0  0  0  0  0
  185.3510  177.4460  136.8000 C   0  0  0  0  0  3  0  0  0  0  0  0
  1  4  1  0  0  0  0
  2  1  2  0  0  0  0
  3  5  1  0  0  0  0
  4 13  1  0  0  0  0
  5  4  2  0  0  0  0
  6  3  2  0  0  0  0
  6  2  1  0  0  0  0
  7 10  1  0  0  0  0
  7  8  2  0  0  0  0
  9 14  1  0  0  0  0
 11  7  1  0  0  0  0
 12  9  2  0  0  0  0
 12 11  1  0  0  0  0
 13 11  2  0  0  0  0
 13 15  1  0  0  0  0
 14 10  2  0  0  0  0
 15 16  2  0  0  0  0
 16  8  1  0  0  0  0
 16 17  1  0  0  0  0
 18 17  1  0  0  0  0
 19 22  1  1  0  0  0
 19 24  1  0  0  0  0
 19 21  1  0  0  0  0
 20 25  1  0  0  0  0
 21 25  1  0  0  0  0
 23 22  2  0  0  0  0
 23 27  1  0  0  0  0
 24 20  1  1  0  0  0
 25  3  1  0  0  0  0
 26 24  1  0  0  0  0
 27 26  2  0  0  0  0
M  END
>  <MODEL>
9

>  <REMARK>
 VINA RESULT:      -9.6      2.901      4.850
  Name = 
  3 active torsions:
  status: ('A' for Active; 'I' for Inactive)
    1  A    between atoms: C_14  and  N_19
    2  A    between atoms: C_15  and  C_18
    3  A    between atoms: C_23  and  C_25
                            x       y       z     vdW  Elec       q    Type
                         _______ _______ _______ _____ _____    ______ ____

>  <TORSDO>
F 3

$$$$
