=
 OpenBabel11032420533D

 47 51  0  0  1  0  0  0  0  0999 V2000
  190.0940  176.5810  139.4900 C   0  0  0  0  0  0  0  0  0  0  0  0
  190.7700  176.4320  140.6000 N   0  0  0  0  0  0  0  0  0  0  0  0
  180.8720  176.3490  140.0610 N   0  0  0  0  0  1  0  0  0  0  0  0
  184.9950  178.5980  139.3330 C   0  0  0  0  0  0  0  0  0  0  0  0
  180.9890  177.6610  139.4480 C   0  0  1  0  0  3  0  0  0  0  0  0
  188.3290  177.6740  138.2730 N   0  0  0  0  0  0  0  0  0  0  0  0
  187.0670  178.3510  138.1680 C   0  0  0  0  0  0  0  0  0  0  0  0
  187.0200  178.4420  140.6680 C   0  0  0  0  0  0  0  0  0  0  0  0
  186.2940  178.5990  139.3900 C   0  0  0  0  0  0  0  0  0  0  0  0
  182.8550  178.9450  140.3720 C   0  0  0  0  0  3  0  0  0  0  0  0
  181.6050  178.5860  140.4150 N   0  0  0  0  0  0  0  0  0  0  0  0
  183.0620  177.9050  138.0960 C   0  0  0  0  0  3  0  0  0  0  0  0
  186.6090  178.6670  137.0310 O   0  0  0  0  0  0  0  0  0  0  0  0
  183.7000  178.5250  139.2580 C   0  0  0  0  0  0  0  0  0  0  0  0
  188.9670  177.5330  139.4050 C   0  0  0  0  0  0  0  0  0  0  0  0
  188.5030  178.2440  140.6520 C   0  0  0  0  0  2  0  0  0  0  0  0
  186.4120  178.5010  141.8450 C   0  0  0  0  0  2  0  0  0  0  0  0
  181.7780  177.5400  138.1620 C   0  0  0  0  0  3  0  0  0  0  0  0
  191.6320  177.1210  142.7890 C   0  0  1  0  0  3  0  0  0  0  0  0
  190.4020  178.7680  144.3490 C   0  0  0  0  0  2  0  0  0  0  0  0
  190.4210  176.2070  142.9860 C   0  0  2  0  0  3  0  0  0  0  0  0
  190.4740  177.1730  141.8210 C   0  0  2  0  0  3  0  0  0  0  0  0
  189.3030  176.6650  143.9460 C   0  0  0  0  0  2  0  0  0  0  0  0
  191.7100  178.3640  143.6850 C   0  0  0  0  0  2  0  0  0  0  0  0
  189.7220  177.6400  144.9700 N   0  0  0  0  0  0  0  0  0  0  0  0
  190.5760  177.0180  145.9840 C   0  0  0  0  0  2  0  0  0  0  0  0
  189.7760  176.7400  147.2340 C   0  0  0  0  0  2  0  0  0  0  0  0
  189.1510  178.0260  147.7290 C   0  0  0  0  0  2  0  0  0  0  0  0
  187.7010  177.7790  148.0700 C   0  0  0  0  0  2  0  0  0  0  0  0
  186.8590  177.7900  146.8030 C   0  0  0  0  0  2  0  0  0  0  0  0
  185.6960  178.7700  146.9080 C   0  0  0  0  0  2  0  0  0  0  0  0
  185.1640  179.1380  145.5330 C   0  0  0  0  0  2  0  0  0  0  0  0
  183.7740  179.0410  145.5120 O   0  0  0  0  0  0  0  0  0  0  0  0
  183.4480  178.7100  144.1980 C   0  0  0  0  0  2  0  0  0  0  0  0
  182.0560  179.0510  143.9470 N   0  0  0  0  0  1  0  0  0  0  0  0
  190.4830  175.8040  138.2720 C   0  0  1  0  0  3  0  0  0  0  0  0
  191.3330  176.6010  137.3890 C   0  0  0  0  0  2  0  0  0  0  0  0
  191.9390  175.6250  138.2890 N   0  0  0  0  0  0  0  0  0  0  0  0
  192.2370  174.4360  137.4950 C   0  0  0  0  0  2  0  0  0  0  0  0
  193.3830  174.7260  136.5370 C   0  0  2  0  0  3  0  0  0  0  0  0
  193.4110  173.8030  135.4990 F   0  0  0  0  0  0  0  0  0  0  0  0
  194.6930  174.7940  137.2600 C   0  0  0  0  0  0  0  0  0  0  0  0
  195.5620  175.5470  136.8540 O   0  0  0  0  0  0  0  0  0  0  0  0
  194.9740  173.8760  138.4190 C   0  0  1  0  0  3  0  0  0  0  0  0
  195.2560  172.4680  137.9310 C   0  0  0  0  0  1  0  0  0  0  0  0
  196.1320  174.3820  139.2910 C   0  0  0  0  0  2  0  0  0  0  0  0
  195.7050  175.4230  140.1220 O   0  0  0  0  0  1  0  0  0  0  0  0
  1  2  2  0  0  0  0
  4  9  2  0  0  0  0
  5  3  1  1  0  0  0
  5 11  1  0  0  0  0
  6 15  2  0  0  0  0
  7  6  1  0  0  0  0
  7  9  1  0  0  0  0
  8 17  2  0  0  0  0
  9  8  1  0  0  0  0
 10 11  2  0  0  0  0
 12 18  2  0  0  0  0
 12 14  1  0  0  0  0
 13  7  2  0  0  0  0
 14  4  2  0  0  0  0
 14 10  1  0  0  0  0
 15  1  1  0  0  0  0
 15 16  1  0  0  0  0
 16  8  1  0  0  0  0
 18  5  1  0  0  0  0
 19 21  1  0  0  0  0
 19 24  1  1  0  0  0
 20 25  1  0  0  0  0
 21 23  1  1  0  0  0
 22  2  1  6  0  0  0
 22 19  1  0  0  0  0
 22 21  1  0  0  0  0
 23 25  1  0  0  0  0
 24 20  1  0  0  0  0
 25 26  1  0  0  0  0
 26 27  1  0  0  0  0
 27 28  1  0  0  0  0
 28 29  1  0  0  0  0
 30 31  1  0  0  0  0
 30 29  1  0  0  0  0
 32 31  1  0  0  0  0
 33 32  1  0  0  0  0
 34 33  1  0  0  0  0
 35 34  1  0  0  0  0
 36 38  1  0  0  0  0
 36  1  1  1  0  0  0
 37 36  1  0  0  0  0
 37 38  1  0  0  0  0
 39 38  1  0  0  0  0
 40 41  1  6  0  0  0
 40 42  1  0  0  0  0
 40 39  1  0  0  0  0
 42 44  1  0  0  0  0
 43 42  2  0  0  0  0
 44 45  1  6  0  0  0
 44 46  1  0  0  0  0
 46 47  1  0  0  0  0
M  END
>  <MODEL>
1

>  <REMARK>
 VINA RESULT:      -8.5      0.000      0.000
  Name = 
  17 active torsions:
  status: ('A' for Active; 'I' for Inactive)
    1  A    between atoms: C_2  and  C_10
    2  A    between atoms: C_2  and  C_13
    3  A    between atoms: C_4  and  C_26
    4  A    between atoms: C_4  and  C_33
    5  A    between atoms: C_9  and  C_17
    6  A    between atoms: C_10  and  C_31
    7  A    between atoms: C_13  and  C_27
    8  A    between atoms: C_17  and  C_34
    9  A    between atoms: C_18  and  C_19
   10  A    between atoms: C_18  and  N_46
   11  A    between atoms: C_19  and  C_27
   12  A    between atoms: C_23  and  O_44
   13  A    between atoms: C_24  and  C_36
   14  A    between atoms: C_26  and  C_36
   15  A    between atoms: N_30  and  C_37
   16  A    between atoms: C_31  and  O_44
   17  A    between atoms: C_33  and  N_40
                            x       y       z     vdW  Elec       q    Type
                         _______ _______ _______ _____ _____    ______ ____

>  <TORSDO>
F 17

$$$$
=
 OpenBabel11032420533D

 47 51  0  0  1  0  0  0  0  0999 V2000
  188.4270  177.3960  139.5930 C   0  0  0  0  0  0  0  0  0  0  0  0
  189.4470  177.1120  140.3610 N   0  0  0  0  0  0  0  0  0  0  0  0
  179.4780  176.2670  141.6060 N   0  0  0  0  0  1  0  0  0  0  0  0
  183.3900  178.9250  141.1330 C   0  0  0  0  0  0  0  0  0  0  0  0
  179.4770  177.7200  141.5550 C   0  0  1  0  0  3  0  0  0  0  0  0
  186.4640  178.7420  139.2350 N   0  0  0  0  0  0  0  0  0  0  0  0
  185.2050  179.3090  139.6280 C   0  0  0  0  0  0  0  0  0  0  0  0
  185.6290  178.4130  141.9250 C   0  0  0  0  0  0  0  0  0  0  0  0
  184.6760  179.0020  140.9610 C   0  0  0  0  0  0  0  0  0  0  0  0
  181.4830  178.6770  142.5770 C   0  0  0  0  0  3  0  0  0  0  0  0
  180.2640  178.2380  142.6880 N   0  0  0  0  0  0  0  0  0  0  0  0
  181.2580  178.6280  140.0770 C   0  0  0  0  0  3  0  0  0  0  0  0
  184.5410  180.0100  138.8080 O   0  0  0  0  0  0  0  0  0  0  0  0
  182.1030  178.7910  141.2600 C   0  0  0  0  0  0  0  0  0  0  0  0
  187.3040  178.2190  140.0900 C   0  0  0  0  0  0  0  0  0  0  0  0
  187.0830  178.3490  141.5760 C   0  0  0  0  0  2  0  0  0  0  0  0
  185.2530  177.9620  143.1140 C   0  0  0  0  0  2  0  0  0  0  0  0
  180.0100  178.1710  140.2120 C   0  0  0  0  0  3  0  0  0  0  0  0
  190.9920  177.5420  142.2150 C   0  0  1  0  0  3  0  0  0  0  0  0
  190.2830  178.6610  144.4290 C   0  0  0  0  0  2  0  0  0  0  0  0
  190.0320  176.4180  142.6060 C   0  0  2  0  0  3  0  0  0  0  0  0
  189.5580  177.5670  141.7420 C   0  0  2  0  0  3  0  0  0  0  0  0
  189.3140  176.5060  143.9690 C   0  0  0  0  0  2  0  0  0  0  0  0
  191.2820  178.6050  143.2830 C   0  0  0  0  0  2  0  0  0  0  0  0
  189.9910  177.3430  144.9770 N   0  0  0  0  0  0  0  0  0  0  0  0
  191.2140  176.7070  145.4680 C   0  0  0  0  0  2  0  0  0  0  0  0
  191.2350  176.7220  146.9770 C   0  0  0  0  0  2  0  0  0  0  0  0
  189.8170  176.7530  147.5010 C   0  0  0  0  0  2  0  0  0  0  0  0
  189.6330  177.9690  148.3780 C   0  0  0  0  0  2  0  0  0  0  0  0
  188.1670  178.3720  148.4100 C   0  0  0  0  0  2  0  0  0  0  0  0
  187.3490  177.6040  147.3780 C   0  0  0  0  0  2  0  0  0  0  0  0
  186.7800  178.5400  146.3240 C   0  0  0  0  0  2  0  0  0  0  0  0
  185.6920  179.2420  146.8390 O   0  0  0  0  0  0  0  0  0  0  0  0
  184.5950  178.4000  146.6670 C   0  0  0  0  0  2  0  0  0  0  0  0
  183.6280  179.0430  145.7900 N   0  0  0  0  0  1  0  0  0  0  0  0
  188.4050  176.9150  138.1760 C   0  0  1  0  0  3  0  0  0  0  0  0
  189.3210  177.6930  137.3420 C   0  0  0  0  0  2  0  0  0  0  0  0
  189.7350  176.3890  137.8510 N   0  0  0  0  0  0  0  0  0  0  0  0
  189.5660  175.4300  136.7620 C   0  0  0  0  0  2  0  0  0  0  0  0
  190.8870  175.2370  136.0310 C   0  0  2  0  0  3  0  0  0  0  0  0
  190.8000  174.1990  135.1130 F   0  0  0  0  0  0  0  0  0  0  0  0
  192.0170  175.0370  136.9940 C   0  0  0  0  0  0  0  0  0  0  0  0
  192.0480  174.0280  137.6780 O   0  0  0  0  0  0  0  0  0  0  0  0
  193.0550  176.1090  137.1860 C   0  0  1  0  0  3  0  0  0  0  0  0
  193.0870  176.5700  138.6310 C   0  0  0  0  0  1  0  0  0  0  0  0
  194.4510  175.6510  136.7410 C   0  0  0  0  0  2  0  0  0  0  0  0
  195.0050  176.5640  135.8370 O   0  0  0  0  0  1  0  0  0  0  0  0
  1 15  1  0  0  0  0
  1  2  2  0  0  0  0
  4 14  2  0  0  0  0
  5  3  1  6  0  0  0
  5 11  1  0  0  0  0
  6  7  1  0  0  0  0
  6 15  2  0  0  0  0
  7  9  1  0  0  0  0
  8 17  2  0  0  0  0
  9  4  2  0  0  0  0
  9  8  1  0  0  0  0
 10 11  2  0  0  0  0
 12 18  2  0  0  0  0
 12 14  1  0  0  0  0
 13  7  2  0  0  0  0
 14 10  1  0  0  0  0
 15 16  1  0  0  0  0
 16  8  1  0  0  0  0
 18  5  1  0  0  0  0
 19 21  1  0  0  0  0
 19 24  1  1  0  0  0
 20 25  1  0  0  0  0
 21 23  1  1  0  0  0
 22  2  1  6  0  0  0
 22 19  1  0  0  0  0
 22 21  1  0  0  0  0
 23 25  1  0  0  0  0
 24 20  1  0  0  0  0
 25 26  1  0  0  0  0
 26 27  1  0  0  0  0
 27 28  1  0  0  0  0
 28 29  1  0  0  0  0
 29 30  1  0  0  0  0
 31 30  1  0  0  0  0
 32 33  1  0  0  0  0
 32 31  1  0  0  0  0
 34 33  1  0  0  0  0
 35 34  1  0  0  0  0
 36  1  1  1  0  0  0
 37 38  1  0  0  0  0
 37 36  1  0  0  0  0
 38 36  1  0  0  0  0
 39 38  1  0  0  0  0
 40 41  1  6  0  0  0
 40 39  1  0  0  0  0
 40 42  1  0  0  0  0
 42 44  1  0  0  0  0
 42 43  2  0  0  0  0
 44 45  1  1  0  0  0
 46 44  1  0  0  0  0
 47 46  1  0  0  0  0
M  END
>  <MODEL>
2

>  <REMARK>
 VINA RESULT:      -8.3      1.827      2.382
  Name = 
  17 active torsions:
  status: ('A' for Active; 'I' for Inactive)
    1  A    between atoms: C_2  and  C_10
    2  A    between atoms: C_2  and  C_13
    3  A    between atoms: C_4  and  C_26
    4  A    between atoms: C_4  and  C_33
    5  A    between atoms: C_9  and  C_17
    6  A    between atoms: C_10  and  C_31
    7  A    between atoms: C_13  and  C_27
    8  A    between atoms: C_17  and  C_34
    9  A    between atoms: C_18  and  C_19
   10  A    between atoms: C_18  and  N_46
   11  A    between atoms: C_19  and  C_27
   12  A    between atoms: C_23  and  O_44
   13  A    between atoms: C_24  and  C_36
   14  A    between atoms: C_26  and  C_36
   15  A    between atoms: N_30  and  C_37
   16  A    between atoms: C_31  and  O_44
   17  A    between atoms: C_33  and  N_40
                            x       y       z     vdW  Elec       q    Type
                         _______ _______ _______ _____ _____    ______ ____

>  <TORSDO>
F 17

$$$$
=
 OpenBabel11032420533D

 47 51  0  0  1  0  0  0  0  0999 V2000
  190.3700  176.8420  139.1120 C   0  0  0  0  0  0  0  0  0  0  0  0
  190.9860  176.7100  140.2590 N   0  0  0  0  0  0  0  0  0  0  0  0
  181.2270  175.7330  139.8790 N   0  0  0  0  0  1  0  0  0  0  0  0
  185.0940  178.3290  138.9310 C   0  0  0  0  0  0  0  0  0  0  0  0
  181.2040  177.0090  139.1830 C   0  0  1  0  0  3  0  0  0  0  0  0
  188.4880  177.6750  137.8650 N   0  0  0  0  0  0  0  0  0  0  0  0
  187.1640  178.2150  137.7430 C   0  0  0  0  0  0  0  0  0  0  0  0
  187.1410  178.4610  140.2330 C   0  0  0  0  0  0  0  0  0  0  0  0
  186.3860  178.4630  138.9620 C   0  0  0  0  0  0  0  0  0  0  0  0
  182.9430  178.5280  139.9890 C   0  0  0  0  0  3  0  0  0  0  0  0
  181.7370  178.0500  140.0780 N   0  0  0  0  0  0  0  0  0  0  0  0
  183.2230  177.3710  137.7780 C   0  0  0  0  0  3  0  0  0  0  0  0
  186.6610  178.4120  136.5980 O   0  0  0  0  0  0  0  0  0  0  0  0
  183.8110  178.1240  138.8860 C   0  0  0  0  0  0  0  0  0  0  0  0
  189.1530  177.6710  138.9910 C   0  0  0  0  0  0  0  0  0  0  0  0
  188.6370  178.4100  140.2000 C   0  0  0  0  0  2  0  0  0  0  0  0
  186.5470  178.5330  141.4160 C   0  0  0  0  0  2  0  0  0  0  0  0
  181.9830  176.8850  137.8910 C   0  0  0  0  0  3  0  0  0  0  0  0
  191.5800  177.2700  142.5700 C   0  0  1  0  0  3  0  0  0  0  0  0
  190.1240  178.7590  144.0950 C   0  0  0  0  0  2  0  0  0  0  0  0
  190.3950  176.3040  142.5730 C   0  0  2  0  0  3  0  0  0  0  0  0
  190.5310  177.3510  141.4880 C   0  0  2  0  0  3  0  0  0  0  0  0
  189.1640  176.6540  143.4340 C   0  0  0  0  0  2  0  0  0  0  0  0
  191.5110  178.4490  143.5510 C   0  0  0  0  0  2  0  0  0  0  0  0
  189.4300  177.5670  144.5610 N   0  0  0  0  0  0  0  0  0  0  0  0
  190.1960  176.9040  145.6170 C   0  0  0  0  0  2  0  0  0  0  0  0
  189.4420  176.9690  146.9230 C   0  0  0  0  0  2  0  0  0  0  0  0
  187.9990  177.3340  146.6530 C   0  0  0  0  0  2  0  0  0  0  0  0
  187.4700  178.1650  147.7980 C   0  0  0  0  0  2  0  0  0  0  0  0
  186.2420  178.9450  147.3520 C   0  0  0  0  0  2  0  0  0  0  0  0
  185.3450  178.1120  146.4450 C   0  0  0  0  0  2  0  0  0  0  0  0
  184.9700  178.8820  145.1890 C   0  0  0  0  0  2  0  0  0  0  0  0
  183.6580  179.3450  145.2800 O   0  0  0  0  0  0  0  0  0  0  0  0
  183.1470  179.2580  143.9870 C   0  0  0  0  0  2  0  0  0  0  0  0
  181.8150  178.6750  144.0350 N   0  0  0  0  0  1  0  0  0  0  0  0
  190.9210  176.1750  137.8910 C   0  0  1  0  0  3  0  0  0  0  0  0
  191.9920  175.2430  138.2390 C   0  0  0  0  0  2  0  0  0  0  0  0
  190.6450  174.7380  137.9920 N   0  0  0  0  0  0  0  0  0  0  0  0
  190.6300  174.2050  136.6320 C   0  0  0  0  0  2  0  0  0  0  0  0
  189.3110  173.4940  136.3670 C   0  0  2  0  0  3  0  0  0  0  0  0
  189.4250  172.6160  135.2970 F   0  0  0  0  0  0  0  0  0  0  0  0
  188.1960  174.4740  136.1690 C   0  0  0  0  0  0  0  0  0  0  0  0
  188.3440  175.4000  135.3890 O   0  0  0  0  0  0  0  0  0  0  0  0
  186.9390  174.3770  136.9910 C   0  0  1  0  0  3  0  0  0  0  0  0
  185.7840  175.0630  136.2850 C   0  0  0  0  0  1  0  0  0  0  0  0
  186.5740  172.9230  137.3220 C   0  0  0  0  0  2  0  0  0  0  0  0
  185.4380  172.8740  138.1380 O   0  0  0  0  0  1  0  0  0  0  0  0
  1  2  2  0  0  0  0
  4  9  2  0  0  0  0
  5  3  1  1  0  0  0
  5 11  1  0  0  0  0
  6 15  2  0  0  0  0
  7  6  1  0  0  0  0
  7  9  1  0  0  0  0
  8 17  2  0  0  0  0
  9  8  1  0  0  0  0
 10 11  2  0  0  0  0
 12 18  2  0  0  0  0
 12 14  1  0  0  0  0
 13  7  2  0  0  0  0
 14  4  2  0  0  0  0
 14 10  1  0  0  0  0
 15  1  1  0  0  0  0
 15 16  1  0  0  0  0
 16  8  1  0  0  0  0
 18  5  1  0  0  0  0
 19 21  1  0  0  0  0
 19 24  1  1  0  0  0
 20 25  1  0  0  0  0
 21 23  1  1  0  0  0
 22  2  1  6  0  0  0
 22 19  1  0  0  0  0
 22 21  1  0  0  0  0
 23 25  1  0  0  0  0
 24 20  1  0  0  0  0
 25 26  1  0  0  0  0
 26 27  1  0  0  0  0
 28 27  1  0  0  0  0
 28 29  1  0  0  0  0
 30 29  1  0  0  0  0
 31 30  1  0  0  0  0
 32 33  1  0  0  0  0
 32 31  1  0  0  0  0
 34 35  1  0  0  0  0
 34 33  1  0  0  0  0
 36 38  1  0  0  0  0
 36 37  1  0  0  0  0
 36  1  1  1  0  0  0
 38 37  1  0  0  0  0
 39 38  1  0  0  0  0
 40 41  1  6  0  0  0
 40 39  1  0  0  0  0
 42 40  1  0  0  0  0
 42 44  1  0  0  0  0
 43 42  2  0  0  0  0
 44 45  1  6  0  0  0
 44 46  1  0  0  0  0
 46 47  1  0  0  0  0
M  END
>  <MODEL>
3

>  <REMARK>
 VINA RESULT:      -8.3      2.199      3.378
  Name = 
  17 active torsions:
  status: ('A' for Active; 'I' for Inactive)
    1  A    between atoms: C_2  and  C_10
    2  A    between atoms: C_2  and  C_13
    3  A    between atoms: C_4  and  C_26
    4  A    between atoms: C_4  and  C_33
    5  A    between atoms: C_9  and  C_17
    6  A    between atoms: C_10  and  C_31
    7  A    between atoms: C_13  and  C_27
    8  A    between atoms: C_17  and  C_34
    9  A    between atoms: C_18  and  C_19
   10  A    between atoms: C_18  and  N_46
   11  A    between atoms: C_19  and  C_27
   12  A    between atoms: C_23  and  O_44
   13  A    between atoms: C_24  and  C_36
   14  A    between atoms: C_26  and  C_36
   15  A    between atoms: N_30  and  C_37
   16  A    between atoms: C_31  and  O_44
   17  A    between atoms: C_33  and  N_40
                            x       y       z     vdW  Elec       q    Type
                         _______ _______ _______ _____ _____    ______ ____

>  <TORSDO>
F 17

$$$$
=
 OpenBabel11032420533D

 47 51  0  0  1  0  0  0  0  0999 V2000
  188.2990  177.3980  139.3330 C   0  0  0  0  0  0  0  0  0  0  0  0
  189.3010  177.0070  140.0770 N   0  0  0  0  0  0  0  0  0  0  0  0
  179.4550  176.2970  141.7800 N   0  0  0  0  0  1  0  0  0  0  0  0
  183.3550  178.9380  141.1420 C   0  0  0  0  0  0  0  0  0  0  0  0
  179.4610  177.7510  141.7450 C   0  0  1  0  0  3  0  0  0  0  0  0
  186.3290  178.7600  139.0900 N   0  0  0  0  0  0  0  0  0  0  0  0
  185.0950  179.3290  139.5510 C   0  0  0  0  0  0  0  0  0  0  0  0
  185.6280  178.4040  141.8140 C   0  0  0  0  0  0  0  0  0  0  0  0
  184.6310  179.0090  140.9060 C   0  0  0  0  0  0  0  0  0  0  0  0
  181.5210  178.6830  142.6760 C   0  0  0  0  0  3  0  0  0  0  0  0
  180.3070  178.2500  142.8430 N   0  0  0  0  0  0  0  0  0  0  0  0
  181.1720  178.6650  140.1900 C   0  0  0  0  0  3  0  0  0  0  0  0
  184.3950  180.0430  138.7740 O   0  0  0  0  0  0  0  0  0  0  0  0
  182.0750  178.8090  141.3310 C   0  0  0  0  0  0  0  0  0  0  0  0
  187.2080  178.2210  139.8950 C   0  0  0  0  0  0  0  0  0  0  0  0
  187.0620  178.3360  141.3920 C   0  0  0  0  0  2  0  0  0  0  0  0
  185.3090  177.9410  143.0150 C   0  0  0  0  0  2  0  0  0  0  0  0
  179.9280  178.2140  140.3820 C   0  0  0  0  0  3  0  0  0  0  0  0
  190.8520  177.6470  141.8640 C   0  0  1  0  0  3  0  0  0  0  0  0
  190.0910  178.3140  144.2390 C   0  0  0  0  0  2  0  0  0  0  0  0
  190.2530  176.2750  142.1810 C   0  0  2  0  0  3  0  0  0  0  0  0
  189.4220  177.3370  141.4930 C   0  0  2  0  0  3  0  0  0  0  0  0
  189.6680  176.0360  143.5880 C   0  0  0  0  0  2  0  0  0  0  0  0
  190.9590  178.6380  143.0320 C   0  0  0  0  0  2  0  0  0  0  0  0
  190.2000  176.9190  144.6420 N   0  0  0  0  0  0  0  0  0  0  0  0
  191.5850  176.5840  144.9730 C   0  0  0  0  0  2  0  0  0  0  0  0
  191.7280  176.3830  146.4620 C   0  0  0  0  0  2  0  0  0  0  0  0
  190.3670  176.4740  147.1160 C   0  0  0  0  0  2  0  0  0  0  0  0
  190.3610  177.6160  148.1030 C   0  0  0  0  0  2  0  0  0  0  0  0
  189.0010  178.2990  148.1020 C   0  0  0  0  0  2  0  0  0  0  0  0
  187.9010  177.3610  147.6200 C   0  0  0  0  0  2  0  0  0  0  0  0
  187.0940  177.9940  146.4980 C   0  0  0  0  0  2  0  0  0  0  0  0
  185.8730  177.3380  146.3530 O   0  0  0  0  0  0  0  0  0  0  0  0
  184.9040  178.2980  146.6380 C   0  0  0  0  0  2  0  0  0  0  0  0
  185.4440  179.6220  146.3690 N   0  0  0  0  0  1  0  0  0  0  0  0
  188.2670  177.0420  137.8800 C   0  0  1  0  0  3  0  0  0  0  0  0
  189.1020  175.8730  137.6070 C   0  0  0  0  0  2  0  0  0  0  0  0
  187.6580  175.7140  137.7480 N   0  0  0  0  0  0  0  0  0  0  0  0
  187.1020  175.6250  136.4010 C   0  0  0  0  0  2  0  0  0  0  0  0
  185.6200  175.2890  136.4710 C   0  0  2  0  0  3  0  0  0  0  0  0
  185.2660  174.3880  135.4750 F   0  0  0  0  0  0  0  0  0  0  0  0
  184.7780  176.5270  136.4290 C   0  0  0  0  0  0  0  0  0  0  0  0
  185.2630  177.5650  136.0080 O   0  0  0  0  0  0  0  0  0  0  0  0
  183.3800  176.5210  136.9840 C   0  0  1  0  0  3  0  0  0  0  0  0
  183.3900  176.1540  138.4550 C   0  0  0  0  0  1  0  0  0  0  0  0
  182.6660  177.8630  136.7730 C   0  0  0  0  0  2  0  0  0  0  0  0
  181.9160  177.8420  135.5910 O   0  0  0  0  0  1  0  0  0  0  0  0
  1 15  1  0  0  0  0
  1  2  2  0  0  0  0
  4 14  2  0  0  0  0
  5  3  1  6  0  0  0
  5 11  1  0  0  0  0
  6  7  1  0  0  0  0
  6 15  2  0  0  0  0
  7  9  1  0  0  0  0
  8 17  2  0  0  0  0
  9  4  2  0  0  0  0
  9  8  1  0  0  0  0
 10 11  2  0  0  0  0
 12 18  2  0  0  0  0
 12 14  1  0  0  0  0
 13  7  2  0  0  0  0
 14 10  1  0  0  0  0
 15 16  1  0  0  0  0
 16  8  1  0  0  0  0
 18  5  1  0  0  0  0
 19 21  1  0  0  0  0
 19 24  1  1  0  0  0
 20 25  1  0  0  0  0
 21 23  1  1  0  0  0
 22  2  1  6  0  0  0
 22 19  1  0  0  0  0
 22 21  1  0  0  0  0
 23 25  1  0  0  0  0
 24 20  1  0  0  0  0
 25 26  1  0  0  0  0
 26 27  1  0  0  0  0
 27 28  1  0  0  0  0
 28 29  1  0  0  0  0
 30 29  1  0  0  0  0
 31 30  1  0  0  0  0
 32 31  1  0  0  0  0
 33 32  1  0  0  0  0
 33 34  1  0  0  0  0
 35 34  1  0  0  0  0
 36  1  1  1  0  0  0
 37 38  1  0  0  0  0
 37 36  1  0  0  0  0
 38 36  1  0  0  0  0
 39 40  1  0  0  0  0
 39 38  1  0  0  0  0
 40 41  1  6  0  0  0
 42 40  1  0  0  0  0
 42 44  1  0  0  0  0
 43 42  2  0  0  0  0
 44 45  1  1  0  0  0
 46 44  1  0  0  0  0
 47 46  1  0  0  0  0
M  END
>  <MODEL>
4

>  <REMARK>
 VINA RESULT:      -7.9      3.584      5.254
  Name = 
  17 active torsions:
  status: ('A' for Active; 'I' for Inactive)
    1  A    between atoms: C_2  and  C_10
    2  A    between atoms: C_2  and  C_13
    3  A    between atoms: C_4  and  C_26
    4  A    between atoms: C_4  and  C_33
    5  A    between atoms: C_9  and  C_17
    6  A    between atoms: C_10  and  C_31
    7  A    between atoms: C_13  and  C_27
    8  A    between atoms: C_17  and  C_34
    9  A    between atoms: C_18  and  C_19
   10  A    between atoms: C_18  and  N_46
   11  A    between atoms: C_19  and  C_27
   12  A    between atoms: C_23  and  O_44
   13  A    between atoms: C_24  and  C_36
   14  A    between atoms: C_26  and  C_36
   15  A    between atoms: N_30  and  C_37
   16  A    between atoms: C_31  and  O_44
   17  A    between atoms: C_33  and  N_40
                            x       y       z     vdW  Elec       q    Type
                         _______ _______ _______ _____ _____    ______ ____

>  <TORSDO>
F 17

$$$$
=
 OpenBabel11032420533D

 47 51  0  0  1  0  0  0  0  0999 V2000
  188.4190  177.3240  141.7380 C   0  0  0  0  0  0  0  0  0  0  0  0
  189.0120  177.1340  140.5880 N   0  0  0  0  0  0  0  0  0  0  0  0
  179.2590  176.1220  141.4960 N   0  0  0  0  0  1  0  0  0  0  0  0
  183.1480  178.8410  141.7630 C   0  0  0  0  0  0  0  0  0  0  0  0
  179.2640  177.5610  141.2930 C   0  0  1  0  0  3  0  0  0  0  0  0
  186.6090  178.5640  140.7480 N   0  0  0  0  0  0  0  0  0  0  0  0
  185.2890  179.1280  140.7420 C   0  0  0  0  0  0  0  0  0  0  0  0
  185.1090  178.4830  143.1520 C   0  0  0  0  0  0  0  0  0  0  0  0
  184.4340  178.9400  141.9190 C   0  0  0  0  0  0  0  0  0  0  0  0
  180.9340  178.6800  142.6870 C   0  0  0  0  0  3  0  0  0  0  0  0
  179.7290  178.2150  142.5280 N   0  0  0  0  0  0  0  0  0  0  0  0
  181.3640  178.3700  140.2330 C   0  0  0  0  0  3  0  0  0  0  0  0
  184.8560  179.7200  139.7100 O   0  0  0  0  0  0  0  0  0  0  0  0
  181.8730  178.6790  141.5690 C   0  0  0  0  0  0  0  0  0  0  0  0
  187.2020  178.1570  141.8400 C   0  0  0  0  0  0  0  0  0  0  0  0
  186.6040  178.4300  143.1970 C   0  0  0  0  0  2  0  0  0  0  0  0
  184.4410  178.1420  144.2460 C   0  0  0  0  0  2  0  0  0  0  0  0
  180.1240  177.8900  140.0910 C   0  0  0  0  0  3  0  0  0  0  0  0
  187.9370  176.6680  138.4350 C   0  0  1  0  0  3  0  0  0  0  0  0
  187.2100  178.5080  136.7780 C   0  0  0  0  0  2  0  0  0  0  0  0
  189.3610  177.1690  138.1910 C   0  0  2  0  0  3  0  0  0  0  0  0
  188.5380  177.7180  139.3380 C   0  0  2  0  0  3  0  0  0  0  0  0
  189.5760  178.3000  137.1630 C   0  0  0  0  0  2  0  0  0  0  0  0
  186.8410  177.2320  137.5190 C   0  0  0  0  0  2  0  0  0  0  0  0
  188.5180  178.4250  136.1440 N   0  0  0  0  0  0  0  0  0  0  0  0
  188.5590  177.3160  135.1910 C   0  0  0  0  0  2  0  0  0  0  0  0
  189.9400  177.1960  134.5940 C   0  0  0  0  0  2  0  0  0  0  0  0
  190.4320  175.7730  134.7410 C   0  0  0  0  0  2  0  0  0  0  0  0
  191.6520  175.7540  135.6300 C   0  0  0  0  0  2  0  0  0  0  0  0
  191.8520  174.3620  136.2100 C   0  0  0  0  0  2  0  0  0  0  0  0
  192.7760  174.3840  137.4210 C   0  0  0  0  0  2  0  0  0  0  0  0
  194.1570  174.8960  137.0470 C   0  0  0  0  0  2  0  0  0  0  0  0
  194.8270  175.3500  138.1830 O   0  0  0  0  0  0  0  0  0  0  0  0
  195.3280  174.2040  138.7960 C   0  0  0  0  0  2  0  0  0  0  0  0
  196.7810  174.2810  138.8470 N   0  0  0  0  0  1  0  0  0  0  0  0
  188.9530  176.6630  142.9690 C   0  0  1  0  0  3  0  0  0  0  0  0
  190.0750  175.7820  142.6490 C   0  0  0  0  0  2  0  0  0  0  0  0
  190.3320  177.1200  143.1720 N   0  0  0  0  0  0  0  0  0  0  0  0
  190.6310  176.9730  144.5940 C   0  0  0  0  0  2  0  0  0  0  0  0
  189.5760  177.6920  145.4230 C   0  0  2  0  0  3  0  0  0  0  0  0
  189.7800  179.0660  145.4060 F   0  0  0  0  0  0  0  0  0  0  0  0
  189.5200  177.1530  146.8190 C   0  0  0  0  0  0  0  0  0  0  0  0
  190.5040  176.6060  147.2880 O   0  0  0  0  0  0  0  0  0  0  0  0
  188.2390  177.2010  147.6070 C   0  0  1  0  0  3  0  0  0  0  0  0
  188.3620  178.1640  148.7710 C   0  0  0  0  0  1  0  0  0  0  0  0
  187.0350  177.5730  146.7310 C   0  0  0  0  0  2  0  0  0  0  0  0
  186.4090  178.7260  147.2180 O   0  0  0  0  0  1  0  0  0  0  0  0
  1 15  1  0  0  0  0
  2  1  2  0  0  0  0
  4  9  2  0  0  0  0
  5  3  1  1  0  0  0
  5 11  1  0  0  0  0
  6 15  2  0  0  0  0
  7  6  1  0  0  0  0
  7  9  1  0  0  0  0
  8 16  1  0  0  0  0
  8 17  2  0  0  0  0
  9  8  1  0  0  0  0
 11 10  2  0  0  0  0
 12 14  1  0  0  0  0
 13  7  2  0  0  0  0
 14  4  2  0  0  0  0
 14 10  1  0  0  0  0
 15 16  1  0  0  0  0
 18 12  2  0  0  0  0
 18  5  1  0  0  0  0
 19 24  1  6  0  0  0
 19 22  1  0  0  0  0
 20 24  1  0  0  0  0
 21 23  1  6  0  0  0
 21 19  1  0  0  0  0
 21 22  1  0  0  0  0
 22  2  1  1  0  0  0
 25 20  1  0  0  0  0
 25 23  1  0  0  0  0
 26 25  1  0  0  0  0
 27 28  1  0  0  0  0
 27 26  1  0  0  0  0
 28 29  1  0  0  0  0
 29 30  1  0  0  0  0
 30 31  1  0  0  0  0
 32 31  1  0  0  0  0
 32 33  1  0  0  0  0
 33 34  1  0  0  0  0
 34 35  1  0  0  0  0
 36  1  1  6  0  0  0
 36 38  1  0  0  0  0
 37 36  1  0  0  0  0
 37 38  1  0  0  0  0
 38 39  1  0  0  0  0
 39 40  1  0  0  0  0
 40 41  1  1  0  0  0
 40 42  1  0  0  0  0
 42 43  2  0  0  0  0
 42 44  1  0  0  0  0
 44 45  1  1  0  0  0
 46 47  1  0  0  0  0
 46 44  1  0  0  0  0
M  END
>  <MODEL>
5

>  <REMARK>
 VINA RESULT:      -7.8      2.826      8.647
  Name = 
  17 active torsions:
  status: ('A' for Active; 'I' for Inactive)
    1  A    between atoms: C_2  and  C_10
    2  A    between atoms: C_2  and  C_13
    3  A    between atoms: C_4  and  C_26
    4  A    between atoms: C_4  and  C_33
    5  A    between atoms: C_9  and  C_17
    6  A    between atoms: C_10  and  C_31
    7  A    between atoms: C_13  and  C_27
    8  A    between atoms: C_17  and  C_34
    9  A    between atoms: C_18  and  C_19
   10  A    between atoms: C_18  and  N_46
   11  A    between atoms: C_19  and  C_27
   12  A    between atoms: C_23  and  O_44
   13  A    between atoms: C_24  and  C_36
   14  A    between atoms: C_26  and  C_36
   15  A    between atoms: N_30  and  C_37
   16  A    between atoms: C_31  and  O_44
   17  A    between atoms: C_33  and  N_40
                            x       y       z     vdW  Elec       q    Type
                         _______ _______ _______ _____ _____    ______ ____

>  <TORSDO>
F 17

$$$$
=
 OpenBabel11032420533D

 47 51  0  0  1  0  0  0  0  0999 V2000
  187.7050  178.3820  141.7100 C   0  0  0  0  0  0  0  0  0  0  0  0
  188.4850  178.0800  140.7050 N   0  0  0  0  0  0  0  0  0  0  0  0
  179.2340  174.7640  140.9510 N   0  0  0  0  0  1  0  0  0  0  0  0
  182.2840  178.4090  140.8730 C   0  0  0  0  0  0  0  0  0  0  0  0
  178.9310  176.0720  140.3920 C   0  0  1  0  0  3  0  0  0  0  0  0
  185.8260  178.8450  140.2790 N   0  0  0  0  0  0  0  0  0  0  0  0
  184.4270  179.0210  140.0100 C   0  0  0  0  0  0  0  0  0  0  0  0
  184.0390  178.9030  142.4790 C   0  0  0  0  0  0  0  0  0  0  0  0
  183.4710  178.8790  141.1140 C   0  0  0  0  0  0  0  0  0  0  0  0
  180.0560  177.8740  141.6030 C   0  0  0  0  0  3  0  0  0  0  0  0
  179.0340  177.0830  141.4580 N   0  0  0  0  0  0  0  0  0  0  0  0
  180.9160  177.1540  139.3560 C   0  0  0  0  0  3  0  0  0  0  0  0
  184.0290  179.2330  138.8270 O   0  0  0  0  0  0  0  0  0  0  0  0
  181.1280  177.8750  140.6110 C   0  0  0  0  0  0  0  0  0  0  0  0
  186.3250  178.8620  141.4870 C   0  0  0  0  0  0  0  0  0  0  0  0
  185.4790  179.2600  142.6710 C   0  0  0  0  0  2  0  0  0  0  0  0
  183.3110  178.6480  143.5580 C   0  0  0  0  0  2  0  0  0  0  0  0
  179.8610  176.3420  139.2290 C   0  0  0  0  0  3  0  0  0  0  0  0
  187.9940  176.8390  138.6480 C   0  0  1  0  0  3  0  0  0  0  0  0
  187.0190  177.9320  136.5240 C   0  0  0  0  0  2  0  0  0  0  0  0
  189.2080  177.7410  138.4180 C   0  0  2  0  0  3  0  0  0  0  0  0
  188.0720  178.1940  139.3100 C   0  0  2  0  0  3  0  0  0  0  0  0
  189.2280  178.6390  137.1630 C   0  0  0  0  0  2  0  0  0  0  0  0
  186.9500  176.7890  137.5240 C   0  0  0  0  0  2  0  0  0  0  0  0
  188.3750  178.1780  136.0530 N   0  0  0  0  0  0  0  0  0  0  0  0
  188.9240  176.9810  135.4160 C   0  0  0  0  0  2  0  0  0  0  0  0
  190.4240  177.1020  135.2920 C   0  0  0  0  0  2  0  0  0  0  0  0
  191.0490  175.7270  135.3620 C   0  0  0  0  0  2  0  0  0  0  0  0
  190.1440  174.8050  136.1450 C   0  0  0  0  0  2  0  0  0  0  0  0
  190.9180  174.1610  137.2850 C   0  0  0  0  0  2  0  0  0  0  0  0
  192.2560  174.8520  137.5200 C   0  0  0  0  0  2  0  0  0  0  0  0
  193.4150  173.9180  137.2180 C   0  0  0  0  0  2  0  0  0  0  0  0
  194.3460  173.9540  138.2550 O   0  0  0  0  0  0  0  0  0  0  0  0
  195.5920  173.9440  137.6310 C   0  0  0  0  0  2  0  0  0  0  0  0
  195.8490  175.2530  137.0490 N   0  0  0  0  0  1  0  0  0  0  0  0
  188.1960  178.2070  143.1120 C   0  0  1  0  0  3  0  0  0  0  0  0
  188.5720  176.8180  143.3690 C   0  0  0  0  0  2  0  0  0  0  0  0
  189.6050  177.8010  143.0560 N   0  0  0  0  0  0  0  0  0  0  0  0
  190.2190  178.1950  144.3210 C   0  0  0  0  0  2  0  0  0  0  0  0
  191.6440  177.6660  144.3940 C   0  0  2  0  0  3  0  0  0  0  0  0
  192.1210  177.3460  143.1290 F   0  0  0  0  0  0  0  0  0  0  0  0
  191.7470  176.5080  145.3390 C   0  0  0  0  0  0  0  0  0  0  0  0
  191.9030  175.3840  144.8920 O   0  0  0  0  0  0  0  0  0  0  0  0
  191.5670  176.7120  146.8190 C   0  0  1  0  0  3  0  0  0  0  0  0
  190.1010  176.6230  147.1970 C   0  0  0  0  0  1  0  0  0  0  0  0
  192.3930  175.7160  147.6450 C   0  0  0  0  0  2  0  0  0  0  0  0
  193.0420  176.3690  148.6990 O   0  0  0  0  0  1  0  0  0  0  0  0
  2  1  2  0  0  0  0
  4  9  2  0  0  0  0
  5  3  1  1  0  0  0
  5 11  1  0  0  0  0
  6 15  2  0  0  0  0
  7  6  1  0  0  0  0
  7  9  1  0  0  0  0
  8 16  1  0  0  0  0
  8 17  2  0  0  0  0
  9  8  1  0  0  0  0
 11 10  2  0  0  0  0
 12 14  1  0  0  0  0
 13  7  2  0  0  0  0
 14  4  2  0  0  0  0
 14 10  1  0  0  0  0
 15  1  1  0  0  0  0
 15 16  1  0  0  0  0
 18 12  2  0  0  0  0
 18  5  1  0  0  0  0
 19 24  1  6  0  0  0
 19 22  1  0  0  0  0
 20 24  1  0  0  0  0
 21 23  1  6  0  0  0
 21 19  1  0  0  0  0
 21 22  1  0  0  0  0
 22  2  1  1  0  0  0
 25 20  1  0  0  0  0
 25 23  1  0  0  0  0
 26 25  1  0  0  0  0
 27 28  1  0  0  0  0
 27 26  1  0  0  0  0
 28 29  1  0  0  0  0
 29 30  1  0  0  0  0
 30 31  1  0  0  0  0
 32 31  1  0  0  0  0
 32 33  1  0  0  0  0
 34 33  1  0  0  0  0
 35 34  1  0  0  0  0
 36  1  1  6  0  0  0
 36 37  1  0  0  0  0
 38 36  1  0  0  0  0
 38 37  1  0  0  0  0
 38 39  1  0  0  0  0
 39 40  1  0  0  0  0
 40 41  1  6  0  0  0
 40 42  1  0  0  0  0
 42 44  1  0  0  0  0
 43 42  2  0  0  0  0
 44 45  1  6  0  0  0
 44 46  1  0  0  0  0
 46 47  1  0  0  0  0
M  END
>  <MODEL>
6

>  <REMARK>
 VINA RESULT:      -7.6      2.750      8.051
  Name = 
  17 active torsions:
  status: ('A' for Active; 'I' for Inactive)
    1  A    between atoms: C_2  and  C_10
    2  A    between atoms: C_2  and  C_13
    3  A    between atoms: C_4  and  C_26
    4  A    between atoms: C_4  and  C_33
    5  A    between atoms: C_9  and  C_17
    6  A    between atoms: C_10  and  C_31
    7  A    between atoms: C_13  and  C_27
    8  A    between atoms: C_17  and  C_34
    9  A    between atoms: C_18  and  C_19
   10  A    between atoms: C_18  and  N_46
   11  A    between atoms: C_19  and  C_27
   12  A    between atoms: C_23  and  O_44
   13  A    between atoms: C_24  and  C_36
   14  A    between atoms: C_26  and  C_36
   15  A    between atoms: N_30  and  C_37
   16  A    between atoms: C_31  and  O_44
   17  A    between atoms: C_33  and  N_40
                            x       y       z     vdW  Elec       q    Type
                         _______ _______ _______ _____ _____    ______ ____

>  <TORSDO>
F 17

$$$$
=
 OpenBabel11032420533D

 47 51  0  0  1  0  0  0  0  0999 V2000
  189.2040  177.3830  139.2510 C   0  0  0  0  0  0  0  0  0  0  0  0
  188.9950  177.5230  140.5350 N   0  0  0  0  0  0  0  0  0  0  0  0
  180.3640  174.6900  139.3800 N   0  0  0  0  0  1  0  0  0  0  0  0
  184.2550  176.2780  137.1600 C   0  0  0  0  0  0  0  0  0  0  0  0
  180.5410  174.6840  137.9370 C   0  0  1  0  0  3  0  0  0  0  0  0
  187.8260  176.1390  137.7180 N   0  0  0  0  0  0  0  0  0  0  0  0
  186.6050  175.8750  137.0120 C   0  0  0  0  0  0  0  0  0  0  0  0
  185.7440  178.0570  137.8800 C   0  0  0  0  0  0  0  0  0  0  0  0
  185.4580  176.7650  137.2230 C   0  0  0  0  0  0  0  0  0  0  0  0
  181.8700  176.5870  137.1660 C   0  0  0  0  0  3  0  0  0  0  0  0
  180.7160  176.0710  137.4720 N   0  0  0  0  0  0  0  0  0  0  0  0
  182.9040  174.3010  137.2640 C   0  0  0  0  0  3  0  0  0  0  0  0
  186.5090  174.8530  136.2700 O   0  0  0  0  0  0  0  0  0  0  0  0
  183.0670  175.7500  137.1560 C   0  0  0  0  0  0  0  0  0  0  0  0
  188.0760  177.2830  138.3010 C   0  0  0  0  0  0  0  0  0  0  0  0
  187.1650  178.4700  138.1050 C   0  0  0  0  0  2  0  0  0  0  0  0
  184.7870  178.8940  138.2550 C   0  0  0  0  0  2  0  0  0  0  0  0
  181.7110  173.7900  137.5840 C   0  0  0  0  0  3  0  0  0  0  0  0
  187.3000  178.9980  141.5150 C   0  0  1  0  0  3  0  0  0  0  0  0
  184.9220  178.2150  142.1400 C   0  0  0  0  0  2  0  0  0  0  0  0
  187.7830  178.0060  142.5750 C   0  0  2  0  0  3  0  0  0  0  0  0
  187.6630  177.5850  141.1260 C   0  0  2  0  0  3  0  0  0  0  0  0
  186.7270  177.2350  143.3940 C   0  0  0  0  0  2  0  0  0  0  0  0
  185.7890  179.2590  141.4530 C   0  0  0  0  0  2  0  0  0  0  0  0
  185.4040  177.8820  143.4730 N   0  0  0  0  0  0  0  0  0  0  0  0
  185.4420  179.0750  144.3210 C   0  0  0  0  0  2  0  0  0  0  0  0
  184.3960  178.9720  145.4050 C   0  0  0  0  0  2  0  0  0  0  0  0
  184.9800  178.2530  146.6010 C   0  0  0  0  0  2  0  0  0  0  0  0
  186.3950  178.7260  146.8290 C   0  0  0  0  0  2  0  0  0  0  0  0
  187.1550  177.7110  147.6700 C   0  0  0  0  0  2  0  0  0  0  0  0
  188.5020  178.2540  148.1280 C   0  0  0  0  0  2  0  0  0  0  0  0
  189.6480  177.5070  147.4670 C   0  0  0  0  0  2  0  0  0  0  0  0
  189.2790  177.0930  146.1880 O   0  0  0  0  0  0  0  0  0  0  0  0
  190.1800  177.7150  145.3250 C   0  0  0  0  0  2  0  0  0  0  0  0
  190.8290  176.7080  144.4990 N   0  0  0  0  0  1  0  0  0  0  0  0
  190.6040  177.3590  138.7230 C   0  0  1  0  0  3  0  0  0  0  0  0
  191.5500  176.9490  139.7590 C   0  0  0  0  0  2  0  0  0  0  0  0
  191.0880  175.9760  138.7740 N   0  0  0  0  0  0  0  0  0  0  0  0
  192.1410  175.8500  137.7700 C   0  0  0  0  0  2  0  0  0  0  0  0
  191.9940  174.5310  137.0260 C   0  0  2  0  0  3  0  0  0  0  0  0
  190.9900  173.7510  137.5870 F   0  0  0  0  0  0  0  0  0  0  0  0
  193.2980  173.7960  136.9560 C   0  0  0  0  0  0  0  0  0  0  0  0
  193.3270  172.6730  136.4820 O   0  0  0  0  0  0  0  0  0  0  0  0
  194.5440  174.3950  137.5480 C   0  0  1  0  0  3  0  0  0  0  0  0
  195.1980  173.4250  138.5140 C   0  0  0  0  0  1  0  0  0  0  0  0
  195.5460  174.8320  136.4700 C   0  0  0  0  0  2  0  0  0  0  0  0
  195.3170  176.1610  136.0940 O   0  0  0  0  0  1  0  0  0  0  0  0
  1  2  2  0  0  0  0
  4  9  2  0  0  0  0
  5  3  1  1  0  0  0
  6 15  2  0  0  0  0
  7  9  1  0  0  0  0
  7  6  1  0  0  0  0
  8 16  1  0  0  0  0
  8 17  2  0  0  0  0
  9  8  1  0  0  0  0
 10 11  2  0  0  0  0
 11  5  1  0  0  0  0
 12 18  2  0  0  0  0
 13  7  2  0  0  0  0
 14  4  2  0  0  0  0
 14 10  1  0  0  0  0
 14 12  1  0  0  0  0
 15  1  1  0  0  0  0
 16 15  1  0  0  0  0
 18  5  1  0  0  0  0
 19 24  1  1  0  0  0
 19 21  1  0  0  0  0
 20 25  1  0  0  0  0
 21 23  1  1  0  0  0
 22  2  1  6  0  0  0
 22 19  1  0  0  0  0
 22 21  1  0  0  0  0
 23 25  1  0  0  0  0
 24 20  1  0  0  0  0
 25 26  1  0  0  0  0
 26 27  1  0  0  0  0
 27 28  1  0  0  0  0
 28 29  1  0  0  0  0
 29 30  1  0  0  0  0
 30 31  1  0  0  0  0
 32 31  1  0  0  0  0
 33 32  1  0  0  0  0
 34 33  1  0  0  0  0
 35 34  1  0  0  0  0
 36 38  1  0  0  0  0
 36  1  1  1  0  0  0
 36 37  1  0  0  0  0
 38 37  1  0  0  0  0
 39 38  1  0  0  0  0
 40 41  1  1  0  0  0
 40 39  1  0  0  0  0
 42 40  1  0  0  0  0
 42 44  1  0  0  0  0
 43 42  2  0  0  0  0
 44 45  1  1  0  0  0
 46 44  1  0  0  0  0
 47 46  1  0  0  0  0
M  END
>  <MODEL>
7

>  <REMARK>
 VINA RESULT:      -7.5      2.082      3.819
  Name = 
  17 active torsions:
  status: ('A' for Active; 'I' for Inactive)
    1  A    between atoms: C_2  and  C_10
    2  A    between atoms: C_2  and  C_13
    3  A    between atoms: C_4  and  C_26
    4  A    between atoms: C_4  and  C_33
    5  A    between atoms: C_9  and  C_17
    6  A    between atoms: C_10  and  C_31
    7  A    between atoms: C_13  and  C_27
    8  A    between atoms: C_17  and  C_34
    9  A    between atoms: C_18  and  C_19
   10  A    between atoms: C_18  and  N_46
   11  A    between atoms: C_19  and  C_27
   12  A    between atoms: C_23  and  O_44
   13  A    between atoms: C_24  and  C_36
   14  A    between atoms: C_26  and  C_36
   15  A    between atoms: N_30  and  C_37
   16  A    between atoms: C_31  and  O_44
   17  A    between atoms: C_33  and  N_40
                            x       y       z     vdW  Elec       q    Type
                         _______ _______ _______ _____ _____    ______ ____

>  <TORSDO>
F 17

$$$$
=
 OpenBabel11032420533D

 47 51  0  0  1  0  0  0  0  0999 V2000
  191.0600  176.1780  137.5070 C   0  0  0  0  0  0  0  0  0  0  0  0
  191.2440  176.2890  138.7970 N   0  0  0  0  0  0  0  0  0  0  0  0
  182.3980  177.5260  140.4360 N   0  0  0  0  0  1  0  0  0  0  0  0
  185.6120  176.6290  137.0510 C   0  0  0  0  0  0  0  0  0  0  0  0
  182.0720  177.0130  139.1150 C   0  0  1  0  0  3  0  0  0  0  0  0
  188.9380  175.2110  136.9100 N   0  0  0  0  0  0  0  0  0  0  0  0
  187.5330  175.2720  136.6240 C   0  0  0  0  0  0  0  0  0  0  0  0
  187.7280  177.7650  136.6830 C   0  0  0  0  0  0  0  0  0  0  0  0
  186.8560  176.5720  136.6760 C   0  0  0  0  0  0  0  0  0  0  0  0
  183.5850  177.8740  137.3960 C   0  0  0  0  0  3  0  0  0  0  0  0
  182.5000  177.9950  138.1030 N   0  0  0  0  0  0  0  0  0  0  0  0
  183.8350  175.5120  138.2080 C   0  0  0  0  0  3  0  0  0  0  0  0
  186.8850  174.2080  136.3940 O   0  0  0  0  0  0  0  0  0  0  0  0
  184.3900  176.6600  137.4920 C   0  0  0  0  0  0  0  0  0  0  0  0
  189.7070  176.2690  136.9190 C   0  0  0  0  0  0  0  0  0  0  0  0
  189.1960  177.6050  136.4410 C   0  0  0  0  0  2  0  0  0  0  0  0
  187.2570  178.9920  136.8660 C   0  0  0  0  0  2  0  0  0  0  0  0
  182.7210  175.6580  138.9330 C   0  0  0  0  0  3  0  0  0  0  0  0
  190.1750  177.9060  140.2980 C   0  0  1  0  0  3  0  0  0  0  0  0
  187.9520  177.4530  141.5280 C   0  0  0  0  0  2  0  0  0  0  0  0
  190.7360  176.7460  141.1210 C   0  0  2  0  0  3  0  0  0  0  0  0
  190.1550  176.5010  139.7450 C   0  0  2  0  0  3  0  0  0  0  0  0
  189.8190  176.0730  142.1630 C   0  0  0  0  0  2  0  0  0  0  0  0
  188.7770  178.4100  140.6810 C   0  0  0  0  0  2  0  0  0  0  0  0
  188.7080  176.9110  142.6490 N   0  0  0  0  0  0  0  0  0  0  0  0
  189.1890  177.9880  143.5150 C   0  0  0  0  0  2  0  0  0  0  0  0
  188.9440  177.6370  144.9630 C   0  0  0  0  0  2  0  0  0  0  0  0
  190.2680  177.4140  145.6590 C   0  0  0  0  0  2  0  0  0  0  0  0
  190.0250  177.1530  147.1260 C   0  0  0  0  0  2  0  0  0  0  0  0
  188.5430  176.9240  147.3760 C   0  0  0  0  0  2  0  0  0  0  0  0
  187.9710  177.9450  148.3530 C   0  0  0  0  0  2  0  0  0  0  0  0
  186.7650  178.6540  147.7600 C   0  0  0  0  0  2  0  0  0  0  0  0
  186.2440  177.9140  146.6990 O   0  0  0  0  0  0  0  0  0  0  0  0
  185.6410  178.8490  145.8610 C   0  0  0  0  0  2  0  0  0  0  0  0
  184.2290  178.9600  146.1990 N   0  0  0  0  0  1  0  0  0  0  0  0
  192.2360  175.9920  136.6010 C   0  0  1  0  0  3  0  0  0  0  0  0
  193.4820  175.9250  137.3620 C   0  0  0  0  0  2  0  0  0  0  0  0
  192.8470  174.6930  136.9050 N   0  0  0  0  0  0  0  0  0  0  0  0
  193.5620  174.2620  135.7070 C   0  0  0  0  0  2  0  0  0  0  0  0
  194.4860  173.1000  136.0450 C   0  0  2  0  0  3  0  0  0  0  0  0
  194.0320  172.4110  137.1620 F   0  0  0  0  0  0  0  0  0  0  0  0
  195.9020  173.5620  136.2100 C   0  0  0  0  0  0  0  0  0  0  0  0
  196.4150  174.2410  135.3370 O   0  0  0  0  0  0  0  0  0  0  0  0
  196.7170  173.1180  137.3940 C   0  0  1  0  0  3  0  0  0  0  0  0
  198.1290  172.7630  136.9690 C   0  0  0  0  0  1  0  0  0  0  0  0
  196.7430  174.1730  138.5080 C   0  0  0  0  0  2  0  0  0  0  0  0
  195.7270  173.9310  139.4400 O   0  0  0  0  0  1  0  0  0  0  0  0
  1  2  2  0  0  0  0
  4 14  2  0  0  0  0
  5  3  1  1  0  0  0
  6 15  2  0  0  0  0
  7  9  1  0  0  0  0
  7  6  1  0  0  0  0
  8 17  2  0  0  0  0
  9  8  1  0  0  0  0
  9  4  2  0  0  0  0
 10 14  1  0  0  0  0
 10 11  2  0  0  0  0
 11  5  1  0  0  0  0
 12 18  2  0  0  0  0
 13  7  2  0  0  0  0
 14 12  1  0  0  0  0
 15  1  1  0  0  0  0
 16  8  1  0  0  0  0
 16 15  1  0  0  0  0
 18  5  1  0  0  0  0
 19 24  1  1  0  0  0
 19 21  1  0  0  0  0
 20 25  1  0  0  0  0
 21 23  1  1  0  0  0
 22  2  1  6  0  0  0
 22 19  1  0  0  0  0
 22 21  1  0  0  0  0
 23 25  1  0  0  0  0
 24 20  1  0  0  0  0
 25 26  1  0  0  0  0
 26 27  1  0  0  0  0
 27 28  1  0  0  0  0
 28 29  1  0  0  0  0
 29 30  1  0  0  0  0
 30 31  1  0  0  0  0
 32 31  1  0  0  0  0
 33 32  1  0  0  0  0
 34 35  1  0  0  0  0
 34 33  1  0  0  0  0
 36 38  1  0  0  0  0
 36 37  1  0  0  0  0
 36  1  1  1  0  0  0
 38 37  1  0  0  0  0
 39 40  1  0  0  0  0
 39 38  1  0  0  0  0
 40 42  1  0  0  0  0
 40 41  1  1  0  0  0
 42 44  1  0  0  0  0
 43 42  2  0  0  0  0
 44 45  1  6  0  0  0
 44 46  1  0  0  0  0
 46 47  1  0  0  0  0
M  END
>  <MODEL>
8

>  <REMARK>
 VINA RESULT:      -7.4      1.933      2.813
  Name = 
  17 active torsions:
  status: ('A' for Active; 'I' for Inactive)
    1  A    between atoms: C_2  and  C_10
    2  A    between atoms: C_2  and  C_13
    3  A    between atoms: C_4  and  C_26
    4  A    between atoms: C_4  and  C_33
    5  A    between atoms: C_9  and  C_17
    6  A    between atoms: C_10  and  C_31
    7  A    between atoms: C_13  and  C_27
    8  A    between atoms: C_17  and  C_34
    9  A    between atoms: C_18  and  C_19
   10  A    between atoms: C_18  and  N_46
   11  A    between atoms: C_19  and  C_27
   12  A    between atoms: C_23  and  O_44
   13  A    between atoms: C_24  and  C_36
   14  A    between atoms: C_26  and  C_36
   15  A    between atoms: N_30  and  C_37
   16  A    between atoms: C_31  and  O_44
   17  A    between atoms: C_33  and  N_40
                            x       y       z     vdW  Elec       q    Type
                         _______ _______ _______ _____ _____    ______ ____

>  <TORSDO>
F 17

$$$$
=
 OpenBabel11032420533D

 47 51  0  0  1  0  0  0  0  0999 V2000
  190.8050  176.7570  138.6230 C   0  0  0  0  0  0  0  0  0  0  0  0
  190.7210  176.8880  139.9210 N   0  0  0  0  0  0  0  0  0  0  0  0
  181.6430  177.1610  139.7700 N   0  0  0  0  0  1  0  0  0  0  0  0
  185.5350  176.5020  137.1230 C   0  0  0  0  0  0  0  0  0  0  0  0
  181.6400  176.5460  138.4520 C   0  0  1  0  0  3  0  0  0  0  0  0
  188.9620  175.5040  137.7120 N   0  0  0  0  0  0  0  0  0  0  0  0
  187.6420  175.3750  137.1640 C   0  0  0  0  0  0  0  0  0  0  0  0
  187.5400  177.8730  137.0740 C   0  0  0  0  0  0  0  0  0  0  0  0
  186.8260  176.5810  136.9920 C   0  0  0  0  0  0  0  0  0  0  0  0
  183.3520  177.5000  136.9890 C   0  0  0  0  0  3  0  0  0  0  0  0
  182.1440  177.5210  137.4690 N   0  0  0  0  0  0  0  0  0  0  0  0
  183.7030  175.2320  138.0050 C   0  0  0  0  0  3  0  0  0  0  0  0
  187.1750  174.2280  136.8960 O   0  0  0  0  0  0  0  0  0  0  0  0
  184.2550  176.4030  137.3230 C   0  0  0  0  0  0  0  0  0  0  0  0
  189.5910  176.6480  137.7870 C   0  0  0  0  0  0  0  0  0  0  0  0
  189.0360  177.8850  137.1240 C   0  0  0  0  0  2  0  0  0  0  0  0
  186.9080  179.0390  137.0750 C   0  0  0  0  0  2  0  0  0  0  0  0
  182.4610  175.2750  138.4960 C   0  0  0  0  0  3  0  0  0  0  0  0
  189.2770  178.2450  141.3650 C   0  0  1  0  0  3  0  0  0  0  0  0
  186.8800  177.5570  142.0320 C   0  0  0  0  0  2  0  0  0  0  0  0
  189.7260  176.9970  142.1270 C   0  0  2  0  0  3  0  0  0  0  0  0
  189.4520  176.9320  140.6400 C   0  0  2  0  0  3  0  0  0  0  0  0
  188.6560  176.1570  142.8560 C   0  0  0  0  0  2  0  0  0  0  0  0
  187.8030  178.6480  141.5100 C   0  0  0  0  0  2  0  0  0  0  0  0
  187.4230  176.8850  143.2050 N   0  0  0  0  0  0  0  0  0  0  0  0
  187.6550  177.8430  144.2870 C   0  0  0  0  0  2  0  0  0  0  0  0
  186.3530  178.1670  144.9790 C   0  0  0  0  0  2  0  0  0  0  0  0
  186.4320  177.7380  146.4280 C   0  0  0  0  0  2  0  0  0  0  0  0
  187.7300  178.2250  147.0240 C   0  0  0  0  0  2  0  0  0  0  0  0
  188.3350  177.1440  147.9080 C   0  0  0  0  0  2  0  0  0  0  0  0
  189.5150  176.4570  147.2310 C   0  0  0  0  0  2  0  0  0  0  0  0
  190.8230  177.1490  147.5760 C   0  0  0  0  0  2  0  0  0  0  0  0
  191.7880  176.8650  146.6110 O   0  0  0  0  0  0  0  0  0  0  0  0
  192.4340  175.7160  147.0640 C   0  0  0  0  0  2  0  0  0  0  0  0
  192.9240  175.9400  148.4160 N   0  0  0  0  0  1  0  0  0  0  0  0
  192.1470  176.7510  137.9610 C   0  0  1  0  0  3  0  0  0  0  0  0
  193.1940  176.3460  138.8970 C   0  0  0  0  0  2  0  0  0  0  0  0
  192.6490  175.3730  137.9550 N   0  0  0  0  0  0  0  0  0  0  0  0
  193.6000  175.2640  136.8530 C   0  0  0  0  0  2  0  0  0  0  0  0
  193.5930  173.8470  136.2990 C   0  0  2  0  0  3  0  0  0  0  0  0
  192.5700  173.0960  136.8640 F   0  0  0  0  0  0  0  0  0  0  0  0
  194.9280  173.1890  136.4710 C   0  0  0  0  0  0  0  0  0  0  0  0
  195.6050  172.9460  135.4860 O   0  0  0  0  0  0  0  0  0  0  0  0
  195.3920  172.7460  137.8320 C   0  0  1  0  0  3  0  0  0  0  0  0
  195.6030  171.2450  137.8630 C   0  0  0  0  0  1  0  0  0  0  0  0
  196.6700  173.4740  138.2730 C   0  0  0  0  0  2  0  0  0  0  0  0
  196.3600  174.7210  138.8280 O   0  0  0  0  0  1  0  0  0  0  0  0
  1  2  2  0  0  0  0
  4 14  2  0  0  0  0
  5 18  1  0  0  0  0
  5  3  1  1  0  0  0
  6 15  2  0  0  0  0
  7  6  1  0  0  0  0
  8 17  2  0  0  0  0
  8 16  1  0  0  0  0
  9  8  1  0  0  0  0
  9  4  2  0  0  0  0
  9  7  1  0  0  0  0
 10 14  1  0  0  0  0
 10 11  2  0  0  0  0
 11  5  1  0  0  0  0
 12 18  2  0  0  0  0
 13  7  2  0  0  0  0
 14 12  1  0  0  0  0
 15  1  1  0  0  0  0
 16 15  1  0  0  0  0
 19 24  1  1  0  0  0
 19 21  1  0  0  0  0
 20 25  1  0  0  0  0
 21 23  1  1  0  0  0
 22  2  1  6  0  0  0
 22 19  1  0  0  0  0
 22 21  1  0  0  0  0
 23 25  1  0  0  0  0
 24 20  1  0  0  0  0
 25 26  1  0  0  0  0
 26 27  1  0  0  0  0
 27 28  1  0  0  0  0
 28 29  1  0  0  0  0
 29 30  1  0  0  0  0
 31 32  1  0  0  0  0
 31 30  1  0  0  0  0
 33 34  1  0  0  0  0
 33 32  1  0  0  0  0
 34 35  1  0  0  0  0
 36  1  1  1  0  0  0
 36 37  1  0  0  0  0
 38 36  1  0  0  0  0
 38 37  1  0  0  0  0
 39 38  1  0  0  0  0
 40 42  1  0  0  0  0
 40 39  1  0  0  0  0
 40 41  1  1  0  0  0
 42 44  1  0  0  0  0
 43 42  2  0  0  0  0
 44 45  1  6  0  0  0
 44 46  1  0  0  0  0
 46 47  1  0  0  0  0
M  END
>  <MODEL>
9

>  <REMARK>
 VINA RESULT:      -7.4      2.276      3.810
  Name = 
  17 active torsions:
  status: ('A' for Active; 'I' for Inactive)
    1  A    between atoms: C_2  and  C_10
    2  A    between atoms: C_2  and  C_13
    3  A    between atoms: C_4  and  C_26
    4  A    between atoms: C_4  and  C_33
    5  A    between atoms: C_9  and  C_17
    6  A    between atoms: C_10  and  C_31
    7  A    between atoms: C_13  and  C_27
    8  A    between atoms: C_17  and  C_34
    9  A    between atoms: C_18  and  C_19
   10  A    between atoms: C_18  and  N_46
   11  A    between atoms: C_19  and  C_27
   12  A    between atoms: C_23  and  O_44
   13  A    between atoms: C_24  and  C_36
   14  A    between atoms: C_26  and  C_36
   15  A    between atoms: N_30  and  C_37
   16  A    between atoms: C_31  and  O_44
   17  A    between atoms: C_33  and  N_40
                            x       y       z     vdW  Elec       q    Type
                         _______ _______ _______ _____ _____    ______ ____

>  <TORSDO>
F 17

$$$$
