=
 OpenBabel11042410053D

 29 32  0  0  1  0  0  0  0  0999 V2000
  187.2560  177.8360  146.1040 C   0  0  0  0  0  0  0  0  0  0  0  0
  191.0140  176.2880  143.4450 C   0  0  0  0  0  0  0  0  0  0  0  0
  187.9800  177.2360  141.6260 C   0  0  0  0  0  3  0  0  0  0  0  0
  190.3930  177.2270  141.5950 C   0  0  0  0  0  0  0  0  0  0  0  0
  191.5080  176.8450  142.3830 N   0  0  0  0  0  0  0  0  0  0  0  0
  189.2120  178.1920  139.7450 C   0  0  0  0  0  0  0  0  0  0  0  0
  189.3830  177.3380  147.0860 N   0  0  0  0  0  0  0  0  0  0  0  0
  189.5060  176.2210  143.4870 C   0  0  1  0  0  3  0  0  0  0  0  0
  189.0250  176.8720  144.7600 C   0  0  0  0  0  0  0  0  0  0  0  0
  187.9910  177.8740  140.3750 C   0  0  0  0  0  3  0  0  0  0  0  0
  191.7880  176.1280  144.6350 N   0  0  0  0  0  0  0  0  0  0  0  0
  188.1190  177.8260  147.2080 C   0  0  0  0  0  3  0  0  0  0  0  0
  190.4330  177.8650  140.3580 C   0  0  0  0  0  3  0  0  0  0  0  0
  189.2060  178.8710  138.4230 C   0  0  0  0  0  1  0  0  0  0  0  0
  192.0850  176.1880  147.0230 C   0  0  0  0  0  1  0  0  0  0  0  0
  187.7130  177.3440  144.8810 C   0  0  0  0  0  3  0  0  0  0  0  0
  189.8540  176.8560  145.9040 C   0  0  0  0  0  0  0  0  0  0  0  0
  191.2510  176.3520  145.8010 C   0  0  0  0  0  0  0  0  0  0  0  0
  189.2060  176.9500  142.2250 C   0  0  0  0  0  0  0  0  0  0  0  0
  185.7550  179.4060  147.3140 C   0  0  0  0  0  1  0  0  0  0  0  0
  185.8580  178.3670  146.2120 C   0  0  1  0  0  3  0  0  0  0  0  0
  185.3870  178.9610  144.8890 C   0  0  0  0  0  2  0  0  0  0  0  0
  183.8700  178.9820  144.8230 C   0  0  0  0  0  2  0  0  0  0  0  0
  183.4140  178.8490  143.3820 C   0  0  0  0  0  2  0  0  0  0  0  0
  184.5610  178.3680  142.5080 C   0  0  0  0  0  2  0  0  0  0  0  0
  183.7640  177.9510  139.7890 O   0  0  0  0  0  0  0  0  0  0  0  0
  184.7830  179.2950  141.4060 N   0  0  0  0  0  2  0  0  0  0  0  0
  184.6580  179.9530  139.0340 N   0  0  0  0  0  1  0  0  0  0  0  0
  184.3740  179.0180  140.0660 C   0  0  0  0  0  0  0  0  0  0  0  0
  1 21  1  0  0  0  0
  1 12  1  0  0  0  0
  2  8  1  0  0  0  0
  2 11  1  0  0  0  0
  3 19  1  0  0  0  0
  4 19  2  0  0  0  0
  4  5  1  0  0  0  0
  5  2  2  0  0  0  0
  6 13  2  0  0  0  0
  6 10  1  0  0  0  0
  7 12  2  0  0  0  0
  8 19  1  6  0  0  0
  8  9  1  0  0  0  0
  9 16  1  0  0  0  0
  9 17  2  0  0  0  0
 10  3  2  0  0  0  0
 11 18  2  0  0  0  0
 13  4  1  0  0  0  0
 14  6  1  0  0  0  0
 16  1  2  0  0  0  0
 17  7  1  0  0  0  0
 18 17  1  0  0  0  0
 18 15  1  0  0  0  0
 21 20  1  1  0  0  0
 22 21  1  0  0  0  0
 23 22  1  0  0  0  0
 24 23  1  0  0  0  0
 25 24  1  0  0  0  0
 26 29  2  0  0  0  0
 27 25  1  0  0  0  0
 28 29  1  0  0  0  0
 29 27  1  0  0  0  0
M  END
>  <MODEL>
1

>  <REMARK>
 VINA RESULT:      -9.5      0.000      0.000
  Name = 
  6 active torsions:
  status: ('A' for Active; 'I' for Inactive)
    1  A    between atoms: C_1  and  C_27
    2  A    between atoms: C_17  and  C_19
    3  A    between atoms: C_17  and  C_29
    4  A    between atoms: C_19  and  C_27
    5  A    between atoms: N_21  and  C_26
    6  A    between atoms: C_26  and  C_29
                            x       y       z     vdW  Elec       q    Type
                         _______ _______ _______ _____ _____    ______ ____

>  <TORSDO>
F 6

$$$$
=
 OpenBabel11042410053D

 29 32  0  0  1  0  0  0  0  0999 V2000
  185.4420  178.2860  144.5460 C   0  0  0  0  0  0  0  0  0  0  0  0
  189.9740  177.0350  145.7620 C   0  0  0  0  0  0  0  0  0  0  0  0
  189.0460  176.6640  142.2390 C   0  0  0  0  0  3  0  0  0  0  0  0
  190.8130  177.2410  143.7760 C   0  0  0  0  0  0  0  0  0  0  0  0
  191.0720  177.3790  145.1630 N   0  0  0  0  0  0  0  0  0  0  0  0
  191.2480  177.3340  141.4200 C   0  0  0  0  0  0  0  0  0  0  0  0
  186.2970  178.6180  146.7580 N   0  0  0  0  0  0  0  0  0  0  0  0
  188.8520  176.6130  144.8440 C   0  0  1  0  0  3  0  0  0  0  0  0
  187.6360  177.4530  145.1430 C   0  0  0  0  0  0  0  0  0  0  0  0
  189.9250  176.9120  141.1730 C   0  0  0  0  0  3  0  0  0  0  0  0
  189.7120  177.4060  147.1160 N   0  0  0  0  0  0  0  0  0  0  0  0
  185.3050  178.7950  145.8450 C   0  0  0  0  0  3  0  0  0  0  0  0
  191.7050  177.5000  142.7380 C   0  0  0  0  0  3  0  0  0  0  0  0
  192.1650  177.5960  140.2800 C   0  0  0  0  0  1  0  0  0  0  0  0
  188.2810  178.1980  148.8830 C   0  0  0  0  0  1  0  0  0  0  0  0
  186.6090  177.6020  144.2050 C   0  0  0  0  0  3  0  0  0  0  0  0
  187.4470  177.9590  146.4490 C   0  0  0  0  0  0  0  0  0  0  0  0
  188.5220  177.8060  147.4670 C   0  0  0  0  0  0  0  0  0  0  0  0
  189.5160  176.8660  143.5360 C   0  0  0  0  0  0  0  0  0  0  0  0
  183.2650  179.3760  144.0410 C   0  0  0  0  0  1  0  0  0  0  0  0
  184.3630  178.4650  143.5200 C   0  0  1  0  0  3  0  0  0  0  0  0
  184.9250  179.0160  142.2150 C   0  0  0  0  0  2  0  0  0  0  0  0
  184.1870  178.4280  141.0250 C   0  0  0  0  0  2  0  0  0  0  0  0
  184.5530  179.1880  139.7630 C   0  0  0  0  0  2  0  0  0  0  0  0
  185.3290  178.2910  138.8130 C   0  0  0  0  0  2  0  0  0  0  0  0
  187.2910  177.5550  136.8610 O   0  0  0  0  0  0  0  0  0  0  0  0
  186.7550  178.5810  138.8910 N   0  0  0  0  0  2  0  0  0  0  0  0
  189.0680  178.4560  138.0480 N   0  0  0  0  0  1  0  0  0  0  0  0
  187.6840  178.1700  137.8870 C   0  0  0  0  0  0  0  0  0  0  0  0
  1 12  1  0  0  0  0
  2 11  1  0  0  0  0
  3 19  1  0  0  0  0
  4  5  1  0  0  0  0
  5  2  2  0  0  0  0
  6 13  2  0  0  0  0
  8 19  1  6  0  0  0
  8  9  1  0  0  0  0
  8  2  1  0  0  0  0
  9 17  2  0  0  0  0
 10  6  1  0  0  0  0
 10  3  2  0  0  0  0
 11 18  2  0  0  0  0
 12  7  2  0  0  0  0
 13  4  1  0  0  0  0
 14  6  1  0  0  0  0
 16  1  2  0  0  0  0
 16  9  1  0  0  0  0
 17  7  1  0  0  0  0
 17 18  1  0  0  0  0
 18 15  1  0  0  0  0
 19  4  2  0  0  0  0
 21 20  1  1  0  0  0
 21  1  1  0  0  0  0
 22 21  1  0  0  0  0
 23 22  1  0  0  0  0
 24 23  1  0  0  0  0
 25 27  1  0  0  0  0
 25 24  1  0  0  0  0
 26 29  2  0  0  0  0
 29 28  1  0  0  0  0
 29 27  1  0  0  0  0
M  END
>  <MODEL>
2

>  <REMARK>
 VINA RESULT:      -9.5      1.750      3.187
  Name = 
  6 active torsions:
  status: ('A' for Active; 'I' for Inactive)
    1  A    between atoms: C_1  and  C_27
    2  A    between atoms: C_17  and  C_19
    3  A    between atoms: C_17  and  C_29
    4  A    between atoms: C_19  and  C_27
    5  A    between atoms: N_21  and  C_26
    6  A    between atoms: C_26  and  C_29
                            x       y       z     vdW  Elec       q    Type
                         _______ _______ _______ _____ _____    ______ ____

>  <TORSDO>
F 6

$$$$
=
 OpenBabel11042410053D

 29 32  0  0  1  0  0  0  0  0999 V2000
  185.4740  178.2830  144.9390 C   0  0  0  0  0  0  0  0  0  0  0  0
  190.0580  177.0270  145.9390 C   0  0  0  0  0  0  0  0  0  0  0  0
  188.9540  176.6290  142.4700 C   0  0  0  0  0  3  0  0  0  0  0  0
  190.7980  177.2130  143.9130 C   0  0  0  0  0  0  0  0  0  0  0  0
  191.1260  177.3620  145.2830 N   0  0  0  0  0  0  0  0  0  0  0  0
  191.1150  177.2830  141.5370 C   0  0  0  0  0  0  0  0  0  0  0  0
  186.4400  178.6330  147.1030 N   0  0  0  0  0  0  0  0  0  0  0  0
  188.8910  176.6020  145.0820 C   0  0  1  0  0  3  0  0  0  0  0  0
  187.6930  177.4480  145.4340 C   0  0  0  0  0  0  0  0  0  0  0  0
  189.7800  176.8640  141.3590 C   0  0  0  0  0  3  0  0  0  0  0  0
  189.8640  177.4120  147.3020 N   0  0  0  0  0  0  0  0  0  0  0  0
  185.4040  178.8040  146.2380 C   0  0  0  0  0  3  0  0  0  0  0  0
  191.6380  177.4600  142.8290 C   0  0  0  0  0  3  0  0  0  0  0  0
  191.9750  177.5320  140.3500 C   0  0  0  0  0  1  0  0  0  0  0  0
  188.5250  178.2240  149.1300 C   0  0  0  0  0  1  0  0  0  0  0  0
  186.6210  177.5920  144.5460 C   0  0  0  0  0  3  0  0  0  0  0  0
  187.5710  177.9670  146.7430 C   0  0  0  0  0  0  0  0  0  0  0  0
  188.6950  177.8190  147.7070 C   0  0  0  0  0  0  0  0  0  0  0  0
  189.4890  176.8400  143.7400 C   0  0  0  0  0  0  0  0  0  0  0  0
  183.1330  179.0660  144.6460 C   0  0  0  0  0  1  0  0  0  0  0  0
  184.3460  178.4570  143.9660 C   0  0  1  0  0  3  0  0  0  0  0  0
  184.7660  179.3140  142.7780 C   0  0  0  0  0  2  0  0  0  0  0  0
  184.4460  178.6090  141.4710 C   0  0  0  0  0  2  0  0  0  0  0  0
  185.6150  178.7460  140.5120 C   0  0  0  0  0  2  0  0  0  0  0  0
  185.1110  178.9230  139.0890 C   0  0  0  0  0  2  0  0  0  0  0  0
  182.2980  178.8300  138.5560 O   0  0  0  0  0  0  0  0  0  0  0  0
  184.2240  180.0770  139.0040 N   0  0  0  0  0  2  0  0  0  0  0  0
  182.0320  181.1340  138.6140 N   0  0  0  0  0  1  0  0  0  0  0  0
  182.8290  179.9610  138.7180 C   0  0  0  0  0  0  0  0  0  0  0  0
  1 12  1  0  0  0  0
  2 11  1  0  0  0  0
  3 19  1  0  0  0  0
  4  5  1  0  0  0  0
  5  2  2  0  0  0  0
  6 13  2  0  0  0  0
  8 19  1  6  0  0  0
  8  9  1  0  0  0  0
  8  2  1  0  0  0  0
  9 17  2  0  0  0  0
 10  6  1  0  0  0  0
 10  3  2  0  0  0  0
 11 18  2  0  0  0  0
 12  7  2  0  0  0  0
 13  4  1  0  0  0  0
 14  6  1  0  0  0  0
 16  1  2  0  0  0  0
 16  9  1  0  0  0  0
 17  7  1  0  0  0  0
 17 18  1  0  0  0  0
 18 15  1  0  0  0  0
 19  4  2  0  0  0  0
 21 20  1  1  0  0  0
 21  1  1  0  0  0  0
 22 21  1  0  0  0  0
 23 22  1  0  0  0  0
 24 23  1  0  0  0  0
 25 24  1  0  0  0  0
 26 29  2  0  0  0  0
 27 25  1  0  0  0  0
 28 29  1  0  0  0  0
 29 27  1  0  0  0  0
M  END
>  <MODEL>
3

>  <REMARK>
 VINA RESULT:      -9.2      1.540      2.834
  Name = 
  6 active torsions:
  status: ('A' for Active; 'I' for Inactive)
    1  A    between atoms: C_1  and  C_27
    2  A    between atoms: C_17  and  C_19
    3  A    between atoms: C_17  and  C_29
    4  A    between atoms: C_19  and  C_27
    5  A    between atoms: N_21  and  C_26
    6  A    between atoms: C_26  and  C_29
                            x       y       z     vdW  Elec       q    Type
                         _______ _______ _______ _____ _____    ______ ____

>  <TORSDO>
F 6

$$$$
=
 OpenBabel11042410053D

 29 32  0  0  1  0  0  0  0  0999 V2000
  185.4260  178.6110  144.6860 C   0  0  0  0  0  0  0  0  0  0  0  0
  189.8480  176.9270  145.7790 C   0  0  0  0  0  0  0  0  0  0  0  0
  188.8580  176.8090  142.2550 C   0  0  0  0  0  3  0  0  0  0  0  0
  190.6830  177.1600  143.7940 C   0  0  0  0  0  0  0  0  0  0  0  0
  190.9650  177.2070  145.1820 N   0  0  0  0  0  0  0  0  0  0  0  0
  191.1010  177.3320  141.4390 C   0  0  0  0  0  0  0  0  0  0  0  0
  186.3270  178.7610  146.9000 N   0  0  0  0  0  0  0  0  0  0  0  0
  188.6860  176.6470  144.8560 C   0  0  1  0  0  3  0  0  0  0  0  0
  187.5470  177.5690  145.2130 C   0  0  0  0  0  0  0  0  0  0  0  0
  189.7450  177.0350  141.1900 C   0  0  0  0  0  3  0  0  0  0  0  0
  189.6310  177.2520  147.1530 N   0  0  0  0  0  0  0  0  0  0  0  0
  185.3440  179.0650  146.0100 C   0  0  0  0  0  3  0  0  0  0  0  0
  191.5830  177.3950  142.7570 C   0  0  0  0  0  3  0  0  0  0  0  0
  192.0260  177.5720  140.3010 C   0  0  0  0  0  1  0  0  0  0  0  0
  188.2880  178.0730  148.9750 C   0  0  0  0  0  1  0  0  0  0  0  0
  186.5270  177.8490  144.2970 C   0  0  0  0  0  3  0  0  0  0  0  0
  187.4140  178.0240  146.5440 C   0  0  0  0  0  0  0  0  0  0  0  0
  188.4820  177.7320  147.5380 C   0  0  0  0  0  0  0  0  0  0  0  0
  189.3560  176.9070  143.5540 C   0  0  0  0  0  0  0  0  0  0  0  0
  184.5290  178.1040  142.4230 C   0  0  0  0  0  1  0  0  0  0  0  0
  184.3560  178.9300  143.6850 C   0  0  1  0  0  3  0  0  0  0  0  0
  182.9650  178.7070  144.2700 C   0  0  0  0  0  2  0  0  0  0  0  0
  181.8950  179.1240  143.2760 C   0  0  0  0  0  2  0  0  0  0  0  0
  180.5340  178.6510  143.7540 C   0  0  0  0  0  2  0  0  0  0  0  0
  179.5390  178.6600  142.6060 C   0  0  0  0  0  2  0  0  0  0  0  0
  180.4660  177.7620  140.0500 O   0  0  0  0  0  0  0  0  0  0  0  0
  179.3730  177.3160  142.0670 N   0  0  0  0  0  2  0  0  0  0  0  0
  179.6160  175.6180  140.2970 N   0  0  0  0  0  1  0  0  0  0  0  0
  179.8470  176.9370  140.7740 C   0  0  0  0  0  0  0  0  0  0  0  0
  1 12  1  0  0  0  0
  2 11  1  0  0  0  0
  3 19  1  0  0  0  0
  4  5  1  0  0  0  0
  5  2  2  0  0  0  0
  6 13  2  0  0  0  0
  8 19  1  6  0  0  0
  8  9  1  0  0  0  0
  8  2  1  0  0  0  0
  9 17  2  0  0  0  0
 10  6  1  0  0  0  0
 10  3  2  0  0  0  0
 11 18  2  0  0  0  0
 12  7  2  0  0  0  0
 13  4  1  0  0  0  0
 14  6  1  0  0  0  0
 16  1  2  0  0  0  0
 16  9  1  0  0  0  0
 17  7  1  0  0  0  0
 17 18  1  0  0  0  0
 18 15  1  0  0  0  0
 19  4  2  0  0  0  0
 21 20  1  6  0  0  0
 21 22  1  0  0  0  0
 21  1  1  0  0  0  0
 23 24  1  0  0  0  0
 23 22  1  0  0  0  0
 25 24  1  0  0  0  0
 26 29  2  0  0  0  0
 27 25  1  0  0  0  0
 28 29  1  0  0  0  0
 29 27  1  0  0  0  0
M  END
>  <MODEL>
4

>  <REMARK>
 VINA RESULT:      -9.1      2.392      3.443
  Name = 
  6 active torsions:
  status: ('A' for Active; 'I' for Inactive)
    1  A    between atoms: C_1  and  C_27
    2  A    between atoms: C_17  and  C_19
    3  A    between atoms: C_17  and  C_29
    4  A    between atoms: C_19  and  C_27
    5  A    between atoms: N_21  and  C_26
    6  A    between atoms: C_26  and  C_29
                            x       y       z     vdW  Elec       q    Type
                         _______ _______ _______ _____ _____    ______ ____

>  <TORSDO>
F 6

$$$$
=
 OpenBabel11042410053D

 29 32  0  0  1  0  0  0  0  0999 V2000
  189.0800  177.3340  141.1220 C   0  0  0  0  0  0  0  0  0  0  0  0
  185.0420  178.5550  143.5270 C   0  0  0  0  0  0  0  0  0  0  0  0
  187.6960  176.9390  145.4650 C   0  0  0  0  0  3  0  0  0  0  0  0
  185.9480  178.6010  145.4940 C   0  0  0  0  0  0  0  0  0  0  0  0
  184.9610  179.1840  144.6590 N   0  0  0  0  0  0  0  0  0  0  0  0
  187.2750  178.2780  147.4650 C   0  0  0  0  0  0  0  0  0  0  0  0
  187.3040  178.5540  140.0770 N   0  0  0  0  0  0  0  0  0  0  0  0
  186.0870  177.4670  143.4760 C   0  0  1  0  0  3  0  0  0  0  0  0
  187.0090  177.7310  142.3120 C   0  0  0  0  0  0  0  0  0  0  0  0
  188.0000  177.2710  146.7950 C   0  0  0  0  0  3  0  0  0  0  0  0
  184.4940  179.1020  142.3260 N   0  0  0  0  0  0  0  0  0  0  0  0
  188.5620  178.0400  140.0270 C   0  0  0  0  0  3  0  0  0  0  0  0
  186.2320  178.9560  146.8110 C   0  0  0  0  0  3  0  0  0  0  0  0
  187.6120  178.6200  148.8710 C   0  0  0  0  0  1  0  0  0  0  0  0
  184.5610  179.6000  139.9730 C   0  0  0  0  0  1  0  0  0  0  0  0
  188.2900  177.1710  142.2600 C   0  0  0  0  0  3  0  0  0  0  0  0
  186.5150  178.4140  141.1770 C   0  0  0  0  0  0  0  0  0  0  0  0
  185.1520  179.0110  141.2060 C   0  0  0  0  0  0  0  0  0  0  0  0
  186.6760  177.6470  144.8310 C   0  0  0  0  0  0  0  0  0  0  0  0
  191.3430  177.5010  140.1060 C   0  0  0  0  0  1  0  0  0  0  0  0
  190.4630  176.7550  141.0920 C   0  0  1  0  0  3  0  0  0  0  0  0
  191.1000  176.7710  142.4770 C   0  0  0  0  0  2  0  0  0  0  0  0
  191.6680  178.1450  142.7890 C   0  0  0  0  0  2  0  0  0  0  0  0
  191.6350  178.3890  144.2860 C   0  0  0  0  0  2  0  0  0  0  0  0
  191.2070  177.1270  145.0170 C   0  0  0  0  0  2  0  0  0  0  0  0
  192.4270  174.8950  146.3330 O   0  0  0  0  0  0  0  0  0  0  0  0
  191.7310  177.1260  146.3770 N   0  0  0  0  0  2  0  0  0  0  0  0
  192.7700  176.0320  148.3260 N   0  0  0  0  0  1  0  0  0  0  0  0
  192.3140  175.9700  146.9810 C   0  0  0  0  0  0  0  0  0  0  0  0
  1 16  1  0  0  0  0
  2  5  2  0  0  0  0
  3 10  1  0  0  0  0
  4 13  2  0  0  0  0
  5  4  1  0  0  0  0
  6 14  1  0  0  0  0
  7 17  2  0  0  0  0
  8  9  1  6  0  0  0
  8  2  1  0  0  0  0
  8 19  1  0  0  0  0
 10  6  2  0  0  0  0
 11  2  1  0  0  0  0
 12  7  1  0  0  0  0
 12  1  2  0  0  0  0
 13  6  1  0  0  0  0
 15 18  1  0  0  0  0
 16  9  2  0  0  0  0
 17 18  1  0  0  0  0
 17  9  1  0  0  0  0
 18 11  2  0  0  0  0
 19  3  2  0  0  0  0
 19  4  1  0  0  0  0
 21 20  1  6  0  0  0
 21  1  1  0  0  0  0
 21 22  1  0  0  0  0
 22 23  1  0  0  0  0
 23 24  1  0  0  0  0
 24 25  1  0  0  0  0
 25 27  1  0  0  0  0
 26 29  2  0  0  0  0
 27 29  1  0  0  0  0
 29 28  1  0  0  0  0
M  END
>  <MODEL>
5

>  <REMARK>
 VINA RESULT:      -8.9      2.642      7.766
  Name = 
  6 active torsions:
  status: ('A' for Active; 'I' for Inactive)
    1  A    between atoms: C_1  and  C_27
    2  A    between atoms: C_17  and  C_19
    3  A    between atoms: C_17  and  C_29
    4  A    between atoms: C_19  and  C_27
    5  A    between atoms: N_21  and  C_26
    6  A    between atoms: C_26  and  C_29
                            x       y       z     vdW  Elec       q    Type
                         _______ _______ _______ _____ _____    ______ ____

>  <TORSDO>
F 6

$$$$
=
 OpenBabel11042410053D

 29 32  0  0  1  0  0  0  0  0999 V2000
  187.0810  178.0620  141.6540 C   0  0  0  0  0  0  0  0  0  0  0  0
  184.6670  178.3740  145.8560 C   0  0  0  0  0  0  0  0  0  0  0  0
  188.1000  177.1110  146.0120 C   0  0  0  0  0  3  0  0  0  0  0  0
  186.4190  178.4330  147.1270 C   0  0  0  0  0  0  0  0  0  0  0  0
  185.0880  178.8930  146.9680 N   0  0  0  0  0  0  0  0  0  0  0  0
  188.5780  178.2030  148.1440 C   0  0  0  0  0  0  0  0  0  0  0  0
  184.8920  179.0250  141.7880 N   0  0  0  0  0  0  0  0  0  0  0  0
  185.6660  177.4930  145.1450 C   0  0  1  0  0  3  0  0  0  0  0  0
  185.8470  178.0000  143.7370 C   0  0  0  0  0  0  0  0  0  0  0  0
  188.9850  177.3910  147.0650 C   0  0  0  0  0  3  0  0  0  0  0  0
  183.5340  178.9020  145.1640 N   0  0  0  0  0  0  0  0  0  0  0  0
  186.0090  178.7440  141.0640 C   0  0  0  0  0  3  0  0  0  0  0  0
  187.2780  178.7330  148.1820 C   0  0  0  0  0  3  0  0  0  0  0  0
  189.5280  178.4940  149.2490 C   0  0  0  0  0  1  0  0  0  0  0  0
  182.3620  179.5770  143.1730 C   0  0  0  0  0  1  0  0  0  0  0  0
  186.9880  177.6790  142.9920 C   0  0  0  0  0  3  0  0  0  0  0  0
  184.7780  178.6670  143.0960 C   0  0  0  0  0  0  0  0  0  0  0  0
  183.5520  179.0120  143.8660 C   0  0  0  0  0  0  0  0  0  0  0  0
  186.8260  177.6730  146.0600 C   0  0  0  0  0  0  0  0  0  0  0  0
  188.4280  178.6080  139.6360 C   0  0  0  0  0  1  0  0  0  0  0  0
  188.3220  177.7390  140.8770 C   0  0  1  0  0  3  0  0  0  0  0  0
  189.5710  177.8990  141.7360 C   0  0  0  0  0  2  0  0  0  0  0  0
  190.3320  176.5870  141.8240 C   0  0  0  0  0  2  0  0  0  0  0  0
  190.2250  176.0220  143.2280 C   0  0  0  0  0  2  0  0  0  0  0  0
  191.6090  175.8450  143.8320 C   0  0  0  0  0  2  0  0  0  0  0  0
  192.4990  174.7270  146.3140 O   0  0  0  0  0  0  0  0  0  0  0  0
  191.7040  176.5590  145.0990 N   0  0  0  0  0  2  0  0  0  0  0  0
  192.1740  176.6850  147.5150 N   0  0  0  0  0  1  0  0  0  0  0  0
  192.1420  175.9360  146.3070 C   0  0  0  0  0  0  0  0  0  0  0  0
  1 16  1  0  0  0  0
  2  5  2  0  0  0  0
  3 19  2  0  0  0  0
  3 10  1  0  0  0  0
  4 13  2  0  0  0  0
  5  4  1  0  0  0  0
  6 13  1  0  0  0  0
  6 14  1  0  0  0  0
  7 17  2  0  0  0  0
  8  9  1  6  0  0  0
  8  2  1  0  0  0  0
  8 19  1  0  0  0  0
 10  6  2  0  0  0  0
 11  2  1  0  0  0  0
 12  1  2  0  0  0  0
 12  7  1  0  0  0  0
 15 18  1  0  0  0  0
 16  9  2  0  0  0  0
 17  9  1  0  0  0  0
 17 18  1  0  0  0  0
 18 11  2  0  0  0  0
 19  4  1  0  0  0  0
 21 20  1  6  0  0  0
 21  1  1  0  0  0  0
 21 22  1  0  0  0  0
 22 23  1  0  0  0  0
 23 24  1  0  0  0  0
 24 25  1  0  0  0  0
 25 27  1  0  0  0  0
 27 29  1  0  0  0  0
 29 26  2  0  0  0  0
 29 28  1  0  0  0  0
M  END
>  <MODEL>
6

>  <REMARK>
 VINA RESULT:      -8.9      2.693      7.679
  Name = 
  6 active torsions:
  status: ('A' for Active; 'I' for Inactive)
    1  A    between atoms: C_1  and  C_27
    2  A    between atoms: C_17  and  C_19
    3  A    between atoms: C_17  and  C_29
    4  A    between atoms: C_19  and  C_27
    5  A    between atoms: N_21  and  C_26
    6  A    between atoms: C_26  and  C_29
                            x       y       z     vdW  Elec       q    Type
                         _______ _______ _______ _____ _____    ______ ____

>  <TORSDO>
F 6

$$$$
=
 OpenBabel11042410053D

 29 32  0  0  1  0  0  0  0  0999 V2000
  187.2290  178.4440  141.6100 C   0  0  0  0  0  0  0  0  0  0  0  0
  184.9580  178.2320  145.8970 C   0  0  0  0  0  0  0  0  0  0  0  0
  188.4720  177.2030  145.8350 C   0  0  0  0  0  3  0  0  0  0  0  0
  186.7490  178.3060  147.1130 C   0  0  0  0  0  0  0  0  0  0  0  0
  185.3850  178.6840  147.0360 N   0  0  0  0  0  0  0  0  0  0  0  0
  188.9560  178.1430  148.0370 C   0  0  0  0  0  0  0  0  0  0  0  0
  184.9870  179.2370  141.8960 N   0  0  0  0  0  0  0  0  0  0  0  0
  185.9870  177.4860  145.0820 C   0  0  1  0  0  3  0  0  0  0  0  0
  186.0810  178.1210  143.7170 C   0  0  0  0  0  0  0  0  0  0  0  0
  189.3750  177.4550  146.8800 C   0  0  0  0  0  3  0  0  0  0  0  0
  183.7670  178.7360  145.2900 N   0  0  0  0  0  0  0  0  0  0  0  0
  186.0920  179.0970  141.1150 C   0  0  0  0  0  3  0  0  0  0  0  0
  187.6250  178.5750  148.1630 C   0  0  0  0  0  3  0  0  0  0  0  0
  189.9250  178.4050  149.1330 C   0  0  0  0  0  1  0  0  0  0  0  0
  182.4790  179.4930  143.4030 C   0  0  0  0  0  1  0  0  0  0  0  0
  187.2110  177.9450  142.9120 C   0  0  0  0  0  3  0  0  0  0  0  0
  184.9470  178.7640  143.1710 C   0  0  0  0  0  0  0  0  0  0  0  0
  183.7300  178.9560  144.0070 C   0  0  0  0  0  0  0  0  0  0  0  0
  187.1650  177.6690  145.9720 C   0  0  0  0  0  0  0  0  0  0  0  0
  189.3420  177.1680  141.3150 C   0  0  0  0  0  1  0  0  0  0  0  0
  188.4590  178.2750  140.7690 C   0  0  1  0  0  3  0  0  0  0  0  0
  188.1010  177.9890  139.3150 C   0  0  0  0  0  2  0  0  0  0  0  0
  189.3050  178.2110  138.4150 C   0  0  0  0  0  2  0  0  0  0  0  0
  189.3290  177.1620  137.3180 C   0  0  0  0  0  2  0  0  0  0  0  0
  190.6950  176.4980  137.2530 C   0  0  0  0  0  2  0  0  0  0  0  0
  193.5540  176.5910  137.3930 O   0  0  0  0  0  0  0  0  0  0  0  0
  191.4770  176.8290  138.4380 N   0  0  0  0  0  2  0  0  0  0  0  0
  193.6030  177.1370  139.6470 N   0  0  0  0  0  1  0  0  0  0  0  0
  192.9060  176.8410  138.4430 C   0  0  0  0  0  0  0  0  0  0  0  0
  1 16  1  0  0  0  0
  2  5  2  0  0  0  0
  3 19  2  0  0  0  0
  3 10  1  0  0  0  0
  4 13  2  0  0  0  0
  5  4  1  0  0  0  0
  6 13  1  0  0  0  0
  6 14  1  0  0  0  0
  7 17  2  0  0  0  0
  8  9  1  6  0  0  0
  8  2  1  0  0  0  0
  8 19  1  0  0  0  0
 10  6  2  0  0  0  0
 11  2  1  0  0  0  0
 12  1  2  0  0  0  0
 12  7  1  0  0  0  0
 15 18  1  0  0  0  0
 16  9  2  0  0  0  0
 17  9  1  0  0  0  0
 17 18  1  0  0  0  0
 18 11  2  0  0  0  0
 19  4  1  0  0  0  0
 21 20  1  1  0  0  0
 21  1  1  0  0  0  0
 22 21  1  0  0  0  0
 23 22  1  0  0  0  0
 24 23  1  0  0  0  0
 25 24  1  0  0  0  0
 25 27  1  0  0  0  0
 26 29  2  0  0  0  0
 27 29  1  0  0  0  0
 29 28  1  0  0  0  0
M  END
>  <MODEL>
7

>  <REMARK>
 VINA RESULT:      -8.8      2.793      7.427
  Name = 
  6 active torsions:
  status: ('A' for Active; 'I' for Inactive)
    1  A    between atoms: C_1  and  C_27
    2  A    between atoms: C_17  and  C_19
    3  A    between atoms: C_17  and  C_29
    4  A    between atoms: C_19  and  C_27
    5  A    between atoms: N_21  and  C_26
    6  A    between atoms: C_26  and  C_29
                            x       y       z     vdW  Elec       q    Type
                         _______ _______ _______ _____ _____    ______ ____

>  <TORSDO>
F 6

$$$$
=
 OpenBabel11042410053D

 29 32  0  0  1  0  0  0  0  0999 V2000
  187.4480  178.0480  146.7690 C   0  0  0  0  0  0  0  0  0  0  0  0
  191.0520  176.2180  144.0780 C   0  0  0  0  0  0  0  0  0  0  0  0
  188.0010  177.2020  142.3070 C   0  0  0  0  0  3  0  0  0  0  0  0
  190.4090  177.0910  142.2030 C   0  0  0  0  0  0  0  0  0  0  0  0
  191.5330  176.7020  142.9740 N   0  0  0  0  0  0  0  0  0  0  0  0
  189.2080  178.0140  140.3440 C   0  0  0  0  0  0  0  0  0  0  0  0
  189.5840  177.5100  147.7100 N   0  0  0  0  0  0  0  0  0  0  0  0
  189.5450  176.2160  144.1690 C   0  0  1  0  0  3  0  0  0  0  0  0
  189.1320  176.9480  145.4220 C   0  0  0  0  0  0  0  0  0  0  0  0
  187.9970  177.7770  141.0260 C   0  0  0  0  0  3  0  0  0  0  0  0
  191.8580  176.0840  145.2500 N   0  0  0  0  0  0  0  0  0  0  0  0
  188.3450  178.0560  147.8460 C   0  0  0  0  0  3  0  0  0  0  0  0
  190.4350  177.6670  140.9350 C   0  0  0  0  0  3  0  0  0  0  0  0
  189.1860  178.6270  138.9900 C   0  0  0  0  0  1  0  0  0  0  0  0
  192.2340  176.2480  147.6220 C   0  0  0  0  0  1  0  0  0  0  0  0
  187.8450  177.4790  145.5600 C   0  0  0  0  0  3  0  0  0  0  0  0
  189.9970  176.9530  146.5400 C   0  0  0  0  0  0  0  0  0  0  0  0
  191.3680  176.3870  146.4190 C   0  0  0  0  0  0  0  0  0  0  0  0
  189.2340  176.8940  142.8820 C   0  0  0  0  0  0  0  0  0  0  0  0
  186.0770  179.8150  147.8560 C   0  0  0  0  0  1  0  0  0  0  0  0
  186.0760  178.6420  146.8930 C   0  0  1  0  0  3  0  0  0  0  0  0
  185.5370  179.0790  145.5360 C   0  0  0  0  0  2  0  0  0  0  0  0
  184.0970  178.6290  145.3630 C   0  0  0  0  0  2  0  0  0  0  0  0
  183.7350  178.6130  143.8890 C   0  0  0  0  0  2  0  0  0  0  0  0
  182.5750  179.5590  143.6210 C   0  0  0  0  0  2  0  0  0  0  0  0
  180.0530  180.6640  142.8340 O   0  0  0  0  0  0  0  0  0  0  0  0
  181.3400  178.8090  143.4380 N   0  0  0  0  0  2  0  0  0  0  0  0
  178.9320  178.6360  142.9370 N   0  0  0  0  0  1  0  0  0  0  0  0
  180.1080  179.4260  143.0600 C   0  0  0  0  0  0  0  0  0  0  0  0
  1 21  1  0  0  0  0
  1 12  1  0  0  0  0
  2  8  1  0  0  0  0
  2 11  1  0  0  0  0
  3 19  1  0  0  0  0
  4 19  2  0  0  0  0
  4  5  1  0  0  0  0
  5  2  2  0  0  0  0
  6 13  2  0  0  0  0
  6 10  1  0  0  0  0
  7 12  2  0  0  0  0
  8 19  1  6  0  0  0
  8  9  1  0  0  0  0
  9 16  1  0  0  0  0
  9 17  2  0  0  0  0
 10  3  2  0  0  0  0
 11 18  2  0  0  0  0
 13  4  1  0  0  0  0
 14  6  1  0  0  0  0
 16  1  2  0  0  0  0
 17  7  1  0  0  0  0
 18 17  1  0  0  0  0
 18 15  1  0  0  0  0
 21 20  1  1  0  0  0
 22 21  1  0  0  0  0
 23 22  1  0  0  0  0
 24 23  1  0  0  0  0
 25 24  1  0  0  0  0
 26 29  2  0  0  0  0
 27 25  1  0  0  0  0
 28 29  1  0  0  0  0
 29 27  1  0  0  0  0
M  END
>  <MODEL>
8

>  <REMARK>
 VINA RESULT:      -8.7      1.920      2.205
  Name = 
  6 active torsions:
  status: ('A' for Active; 'I' for Inactive)
    1  A    between atoms: C_1  and  C_27
    2  A    between atoms: C_17  and  C_19
    3  A    between atoms: C_17  and  C_29
    4  A    between atoms: C_19  and  C_27
    5  A    between atoms: N_21  and  C_26
    6  A    between atoms: C_26  and  C_29
                            x       y       z     vdW  Elec       q    Type
                         _______ _______ _______ _____ _____    ______ ____

>  <TORSDO>
F 6

$$$$
=
 OpenBabel11042410053D

 29 32  0  0  1  0  0  0  0  0999 V2000
  187.3100  178.3480  141.7070 C   0  0  0  0  0  0  0  0  0  0  0  0
  185.0850  178.2100  146.0210 C   0  0  0  0  0  0  0  0  0  0  0  0
  188.5890  177.1480  145.9330 C   0  0  0  0  0  3  0  0  0  0  0  0
  186.8900  178.2830  147.2170 C   0  0  0  0  0  0  0  0  0  0  0  0
  185.5290  178.6720  147.1500 N   0  0  0  0  0  0  0  0  0  0  0  0
  189.1050  178.1110  148.1180 C   0  0  0  0  0  0  0  0  0  0  0  0
  185.0790  179.1650  142.0080 N   0  0  0  0  0  0  0  0  0  0  0  0
  186.0980  177.4440  145.2040 C   0  0  1  0  0  3  0  0  0  0  0  0
  186.1820  178.0620  143.8310 C   0  0  0  0  0  0  0  0  0  0  0  0
  189.5060  177.4050  146.9650 C   0  0  0  0  0  3  0  0  0  0  0  0
  183.8920  178.7180  145.4210 N   0  0  0  0  0  0  0  0  0  0  0  0
  186.1730  179.0050  141.2170 C   0  0  0  0  0  3  0  0  0  0  0  0
  187.7800  178.5570  148.2530 C   0  0  0  0  0  3  0  0  0  0  0  0
  190.0890  178.3780  149.2000 C   0  0  0  0  0  1  0  0  0  0  0  0
  182.5900  179.4630  143.5390 C   0  0  0  0  0  1  0  0  0  0  0  0
  187.3020  177.8650  143.0150 C   0  0  0  0  0  3  0  0  0  0  0  0
  185.0480  178.7080  143.2890 C   0  0  0  0  0  0  0  0  0  0  0  0
  183.8420  178.9220  144.1360 C   0  0  0  0  0  0  0  0  0  0  0  0
  187.2880  177.6280  146.0790 C   0  0  0  0  0  0  0  0  0  0  0  0
  189.4060  177.0460  141.4030 C   0  0  0  0  0  1  0  0  0  0  0  0
  188.5290  178.1570  140.8550 C   0  0  1  0  0  3  0  0  0  0  0  0
  188.1520  177.8600  139.4070 C   0  0  0  0  0  2  0  0  0  0  0  0
  188.9570  178.7300  138.4570 C   0  0  0  0  0  2  0  0  0  0  0  0
  188.8530  178.1840  137.0450 C   0  0  0  0  0  2  0  0  0  0  0  0
  190.0640  177.3240  136.7210 C   0  0  0  0  0  2  0  0  0  0  0  0
  190.9110  175.2010  138.4460 O   0  0  0  0  0  0  0  0  0  0  0  0
  189.6740  175.9250  136.6000 N   0  0  0  0  0  2  0  0  0  0  0  0
  189.7550  173.5590  137.2860 N   0  0  0  0  0  1  0  0  0  0  0  0
  190.1480  174.9100  137.4870 C   0  0  0  0  0  0  0  0  0  0  0  0
  1 16  1  0  0  0  0
  2  5  2  0  0  0  0
  3 19  2  0  0  0  0
  3 10  1  0  0  0  0
  4 13  2  0  0  0  0
  5  4  1  0  0  0  0
  6 13  1  0  0  0  0
  6 14  1  0  0  0  0
  7 17  2  0  0  0  0
  8  9  1  6  0  0  0
  8  2  1  0  0  0  0
  8 19  1  0  0  0  0
 10  6  2  0  0  0  0
 11  2  1  0  0  0  0
 12  1  2  0  0  0  0
 12  7  1  0  0  0  0
 15 18  1  0  0  0  0
 16  9  2  0  0  0  0
 17  9  1  0  0  0  0
 17 18  1  0  0  0  0
 18 11  2  0  0  0  0
 19  4  1  0  0  0  0
 21 20  1  1  0  0  0
 21  1  1  0  0  0  0
 22 21  1  0  0  0  0
 23 22  1  0  0  0  0
 24 23  1  0  0  0  0
 25 24  1  0  0  0  0
 27 25  1  0  0  0  0
 27 29  1  0  0  0  0
 28 29  1  0  0  0  0
 29 26  2  0  0  0  0
M  END
>  <MODEL>
9

>  <REMARK>
 VINA RESULT:      -8.7      2.836      7.163
  Name = 
  6 active torsions:
  status: ('A' for Active; 'I' for Inactive)
    1  A    between atoms: C_1  and  C_27
    2  A    between atoms: C_17  and  C_19
    3  A    between atoms: C_17  and  C_29
    4  A    between atoms: C_19  and  C_27
    5  A    between atoms: N_21  and  C_26
    6  A    between atoms: C_26  and  C_29
                            x       y       z     vdW  Elec       q    Type
                         _______ _______ _______ _____ _____    ______ ____

>  <TORSDO>
F 6

$$$$
