=
 OpenBabel11032421083D

 54 61  0  0  1  0  0  0  0  0999 V2000
  184.6500  179.2520  142.7410 C   0  0  0  0  0  2  0  0  0  0  0  0
  187.1480  177.7740  143.6290 C   0  0  0  0  0  0  0  0  0  0  0  0
  185.5080  178.4120  141.8590 C   0  0  0  0  0  0  0  0  0  0  0  0
  184.1780  178.3920  143.8800 C   0  0  1  0  0  3  0  0  0  0  0  0
  189.1470  177.2530  144.8860 N   0  0  0  0  0  0  0  0  0  0  0  0
  188.4860  177.3390  143.7000 C   0  0  0  0  0  3  0  0  0  0  0  0
  187.9340  178.0300  148.4080 S   0  0  0  0  0  0  0  0  0  0  0  0
  189.0940  177.5380  147.2910 C   0  0  0  0  0  0  0  0  0  0  0  0
  186.5750  177.8130  142.3080 N   0  0  0  0  0  0  0  0  0  0  0  0
  187.1900  178.0220  146.0420 C   0  0  0  0  0  0  0  0  0  0  0  0
  188.5210  177.5910  146.0380 C   0  0  0  0  0  0  0  0  0  0  0  0
  186.6790  178.3190  147.3080 C   0  0  0  0  0  3  0  0  0  0  0  0
  186.4670  178.0980  144.8440 C   0  0  0  0  0  0  0  0  0  0  0  0
  185.1170  178.4730  144.9340 O   0  0  0  0  0  0  0  0  0  0  0  0
  185.1370  178.2470  140.4360 C   0  0  0  0  0  0  0  0  0  0  0  0
  183.8040  178.0130  140.0650 C   0  0  0  0  0  3  0  0  0  0  0  0
  186.1200  178.3050  139.4350 C   0  0  0  0  0  3  0  0  0  0  0  0
  183.4600  177.8330  138.7230 C   0  0  0  0  0  3  0  0  0  0  0  0
  185.7780  178.1310  138.0910 C   0  0  0  0  0  3  0  0  0  0  0  0
  184.4470  177.9000  137.7280 C   0  0  0  0  0  0  0  0  0  0  0  0
  185.0460  176.6170  135.6910 C   0  0  0  0  0  2  0  0  0  0  0  0
  184.2510  175.9480  134.5940 C   0  0  0  0  0  2  0  0  0  0  0  0
  182.1730  177.5750  134.7230 C   0  0  0  0  0  2  0  0  0  0  0  0
  182.7030  177.1510  136.0820 C   0  0  1  0  0  3  0  0  0  0  0  0
  182.7840  176.1970  134.9050 C   0  0  2  0  0  0  0  0  0  0  0  0
  184.1220  177.6590  136.2850 C   0  0  1  0  0  3  0  0  0  0  0  0
  181.9320  175.0960  135.1070 O   0  0  0  0  0  0  0  0  0  0  0  0
  180.9400  173.9620  136.8550 O   0  0  0  0  0  0  0  0  0  0  0  0
  181.1420  175.2240  137.4480 C   0  0  0  0  0  2  0  0  0  0  0  0
  182.0820  174.6740  136.4390 C   0  0  2  0  0  0  0  0  0  0  0  0
  183.8560  174.4040  138.0680 O   0  0  0  0  0  1  0  0  0  0  0  0
  183.3710  173.9460  136.8390 C   0  0  1  0  0  3  0  0  0  0  0  0
  183.1410  172.5130  136.9100 N   0  0  0  0  0  2  0  0  0  0  0  0
  184.1360  171.8770  136.0650 C   0  0  0  0  0  1  0  0  0  0  0  0
  190.4140  177.0820  147.5840 N   0  0  0  0  0  2  0  0  0  0  0  0
  191.3880  176.8340  146.5370 C   0  0  0  0  0  2  0  0  0  0  0  0
  192.2200  175.6210  146.8990 C   0  0  0  0  0  2  0  0  0  0  0  0
  192.7420  175.7720  148.3130 C   0  0  0  0  0  1  0  0  0  0  0  0
  182.8200  178.8770  144.3610 C   0  0  0  0  0  2  0  0  0  0  0  0
  179.5450  179.0070  142.3790 N   0  0  0  0  0  2  0  0  0  0  0  0
  181.8470  178.8170  143.2780 N   0  0  0  0  0  2  0  0  0  0  0  0
  179.9790  179.0940  144.6560 O   0  0  0  0  0  0  0  0  0  0  0  0
  180.4390  178.9730  143.4890 C   0  0  0  0  0  0  0  0  0  0  0  0
  179.9820  178.7770  141.0080 C   0  0  0  0  0  2  0  0  0  0  0  0
  180.1720  178.9620  138.1670 O   0  0  0  0  0  0  0  0  0  0  0  0
  179.8680  180.0060  140.2350 N   0  0  0  0  0  2  0  0  0  0  0  0
  179.9760  180.0310  138.8110 C   0  0  0  0  0  0  0  0  0  0  0  0
  179.3480  182.4670  135.9080 C   0  0  0  0  0  2  0  0  0  0  0  0
  181.2150  181.9870  138.1200 N   0  0  0  0  0  2  0  0  0  0  0  0
  180.5640  183.2920  136.1840 C   0  0  0  0  0  0  0  0  0  0  0  0
  181.0920  183.3440  137.5870 C   0  0  0  0  0  2  0  0  0  0  0  0
  179.9020  181.3380  138.0930 C   0  0  1  0  0  3  0  0  0  0  0  0
  179.4440  181.1300  136.6430 C   0  0  0  0  0  2  0  0  0  0  0  0
  181.0840  183.9540  135.3000 O   0  0  0  0  0  0  0  0  0  0  0  0
  1  4  1  0  0  0  0
  2  6  1  0  0  0  0
  2 13  2  0  0  0  0
  3  9  2  0  0  0  0
  3  1  1  0  0  0  0
  4 39  1  1  0  0  0
  4 14  1  0  0  0  0
  5 11  1  0  0  0  0
  6  5  2  0  0  0  0
  8 35  1  0  0  0  0
  8  7  1  0  0  0  0
  9  2  1  0  0  0  0
 10 12  2  0  0  0  0
 11 10  1  0  0  0  0
 11  8  2  0  0  0  0
 12  7  1  0  0  0  0
 13 14  1  0  0  0  0
 13 10  1  0  0  0  0
 15  3  1  0  0  0  0
 16 15  1  0  0  0  0
 17 15  2  0  0  0  0
 18 16  2  0  0  0  0
 19 17  1  0  0  0  0
 20 19  2  0  0  0  0
 20 18  1  0  0  0  0
 21 26  1  0  0  0  0
 22 25  1  0  0  0  0
 22 21  1  0  0  0  0
 23 25  1  0  0  0  0
 24 23  1  6  0  0  0
 24 26  1  0  0  0  0
 25 27  1  6  0  0  0
 25 24  1  0  0  0  0
 26 20  1  1  0  0  0
 28 29  1  0  0  0  0
 30 27  1  6  0  0  0
 30 32  1  0  0  0  0
 30 28  1  0  0  0  0
 30 29  1  0  0  0  0
 32 33  1  0  0  0  0
 32 31  1  1  0  0  0
 34 33  1  0  0  0  0
 36 37  1  0  0  0  0
 36 35  1  0  0  0  0
 37 38  1  0  0  0  0
 40 43  1  0  0  0  0
 41 43  1  0  0  0  0
 41 39  1  0  0  0  0
 43 42  2  0  0  0  0
 44 40  1  0  0  0  0
 45 47  2  0  0  0  0
 46 44  1  0  0  0  0
 47 46  1  0  0  0  0
 48 50  1  0  0  0  0
 48 53  1  0  0  0  0
 50 51  1  0  0  0  0
 51 49  1  0  0  0  0
 52 49  1  0  0  0  0
 52 47  1  6  0  0  0
 53 52  1  0  0  0  0
 54 50  2  0  0  0  0
M  END
>  <MODEL>
1

>  <REMARK>
 VINA RESULT:      -7.9      0.000      0.000
  Name = 
  14 active torsions:
  status: ('A' for Active; 'I' for Inactive)
    1  A    between atoms: N_5  and  C_6
    2  A    between atoms: C_6  and  N_25
    3  A    between atoms: O_7  and  C_43
    4  A    between atoms: O_7  and  C_48
    5  A    between atoms: N_10  and  C_23
    6  A    between atoms: C_12  and  C_13
    7  A    between atoms: C_15  and  N_20
    8  A    between atoms: C_15  and  C_31
    9  A    between atoms: C_16  and  C_50
   10  A    between atoms: N_20  and  C_30
   11  A    between atoms: C_23  and  C_43
   12  A    between atoms: N_24  and  C_50
   13  A    between atoms: C_28  and  C_39
   14  A    between atoms: C_52  and  C_54
                            x       y       z     vdW  Elec       q    Type
                         _______ _______ _______ _____ _____    ______ ____

>  <TORSDO>
F 14

$$$$
=
 OpenBabel11032421083D

 54 61  0  0  1  0  0  0  0  0999 V2000
  188.7520  176.6890  138.8780 C   0  0  0  0  0  2  0  0  0  0  0  0
  186.4240  177.0030  136.9550 C   0  0  0  0  0  0  0  0  0  0  0  0
  188.7920  176.3680  137.4230 C   0  0  0  0  0  0  0  0  0  0  0  0
  188.3530  178.1300  139.0220 C   0  0  1  0  0  3  0  0  0  0  0  0
  184.1460  177.1030  136.1520 N   0  0  0  0  0  0  0  0  0  0  0  0
  185.4370  176.7030  135.9960 C   0  0  0  0  0  3  0  0  0  0  0  0
  182.5380  179.0910  138.9690 S   0  0  0  0  0  0  0  0  0  0  0  0
  182.5040  178.2600  137.5060 C   0  0  0  0  0  0  0  0  0  0  0  0
  187.7490  176.5200  136.6580 N   0  0  0  0  0  0  0  0  0  0  0  0
  184.7110  178.1450  138.2380 C   0  0  0  0  0  0  0  0  0  0  0  0
  183.7800  177.8050  137.2500 C   0  0  0  0  0  0  0  0  0  0  0  0
  184.1860  178.8830  139.3010 C   0  0  0  0  0  3  0  0  0  0  0  0
  186.0550  177.7760  138.1010 C   0  0  0  0  0  0  0  0  0  0  0  0
  186.9440  178.2100  139.0970 O   0  0  0  0  0  0  0  0  0  0  0  0
  190.0540  175.8730  136.8290 C   0  0  0  0  0  0  0  0  0  0  0  0
  190.0350  175.0070  135.7250 C   0  0  0  0  0  3  0  0  0  0  0  0
  191.2920  176.2500  137.3750 C   0  0  0  0  0  3  0  0  0  0  0  0
  191.2270  174.5220  135.1810 C   0  0  0  0  0  3  0  0  0  0  0  0
  192.4850  175.7710  136.8290 C   0  0  0  0  0  3  0  0  0  0  0  0
  192.4600  174.9100  135.7270 C   0  0  0  0  0  0  0  0  0  0  0  0
  194.7690  175.4770  135.0200 C   0  0  0  0  0  2  0  0  0  0  0  0
  196.1200  174.8260  135.2090 C   0  0  0  0  0  2  0  0  0  0  0  0
  195.2170  172.3480  135.3620 C   0  0  0  0  0  2  0  0  0  0  0  0
  194.3850  173.3500  136.1420 C   0  0  1  0  0  3  0  0  0  0  0  0
  195.8820  173.5510  136.0040 C   0  0  2  0  0  0  0  0  0  0  0  0
  193.7550  174.3670  135.2030 C   0  0  1  0  0  3  0  0  0  0  0  0
  196.5150  173.3950  137.2500 O   0  0  0  0  0  0  0  0  0  0  0  0
  198.0980  172.5980  135.7710 O   0  0  0  0  0  0  0  0  0  0  0  0
  198.4060  171.8350  136.9160 C   0  0  0  0  0  2  0  0  0  0  0  0
  197.8910  173.2230  137.0160 C   0  0  2  0  0  0  0  0  0  0  0  0
  199.1800  174.9870  135.9690 O   0  0  0  0  0  1  0  0  0  0  0  0
  198.8230  174.4270  137.1990 C   0  0  1  0  0  3  0  0  0  0  0  0
  198.1880  175.4380  138.0270 N   0  0  0  0  0  2  0  0  0  0  0  0
  198.5260  175.1350  139.4070 C   0  0  0  0  0  1  0  0  0  0  0  0
  181.3770  178.1070  136.6430 N   0  0  0  0  0  2  0  0  0  0  0  0
  180.3320  177.1370  136.9140 C   0  0  0  0  0  2  0  0  0  0  0  0
  180.4630  175.9730  135.9530 C   0  0  0  0  0  2  0  0  0  0  0  0
  181.2630  174.8660  136.6090 C   0  0  0  0  0  1  0  0  0  0  0  0
  188.9700  178.7090  140.2850 C   0  0  0  0  0  2  0  0  0  0  0  0
  191.1020  176.3340  142.4040 N   0  0  0  0  0  2  0  0  0  0  0  0
  189.3840  177.6400  141.1840 N   0  0  0  0  0  2  0  0  0  0  0  0
  191.6740  177.9240  140.8130 O   0  0  0  0  0  0  0  0  0  0  0  0
  190.7580  177.3230  141.4360 C   0  0  0  0  0  0  0  0  0  0  0  0
  190.1050  175.5270  143.0940 C   0  0  0  0  0  2  0  0  0  0  0  0
  190.2870  176.9790  145.5430 O   0  0  0  0  0  0  0  0  0  0  0  0
  189.0630  176.3840  143.6430 N   0  0  0  0  0  2  0  0  0  0  0  0
  189.2160  177.0820  144.8790 C   0  0  0  0  0  0  0  0  0  0  0  0
  186.7190  178.4700  147.4490 C   0  0  0  0  0  2  0  0  0  0  0  0
  186.8650  177.5890  144.6530 N   0  0  0  0  0  2  0  0  0  0  0  0
  185.5520  178.4180  146.5140 C   0  0  0  0  0  0  0  0  0  0  0  0
  185.8080  178.5240  145.0410 C   0  0  0  0  0  2  0  0  0  0  0  0
  188.0820  177.8990  145.4050 C   0  0  1  0  0  3  0  0  0  0  0  0
  187.8670  177.6220  146.8990 C   0  0  0  0  0  2  0  0  0  0  0  0
  184.4110  178.3480  146.9430 O   0  0  0  0  0  0  0  0  0  0  0  0
  1  4  1  0  0  0  0
  2 13  2  0  0  0  0
  3  1  1  0  0  0  0
  4 14  1  0  0  0  0
  4 39  1  1  0  0  0
  5 11  1  0  0  0  0
  6  5  2  0  0  0  0
  6  2  1  0  0  0  0
  7 12  1  0  0  0  0
  8  7  1  0  0  0  0
  9  2  1  0  0  0  0
  9  3  2  0  0  0  0
 10 12  2  0  0  0  0
 11  8  2  0  0  0  0
 11 10  1  0  0  0  0
 13 10  1  0  0  0  0
 13 14  1  0  0  0  0
 15 17  1  0  0  0  0
 15  3  1  0  0  0  0
 16 15  2  0  0  0  0
 18 16  1  0  0  0  0
 18 20  2  0  0  0  0
 19 17  2  0  0  0  0
 20 19  1  0  0  0  0
 21 26  1  0  0  0  0
 21 22  1  0  0  0  0
 22 25  1  0  0  0  0
 23 25  1  0  0  0  0
 24 23  1  6  0  0  0
 25 24  1  0  0  0  0
 25 27  1  1  0  0  0
 26 20  1  1  0  0  0
 26 24  1  0  0  0  0
 28 29  1  0  0  0  0
 28 30  1  0  0  0  0
 29 30  1  0  0  0  0
 30 32  1  0  0  0  0
 30 27  1  1  0  0  0
 32 31  1  6  0  0  0
 32 33  1  0  0  0  0
 33 34  1  0  0  0  0
 35 36  1  0  0  0  0
 35  8  1  0  0  0  0
 37 38  1  0  0  0  0
 37 36  1  0  0  0  0
 39 41  1  0  0  0  0
 40 44  1  0  0  0  0
 41 43  1  0  0  0  0
 42 43  2  0  0  0  0
 43 40  1  0  0  0  0
 44 46  1  0  0  0  0
 46 47  1  0  0  0  0
 47 45  2  0  0  0  0
 49 51  1  0  0  0  0
 49 52  1  0  0  0  0
 50 54  2  0  0  0  0
 50 48  1  0  0  0  0
 51 50  1  0  0  0  0
 52 47  1  6  0  0  0
 52 53  1  0  0  0  0
 53 48  1  0  0  0  0
M  END
>  <MODEL>
2

>  <REMARK>
 VINA RESULT:      -7.7      6.907     11.578
  Name = 
  14 active torsions:
  status: ('A' for Active; 'I' for Inactive)
    1  A    between atoms: N_5  and  C_6
    2  A    between atoms: C_6  and  N_25
    3  A    between atoms: O_7  and  C_43
    4  A    between atoms: O_7  and  C_48
    5  A    between atoms: N_10  and  C_23
    6  A    between atoms: C_12  and  C_13
    7  A    between atoms: C_15  and  N_20
    8  A    between atoms: C_15  and  C_31
    9  A    between atoms: C_16  and  C_50
   10  A    between atoms: N_20  and  C_30
   11  A    between atoms: C_23  and  C_43
   12  A    between atoms: N_24  and  C_50
   13  A    between atoms: C_28  and  C_39
   14  A    between atoms: C_52  and  C_54
                            x       y       z     vdW  Elec       q    Type
                         _______ _______ _______ _____ _____    ______ ____

>  <TORSDO>
F 14

$$$$
=
 OpenBabel11032421083D

 54 61  0  0  1  0  0  0  0  0999 V2000
  188.9150  176.8450  137.5290 C   0  0  0  0  0  2  0  0  0  0  0  0
  190.1240  174.2080  136.6360 C   0  0  0  0  0  0  0  0  0  0  0  0
  188.1420  175.6720  137.0340 C   0  0  0  0  0  0  0  0  0  0  0  0
  189.7250  176.3970  138.7130 C   0  0  1  0  0  3  0  0  0  0  0  0
  191.7300  172.6410  135.7350 N   0  0  0  0  0  0  0  0  0  0  0  0
  190.4510  173.0920  135.8410 C   0  0  0  0  0  3  0  0  0  0  0  0
  194.9130  173.9480  137.3580 S   0  0  0  0  0  0  0  0  0  0  0  0
  194.0550  172.8920  136.3660 C   0  0  0  0  0  0  0  0  0  0  0  0
  188.7300  174.5720  136.6570 N   0  0  0  0  0  0  0  0  0  0  0  0
  192.4740  174.3760  137.2160 C   0  0  0  0  0  0  0  0  0  0  0  0
  192.7280  173.2670  136.4000 C   0  0  0  0  0  0  0  0  0  0  0  0
  193.6030  174.9030  137.8480 C   0  0  0  0  0  3  0  0  0  0  0  0
  191.1670  174.8540  137.3720 C   0  0  0  0  0  0  0  0  0  0  0  0
  190.9790  175.9260  138.2580 O   0  0  0  0  0  0  0  0  0  0  0  0
  186.6660  175.7540  136.9750 C   0  0  0  0  0  0  0  0  0  0  0  0
  185.8770  174.6000  137.1030 C   0  0  0  0  0  3  0  0  0  0  0  0
  186.0310  176.9900  136.7720 C   0  0  0  0  0  3  0  0  0  0  0  0
  184.4840  174.6780  137.0220 C   0  0  0  0  0  3  0  0  0  0  0  0
  184.6390  177.0720  136.6970 C   0  0  0  0  0  3  0  0  0  0  0  0
  183.8580  175.9180  136.8270 C   0  0  0  0  0  0  0  0  0  0  0  0
  181.6640  175.2850  137.7960 C   0  0  0  0  0  2  0  0  0  0  0  0
  180.3520  176.0080  137.9980 C   0  0  0  0  0  2  0  0  0  0  0  0
  180.6110  177.6390  135.9360 C   0  0  0  0  0  2  0  0  0  0  0  0
  181.8850  177.4700  136.7440 C   0  0  1  0  0  3  0  0  0  0  0  0
  180.5350  177.4080  137.4340 C   0  0  2  0  0  0  0  0  0  0  0  0
  182.3710  176.0310  136.6830 C   0  0  1  0  0  3  0  0  0  0  0  0
  180.3680  178.5150  138.2850 O   0  0  0  0  0  0  0  0  0  0  0  0
  181.7110  179.9890  139.4480 O   0  0  0  0  0  0  0  0  0  0  0  0
  182.6320  179.4870  138.5070 C   0  0  0  0  0  2  0  0  0  0  0  0
  181.5380  178.6480  139.0540 C   0  0  2  0  0  0  0  0  0  0  0  0
  183.0770  177.2270  140.2720 O   0  0  0  0  0  1  0  0  0  0  0  0
  181.7570  177.6870  140.2300 C   0  0  1  0  0  3  0  0  0  0  0  0
  181.4290  178.3410  141.4850 N   0  0  0  0  0  2  0  0  0  0  0  0
  180.0490  178.0100  141.7920 C   0  0  0  0  0  1  0  0  0  0  0  0
  194.5840  171.7670  135.6660 N   0  0  0  0  0  2  0  0  0  0  0  0
  196.0050  171.4730  135.6530 C   0  0  0  0  0  2  0  0  0  0  0  0
  196.2180  170.0040  135.9550 C   0  0  0  0  0  2  0  0  0  0  0  0
  196.0890  169.7730  137.4470 C   0  0  0  0  0  1  0  0  0  0  0  0
  189.9280  177.5630  139.6670 C   0  0  0  0  0  2  0  0  0  0  0  0
  191.6760  176.8920  143.0090 N   0  0  0  0  0  2  0  0  0  0  0  0
  190.2240  177.0770  141.0080 N   0  0  0  0  0  2  0  0  0  0  0  0
  192.4190  177.8790  141.0450 O   0  0  0  0  0  0  0  0  0  0  0  0
  191.4800  177.3040  141.6580 C   0  0  0  0  0  0  0  0  0  0  0  0
  190.6790  176.1350  143.7530 C   0  0  0  0  0  2  0  0  0  0  0  0
  187.8810  175.9610  143.2220 O   0  0  0  0  0  0  0  0  0  0  0  0
  189.6640  177.0340  144.2850 N   0  0  0  0  0  2  0  0  0  0  0  0
  188.2760  176.8940  143.9760 C   0  0  0  0  0  0  0  0  0  0  0  0
  186.0080  178.6210  146.5530 C   0  0  0  0  0  2  0  0  0  0  0  0
  186.0710  177.8490  143.7220 N   0  0  0  0  0  2  0  0  0  0  0  0
  184.8820  178.8320  145.5910 C   0  0  0  0  0  0  0  0  0  0  0  0
  185.1990  178.9500  144.1300 C   0  0  0  0  0  2  0  0  0  0  0  0
  187.3010  177.8890  144.5150 C   0  0  1  0  0  3  0  0  0  0  0  0
  186.9910  177.5940  145.9890 C   0  0  0  0  0  2  0  0  0  0  0  0
  183.7360  178.9620  145.9910 O   0  0  0  0  0  0  0  0  0  0  0  0
  1  4  1  0  0  0  0
  2  9  1  0  0  0  0
  2 13  2  0  0  0  0
  3  1  1  0  0  0  0
  4 39  1  1  0  0  0
  5  6  2  0  0  0  0
  5 11  1  0  0  0  0
  6  2  1  0  0  0  0
  7 12  1  0  0  0  0
  8 11  2  0  0  0  0
  8  7  1  0  0  0  0
  9  3  2  0  0  0  0
 10 13  1  0  0  0  0
 10 12  2  0  0  0  0
 11 10  1  0  0  0  0
 13 14  1  0  0  0  0
 14  4  1  0  0  0  0
 15  3  1  0  0  0  0
 15 16  1  0  0  0  0
 17 15  2  0  0  0  0
 18 16  2  0  0  0  0
 19 17  1  0  0  0  0
 19 20  2  0  0  0  0
 20 18  1  0  0  0  0
 21 22  1  0  0  0  0
 23 25  1  0  0  0  0
 24 23  1  6  0  0  0
 24 25  1  0  0  0  0
 25 22  1  0  0  0  0
 25 27  1  1  0  0  0
 26 24  1  0  0  0  0
 26 20  1  1  0  0  0
 26 21  1  0  0  0  0
 29 30  1  0  0  0  0
 29 28  1  0  0  0  0
 30 27  1  6  0  0  0
 30 28  1  0  0  0  0
 30 32  1  0  0  0  0
 32 31  1  1  0  0  0
 32 33  1  0  0  0  0
 33 34  1  0  0  0  0
 35  8  1  0  0  0  0
 36 35  1  0  0  0  0
 36 37  1  0  0  0  0
 37 38  1  0  0  0  0
 39 41  1  0  0  0  0
 40 44  1  0  0  0  0
 41 43  1  0  0  0  0
 42 43  2  0  0  0  0
 43 40  1  0  0  0  0
 44 46  1  0  0  0  0
 45 47  2  0  0  0  0
 47 46  1  0  0  0  0
 49 51  1  0  0  0  0
 49 52  1  0  0  0  0
 50 54  2  0  0  0  0
 50 48  1  0  0  0  0
 51 50  1  0  0  0  0
 52 47  1  6  0  0  0
 52 53  1  0  0  0  0
 53 48  1  0  0  0  0
M  END
>  <MODEL>
3

>  <REMARK>
 VINA RESULT:      -7.7      5.427      9.061
  Name = 
  14 active torsions:
  status: ('A' for Active; 'I' for Inactive)
    1  A    between atoms: N_5  and  C_6
    2  A    between atoms: C_6  and  N_25
    3  A    between atoms: O_7  and  C_43
    4  A    between atoms: O_7  and  C_48
    5  A    between atoms: N_10  and  C_23
    6  A    between atoms: C_12  and  C_13
    7  A    between atoms: C_15  and  N_20
    8  A    between atoms: C_15  and  C_31
    9  A    between atoms: C_16  and  C_50
   10  A    between atoms: N_20  and  C_30
   11  A    between atoms: C_23  and  C_43
   12  A    between atoms: N_24  and  C_50
   13  A    between atoms: C_28  and  C_39
   14  A    between atoms: C_52  and  C_54
                            x       y       z     vdW  Elec       q    Type
                         _______ _______ _______ _____ _____    ______ ____

>  <TORSDO>
F 14

$$$$
=
 OpenBabel11032421083D

 54 61  0  0  1  0  0  0  0  0999 V2000
  189.8070  176.5030  137.6090 C   0  0  0  0  0  2  0  0  0  0  0  0
  190.9070  173.8620  136.5930 C   0  0  0  0  0  0  0  0  0  0  0  0
  188.9840  175.3760  137.0870 C   0  0  0  0  0  0  0  0  0  0  0  0
  190.6250  175.9840  138.7580 C   0  0  1  0  0  3  0  0  0  0  0  0
  192.4400  172.2770  135.6020 N   0  0  0  0  0  0  0  0  0  0  0  0
  191.1790  172.7670  135.7510 C   0  0  0  0  0  3  0  0  0  0  0  0
  195.6970  173.4150  137.2040 S   0  0  0  0  0  0  0  0  0  0  0  0
  194.7840  172.4270  136.1930 C   0  0  0  0  0  0  0  0  0  0  0  0
  189.5270  174.2720  136.6580 N   0  0  0  0  0  0  0  0  0  0  0  0
  193.2720  173.9290  137.1290 C   0  0  0  0  0  0  0  0  0  0  0  0
  193.4720  172.8440  136.2680 C   0  0  0  0  0  0  0  0  0  0  0  0
  194.4310  174.3940  137.7560 C   0  0  0  0  0  3  0  0  0  0  0  0
  191.9850  174.4460  137.3310 C   0  0  0  0  0  0  0  0  0  0  0  0
  191.8520  175.4890  138.2590 O   0  0  0  0  0  0  0  0  0  0  0  0
  187.5110  175.5100  137.0620 C   0  0  0  0  0  0  0  0  0  0  0  0
  186.9000  176.7580  137.2520 C   0  0  0  0  0  3  0  0  0  0  0  0
  186.6990  174.3810  136.8640 C   0  0  0  0  0  3  0  0  0  0  0  0
  185.5080  176.8770  137.2520 C   0  0  0  0  0  3  0  0  0  0  0  0
  185.3070  174.4970  136.8580 C   0  0  0  0  0  3  0  0  0  0  0  0
  184.7050  175.7450  137.0460 C   0  0  0  0  0  0  0  0  0  0  0  0
  182.6050  174.4730  137.4040 C   0  0  0  0  0  2  0  0  0  0  0  0
  181.3040  174.7640  138.1160 C   0  0  0  0  0  2  0  0  0  0  0  0
  181.3720  177.3820  137.7650 C   0  0  0  0  0  2  0  0  0  0  0  0
  182.7100  176.7840  138.1640 C   0  0  1  0  0  3  0  0  0  0  0  0
  181.4200  176.1720  138.6790 C   0  0  2  0  0  0  0  0  0  0  0  0
  183.2090  175.8270  137.0930 C   0  0  1  0  0  3  0  0  0  0  0  0
  181.3070  176.3630  140.0680 O   0  0  0  0  0  0  0  0  0  0  0  0
  179.3310  176.8310  141.1650 O   0  0  0  0  0  0  0  0  0  0  0  0
  178.9360  177.0290  139.8270 C   0  0  0  0  0  2  0  0  0  0  0  0
  180.3130  177.3330  140.2890 C   0  0  2  0  0  0  0  0  0  0  0  0
  179.9280  179.2680  141.6950 O   0  0  0  0  0  1  0  0  0  0  0  0
  180.7450  178.7500  140.6860 C   0  0  1  0  0  3  0  0  0  0  0  0
  182.1280  178.7510  141.1320 N   0  0  0  0  0  2  0  0  0  0  0  0
  182.1120  178.8730  142.5790 C   0  0  0  0  0  1  0  0  0  0  0  0
  195.2600  171.3120  135.4400 N   0  0  0  0  0  2  0  0  0  0  0  0
  196.4280  170.5540  135.8500 C   0  0  0  0  0  2  0  0  0  0  0  0
  197.4630  170.5870  134.7450 C   0  0  0  0  0  2  0  0  0  0  0  0
  198.4190  171.7380  134.9840 C   0  0  0  0  0  1  0  0  0  0  0  0
  190.8860  177.1060  139.7490 C   0  0  0  0  0  2  0  0  0  0  0  0
  187.5750  178.7090  140.8200 N   0  0  0  0  0  2  0  0  0  0  0  0
  189.6710  177.4260  140.4860 N   0  0  0  0  0  2  0  0  0  0  0  0
  189.1120  179.2820  139.1790 O   0  0  0  0  0  0  0  0  0  0  0  0
  188.8030  178.5070  140.1230 C   0  0  0  0  0  0  0  0  0  0  0  0
  187.1920  177.9210  141.9840 C   0  0  0  0  0  2  0  0  0  0  0  0
  186.9290  177.1880  144.7290 O   0  0  0  0  0  0  0  0  0  0  0  0
  188.2720  177.9210  142.9630 N   0  0  0  0  0  2  0  0  0  0  0  0
  188.0720  177.5440  144.3260 C   0  0  0  0  0  0  0  0  0  0  0  0
  191.6340  177.0150  145.6670 C   0  0  0  0  0  2  0  0  0  0  0  0
  188.8360  177.0000  146.5530 N   0  0  0  0  0  2  0  0  0  0  0  0
  191.1860  176.6830  147.0550 C   0  0  0  0  0  0  0  0  0  0  0  0
  189.8850  177.2470  147.5430 C   0  0  0  0  0  2  0  0  0  0  0  0
  189.2160  177.6210  145.2830 C   0  0  1  0  0  3  0  0  0  0  0  0
  190.4530  176.9220  144.7000 C   0  0  0  0  0  2  0  0  0  0  0  0
  191.8900  176.0150  147.7950 O   0  0  0  0  0  0  0  0  0  0  0  0
  1  4  1  0  0  0  0
  2  9  1  0  0  0  0
  2 13  2  0  0  0  0
  3  1  1  0  0  0  0
  4 39  1  1  0  0  0
  5  6  2  0  0  0  0
  5 11  1  0  0  0  0
  6  2  1  0  0  0  0
  7 12  1  0  0  0  0
  8 11  2  0  0  0  0
  8  7  1  0  0  0  0
  9  3  2  0  0  0  0
 10 13  1  0  0  0  0
 10 12  2  0  0  0  0
 11 10  1  0  0  0  0
 13 14  1  0  0  0  0
 14  4  1  0  0  0  0
 15  3  1  0  0  0  0
 15 16  1  0  0  0  0
 16 18  2  0  0  0  0
 17 15  2  0  0  0  0
 19 17  1  0  0  0  0
 19 20  2  0  0  0  0
 20 18  1  0  0  0  0
 21 22  1  0  0  0  0
 22 25  1  0  0  0  0
 23 25  1  0  0  0  0
 24 23  1  6  0  0  0
 24 25  1  0  0  0  0
 25 27  1  1  0  0  0
 26 20  1  1  0  0  0
 26 21  1  0  0  0  0
 26 24  1  0  0  0  0
 29 30  1  0  0  0  0
 29 28  1  0  0  0  0
 30 27  1  6  0  0  0
 30 32  1  0  0  0  0
 30 28  1  0  0  0  0
 32 33  1  0  0  0  0
 32 31  1  1  0  0  0
 33 34  1  0  0  0  0
 35 36  1  0  0  0  0
 35  8  1  0  0  0  0
 37 38  1  0  0  0  0
 37 36  1  0  0  0  0
 39 41  1  0  0  0  0
 40 44  1  0  0  0  0
 42 43  2  0  0  0  0
 43 41  1  0  0  0  0
 43 40  1  0  0  0  0
 44 46  1  0  0  0  0
 46 47  1  0  0  0  0
 47 45  2  0  0  0  0
 48 50  1  0  0  0  0
 49 51  1  0  0  0  0
 50 51  1  0  0  0  0
 50 54  2  0  0  0  0
 52 47  1  6  0  0  0
 52 49  1  0  0  0  0
 53 52  1  0  0  0  0
 53 48  1  0  0  0  0
M  END
>  <MODEL>
4

>  <REMARK>
 VINA RESULT:      -7.6      5.966      9.847
  Name = 
  14 active torsions:
  status: ('A' for Active; 'I' for Inactive)
    1  A    between atoms: N_5  and  C_6
    2  A    between atoms: C_6  and  N_25
    3  A    between atoms: O_7  and  C_43
    4  A    between atoms: O_7  and  C_48
    5  A    between atoms: N_10  and  C_23
    6  A    between atoms: C_12  and  C_13
    7  A    between atoms: C_15  and  N_20
    8  A    between atoms: C_15  and  C_31
    9  A    between atoms: C_16  and  C_50
   10  A    between atoms: N_20  and  C_30
   11  A    between atoms: C_23  and  C_43
   12  A    between atoms: N_24  and  C_50
   13  A    between atoms: C_28  and  C_39
   14  A    between atoms: C_52  and  C_54
                            x       y       z     vdW  Elec       q    Type
                         _______ _______ _______ _____ _____    ______ ____

>  <TORSDO>
F 14

$$$$
=
 OpenBabel11032421083D

 54 61  0  0  1  0  0  0  0  0999 V2000
  186.9510  177.6780  140.1410 C   0  0  0  0  0  2  0  0  0  0  0  0
  187.1160  177.9530  143.1590 C   0  0  0  0  0  0  0  0  0  0  0  0
  185.8790  178.2410  141.0100 C   0  0  0  0  0  0  0  0  0  0  0  0
  188.1980  178.4860  140.3650 C   0  0  1  0  0  3  0  0  0  0  0  0
  187.7540  177.4930  145.4460 N   0  0  0  0  0  0  0  0  0  0  0  0
  186.8080  177.8310  144.5290 C   0  0  0  0  0  3  0  0  0  0  0  0
  191.4550  176.7550  144.9620 S   0  0  0  0  0  0  0  0  0  0  0  0
  190.0640  176.9180  145.8960 C   0  0  0  0  0  0  0  0  0  0  0  0
  186.0160  178.3200  142.3040 N   0  0  0  0  0  0  0  0  0  0  0  0
  189.4070  177.3750  143.7090 C   0  0  0  0  0  0  0  0  0  0  0  0
  189.0290  177.2620  145.0520 C   0  0  0  0  0  0  0  0  0  0  0  0
  190.7580  177.1220  143.4630 C   0  0  0  0  0  3  0  0  0  0  0  0
  188.4680  177.7470  142.7390 C   0  0  0  0  0  0  0  0  0  0  0  0
  188.9330  177.9070  141.4250 O   0  0  0  0  0  0  0  0  0  0  0  0
  184.6290  178.7320  140.3890 C   0  0  0  0  0  0  0  0  0  0  0  0
  183.3910  178.5410  141.0200 C   0  0  0  0  0  3  0  0  0  0  0  0
  184.6640  179.3830  139.1440 C   0  0  0  0  0  3  0  0  0  0  0  0
  182.2100  178.9840  140.4180 C   0  0  0  0  0  3  0  0  0  0  0  0
  183.4850  179.8320  138.5440 C   0  0  0  0  0  3  0  0  0  0  0  0
  182.2540  179.6400  139.1790 C   0  0  0  0  0  0  0  0  0  0  0  0
  180.4830  181.3750  139.0730 C   0  0  0  0  0  2  0  0  0  0  0  0
  179.7560  182.0720  137.9470 C   0  0  0  0  0  2  0  0  0  0  0  0
  179.9410  180.0820  136.2200 C   0  0  0  0  0  2  0  0  0  0  0  0
  181.2200  180.3360  136.9980 C   0  0  1  0  0  3  0  0  0  0  0  0
  180.3000  181.4920  136.6510 C   0  0  2  0  0  0  0  0  0  0  0  0
  181.0030  180.0810  138.4810 C   0  0  1  0  0  3  0  0  0  0  0  0
  180.9190  182.3500  135.7250 O   0  0  0  0  0  0  0  0  0  0  0  0
  178.9310  183.5090  135.5560 O   0  0  0  0  0  0  0  0  0  0  0  0
  179.7110  184.1960  134.6050 C   0  0  0  0  0  2  0  0  0  0  0  0
  180.3080  183.6120  135.8320 C   0  0  2  0  0  0  0  0  0  0  0  0
  181.9320  184.6800  137.2780 O   0  0  0  0  0  1  0  0  0  0  0  0
  180.5660  184.4490  137.0910 C   0  0  1  0  0  3  0  0  0  0  0  0
  179.8650  185.7190  137.0060 N   0  0  0  0  0  2  0  0  0  0  0  0
  179.3770  186.0290  138.3380 C   0  0  0  0  0  1  0  0  0  0  0  0
  189.9740  176.7910  147.3140 N   0  0  0  0  0  2  0  0  0  0  0  0
  188.7060  176.8930  148.0130 C   0  0  0  0  0  2  0  0  0  0  0  0
  188.6150  178.2410  148.6980 C   0  0  0  0  0  2  0  0  0  0  0  0
  187.2420  178.8360  148.4580 C   0  0  0  0  0  1  0  0  0  0  0  0
  189.0390  178.4930  139.0980 C   0  0  0  0  0  2  0  0  0  0  0  0
  187.2120  177.4550  135.8950 N   0  0  0  0  0  2  0  0  0  0  0  0
  188.3970  177.6990  138.0590 N   0  0  0  0  0  2  0  0  0  0  0  0
  187.6130  179.5340  136.8420 O   0  0  0  0  0  0  0  0  0  0  0  0
  187.7330  178.2830  136.9320 C   0  0  0  0  0  0  0  0  0  0  0  0
  187.2210  176.0000  135.9690 C   0  0  0  0  0  2  0  0  0  0  0  0
  186.2410  173.7150  137.3690 O   0  0  0  0  0  0  0  0  0  0  0  0
  185.8600  175.4880  135.8960 N   0  0  0  0  0  2  0  0  0  0  0  0
  185.4330  174.3340  136.6210 C   0  0  0  0  0  0  0  0  0  0  0  0
  181.5970  174.3480  136.8520 C   0  0  0  0  0  2  0  0  0  0  0  0
  183.8930  172.5370  137.1090 N   0  0  0  0  0  2  0  0  0  0  0  0
  181.4990  172.9030  137.2280 C   0  0  0  0  0  0  0  0  0  0  0  0
  182.5850  171.9710  136.7790 C   0  0  0  0  0  2  0  0  0  0  0  0
  184.0340  173.8380  136.4520 C   0  0  1  0  0  3  0  0  0  0  0  0
  183.0320  174.8410  137.0390 C   0  0  0  0  0  2  0  0  0  0  0  0
  180.5300  172.4810  137.8370 O   0  0  0  0  0  0  0  0  0  0  0  0
  1  4  1  0  0  0  0
  1  3  1  0  0  0  0
  2  6  1  0  0  0  0
  3  9  2  0  0  0  0
  4 39  1  6  0  0  0
  4 14  1  0  0  0  0
  6  5  2  0  0  0  0
  7  8  1  0  0  0  0
  8 35  1  0  0  0  0
  9  2  1  0  0  0  0
 10 11  1  0  0  0  0
 11  5  1  0  0  0  0
 11  8  2  0  0  0  0
 12 10  2  0  0  0  0
 12  7  1  0  0  0  0
 13  2  2  0  0  0  0
 13 10  1  0  0  0  0
 14 13  1  0  0  0  0
 15  3  1  0  0  0  0
 15 16  1  0  0  0  0
 17 15  2  0  0  0  0
 18 16  2  0  0  0  0
 19 17  1  0  0  0  0
 19 20  2  0  0  0  0
 20 18  1  0  0  0  0
 22 21  1  0  0  0  0
 23 25  1  0  0  0  0
 24 23  1  6  0  0  0
 24 26  1  0  0  0  0
 25 27  1  6  0  0  0
 25 24  1  0  0  0  0
 25 22  1  0  0  0  0
 26 21  1  0  0  0  0
 26 20  1  1  0  0  0
 28 30  1  0  0  0  0
 29 28  1  0  0  0  0
 29 30  1  0  0  0  0
 30 27  1  6  0  0  0
 30 32  1  0  0  0  0
 32 31  1  6  0  0  0
 33 32  1  0  0  0  0
 33 34  1  0  0  0  0
 35 36  1  0  0  0  0
 36 37  1  0  0  0  0
 38 37  1  0  0  0  0
 40 44  1  0  0  0  0
 40 43  1  0  0  0  0
 41 39  1  0  0  0  0
 42 43  2  0  0  0  0
 43 41  1  0  0  0  0
 46 44  1  0  0  0  0
 46 47  1  0  0  0  0
 47 45  2  0  0  0  0
 48 53  1  0  0  0  0
 48 50  1  0  0  0  0
 50 54  2  0  0  0  0
 51 49  1  0  0  0  0
 51 50  1  0  0  0  0
 52 47  1  1  0  0  0
 52 53  1  0  0  0  0
 52 49  1  0  0  0  0
M  END
>  <MODEL>
5

>  <REMARK>
 VINA RESULT:      -7.4      2.939      7.285
  Name = 
  14 active torsions:
  status: ('A' for Active; 'I' for Inactive)
    1  A    between atoms: N_5  and  C_6
    2  A    between atoms: C_6  and  N_25
    3  A    between atoms: O_7  and  C_43
    4  A    between atoms: O_7  and  C_48
    5  A    between atoms: N_10  and  C_23
    6  A    between atoms: C_12  and  C_13
    7  A    between atoms: C_15  and  N_20
    8  A    between atoms: C_15  and  C_31
    9  A    between atoms: C_16  and  C_50
   10  A    between atoms: N_20  and  C_30
   11  A    between atoms: C_23  and  C_43
   12  A    between atoms: N_24  and  C_50
   13  A    between atoms: C_28  and  C_39
   14  A    between atoms: C_52  and  C_54
                            x       y       z     vdW  Elec       q    Type
                         _______ _______ _______ _____ _____    ______ ____

>  <TORSDO>
F 14

$$$$
=
 OpenBabel11032421083D

 54 61  0  0  1  0  0  0  0  0999 V2000
  189.4470  176.7350  137.8310 C   0  0  0  0  0  2  0  0  0  0  0  0
  190.4720  174.1500  136.6160 C   0  0  0  0  0  0  0  0  0  0  0  0
  188.5920  175.6670  137.2400 C   0  0  0  0  0  0  0  0  0  0  0  0
  190.2640  176.1160  138.9300 C   0  0  1  0  0  3  0  0  0  0  0  0
  191.9560  172.6050  135.4940 N   0  0  0  0  0  0  0  0  0  0  0  0
  190.7100  173.1110  135.6940 C   0  0  0  0  0  3  0  0  0  0  0  0
  195.2570  173.5490  137.1330 S   0  0  0  0  0  0  0  0  0  0  0  0
  194.3090  172.6580  136.0650 C   0  0  0  0  0  0  0  0  0  0  0  0
  189.1030  174.5850  136.7260 N   0  0  0  0  0  0  0  0  0  0  0  0
  192.8440  174.1230  137.1260 C   0  0  0  0  0  0  0  0  0  0  0  0
  193.0080  173.0980  136.1870 C   0  0  0  0  0  0  0  0  0  0  0  0
  194.0200  174.5150  137.7700 C   0  0  0  0  0  3  0  0  0  0  0  0
  191.5720  174.6530  137.3790 C   0  0  0  0  0  0  0  0  0  0  0  0
  191.4740  175.6300  138.3820 O   0  0  0  0  0  0  0  0  0  0  0  0
  187.1220  175.8360  137.2430 C   0  0  0  0  0  0  0  0  0  0  0  0
  186.2760  174.7690  136.9050 C   0  0  0  0  0  3  0  0  0  0  0  0
  186.5510  177.0780  137.5700 C   0  0  0  0  0  3  0  0  0  0  0  0
  184.8890  174.9390  136.8860 C   0  0  0  0  0  3  0  0  0  0  0  0
  185.1650  177.2480  137.5570 C   0  0  0  0  0  3  0  0  0  0  0  0
  184.3270  176.1800  137.2200 C   0  0  0  0  0  0  0  0  0  0  0  0
  182.1650  175.8680  138.3960 C   0  0  0  0  0  2  0  0  0  0  0  0
  180.9370  176.7270  138.5930 C   0  0  0  0  0  2  0  0  0  0  0  0
  181.1780  178.0790  136.3350 C   0  0  0  0  0  2  0  0  0  0  0  0
  182.4910  177.8880  137.0760 C   0  0  1  0  0  3  0  0  0  0  0  0
  181.1950  178.0300  137.8520 C   0  0  2  0  0  0  0  0  0  0  0  0
  182.8470  176.4120  137.1580 C   0  0  1  0  0  3  0  0  0  0  0  0
  181.1840  179.2380  138.5720 O   0  0  0  0  0  0  0  0  0  0  0  0
  179.1810  178.3360  139.2800 O   0  0  0  0  0  0  0  0  0  0  0  0
  178.9660  179.6990  139.5680 C   0  0  0  0  0  2  0  0  0  0  0  0
  180.3130  179.0810  139.6650 C   0  0  2  0  0  0  0  0  0  0  0  0
  182.2850  178.5830  140.9820 O   0  0  0  0  0  1  0  0  0  0  0  0
  180.8860  178.5820  140.9960 C   0  0  1  0  0  3  0  0  0  0  0  0
  180.4100  179.4070  142.0930 N   0  0  0  0  0  2  0  0  0  0  0  0
  179.6580  178.5420  142.9850 C   0  0  0  0  0  1  0  0  0  0  0  0
  194.7510  171.5890  135.2280 N   0  0  0  0  0  2  0  0  0  0  0  0
  194.8790  170.2310  135.7250 C   0  0  0  0  0  2  0  0  0  0  0  0
  194.5500  170.2020  137.2030 C   0  0  0  0  0  2  0  0  0  0  0  0
  195.7290  169.6400  137.9700 C   0  0  0  0  0  1  0  0  0  0  0  0
  190.5630  177.1570  139.9960 C   0  0  0  0  0  2  0  0  0  0  0  0
  187.2850  178.6210  141.3340 N   0  0  0  0  0  2  0  0  0  0  0  0
  189.3810  177.4030  140.8110 N   0  0  0  0  0  2  0  0  0  0  0  0
  188.7300  179.3340  139.6640 O   0  0  0  0  0  0  0  0  0  0  0  0
  188.4800  178.4900  140.5670 C   0  0  0  0  0  0  0  0  0  0  0  0
  186.9720  177.7480  142.4580 C   0  0  0  0  0  2  0  0  0  0  0  0
  186.9470  178.1030  145.2890 O   0  0  0  0  0  0  0  0  0  0  0  0
  188.1310  177.6260  143.3320 N   0  0  0  0  0  2  0  0  0  0  0  0
  188.0510  177.8190  144.7450 C   0  0  0  0  0  0  0  0  0  0  0  0
  191.6740  176.8990  145.6350 C   0  0  0  0  0  2  0  0  0  0  0  0
  188.9980  177.0500  146.8310 N   0  0  0  0  0  2  0  0  0  0  0  0
  191.3500  176.5040  147.0410 C   0  0  0  0  0  0  0  0  0  0  0  0
  190.1650  177.1360  147.7090 C   0  0  0  0  0  2  0  0  0  0  0  0
  189.2940  177.7300  145.5680 C   0  0  1  0  0  3  0  0  0  0  0  0
  190.3920  176.9770  144.8050 C   0  0  0  0  0  2  0  0  0  0  0  0
  192.0660  175.7270  147.6520 O   0  0  0  0  0  0  0  0  0  0  0  0
  1  4  1  0  0  0  0
  2  9  1  0  0  0  0
  2 13  2  0  0  0  0
  3 15  1  0  0  0  0
  3  1  1  0  0  0  0
  4 39  1  1  0  0  0
  5  6  2  0  0  0  0
  5 11  1  0  0  0  0
  6  2  1  0  0  0  0
  7 12  1  0  0  0  0
  8 11  2  0  0  0  0
  8  7  1  0  0  0  0
  9  3  2  0  0  0  0
 10 13  1  0  0  0  0
 10 12  2  0  0  0  0
 11 10  1  0  0  0  0
 13 14  1  0  0  0  0
 14  4  1  0  0  0  0
 15 17  1  0  0  0  0
 16 15  2  0  0  0  0
 18 16  1  0  0  0  0
 18 20  2  0  0  0  0
 19 17  2  0  0  0  0
 20 19  1  0  0  0  0
 21 22  1  0  0  0  0
 23 25  1  0  0  0  0
 24 23  1  6  0  0  0
 24 26  1  0  0  0  0
 24 25  1  0  0  0  0
 25 27  1  1  0  0  0
 25 22  1  0  0  0  0
 26 20  1  1  0  0  0
 26 21  1  0  0  0  0
 28 29  1  0  0  0  0
 28 30  1  0  0  0  0
 29 30  1  0  0  0  0
 30 27  1  6  0  0  0
 30 32  1  0  0  0  0
 32 31  1  6  0  0  0
 32 33  1  0  0  0  0
 33 34  1  0  0  0  0
 35 36  1  0  0  0  0
 35  8  1  0  0  0  0
 36 37  1  0  0  0  0
 37 38  1  0  0  0  0
 39 41  1  0  0  0  0
 40 44  1  0  0  0  0
 42 43  2  0  0  0  0
 43 41  1  0  0  0  0
 43 40  1  0  0  0  0
 44 46  1  0  0  0  0
 46 47  1  0  0  0  0
 47 45  2  0  0  0  0
 48 50  1  0  0  0  0
 49 51  1  0  0  0  0
 50 54  2  0  0  0  0
 50 51  1  0  0  0  0
 52 47  1  6  0  0  0
 52 49  1  0  0  0  0
 53 52  1  0  0  0  0
 53 48  1  0  0  0  0
M  END
>  <MODEL>
6

>  <REMARK>
 VINA RESULT:      -6.9      5.446      9.640
  Name = 
  14 active torsions:
  status: ('A' for Active; 'I' for Inactive)
    1  A    between atoms: N_5  and  C_6
    2  A    between atoms: C_6  and  N_25
    3  A    between atoms: O_7  and  C_43
    4  A    between atoms: O_7  and  C_48
    5  A    between atoms: N_10  and  C_23
    6  A    between atoms: C_12  and  C_13
    7  A    between atoms: C_15  and  N_20
    8  A    between atoms: C_15  and  C_31
    9  A    between atoms: C_16  and  C_50
   10  A    between atoms: N_20  and  C_30
   11  A    between atoms: C_23  and  C_43
   12  A    between atoms: N_24  and  C_50
   13  A    between atoms: C_28  and  C_39
   14  A    between atoms: C_52  and  C_54
                            x       y       z     vdW  Elec       q    Type
                         _______ _______ _______ _____ _____    ______ ____

>  <TORSDO>
F 14

$$$$
=
 OpenBabel11032421083D

 54 61  0  0  1  0  0  0  0  0999 V2000
  189.6610  177.2870  137.9740 C   0  0  0  0  0  2  0  0  0  0  0  0
  190.5590  174.5370  137.0540 C   0  0  0  0  0  0  0  0  0  0  0  0
  188.7520  176.1890  137.5400 C   0  0  0  0  0  0  0  0  0  0  0  0
  190.4910  176.7740  139.1170 C   0  0  1  0  0  3  0  0  0  0  0  0
  191.9520  172.8130  136.0880 N   0  0  0  0  0  0  0  0  0  0  0  0
  190.7310  173.3870  136.2590 C   0  0  0  0  0  3  0  0  0  0  0  0
  195.3340  173.8230  137.5090 S   0  0  0  0  0  0  0  0  0  0  0  0
  194.3230  172.8460  136.5840 C   0  0  0  0  0  0  0  0  0  0  0  0
  189.2090  175.0340  137.1480 N   0  0  0  0  0  0  0  0  0  0  0  0
  192.9430  174.4830  137.4980 C   0  0  0  0  0  0  0  0  0  0  0  0
  193.0420  173.3470  136.6870 C   0  0  0  0  0  0  0  0  0  0  0  0
  194.1520  174.9050  138.0580 C   0  0  0  0  0  3  0  0  0  0  0  0
  191.6990  175.0870  137.7200 C   0  0  0  0  0  0  0  0  0  0  0  0
  191.6660  176.1810  138.5990 O   0  0  0  0  0  0  0  0  0  0  0  0
  187.2890  176.4120  137.5630 C   0  0  0  0  0  0  0  0  0  0  0  0
  186.4030  175.4110  137.1370 C   0  0  0  0  0  3  0  0  0  0  0  0
  186.7660  177.6410  137.9980 C   0  0  0  0  0  3  0  0  0  0  0  0
  185.0240  175.6340  137.1370 C   0  0  0  0  0  3  0  0  0  0  0  0
  185.3870  177.8650  138.0040 C   0  0  0  0  0  3  0  0  0  0  0  0
  184.5090  176.8620  137.5790 C   0  0  0  0  0  0  0  0  0  0  0  0
  182.3490  176.5960  138.7710 C   0  0  0  0  0  2  0  0  0  0  0  0
  181.1590  177.4970  139.0100 C   0  0  0  0  0  2  0  0  0  0  0  0
  181.4300  178.9120  136.7950 C   0  0  0  0  0  2  0  0  0  0  0  0
  182.7410  178.6450  137.5130 C   0  0  1  0  0  3  0  0  0  0  0  0
  181.4600  178.8120  138.3090 C   0  0  2  0  0  0  0  0  0  0  0  0
  183.0400  177.1540  137.5430 C   0  0  1  0  0  3  0  0  0  0  0  0
  181.5060  179.9950  139.0690 O   0  0  0  0  0  0  0  0  0  0  0  0
  179.8360  180.7130  140.4910 O   0  0  0  0  0  0  0  0  0  0  0  0
  179.1670  179.6750  139.8110 C   0  0  0  0  0  2  0  0  0  0  0  0
  180.1990  180.5090  139.1450 C   0  0  2  0  0  0  0  0  0  0  0  0
  179.3460  182.7750  139.0540 O   0  0  0  0  0  1  0  0  0  0  0  0
  179.8330  181.7190  138.2770 C   0  0  1  0  0  3  0  0  0  0  0  0
  180.9900  182.1660  137.5200 N   0  0  0  0  0  2  0  0  0  0  0  0
  180.4930  182.7700  136.2960 C   0  0  0  0  0  1  0  0  0  0  0  0
  194.7010  171.6680  135.8720 N   0  0  0  0  0  2  0  0  0  0  0  0
  195.9500  171.5850  135.1380 C   0  0  0  0  0  2  0  0  0  0  0  0
  196.6790  170.3150  135.5260 C   0  0  0  0  0  2  0  0  0  0  0  0
  197.8450  170.6600  136.4300 C   0  0  0  0  0  1  0  0  0  0  0  0
  190.8590  177.9250  140.0390 C   0  0  0  0  0  2  0  0  0  0  0  0
  188.9850  176.8030  143.1870 N   0  0  0  0  0  2  0  0  0  0  0  0
  190.0110  177.9170  141.2240 N   0  0  0  0  0  2  0  0  0  0  0  0
  190.1760  175.6140  141.5890 O   0  0  0  0  0  0  0  0  0  0  0  0
  189.7400  176.7300  141.9790 C   0  0  0  0  0  0  0  0  0  0  0  0
  188.3640  178.0350  143.6540 C   0  0  0  0  0  2  0  0  0  0  0  0
  186.4640  179.0920  141.8060 O   0  0  0  0  0  0  0  0  0  0  0  0
  186.9200  177.8630  143.7400 N   0  0  0  0  0  2  0  0  0  0  0  0
  186.0210  178.4220  142.7810 C   0  0  0  0  0  0  0  0  0  0  0  0
  182.2850  178.5040  141.8870 C   0  0  0  0  0  2  0  0  0  0  0  0
  184.1070  179.0240  144.1280 N   0  0  0  0  0  2  0  0  0  0  0  0
  181.8570  179.0150  143.2260 C   0  0  0  0  0  0  0  0  0  0  0  0
  182.7100  178.7010  144.4190 C   0  0  0  0  0  2  0  0  0  0  0  0
  184.5490  178.2480  142.9670 C   0  0  1  0  0  3  0  0  0  0  0  0
  183.7920  178.6970  141.7100 C   0  0  0  0  0  2  0  0  0  0  0  0
  180.8080  179.6250  143.3550 O   0  0  0  0  0  0  0  0  0  0  0  0
  1  4  1  0  0  0  0
  2  9  1  0  0  0  0
  2 13  2  0  0  0  0
  3 15  1  0  0  0  0
  3  1  1  0  0  0  0
  4 39  1  1  0  0  0
  5  6  2  0  0  0  0
  5 11  1  0  0  0  0
  6  2  1  0  0  0  0
  7 12  1  0  0  0  0
  8 11  2  0  0  0  0
  8  7  1  0  0  0  0
  9  3  2  0  0  0  0
 10 13  1  0  0  0  0
 10 12  2  0  0  0  0
 11 10  1  0  0  0  0
 13 14  1  0  0  0  0
 14  4  1  0  0  0  0
 15 17  1  0  0  0  0
 16 18  1  0  0  0  0
 16 15  2  0  0  0  0
 17 19  2  0  0  0  0
 18 20  2  0  0  0  0
 20 19  1  0  0  0  0
 21 22  1  0  0  0  0
 23 25  1  0  0  0  0
 24 23  1  6  0  0  0
 24 26  1  0  0  0  0
 24 25  1  0  0  0  0
 25 22  1  0  0  0  0
 25 27  1  1  0  0  0
 26 20  1  1  0  0  0
 26 21  1  0  0  0  0
 29 28  1  0  0  0  0
 30 27  1  6  0  0  0
 30 29  1  0  0  0  0
 30 28  1  0  0  0  0
 32 31  1  1  0  0  0
 32 30  1  0  0  0  0
 33 32  1  0  0  0  0
 34 33  1  0  0  0  0
 35  8  1  0  0  0  0
 36 37  1  0  0  0  0
 36 35  1  0  0  0  0
 37 38  1  0  0  0  0
 39 41  1  0  0  0  0
 40 44  1  0  0  0  0
 41 43  1  0  0  0  0
 42 43  2  0  0  0  0
 43 40  1  0  0  0  0
 44 46  1  0  0  0  0
 45 47  2  0  0  0  0
 47 46  1  0  0  0  0
 48 50  1  0  0  0  0
 49 51  1  0  0  0  0
 50 54  2  0  0  0  0
 50 51  1  0  0  0  0
 52 47  1  6  0  0  0
 52 49  1  0  0  0  0
 53 48  1  0  0  0  0
 53 52  1  0  0  0  0
M  END
>  <MODEL>
7

>  <REMARK>
 VINA RESULT:      -6.9      5.534      8.575
  Name = 
  14 active torsions:
  status: ('A' for Active; 'I' for Inactive)
    1  A    between atoms: N_5  and  C_6
    2  A    between atoms: C_6  and  N_25
    3  A    between atoms: O_7  and  C_43
    4  A    between atoms: O_7  and  C_48
    5  A    between atoms: N_10  and  C_23
    6  A    between atoms: C_12  and  C_13
    7  A    between atoms: C_15  and  N_20
    8  A    between atoms: C_15  and  C_31
    9  A    between atoms: C_16  and  C_50
   10  A    between atoms: N_20  and  C_30
   11  A    between atoms: C_23  and  C_43
   12  A    between atoms: N_24  and  C_50
   13  A    between atoms: C_28  and  C_39
   14  A    between atoms: C_52  and  C_54
                            x       y       z     vdW  Elec       q    Type
                         _______ _______ _______ _____ _____    ______ ____

>  <TORSDO>
F 14

$$$$
=
 OpenBabel11032421083D

 54 61  0  0  1  0  0  0  0  0999 V2000
  190.1700  174.0610  137.1420 C   0  0  0  0  0  2  0  0  0  0  0  0
  193.0840  174.9030  137.2650 C   0  0  0  0  0  0  0  0  0  0  0  0
  190.6780  175.3020  137.7930 C   0  0  0  0  0  0  0  0  0  0  0  0
  190.6030  174.0860  135.7030 C   0  0  1  0  0  3  0  0  0  0  0  0
  195.4950  174.7220  137.3350 N   0  0  0  0  0  0  0  0  0  0  0  0
  194.3400  175.2940  137.7710 C   0  0  0  0  0  3  0  0  0  0  0  0
  196.0300  172.0020  134.7300 S   0  0  0  0  0  0  0  0  0  0  0  0
  196.5650  173.1090  135.8790 C   0  0  0  0  0  0  0  0  0  0  0  0
  191.9470  175.5950  137.8150 N   0  0  0  0  0  0  0  0  0  0  0  0
  194.2470  173.3210  135.8390 C   0  0  0  0  0  0  0  0  0  0  0  0
  195.4580  173.7510  136.3930 C   0  0  0  0  0  0  0  0  0  0  0  0
  194.3730  172.3240  134.8690 C   0  0  0  0  0  3  0  0  0  0  0  0
  193.0380  173.9030  136.2430 C   0  0  0  0  0  0  0  0  0  0  0  0
  191.8710  173.4690  135.5950 O   0  0  0  0  0  0  0  0  0  0  0  0
  189.7140  176.2310  138.4240 C   0  0  0  0  0  0  0  0  0  0  0  0
  189.9480  176.7420  139.7100 C   0  0  0  0  0  3  0  0  0  0  0  0
  188.5390  176.6010  137.7490 C   0  0  0  0  0  3  0  0  0  0  0  0
  189.0240  177.6000  140.3120 C   0  0  0  0  0  3  0  0  0  0  0  0
  187.6170  177.4630  138.3480 C   0  0  0  0  0  3  0  0  0  0  0  0
  187.8560  177.9710  139.6290 C   0  0  0  0  0  0  0  0  0  0  0  0
  185.4540  178.5880  139.6630 C   0  0  0  0  0  2  0  0  0  0  0  0
  184.4620  178.9050  140.7590 C   0  0  0  0  0  2  0  0  0  0  0  0
  186.2310  179.8660  142.4690 C   0  0  0  0  0  2  0  0  0  0  0  0
  186.6900  178.6030  141.7610 C   0  0  1  0  0  3  0  0  0  0  0  0
  185.2190  178.8070  142.0740 C   0  0  2  0  0  0  0  0  0  0  0  0
  186.8200  178.8450  140.2660 C   0  0  1  0  0  3  0  0  0  0  0  0
  184.7900  177.8810  143.0410 O   0  0  0  0  0  0  0  0  0  0  0  0
  183.0810  178.2800  144.5410 O   0  0  0  0  0  0  0  0  0  0  0  0
  183.3010  179.5810  144.0480 C   0  0  0  0  0  2  0  0  0  0  0  0
  184.4060  178.6000  144.1870 C   0  0  2  0  0  0  0  0  0  0  0  0
  184.6010  178.6050  146.6020 O   0  0  0  0  0  1  0  0  0  0  0  0
  185.3320  178.5840  145.4100 C   0  0  1  0  0  3  0  0  0  0  0  0
  186.1840  177.4080  145.3820 N   0  0  0  0  0  2  0  0  0  0  0  0
  187.5580  177.8760  145.3290 C   0  0  0  0  0  1  0  0  0  0  0  0
  197.9220  173.3900  136.2200 N   0  0  0  0  0  2  0  0  0  0  0  0
  198.4090  173.2760  137.5830 C   0  0  0  0  0  2  0  0  0  0  0  0
  199.1030  174.5620  137.9790 C   0  0  0  0  0  2  0  0  0  0  0  0
  198.7910  174.8760  139.4280 C   0  0  0  0  0  1  0  0  0  0  0  0
  189.5920  173.3360  134.8500 C   0  0  0  0  0  2  0  0  0  0  0  0
  185.9550  173.3700  136.0540 N   0  0  0  0  0  2  0  0  0  0  0  0
  188.2380  173.7670  135.1720 N   0  0  0  0  0  2  0  0  0  0  0  0
  187.4700  171.6380  135.7550 O   0  0  0  0  0  0  0  0  0  0  0  0
  187.2310  172.8720  135.6600 C   0  0  0  0  0  0  0  0  0  0  0  0
  185.5670  174.7630  135.8840 C   0  0  0  0  0  2  0  0  0  0  0  0
  183.9430  177.1020  135.6900 O   0  0  0  0  0  0  0  0  0  0  0  0
  184.4320  175.0740  136.7430 N   0  0  0  0  0  2  0  0  0  0  0  0
  183.6600  176.2660  136.5950 C   0  0  0  0  0  0  0  0  0  0  0  0
  181.1880  178.3410  138.6800 C   0  0  0  0  0  2  0  0  0  0  0  0
  182.8440  175.9230  138.8430 N   0  0  0  0  0  2  0  0  0  0  0  0
  181.3040  177.4730  139.8930 C   0  0  0  0  0  0  0  0  0  0  0  0
  181.6700  176.0310  139.7100 C   0  0  0  0  0  2  0  0  0  0  0  0
  182.5450  176.5410  137.5500 C   0  0  1  0  0  3  0  0  0  0  0  0
  182.3410  178.0530  137.7190 C   0  0  0  0  0  2  0  0  0  0  0  0
  181.0510  177.9140  141.0030 O   0  0  0  0  0  0  0  0  0  0  0  0
  1  3  1  0  0  0  0
  2  6  1  0  0  0  0
  2  9  1  0  0  0  0
  3  9  2  0  0  0  0
  3 15  1  0  0  0  0
  4 39  1  6  0  0  0
  4  1  1  0  0  0  0
  5  6  2  0  0  0  0
  7 12  1  0  0  0  0
  7  8  1  0  0  0  0
  8 35  1  0  0  0  0
  8 11  2  0  0  0  0
 10 13  1  0  0  0  0
 10 11  1  0  0  0  0
 11  5  1  0  0  0  0
 12 10  2  0  0  0  0
 13  2  2  0  0  0  0
 14  4  1  0  0  0  0
 14 13  1  0  0  0  0
 15 16  1  0  0  0  0
 16 18  2  0  0  0  0
 17 19  1  0  0  0  0
 17 15  2  0  0  0  0
 19 20  2  0  0  0  0
 20 18  1  0  0  0  0
 21 26  1  0  0  0  0
 21 22  1  0  0  0  0
 22 25  1  0  0  0  0
 24 25  1  0  0  0  0
 24 23  1  1  0  0  0
 25 23  1  0  0  0  0
 25 27  1  1  0  0  0
 26 20  1  6  0  0  0
 26 24  1  0  0  0  0
 29 30  1  0  0  0  0
 29 28  1  0  0  0  0
 30 27  1  6  0  0  0
 30 28  1  0  0  0  0
 30 32  1  0  0  0  0
 32 31  1  1  0  0  0
 33 32  1  0  0  0  0
 34 33  1  0  0  0  0
 35 36  1  0  0  0  0
 36 37  1  0  0  0  0
 37 38  1  0  0  0  0
 39 41  1  0  0  0  0
 41 43  1  0  0  0  0
 43 42  2  0  0  0  0
 43 40  1  0  0  0  0
 44 40  1  0  0  0  0
 44 46  1  0  0  0  0
 45 47  2  0  0  0  0
 47 46  1  0  0  0  0
 48 50  1  0  0  0  0
 49 51  1  0  0  0  0
 50 54  2  0  0  0  0
 51 50  1  0  0  0  0
 52 47  1  6  0  0  0
 52 53  1  0  0  0  0
 52 49  1  0  0  0  0
 53 48  1  0  0  0  0
M  END
>  <MODEL>
8

>  <REMARK>
 VINA RESULT:      -6.8      6.219      9.549
  Name = 
  14 active torsions:
  status: ('A' for Active; 'I' for Inactive)
    1  A    between atoms: N_5  and  C_6
    2  A    between atoms: C_6  and  N_25
    3  A    between atoms: O_7  and  C_43
    4  A    between atoms: O_7  and  C_48
    5  A    between atoms: N_10  and  C_23
    6  A    between atoms: C_12  and  C_13
    7  A    between atoms: C_15  and  N_20
    8  A    between atoms: C_15  and  C_31
    9  A    between atoms: C_16  and  C_50
   10  A    between atoms: N_20  and  C_30
   11  A    between atoms: C_23  and  C_43
   12  A    between atoms: N_24  and  C_50
   13  A    between atoms: C_28  and  C_39
   14  A    between atoms: C_52  and  C_54
                            x       y       z     vdW  Elec       q    Type
                         _______ _______ _______ _____ _____    ______ ____

>  <TORSDO>
F 14

$$$$
=
 OpenBabel11032421083D

 54 61  0  0  1  0  0  0  0  0999 V2000
  184.6150  179.1110  140.0440 C   0  0  0  0  0  2  0  0  0  0  0  0
  182.5730  176.8880  139.7220 C   0  0  0  0  0  0  0  0  0  0  0  0
  184.2670  178.1090  141.0900 C   0  0  0  0  0  0  0  0  0  0  0  0
  185.0800  178.3640  138.8260 C   0  0  1  0  0  3  0  0  0  0  0  0
  180.6190  175.7020  138.9340 N   0  0  0  0  0  0  0  0  0  0  0  0
  181.4540  176.0630  139.9460 C   0  0  0  0  0  3  0  0  0  0  0  0
  180.7590  176.5810  135.2350 S   0  0  0  0  0  0  0  0  0  0  0  0
  180.0730  175.8330  136.5780 C   0  0  0  0  0  0  0  0  0  0  0  0
  183.3710  177.1860  140.8840 N   0  0  0  0  0  0  0  0  0  0  0  0
  181.9500  176.9540  137.3790 C   0  0  0  0  0  0  0  0  0  0  0  0
  180.8510  176.1390  137.6740 C   0  0  0  0  0  0  0  0  0  0  0  0
  182.0630  177.3100  136.0320 C   0  0  0  0  0  3  0  0  0  0  0  0
  182.8480  177.3250  138.3880 C   0  0  0  0  0  0  0  0  0  0  0  0
  183.9630  178.0860  138.0050 O   0  0  0  0  0  0  0  0  0  0  0  0
  184.9620  178.1580  142.3950 C   0  0  0  0  0  0  0  0  0  0  0  0
  184.3540  178.7520  143.5110 C   0  0  0  0  0  3  0  0  0  0  0  0
  186.2540  177.6230  142.5310 C   0  0  0  0  0  3  0  0  0  0  0  0
  185.0230  178.8180  144.7350 C   0  0  0  0  0  3  0  0  0  0  0  0
  186.9230  177.6820  143.7560 C   0  0  0  0  0  3  0  0  0  0  0  0
  186.3100  178.2750  144.8650 C   0  0  0  0  0  0  0  0  0  0  0  0
  186.4270  177.5390  147.2310 C   0  0  0  0  0  2  0  0  0  0  0  0
  187.5510  177.1240  148.1520 C   0  0  0  0  0  2  0  0  0  0  0  0
  189.4170  178.5960  146.9970 C   0  0  0  0  0  2  0  0  0  0  0  0
  188.5080  177.8790  146.0140 C   0  0  1  0  0  3  0  0  0  0  0  0
  188.8380  177.2380  147.3490 C   0  0  2  0  0  0  0  0  0  0  0  0
  187.0770  178.3750  146.1490 C   0  0  1  0  0  3  0  0  0  0  0  0
  189.6290  176.0910  147.1610 O   0  0  0  0  0  0  0  0  0  0  0  0
  191.8790  175.5760  147.1620 O   0  0  0  0  0  0  0  0  0  0  0  0
  191.9000  176.8250  147.8140 C   0  0  0  0  0  2  0  0  0  0  0  0
  190.9080  176.5120  146.7550 C   0  0  2  0  0  0  0  0  0  0  0  0
  192.0520  177.9660  145.1900 O   0  0  0  0  0  1  0  0  0  0  0  0
  191.1140  176.9340  145.2950 C   0  0  1  0  0  3  0  0  0  0  0  0
  191.5480  175.8000  144.4980 N   0  0  0  0  0  2  0  0  0  0  0  0
  190.8430  175.8730  143.2300 C   0  0  0  0  0  1  0  0  0  0  0  0
  178.9310  174.9780  136.5810 N   0  0  0  0  0  2  0  0  0  0  0  0
  178.9910  173.6180  136.0770 C   0  0  0  0  0  2  0  0  0  0  0  0
  178.9830  172.6480  137.2410 C   0  0  0  0  0  2  0  0  0  0  0  0
  180.4070  172.2550  137.5780 C   0  0  0  0  0  1  0  0  0  0  0  0
  186.0860  179.2080  138.0590 C   0  0  0  0  0  2  0  0  0  0  0  0
  189.0820  176.8980  137.4580 N   0  0  0  0  0  2  0  0  0  0  0  0
  187.0780  178.3570  137.4170 N   0  0  0  0  0  2  0  0  0  0  0  0
  188.4130  178.1120  139.3190 O   0  0  0  0  0  0  0  0  0  0  0  0
  188.2010  177.8060  138.1150 C   0  0  0  0  0  0  0  0  0  0  0  0
  188.9650  176.5710  136.0440 C   0  0  0  0  0  2  0  0  0  0  0  0
  186.3060  176.4930  135.0120 O   0  0  0  0  0  0  0  0  0  0  0  0
  188.1620  175.3670  135.8750 N   0  0  0  0  0  2  0  0  0  0  0  0
  186.8330  175.3970  135.3540 C   0  0  0  0  0  0  0  0  0  0  0  0
  183.7590  173.0930  135.4300 C   0  0  0  0  0  2  0  0  0  0  0  0
  186.5850  173.1540  136.2180 N   0  0  0  0  0  2  0  0  0  0  0  0
  184.4620  171.9870  136.1510 C   0  0  0  0  0  0  0  0  0  0  0  0
  185.9470  171.8570  135.9910 C   0  0  0  0  0  2  0  0  0  0  0  0
  186.0530  174.1270  135.2620 C   0  0  1  0  0  3  0  0  0  0  0  0
  184.5660  174.3870  135.5420 C   0  0  0  0  0  2  0  0  0  0  0  0
  183.8340  171.1730  136.8110 O   0  0  0  0  0  0  0  0  0  0  0  0
  1  3  1  0  0  0  0
  2  6  1  0  0  0  0
  2  9  1  0  0  0  0
  3 15  1  0  0  0  0
  4 39  1  6  0  0  0
  4  1  1  0  0  0  0
  5  6  2  0  0  0  0
  7 12  1  0  0  0  0
  7  8  1  0  0  0  0
  8 35  1  0  0  0  0
  8 11  2  0  0  0  0
  9  3  2  0  0  0  0
 10 11  1  0  0  0  0
 10 13  1  0  0  0  0
 11  5  1  0  0  0  0
 12 10  2  0  0  0  0
 13  2  2  0  0  0  0
 14 13  1  0  0  0  0
 14  4  1  0  0  0  0
 15 17  2  0  0  0  0
 15 16  1  0  0  0  0
 16 18  2  0  0  0  0
 17 19  1  0  0  0  0
 18 20  1  0  0  0  0
 19 20  2  0  0  0  0
 21 22  1  0  0  0  0
 23 25  1  0  0  0  0
 24 26  1  0  0  0  0
 24 23  1  1  0  0  0
 24 25  1  0  0  0  0
 25 27  1  6  0  0  0
 25 22  1  0  0  0  0
 26 20  1  6  0  0  0
 26 21  1  0  0  0  0
 28 29  1  0  0  0  0
 30 27  1  1  0  0  0
 30 28  1  0  0  0  0
 30 29  1  0  0  0  0
 32 31  1  1  0  0  0
 32 30  1  0  0  0  0
 33 32  1  0  0  0  0
 34 33  1  0  0  0  0
 36 35  1  0  0  0  0
 36 37  1  0  0  0  0
 37 38  1  0  0  0  0
 40 43  1  0  0  0  0
 41 39  1  0  0  0  0
 41 43  1  0  0  0  0
 43 42  2  0  0  0  0
 44 40  1  0  0  0  0
 45 47  2  0  0  0  0
 46 44  1  0  0  0  0
 47 46  1  0  0  0  0
 48 53  1  0  0  0  0
 48 50  1  0  0  0  0
 50 54  2  0  0  0  0
 51 50  1  0  0  0  0
 51 49  1  0  0  0  0
 52 47  1  1  0  0  0
 52 53  1  0  0  0  0
 52 49  1  0  0  0  0
M  END
>  <MODEL>
9

>  <REMARK>
 VINA RESULT:      -6.8      3.874     10.884
  Name = 
  14 active torsions:
  status: ('A' for Active; 'I' for Inactive)
    1  A    between atoms: N_5  and  C_6
    2  A    between atoms: C_6  and  N_25
    3  A    between atoms: O_7  and  C_43
    4  A    between atoms: O_7  and  C_48
    5  A    between atoms: N_10  and  C_23
    6  A    between atoms: C_12  and  C_13
    7  A    between atoms: C_15  and  N_20
    8  A    between atoms: C_15  and  C_31
    9  A    between atoms: C_16  and  C_50
   10  A    between atoms: N_20  and  C_30
   11  A    between atoms: C_23  and  C_43
   12  A    between atoms: N_24  and  C_50
   13  A    between atoms: C_28  and  C_39
   14  A    between atoms: C_52  and  C_54
                            x       y       z     vdW  Elec       q    Type
                         _______ _______ _______ _____ _____    ______ ____

>  <TORSDO>
F 14

$$$$
