=
 OpenBabel11032419143D

 30 36  0  0  1  0  0  0  0  0999 V2000
  187.4110  176.5480  147.0380 C   0  0  0  0  0  2  0  0  0  0  0  0
  186.6490  177.5450  146.1770 C   0  0  1  0  0  0  0  0  0  0  0  0
  188.5170  177.9090  140.9300 C   0  0  0  0  0  0  0  0  0  0  0  0
  183.5550  178.5440  143.4610 C   0  0  0  0  0  0  0  0  0  0  0  0
  188.2080  178.6600  139.7960 C   0  0  0  0  0  3  0  0  0  0  0  0
  189.1490  178.6740  138.7540 C   0  0  0  0  0  3  0  0  0  0  0  0
  182.4280  178.9780  144.0830 F   0  0  0  0  0  0  0  0  0  0  0  0
  187.7810  177.7420  142.0540 N   0  0  0  0  0  0  0  0  0  0  0  0
  186.4640  178.2400  142.3940 C   0  0  0  0  0  0  0  0  0  0  0  0
  186.0220  178.0720  143.6750 C   0  0  0  0  0  0  0  0  0  0  0  0
  188.0170  176.4710  144.1850 C   0  0  0  0  0  2  0  0  0  0  0  0
  187.6570  178.5460  145.5500 C   0  0  1  0  0  3  0  0  0  0  0  0
  185.6930  178.9530  141.3460 C   0  0  0  0  0  3  0  0  0  0  0  0
  189.6990  177.2130  141.0200 C   0  0  0  0  0  0  0  0  0  0  0  0
  186.9920  177.4900  144.6920 C   0  0  2  0  0  0  0  0  0  0  0  0
  184.6840  178.4960  144.1660 C   0  0  0  0  0  3  0  0  0  0  0  0
  183.5020  178.0680  142.0450 C   0  0  2  0  0  3  0  0  0  0  0  0
  189.7090  176.5770  142.2480 C   0  0  0  0  0  0  0  0  0  0  0  0
  186.8910  178.8900  146.8020 C   0  0  2  0  0  0  0  0  0  0  0  0
  183.8310  179.6640  140.1790 F   0  0  0  0  0  0  0  0  0  0  0  0
  190.7680  175.6890  142.8070 C   0  0  0  0  0  1  0  0  0  0  0  0
  188.5140  176.9330  142.8550 C   0  0  0  0  0  0  0  0  0  0  0  0
  191.8500  176.5220  140.0440 N   0  0  0  0  0  1  0  0  0  0  0  0
  190.3200  177.9710  138.8610 N   0  0  0  0  0  0  0  0  0  0  0  0
  190.6210  177.2370  139.9720 C   0  0  0  0  0  0  0  0  0  0  0  0
  187.5270  178.7000  148.1630 C   0  0  0  0  0  2  0  0  0  0  0  0
  184.3700  178.9320  141.1870 C   0  0  0  0  0  0  0  0  0  0  0  0
  182.0730  178.0220  141.5240 C   0  0  0  0  0  1  0  0  0  0  0  0
  187.5690  177.2010  148.4000 C   0  0  0  0  0  2  0  0  0  0  0  0
  185.7690  179.8010  146.6690 N   0  0  0  0  0  1  0  0  0  0  0  0
  1 29  1  0  0  0  0
  2 19  1  0  0  0  0
  2  1  1  1  0  0  0
  3 14  1  0  0  0  0
  3  8  1  0  0  0  0
  4  7  1  0  0  0  0
  4 16  2  0  0  0  0
  5  3  2  0  0  0  0
  6 24  2  0  0  0  0
  6  5  1  0  0  0  0
  8  9  1  0  0  0  0
  8 22  1  0  0  0  0
  9 10  2  0  0  0  0
 10 16  1  0  0  0  0
 10 15  1  0  0  0  0
 11 15  1  0  0  0  0
 12  2  1  0  0  0  0
 12 19  1  0  0  0  0
 13  9  1  0  0  0  0
 14 18  1  0  0  0  0
 15 12  1  0  0  0  0
 15  2  1  0  0  0  0
 17  4  1  0  0  0  0
 18 21  1  0  0  0  0
 18 22  2  0  0  0  0
 19 26  1  0  0  0  0
 20 27  1  0  0  0  0
 22 11  1  0  0  0  0
 24 25  1  0  0  0  0
 25 23  1  0  0  0  0
 25 14  2  0  0  0  0
 26 29  1  0  0  0  0
 27 13  2  0  0  0  0
 27 17  1  0  0  0  0
 28 17  1  0  0  0  0
 30 19  1  0  0  0  0
M  END
>  <MODEL>
1

>  <REMARK>
 VINA RESULT:      -9.1      0.000      0.000
  Name = 
  0 active torsions:
  status: ('A' for Active; 'I' for Inactive)
                            x       y       z     vdW  Elec       q    Type
                         _______ _______ _______ _____ _____    ______ ____

>  <TORSDO>
F 0

$$$$
=
 OpenBabel11032419143D

 30 36  0  0  1  0  0  0  0  0999 V2000
  183.6120  179.9180  139.3090 C   0  0  0  0  0  2  0  0  0  0  0  0
  183.6400  179.1270  140.6080 C   0  0  1  0  0  0  0  0  0  0  0  0
  188.6770  177.1350  141.9510 C   0  0  0  0  0  0  0  0  0  0  0  0
  184.1620  178.8420  144.8030 C   0  0  0  0  0  0  0  0  0  0  0  0
  189.2160  176.3520  142.9730 C   0  0  0  0  0  3  0  0  0  0  0  0
  190.4910  175.8020  142.7600 C   0  0  0  0  0  3  0  0  0  0  0  0
  182.9980  178.9750  145.4890 F   0  0  0  0  0  0  0  0  0  0  0  0
  187.4800  177.7660  141.9190 N   0  0  0  0  0  0  0  0  0  0  0  0
  186.4420  177.8570  142.9240 C   0  0  0  0  0  0  0  0  0  0  0  0
  185.2450  178.4100  142.5680 C   0  0  0  0  0  0  0  0  0  0  0  0
  186.2660  179.2350  140.3140 C   0  0  0  0  0  2  0  0  0  0  0  0
  184.2580  177.7290  140.3370 C   0  0  1  0  0  3  0  0  0  0  0  0
  186.7170  177.2940  144.2690 C   0  0  0  0  0  3  0  0  0  0  0  0
  189.3700  177.3550  140.7840 C   0  0  0  0  0  0  0  0  0  0  0  0
  185.0380  178.7760  141.1050 C   0  0  2  0  0  0  0  0  0  0  0  0
  184.0990  178.6040  143.4940 C   0  0  0  0  0  3  0  0  0  0  0  0
  185.4740  179.0320  145.4950 C   0  0  2  0  0  3  0  0  0  0  0  0
  188.5810  178.1600  139.9830 C   0  0  0  0  0  0  0  0  0  0  0  0
  182.7650  177.9290  140.3730 C   0  0  2  0  0  0  0  0  0  0  0  0
  186.6080  177.1090  146.5690 F   0  0  0  0  0  0  0  0  0  0  0  0
  188.8970  178.6860  138.6250 C   0  0  0  0  0  1  0  0  0  0  0  0
  187.4250  178.3850  140.7150 C   0  0  0  0  0  0  0  0  0  0  0  0
  191.3720  177.0170  139.3920 N   0  0  0  0  0  1  0  0  0  0  0  0
  191.1660  176.0340  141.5920 N   0  0  0  0  0  0  0  0  0  0  0  0
  190.6370  176.8000  140.5930 C   0  0  0  0  0  0  0  0  0  0  0  0
  181.9890  178.1230  139.0870 C   0  0  0  0  0  2  0  0  0  0  0  0
  186.2690  177.7670  145.4310 C   0  0  0  0  0  0  0  0  0  0  0  0
  185.2850  179.5000  146.9310 C   0  0  0  0  0  1  0  0  0  0  0  0
  182.3310  179.5180  138.5980 C   0  0  0  0  0  2  0  0  0  0  0  0
  182.0600  177.4840  141.5610 N   0  0  0  0  0  1  0  0  0  0  0  0
  2  1  1  6  0  0  0
  2 15  1  0  0  0  0
  3  5  1  0  0  0  0
  4  7  1  0  0  0  0
  4 17  1  0  0  0  0
  6  5  2  0  0  0  0
  8  3  1  0  0  0  0
  8  9  1  0  0  0  0
  9 13  1  0  0  0  0
 10  9  2  0  0  0  0
 10 16  1  0  0  0  0
 11 22  1  0  0  0  0
 11 15  1  0  0  0  0
 12 19  1  0  0  0  0
 12  2  1  0  0  0  0
 12 15  1  0  0  0  0
 13 27  2  0  0  0  0
 14  3  2  0  0  0  0
 15 10  1  0  0  0  0
 16  4  2  0  0  0  0
 17 28  1  0  0  0  0
 18 22  2  0  0  0  0
 18 14  1  0  0  0  0
 19  2  1  0  0  0  0
 19 30  1  0  0  0  0
 21 18  1  0  0  0  0
 22  8  1  0  0  0  0
 23 25  1  0  0  0  0
 24  6  1  0  0  0  0
 25 14  1  0  0  0  0
 25 24  2  0  0  0  0
 26 19  1  0  0  0  0
 27 17  1  0  0  0  0
 27 20  1  0  0  0  0
 29 26  1  0  0  0  0
 29  1  1  0  0  0  0
M  END
>  <MODEL>
2

>  <REMARK>
 VINA RESULT:      -8.6      1.912      5.227
  Name = 
  0 active torsions:
  status: ('A' for Active; 'I' for Inactive)
                            x       y       z     vdW  Elec       q    Type
                         _______ _______ _______ _____ _____    ______ ____

>  <TORSDO>
F 0

$$$$
=
 OpenBabel11032419143D

 30 36  0  0  1  0  0  0  0  0999 V2000
  184.6320  177.5540  137.2320 C   0  0  0  0  0  2  0  0  0  0  0  0
  183.3330  177.5890  138.0210 C   0  0  1  0  0  0  0  0  0  0  0  0
  184.0070  178.6110  143.4670 C   0  0  0  0  0  0  0  0  0  0  0  0
  180.0120  179.6390  139.6700 C   0  0  0  0  0  0  0  0  0  0  0  0
  183.1820  178.7090  144.5870 C   0  0  0  0  0  3  0  0  0  0  0  0
  183.7970  178.6590  145.8490 C   0  0  0  0  0  3  0  0  0  0  0  0
  178.9320  179.6390  138.8470 F   0  0  0  0  0  0  0  0  0  0  0  0
  183.6550  178.6330  142.1590 N   0  0  0  0  0  0  0  0  0  0  0  0
  182.3570  178.8060  141.5420 C   0  0  0  0  0  0  0  0  0  0  0  0
  182.2510  178.6080  140.1950 C   0  0  0  0  0  0  0  0  0  0  0  0
  184.8490  178.5260  139.9750 C   0  0  0  0  0  2  0  0  0  0  0  0
  183.4360  176.5970  139.2110 C   0  0  1  0  0  3  0  0  0  0  0  0
  181.2030  179.1360  142.4160 C   0  0  0  0  0  3  0  0  0  0  0  0
  185.3680  178.4690  143.5970 C   0  0  0  0  0  0  0  0  0  0  0  0
  183.4760  178.0910  139.4540 C   0  0  2  0  0  0  0  0  0  0  0  0
  180.9980  178.7810  139.4140 C   0  0  0  0  0  3  0  0  0  0  0  0
  180.1120  180.6280  140.7870 C   0  0  2  0  0  3  0  0  0  0  0  0
  185.8980  178.4020  142.3220 C   0  0  0  0  0  0  0  0  0  0  0  0
  182.7600  176.2030  137.9240 C   0  0  2  0  0  0  0  0  0  0  0  0
  179.1880  180.0870  143.0200 F   0  0  0  0  0  0  0  0  0  0  0  0
  187.3310  178.2620  141.9360 C   0  0  0  0  0  1  0  0  0  0  0  0
  184.8110  178.5000  141.4670 C   0  0  0  0  0  0  0  0  0  0  0  0
  187.3690  178.2770  145.0180 N   0  0  0  0  0  1  0  0  0  0  0  0
  185.1550  178.5190  145.9580 N   0  0  0  0  0  0  0  0  0  0  0  0
  185.9610  178.4220  144.8610 C   0  0  0  0  0  0  0  0  0  0  0  0
  183.5190  175.4240  136.8700 C   0  0  0  0  0  2  0  0  0  0  0  0
  180.1670  179.9100  142.0970 C   0  0  0  0  0  0  0  0  0  0  0  0
  178.9690  181.6320  140.7480 C   0  0  0  0  0  1  0  0  0  0  0  0
  184.5000  176.4030  136.2500 C   0  0  0  0  0  2  0  0  0  0  0  0
  181.3090  176.1750  137.9120 N   0  0  0  0  0  1  0  0  0  0  0  0
  2  1  1  6  0  0  0
  2 12  1  0  0  0  0
  2 15  1  0  0  0  0
  3 14  2  0  0  0  0
  3  5  1  0  0  0  0
  4 17  1  0  0  0  0
  5  6  2  0  0  0  0
  6 24  1  0  0  0  0
  7  4  1  0  0  0  0
  8  3  1  0  0  0  0
  9  8  1  0  0  0  0
  9 13  1  0  0  0  0
 10  9  2  0  0  0  0
 11 22  1  0  0  0  0
 12 15  1  0  0  0  0
 14 25  1  0  0  0  0
 15 11  1  0  0  0  0
 15 10  1  0  0  0  0
 16  4  2  0  0  0  0
 16 10  1  0  0  0  0
 17 27  1  0  0  0  0
 18 14  1  0  0  0  0
 19  2  1  0  0  0  0
 19 12  1  0  0  0  0
 21 18  1  0  0  0  0
 22  8  1  0  0  0  0
 22 18  2  0  0  0  0
 25 23  1  0  0  0  0
 25 24  2  0  0  0  0
 26 19  1  0  0  0  0
 27 13  2  0  0  0  0
 27 20  1  0  0  0  0
 28 17  1  0  0  0  0
 29 26  1  0  0  0  0
 29  1  1  0  0  0  0
 30 19  1  0  0  0  0
M  END
>  <MODEL>
3

>  <REMARK>
 VINA RESULT:      -7.8      3.294      7.142
  Name = 
  0 active torsions:
  status: ('A' for Active; 'I' for Inactive)
                            x       y       z     vdW  Elec       q    Type
                         _______ _______ _______ _____ _____    ______ ____

>  <TORSDO>
F 0

$$$$
=
 OpenBabel11032419143D

 30 36  0  0  1  0  0  0  0  0999 V2000
  186.3970  177.1470  146.0970 C   0  0  0  0  0  2  0  0  0  0  0  0
  185.6770  177.9560  145.0290 C   0  0  1  0  0  0  0  0  0  0  0  0
  188.2740  178.0200  140.0890 C   0  0  0  0  0  0  0  0  0  0  0  0
  182.9450  178.3060  141.8090 C   0  0  0  0  0  0  0  0  0  0  0  0
  188.0640  178.6130  138.8440 C   0  0  0  0  0  3  0  0  0  0  0  0
  189.1470  178.6350  137.9490 C   0  0  0  0  0  3  0  0  0  0  0  0
  181.6990  178.6620  142.2130 F   0  0  0  0  0  0  0  0  0  0  0  0
  187.3960  177.8780  141.1110 N   0  0  0  0  0  0  0  0  0  0  0  0
  185.9990  178.2470  141.2030 C   0  0  0  0  0  0  0  0  0  0  0  0
  185.3870  178.1550  142.4190 C   0  0  0  0  0  0  0  0  0  0  0  0
  187.4360  176.8610  143.3850 C   0  0  0  0  0  2  0  0  0  0  0  0
  186.6590  179.0030  144.4390 C   0  0  1  0  0  3  0  0  0  0  0  0
  185.3260  178.7560  139.9820 C   0  0  0  0  0  3  0  0  0  0  0  0
  189.4940  177.4810  140.4230 C   0  0  0  0  0  0  0  0  0  0  0  0
  186.2450  177.7950  143.6230 C   0  0  2  0  0  0  0  0  0  0  0  0
  183.9530  178.4630  142.6660 C   0  0  0  0  0  3  0  0  0  0  0  0
  183.1580  177.6900  140.4640 C   0  0  2  0  0  3  0  0  0  0  0  0
  189.3830  176.9760  141.7050 C   0  0  0  0  0  0  0  0  0  0  0  0
  185.6810  179.3740  145.5220 C   0  0  2  0  0  0  0  0  0  0  0  0
  183.6010  179.1210  138.4910 F   0  0  0  0  0  0  0  0  0  0  0  0
  190.4300  176.2800  142.5060 C   0  0  0  0  0  1  0  0  0  0  0  0
  188.0790  177.2450  142.0940 C   0  0  0  0  0  0  0  0  0  0  0  0
  191.8280  176.9580  139.8440 N   0  0  0  0  0  1  0  0  0  0  0  0
  190.3540  178.0920  138.3000 N   0  0  0  0  0  0  0  0  0  0  0  0
  190.5570  177.5120  139.5190 C   0  0  0  0  0  0  0  0  0  0  0  0
  186.1180  179.3970  146.9720 C   0  0  0  0  0  2  0  0  0  0  0  0
  184.0530  178.5620  139.6420 C   0  0  0  0  0  0  0  0  0  0  0  0
  181.8370  177.4230  139.7560 C   0  0  0  0  0  1  0  0  0  0  0  0
  186.2780  177.9450  147.3840 C   0  0  0  0  0  2  0  0  0  0  0  0
  184.5030  180.1280  145.1300 N   0  0  0  0  0  1  0  0  0  0  0  0
  1 29  1  0  0  0  0
  2 19  1  0  0  0  0
  2  1  1  1  0  0  0
  3 14  1  0  0  0  0
  3  8  1  0  0  0  0
  4  7  1  0  0  0  0
  4 16  2  0  0  0  0
  5  3  2  0  0  0  0
  6 24  2  0  0  0  0
  6  5  1  0  0  0  0
  8  9  1  0  0  0  0
  8 22  1  0  0  0  0
  9 10  2  0  0  0  0
 10 16  1  0  0  0  0
 10 15  1  0  0  0  0
 11 15  1  0  0  0  0
 12  2  1  0  0  0  0
 12 19  1  0  0  0  0
 13  9  1  0  0  0  0
 14 18  1  0  0  0  0
 15 12  1  0  0  0  0
 15  2  1  0  0  0  0
 17  4  1  0  0  0  0
 18 22  2  0  0  0  0
 18 21  1  0  0  0  0
 19 26  1  0  0  0  0
 20 27  1  0  0  0  0
 22 11  1  0  0  0  0
 24 25  1  0  0  0  0
 25 23  1  0  0  0  0
 25 14  2  0  0  0  0
 26 29  1  0  0  0  0
 27 13  2  0  0  0  0
 27 17  1  0  0  0  0
 28 17  1  0  0  0  0
 30 19  1  0  0  0  0
M  END
>  <MODEL>
4

>  <REMARK>
 VINA RESULT:      -7.8      1.191      1.405
  Name = 
  0 active torsions:
  status: ('A' for Active; 'I' for Inactive)
                            x       y       z     vdW  Elec       q    Type
                         _______ _______ _______ _____ _____    ______ ____

>  <TORSDO>
F 0

$$$$
=
 OpenBabel11032419143D

 30 36  0  0  1  0  0  0  0  0999 V2000
  192.6580  173.6400  136.9130 C   0  0  0  0  0  2  0  0  0  0  0  0
  192.3140  174.9520  137.6010 C   0  0  1  0  0  0  0  0  0  0  0  0
  186.9490  176.4220  137.1400 C   0  0  0  0  0  0  0  0  0  0  0  0
  190.9900  177.1850  140.9500 C   0  0  0  0  0  0  0  0  0  0  0  0
  186.1570  177.4990  137.5390 C   0  0  0  0  0  3  0  0  0  0  0  0
  184.8990  177.6360  136.9300 C   0  0  0  0  0  3  0  0  0  0  0  0
  192.0120  177.6190  141.7310 F   0  0  0  0  0  0  0  0  0  0  0  0
  188.1850  176.0810  137.5740 N   0  0  0  0  0  0  0  0  0  0  0  0
  189.0210  176.6870  138.5900 C   0  0  0  0  0  0  0  0  0  0  0  0
  190.3090  176.2510  138.7100 C   0  0  0  0  0  0  0  0  0  0  0  0
  189.8110  174.2500  137.1120 C   0  0  0  0  0  2  0  0  0  0  0  0
  191.6280  175.8970  136.5770 C   0  0  1  0  0  3  0  0  0  0  0  0
  188.4460  177.7840  139.4070 C   0  0  0  0  0  3  0  0  0  0  0  0
  186.5110  175.5330  136.1860 C   0  0  0  0  0  0  0  0  0  0  0  0
  190.8200  175.2510  137.6830 C   0  0  2  0  0  0  0  0  0  0  0  0
  191.2750  176.7480  139.7240 C   0  0  0  0  0  3  0  0  0  0  0  0
  189.5960  177.1360  141.4880 C   0  0  2  0  0  3  0  0  0  0  0  0
  187.5080  174.5910  136.0140 C   0  0  0  0  0  0  0  0  0  0  0  0
  193.1000  176.0090  136.8790 C   0  0  2  0  0  0  0  0  0  0  0  0
  188.1050  179.1020  141.2720 F   0  0  0  0  0  0  0  0  0  0  0  0
  187.5030  173.4130  135.1000 C   0  0  0  0  0  1  0  0  0  0  0  0
  188.5230  174.9680  136.8810 C   0  0  0  0  0  0  0  0  0  0  0  0
  184.7830  174.7760  134.6060 N   0  0  0  0  0  1  0  0  0  0  0  0
  184.4800  176.7390  135.9840 N   0  0  0  0  0  0  0  0  0  0  0  0
  185.2560  175.6860  135.5940 C   0  0  0  0  0  0  0  0  0  0  0  0
  194.1190  175.3420  135.9770 C   0  0  0  0  0  2  0  0  0  0  0  0
  188.7120  178.0380  140.6880 C   0  0  0  0  0  0  0  0  0  0  0  0
  189.5550  177.4840  142.9680 C   0  0  0  0  0  1  0  0  0  0  0  0
  194.0060  173.8530  136.2470 C   0  0  0  0  0  2  0  0  0  0  0  0
  193.5250  177.1010  137.7350 N   0  0  0  0  0  1  0  0  0  0  0  0
  2  1  1  6  0  0  0
  2 15  1  0  0  0  0
  3  5  1  0  0  0  0
  3  8  1  0  0  0  0
  4 17  1  0  0  0  0
  4  7  1  0  0  0  0
  6  5  2  0  0  0  0
  8  9  1  0  0  0  0
  9 10  2  0  0  0  0
  9 13  1  0  0  0  0
 10 16  1  0  0  0  0
 11 15  1  0  0  0  0
 12 19  1  0  0  0  0
 12  2  1  0  0  0  0
 12 15  1  0  0  0  0
 13 27  2  0  0  0  0
 14  3  2  0  0  0  0
 15 10  1  0  0  0  0
 16  4  2  0  0  0  0
 17 28  1  0  0  0  0
 18 14  1  0  0  0  0
 18 22  2  0  0  0  0
 19  2  1  0  0  0  0
 19 30  1  0  0  0  0
 21 18  1  0  0  0  0
 22 11  1  0  0  0  0
 22  8  1  0  0  0  0
 23 25  1  0  0  0  0
 24  6  1  0  0  0  0
 25 24  2  0  0  0  0
 25 14  1  0  0  0  0
 26 29  1  0  0  0  0
 26 19  1  0  0  0  0
 27 20  1  0  0  0  0
 27 17  1  0  0  0  0
 29  1  1  0  0  0  0
M  END
>  <MODEL>
5

>  <REMARK>
 VINA RESULT:      -7.7      4.404      8.318
  Name = 
  0 active torsions:
  status: ('A' for Active; 'I' for Inactive)
                            x       y       z     vdW  Elec       q    Type
                         _______ _______ _______ _____ _____    ______ ____

>  <TORSDO>
F 0

$$$$
=
 OpenBabel11032419143D

 30 36  0  0  1  0  0  0  0  0999 V2000
  185.2970  177.4650  136.7960 C   0  0  0  0  0  2  0  0  0  0  0  0
  183.8840  177.5910  137.3470 C   0  0  1  0  0  0  0  0  0  0  0  0
  183.6670  178.8200  142.7870 C   0  0  0  0  0  0  0  0  0  0  0  0
  180.4380  179.8550  138.3220 C   0  0  0  0  0  0  0  0  0  0  0  0
  182.6680  179.0030  143.7440 C   0  0  0  0  0  3  0  0  0  0  0  0
  183.0550  178.9800  145.0940 C   0  0  0  0  0  3  0  0  0  0  0  0
  179.5170  179.8670  137.3260 F   0  0  0  0  0  0  0  0  0  0  0  0
  183.5460  178.8000  141.4390 N   0  0  0  0  0  0  0  0  0  0  0  0
  182.3830  179.0030  140.6000 C   0  0  0  0  0  0  0  0  0  0  0  0
  182.5000  178.7510  139.2640 C   0  0  0  0  0  0  0  0  0  0  0  0
  185.0890  178.5450  139.5000 C   0  0  0  0  0  2  0  0  0  0  0  0
  183.7320  176.6490  138.5710 C   0  0  1  0  0  3  0  0  0  0  0  0
  181.1150  179.4210  141.2490 C   0  0  0  0  0  3  0  0  0  0  0  0
  184.9770  178.6230  143.1560 C   0  0  0  0  0  0  0  0  0  0  0  0
  183.8050  178.1490  138.7640 C   0  0  2  0  0  0  0  0  0  0  0  0
  181.4100  178.9450  138.2720 C   0  0  0  0  0  3  0  0  0  0  0  0
  180.3960  180.8870  139.4030 C   0  0  2  0  0  3  0  0  0  0  0  0
  185.7130  178.4780  141.9960 C   0  0  0  0  0  0  0  0  0  0  0  0
  183.2680  176.2290  137.2010 C   0  0  2  0  0  0  0  0  0  0  0  0
  179.0770  180.4850  141.4610 F   0  0  0  0  0  0  0  0  0  0  0  0
  187.1820  178.2580  141.8690 C   0  0  0  0  0  1  0  0  0  0  0  0
  184.7950  178.5870  140.9620 C   0  0  0  0  0  0  0  0  0  0  0  0
  186.6920  178.4060  144.9080 N   0  0  0  0  0  1  0  0  0  0  0  0
  184.3650  178.7860  145.4420 N   0  0  0  0  0  0  0  0  0  0  0  0
  185.3410  178.6060  144.5050 C   0  0  0  0  0  0  0  0  0  0  0  0
  184.1550  175.3720  136.3220 C   0  0  0  0  0  2  0  0  0  0  0  0
  180.1890  180.2250  140.7280 C   0  0  0  0  0  0  0  0  0  0  0  0
  179.3290  181.9380  139.1320 C   0  0  0  0  0  1  0  0  0  0  0  0
  185.2760  176.2790  135.8480 C   0  0  0  0  0  2  0  0  0  0  0  0
  181.8400  176.2640  136.9390 N   0  0  0  0  0  1  0  0  0  0  0  0
  2  1  1  6  0  0  0
  2 12  1  0  0  0  0
  2 15  1  0  0  0  0
  3 14  2  0  0  0  0
  3  5  1  0  0  0  0
  4 17  1  0  0  0  0
  5  6  2  0  0  0  0
  6 24  1  0  0  0  0
  7  4  1  0  0  0  0
  8  3  1  0  0  0  0
  9 13  1  0  0  0  0
  9  8  1  0  0  0  0
 10  9  2  0  0  0  0
 11 22  1  0  0  0  0
 12 15  1  0  0  0  0
 14 25  1  0  0  0  0
 15 10  1  0  0  0  0
 15 11  1  0  0  0  0
 16  4  2  0  0  0  0
 16 10  1  0  0  0  0
 17 27  1  0  0  0  0
 18 14  1  0  0  0  0
 19  2  1  0  0  0  0
 19 12  1  0  0  0  0
 21 18  1  0  0  0  0
 22  8  1  0  0  0  0
 22 18  2  0  0  0  0
 25 23  1  0  0  0  0
 25 24  2  0  0  0  0
 26 19  1  0  0  0  0
 27 13  2  0  0  0  0
 27 20  1  0  0  0  0
 28 17  1  0  0  0  0
 29 26  1  0  0  0  0
 29  1  1  0  0  0  0
 30 19  1  0  0  0  0
M  END
>  <MODEL>
6

>  <REMARK>
 VINA RESULT:      -7.5      3.597      7.436
  Name = 
  0 active torsions:
  status: ('A' for Active; 'I' for Inactive)
                            x       y       z     vdW  Elec       q    Type
                         _______ _______ _______ _____ _____    ______ ____

>  <TORSDO>
F 0

$$$$
=
 OpenBabel11032419143D

 30 36  0  0  1  0  0  0  0  0999 V2000
  189.4750  178.4660  144.5760 C   0  0  0  0  0  2  0  0  0  0  0  0
  189.3420  177.8440  143.1950 C   0  0  1  0  0  0  0  0  0  0  0  0
  184.2330  178.2730  140.9900 C   0  0  0  0  0  0  0  0  0  0  0  0
  189.4570  178.0680  138.9650 C   0  0  0  0  0  0  0  0  0  0  0  0
  183.5980  177.8580  139.8190 C   0  0  0  0  0  3  0  0  0  0  0  0
  182.1940  177.8910  139.7990 C   0  0  0  0  0  3  0  0  0  0  0  0
  190.6690  177.7340  138.4530 F   0  0  0  0  0  0  0  0  0  0  0  0
  185.5600  178.3310  141.2520 N   0  0  0  0  0  0  0  0  0  0  0  0
  186.6950  178.0320  140.4040 C   0  0  0  0  0  0  0  0  0  0  0  0
  187.9350  178.0010  140.9740 C   0  0  0  0  0  0  0  0  0  0  0  0
  186.9840  179.0410  143.1690 C   0  0  0  0  0  2  0  0  0  0  0  0
  188.1680  176.8280  143.2070 C   0  0  1  0  0  3  0  0  0  0  0  0
  186.4410  177.7240  138.9750 C   0  0  0  0  0  3  0  0  0  0  0  0
  183.5070  178.6940  142.0800 C   0  0  0  0  0  0  0  0  0  0  0  0
  188.0280  178.1520  142.4860 C   0  0  2  0  0  0  0  0  0  0  0  0
  189.1970  177.7450  140.2310 C   0  0  0  0  0  3  0  0  0  0  0  0
  188.4750  178.8400  138.1430 C   0  0  2  0  0  3  0  0  0  0  0  0
  184.4120  179.0350  143.0680 C   0  0  0  0  0  0  0  0  0  0  0  0
  189.5940  176.3750  143.3840 C   0  0  2  0  0  0  0  0  0  0  0  0
  186.8460  177.6530  136.7020 F   0  0  0  0  0  0  0  0  0  0  0  0
  184.1180  179.5610  144.4320 C   0  0  0  0  0  1  0  0  0  0  0  0
  185.6630  178.7910  142.5210 C   0  0  0  0  0  0  0  0  0  0  0  0
  181.3420  179.1550  143.1560 N   0  0  0  0  0  1  0  0  0  0  0  0
  181.4900  178.3160  140.8940 N   0  0  0  0  0  0  0  0  0  0  0  0
  182.1120  178.7200  142.0390 C   0  0  0  0  0  0  0  0  0  0  0  0
  190.1550  176.1410  144.7710 C   0  0  0  0  0  2  0  0  0  0  0  0
  187.2310  178.0320  137.9470 C   0  0  0  0  0  0  0  0  0  0  0  0
  189.0750  179.2700  136.8130 C   0  0  0  0  0  1  0  0  0  0  0  0
  190.3400  177.5160  145.3860 C   0  0  0  0  0  2  0  0  0  0  0  0
  190.2410  175.7470  142.2470 N   0  0  0  0  0  1  0  0  0  0  0  0
  1 29  1  0  0  0  0
  2 12  1  0  0  0  0
  2 19  1  0  0  0  0
  2  1  1  1  0  0  0
  3  8  1  0  0  0  0
  3 14  1  0  0  0  0
  4 16  2  0  0  0  0
  5  3  2  0  0  0  0
  6  5  1  0  0  0  0
  6 24  2  0  0  0  0
  7  4  1  0  0  0  0
  8 22  1  0  0  0  0
  9 10  2  0  0  0  0
  9  8  1  0  0  0  0
 10 15  1  0  0  0  0
 12 19  1  0  0  0  0
 13  9  1  0  0  0  0
 14 18  1  0  0  0  0
 15 11  1  0  0  0  0
 15  2  1  0  0  0  0
 15 12  1  0  0  0  0
 16 10  1  0  0  0  0
 17  4  1  0  0  0  0
 18 21  1  0  0  0  0
 19 26  1  0  0  0  0
 20 27  1  0  0  0  0
 22 18  2  0  0  0  0
 22 11  1  0  0  0  0
 24 25  1  0  0  0  0
 25 14  2  0  0  0  0
 25 23  1  0  0  0  0
 26 29  1  0  0  0  0
 27 17  1  0  0  0  0
 27 13  2  0  0  0  0
 28 17  1  0  0  0  0
 30 19  1  0  0  0  0
M  END
>  <MODEL>
7

>  <REMARK>
 VINA RESULT:      -7.3      2.944      6.014
  Name = 
  0 active torsions:
  status: ('A' for Active; 'I' for Inactive)
                            x       y       z     vdW  Elec       q    Type
                         _______ _______ _______ _____ _____    ______ ____

>  <TORSDO>
F 0

$$$$
=
 OpenBabel11032419143D

 30 36  0  0  1  0  0  0  0  0999 V2000
  187.9800  176.2520  136.2230 C   0  0  0  0  0  2  0  0  0  0  0  0
  187.9100  177.2610  137.3590 C   0  0  1  0  0  0  0  0  0  0  0  0
  182.7230  178.8630  138.6580 C   0  0  0  0  0  0  0  0  0  0  0  0
  187.5410  178.2560  141.4610 C   0  0  0  0  0  0  0  0  0  0  0  0
  182.1350  179.7530  139.5570 C   0  0  0  0  0  3  0  0  0  0  0  0
  180.7920  180.1010  139.3350 C   0  0  0  0  0  3  0  0  0  0  0  0
  188.7420  178.3910  142.0800 F   0  0  0  0  0  0  0  0  0  0  0  0
  183.9890  178.3810  138.6590 N   0  0  0  0  0  0  0  0  0  0  0  0
  185.0740  178.6010  139.5930 C   0  0  0  0  0  0  0  0  0  0  0  0
  186.3140  178.1360  139.2620 C   0  0  0  0  0  0  0  0  0  0  0  0
  185.3080  176.7930  137.2650 C   0  0  0  0  0  2  0  0  0  0  0  0
  187.1070  178.5020  136.8850 C   0  0  1  0  0  3  0  0  0  0  0  0
  184.7880  179.3680  140.8310 C   0  0  0  0  0  3  0  0  0  0  0  0
  182.0140  178.3510  137.5980 C   0  0  0  0  0  0  0  0  0  0  0  0
  186.5010  177.5320  137.8780 C   0  0  2  0  0  0  0  0  0  0  0  0
  187.5160  178.2530  140.1290 C   0  0  0  0  0  3  0  0  0  0  0  0
  186.2960  178.0460  142.2620 C   0  0  2  0  0  3  0  0  0  0  0  0
  182.8630  177.5100  136.9030 C   0  0  0  0  0  0  0  0  0  0  0  0
  188.6130  178.4890  136.8560 C   0  0  2  0  0  0  0  0  0  0  0  0
  184.9740  179.9880  143.0480 F   0  0  0  0  0  0  0  0  0  0  0  0
  182.5570  176.7070  135.6850 C   0  0  0  0  0  1  0  0  0  0  0  0
  184.0690  177.5610  137.5850 C   0  0  0  0  0  0  0  0  0  0  0  0
  179.9250  178.1880  136.3050 N   0  0  0  0  0  1  0  0  0  0  0  0
  180.1010  179.5780  138.2750 N   0  0  0  0  0  0  0  0  0  0  0  0
  180.6790  178.7080  137.3960 C   0  0  0  0  0  0  0  0  0  0  0  0
  189.3500  178.1520  135.5760 C   0  0  0  0  0  2  0  0  0  0  0  0
  185.3440  179.1750  142.0260 C   0  0  0  0  0  0  0  0  0  0  0  0
  186.6060  177.8780  143.7430 C   0  0  0  0  0  1  0  0  0  0  0  0
  189.1670  176.6600  135.3680 C   0  0  0  0  0  2  0  0  0  0  0  0
  189.3080  179.2260  137.8960 N   0  0  0  0  0  1  0  0  0  0  0  0
  2  1  1  6  0  0  0
  2 15  1  0  0  0  0
  3  8  1  0  0  0  0
  3  5  1  0  0  0  0
  4  7  1  0  0  0  0
  4 17  1  0  0  0  0
  6  5  2  0  0  0  0
  8  9  1  0  0  0  0
  9 13  1  0  0  0  0
 10  9  2  0  0  0  0
 10 16  1  0  0  0  0
 11 22  1  0  0  0  0
 11 15  1  0  0  0  0
 12  2  1  0  0  0  0
 12 15  1  0  0  0  0
 13 27  2  0  0  0  0
 14  3  2  0  0  0  0
 15 10  1  0  0  0  0
 16  4  2  0  0  0  0
 17 28  1  0  0  0  0
 18 22  2  0  0  0  0
 18 14  1  0  0  0  0
 19 12  1  0  0  0  0
 19  2  1  0  0  0  0
 19 30  1  0  0  0  0
 21 18  1  0  0  0  0
 22  8  1  0  0  0  0
 23 25  1  0  0  0  0
 24  6  1  0  0  0  0
 25 14  1  0  0  0  0
 25 24  2  0  0  0  0
 26 19  1  0  0  0  0
 27 17  1  0  0  0  0
 27 20  1  0  0  0  0
 29 26  1  0  0  0  0
 29  1  1  0  0  0  0
M  END
>  <MODEL>
8

>  <REMARK>
 VINA RESULT:      -7.0      3.950      8.022
  Name = 
  0 active torsions:
  status: ('A' for Active; 'I' for Inactive)
                            x       y       z     vdW  Elec       q    Type
                         _______ _______ _______ _____ _____    ______ ____

>  <TORSDO>
F 0

$$$$
=
 OpenBabel11032419143D

 30 36  0  0  1  0  0  0  0  0999 V2000
  189.4310  178.1030  137.1660 C   0  0  0  0  0  2  0  0  0  0  0  0
  187.9910  177.7910  137.5470 C   0  0  1  0  0  0  0  0  0  0  0  0
  186.9990  177.9770  143.0360 C   0  0  0  0  0  0  0  0  0  0  0  0
  184.0090  178.9630  138.3970 C   0  0  0  0  0  0  0  0  0  0  0  0
  185.9080  177.7480  143.8750 C   0  0  0  0  0  3  0  0  0  0  0  0
  186.1700  177.5870  145.2450 C   0  0  0  0  0  3  0  0  0  0  0  0
  183.2040  178.9250  137.3040 F   0  0  0  0  0  0  0  0  0  0  0  0
  187.0030  178.1610  141.6950 N   0  0  0  0  0  0  0  0  0  0  0  0
  185.9040  178.2210  140.7540 C   0  0  0  0  0  0  0  0  0  0  0  0
  186.1960  178.2380  139.4210 C   0  0  0  0  0  0  0  0  0  0  0  0
  188.7210  178.6200  139.9500 C   0  0  0  0  0  2  0  0  0  0  0  0
  187.9810  176.6430  138.5920 C   0  0  1  0  0  3  0  0  0  0  0  0
  184.5200  178.2060  141.2910 C   0  0  0  0  0  3  0  0  0  0  0  0
  188.2780  178.0390  143.5350 C   0  0  0  0  0  0  0  0  0  0  0  0
  187.6500  178.0610  139.0080 C   0  0  2  0  0  0  0  0  0  0  0  0
  185.1820  178.3340  138.3380 C   0  0  0  0  0  3  0  0  0  0  0  0
  183.6110  179.7530  139.6020 C   0  0  2  0  0  3  0  0  0  0  0  0
  189.1250  178.2760  142.4680 C   0  0  0  0  0  0  0  0  0  0  0  0
  187.7590  176.3670  137.1280 C   0  0  2  0  0  0  0  0  0  0  0  0
  182.2670  178.6990  141.3970 F   0  0  0  0  0  0  0  0  0  0  0  0
  190.6060  178.4390  142.4970 C   0  0  0  0  0  1  0  0  0  0  0  0
  188.3020  178.3380  141.3540 C   0  0  0  0  0  0  0  0  0  0  0  0
  189.8350  177.9400  145.4390 N   0  0  0  0  0  1  0  0  0  0  0  0
  187.4510  177.6550  145.7240 N   0  0  0  0  0  0  0  0  0  0  0  0
  188.5180  177.8780  144.9020 C   0  0  0  0  0  0  0  0  0  0  0  0
  188.9090  175.9110  136.2530 C   0  0  0  0  0  2  0  0  0  0  0  0
  183.4670  178.8420  140.7800 C   0  0  0  0  0  0  0  0  0  0  0  0
  182.3380  180.5480  139.3540 C   0  0  0  0  0  1  0  0  0  0  0  0
  189.7960  177.1280  136.0610 C   0  0  0  0  0  2  0  0  0  0  0  0
  186.3980  176.1040  136.6960 N   0  0  0  0  0  1  0  0  0  0  0  0
  2  1  1  6  0  0  0
  2 12  1  0  0  0  0
  2 15  1  0  0  0  0
  3 14  2  0  0  0  0
  3  5  1  0  0  0  0
  4 17  1  0  0  0  0
  5  6  2  0  0  0  0
  6 24  1  0  0  0  0
  7  4  1  0  0  0  0
  8  3  1  0  0  0  0
  9 13  1  0  0  0  0
  9  8  1  0  0  0  0
 10  9  2  0  0  0  0
 11 22  1  0  0  0  0
 12 15  1  0  0  0  0
 14 25  1  0  0  0  0
 15 10  1  0  0  0  0
 15 11  1  0  0  0  0
 16  4  2  0  0  0  0
 16 10  1  0  0  0  0
 17 27  1  0  0  0  0
 18 21  1  0  0  0  0
 18 14  1  0  0  0  0
 19  2  1  0  0  0  0
 19 12  1  0  0  0  0
 22  8  1  0  0  0  0
 22 18  2  0  0  0  0
 25 23  1  0  0  0  0
 25 24  2  0  0  0  0
 26 19  1  0  0  0  0
 27 13  2  0  0  0  0
 27 20  1  0  0  0  0
 28 17  1  0  0  0  0
 29 26  1  0  0  0  0
 29  1  1  0  0  0  0
 30 19  1  0  0  0  0
M  END
>  <MODEL>
9

>  <REMARK>
 VINA RESULT:      -6.9      2.310      6.308
  Name = 
  0 active torsions:
  status: ('A' for Active; 'I' for Inactive)
                            x       y       z     vdW  Elec       q    Type
                         _______ _______ _______ _____ _____    ______ ____

>  <TORSDO>
F 0

$$$$
