=
 OpenBabel11032420363D

 27 32  0  0  1  0  0  0  0  0999 V2000
  186.0660  179.9260  141.6330 O   0  0  0  0  0  0  0  0  0  0  0  0
  184.8830  178.1650  142.6360 N   0  0  0  0  0  2  0  0  0  0  0  0
  185.2280  178.9930  141.5190 C   0  0  0  0  0  0  0  0  0  0  0  0
  184.8650  179.0790  145.0370 C   0  0  0  0  0  2  0  0  0  0  0  0
  189.0070  176.8330  143.4480 C   0  0  0  0  0  2  0  0  0  0  0  0
  186.6330  178.1890  146.5430 N   0  0  0  0  0  0  0  0  0  0  0  0
  187.2880  177.7500  145.5110 C   0  0  0  0  0  0  0  0  0  0  0  0
  187.4990  177.0130  143.0410 C   0  0  0  0  0  2  0  0  0  0  0  0
  185.2200  178.5660  146.4400 C   0  0  0  0  0  2  0  0  0  0  0  0
  189.9140  177.7030  145.8480 N   0  0  0  0  0  2  0  0  0  0  0  0
  188.6160  177.0810  145.6110 C   0  0  2  0  0  3  0  0  0  0  0  0
  185.4640  178.2170  143.9480 C   0  0  0  0  0  0  0  0  0  0  0  0
  189.2860  177.8670  144.5340 C   0  0  2  0  0  3  0  0  0  0  0  0
  186.6520  177.6370  144.1670 C   0  0  0  0  0  0  0  0  0  0  0  0
  184.7850  178.1660  138.0620 C   0  0  2  0  0  3  0  0  0  0  0  0
  182.4460  177.6800  137.9530 O   0  0  0  0  0  1  0  0  0  0  0  0
  185.1960  179.1170  139.0150 O   0  0  0  0  0  0  0  0  0  0  0  0
  183.1850  179.1090  140.2120 O   0  0  0  0  0  0  0  0  0  0  0  0
  183.5230  177.7380  140.0770 C   0  0  1  0  0  3  0  0  0  0  0  0
  183.6260  177.3540  138.6250 C   0  0  2  0  0  3  0  0  0  0  0  0
  184.5470  178.7760  140.2120 C   0  0  2  0  0  0  0  0  0  0  0  0
  185.9560  177.2600  137.7080 C   0  0  0  0  0  2  0  0  0  0  0  0
  188.0440  177.8370  138.8990 O   0  0  0  0  0  0  0  0  0  0  0  0
  187.2490  177.9850  137.8700 C   0  0  0  0  0  0  0  0  0  0  0  0
  187.7370  178.8440  136.9580 N   0  0  0  0  0  0  0  0  0  0  0  0
  189.0900  178.6030  138.7050 C   0  0  0  0  0  3  0  0  0  0  0  0
  188.9100  179.2400  137.4910 C   0  0  0  0  0  3  0  0  0  0  0  0
  2 12  1  0  0  0  0
  3  1  2  0  0  0  0
  3  2  1  0  0  0  0
  4  9  1  0  0  0  0
  7  6  2  0  0  0  0
  8  5  1  0  0  0  0
  8 14  1  0  0  0  0
  9  6  1  0  0  0  0
 11  7  1  1  0  0  0
 11 10  1  0  0  0  0
 12 14  2  0  0  0  0
 12  4  1  0  0  0  0
 13  5  1  6  0  0  0
 13 11  1  0  0  0  0
 13 10  1  0  0  0  0
 14  7  1  0  0  0  0
 15 22  1  1  0  0  0
 15 20  1  0  0  0  0
 15 17  1  0  0  0  0
 17 21  1  0  0  0  0
 19 21  1  0  0  0  0
 19 18  1  6  0  0  0
 20 16  1  6  0  0  0
 20 19  1  0  0  0  0
 21 18  1  0  0  0  0
 21  3  1  1  0  0  0
 22 24  1  0  0  0  0
 24 23  1  0  0  0  0
 25 27  1  0  0  0  0
 25 24  2  0  0  0  0
 26 23  1  0  0  0  0
 27 26  2  0  0  0  0
M  END
>  <MODEL>
1

>  <REMARK>
 VINA RESULT:      -8.4      0.000      0.000
  Name = 
  4 active torsions:
  status: ('A' for Active; 'I' for Inactive)
    1  A    between atoms: C_1  and  C_3
    2  A    between atoms: C_1  and  C_6
    3  A    between atoms: C_19  and  N_21
    4  A    between atoms: C_22  and  C_27
                            x       y       z     vdW  Elec       q    Type
                         _______ _______ _______ _____ _____    ______ ____

>  <TORSDO>
F 4

$$$$
=
 OpenBabel11032420363D

 27 32  0  0  1  0  0  0  0  0999 V2000
  190.4390  175.6480  142.9030 O   0  0  0  0  0  0  0  0  0  0  0  0
  191.3220  177.7030  142.1900 N   0  0  0  0  0  2  0  0  0  0  0  0
  190.8520  176.8010  143.1990 C   0  0  0  0  0  0  0  0  0  0  0  0
  192.8270  177.3320  140.1400 C   0  0  0  0  0  2  0  0  0  0  0  0
  187.9880  178.1510  139.3400 C   0  0  0  0  0  2  0  0  0  0  0  0
  191.6480  176.7600  138.0270 N   0  0  0  0  0  0  0  0  0  0  0  0
  190.5290  177.1730  138.5410 C   0  0  0  0  0  0  0  0  0  0  0  0
  188.9750  177.7970  140.5110 C   0  0  0  0  0  2  0  0  0  0  0  0
  192.8090  176.4670  138.8720 C   0  0  0  0  0  2  0  0  0  0  0  0
  188.8310  178.1590  136.7650 N   0  0  0  0  0  2  0  0  0  0  0  0
  189.2450  177.2020  137.7860 C   0  0  2  0  0  3  0  0  0  0  0  0
  191.4630  177.4180  140.7900 C   0  0  0  0  0  0  0  0  0  0  0  0
  188.8550  178.5920  138.1660 C   0  0  2  0  0  3  0  0  0  0  0  0
  190.3760  177.4010  140.0070 C   0  0  0  0  0  0  0  0  0  0  0  0
  189.5140  177.6300  146.4160 C   0  0  2  0  0  3  0  0  0  0  0  0
  191.4440  177.4890  147.8200 O   0  0  0  0  0  1  0  0  0  0  0  0
  189.7230  178.0160  145.0790 O   0  0  0  0  0  0  0  0  0  0  0  0
  192.0410  177.6920  145.1190 O   0  0  0  0  0  0  0  0  0  0  0  0
  191.5050  176.4930  145.6560 C   0  0  1  0  0  3  0  0  0  0  0  0
  190.6860  176.7790  146.8870 C   0  0  2  0  0  3  0  0  0  0  0  0
  190.8070  177.2530  144.6180 C   0  0  2  0  0  0  0  0  0  0  0  0
  188.2070  176.8560  146.5250 C   0  0  0  0  0  2  0  0  0  0  0  0
  186.5800  177.5060  144.7810 O   0  0  0  0  0  0  0  0  0  0  0  0
  187.0730  177.6600  145.9840 C   0  0  0  0  0  0  0  0  0  0  0  0
  186.4290  178.6050  146.6910 N   0  0  0  0  0  0  0  0  0  0  0  0
  185.5890  178.3550  144.6490 C   0  0  0  0  0  3  0  0  0  0  0  0
  185.4840  179.0500  145.8400 C   0  0  0  0  0  3  0  0  0  0  0  0
  1  3  2  0  0  0  0
  2  3  1  0  0  0  0
  4 12  1  0  0  0  0
  5  8  1  0  0  0  0
  6  7  2  0  0  0  0
  6  9  1  0  0  0  0
  7 14  1  0  0  0  0
  9  4  1  0  0  0  0
 10 13  1  0  0  0  0
 11 10  1  6  0  0  0
 11 13  1  0  0  0  0
 11  7  1  0  0  0  0
 12  2  1  0  0  0  0
 13  5  1  1  0  0  0
 14  8  1  0  0  0  0
 14 12  2  0  0  0  0
 15 22  1  6  0  0  0
 15 20  1  0  0  0  0
 17 15  1  0  0  0  0
 19 18  1  1  0  0  0
 19 20  1  0  0  0  0
 20 16  1  1  0  0  0
 21  3  1  6  0  0  0
 21 17  1  0  0  0  0
 21 18  1  0  0  0  0
 21 19  1  0  0  0  0
 23 24  1  0  0  0  0
 24 22  1  0  0  0  0
 24 25  2  0  0  0  0
 26 23  1  0  0  0  0
 26 27  2  0  0  0  0
 27 25  1  0  0  0  0
M  END
>  <MODEL>
2

>  <REMARK>
 VINA RESULT:      -8.3      3.471      8.396
  Name = 
  4 active torsions:
  status: ('A' for Active; 'I' for Inactive)
    1  A    between atoms: C_1  and  C_3
    2  A    between atoms: C_1  and  C_6
    3  A    between atoms: C_19  and  N_21
    4  A    between atoms: C_22  and  C_27
                            x       y       z     vdW  Elec       q    Type
                         _______ _______ _______ _____ _____    ______ ____

>  <TORSDO>
F 4

$$$$
=
 OpenBabel11032420363D

 27 32  0  0  1  0  0  0  0  0999 V2000
  189.6750  178.1870  145.1280 O   0  0  0  0  0  0  0  0  0  0  0  0
  187.8720  177.5210  143.7810 N   0  0  0  0  0  2  0  0  0  0  0  0
  189.2700  177.6470  144.0650 C   0  0  0  0  0  0  0  0  0  0  0  0
  186.7510  177.4440  146.0920 C   0  0  0  0  0  2  0  0  0  0  0  0
  184.0090  178.9890  142.2420 C   0  0  0  0  0  2  0  0  0  0  0  0
  184.6480  178.7540  146.3140 N   0  0  0  0  0  0  0  0  0  0  0  0
  184.5560  178.8220  145.0210 C   0  0  0  0  0  0  0  0  0  0  0  0
  185.5090  178.7070  142.6200 C   0  0  0  0  0  2  0  0  0  0  0  0
  185.9080  178.3830  146.9660 C   0  0  0  0  0  2  0  0  0  0  0  0
  182.0660  178.9410  144.1280 N   0  0  0  0  0  2  0  0  0  0  0  0
  183.4130  179.4690  144.3170 C   0  0  2  0  0  3  0  0  0  0  0  0
  186.7890  177.8940  144.6470 C   0  0  0  0  0  0  0  0  0  0  0  0
  183.1630  178.3640  143.3450 C   0  0  2  0  0  3  0  0  0  0  0  0
  185.7090  178.4970  144.1330 C   0  0  0  0  0  0  0  0  0  0  0  0
  190.6170  176.5700  140.9250 C   0  0  2  0  0  3  0  0  0  0  0  0
  192.9550  176.9870  141.2070 O   0  0  0  0  0  1  0  0  0  0  0  0
  189.8830  176.2420  142.0810 O   0  0  0  0  0  0  0  0  0  0  0  0
  191.5380  176.9200  143.5910 O   0  0  0  0  0  0  0  0  0  0  0  0
  191.4040  178.0130  142.6960 C   0  0  1  0  0  3  0  0  0  0  0  0
  191.6960  177.5850  141.2820 C   0  0  2  0  0  3  0  0  0  0  0  0
  190.2640  177.1710  143.0620 C   0  0  2  0  0  0  0  0  0  0  0  0
  189.6780  177.1310  139.8670 C   0  0  0  0  0  2  0  0  0  0  0  0
  190.5350  175.3750  138.3530 O   0  0  0  0  0  0  0  0  0  0  0  0
  189.9890  176.5520  138.5280 C   0  0  0  0  0  0  0  0  0  0  0  0
  189.7150  177.1730  137.3680 N   0  0  0  0  0  0  0  0  0  0  0  0
  190.6450  175.1790  137.0610 C   0  0  0  0  0  3  0  0  0  0  0  0
  190.1350  176.2990  136.4320 C   0  0  0  0  0  3  0  0  0  0  0  0
  2  3  1  0  0  0  0
  2 12  1  0  0  0  0
  3  1  2  0  0  0  0
  4  9  1  0  0  0  0
  5  8  1  0  0  0  0
  6  9  1  0  0  0  0
  7  6  2  0  0  0  0
  8 14  1  0  0  0  0
 11 10  1  1  0  0  0
 11  7  1  0  0  0  0
 12  4  1  0  0  0  0
 13  5  1  6  0  0  0
 13 10  1  0  0  0  0
 13 11  1  0  0  0  0
 14 12  2  0  0  0  0
 14  7  1  0  0  0  0
 15 22  1  6  0  0  0
 15 20  1  0  0  0  0
 15 17  1  0  0  0  0
 17 21  1  0  0  0  0
 19 21  1  0  0  0  0
 19 18  1  1  0  0  0
 20 16  1  1  0  0  0
 20 19  1  0  0  0  0
 21 18  1  0  0  0  0
 21  3  1  1  0  0  0
 23 24  1  0  0  0  0
 24 22  1  0  0  0  0
 25 24  2  0  0  0  0
 26 23  1  0  0  0  0
 27 26  2  0  0  0  0
 27 25  1  0  0  0  0
M  END
>  <MODEL>
3

>  <REMARK>
 VINA RESULT:      -8.0      3.530      5.508
  Name = 
  4 active torsions:
  status: ('A' for Active; 'I' for Inactive)
    1  A    between atoms: C_1  and  C_3
    2  A    between atoms: C_1  and  C_6
    3  A    between atoms: C_19  and  N_21
    4  A    between atoms: C_22  and  C_27
                            x       y       z     vdW  Elec       q    Type
                         _______ _______ _______ _____ _____    ______ ____

>  <TORSDO>
F 4

$$$$
=
 OpenBabel11032420363D

 27 32  0  0  1  0  0  0  0  0999 V2000
  187.9420  176.2740  143.1010 O   0  0  0  0  0  0  0  0  0  0  0  0
  188.4670  178.4050  142.2690 N   0  0  0  0  0  2  0  0  0  0  0  0
  188.6200  177.3300  143.2040 C   0  0  0  0  0  0  0  0  0  0  0  0
  186.1210  178.4150  141.2180 C   0  0  0  0  0  2  0  0  0  0  0  0
  189.9650  177.2500  138.2850 C   0  0  0  0  0  2  0  0  0  0  0  0
  186.0540  178.4980  138.7340 N   0  0  0  0  0  0  0  0  0  0  0  0
  187.3040  178.1510  138.6900 C   0  0  0  0  0  0  0  0  0  0  0  0
  189.6690  177.8740  139.6980 C   0  0  0  0  0  2  0  0  0  0  0  0
  185.4500  179.0040  139.9690 C   0  0  0  0  0  2  0  0  0  0  0  0
  187.9560  176.7550  136.5360 N   0  0  0  0  0  2  0  0  0  0  0  0
  188.0420  177.9160  137.4160 C   0  0  2  0  0  3  0  0  0  0  0  0
  187.6300  178.4060  141.1020 C   0  0  0  0  0  0  0  0  0  0  0  0
  188.6600  176.6160  137.8140 C   0  0  2  0  0  3  0  0  0  0  0  0
  188.1810  178.2190  139.8950 C   0  0  0  0  0  0  0  0  0  0  0  0
  189.7860  177.6930  146.5710 C   0  0  2  0  0  3  0  0  0  0  0  0
  192.0550  176.9590  146.4040 O   0  0  0  0  0  1  0  0  0  0  0  0
  189.2260  178.3030  145.4330 O   0  0  0  0  0  0  0  0  0  0  0  0
  190.9090  177.6090  143.9630 O   0  0  0  0  0  0  0  0  0  0  0  0
  190.5300  176.4280  144.6520 C   0  0  1  0  0  3  0  0  0  0  0  0
  190.7370  176.5860  146.1350 C   0  0  2  0  0  3  0  0  0  0  0  0
  189.5660  177.4860  144.3440 C   0  0  2  0  0  0  0  0  0  0  0  0
  188.6740  177.1330  147.4480 C   0  0  0  0  0  2  0  0  0  0  0  0
  186.9620  178.8950  147.7240 O   0  0  0  0  0  0  0  0  0  0  0  0
  187.3760  177.7990  147.1390 C   0  0  0  0  0  0  0  0  0  0  0  0
  186.5150  177.3520  146.2080 N   0  0  0  0  0  0  0  0  0  0  0  0
  185.8020  179.2090  147.2000 C   0  0  0  0  0  3  0  0  0  0  0  0
  185.5100  178.2490  146.2480 C   0  0  0  0  0  3  0  0  0  0  0  0
  1  3  2  0  0  0  0
  2  3  1  0  0  0  0
  5  8  1  0  0  0  0
  6  9  1  0  0  0  0
  7  6  2  0  0  0  0
  7 14  1  0  0  0  0
  8 14  1  0  0  0  0
  9  4  1  0  0  0  0
 10 13  1  0  0  0  0
 11 10  1  6  0  0  0
 11 13  1  0  0  0  0
 11  7  1  0  0  0  0
 12  4  1  0  0  0  0
 12  2  1  0  0  0  0
 13  5  1  6  0  0  0
 14 12  2  0  0  0  0
 15 22  1  1  0  0  0
 17 15  1  0  0  0  0
 18 21  1  0  0  0  0
 19 18  1  6  0  0  0
 19 20  1  0  0  0  0
 20 16  1  6  0  0  0
 20 15  1  0  0  0  0
 21  3  1  6  0  0  0
 21 19  1  0  0  0  0
 21 17  1  0  0  0  0
 24 22  1  0  0  0  0
 24 23  1  0  0  0  0
 25 27  1  0  0  0  0
 25 24  2  0  0  0  0
 26 23  1  0  0  0  0
 27 26  2  0  0  0  0
M  END
>  <MODEL>
4

>  <REMARK>
 VINA RESULT:      -7.9      3.048      7.818
  Name = 
  4 active torsions:
  status: ('A' for Active; 'I' for Inactive)
    1  A    between atoms: C_1  and  C_3
    2  A    between atoms: C_1  and  C_6
    3  A    between atoms: C_19  and  N_21
    4  A    between atoms: C_22  and  C_27
                            x       y       z     vdW  Elec       q    Type
                         _______ _______ _______ _____ _____    ______ ____

>  <TORSDO>
F 4

$$$$
=
 OpenBabel11032420363D

 27 32  0  0  1  0  0  0  0  0999 V2000
  187.6920  178.9620  141.3080 O   0  0  0  0  0  0  0  0  0  0  0  0
  186.4350  177.8340  142.9380 N   0  0  0  0  0  2  0  0  0  0  0  0
  186.5750  178.5200  141.6880 C   0  0  0  0  0  0  0  0  0  0  0  0
  188.5440  176.4720  143.4840 C   0  0  0  0  0  2  0  0  0  0  0  0
  186.2280  178.7590  147.2440 C   0  0  0  0  0  2  0  0  0  0  0  0
  189.6000  176.9570  145.6830 N   0  0  0  0  0  0  0  0  0  0  0  0
  188.5140  177.5520  146.0720 C   0  0  0  0  0  0  0  0  0  0  0  0
  186.2530  178.7430  145.6720 C   0  0  0  0  0  2  0  0  0  0  0  0
  189.8500  176.6830  144.2650 C   0  0  0  0  0  2  0  0  0  0  0  0
  188.0760  177.3920  148.6790 N   0  0  0  0  0  2  0  0  0  0  0  0
  188.3370  178.1170  147.4400 C   0  0  2  0  0  3  0  0  0  0  0  0
  187.4920  177.4970  143.8490 C   0  0  0  0  0  0  0  0  0  0  0  0
  186.9930  177.5200  147.6980 C   0  0  2  0  0  3  0  0  0  0  0  0
  187.4520  177.9580  145.1060 C   0  0  0  0  0  0  0  0  0  0  0  0
  184.5150  178.7420  138.7660 C   0  0  2  0  0  3  0  0  0  0  0  0
  182.3140  178.5780  139.6850 O   0  0  0  0  0  1  0  0  0  0  0  0
  185.5020  179.3360  139.5740 O   0  0  0  0  0  0  0  0  0  0  0  0
  184.2570  179.2280  141.5530 O   0  0  0  0  0  0  0  0  0  0  0  0
  184.1790  177.9190  141.0130 C   0  0  1  0  0  3  0  0  0  0  0  0
  183.5570  177.9440  139.6410 C   0  0  2  0  0  3  0  0  0  0  0  0
  185.3700  178.7540  140.8440 C   0  0  2  0  0  0  0  0  0  0  0  0
  185.1770  177.8410  137.7330 C   0  0  0  0  0  2  0  0  0  0  0  0
  187.5340  177.4050  138.3370 O   0  0  0  0  0  0  0  0  0  0  0  0
  186.6450  178.1000  137.6740 C   0  0  0  0  0  0  0  0  0  0  0  0
  187.2000  179.0570  136.9100 N   0  0  0  0  0  0  0  0  0  0  0  0
  188.7160  177.8870  138.0380 C   0  0  0  0  0  3  0  0  0  0  0  0
  188.5210  178.9240  137.1440 C   0  0  0  0  0  3  0  0  0  0  0  0
  1  3  2  0  0  0  0
  2 12  1  0  0  0  0
  3  2  1  0  0  0  0
  4 12  1  0  0  0  0
  4  9  1  0  0  0  0
  6  7  2  0  0  0  0
  8  5  1  0  0  0  0
  9  6  1  0  0  0  0
 11  7  1  6  0  0  0
 11 13  1  0  0  0  0
 11 10  1  0  0  0  0
 12 14  2  0  0  0  0
 13  5  1  1  0  0  0
 13 10  1  0  0  0  0
 14  8  1  0  0  0  0
 14  7  1  0  0  0  0
 15 22  1  6  0  0  0
 15 17  1  0  0  0  0
 15 20  1  0  0  0  0
 17 21  1  0  0  0  0
 19 18  1  1  0  0  0
 20 16  1  1  0  0  0
 20 19  1  0  0  0  0
 21 19  1  0  0  0  0
 21 18  1  0  0  0  0
 21  3  1  1  0  0  0
 24 22  1  0  0  0  0
 24 23  1  0  0  0  0
 25 27  1  0  0  0  0
 25 24  2  0  0  0  0
 26 23  1  0  0  0  0
 27 26  2  0  0  0  0
M  END
>  <MODEL>
5

>  <REMARK>
 VINA RESULT:      -7.9      1.269      2.469
  Name = 
  4 active torsions:
  status: ('A' for Active; 'I' for Inactive)
    1  A    between atoms: C_1  and  C_3
    2  A    between atoms: C_1  and  C_6
    3  A    between atoms: C_19  and  N_21
    4  A    between atoms: C_22  and  C_27
                            x       y       z     vdW  Elec       q    Type
                         _______ _______ _______ _____ _____    ______ ____

>  <TORSDO>
F 4

$$$$
=
 OpenBabel11032420363D

 27 32  0  0  1  0  0  0  0  0999 V2000
  185.6800  179.8530  142.0050 O   0  0  0  0  0  0  0  0  0  0  0  0
  184.8160  178.0100  143.1740 N   0  0  0  0  0  2  0  0  0  0  0  0
  184.9220  178.8470  142.0160 C   0  0  0  0  0  0  0  0  0  0  0  0
  185.1090  179.0420  145.5090 C   0  0  0  0  0  2  0  0  0  0  0  0
  189.0400  176.7790  143.4700 C   0  0  0  0  0  2  0  0  0  0  0  0
  187.0860  178.2530  146.7960 N   0  0  0  0  0  0  0  0  0  0  0  0
  187.6020  177.7720  145.7060 C   0  0  0  0  0  0  0  0  0  0  0  0
  187.4870  176.9160  143.2680 C   0  0  0  0  0  2  0  0  0  0  0  0
  185.6650  178.6040  146.8720 C   0  0  0  0  0  2  0  0  0  0  0  0
  190.2500  177.7790  145.6780 N   0  0  0  0  0  2  0  0  0  0  0  0
  188.9440  177.1280  145.6530 C   0  0  2  0  0  3  0  0  0  0  0  0
  185.5710  178.1350  144.3890 C   0  0  0  0  0  0  0  0  0  0  0  0
  189.4430  177.8690  144.4570 C   0  0  2  0  0  3  0  0  0  0  0  0
  186.7890  177.5840  144.4690 C   0  0  0  0  0  0  0  0  0  0  0  0
  182.0030  178.4220  139.9850 C   0  0  2  0  0  3  0  0  0  0  0  0
  182.8910  178.6180  137.7740 O   0  0  0  0  0  1  0  0  0  0  0  0
  182.8540  177.8900  140.9710 O   0  0  0  0  0  0  0  0  0  0  0  0
  184.8120  178.1050  139.7070 O   0  0  0  0  0  0  0  0  0  0  0  0
  184.1910  179.3780  139.6200 C   0  0  1  0  0  3  0  0  0  0  0  0
  182.8190  179.2610  139.0110 C   0  0  2  0  0  3  0  0  0  0  0  0
  184.0850  178.5480  140.8210 C   0  0  2  0  0  0  0  0  0  0  0  0
  180.9210  179.2650  140.6470 C   0  0  0  0  0  2  0  0  0  0  0  0
  181.5370  179.3780  143.0380 O   0  0  0  0  0  0  0  0  0  0  0  0
  180.7780  178.8990  142.0860 C   0  0  0  0  0  0  0  0  0  0  0  0
  179.8340  178.0610  142.5490 N   0  0  0  0  0  0  0  0  0  0  0  0
  181.1230  178.8640  144.1710 C   0  0  0  0  0  3  0  0  0  0  0  0
  180.0540  178.0360  143.8780 C   0  0  0  0  0  3  0  0  0  0  0  0
  1  3  2  0  0  0  0
  2 12  1  0  0  0  0
  3  2  1  0  0  0  0
  4  9  1  0  0  0  0
  6  9  1  0  0  0  0
  7  6  2  0  0  0  0
  8  5  1  0  0  0  0
  8 14  1  0  0  0  0
 11 10  1  1  0  0  0
 11  7  1  0  0  0  0
 12 14  2  0  0  0  0
 12  4  1  0  0  0  0
 13  5  1  6  0  0  0
 13 11  1  0  0  0  0
 13 10  1  0  0  0  0
 14  7  1  0  0  0  0
 15 22  1  1  0  0  0
 15 17  1  0  0  0  0
 18 21  1  0  0  0  0
 19 18  1  6  0  0  0
 19 21  1  0  0  0  0
 20 16  1  6  0  0  0
 20 19  1  0  0  0  0
 20 15  1  0  0  0  0
 21 17  1  0  0  0  0
 21  3  1  1  0  0  0
 22 24  1  0  0  0  0
 23 26  1  0  0  0  0
 24 25  2  0  0  0  0
 24 23  1  0  0  0  0
 25 27  1  0  0  0  0
 27 26  2  0  0  0  0
M  END
>  <MODEL>
6

>  <REMARK>
 VINA RESULT:      -7.9      2.399      4.334
  Name = 
  4 active torsions:
  status: ('A' for Active; 'I' for Inactive)
    1  A    between atoms: C_1  and  C_3
    2  A    between atoms: C_1  and  C_6
    3  A    between atoms: C_19  and  N_21
    4  A    between atoms: C_22  and  C_27
                            x       y       z     vdW  Elec       q    Type
                         _______ _______ _______ _____ _____    ______ ____

>  <TORSDO>
F 4

$$$$
=
 OpenBabel11032420363D

 27 32  0  0  1  0  0  0  0  0999 V2000
  191.6420  177.5250  140.6330 O   0  0  0  0  0  0  0  0  0  0  0  0
  189.8360  176.2670  141.4490 N   0  0  0  0  0  2  0  0  0  0  0  0
  190.6780  176.7500  140.3950 C   0  0  0  0  0  0  0  0  0  0  0  0
  191.1540  175.8950  143.6240 C   0  0  0  0  0  2  0  0  0  0  0  0
  186.5780  177.8090  143.9890 C   0  0  0  0  0  2  0  0  0  0  0  0
  190.3100  177.1190  145.6180 N   0  0  0  0  0  0  0  0  0  0  0  0
  189.1840  177.3340  145.0070 C   0  0  0  0  0  0  0  0  0  0  0  0
  187.6840  177.5210  142.9090 C   0  0  0  0  0  2  0  0  0  0  0  0
  191.5070  176.7070  144.8790 C   0  0  0  0  0  2  0  0  0  0  0  0
  187.0980  177.4960  146.6290 N   0  0  0  0  0  2  0  0  0  0  0  0
  188.0300  178.0310  145.6430 C   0  0  2  0  0  3  0  0  0  0  0  0
  190.0050  176.5100  142.8540 C   0  0  0  0  0  0  0  0  0  0  0  0
  186.9890  177.0400  145.2400 C   0  0  2  0  0  3  0  0  0  0  0  0
  189.0400  177.1420  143.5350 C   0  0  0  0  0  0  0  0  0  0  0  0
  189.0800  176.7340  137.1890 C   0  0  2  0  0  3  0  0  0  0  0  0
  190.7480  175.7370  135.7970 O   0  0  0  0  0  1  0  0  0  0  0  0
  189.0480  176.3300  138.5370 O   0  0  0  0  0  0  0  0  0  0  0  0
  191.1490  175.3000  138.5060 O   0  0  0  0  0  0  0  0  0  0  0  0
  191.3720  176.5800  137.9360 C   0  0  1  0  0  3  0  0  0  0  0  0
  190.5240  176.7720  136.7060 C   0  0  2  0  0  3  0  0  0  0  0  0
  190.3770  176.3660  138.9870 C   0  0  2  0  0  0  0  0  0  0  0  0
  188.4300  178.1040  137.0520 C   0  0  0  0  0  2  0  0  0  0  0  0
  186.1010  177.3400  136.7360 O   0  0  0  0  0  0  0  0  0  0  0  0
  186.9830  178.0360  137.4070 C   0  0  0  0  0  0  0  0  0  0  0  0
  186.4480  178.6650  138.4680 N   0  0  0  0  0  0  0  0  0  0  0  0
  184.9430  177.4900  137.3320 C   0  0  0  0  0  3  0  0  0  0  0  0
  185.1470  178.3190  138.4200 C   0  0  0  0  0  3  0  0  0  0  0  0
  2 12  1  0  0  0  0
  3  1  2  0  0  0  0
  3  2  1  0  0  0  0
  4  9  1  0  0  0  0
  7  6  2  0  0  0  0
  8 14  1  0  0  0  0
  8  5  1  0  0  0  0
  9  6  1  0  0  0  0
 11  7  1  1  0  0  0
 11 10  1  0  0  0  0
 12 14  2  0  0  0  0
 12  4  1  0  0  0  0
 13  5  1  6  0  0  0
 13 11  1  0  0  0  0
 13 10  1  0  0  0  0
 14  7  1  0  0  0  0
 15 22  1  1  0  0  0
 15 17  1  0  0  0  0
 17 21  1  0  0  0  0
 18 21  1  0  0  0  0
 19 18  1  6  0  0  0
 19 21  1  0  0  0  0
 20 16  1  6  0  0  0
 20 15  1  0  0  0  0
 20 19  1  0  0  0  0
 21  3  1  1  0  0  0
 22 24  1  0  0  0  0
 23 26  1  0  0  0  0
 23 24  1  0  0  0  0
 24 25  2  0  0  0  0
 26 27  2  0  0  0  0
 27 25  1  0  0  0  0
M  END
>  <MODEL>
7

>  <REMARK>
 VINA RESULT:      -7.9      2.377      5.070
  Name = 
  4 active torsions:
  status: ('A' for Active; 'I' for Inactive)
    1  A    between atoms: C_1  and  C_3
    2  A    between atoms: C_1  and  C_6
    3  A    between atoms: C_19  and  N_21
    4  A    between atoms: C_22  and  C_27
                            x       y       z     vdW  Elec       q    Type
                         _______ _______ _______ _____ _____    ______ ____

>  <TORSDO>
F 4

$$$$
=
 OpenBabel11032420363D

 27 32  0  0  1  0  0  0  0  0999 V2000
  188.0460  178.9440  141.1110 O   0  0  0  0  0  0  0  0  0  0  0  0
  187.6220  177.7550  143.0890 N   0  0  0  0  0  2  0  0  0  0  0  0
  187.2090  178.5250  141.9540 C   0  0  0  0  0  0  0  0  0  0  0  0
  189.7370  176.4850  142.3690 C   0  0  0  0  0  2  0  0  0  0  0  0
  189.2460  177.6180  147.1870 C   0  0  0  0  0  2  0  0  0  0  0  0
  191.6220  176.5250  143.9910 N   0  0  0  0  0  0  0  0  0  0  0  0
  190.8090  176.9180  144.9240 C   0  0  0  0  0  0  0  0  0  0  0  0
  188.6140  177.9750  145.7920 C   0  0  0  0  0  2  0  0  0  0  0  0
  191.2530  176.6160  142.5760 C   0  0  0  0  0  2  0  0  0  0  0  0
  191.4920  176.1120  147.3520 N   0  0  0  0  0  2  0  0  0  0  0  0
  191.2300  177.1280  146.3380 C   0  0  2  0  0  3  0  0  0  0  0  0
  188.9540  177.3030  143.3750 C   0  0  0  0  0  0  0  0  0  0  0  0
  190.1030  176.3760  146.9650 C   0  0  2  0  0  3  0  0  0  0  0  0
  189.4510  177.4500  144.6100 C   0  0  0  0  0  0  0  0  0  0  0  0
  184.0100  178.9450  140.4000 C   0  0  2  0  0  3  0  0  0  0  0  0
  182.5360  179.0030  142.2810 O   0  0  0  0  0  1  0  0  0  0  0  0
  185.3130  179.4400  140.5940 O   0  0  0  0  0  0  0  0  0  0  0  0
  185.1930  179.4600  142.9310 O   0  0  0  0  0  0  0  0  0  0  0  0
  184.7480  178.1640  142.5630 C   0  0  1  0  0  3  0  0  0  0  0  0
  183.5390  178.2490  141.6700 C   0  0  2  0  0  3  0  0  0  0  0  0
  185.7710  178.8760  141.7950 C   0  0  2  0  0  0  0  0  0  0  0  0
  184.0010  177.9810  139.2210 C   0  0  0  0  0  2  0  0  0  0  0  0
  181.5460  177.7820  139.0160 O   0  0  0  0  0  0  0  0  0  0  0  0
  182.7190  177.2220  139.1730 C   0  0  0  0  0  0  0  0  0  0  0  0
  182.6450  175.8820  139.2600 N   0  0  0  0  0  0  0  0  0  0  0  0
  180.6500  176.8250  138.9990 C   0  0  0  0  0  3  0  0  0  0  0  0
  181.3260  175.6280  139.1520 C   0  0  0  0  0  3  0  0  0  0  0  0
  1  3  2  0  0  0  0
  2 12  1  0  0  0  0
  3  2  1  0  0  0  0
  4  9  1  0  0  0  0
  4 12  1  0  0  0  0
  6  7  2  0  0  0  0
  8  5  1  0  0  0  0
  9  6  1  0  0  0  0
 11  7  1  6  0  0  0
 11 13  1  0  0  0  0
 11 10  1  0  0  0  0
 12 14  2  0  0  0  0
 13  5  1  1  0  0  0
 13 10  1  0  0  0  0
 14  7  1  0  0  0  0
 14  8  1  0  0  0  0
 15 22  1  6  0  0  0
 15 17  1  0  0  0  0
 15 20  1  0  0  0  0
 17 21  1  0  0  0  0
 19 18  1  1  0  0  0
 20 16  1  1  0  0  0
 20 19  1  0  0  0  0
 21  3  1  1  0  0  0
 21 19  1  0  0  0  0
 21 18  1  0  0  0  0
 23 24  1  0  0  0  0
 24 22  1  0  0  0  0
 24 25  2  0  0  0  0
 26 23  1  0  0  0  0
 26 27  2  0  0  0  0
 27 25  1  0  0  0  0
M  END
>  <MODEL>
8

>  <REMARK>
 VINA RESULT:      -7.9      2.571      4.512
  Name = 
  4 active torsions:
  status: ('A' for Active; 'I' for Inactive)
    1  A    between atoms: C_1  and  C_3
    2  A    between atoms: C_1  and  C_6
    3  A    between atoms: C_19  and  N_21
    4  A    between atoms: C_22  and  C_27
                            x       y       z     vdW  Elec       q    Type
                         _______ _______ _______ _____ _____    ______ ____

>  <TORSDO>
F 4

$$$$
=
 OpenBabel11032420363D

 27 32  0  0  1  0  0  0  0  0999 V2000
  189.5680  178.8800  143.1330 O   0  0  0  0  0  0  0  0  0  0  0  0
  187.8860  177.2470  143.2440 N   0  0  0  0  0  2  0  0  0  0  0  0
  189.0420  177.8440  142.6460 C   0  0  0  0  0  0  0  0  0  0  0  0
  186.0390  178.5810  144.4330 C   0  0  0  0  0  2  0  0  0  0  0  0
  189.8460  176.9430  147.1820 C   0  0  0  0  0  2  0  0  0  0  0  0
  185.9780  178.3660  146.9100 N   0  0  0  0  0  0  0  0  0  0  0  0
  187.1810  177.8770  146.8950 C   0  0  0  0  0  0  0  0  0  0  0  0
  189.2070  176.7380  145.7600 C   0  0  0  0  0  2  0  0  0  0  0  0
  185.1700  178.4270  145.6890 C   0  0  0  0  0  2  0  0  0  0  0  0
  188.5860  178.4190  149.0730 N   0  0  0  0  0  2  0  0  0  0  0  0
  187.9310  177.5170  148.1320 C   0  0  2  0  0  3  0  0  0  0  0  0
  187.2420  177.6630  144.4580 C   0  0  0  0  0  0  0  0  0  0  0  0
  189.2060  178.2000  147.7630 C   0  0  2  0  0  3  0  0  0  0  0  0
  187.8140  177.3840  145.6370 C   0  0  0  0  0  0  0  0  0  0  0  0
  189.5220  177.2150  139.1520 C   0  0  2  0  0  3  0  0  0  0  0  0
  191.7350  176.3110  139.0990 O   0  0  0  0  0  1  0  0  0  0  0  0
  188.7610  176.9740  140.3110 O   0  0  0  0  0  0  0  0  0  0  0  0
  190.5700  176.2630  141.6160 O   0  0  0  0  0  0  0  0  0  0  0  0
  191.0050  177.4840  141.0400 C   0  0  1  0  0  3  0  0  0  0  0  0
  190.9840  177.4030  139.5360 C   0  0  2  0  0  3  0  0  0  0  0  0
  189.6040  177.2560  141.3980 C   0  0  2  0  0  0  0  0  0  0  0  0
  188.9880  178.4500  138.4400 C   0  0  0  0  0  2  0  0  0  0  0  0
  187.2500  177.6190  136.8910 O   0  0  0  0  0  0  0  0  0  0  0  0
  187.5800  178.2340  137.9980 C   0  0  0  0  0  0  0  0  0  0  0  0
  186.5100  178.6280  138.7110 N   0  0  0  0  0  0  0  0  0  0  0  0
  185.9410  177.5910  136.8300 C   0  0  0  0  0  3  0  0  0  0  0  0
  185.4640  178.2200  137.9650 C   0  0  0  0  0  3  0  0  0  0  0  0
  2 12  1  0  0  0  0
  3  1  2  0  0  0  0
  3  2  1  0  0  0  0
  4 12  1  0  0  0  0
  4  9  1  0  0  0  0
  7  6  2  0  0  0  0
  8  5  1  0  0  0  0
  9  6  1  0  0  0  0
 11  7  1  6  0  0  0
 11 10  1  0  0  0  0
 12 14  2  0  0  0  0
 13  5  1  1  0  0  0
 13 11  1  0  0  0  0
 13 10  1  0  0  0  0
 14  8  1  0  0  0  0
 14  7  1  0  0  0  0
 15 22  1  1  0  0  0
 15 20  1  0  0  0  0
 15 17  1  0  0  0  0
 17 21  1  0  0  0  0
 19 21  1  0  0  0  0
 19 18  1  1  0  0  0
 20 16  1  1  0  0  0
 20 19  1  0  0  0  0
 21 18  1  0  0  0  0
 21  3  1  1  0  0  0
 23 24  1  0  0  0  0
 24 22  1  0  0  0  0
 24 25  2  0  0  0  0
 26 23  1  0  0  0  0
 26 27  2  0  0  0  0
 27 25  1  0  0  0  0
M  END
>  <MODEL>
9

>  <REMARK>
 VINA RESULT:      -7.8      2.377      4.294
  Name = 
  4 active torsions:
  status: ('A' for Active; 'I' for Inactive)
    1  A    between atoms: C_1  and  C_3
    2  A    between atoms: C_1  and  C_6
    3  A    between atoms: C_19  and  N_21
    4  A    between atoms: C_22  and  C_27
                            x       y       z     vdW  Elec       q    Type
                         _______ _______ _______ _____ _____    ______ ____

>  <TORSDO>
F 4

$$$$
