=
 OpenBabel11042413003D

 40 44  0  0  1  0  0  0  0  0999 V2000
  187.1630  175.4730  135.6180 N   0  0  0  0  0  2  0  0  0  0  0  0
  187.6880  174.2940  135.6570 C   0  0  0  0  0  2  0  0  0  0  0  0
  183.4360  177.1190  137.5950 C   0  0  0  0  0  3  0  0  0  0  0  0
  182.9080  176.0460  137.0810 N   0  0  0  0  0  0  0  0  0  0  0  0
  191.7250  174.1580  137.0090 C   0  0  0  0  0  0  0  0  0  0  0  0
  189.1300  174.2540  135.9240 C   0  0  0  0  0  0  0  0  0  0  0  0
  185.8320  175.8190  135.9610 C   0  0  0  0  0  0  0  0  0  0  0  0
  191.3200  176.4430  138.0640 C   0  0  0  0  0  2  0  0  0  0  0  0
  184.7670  174.8050  135.9810 C   0  0  0  0  0  3  0  0  0  0  0  0
  189.2940  178.5320  139.2300 S   0  0  0  0  0  0  0  0  0  0  0  0
  189.6510  175.3290  136.6520 C   0  0  0  0  0  3  0  0  0  0  0  0
  183.5180  174.9130  136.4420 C   0  0  0  0  0  3  0  0  0  0  0  0
  191.2080  173.0660  136.2770 C   0  0  0  0  0  3  0  0  0  0  0  0
  190.7880  176.2600  139.4120 N   0  0  0  0  0  0  0  0  0  0  0  0
  187.5820  178.0500  139.6360 C   0  0  2  0  0  3  0  0  0  0  0  0
  189.9720  177.0690  140.0280 C   0  0  0  0  0  0  0  0  0  0  0  0
  185.8180  176.9470  136.6470 C   0  0  0  0  0  3  0  0  0  0  0  0
  186.6760  178.5860  138.6200 N   0  0  0  0  0  2  0  0  0  0  0  0
  186.0680  179.0480  141.1910 O   0  0  0  0  0  0  0  0  0  0  0  0
  187.2110  178.5530  141.0090 C   0  0  0  0  0  0  0  0  0  0  0  0
  190.9220  175.2970  137.1940 C   0  0  0  0  0  0  0  0  0  0  0  0
  188.0830  178.4610  142.1470 N   0  0  0  0  0  0  0  0  0  0  0  0
  189.1490  177.7430  142.3490 C   0  0  0  0  0  0  0  0  0  0  0  0
  184.8590  177.4620  137.6080 C   0  0  0  0  0  0  0  0  0  0  0  0
  189.9060  173.1030  135.7530 C   0  0  0  0  0  3  0  0  0  0  0  0
  185.3150  178.2190  138.5610 N   0  0  0  0  0  0  0  0  0  0  0  0
  189.6810  176.8100  141.4000 N   0  0  0  0  0  2  0  0  0  0  0  0
  193.0060  174.1170  137.5720 O   0  0  0  0  0  0  0  0  0  0  0  0
  194.1070  173.4930  136.9240 C   0  0  0  0  0  2  0  0  0  0  0  0
  195.3490  173.5700  137.8010 C   0  0  2  0  0  3  0  0  0  0  0  0
  195.2790  172.6060  138.8090 O   0  0  0  0  0  1  0  0  0  0  0  0
  196.1230  174.6250  139.5840 C   0  0  0  0  0  1  0  0  0  0  0  0
  195.4670  174.8400  138.3700 O   0  0  0  0  0  0  0  0  0  0  0  0
  189.8260  177.8470  143.6720 C   0  0  0  0  0  2  0  0  0  0  0  0
  186.5430  177.4130  145.5210 C   0  0  0  0  0  3  0  0  0  0  0  0
  188.8270  177.7460  144.7780 C   0  0  0  0  0  0  0  0  0  0  0  0
  186.9590  177.5340  146.8500 C   0  0  0  0  0  3  0  0  0  0  0  0
  188.3090  177.7520  147.1460 C   0  0  0  0  0  3  0  0  0  0  0  0
  187.4760  177.5180  144.4840 C   0  0  0  0  0  3  0  0  0  0  0  0
  189.2430  177.8550  146.1090 C   0  0  0  0  0  3  0  0  0  0  0  0
  1  2  1  0  0  0  0
  1  7  1  0  0  0  0
  2  6  1  0  0  0  0
  3 24  1  0  0  0  0
  4  3  2  0  0  0  0
  5 21  1  0  0  0  0
  5 28  1  0  0  0  0
  6 11  1  0  0  0  0
  7  9  1  0  0  0  0
  7 17  2  0  0  0  0
  8 14  1  0  0  0  0
  9 12  2  0  0  0  0
 10 15  1  0  0  0  0
 10 16  1  0  0  0  0
 11 21  2  0  0  0  0
 12  4  1  0  0  0  0
 13  5  2  0  0  0  0
 14 16  2  0  0  0  0
 15 18  1  6  0  0  0
 15 20  1  0  0  0  0
 16 27  1  0  0  0  0
 17 24  1  0  0  0  0
 20 19  2  0  0  0  0
 20 22  1  0  0  0  0
 21  8  1  0  0  0  0
 22 23  2  0  0  0  0
 23 34  1  0  0  0  0
 24 26  2  0  0  0  0
 25  6  2  0  0  0  0
 25 13  1  0  0  0  0
 26 18  1  0  0  0  0
 27 23  1  0  0  0  0
 29 28  1  0  0  0  0
 29 30  1  0  0  0  0
 30 33  1  0  0  0  0
 30 31  1  1  0  0  0
 33 32  1  0  0  0  0
 34 36  1  0  0  0  0
 35 37  1  0  0  0  0
 36 40  2  0  0  0  0
 37 38  2  0  0  0  0
 39 36  1  0  0  0  0
 39 35  2  0  0  0  0
 40 38  1  0  0  0  0
M  END
>  <MODEL>
1

>  <REMARK>
 VINA RESULT:      -9.6      0.000      0.000
  Name = 
  6 active torsions:
  status: ('A' for Active; 'I' for Inactive)
    1  A    between atoms: C_4  and  C_22
    2  A    between atoms: C_7  and  O_13
    3  A    between atoms: C_10  and  O_13
    4  A    between atoms: C_10  and  C_28
    5  A    between atoms: C_22  and  C_35
    6  A    between atoms: C_28  and  O_30
                            x       y       z     vdW  Elec       q    Type
                         _______ _______ _______ _____ _____    ______ ____

>  <TORSDO>
F 6

$$$$
=
 OpenBabel11042413003D

 40 44  0  0  1  0  0  0  0  0999 V2000
  184.6570  176.8630  137.3040 N   0  0  0  0  0  2  0  0  0  0  0  0
  185.4400  175.8960  136.9600 C   0  0  0  0  0  2  0  0  0  0  0  0
  180.9530  176.8870  139.9090 C   0  0  0  0  0  3  0  0  0  0  0  0
  180.6220  175.8960  139.1340 N   0  0  0  0  0  0  0  0  0  0  0  0
  189.5440  176.4500  137.9570 C   0  0  0  0  0  0  0  0  0  0  0  0
  186.8750  176.1600  137.1130 C   0  0  0  0  0  0  0  0  0  0  0  0
  183.3410  176.7470  137.8170 C   0  0  0  0  0  0  0  0  0  0  0  0
  188.7700  178.1780  139.6640 C   0  0  0  0  0  2  0  0  0  0  0  0
  182.5510  175.5250  137.6030 C   0  0  0  0  0  3  0  0  0  0  0  0
  186.4940  179.2740  141.5200 S   0  0  0  0  0  0  0  0  0  0  0  0
  187.2280  177.0950  138.0920 C   0  0  0  0  0  3  0  0  0  0  0  0
  181.3850  175.1770  138.1520 C   0  0  0  0  0  3  0  0  0  0  0  0
  189.1990  175.5020  136.9680 C   0  0  0  0  0  3  0  0  0  0  0  0
  188.4810  177.5050  140.9280 N   0  0  0  0  0  0  0  0  0  0  0  0
  185.0090  178.2730  141.8710 C   0  0  2  0  0  3  0  0  0  0  0  0
  187.5910  177.8770  141.8050 C   0  0  0  0  0  0  0  0  0  0  0  0
  183.1610  177.6020  138.8060 C   0  0  0  0  0  3  0  0  0  0  0  0
  183.8760  178.8100  141.1180 N   0  0  0  0  0  2  0  0  0  0  0  0
  183.5290  178.3840  143.7430 O   0  0  0  0  0  0  0  0  0  0  0  0
  184.7200  178.2710  143.3510 C   0  0  0  0  0  0  0  0  0  0  0  0
  188.5340  177.2480  138.5200 C   0  0  0  0  0  0  0  0  0  0  0  0
  185.7360  178.1050  144.3550 N   0  0  0  0  0  0  0  0  0  0  0  0
  186.9560  177.6600  144.2690 C   0  0  0  0  0  0  0  0  0  0  0  0
  182.2470  177.5710  139.9340 C   0  0  0  0  0  0  0  0  0  0  0  0
  187.8650  175.3400  136.5610 C   0  0  0  0  0  3  0  0  0  0  0  0
  182.6410  178.1330  141.0380 N   0  0  0  0  0  0  0  0  0  0  0  0
  187.5550  177.1890  143.0550 N   0  0  0  0  0  2  0  0  0  0  0  0
  190.8640  176.5920  138.4010 O   0  0  0  0  0  0  0  0  0  0  0  0
  191.9820  176.4690  137.5310 C   0  0  0  0  0  2  0  0  0  0  0  0
  193.2240  176.0760  138.3190 C   0  0  2  0  0  3  0  0  0  0  0  0
  193.5440  177.0800  139.2350 O   0  0  0  0  0  1  0  0  0  0  0  0
  194.7900  174.6020  137.8050 C   0  0  0  0  0  1  0  0  0  0  0  0
  194.3020  175.8630  137.4570 O   0  0  0  0  0  0  0  0  0  0  0  0
  187.7620  177.5740  145.5180 C   0  0  0  0  0  2  0  0  0  0  0  0
  191.0630  178.8110  144.1180 C   0  0  0  0  0  3  0  0  0  0  0  0
  189.2190  177.6710  145.2040 C   0  0  0  0  0  0  0  0  0  0  0  0
  191.9520  177.8650  144.6360 C   0  0  0  0  0  3  0  0  0  0  0  0
  191.4790  176.8260  145.4450 C   0  0  0  0  0  3  0  0  0  0  0  0
  189.6970  178.7150  144.4030 C   0  0  0  0  0  3  0  0  0  0  0  0
  190.1130  176.7310  145.7310 C   0  0  0  0  0  3  0  0  0  0  0  0
  1  7  1  0  0  0  0
  2  6  1  0  0  0  0
  2  1  1  0  0  0  0
  3 24  1  0  0  0  0
  4  3  2  0  0  0  0
  5 28  1  0  0  0  0
  5 21  1  0  0  0  0
  6 11  1  0  0  0  0
  7 17  2  0  0  0  0
  8 14  1  0  0  0  0
  9  7  1  0  0  0  0
  9 12  2  0  0  0  0
 10 16  1  0  0  0  0
 10 15  1  0  0  0  0
 11 21  2  0  0  0  0
 12  4  1  0  0  0  0
 13  5  2  0  0  0  0
 14 16  2  0  0  0  0
 15 18  1  6  0  0  0
 15 20  1  0  0  0  0
 16 27  1  0  0  0  0
 17 24  1  0  0  0  0
 20 19  2  0  0  0  0
 20 22  1  0  0  0  0
 21  8  1  0  0  0  0
 23 22  2  0  0  0  0
 23 34  1  0  0  0  0
 24 26  2  0  0  0  0
 25 13  1  0  0  0  0
 25  6  2  0  0  0  0
 26 18  1  0  0  0  0
 27 23  1  0  0  0  0
 29 30  1  0  0  0  0
 29 28  1  0  0  0  0
 30 31  1  1  0  0  0
 33 32  1  0  0  0  0
 33 30  1  0  0  0  0
 35 39  2  0  0  0  0
 35 37  1  0  0  0  0
 36 34  1  0  0  0  0
 36 40  2  0  0  0  0
 37 38  2  0  0  0  0
 38 40  1  0  0  0  0
 39 36  1  0  0  0  0
M  END
>  <MODEL>
2

>  <REMARK>
 VINA RESULT:      -9.4      2.182      3.328
  Name = 
  6 active torsions:
  status: ('A' for Active; 'I' for Inactive)
    1  A    between atoms: C_4  and  C_22
    2  A    between atoms: C_7  and  O_13
    3  A    between atoms: C_10  and  O_13
    4  A    between atoms: C_10  and  C_28
    5  A    between atoms: C_22  and  C_35
    6  A    between atoms: C_28  and  O_30
                            x       y       z     vdW  Elec       q    Type
                         _______ _______ _______ _____ _____    ______ ____

>  <TORSDO>
F 6

$$$$
=
 OpenBabel11042413003D

 40 44  0  0  1  0  0  0  0  0999 V2000
  189.4570  177.5680  139.8590 N   0  0  0  0  0  2  0  0  0  0  0  0
  189.6140  176.8300  140.9070 C   0  0  0  0  0  2  0  0  0  0  0  0
  188.4170  176.4640  135.5920 C   0  0  0  0  0  3  0  0  0  0  0  0
  189.3840  175.6110  135.7690 N   0  0  0  0  0  0  0  0  0  0  0  0
  187.1150  177.8240  144.2100 C   0  0  0  0  0  0  0  0  0  0  0  0
  188.9110  177.2860  142.1110 C   0  0  0  0  0  0  0  0  0  0  0  0
  189.4840  177.1390  138.5090 C   0  0  0  0  0  0  0  0  0  0  0  0
  185.5990  179.0210  142.5460 C   0  0  0  0  0  2  0  0  0  0  0  0
  190.1340  175.8750  138.1300 C   0  0  0  0  0  3  0  0  0  0  0  0
  184.5820  179.3340  139.5980 S   0  0  0  0  0  0  0  0  0  0  0  0
  187.7570  178.0460  141.9000 C   0  0  0  0  0  3  0  0  0  0  0  0
  190.1030  175.2390  136.9560 C   0  0  0  0  0  3  0  0  0  0  0  0
  188.2780  177.0540  144.4350 C   0  0  0  0  0  3  0  0  0  0  0  0
  184.6310  178.0670  142.0100 N   0  0  0  0  0  0  0  0  0  0  0  0
  184.9370  178.0560  138.3440 C   0  0  2  0  0  3  0  0  0  0  0  0
  184.1010  178.1040  140.8200 C   0  0  0  0  0  0  0  0  0  0  0  0
  188.5270  177.7350  137.8230 C   0  0  0  0  0  3  0  0  0  0  0  0
  185.9760  178.5460  137.4370 N   0  0  0  0  0  2  0  0  0  0  0  0
  183.7420  177.5440  136.3390 O   0  0  0  0  0  0  0  0  0  0  0  0
  183.6810  177.7070  137.5860 C   0  0  0  0  0  0  0  0  0  0  0  0
  186.8620  178.3170  142.9190 C   0  0  0  0  0  0  0  0  0  0  0  0
  182.4060  177.5050  138.2190 N   0  0  0  0  0  0  0  0  0  0  0  0
  182.0960  177.2900  139.4640 C   0  0  0  0  0  0  0  0  0  0  0  0
  187.8280  177.3270  136.6160 C   0  0  0  0  0  0  0  0  0  0  0  0
  189.1640  176.7660  143.3850 C   0  0  0  0  0  3  0  0  0  0  0  0
  186.5930  177.7090  136.4840 N   0  0  0  0  0  0  0  0  0  0  0  0
  183.0560  177.1790  140.5230 N   0  0  0  0  0  2  0  0  0  0  0  0
  186.2020  178.0840  145.2390 O   0  0  0  0  0  0  0  0  0  0  0  0
  186.2790  177.4480  146.5090 C   0  0  0  0  0  2  0  0  0  0  0  0
  186.3030  178.4890  147.6200 C   0  0  2  0  0  3  0  0  0  0  0  0
  185.7530  179.6870  147.1610 O   0  0  0  0  0  1  0  0  0  0  0  0
  188.1560  177.4310  148.1990 C   0  0  0  0  0  1  0  0  0  0  0  0
  187.6120  178.7080  148.0570 O   0  0  0  0  0  0  0  0  0  0  0  0
  180.6610  177.0820  139.8050 C   0  0  0  0  0  2  0  0  0  0  0  0
  179.3350  178.8830  142.8690 C   0  0  0  0  0  3  0  0  0  0  0  0
  180.1790  178.1680  140.7120 C   0  0  0  0  0  0  0  0  0  0  0  0
  179.2980  180.2050  142.4150 C   0  0  0  0  0  3  0  0  0  0  0  0
  179.7090  180.5120  141.1140 C   0  0  0  0  0  3  0  0  0  0  0  0
  179.7760  177.8640  142.0180 C   0  0  0  0  0  3  0  0  0  0  0  0
  180.1520  179.4930  140.2630 C   0  0  0  0  0  3  0  0  0  0  0  0
  1  2  1  0  0  0  0
  2  6  1  0  0  0  0
  3  4  2  0  0  0  0
  3 24  1  0  0  0  0
  4 12  1  0  0  0  0
  5 13  1  0  0  0  0
  5 28  1  0  0  0  0
  6 25  1  0  0  0  0
  7  1  1  0  0  0  0
  8 21  1  0  0  0  0
  9  7  1  0  0  0  0
 10 16  1  0  0  0  0
 11  6  2  0  0  0  0
 11 21  1  0  0  0  0
 12  9  2  0  0  0  0
 14  8  1  0  0  0  0
 15 18  1  6  0  0  0
 15 10  1  0  0  0  0
 16 14  2  0  0  0  0
 17  7  2  0  0  0  0
 19 20  2  0  0  0  0
 20 22  1  0  0  0  0
 20 15  1  0  0  0  0
 21  5  2  0  0  0  0
 22 23  2  0  0  0  0
 23 34  1  0  0  0  0
 23 27  1  0  0  0  0
 24 17  1  0  0  0  0
 25 13  2  0  0  0  0
 26 24  2  0  0  0  0
 26 18  1  0  0  0  0
 27 16  1  0  0  0  0
 28 29  1  0  0  0  0
 29 30  1  0  0  0  0
 30 31  1  6  0  0  0
 30 33  1  0  0  0  0
 33 32  1  0  0  0  0
 34 36  1  0  0  0  0
 36 39  1  0  0  0  0
 37 35  1  0  0  0  0
 38 37  2  0  0  0  0
 39 35  2  0  0  0  0
 40 36  2  0  0  0  0
 40 38  1  0  0  0  0
M  END
>  <MODEL>
3

>  <REMARK>
 VINA RESULT:      -9.3      3.972      8.219
  Name = 
  6 active torsions:
  status: ('A' for Active; 'I' for Inactive)
    1  A    between atoms: C_4  and  C_22
    2  A    between atoms: C_7  and  O_13
    3  A    between atoms: C_10  and  O_13
    4  A    between atoms: C_10  and  C_28
    5  A    between atoms: C_22  and  C_35
    6  A    between atoms: C_28  and  O_30
                            x       y       z     vdW  Elec       q    Type
                         _______ _______ _______ _____ _____    ______ ____

>  <TORSDO>
F 6

$$$$
=
 OpenBabel11042413003D

 40 44  0  0  1  0  0  0  0  0999 V2000
  182.7650  175.4030  136.5150 N   0  0  0  0  0  2  0  0  0  0  0  0
  183.9680  174.9350  136.5730 C   0  0  0  0  0  2  0  0  0  0  0  0
  178.9790  174.1030  138.6320 C   0  0  0  0  0  3  0  0  0  0  0  0
  179.3500  172.9360  138.1930 N   0  0  0  0  0  0  0  0  0  0  0  0
  186.9530  177.7580  137.6970 C   0  0  0  0  0  0  0  0  0  0  0  0
  185.0250  175.9340  136.7580 C   0  0  0  0  0  0  0  0  0  0  0  0
  181.5780  174.7430  136.9190 C   0  0  0  0  0  0  0  0  0  0  0  0
  185.0740  179.1720  138.6780 C   0  0  0  0  0  2  0  0  0  0  0  0
  181.5320  173.2780  137.0410 C   0  0  0  0  0  3  0  0  0  0  0  0
  182.1790  179.3210  139.8700 S   0  0  0  0  0  0  0  0  0  0  0  0
  184.6510  177.1140  137.4100 C   0  0  0  0  0  3  0  0  0  0  0  0
  180.5720  172.5130  137.5680 C   0  0  0  0  0  3  0  0  0  0  0  0
  187.3440  176.5680  137.0410 C   0  0  0  0  0  3  0  0  0  0  0  0
  184.8390  178.7630  140.0600 N   0  0  0  0  0  0  0  0  0  0  0  0
  181.3020  177.8090  140.3930 C   0  0  2  0  0  3  0  0  0  0  0  0
  183.6980  178.8110  140.6870 C   0  0  0  0  0  0  0  0  0  0  0  0
  180.7850  175.5820  137.5580 C   0  0  0  0  0  3  0  0  0  0  0  0
  180.2690  177.4850  139.4090 N   0  0  0  0  0  2  0  0  0  0  0  0
  179.5420  177.5670  141.9900 O   0  0  0  0  0  0  0  0  0  0  0  0
  180.7010  178.0020  141.7630 C   0  0  0  0  0  0  0  0  0  0  0  0
  185.5850  178.0180  137.8800 C   0  0  0  0  0  0  0  0  0  0  0  0
  181.4000  178.6260  142.8520 N   0  0  0  0  0  0  0  0  0  0  0  0
  182.6660  178.8750  143.0230 C   0  0  0  0  0  0  0  0  0  0  0  0
  179.7520  175.3440  138.5500 C   0  0  0  0  0  0  0  0  0  0  0  0
  186.3840  175.6470  136.5910 C   0  0  0  0  0  3  0  0  0  0  0  0
  179.5560  176.2680  139.4430 N   0  0  0  0  0  0  0  0  0  0  0  0
  183.6880  178.5170  142.0840 N   0  0  0  0  0  2  0  0  0  0  0  0
  187.9010  178.6640  138.1860 O   0  0  0  0  0  0  0  0  0  0  0  0
  189.0040  178.2600  138.9890 C   0  0  0  0  0  2  0  0  0  0  0  0
  188.5170  177.7500  140.3380 C   0  0  2  0  0  3  0  0  0  0  0  0
  188.0790  178.8190  141.1210 O   0  0  0  0  0  1  0  0  0  0  0  0
  189.6760  177.7320  142.2210 C   0  0  0  0  0  1  0  0  0  0  0  0
  189.5390  177.0670  141.0000 O   0  0  0  0  0  0  0  0  0  0  0  0
  183.0900  179.5150  144.2990 C   0  0  0  0  0  2  0  0  0  0  0  0
  186.4920  177.8430  144.4460 C   0  0  0  0  0  3  0  0  0  0  0  0
  184.3220  178.8550  144.8280 C   0  0  0  0  0  0  0  0  0  0  0  0
  186.6370  177.6390  145.8210 C   0  0  0  0  0  3  0  0  0  0  0  0
  185.6320  178.0490  146.7020 C   0  0  0  0  0  3  0  0  0  0  0  0
  185.3350  178.4520  143.9490 C   0  0  0  0  0  3  0  0  0  0  0  0
  184.4750  178.6590  146.2050 C   0  0  0  0  0  3  0  0  0  0  0  0
  1  2  1  0  0  0  0
  1  7  1  0  0  0  0
  2  6  1  0  0  0  0
  4  3  2  0  0  0  0
  5 21  1  0  0  0  0
  5 28  1  0  0  0  0
  6 11  1  0  0  0  0
  7  9  1  0  0  0  0
  7 17  2  0  0  0  0
  8 14  1  0  0  0  0
  9 12  2  0  0  0  0
 10 15  1  0  0  0  0
 10 16  1  0  0  0  0
 11 21  2  0  0  0  0
 12  4  1  0  0  0  0
 13  5  2  0  0  0  0
 14 16  2  0  0  0  0
 15 18  1  6  0  0  0
 15 20  1  0  0  0  0
 16 27  1  0  0  0  0
 17 24  1  0  0  0  0
 18 26  1  0  0  0  0
 20 19  2  0  0  0  0
 20 22  1  0  0  0  0
 21  8  1  0  0  0  0
 22 23  2  0  0  0  0
 23 34  1  0  0  0  0
 24  3  1  0  0  0  0
 24 26  2  0  0  0  0
 25  6  2  0  0  0  0
 25 13  1  0  0  0  0
 27 23  1  0  0  0  0
 28 29  1  0  0  0  0
 29 30  1  0  0  0  0
 30 33  1  0  0  0  0
 30 31  1  1  0  0  0
 33 32  1  0  0  0  0
 34 36  1  0  0  0  0
 35 37  1  0  0  0  0
 36 40  2  0  0  0  0
 37 38  2  0  0  0  0
 39 35  2  0  0  0  0
 39 36  1  0  0  0  0
 40 38  1  0  0  0  0
M  END
>  <MODEL>
4

>  <REMARK>
 VINA RESULT:      -9.1      3.983      5.850
  Name = 
  6 active torsions:
  status: ('A' for Active; 'I' for Inactive)
    1  A    between atoms: C_4  and  C_22
    2  A    between atoms: C_7  and  O_13
    3  A    between atoms: C_10  and  O_13
    4  A    between atoms: C_10  and  C_28
    5  A    between atoms: C_22  and  C_35
    6  A    between atoms: C_28  and  O_30
                            x       y       z     vdW  Elec       q    Type
                         _______ _______ _______ _____ _____    ______ ____

>  <TORSDO>
F 6

$$$$
=
 OpenBabel11042413003D

 40 44  0  0  1  0  0  0  0  0999 V2000
  185.9820  176.7920  136.9320 N   0  0  0  0  0  2  0  0  0  0  0  0
  186.3840  175.6050  136.6200 C   0  0  0  0  0  2  0  0  0  0  0  0
  182.6110  178.1600  139.6290 C   0  0  0  0  0  3  0  0  0  0  0  0
  181.9370  177.3040  138.9180 N   0  0  0  0  0  0  0  0  0  0  0  0
  190.4790  174.8020  137.4760 C   0  0  0  0  0  0  0  0  0  0  0  0
  187.8300  175.3830  136.7200 C   0  0  0  0  0  0  0  0  0  0  0  0
  184.7250  177.1430  137.4850 C   0  0  0  0  0  0  0  0  0  0  0  0
  190.3960  176.7590  139.1060 C   0  0  0  0  0  2  0  0  0  0  0  0
  183.5660  176.2460  137.3580 C   0  0  0  0  0  3  0  0  0  0  0  0
  188.6940  178.6290  140.9600 S   0  0  0  0  0  0  0  0  0  0  0  0
  188.5150  176.1860  137.6370 C   0  0  0  0  0  3  0  0  0  0  0  0
  182.3750  176.3310  137.9560 C   0  0  0  0  0  3  0  0  0  0  0  0
  189.7960  173.9810  136.5500 C   0  0  0  0  0  3  0  0  0  0  0  0
  189.9540  176.2750  140.4120 N   0  0  0  0  0  0  0  0  0  0  0  0
  186.9780  178.1960  141.4050 C   0  0  2  0  0  3  0  0  0  0  0  0
  189.2770  176.9590  141.2910 C   0  0  0  0  0  0  0  0  0  0  0  0
  184.8810  178.0510  138.4300 C   0  0  0  0  0  3  0  0  0  0  0  0
  186.0550  179.0480  140.6530 N   0  0  0  0  0  2  0  0  0  0  0  0
  185.7010  178.8730  143.3060 O   0  0  0  0  0  0  0  0  0  0  0  0
  186.7690  178.3530  142.8900 C   0  0  0  0  0  0  0  0  0  0  0  0
  189.8150  175.9130  138.0220 C   0  0  0  0  0  0  0  0  0  0  0  0
  187.7140  177.9000  143.8730 N   0  0  0  0  0  0  0  0  0  0  0  0
  188.7120  177.0710  143.7790 C   0  0  0  0  0  0  0  0  0  0  0  0
  184.0580  178.3740  139.5820 C   0  0  0  0  0  0  0  0  0  0  0  0
  188.4680  174.2570  136.1880 C   0  0  0  0  0  3  0  0  0  0  0  0
  184.6630  178.8190  140.6430 N   0  0  0  0  0  0  0  0  0  0  0  0
  189.0680  176.3760  142.5770 N   0  0  0  0  0  2  0  0  0  0  0  0
  191.7890  174.5140  137.8770 O   0  0  0  0  0  0  0  0  0  0  0  0
  192.9130  174.7360  137.0350 C   0  0  0  0  0  2  0  0  0  0  0  0
  193.9480  175.5910  137.7520 C   0  0  2  0  0  3  0  0  0  0  0  0
  193.9220  176.8930  137.2490 O   0  0  0  0  0  1  0  0  0  0  0  0
  195.2240  173.8980  138.3820 C   0  0  0  0  0  1  0  0  0  0  0  0
  195.2260  175.0490  137.5920 O   0  0  0  0  0  0  0  0  0  0  0  0
  189.4970  176.7740  145.0090 C   0  0  0  0  0  2  0  0  0  0  0  0
  186.7970  178.0340  147.3560 C   0  0  0  0  0  3  0  0  0  0  0  0
  188.8220  177.3510  146.2100 C   0  0  0  0  0  0  0  0  0  0  0  0
  187.5550  178.4120  148.4680 C   0  0  0  0  0  3  0  0  0  0  0  0
  188.9450  178.2540  148.4570 C   0  0  0  0  0  3  0  0  0  0  0  0
  187.4290  177.5020  146.2270 C   0  0  0  0  0  3  0  0  0  0  0  0
  189.5770  177.7200  147.3290 C   0  0  0  0  0  3  0  0  0  0  0  0
  1  7  1  0  0  0  0
  2  6  1  0  0  0  0
  2  1  1  0  0  0  0
  4  3  2  0  0  0  0
  5 28  1  0  0  0  0
  5 21  1  0  0  0  0
  6 11  1  0  0  0  0
  7 17  2  0  0  0  0
  8 14  1  0  0  0  0
  9  7  1  0  0  0  0
  9 12  2  0  0  0  0
 10 16  1  0  0  0  0
 10 15  1  0  0  0  0
 11 21  2  0  0  0  0
 12  4  1  0  0  0  0
 13  5  2  0  0  0  0
 14 16  2  0  0  0  0
 15 18  1  6  0  0  0
 15 20  1  0  0  0  0
 16 27  1  0  0  0  0
 17 24  1  0  0  0  0
 20 19  2  0  0  0  0
 20 22  1  0  0  0  0
 21  8  1  0  0  0  0
 23 22  2  0  0  0  0
 23 34  1  0  0  0  0
 24  3  1  0  0  0  0
 24 26  2  0  0  0  0
 25 13  1  0  0  0  0
 25  6  2  0  0  0  0
 26 18  1  0  0  0  0
 27 23  1  0  0  0  0
 29 30  1  0  0  0  0
 29 28  1  0  0  0  0
 30 31  1  6  0  0  0
 33 30  1  0  0  0  0
 33 32  1  0  0  0  0
 34 36  1  0  0  0  0
 35 37  1  0  0  0  0
 36 39  1  0  0  0  0
 36 40  2  0  0  0  0
 38 37  2  0  0  0  0
 39 35  2  0  0  0  0
 40 38  1  0  0  0  0
M  END
>  <MODEL>
5

>  <REMARK>
 VINA RESULT:      -9.1      1.554      2.008
  Name = 
  6 active torsions:
  status: ('A' for Active; 'I' for Inactive)
    1  A    between atoms: C_4  and  C_22
    2  A    between atoms: C_7  and  O_13
    3  A    between atoms: C_10  and  O_13
    4  A    between atoms: C_10  and  C_28
    5  A    between atoms: C_22  and  C_35
    6  A    between atoms: C_28  and  O_30
                            x       y       z     vdW  Elec       q    Type
                         _______ _______ _______ _____ _____    ______ ____

>  <TORSDO>
F 6

$$$$
=
 OpenBabel11042413003D

 40 44  0  0  1  0  0  0  0  0999 V2000
  182.5410  178.2110  138.9460 N   0  0  0  0  0  2  0  0  0  0  0  0
  182.9930  177.2430  138.2200 C   0  0  0  0  0  2  0  0  0  0  0  0
  180.0040  178.1620  142.6970 C   0  0  0  0  0  3  0  0  0  0  0  0
  179.2740  177.3630  141.9750 N   0  0  0  0  0  0  0  0  0  0  0  0
  187.2230  177.1790  137.7230 C   0  0  0  0  0  0  0  0  0  0  0  0
  184.4160  177.3240  137.8740 C   0  0  0  0  0  0  0  0  0  0  0  0
  181.4790  178.1440  139.8820 C   0  0  0  0  0  0  0  0  0  0  0  0
  187.3670  178.6480  139.8000 C   0  0  0  0  0  2  0  0  0  0  0  0
  180.4770  177.0700  139.8130 C   0  0  0  0  0  3  0  0  0  0  0  0
  186.0700  179.6310  142.4790 S   0  0  0  0  0  0  0  0  0  0  0  0
  185.2280  178.0280  138.7700 C   0  0  0  0  0  3  0  0  0  0  0  0
  179.5280  176.7540  140.6990 C   0  0  0  0  0  3  0  0  0  0  0  0
  186.4130  176.4620  136.8130 C   0  0  0  0  0  3  0  0  0  0  0  0
  187.4230  177.7960  140.9850 N   0  0  0  0  0  0  0  0  0  0  0  0
  184.6540  178.7450  143.2140 C   0  0  2  0  0  3  0  0  0  0  0  0
  186.9580  178.0980  142.1650 C   0  0  0  0  0  0  0  0  0  0  0  0
  181.7870  178.8250  140.9690 C   0  0  0  0  0  3  0  0  0  0  0  0
  183.4330  179.5230  142.9990 N   0  0  0  0  0  2  0  0  0  0  0  0
  183.9410  178.6770  145.4930 O   0  0  0  0  0  0  0  0  0  0  0  0
  184.8920  178.5110  144.6850 C   0  0  0  0  0  0  0  0  0  0  0  0
  186.6080  177.9650  138.7110 C   0  0  0  0  0  0  0  0  0  0  0  0
  186.1480  178.0640  145.2210 N   0  0  0  0  0  0  0  0  0  0  0  0
  187.1760  177.5160  144.6420 C   0  0  0  0  0  0  0  0  0  0  0  0
  181.3210  178.6910  142.3380 C   0  0  0  0  0  0  0  0  0  0  0  0
  185.0120  176.5160  136.9010 C   0  0  0  0  0  3  0  0  0  0  0  0
  182.1530  179.0040  143.2860 N   0  0  0  0  0  0  0  0  0  0  0  0
  187.2410  177.2070  143.2440 N   0  0  0  0  0  2  0  0  0  0  0  0
  188.6190  177.1000  137.6720 O   0  0  0  0  0  0  0  0  0  0  0  0
  189.3190  175.8630  137.7180 C   0  0  0  0  0  2  0  0  0  0  0  0
  190.6050  176.0140  138.5200 C   0  0  2  0  0  3  0  0  0  0  0  0
  190.3070  176.4030  139.8270 O   0  0  0  0  0  1  0  0  0  0  0  0
  192.6830  176.3240  137.8300 C   0  0  0  0  0  1  0  0  0  0  0  0
  191.4430  176.9590  137.9260 O   0  0  0  0  0  0  0  0  0  0  0  0
  188.3360  177.1260  145.4920 C   0  0  0  0  0  2  0  0  0  0  0  0
  191.3220  178.8990  143.9680 C   0  0  0  0  0  3  0  0  0  0  0  0
  189.6180  177.3700  144.7660 C   0  0  0  0  0  0  0  0  0  0  0  0
  192.0310  177.8240  143.4250 C   0  0  0  0  0  3  0  0  0  0  0  0
  191.5420  176.5210  143.5590 C   0  0  0  0  0  3  0  0  0  0  0  0
  190.1160  178.6730  144.6390 C   0  0  0  0  0  3  0  0  0  0  0  0
  190.3360  176.2940  144.2320 C   0  0  0  0  0  3  0  0  0  0  0  0
  1  7  1  0  0  0  0
  2  1  1  0  0  0  0
  4  3  2  0  0  0  0
  5 21  1  0  0  0  0
  6  2  1  0  0  0  0
  6 11  1  0  0  0  0
  7 17  2  0  0  0  0
  8 14  1  0  0  0  0
  9  7  1  0  0  0  0
  9 12  2  0  0  0  0
 12  4  1  0  0  0  0
 13 25  1  0  0  0  0
 13  5  2  0  0  0  0
 14 16  2  0  0  0  0
 15 10  1  1  0  0  0
 15 20  1  0  0  0  0
 16 10  1  0  0  0  0
 16 27  1  0  0  0  0
 17 24  1  0  0  0  0
 18 15  1  0  0  0  0
 18 26  1  0  0  0  0
 20 22  1  0  0  0  0
 20 19  2  0  0  0  0
 21 11  2  0  0  0  0
 21  8  1  0  0  0  0
 23 22  2  0  0  0  0
 23 34  1  0  0  0  0
 24  3  1  0  0  0  0
 24 26  2  0  0  0  0
 25  6  2  0  0  0  0
 27 23  1  0  0  0  0
 28 29  1  0  0  0  0
 28  5  1  0  0  0  0
 29 30  1  0  0  0  0
 30 31  1  1  0  0  0
 32 33  1  0  0  0  0
 33 30  1  0  0  0  0
 35 39  1  0  0  0  0
 36 34  1  0  0  0  0
 37 38  1  0  0  0  0
 37 35  2  0  0  0  0
 38 40  2  0  0  0  0
 39 36  2  0  0  0  0
 40 36  1  0  0  0  0
M  END
>  <MODEL>
6

>  <REMARK>
 VINA RESULT:      -9.0      3.175      5.136
  Name = 
  6 active torsions:
  status: ('A' for Active; 'I' for Inactive)
    1  A    between atoms: C_4  and  C_22
    2  A    between atoms: C_7  and  O_13
    3  A    between atoms: C_10  and  O_13
    4  A    between atoms: C_10  and  C_28
    5  A    between atoms: C_22  and  C_35
    6  A    between atoms: C_28  and  O_30
                            x       y       z     vdW  Elec       q    Type
                         _______ _______ _______ _____ _____    ______ ____

>  <TORSDO>
F 6

$$$$
=
 OpenBabel11042413003D

 40 44  0  0  1  0  0  0  0  0999 V2000
  186.7830  178.7370  142.3640 N   0  0  0  0  0  2  0  0  0  0  0  0
  185.7210  178.3780  143.0060 C   0  0  0  0  0  2  0  0  0  0  0  0
  190.5540  176.4400  141.3620 C   0  0  0  0  0  3  0  0  0  0  0  0
  190.5060  176.1610  142.6320 N   0  0  0  0  0  2  0  0  0  0  0  0
  182.0730  178.8090  140.8500 C   0  0  0  0  0  0  0  0  0  0  0  0
  184.4490  178.7090  142.3560 C   0  0  0  0  0  0  0  0  0  0  0  0
  188.0480  178.0990  142.3930 C   0  0  0  0  0  0  0  0  0  0  0  0
  183.4750  178.8380  138.7220 C   0  0  0  0  0  2  0  0  0  0  0  0
  188.4200  177.2080  143.5030 C   0  0  0  0  0  3  0  0  0  0  0  0
  186.1340  178.0560  137.2580 S   0  0  0  0  0  0  0  0  0  0  0  0
  184.4780  178.8150  140.9620 C   0  0  0  0  0  3  0  0  0  0  0  0
  189.4780  176.4000  143.6070 C   0  0  0  0  0  3  0  0  0  0  0  0
  182.0310  178.7000  142.2590 C   0  0  0  0  0  3  0  0  0  0  0  0
  183.6690  177.4660  138.2590 N   0  0  0  0  0  0  0  0  0  0  0  0
  187.2850  176.8430  137.9900 C   0  0  2  0  0  3  0  0  0  0  0  0
  184.7060  177.0200  137.6070 C   0  0  0  0  0  0  0  0  0  0  0  0
  188.5630  178.0530  141.1790 C   0  0  0  0  0  3  0  0  0  0  0  0
  188.4510  177.5470  138.5250 N   0  0  0  0  0  2  0  0  0  0  0  0
  188.8980  175.4560  136.9040 O   0  0  0  0  0  0  0  0  0  0  0  0
  187.6960  175.8250  136.9570 C   0  0  0  0  0  0  0  0  0  0  0  0
  183.3210  178.8620  140.2070 C   0  0  0  0  0  0  0  0  0  0  0  0
  186.7740  175.2120  136.0410 N   0  0  0  0  0  0  0  0  0  0  0  0
  185.4740  175.1410  136.0570 C   0  0  0  0  0  0  0  0  0  0  0  0
  189.5270  177.1400  140.5900 C   0  0  0  0  0  0  0  0  0  0  0  0
  183.2150  178.6280  143.0100 C   0  0  0  0  0  3  0  0  0  0  0  0
  189.4200  176.8970  139.3180 N   0  0  0  0  0  2  0  0  0  0  0  0
  184.6540  175.6880  137.0970 N   0  0  0  0  0  2  0  0  0  0  0  0
  180.9000  178.8390  140.0870 O   0  0  0  0  0  0  0  0  0  0  0  0
  179.6190  178.5650  140.6400 C   0  0  0  0  0  2  0  0  0  0  0  0
  179.2140  177.1270  140.3460 C   0  0  2  0  0  3  0  0  0  0  0  0
  179.3050  176.3590  141.5080 O   0  0  0  0  0  1  0  0  0  0  0  0
  180.3910  175.3230  139.8430 C   0  0  0  0  0  1  0  0  0  0  0  0
  180.0340  176.5810  139.3550 O   0  0  0  0  0  0  0  0  0  0  0  0
  184.7970  174.3920  134.9620 C   0  0  0  0  0  2  0  0  0  0  0  0
  181.5850  172.5450  135.7730 C   0  0  0  0  0  3  0  0  0  0  0  0
  183.8440  173.3900  135.5290 C   0  0  0  0  0  0  0  0  0  0  0  0
  182.0630  171.5020  136.5710 C   0  0  0  0  0  3  0  0  0  0  0  0
  183.4310  171.3960  136.8430 C   0  0  0  0  0  3  0  0  0  0  0  0
  182.4750  173.4880  135.2500 C   0  0  0  0  0  3  0  0  0  0  0  0
  184.3220  172.3390  136.3190 C   0  0  0  0  0  3  0  0  0  0  0  0
  1  7  1  0  0  0  0
  1  2  1  0  0  0  0
  3  4  1  0  0  0  0
  4 12  1  0  0  0  0
  5 13  1  0  0  0  0
  6  2  1  0  0  0  0
  6 25  1  0  0  0  0
  7  9  1  0  0  0  0
  8 21  1  0  0  0  0
  9 12  2  0  0  0  0
 10 16  1  0  0  0  0
 10 15  1  0  0  0  0
 11  6  2  0  0  0  0
 13 25  2  0  0  0  0
 14  8  1  0  0  0  0
 15 20  1  6  0  0  0
 15 18  1  0  0  0  0
 16 14  2  0  0  0  0
 17  7  2  0  0  0  0
 18 26  1  0  0  0  0
 19 20  2  0  0  0  0
 21  5  2  0  0  0  0
 21 11  1  0  0  0  0
 22 23  2  0  0  0  0
 22 20  1  0  0  0  0
 23 27  1  0  0  0  0
 24 17  1  0  0  0  0
 24  3  2  0  0  0  0
 26 24  1  0  0  0  0
 27 16  1  0  0  0  0
 28 29  1  0  0  0  0
 28  5  1  0  0  0  0
 30 29  1  0  0  0  0
 30 31  1  1  0  0  0
 33 32  1  0  0  0  0
 33 30  1  0  0  0  0
 34 36  1  0  0  0  0
 34 23  1  0  0  0  0
 35 37  1  0  0  0  0
 36 40  2  0  0  0  0
 37 38  2  0  0  0  0
 39 36  1  0  0  0  0
 39 35  2  0  0  0  0
 40 38  1  0  0  0  0
M  END
>  <MODEL>
7

>  <REMARK>
 VINA RESULT:      -8.5      3.361     10.093
  Name = 
  6 active torsions:
  status: ('A' for Active; 'I' for Inactive)
    1  A    between atoms: C_4  and  C_22
    2  A    between atoms: C_7  and  O_13
    3  A    between atoms: C_10  and  O_13
    4  A    between atoms: C_10  and  C_28
    5  A    between atoms: C_22  and  C_35
    6  A    between atoms: C_28  and  O_30
                            x       y       z     vdW  Elec       q    Type
                         _______ _______ _______ _____ _____    ______ ____

>  <TORSDO>
F 6

$$$$
=
 OpenBabel11042413003D

 40 44  0  0  1  0  0  0  0  0999 V2000
  186.7830  178.7290  142.4200 N   0  0  0  0  0  2  0  0  0  0  0  0
  185.7150  178.3700  143.0510 C   0  0  0  0  0  2  0  0  0  0  0  0
  190.5580  176.4260  141.4440 C   0  0  0  0  0  3  0  0  0  0  0  0
  190.4970  176.1440  142.7120 N   0  0  0  0  0  2  0  0  0  0  0  0
  182.0870  178.8170  140.8640 C   0  0  0  0  0  0  0  0  0  0  0  0
  184.4490  178.7060  142.3910 C   0  0  0  0  0  0  0  0  0  0  0  0
  188.0460  178.0880  142.4580 C   0  0  0  0  0  0  0  0  0  0  0  0
  183.5090  178.8510  138.7490 C   0  0  0  0  0  2  0  0  0  0  0  0
  188.4060  177.1930  143.5680 C   0  0  0  0  0  3  0  0  0  0  0  0
  186.1790  178.0680  137.3060 S   0  0  0  0  0  0  0  0  0  0  0  0
  184.4910  178.8170  140.9980 C   0  0  0  0  0  3  0  0  0  0  0  0
  189.4610  176.3810  143.6790 C   0  0  0  0  0  3  0  0  0  0  0  0
  182.0320  178.7040  142.2720 C   0  0  0  0  0  3  0  0  0  0  0  0
  183.7030  177.4800  138.2820 N   0  0  0  0  0  0  0  0  0  0  0  0
  187.3200  176.8500  138.0440 C   0  0  2  0  0  3  0  0  0  0  0  0
  184.7450  177.0340  137.6380 C   0  0  0  0  0  0  0  0  0  0  0  0
  188.5720  178.0450  141.2490 C   0  0  0  0  0  3  0  0  0  0  0  0
  188.4830  177.5490  138.5910 N   0  0  0  0  0  2  0  0  0  0  0  0
  188.9400  175.4630  136.9680 O   0  0  0  0  0  0  0  0  0  0  0  0
  187.7380  175.8350  137.0100 C   0  0  0  0  0  0  0  0  0  0  0  0
  183.3410  178.8700  140.2320 C   0  0  0  0  0  0  0  0  0  0  0  0
  186.8230  175.2270  136.0840 N   0  0  0  0  0  0  0  0  0  0  0  0
  185.5230  175.1590  136.0890 C   0  0  0  0  0  0  0  0  0  0  0  0
  189.5390  177.1330  140.6650 C   0  0  0  0  0  0  0  0  0  0  0  0
  183.2090  178.6260  143.0330 C   0  0  0  0  0  3  0  0  0  0  0  0
  189.4430  176.8940  139.3910 N   0  0  0  0  0  2  0  0  0  0  0  0
  184.6940  175.7040  137.1230 N   0  0  0  0  0  2  0  0  0  0  0  0
  180.9210  178.8540  140.0910 O   0  0  0  0  0  0  0  0  0  0  0  0
  179.8430  179.7380  140.3710 C   0  0  0  0  0  2  0  0  0  0  0  0
  180.1440  181.1270  139.8260 C   0  0  2  0  0  3  0  0  0  0  0  0
  179.0220  181.9460  139.9630 O   0  0  0  0  0  1  0  0  0  0  0  0
  181.5340  181.9990  138.3440 C   0  0  0  0  0  1  0  0  0  0  0  0
  180.5150  181.0550  138.4810 O   0  0  0  0  0  0  0  0  0  0  0  0
  184.8540  174.4160  134.9850 C   0  0  0  0  0  2  0  0  0  0  0  0
  181.6450  172.5480  135.7590 C   0  0  0  0  0  3  0  0  0  0  0  0
  183.9020  173.4070  135.5390 C   0  0  0  0  0  0  0  0  0  0  0  0
  182.1210  171.5060  136.5590 C   0  0  0  0  0  3  0  0  0  0  0  0
  183.4870  171.4060  136.8430 C   0  0  0  0  0  3  0  0  0  0  0  0
  182.5350  173.4990  135.2480 C   0  0  0  0  0  3  0  0  0  0  0  0
  184.3770  172.3560  136.3310 C   0  0  0  0  0  3  0  0  0  0  0  0
  1  7  1  0  0  0  0
  1  2  1  0  0  0  0
  3  4  1  0  0  0  0
  4 12  1  0  0  0  0
  5 13  1  0  0  0  0
  6 25  1  0  0  0  0
  6  2  1  0  0  0  0
  7  9  1  0  0  0  0
  8 21  1  0  0  0  0
  9 12  2  0  0  0  0
 10 16  1  0  0  0  0
 10 15  1  0  0  0  0
 11  6  2  0  0  0  0
 13 25  2  0  0  0  0
 14  8  1  0  0  0  0
 15 20  1  6  0  0  0
 15 18  1  0  0  0  0
 16 14  2  0  0  0  0
 17  7  2  0  0  0  0
 18 26  1  0  0  0  0
 19 20  2  0  0  0  0
 21  5  2  0  0  0  0
 21 11  1  0  0  0  0
 22 23  2  0  0  0  0
 22 20  1  0  0  0  0
 23 27  1  0  0  0  0
 24 17  1  0  0  0  0
 24  3  2  0  0  0  0
 26 24  1  0  0  0  0
 27 16  1  0  0  0  0
 28 29  1  0  0  0  0
 28  5  1  0  0  0  0
 30 31  1  6  0  0  0
 30 29  1  0  0  0  0
 32 33  1  0  0  0  0
 33 30  1  0  0  0  0
 34 36  1  0  0  0  0
 34 23  1  0  0  0  0
 35 37  1  0  0  0  0
 36 40  2  0  0  0  0
 37 38  2  0  0  0  0
 39 36  1  0  0  0  0
 39 35  2  0  0  0  0
 40 38  1  0  0  0  0
M  END
>  <MODEL>
8

>  <REMARK>
 VINA RESULT:      -8.4      3.352     10.255
  Name = 
  6 active torsions:
  status: ('A' for Active; 'I' for Inactive)
    1  A    between atoms: C_4  and  C_22
    2  A    between atoms: C_7  and  O_13
    3  A    between atoms: C_10  and  O_13
    4  A    between atoms: C_10  and  C_28
    5  A    between atoms: C_22  and  C_35
    6  A    between atoms: C_28  and  O_30
                            x       y       z     vdW  Elec       q    Type
                         _______ _______ _______ _____ _____    ______ ____

>  <TORSDO>
F 6

$$$$
=
 OpenBabel11042413003D

 40 44  0  0  1  0  0  0  0  0999 V2000
  186.2910  175.3880  136.6210 N   0  0  0  0  0  2  0  0  0  0  0  0
  187.3410  174.7610  137.0330 C   0  0  0  0  0  2  0  0  0  0  0  0
  181.8920  174.5770  137.3280 C   0  0  0  0  0  3  0  0  0  0  0  0
  182.2400  173.3770  136.9620 N   0  0  0  0  0  0  0  0  0  0  0  0
  190.1180  177.1330  139.2240 C   0  0  0  0  0  0  0  0  0  0  0  0
  188.3940  175.6040  137.6090 C   0  0  0  0  0  0  0  0  0  0  0  0
  184.9650  174.8870  136.5810 C   0  0  0  0  0  0  0  0  0  0  0  0
  188.2100  178.7720  139.6330 C   0  0  0  0  0  2  0  0  0  0  0  0
  184.7030  173.4400  136.5940 C   0  0  0  0  0  3  0  0  0  0  0  0
  185.1250  179.2920  139.8390 S   0  0  0  0  0  0  0  0  0  0  0  0
  187.9750  176.8120  138.1750 C   0  0  0  0  0  3  0  0  0  0  0  0
  183.5380  172.8030  136.7380 C   0  0  0  0  0  3  0  0  0  0  0  0
  190.5530  175.9130  138.6590 C   0  0  0  0  0  3  0  0  0  0  0  0
  187.4890  178.3750  140.8400 N   0  0  0  0  0  0  0  0  0  0  0  0
  183.9480  177.9030  139.9610 C   0  0  2  0  0  3  0  0  0  0  0  0
  186.2200  178.5660  141.0690 C   0  0  0  0  0  0  0  0  0  0  0  0
  184.1160  175.8150  136.9810 C   0  0  0  0  0  3  0  0  0  0  0  0
  183.2610  177.7390  138.6790 N   0  0  0  0  0  2  0  0  0  0  0  0
  181.7480  177.8740  140.8900 O   0  0  0  0  0  0  0  0  0  0  0  0
  182.9610  178.1520  141.0730 C   0  0  0  0  0  0  0  0  0  0  0  0
  188.8080  177.5740  138.9740 C   0  0  0  0  0  0  0  0  0  0  0  0
  183.3380  178.6580  142.3650 N   0  0  0  0  0  0  0  0  0  0  0  0
  184.4990  178.7300  142.9480 C   0  0  0  0  0  0  0  0  0  0  0  0
  182.7950  175.7020  137.5720 C   0  0  0  0  0  0  0  0  0  0  0  0
  189.6870  175.1380  137.8700 C   0  0  0  0  0  3  0  0  0  0  0  0
  182.4330  176.6290  138.4090 N   0  0  0  0  0  0  0  0  0  0  0  0
  185.7190  178.2530  142.3680 N   0  0  0  0  0  2  0  0  0  0  0  0
  190.9580  177.8940  140.0460 O   0  0  0  0  0  0  0  0  0  0  0  0
  191.5230  177.3830  141.2470 C   0  0  0  0  0  2  0  0  0  0  0  0
  190.7720  177.9240  142.4560 C   0  0  2  0  0  3  0  0  0  0  0  0
  191.6750  178.2640  143.4640 O   0  0  0  0  0  1  0  0  0  0  0  0
  190.5500  175.7580  142.8440 C   0  0  0  0  0  1  0  0  0  0  0  0
  189.8680  176.9730  142.9350 O   0  0  0  0  0  0  0  0  0  0  0  0
  184.5580  179.2850  144.3290 C   0  0  0  0  0  2  0  0  0  0  0  0
  187.5520  177.1280  145.2070 C   0  0  0  0  0  3  0  0  0  0  0  0
  185.6400  178.6150  145.1130 C   0  0  0  0  0  0  0  0  0  0  0  0
  187.6780  177.3790  146.5770 C   0  0  0  0  0  3  0  0  0  0  0  0
  186.7930  178.2530  147.2150 C   0  0  0  0  0  3  0  0  0  0  0  0
  186.5340  177.7460  144.4740 C   0  0  0  0  0  3  0  0  0  0  0  0
  185.7750  178.8730  146.4810 C   0  0  0  0  0  3  0  0  0  0  0  0
  1  2  1  0  0  0  0
  2  6  1  0  0  0  0
  3 24  1  0  0  0  0
  4  3  2  0  0  0  0
  5 28  1  0  0  0  0
  6 25  2  0  0  0  0
  6 11  1  0  0  0  0
  7  9  1  0  0  0  0
  7  1  1  0  0  0  0
  7 17  2  0  0  0  0
  8 14  1  0  0  0  0
  9 12  2  0  0  0  0
 10 15  1  0  0  0  0
 10 16  1  0  0  0  0
 11 21  2  0  0  0  0
 12  4  1  0  0  0  0
 13  5  2  0  0  0  0
 14 16  2  0  0  0  0
 15 18  1  6  0  0  0
 15 20  1  0  0  0  0
 16 27  1  0  0  0  0
 17 24  1  0  0  0  0
 19 20  2  0  0  0  0
 20 22  1  0  0  0  0
 21  5  1  0  0  0  0
 21  8  1  0  0  0  0
 22 23  2  0  0  0  0
 23 34  1  0  0  0  0
 24 26  2  0  0  0  0
 25 13  1  0  0  0  0
 26 18  1  0  0  0  0
 27 23  1  0  0  0  0
 28 29  1  0  0  0  0
 29 30  1  0  0  0  0
 30 33  1  0  0  0  0
 30 31  1  1  0  0  0
 32 33  1  0  0  0  0
 34 36  1  0  0  0  0
 35 37  1  0  0  0  0
 36 40  2  0  0  0  0
 37 38  2  0  0  0  0
 39 36  1  0  0  0  0
 39 35  2  0  0  0  0
 40 38  1  0  0  0  0
M  END
>  <MODEL>
9

>  <REMARK>
 VINA RESULT:      -8.4      2.885      4.087
  Name = 
  6 active torsions:
  status: ('A' for Active; 'I' for Inactive)
    1  A    between atoms: C_4  and  C_22
    2  A    between atoms: C_7  and  O_13
    3  A    between atoms: C_10  and  O_13
    4  A    between atoms: C_10  and  C_28
    5  A    between atoms: C_22  and  C_35
    6  A    between atoms: C_28  and  O_30
                            x       y       z     vdW  Elec       q    Type
                         _______ _______ _______ _____ _____    ______ ____

>  <TORSDO>
F 6

$$$$
