=
 OpenBabel11032421033D

 46 52  0  0  1  0  0  0  0  0999 V2000
  190.8130  177.6320  142.7890 C   0  0  0  0  0  0  0  0  0  0  0  0
  187.2880  177.1060  143.6100 N   0  0  0  0  0  0  0  0  0  0  0  0
  190.5320  177.4190  145.3440 C   0  0  1  0  0  3  0  0  0  0  0  0
  186.7800  177.1070  144.9830 C   0  0  2  0  0  3  0  0  0  0  0  0
  189.2380  177.0290  140.9280 S   0  0  0  0  0  0  0  0  0  0  0  0
  185.8140  178.2390  145.2460 C   0  0  0  0  0  0  0  0  0  0  0  0
  190.8350  177.4400  140.5590 C   0  0  0  0  0  0  0  0  0  0  0  0
  188.5780  177.0990  143.6810 C   0  0  0  0  0  0  0  0  0  0  0  0
  189.5000  177.2510  142.5710 C   0  0  0  0  0  0  0  0  0  0  0  0
  186.9010  178.6390  147.4390 C   0  0  0  0  0  3  0  0  0  0  0  0
  191.5580  177.7520  141.6620 N   0  0  0  0  0  0  0  0  0  0  0  0
  185.8460  178.8920  146.4240 C   0  0  0  0  0  3  0  0  0  0  0  0
  191.3100  178.0520  144.1560 C   0  0  0  0  0  2  0  0  0  0  0  0
  189.0730  177.2100  145.0260 C   0  0  2  0  0  3  0  0  0  0  0  0
  187.9550  177.8570  147.1640 C   0  0  0  0  0  0  0  0  0  0  0  0
  188.0180  177.2630  145.8200 C   0  0  1  0  0  3  0  0  0  0  0  0
  191.3660  175.0800  136.2160 C   0  0  0  0  0  3  0  0  0  0  0  0
  192.7470  176.1040  137.8920 N   0  0  0  0  0  0  0  0  0  0  0  0
  193.9520  175.3860  137.4790 C   0  0  0  0  0  2  0  0  0  0  0  0
  192.5630  174.3460  135.6820 C   0  0  0  0  0  2  0  0  0  0  0  0
  191.3910  177.4670  139.1770 C   0  0  1  0  0  3  0  0  0  0  0  0
  192.6720  176.7440  139.1360 N   0  0  0  0  0  2  0  0  0  0  0  0
  193.5720  174.0700  136.8000 C   0  0  0  0  0  2  0  0  0  0  0  0
  191.5140  175.9520  137.2130 C   0  0  0  0  0  0  0  0  0  0  0  0
  190.1670  176.7750  137.9890 S   0  0  0  0  0  0  0  0  0  0  0  0
  189.0280  177.6480  148.1430 C   0  0  0  0  0  3  0  0  0  0  0  0
  189.5650  178.6160  148.7450 O   0  0  0  0  0  0  0  0  0  0  0  0
  191.1280  176.1430  145.7050 N   0  0  0  0  0  2  0  0  0  0  0  0
  192.5040  175.8740  147.9020 C   0  0  0  0  0  3  0  0  0  0  0  0
  191.8700  175.9980  146.8850 C   0  0  0  0  0  0  0  0  0  0  0  0
  184.7720  178.4900  144.2980 N   0  0  0  0  0  2  0  0  0  0  0  0
  183.3700  178.6250  144.6600 C   0  0  0  0  0  2  0  0  0  0  0  0
  182.7020  179.6630  143.7710 C   0  0  0  0  0  2  0  0  0  0  0  0
  181.3120  179.1940  140.5610 N   0  0  0  0  0  0  0  0  0  0  0  0
  180.5750  180.0150  142.6340 N   0  0  0  0  0  2  0  0  0  0  0  0
  179.3780  181.0720  140.4820 S   0  0  0  0  0  0  0  0  0  0  0  0
  180.4220  180.0610  141.2310 C   0  0  0  0  0  0  0  0  0  0  0  0
  182.1640  178.5680  141.5520 C   0  0  0  0  0  2  0  0  0  0  0  0
  181.6110  179.0280  142.9200 C   0  0  1  0  0  3  0  0  0  0  0  0
  181.5800  179.1780  139.1320 C   0  0  0  0  0  2  0  0  0  0  0  0
  184.0850  179.1550  138.8150 C   0  0  0  0  0  0  0  0  0  0  0  0
  184.1390  180.4030  138.9930 O   0  0  0  0  0  0  0  0  0  0  0  0
  182.8270  178.4740  138.8750 N   0  0  0  0  0  2  0  0  0  0  0  0
  185.3170  178.4000  138.5520 C   0  0  0  0  0  0  0  0  0  0  0  0
  185.3740  177.4760  137.4700 N   0  0  0  0  0  1  0  0  0  0  0  0
  186.3320  178.5720  139.2760 O   0  0  0  0  0  0  0  0  0  0  0  0
  1 13  1  0  0  0  0
  2  8  2  0  0  0  0
  3 28  1  6  0  0  0
  4  2  1  6  0  0  0
  4  6  1  0  0  0  0
  4 16  1  0  0  0  0
  5  9  1  0  0  0  0
  6 12  2  0  0  0  0
  7  5  1  0  0  0  0
  7 11  2  0  0  0  0
  9  1  2  0  0  0  0
  9  8  1  0  0  0  0
 11  1  1  0  0  0  0
 12 10  1  0  0  0  0
 13  3  1  0  0  0  0
 14  8  1  6  0  0  0
 14  3  1  0  0  0  0
 14 16  1  0  0  0  0
 15 10  2  0  0  0  0
 15 26  1  0  0  0  0
 16 15  1  6  0  0  0
 17 24  2  0  0  0  0
 18 22  1  0  0  0  0
 19 18  1  0  0  0  0
 20 17  1  0  0  0  0
 20 23  1  0  0  0  0
 21  7  1  1  0  0  0
 22 21  1  0  0  0  0
 23 19  1  0  0  0  0
 24 18  1  0  0  0  0
 24 25  1  0  0  0  0
 25 21  1  0  0  0  0
 26 27  2  0  0  0  0
 28 30  1  0  0  0  0
 30 29  3  0  0  0  0
 31 32  1  0  0  0  0
 31  6  1  0  0  0  0
 33 32  1  0  0  0  0
 34 37  1  0  0  0  0
 34 38  1  0  0  0  0
 35 39  1  0  0  0  0
 36 37  2  0  0  0  0
 37 35  1  0  0  0  0
 38 39  1  0  0  0  0
 39 33  1  1  0  0  0
 40 34  1  0  0  0  0
 41 43  1  0  0  0  0
 41 42  2  0  0  0  0
 43 40  1  0  0  0  0
 44 41  1  0  0  0  0
 44 46  2  0  0  0  0
 45 44  1  0  0  0  0
M  END
>  <MODEL>
1

>  <REMARK>
 VINA RESULT:      -9.9      0.000      0.000
  Name = 
  11 active torsions:
  status: ('A' for Active; 'I' for Inactive)
    1  A    between atoms: C_5  and  N_11
    2  A    between atoms: N_6  and  C_15
    3  A    between atoms: C_9  and  C_40
    4  A    between atoms: C_10  and  N_11
    5  A    between atoms: C_12  and  C_13
    6  A    between atoms: C_15  and  N_41
    7  A    between atoms: C_19  and  C_36
    8  A    between atoms: C_19  and  C_44
    9  A    between atoms: N_20  and  C_22
   10  A    between atoms: N_20  and  C_36
   11  A    between atoms: C_23  and  C_33
                            x       y       z     vdW  Elec       q    Type
                         _______ _______ _______ _____ _____    ______ ____

>  <TORSDO>
F 11

$$$$
=
 OpenBabel11032421033D

 46 52  0  0  1  0  0  0  0  0999 V2000
  191.0700  177.4820  142.3610 C   0  0  0  0  0  0  0  0  0  0  0  0
  187.5670  176.8520  143.1990 N   0  0  0  0  0  0  0  0  0  0  0  0
  190.7840  177.4040  144.9240 C   0  0  1  0  0  3  0  0  0  0  0  0
  187.0510  176.9090  144.5680 C   0  0  2  0  0  3  0  0  0  0  0  0
  189.5340  176.7060  140.5330 S   0  0  0  0  0  0  0  0  0  0  0  0
  186.0350  178.0110  144.7620 C   0  0  0  0  0  0  0  0  0  0  0  0
  191.1140  177.1640  140.1460 C   0  0  0  0  0  0  0  0  0  0  0  0
  188.8550  176.9040  143.2740 C   0  0  0  0  0  0  0  0  0  0  0  0
  189.7760  177.0330  142.1610 C   0  0  0  0  0  0  0  0  0  0  0  0
  187.0910  178.5830  146.9330 C   0  0  0  0  0  3  0  0  0  0  0  0
  191.8160  177.5700  141.2320 N   0  0  0  0  0  0  0  0  0  0  0  0
  186.0320  178.7320  145.9020 C   0  0  0  0  0  3  0  0  0  0  0  0
  191.5410  178.0010  143.7040 C   0  0  0  0  0  2  0  0  0  0  0  0
  189.3370  177.1130  144.6130 C   0  0  2  0  0  3  0  0  0  0  0  0
  188.1800  177.8330  146.7060 C   0  0  0  0  0  0  0  0  0  0  0  0
  188.2760  177.1660  145.3990 C   0  0  1  0  0  3  0  0  0  0  0  0
  191.9570  174.5150  136.0240 C   0  0  0  0  0  3  0  0  0  0  0  0
  193.1930  175.8340  137.6050 N   0  0  0  0  0  0  0  0  0  0  0  0
  194.4770  175.2290  137.2540 C   0  0  0  0  0  2  0  0  0  0  0  0
  193.2360  173.8820  135.5560 C   0  0  0  0  0  2  0  0  0  0  0  0
  191.6760  177.1360  138.7660 C   0  0  1  0  0  3  0  0  0  0  0  0
  193.0320  176.5660  138.7880 N   0  0  0  0  0  2  0  0  0  0  0  0
  194.2600  173.8230  136.6930 C   0  0  0  0  0  2  0  0  0  0  0  0
  191.9930  175.4820  136.9420 C   0  0  0  0  0  0  0  0  0  0  0  0
  190.5520  176.2060  137.6440 S   0  0  0  0  0  0  0  0  0  0  0  0
  189.2550  177.7270  147.6990 C   0  0  0  0  0  3  0  0  0  0  0  0
  189.1500  178.2520  148.8400 O   0  0  0  0  0  0  0  0  0  0  0  0
  191.4320  176.1770  145.3590 N   0  0  0  0  0  2  0  0  0  0  0  0
  192.4220  175.9600  147.7610 C   0  0  0  0  0  3  0  0  0  0  0  0
  191.9660  176.0590  146.6490 C   0  0  0  0  0  0  0  0  0  0  0  0
  184.9890  178.1620  143.7980 N   0  0  0  0  0  2  0  0  0  0  0  0
  185.0990  179.0030  142.6160 C   0  0  0  0  0  2  0  0  0  0  0  0
  183.7870  178.9930  141.8480 C   0  0  0  0  0  2  0  0  0  0  0  0
  182.5090  179.0060  138.5580 N   0  0  0  0  0  0  0  0  0  0  0  0
  183.4100  177.4130  140.0300 N   0  0  0  0  0  2  0  0  0  0  0  0
  181.6260  176.4750  138.2640 S   0  0  0  0  0  0  0  0  0  0  0  0
  182.5420  177.6480  138.9410 C   0  0  0  0  0  0  0  0  0  0  0  0
  183.3490  179.7530  139.4740 C   0  0  0  0  0  2  0  0  0  0  0  0
  184.0210  178.6930  140.3740 C   0  0  1  0  0  3  0  0  0  0  0  0
  181.5540  179.6170  137.6490 C   0  0  0  0  0  2  0  0  0  0  0  0
  180.6460  181.9170  137.1380 C   0  0  0  0  0  0  0  0  0  0  0  0
  179.7730  181.4250  136.3710 O   0  0  0  0  0  0  0  0  0  0  0  0
  181.5730  181.0620  137.8150 N   0  0  0  0  0  2  0  0  0  0  0  0
  180.7050  183.3710  137.3390 C   0  0  0  0  0  0  0  0  0  0  0  0
  179.5190  184.1550  137.2570 N   0  0  0  0  0  1  0  0  0  0  0  0
  181.8040  183.9310  137.5920 O   0  0  0  0  0  0  0  0  0  0  0  0
  1 13  1  0  0  0  0
  2  8  2  0  0  0  0
  3 28  1  6  0  0  0
  4  2  1  6  0  0  0
  4  6  1  0  0  0  0
  4 16  1  0  0  0  0
  5  9  1  0  0  0  0
  6 12  2  0  0  0  0
  7  5  1  0  0  0  0
  7 11  2  0  0  0  0
  9  1  2  0  0  0  0
  9  8  1  0  0  0  0
 11  1  1  0  0  0  0
 12 10  1  0  0  0  0
 13  3  1  0  0  0  0
 14  8  1  6  0  0  0
 14  3  1  0  0  0  0
 14 16  1  0  0  0  0
 15 10  2  0  0  0  0
 15 26  1  0  0  0  0
 16 15  1  6  0  0  0
 17 24  2  0  0  0  0
 18 22  1  0  0  0  0
 19 18  1  0  0  0  0
 20 17  1  0  0  0  0
 20 23  1  0  0  0  0
 21 22  1  0  0  0  0
 21  7  1  1  0  0  0
 23 19  1  0  0  0  0
 24 18  1  0  0  0  0
 24 25  1  0  0  0  0
 25 21  1  0  0  0  0
 26 27  2  0  0  0  0
 28 30  1  0  0  0  0
 30 29  3  0  0  0  0
 31  6  1  0  0  0  0
 32 31  1  0  0  0  0
 33 32  1  0  0  0  0
 34 37  1  0  0  0  0
 34 38  1  0  0  0  0
 35 39  1  0  0  0  0
 36 37  2  0  0  0  0
 37 35  1  0  0  0  0
 38 39  1  0  0  0  0
 39 33  1  1  0  0  0
 40 43  1  0  0  0  0
 40 34  1  0  0  0  0
 41 44  1  0  0  0  0
 41 43  1  0  0  0  0
 42 41  2  0  0  0  0
 44 46  2  0  0  0  0
 45 44  1  0  0  0  0
M  END
>  <MODEL>
2

>  <REMARK>
 VINA RESULT:      -8.8      2.050      2.781
  Name = 
  11 active torsions:
  status: ('A' for Active; 'I' for Inactive)
    1  A    between atoms: C_5  and  N_11
    2  A    between atoms: N_6  and  C_15
    3  A    between atoms: C_9  and  C_40
    4  A    between atoms: C_10  and  N_11
    5  A    between atoms: C_12  and  C_13
    6  A    between atoms: C_15  and  N_41
    7  A    between atoms: C_19  and  C_36
    8  A    between atoms: C_19  and  C_44
    9  A    between atoms: N_20  and  C_22
   10  A    between atoms: N_20  and  C_36
   11  A    between atoms: C_23  and  C_33
                            x       y       z     vdW  Elec       q    Type
                         _______ _______ _______ _____ _____    ______ ____

>  <TORSDO>
F 11

$$$$
=
 OpenBabel11032421033D

 46 52  0  0  1  0  0  0  0  0999 V2000
  190.3520  177.6810  143.0060 C   0  0  0  0  0  0  0  0  0  0  0  0
  186.7830  177.1750  143.6240 N   0  0  0  0  0  0  0  0  0  0  0  0
  189.8940  177.6890  145.5440 C   0  0  1  0  0  3  0  0  0  0  0  0
  186.1800  177.2890  144.9530 C   0  0  2  0  0  3  0  0  0  0  0  0
  188.9170  176.8940  141.1010 S   0  0  0  0  0  0  0  0  0  0  0  0
  185.1870  178.4240  145.0470 C   0  0  0  0  0  0  0  0  0  0  0  0
  190.5320  177.2960  140.8080 C   0  0  0  0  0  0  0  0  0  0  0  0
  188.0640  177.1940  143.7840 C   0  0  0  0  0  0  0  0  0  0  0  0
  189.0610  177.2630  142.7320 C   0  0  0  0  0  0  0  0  0  0  0  0
  186.1140  179.0320  147.2670 C   0  0  0  0  0  3  0  0  0  0  0  0
  191.1730  177.7140  141.9260 N   0  0  0  0  0  0  0  0  0  0  0  0
  185.1300  179.1790  146.1630 C   0  0  0  0  0  3  0  0  0  0  0  0
  190.7480  178.2280  144.3610 C   0  0  0  0  0  2  0  0  0  0  0  0
  188.4630  177.4300  145.1450 C   0  0  2  0  0  3  0  0  0  0  0  0
  187.1920  178.2450  147.1350 C   0  0  0  0  0  0  0  0  0  0  0  0
  187.3550  177.5360  145.8570 C   0  0  1  0  0  3  0  0  0  0  0  0
  190.0990  176.0500  136.0150 C   0  0  0  0  0  3  0  0  0  0  0  0
  191.5300  175.5660  137.8810 N   0  0  0  0  0  0  0  0  0  0  0  0
  192.0410  174.3270  137.2960 C   0  0  0  0  0  2  0  0  0  0  0  0
  190.6120  174.8270  135.3090 C   0  0  0  0  0  2  0  0  0  0  0  0
  191.1840  177.2090  139.4700 C   0  0  1  0  0  3  0  0  0  0  0  0
  191.6890  175.8460  139.2450 N   0  0  0  0  0  2  0  0  0  0  0  0
  191.0180  173.7490  136.3170 C   0  0  0  0  0  2  0  0  0  0  0  0
  190.6130  176.3980  137.1950 C   0  0  0  0  0  0  0  0  0  0  0  0
  190.0060  177.7380  138.1580 S   0  0  0  0  0  0  0  0  0  0  0  0
  188.1960  178.1390  148.2000 C   0  0  0  0  0  3  0  0  0  0  0  0
  188.4220  177.0440  148.7820 O   0  0  0  0  0  0  0  0  0  0  0  0
  190.4750  176.4590  146.0560 N   0  0  0  0  0  2  0  0  0  0  0  0
  192.1930  176.4950  148.0160 C   0  0  0  0  0  3  0  0  0  0  0  0
  191.4010  176.4780  147.1080 C   0  0  0  0  0  0  0  0  0  0  0  0
  184.2120  178.5750  144.0110 N   0  0  0  0  0  2  0  0  0  0  0  0
  184.4190  179.3900  142.8240 C   0  0  0  0  0  2  0  0  0  0  0  0
  184.9830  178.5350  141.7010 C   0  0  0  0  0  2  0  0  0  0  0  0
  183.4470  178.5210  138.5230 N   0  0  0  0  0  0  0  0  0  0  0  0
  185.6430  178.5660  139.3540 N   0  0  0  0  0  2  0  0  0  0  0  0
  185.3350  177.3900  136.9660 S   0  0  0  0  0  0  0  0  0  0  0  0
  184.7980  178.1900  138.2870 C   0  0  0  0  0  0  0  0  0  0  0  0
  183.3490  179.0960  139.8500 C   0  0  0  0  0  2  0  0  0  0  0  0
  184.8050  179.2210  140.3530 C   0  0  1  0  0  3  0  0  0  0  0  0
  182.3040  178.0650  137.7490 C   0  0  0  0  0  2  0  0  0  0  0  0
  181.3030  176.0070  138.8170 C   0  0  0  0  0  0  0  0  0  0  0  0
  182.1290  175.2680  138.2140 O   0  0  0  0  0  0  0  0  0  0  0  0
  181.3380  177.4260  138.6290 N   0  0  0  0  0  2  0  0  0  0  0  0
  180.3080  175.4090  139.7160 C   0  0  0  0  0  0  0  0  0  0  0  0
  179.7170  176.1890  140.7510 N   0  0  0  0  0  1  0  0  0  0  0  0
  179.9670  174.2060  139.5730 O   0  0  0  0  0  0  0  0  0  0  0  0
  1 13  1  0  0  0  0
  2  8  2  0  0  0  0
  3 28  1  6  0  0  0
  4  2  1  6  0  0  0
  4  6  1  0  0  0  0
  4 16  1  0  0  0  0
  5  9  1  0  0  0  0
  6 12  2  0  0  0  0
  7  5  1  0  0  0  0
  7 11  2  0  0  0  0
  9  1  2  0  0  0  0
  9  8  1  0  0  0  0
 11  1  1  0  0  0  0
 12 10  1  0  0  0  0
 13  3  1  0  0  0  0
 14  8  1  6  0  0  0
 14  3  1  0  0  0  0
 14 16  1  0  0  0  0
 15 10  2  0  0  0  0
 15 26  1  0  0  0  0
 16 15  1  6  0  0  0
 17 24  2  0  0  0  0
 18 22  1  0  0  0  0
 19 18  1  0  0  0  0
 20 17  1  0  0  0  0
 20 23  1  0  0  0  0
 21  7  1  1  0  0  0
 22 21  1  0  0  0  0
 23 19  1  0  0  0  0
 24 18  1  0  0  0  0
 24 25  1  0  0  0  0
 25 21  1  0  0  0  0
 26 27  2  0  0  0  0
 28 30  1  0  0  0  0
 30 29  3  0  0  0  0
 31  6  1  0  0  0  0
 32 31  1  0  0  0  0
 33 32  1  0  0  0  0
 34 38  1  0  0  0  0
 35 39  1  0  0  0  0
 36 37  2  0  0  0  0
 37 34  1  0  0  0  0
 37 35  1  0  0  0  0
 38 39  1  0  0  0  0
 39 33  1  1  0  0  0
 40 34  1  0  0  0  0
 40 43  1  0  0  0  0
 41 44  1  0  0  0  0
 42 41  2  0  0  0  0
 43 41  1  0  0  0  0
 44 45  1  0  0  0  0
 46 44  2  0  0  0  0
M  END
>  <MODEL>
3

>  <REMARK>
 VINA RESULT:      -8.5      2.181      2.986
  Name = 
  11 active torsions:
  status: ('A' for Active; 'I' for Inactive)
    1  A    between atoms: C_5  and  N_11
    2  A    between atoms: N_6  and  C_15
    3  A    between atoms: C_9  and  C_40
    4  A    between atoms: C_10  and  N_11
    5  A    between atoms: C_12  and  C_13
    6  A    between atoms: C_15  and  N_41
    7  A    between atoms: C_19  and  C_36
    8  A    between atoms: C_19  and  C_44
    9  A    between atoms: N_20  and  C_22
   10  A    between atoms: N_20  and  C_36
   11  A    between atoms: C_23  and  C_33
                            x       y       z     vdW  Elec       q    Type
                         _______ _______ _______ _____ _____    ______ ____

>  <TORSDO>
F 11

$$$$
=
 OpenBabel11032421033D

 46 52  0  0  1  0  0  0  0  0999 V2000
  184.2890  177.6870  138.6340 C   0  0  0  0  0  0  0  0  0  0  0  0
  185.7090  179.1280  141.6810 N   0  0  0  0  0  0  0  0  0  0  0  0
  182.3940  178.5090  140.1790 C   0  0  1  0  0  3  0  0  0  0  0  0
  184.8930  179.5380  142.8250 C   0  0  2  0  0  3  0  0  0  0  0  0
  186.7480  178.1940  138.6730 S   0  0  0  0  0  0  0  0  0  0  0  0
  185.1820  178.7270  144.0670 C   0  0  0  0  0  0  0  0  0  0  0  0
  186.0940  177.3760  137.3460 C   0  0  0  0  0  0  0  0  0  0  0  0
  184.8990  178.8730  140.7070 C   0  0  0  0  0  0  0  0  0  0  0  0
  185.2520  178.2850  139.4280 C   0  0  0  0  0  0  0  0  0  0  0  0
  182.7490  178.5910  144.5290 C   0  0  0  0  0  3  0  0  0  0  0  0
  184.7610  177.1650  137.4740 N   0  0  0  0  0  0  0  0  0  0  0  0
  184.1730  178.3560  144.8810 C   0  0  0  0  0  3  0  0  0  0  0  0
  182.8690  177.4780  139.1150 C   0  0  0  0  0  2  0  0  0  0  0  0
  183.5140  178.9540  141.0840 C   0  0  2  0  0  3  0  0  0  0  0  0
  182.3990  179.0470  143.3180 C   0  0  0  0  0  0  0  0  0  0  0  0
  183.4830  179.3050  142.3580 C   0  0  1  0  0  3  0  0  0  0  0  0
  188.8330  173.7890  135.2640 C   0  0  0  0  0  3  0  0  0  0  0  0
  189.0230  176.1220  135.7980 N   0  0  0  0  0  0  0  0  0  0  0  0
  190.4840  176.1160  135.7480 C   0  0  0  0  0  2  0  0  0  0  0  0
  190.3270  173.7010  135.1310 C   0  0  0  0  0  2  0  0  0  0  0  0
  186.8880  176.9290  136.1680 C   0  0  1  0  0  3  0  0  0  0  0  0
  188.3200  177.1700  136.4060 N   0  0  0  0  0  2  0  0  0  0  0  0
  191.0140  174.7140  136.0500 C   0  0  0  0  0  2  0  0  0  0  0  0
  188.2580  174.9660  135.5100 C   0  0  0  0  0  0  0  0  0  0  0  0
  186.5340  175.1600  135.8010 S   0  0  0  0  0  0  0  0  0  0  0  0
  180.9910  179.2280  142.9460 C   0  0  0  0  0  3  0  0  0  0  0  0
  180.4630  180.3720  142.9140 O   0  0  0  0  0  0  0  0  0  0  0  0
  181.8220  179.6730  139.5220 N   0  0  0  0  0  2  0  0  0  0  0  0
  179.2410  179.9620  139.3040 C   0  0  0  0  0  3  0  0  0  0  0  0
  180.4350  179.8300  139.4020 C   0  0  0  0  0  0  0  0  0  0  0  0
  186.5450  178.5060  144.4430 N   0  0  0  0  0  2  0  0  0  0  0  0
  187.0360  177.2490  144.9850 C   0  0  0  0  0  2  0  0  0  0  0  0
  187.4010  177.4230  146.4510 C   0  0  0  0  0  2  0  0  0  0  0  0
  190.8010  177.3090  145.5120 N   0  0  0  0  0  0  0  0  0  0  0  0
  189.5820  177.1890  147.5150 N   0  0  0  0  0  2  0  0  0  0  0  0
  191.9070  175.8580  147.4970 S   0  0  0  0  0  0  0  0  0  0  0  0
  190.7620  176.8180  146.8350 C   0  0  0  0  0  0  0  0  0  0  0  0
  189.5540  177.9990  145.2500 C   0  0  0  0  0  2  0  0  0  0  0  0
  188.7990  178.0100  146.5970 C   0  0  1  0  0  3  0  0  0  0  0  0
  191.7440  176.9130  144.4780 C   0  0  0  0  0  2  0  0  0  0  0  0
  190.5300  176.4740  142.3080 C   0  0  0  0  0  0  0  0  0  0  0  0
  190.2870  175.2880  142.6600 O   0  0  0  0  0  0  0  0  0  0  0  0
  191.2580  177.3480  143.1780 N   0  0  0  0  0  2  0  0  0  0  0  0
  190.0600  176.9600  141.0040 C   0  0  0  0  0  0  0  0  0  0  0  0
  190.4410  176.2870  139.8080 N   0  0  0  0  0  1  0  0  0  0  0  0
  189.3120  177.9700  140.9370 O   0  0  0  0  0  0  0  0  0  0  0  0
  1 13  1  0  0  0  0
  1  9  2  0  0  0  0
  3 28  1  6  0  0  0
  3 14  1  0  0  0  0
  4  2  1  6  0  0  0
  4  6  1  0  0  0  0
  5  9  1  0  0  0  0
  6 31  1  0  0  0  0
  6 12  2  0  0  0  0
  7 11  2  0  0  0  0
  7  5  1  0  0  0  0
  8  2  2  0  0  0  0
  9  8  1  0  0  0  0
 10 12  1  0  0  0  0
 11  1  1  0  0  0  0
 13  3  1  0  0  0  0
 14  8  1  1  0  0  0
 14 16  1  0  0  0  0
 15 10  2  0  0  0  0
 16  4  1  0  0  0  0
 16 15  1  1  0  0  0
 17 24  2  0  0  0  0
 18 22  1  0  0  0  0
 19 18  1  0  0  0  0
 19 23  1  0  0  0  0
 20 17  1  0  0  0  0
 20 23  1  0  0  0  0
 21 22  1  0  0  0  0
 21  7  1  1  0  0  0
 24 18  1  0  0  0  0
 24 25  1  0  0  0  0
 25 21  1  0  0  0  0
 26 15  1  0  0  0  0
 27 26  2  0  0  0  0
 29 30  3  0  0  0  0
 30 28  1  0  0  0  0
 31 32  1  0  0  0  0
 32 33  1  0  0  0  0
 34 37  1  0  0  0  0
 37 36  2  0  0  0  0
 37 35  1  0  0  0  0
 38 34  1  0  0  0  0
 38 39  1  0  0  0  0
 39 33  1  6  0  0  0
 39 35  1  0  0  0  0
 40 34  1  0  0  0  0
 41 42  2  0  0  0  0
 41 43  1  0  0  0  0
 43 40  1  0  0  0  0
 44 41  1  0  0  0  0
 45 44  1  0  0  0  0
 46 44  2  0  0  0  0
M  END
>  <MODEL>
4

>  <REMARK>
 VINA RESULT:      -8.4      2.572      7.823
  Name = 
  11 active torsions:
  status: ('A' for Active; 'I' for Inactive)
    1  A    between atoms: C_5  and  N_11
    2  A    between atoms: N_6  and  C_15
    3  A    between atoms: C_9  and  C_40
    4  A    between atoms: C_10  and  N_11
    5  A    between atoms: C_12  and  C_13
    6  A    between atoms: C_15  and  N_41
    7  A    between atoms: C_19  and  C_36
    8  A    between atoms: C_19  and  C_44
    9  A    between atoms: N_20  and  C_22
   10  A    between atoms: N_20  and  C_36
   11  A    between atoms: C_23  and  C_33
                            x       y       z     vdW  Elec       q    Type
                         _______ _______ _______ _____ _____    ______ ____

>  <TORSDO>
F 11

$$$$
=
 OpenBabel11032421033D

 46 52  0  0  1  0  0  0  0  0999 V2000
  183.6780  178.6310  141.3750 C   0  0  0  0  0  0  0  0  0  0  0  0
  187.1410  178.8940  140.2280 N   0  0  0  0  0  0  0  0  0  0  0  0
  185.2870  178.1770  143.3390 C   0  0  1  0  0  3  0  0  0  0  0  0
  188.2880  178.5350  141.0650 C   0  0  2  0  0  3  0  0  0  0  0  0
  184.1100  179.6750  139.1320 S   0  0  0  0  0  0  0  0  0  0  0  0
  189.0680  177.3640  140.5130 C   0  0  0  0  0  0  0  0  0  0  0  0
  182.5170  179.3880  139.6170 C   0  0  0  0  0  0  0  0  0  0  0  0
  186.0990  178.8950  140.9900 C   0  0  0  0  0  0  0  0  0  0  0  0
  184.7210  179.0420  140.5610 C   0  0  0  0  0  0  0  0  0  0  0  0
  189.2500  176.4250  142.8020 C   0  0  0  0  0  3  0  0  0  0  0  0
  182.4440  178.8110  140.8410 N   0  0  0  0  0  0  0  0  0  0  0  0
  189.5640  176.4310  141.3500 C   0  0  0  0  0  3  0  0  0  0  0  0
  183.9170  177.8780  142.6660 C   0  0  0  0  0  2  0  0  0  0  0  0
  186.3740  178.4470  142.3290 C   0  0  2  0  0  3  0  0  0  0  0  0
  188.3370  177.2610  143.3170 C   0  0  0  0  0  0  0  0  0  0  0  0
  187.6670  178.1820  142.3870 C   0  0  1  0  0  3  0  0  0  0  0  0
  180.7330  180.6640  135.1560 C   0  0  0  0  0  3  0  0  0  0  0  0
  180.6710  181.4650  137.4190 N   0  0  0  0  0  0  0  0  0  0  0  0
  180.2960  182.8240  137.0320 C   0  0  0  0  0  2  0  0  0  0  0  0
  180.2890  182.0150  134.6690 C   0  0  0  0  0  2  0  0  0  0  0  0
  181.3210  179.7230  138.7930 C   0  0  1  0  0  3  0  0  0  0  0  0
  181.1700  181.1840  138.6970 N   0  0  0  0  0  2  0  0  0  0  0  0
  180.7780  183.1180  135.6110 C   0  0  0  0  0  2  0  0  0  0  0  0
  180.8310  180.4310  136.4650 C   0  0  0  0  0  0  0  0  0  0  0  0
  181.4510  178.9290  137.1380 S   0  0  0  0  0  0  0  0  0  0  0  0
  187.9830  177.2230  144.7410 C   0  0  0  0  0  3  0  0  0  0  0  0
  188.6040  177.9150  145.5910 O   0  0  0  0  0  0  0  0  0  0  0  0
  185.1660  179.3230  144.2250 N   0  0  0  0  0  2  0  0  0  0  0  0
  185.4410  179.0670  146.8040 C   0  0  0  0  0  3  0  0  0  0  0  0
  185.3110  179.1860  145.6120 C   0  0  0  0  0  0  0  0  0  0  0  0
  189.4070  177.3550  139.1230 N   0  0  0  0  0  2  0  0  0  0  0  0
  188.8690  176.3960  138.1700 C   0  0  0  0  0  2  0  0  0  0  0  0
  189.9130  176.0770  137.1120 C   0  0  0  0  0  2  0  0  0  0  0  0
  193.3130  175.2140  136.7280 N   0  0  0  0  0  0  0  0  0  0  0  0
  191.3440  174.1240  137.3950 N   0  0  0  0  0  2  0  0  0  0  0  0
  193.1930  172.5650  136.2420 S   0  0  0  0  0  0  0  0  0  0  0  0
  192.6240  173.9860  136.8150 C   0  0  0  0  0  0  0  0  0  0  0  0
  192.4360  176.2600  137.2140 C   0  0  0  0  0  2  0  0  0  0  0  0
  191.1830  175.5310  137.7490 C   0  0  1  0  0  3  0  0  0  0  0  0
  194.5320  175.4610  135.9750 C   0  0  0  0  0  2  0  0  0  0  0  0
  196.7730  174.5260  136.6680 C   0  0  0  0  0  0  0  0  0  0  0  0
  196.7690  173.7340  135.6860 O   0  0  0  0  0  0  0  0  0  0  0  0
  195.6780  175.4260  136.8710 N   0  0  0  0  0  2  0  0  0  0  0  0
  197.9080  174.5280  137.6000 C   0  0  0  0  0  0  0  0  0  0  0  0
  198.8300  173.4430  137.6090 N   0  0  0  0  0  1  0  0  0  0  0  0
  198.0750  175.4920  138.3920 O   0  0  0  0  0  0  0  0  0  0  0  0
  1 13  1  0  0  0  0
  2  8  2  0  0  0  0
  3 28  1  1  0  0  0
  4  2  1  6  0  0  0
  4 16  1  0  0  0  0
  5  7  1  0  0  0  0
  5  9  1  0  0  0  0
  6  4  1  0  0  0  0
  6 12  2  0  0  0  0
  7 11  2  0  0  0  0
  9  8  1  0  0  0  0
  9  1  2  0  0  0  0
 10 15  2  0  0  0  0
 11  1  1  0  0  0  0
 12 10  1  0  0  0  0
 13  3  1  0  0  0  0
 14  8  1  6  0  0  0
 14 16  1  0  0  0  0
 14  3  1  0  0  0  0
 15 26  1  0  0  0  0
 16 15  1  6  0  0  0
 17 24  2  0  0  0  0
 18 22  1  0  0  0  0
 19 18  1  0  0  0  0
 20 17  1  0  0  0  0
 20 23  1  0  0  0  0
 21  7  1  1  0  0  0
 22 21  1  0  0  0  0
 23 19  1  0  0  0  0
 24 25  1  0  0  0  0
 24 18  1  0  0  0  0
 25 21  1  0  0  0  0
 26 27  2  0  0  0  0
 28 30  1  0  0  0  0
 30 29  3  0  0  0  0
 31  6  1  0  0  0  0
 32 31  1  0  0  0  0
 33 32  1  0  0  0  0
 34 37  1  0  0  0  0
 34 38  1  0  0  0  0
 35 39  1  0  0  0  0
 36 37  2  0  0  0  0
 37 35  1  0  0  0  0
 38 39  1  0  0  0  0
 39 33  1  6  0  0  0
 40 34  1  0  0  0  0
 40 43  1  0  0  0  0
 41 43  1  0  0  0  0
 41 44  1  0  0  0  0
 42 41  2  0  0  0  0
 44 45  1  0  0  0  0
 44 46  2  0  0  0  0
M  END
>  <MODEL>
5

>  <REMARK>
 VINA RESULT:      -8.2      3.871     10.305
  Name = 
  11 active torsions:
  status: ('A' for Active; 'I' for Inactive)
    1  A    between atoms: C_5  and  N_11
    2  A    between atoms: N_6  and  C_15
    3  A    between atoms: C_9  and  C_40
    4  A    between atoms: C_10  and  N_11
    5  A    between atoms: C_12  and  C_13
    6  A    between atoms: C_15  and  N_41
    7  A    between atoms: C_19  and  C_36
    8  A    between atoms: C_19  and  C_44
    9  A    between atoms: N_20  and  C_22
   10  A    between atoms: N_20  and  C_36
   11  A    between atoms: C_23  and  C_33
                            x       y       z     vdW  Elec       q    Type
                         _______ _______ _______ _____ _____    ______ ____

>  <TORSDO>
F 11

$$$$
=
 OpenBabel11032421033D

 46 52  0  0  1  0  0  0  0  0999 V2000
  186.9040  178.1300  138.2340 C   0  0  0  0  0  0  0  0  0  0  0  0
  189.4320  177.1180  140.6760 N   0  0  0  0  0  0  0  0  0  0  0  0
  188.8150  176.8700  137.0450 C   0  0  1  0  0  3  0  0  0  0  0  0
  190.7160  176.5270  140.2970 C   0  0  2  0  0  3  0  0  0  0  0  0
  186.3180  178.2600  140.6720 S   0  0  0  0  0  0  0  0  0  0  0  0
  191.8930  177.3940  140.6780 C   0  0  0  0  0  0  0  0  0  0  0  0
  185.2360  178.8750  139.5280 C   0  0  0  0  0  0  0  0  0  0  0  0
  188.6990  177.1540  139.6130 C   0  0  0  0  0  0  0  0  0  0  0  0
  187.4070  177.8000  139.4810 C   0  0  0  0  0  0  0  0  0  0  0  0
  192.9390  176.9160  138.4800 C   0  0  0  0  0  3  0  0  0  0  0  0
  185.6950  178.7440  138.2590 N   0  0  0  0  0  0  0  0  0  0  0  0
  192.9460  177.5050  139.8440 C   0  0  0  0  0  3  0  0  0  0  0  0
  187.7270  177.9780  136.9720 C   0  0  0  0  0  2  0  0  0  0  0  0
  189.3960  176.7290  138.4290 C   0  0  2  0  0  3  0  0  0  0  0  0
  191.8250  176.3770  137.9630 C   0  0  0  0  0  0  0  0  0  0  0  0
  190.6180  176.3920  138.8030 C   0  0  1  0  0  3  0  0  0  0  0  0
  180.3440  179.0710  138.6670 C   0  0  0  0  0  3  0  0  0  0  0  0
  182.2280  180.5590  138.7150 N   0  0  0  0  0  0  0  0  0  0  0  0
  181.5680  181.5790  137.9010 C   0  0  0  0  0  2  0  0  0  0  0  0
  179.5660  180.0860  137.8790 C   0  0  0  0  0  2  0  0  0  0  0  0
  183.9270  179.4980  139.8690 C   0  0  1  0  0  3  0  0  0  0  0  0
  183.6150  180.5690  138.9100 N   0  0  0  0  0  2  0  0  0  0  0  0
  180.5010  180.9350  137.0150 C   0  0  0  0  0  2  0  0  0  0  0  0
  181.5700  179.3660  139.1010 C   0  0  0  0  0  0  0  0  0  0  0  0
  182.6100  178.2130  139.9260 S   0  0  0  0  0  0  0  0  0  0  0  0
  191.7970  175.8430  136.5960 C   0  0  0  0  0  3  0  0  0  0  0  0
  191.5330  174.6320  136.3700 O   0  0  0  0  0  0  0  0  0  0  0  0
  188.2540  175.5930  136.6330 N   0  0  0  0  0  2  0  0  0  0  0  0
  185.6800  175.1830  136.6660 C   0  0  0  0  0  3  0  0  0  0  0  0
  186.8700  175.3720  136.6480 C   0  0  0  0  0  0  0  0  0  0  0  0
  191.9390  177.9550  141.9930 N   0  0  0  0  0  2  0  0  0  0  0  0
  191.6840  177.1900  143.2040 C   0  0  0  0  0  2  0  0  0  0  0  0
  190.7810  177.9810  144.1370 C   0  0  0  0  0  2  0  0  0  0  0  0
  187.9700  177.3970  146.1890 N   0  0  0  0  0  0  0  0  0  0  0  0
  190.2960  177.5300  146.4820 N   0  0  0  0  0  2  0  0  0  0  0  0
  188.8210  178.2470  148.6020 S   0  0  0  0  0  0  0  0  0  0  0  0
  189.0260  177.6950  147.0770 C   0  0  0  0  0  0  0  0  0  0  0  0
  188.5440  177.0730  144.8980 C   0  0  0  0  0  2  0  0  0  0  0  0
  190.0730  177.0590  145.1200 C   0  0  1  0  0  3  0  0  0  0  0  0
  186.5620  177.6910  146.4020 C   0  0  0  0  0  2  0  0  0  0  0  0
  184.7000  178.8490  145.1500 C   0  0  0  0  0  0  0  0  0  0  0  0
  184.0480  179.0010  146.2190 O   0  0  0  0  0  0  0  0  0  0  0  0
  185.9760  178.2000  145.1720 N   0  0  0  0  0  2  0  0  0  0  0  0
  184.1500  179.3460  143.8820 C   0  0  0  0  0  0  0  0  0  0  0  0
  182.8100  179.0370  143.5120 N   0  0  0  0  0  1  0  0  0  0  0  0
  184.8570  180.0550  143.1190 O   0  0  0  0  0  0  0  0  0  0  0  0
  1 11  1  0  0  0  0
  1  9  2  0  0  0  0
  3 28  1  1  0  0  0
  3 14  1  0  0  0  0
  4  2  1  6  0  0  0
  4  6  1  0  0  0  0
  6 31  1  0  0  0  0
  7  5  1  0  0  0  0
  8  2  2  0  0  0  0
  9  8  1  0  0  0  0
  9  5  1  0  0  0  0
 10 12  1  0  0  0  0
 11  7  2  0  0  0  0
 12  6  2  0  0  0  0
 13  3  1  0  0  0  0
 13  1  1  0  0  0  0
 14 16  1  0  0  0  0
 14  8  1  6  0  0  0
 15 10  2  0  0  0  0
 16 15  1  6  0  0  0
 16  4  1  0  0  0  0
 17 24  2  0  0  0  0
 18 22  1  0  0  0  0
 18 24  1  0  0  0  0
 19 18  1  0  0  0  0
 20 17  1  0  0  0  0
 21  7  1  6  0  0  0
 21 25  1  0  0  0  0
 22 21  1  0  0  0  0
 23 20  1  0  0  0  0
 23 19  1  0  0  0  0
 24 25  1  0  0  0  0
 26 15  1  0  0  0  0
 27 26  2  0  0  0  0
 28 30  1  0  0  0  0
 30 29  3  0  0  0  0
 31 32  1  0  0  0  0
 32 33  1  0  0  0  0
 34 40  1  0  0  0  0
 34 37  1  0  0  0  0
 35 37  1  0  0  0  0
 37 36  2  0  0  0  0
 38 39  1  0  0  0  0
 38 34  1  0  0  0  0
 39 33  1  6  0  0  0
 39 35  1  0  0  0  0
 41 43  1  0  0  0  0
 41 42  2  0  0  0  0
 43 40  1  0  0  0  0
 44 41  1  0  0  0  0
 45 44  1  0  0  0  0
 46 44  2  0  0  0  0
M  END
>  <MODEL>
6

>  <REMARK>
 VINA RESULT:      -8.0      2.778      9.188
  Name = 
  11 active torsions:
  status: ('A' for Active; 'I' for Inactive)
    1  A    between atoms: C_5  and  N_11
    2  A    between atoms: N_6  and  C_15
    3  A    between atoms: C_9  and  C_40
    4  A    between atoms: C_10  and  N_11
    5  A    between atoms: C_12  and  C_13
    6  A    between atoms: C_15  and  N_41
    7  A    between atoms: C_19  and  C_36
    8  A    between atoms: C_19  and  C_44
    9  A    between atoms: N_20  and  C_22
   10  A    between atoms: N_20  and  C_36
   11  A    between atoms: C_23  and  C_33
                            x       y       z     vdW  Elec       q    Type
                         _______ _______ _______ _____ _____    ______ ____

>  <TORSDO>
F 11

$$$$
=
 OpenBabel11032421033D

 46 52  0  0  1  0  0  0  0  0999 V2000
  183.7180  178.6020  141.3230 C   0  0  0  0  0  0  0  0  0  0  0  0
  187.1870  178.9870  140.2320 N   0  0  0  0  0  0  0  0  0  0  0  0
  185.3130  178.1040  143.2880 C   0  0  1  0  0  3  0  0  0  0  0  0
  188.3310  178.6200  141.0680 C   0  0  2  0  0  3  0  0  0  0  0  0
  184.1520  179.7460  139.1310 S   0  0  0  0  0  0  0  0  0  0  0  0
  189.1440  177.4910  140.4790 C   0  0  0  0  0  0  0  0  0  0  0  0
  182.5600  179.4050  139.5840 C   0  0  0  0  0  0  0  0  0  0  0  0
  186.1360  178.9350  140.9810 C   0  0  0  0  0  0  0  0  0  0  0  0
  184.7600  179.0680  140.5400 C   0  0  0  0  0  0  0  0  0  0  0  0
  189.3200  176.4630  142.7300 C   0  0  0  0  0  3  0  0  0  0  0  0
  182.4860  178.7760  140.7820 N   0  0  0  0  0  0  0  0  0  0  0  0
  189.6510  176.5350  141.2830 C   0  0  0  0  0  3  0  0  0  0  0  0
  183.9590  177.8020  142.5860 C   0  0  0  0  0  2  0  0  0  0  0  0
  186.4050  178.4390  142.3030 C   0  0  2  0  0  3  0  0  0  0  0  0
  188.3830  177.2570  143.2670 C   0  0  0  0  0  0  0  0  0  0  0  0
  187.7030  178.2000  142.3670 C   0  0  1  0  0  3  0  0  0  0  0  0
  180.7950  180.7710  135.1420 C   0  0  0  0  0  3  0  0  0  0  0  0
  180.7070  181.5150  137.4230 N   0  0  0  0  0  0  0  0  0  0  0  0
  180.3190  182.8790  137.0670 C   0  0  0  0  0  2  0  0  0  0  0  0
  180.3400  182.1280  134.6850 C   0  0  0  0  0  2  0  0  0  0  0  0
  181.3670  179.7470  138.7590 C   0  0  1  0  0  3  0  0  0  0  0  0
  181.2000  181.2070  138.6980 N   0  0  0  0  0  2  0  0  0  0  0  0
  180.8080  183.2130  135.6580 C   0  0  0  0  0  2  0  0  0  0  0  0
  180.8850  180.5060  136.4450 C   0  0  0  0  0  0  0  0  0  0  0  0
  181.5180  178.9950  137.0850 S   0  0  0  0  0  0  0  0  0  0  0  0
  188.0130  177.1530  144.6840 C   0  0  0  0  0  3  0  0  0  0  0  0
  188.5240  177.9090  145.5530 O   0  0  0  0  0  0  0  0  0  0  0  0
  185.1560  179.2100  144.2180 N   0  0  0  0  0  2  0  0  0  0  0  0
  185.3010  178.8330  146.7930 C   0  0  0  0  0  3  0  0  0  0  0  0
  185.2320  179.0090  145.6030 C   0  0  0  0  0  0  0  0  0  0  0  0
  189.4990  177.5450  139.0940 N   0  0  0  0  0  2  0  0  0  0  0  0
  189.1020  176.5390  138.1210 C   0  0  0  0  0  2  0  0  0  0  0  0
  187.9450  177.0580  137.2820 C   0  0  0  0  0  2  0  0  0  0  0  0
  185.9150  174.4500  136.0420 N   0  0  0  0  0  0  0  0  0  0  0  0
  188.2060  174.7910  136.4250 N   0  0  0  0  0  2  0  0  0  0  0  0
  187.3670  172.2530  136.6200 S   0  0  0  0  0  0  0  0  0  0  0  0
  187.1580  173.8500  136.3350 C   0  0  0  0  0  0  0  0  0  0  0  0
  186.1090  175.8860  135.9920 C   0  0  0  0  0  2  0  0  0  0  0  0
  187.6310  176.1010  136.1390 C   0  0  1  0  0  3  0  0  0  0  0  0
  184.6130  173.8080  136.1190 C   0  0  0  0  0  2  0  0  0  0  0  0
  182.7160  175.0410  137.2420 C   0  0  0  0  0  0  0  0  0  0  0  0
  182.2310  175.3570  136.1210 O   0  0  0  0  0  0  0  0  0  0  0  0
  183.9130  174.2590  137.3120 N   0  0  0  0  0  2  0  0  0  0  0  0
  182.0460  175.4720  138.4750 C   0  0  0  0  0  0  0  0  0  0  0  0
  180.6270  175.5740  138.5220 N   0  0  0  0  0  1  0  0  0  0  0  0
  182.7230  175.7460  139.5010 O   0  0  0  0  0  0  0  0  0  0  0  0
  1 13  1  0  0  0  0
  2  8  2  0  0  0  0
  3 28  1  1  0  0  0
  4  2  1  6  0  0  0
  4 16  1  0  0  0  0
  5  7  1  0  0  0  0
  5  9  1  0  0  0  0
  6  4  1  0  0  0  0
  6 12  2  0  0  0  0
  7 11  2  0  0  0  0
  9  8  1  0  0  0  0
  9  1  2  0  0  0  0
 10 15  2  0  0  0  0
 11  1  1  0  0  0  0
 12 10  1  0  0  0  0
 13  3  1  0  0  0  0
 14  8  1  6  0  0  0
 14 16  1  0  0  0  0
 14  3  1  0  0  0  0
 15 26  1  0  0  0  0
 16 15  1  6  0  0  0
 17 24  2  0  0  0  0
 18 22  1  0  0  0  0
 19 18  1  0  0  0  0
 20 17  1  0  0  0  0
 20 23  1  0  0  0  0
 21  7  1  1  0  0  0
 22 21  1  0  0  0  0
 23 19  1  0  0  0  0
 24 25  1  0  0  0  0
 24 18  1  0  0  0  0
 25 21  1  0  0  0  0
 26 27  2  0  0  0  0
 28 30  1  0  0  0  0
 30 29  3  0  0  0  0
 31  6  1  0  0  0  0
 32 31  1  0  0  0  0
 33 32  1  0  0  0  0
 34 40  1  0  0  0  0
 34 37  1  0  0  0  0
 37 35  1  0  0  0  0
 37 36  2  0  0  0  0
 38 34  1  0  0  0  0
 38 39  1  0  0  0  0
 39 35  1  0  0  0  0
 39 33  1  1  0  0  0
 40 43  1  0  0  0  0
 41 43  1  0  0  0  0
 41 44  1  0  0  0  0
 42 41  2  0  0  0  0
 44 45  1  0  0  0  0
 44 46  2  0  0  0  0
M  END
>  <MODEL>
7

>  <REMARK>
 VINA RESULT:      -8.0      3.405      8.413
  Name = 
  11 active torsions:
  status: ('A' for Active; 'I' for Inactive)
    1  A    between atoms: C_5  and  N_11
    2  A    between atoms: N_6  and  C_15
    3  A    between atoms: C_9  and  C_40
    4  A    between atoms: C_10  and  N_11
    5  A    between atoms: C_12  and  C_13
    6  A    between atoms: C_15  and  N_41
    7  A    between atoms: C_19  and  C_36
    8  A    between atoms: C_19  and  C_44
    9  A    between atoms: N_20  and  C_22
   10  A    between atoms: N_20  and  C_36
   11  A    between atoms: C_23  and  C_33
                            x       y       z     vdW  Elec       q    Type
                         _______ _______ _______ _____ _____    ______ ____

>  <TORSDO>
F 11

$$$$
=
 OpenBabel11032421033D

 46 52  0  0  1  0  0  0  0  0999 V2000
  186.9640  175.4470  136.4620 C   0  0  0  0  0  0  0  0  0  0  0  0
  186.0830  178.4810  138.3040 N   0  0  0  0  0  0  0  0  0  0  0  0
  184.4120  175.5380  136.8280 C   0  0  1  0  0  3  0  0  0  0  0  0
  184.7340  178.7450  138.8080 C   0  0  2  0  0  3  0  0  0  0  0  0
  188.7000  177.2480  136.6820 S   0  0  0  0  0  0  0  0  0  0  0  0
  184.6780  178.8100  140.3170 C   0  0  0  0  0  0  0  0  0  0  0  0
  189.1270  175.7700  135.9820 C   0  0  0  0  0  0  0  0  0  0  0  0
  186.0050  177.4530  137.5270 C   0  0  0  0  0  0  0  0  0  0  0  0
  187.1190  176.7410  136.9290 C   0  0  0  0  0  0  0  0  0  0  0  0
  182.5820  177.4840  140.2820 C   0  0  0  0  0  3  0  0  0  0  0  0
  188.0910  174.8970  135.9440 N   0  0  0  0  0  0  0  0  0  0  0  0
  183.6300  178.2750  140.9760 C   0  0  0  0  0  3  0  0  0  0  0  0
  185.6880  174.6620  136.6830 C   0  0  0  0  0  2  0  0  0  0  0  0
  184.6970  176.8560  137.5040 C   0  0  2  0  0  3  0  0  0  0  0  0
  182.7110  177.1410  138.9920 C   0  0  0  0  0  0  0  0  0  0  0  0
  183.9300  177.5830  138.2970 C   0  0  1  0  0  3  0  0  0  0  0  0
  193.2250  172.9930  136.4330 C   0  0  0  0  0  3  0  0  0  0  0  0
  192.6200  175.3160  136.3570 N   0  0  0  0  0  0  0  0  0  0  0  0
  193.8600  175.7610  136.9920 C   0  0  0  0  0  2  0  0  0  0  0  0
  194.5520  173.3620  137.0340 C   0  0  0  0  0  2  0  0  0  0  0  0
  190.4890  175.4530  135.4700 C   0  0  1  0  0  3  0  0  0  0  0  0
  191.5030  176.1570  136.2700 N   0  0  0  0  0  2  0  0  0  0  0  0
  194.4350  174.6440  137.8620 C   0  0  0  0  0  2  0  0  0  0  0  0
  192.3750  173.9520  136.0640 C   0  0  0  0  0  0  0  0  0  0  0  0
  190.7540  173.6310  135.4630 S   0  0  0  0  0  0  0  0  0  0  0  0
  181.7050  176.3130  138.3160 C   0  0  0  0  0  3  0  0  0  0  0  0
  180.8510  176.8210  137.5400 O   0  0  0  0  0  0  0  0  0  0  0  0
  183.8320  175.7910  135.5190 N   0  0  0  0  0  2  0  0  0  0  0  0
  181.7110  174.5040  134.7200 C   0  0  0  0  0  3  0  0  0  0  0  0
  182.6910  175.1010  135.0880 C   0  0  0  0  0  0  0  0  0  0  0  0
  185.6600  179.5850  141.0110 N   0  0  0  0  0  2  0  0  0  0  0  0
  186.7450  179.0020  141.7850 C   0  0  0  0  0  2  0  0  0  0  0  0
  187.7410  178.3270  140.8540 C   0  0  0  0  0  2  0  0  0  0  0  0
  188.9800  177.1680  143.9490 N   0  0  0  0  0  0  0  0  0  0  0  0
  189.8920  177.8460  141.8950 N   0  0  0  0  0  2  0  0  0  0  0  0
  191.4410  178.2640  144.0420 S   0  0  0  0  0  0  0  0  0  0  0  0
  190.0930  177.7290  143.2880 C   0  0  0  0  0  0  0  0  0  0  0  0
  187.9360  176.9480  142.9680 C   0  0  0  0  0  2  0  0  0  0  0  0
  188.5730  177.2950  141.6050 C   0  0  1  0  0  3  0  0  0  0  0  0
  188.7640  177.1340  145.3870 C   0  0  0  0  0  2  0  0  0  0  0  0
  187.2730  178.3140  147.0480 C   0  0  0  0  0  0  0  0  0  0  0  0
  188.0990  178.0960  147.9760 O   0  0  0  0  0  0  0  0  0  0  0  0
  187.5480  177.8590  145.7180 N   0  0  0  0  0  2  0  0  0  0  0  0
  186.0300  179.0430  147.3330 C   0  0  0  0  0  0  0  0  0  0  0  0
  184.7880  178.5660  146.8270 N   0  0  0  0  0  1  0  0  0  0  0  0
  186.0560  180.0890  148.0330 O   0  0  0  0  0  0  0  0  0  0  0  0
  1 13  1  0  0  0  0
  1  9  2  0  0  0  0
  3 28  1  6  0  0  0
  3 14  1  0  0  0  0
  4  2  1  1  0  0  0
  4  6  1  0  0  0  0
  5  9  1  0  0  0  0
  6 12  2  0  0  0  0
  6 31  1  0  0  0  0
  7  5  1  0  0  0  0
  8  2  2  0  0  0  0
  9  8  1  0  0  0  0
 10 12  1  0  0  0  0
 11  7  2  0  0  0  0
 11  1  1  0  0  0  0
 13  3  1  0  0  0  0
 14  8  1  1  0  0  0
 14 16  1  0  0  0  0
 15 10  2  0  0  0  0
 16  4  1  0  0  0  0
 16 15  1  1  0  0  0
 17 20  1  0  0  0  0
 18 19  1  0  0  0  0
 19 23  1  0  0  0  0
 20 23  1  0  0  0  0
 21  7  1  1  0  0  0
 21 22  1  0  0  0  0
 22 18  1  0  0  0  0
 24 18  1  0  0  0  0
 24 17  2  0  0  0  0
 25 21  1  0  0  0  0
 25 24  1  0  0  0  0
 26 15  1  0  0  0  0
 27 26  2  0  0  0  0
 29 30  3  0  0  0  0
 30 28  1  0  0  0  0
 31 32  1  0  0  0  0
 33 32  1  0  0  0  0
 34 40  1  0  0  0  0
 35 37  1  0  0  0  0
 37 34  1  0  0  0  0
 37 36  2  0  0  0  0
 38 34  1  0  0  0  0
 39 33  1  1  0  0  0
 39 35  1  0  0  0  0
 39 38  1  0  0  0  0
 40 43  1  0  0  0  0
 41 44  1  0  0  0  0
 41 42  2  0  0  0  0
 43 41  1  0  0  0  0
 44 46  2  0  0  0  0
 45 44  1  0  0  0  0
M  END
>  <MODEL>
8

>  <REMARK>
 VINA RESULT:      -7.7      3.085      8.331
  Name = 
  11 active torsions:
  status: ('A' for Active; 'I' for Inactive)
    1  A    between atoms: C_5  and  N_11
    2  A    between atoms: N_6  and  C_15
    3  A    between atoms: C_9  and  C_40
    4  A    between atoms: C_10  and  N_11
    5  A    between atoms: C_12  and  C_13
    6  A    between atoms: C_15  and  N_41
    7  A    between atoms: C_19  and  C_36
    8  A    between atoms: C_19  and  C_44
    9  A    between atoms: N_20  and  C_22
   10  A    between atoms: N_20  and  C_36
   11  A    between atoms: C_23  and  C_33
                            x       y       z     vdW  Elec       q    Type
                         _______ _______ _______ _____ _____    ______ ____

>  <TORSDO>
F 11

$$$$
=
 OpenBabel11032421033D

 46 52  0  0  1  0  0  0  0  0999 V2000
  185.8380  177.8530  143.6530 C   0  0  0  0  0  0  0  0  0  0  0  0
  189.1870  178.4050  142.2920 N   0  0  0  0  0  0  0  0  0  0  0  0
  187.6060  177.4500  145.4880 C   0  0  1  0  0  3  0  0  0  0  0  0
  190.4110  178.1020  143.0360 C   0  0  2  0  0  3  0  0  0  0  0  0
  186.0410  179.0020  141.4300 S   0  0  0  0  0  0  0  0  0  0  0  0
  191.2320  177.0100  142.3890 C   0  0  0  0  0  0  0  0  0  0  0  0
  184.5090  178.5850  142.0070 C   0  0  0  0  0  0  0  0  0  0  0  0
  188.2020  178.3050  143.1210 C   0  0  0  0  0  0  0  0  0  0  0  0
  186.7910  178.3660  142.7890 C   0  0  0  0  0  0  0  0  0  0  0  0
  191.6350  176.0090  144.6220 C   0  0  0  0  0  3  0  0  0  0  0  0
  184.5610  177.9620  143.2100 N   0  0  0  0  0  0  0  0  0  0  0  0
  191.8480  176.0870  143.1540 C   0  0  0  0  0  3  0  0  0  0  0  0
  186.2170  177.0760  144.8960 C   0  0  0  0  0  2  0  0  0  0  0  0
  188.5990  177.8330  144.4200 C   0  0  2  0  0  3  0  0  0  0  0  0
  190.7040  176.7590  145.2290 C   0  0  0  0  0  0  0  0  0  0  0  0
  189.9080  177.6600  144.3820 C   0  0  1  0  0  3  0  0  0  0  0  0
  179.6410  177.6660  141.5840 C   0  0  0  0  0  3  0  0  0  0  0  0
  181.6140  177.6050  140.2150 N   0  0  0  0  0  0  0  0  0  0  0  0
  181.0220  176.7020  139.2300 C   0  0  0  0  0  2  0  0  0  0  0  0
  178.9310  176.7880  140.5930 C   0  0  0  0  0  2  0  0  0  0  0  0
  183.2390  178.8600  141.2780 C   0  0  1  0  0  3  0  0  0  0  0  0
  182.9980  177.8110  140.2750 N   0  0  0  0  0  2  0  0  0  0  0  0
  179.9210  175.8640  139.8790 C   0  0  0  0  0  2  0  0  0  0  0  0
  180.8820  178.0840  141.3290 C   0  0  0  0  0  0  0  0  0  0  0  0
  181.8450  179.0130  142.4700 S   0  0  0  0  0  0  0  0  0  0  0  0
  190.4520  176.6460  146.6710 C   0  0  0  0  0  3  0  0  0  0  0  0
  191.1970  177.2130  147.5140 O   0  0  0  0  0  0  0  0  0  0  0  0
  187.4660  178.5540  146.4240 N   0  0  0  0  0  2  0  0  0  0  0  0
  187.9850  178.2470  148.9600 C   0  0  0  0  0  3  0  0  0  0  0  0
  187.7430  178.3870  147.7870 C   0  0  0  0  0  0  0  0  0  0  0  0
  191.4730  177.0730  140.9800 N   0  0  0  0  0  2  0  0  0  0  0  0
  190.4920  176.6900  139.9770 C   0  0  0  0  0  2  0  0  0  0  0  0
  191.1010  176.7980  138.5880 C   0  0  0  0  0  2  0  0  0  0  0  0
  193.6890  175.5340  136.5490 N   0  0  0  0  0  0  0  0  0  0  0  0
  191.7140  174.7010  137.5070 N   0  0  0  0  0  2  0  0  0  0  0  0
  192.4580  173.5470  135.2060 S   0  0  0  0  0  0  0  0  0  0  0  0
  192.6410  174.5950  136.4470 C   0  0  0  0  0  0  0  0  0  0  0  0
  193.4350  176.3710  137.7050 C   0  0  0  0  0  2  0  0  0  0  0  0
  192.1950  175.7570  138.3920 C   0  0  1  0  0  3  0  0  0  0  0  0
  194.6600  175.8510  135.5150 C   0  0  0  0  0  2  0  0  0  0  0  0
  196.6800  174.7540  136.5610 C   0  0  0  0  0  0  0  0  0  0  0  0
  196.1350  173.6190  136.4700 O   0  0  0  0  0  0  0  0  0  0  0  0
  195.9920  175.9200  136.0950 N   0  0  0  0  0  2  0  0  0  0  0  0
  198.0240  174.8750  137.1400 C   0  0  0  0  0  0  0  0  0  0  0  0
  199.1610  174.4220  136.4120 N   0  0  0  0  0  1  0  0  0  0  0  0
  198.1790  175.3870  138.2790 O   0  0  0  0  0  0  0  0  0  0  0  0
  1 13  1  0  0  0  0
  2  8  2  0  0  0  0
  3 28  1  1  0  0  0
  4  2  1  6  0  0  0
  4 16  1  0  0  0  0
  5  7  1  0  0  0  0
  5  9  1  0  0  0  0
  6  4  1  0  0  0  0
  6 12  2  0  0  0  0
  7 11  2  0  0  0  0
  9  8  1  0  0  0  0
  9  1  2  0  0  0  0
 10 15  2  0  0  0  0
 11  1  1  0  0  0  0
 12 10  1  0  0  0  0
 13  3  1  0  0  0  0
 14  8  1  6  0  0  0
 14  3  1  0  0  0  0
 15 26  1  0  0  0  0
 16 14  1  0  0  0  0
 16 15  1  6  0  0  0
 18 22  1  0  0  0  0
 18 24  1  0  0  0  0
 19 23  1  0  0  0  0
 19 18  1  0  0  0  0
 20 17  1  0  0  0  0
 21  7  1  1  0  0  0
 21 25  1  0  0  0  0
 22 21  1  0  0  0  0
 23 20  1  0  0  0  0
 24 17  2  0  0  0  0
 24 25  1  0  0  0  0
 26 27  2  0  0  0  0
 28 30  1  0  0  0  0
 30 29  3  0  0  0  0
 31  6  1  0  0  0  0
 32 31  1  0  0  0  0
 33 32  1  0  0  0  0
 34 38  1  0  0  0  0
 35 39  1  0  0  0  0
 36 37  2  0  0  0  0
 37 34  1  0  0  0  0
 37 35  1  0  0  0  0
 38 39  1  0  0  0  0
 39 33  1  6  0  0  0
 40 43  1  0  0  0  0
 40 34  1  0  0  0  0
 41 44  1  0  0  0  0
 42 41  2  0  0  0  0
 43 41  1  0  0  0  0
 44 46  2  0  0  0  0
 45 44  1  0  0  0  0
M  END
>  <MODEL>
9

>  <REMARK>
 VINA RESULT:      -7.6      3.430      9.743
  Name = 
  11 active torsions:
  status: ('A' for Active; 'I' for Inactive)
    1  A    between atoms: C_5  and  N_11
    2  A    between atoms: N_6  and  C_15
    3  A    between atoms: C_9  and  C_40
    4  A    between atoms: C_10  and  N_11
    5  A    between atoms: C_12  and  C_13
    6  A    between atoms: C_15  and  N_41
    7  A    between atoms: C_19  and  C_36
    8  A    between atoms: C_19  and  C_44
    9  A    between atoms: N_20  and  C_22
   10  A    between atoms: N_20  and  C_36
   11  A    between atoms: C_23  and  C_33
                            x       y       z     vdW  Elec       q    Type
                         _______ _______ _______ _____ _____    ______ ____

>  <TORSDO>
F 11

$$$$
