=
 OpenBabel11042412563D

 42 48  0  0  1  0  0  0  0  0999 V2000
  186.6430  179.0960  140.7930 N   0  0  2  0  0  0  0  0  0  0  0  0
  188.1170  177.9940  139.3680 C   0  0  1  0  0  3  0  0  0  0  0  0
  188.6280  178.0590  140.8040 C   0  0  0  0  0  2  0  0  0  0  0  0
  187.3010  177.9520  141.4880 C   0  0  2  0  0  0  0  0  0  0  0  0
  186.2100  178.6720  142.1200 C   0  0  1  0  0  0  0  0  0  0  0  0
  187.3940  178.1990  142.9680 C   0  0  1  0  0  3  0  0  0  0  0  0
  186.6420  178.3710  139.5380 C   0  0  0  0  0  2  0  0  0  0  0  0
  188.8020  179.0000  138.5610 N   0  0  0  0  0  2  0  0  0  0  0  0
  190.3910  177.2490  137.8170 C   0  0  0  0  0  2  0  0  0  0  0  0
  189.1000  176.1700  136.0530 C   0  0  0  0  0  2  0  0  0  0  0  0
  188.2630  177.7810  136.1650 S   0  0  0  0  0  0  0  0  0  0  0  0
  189.4610  178.3790  137.4080 C   0  0  1  0  0  3  0  0  0  0  0  0
  190.4960  176.3210  136.6270 C   0  0  2  0  0  3  0  0  0  0  0  0
  190.0780  174.0340  137.1400 F   0  0  0  0  0  0  0  0  0  0  0  0
  191.9930  174.5390  136.0630 F   0  0  0  0  0  0  0  0  0  0  0  0
  191.0900  174.9690  137.0190 C   0  0  0  0  0  0  0  0  0  0  0  0
  191.7380  175.0810  138.2360 F   0  0  0  0  0  0  0  0  0  0  0  0
  185.0530  177.7810  142.0780 N   0  0  0  0  0  2  0  0  0  0  0  0
  181.8720  179.1950  143.4550 C   0  0  0  0  0  3  0  0  0  0  0  0
  181.0470  179.1330  142.3280 C   0  0  0  0  0  0  0  0  0  0  0  0
  182.8790  178.1870  141.0500 C   0  0  0  0  0  3  0  0  0  0  0  0
  180.7510  178.5610  139.9850 O   0  0  0  0  0  1  0  0  0  0  0  0
  183.1950  178.7480  143.3820 C   0  0  0  0  0  3  0  0  0  0  0  0
  183.7030  178.2430  142.1770 C   0  0  0  0  0  0  0  0  0  0  0  0
  181.5540  178.6300  141.1190 C   0  0  0  0  0  0  0  0  0  0  0  0
  179.6470  179.6370  142.4200 C   0  0  0  0  0  2  0  0  0  0  0  0
  179.6340  181.0840  142.2930 N   0  0  0  0  0  2  0  0  0  0  0  0
  178.9310  181.3870  141.0600 C   0  0  0  0  0  1  0  0  0  0  0  0
  187.1270  176.9030  143.7170 C   0  0  0  0  0  2  0  0  0  0  0  0
  186.8330  177.2110  145.1710 C   0  0  0  0  0  2  0  0  0  0  0  0
  188.3740  177.2490  147.0720 C   0  0  1  0  0  3  0  0  0  0  0  0
  187.7880  178.5980  147.0840 N   0  0  0  0  0  0  0  0  0  0  0  0
  188.0500  177.8840  145.8030 C   0  0  2  0  0  3  0  0  0  0  0  0
  185.7310  179.6440  147.4210 O   0  0  0  0  0  1  0  0  0  0  0  0
  186.4250  178.4470  147.5840 C   0  0  0  0  0  2  0  0  0  0  0  0
  189.8650  177.3510  147.3230 C   0  0  0  0  0  2  0  0  0  0  0  0
  190.6020  176.4230  146.3810 C   0  0  1  0  0  3  0  0  0  0  0  0
  191.3670  177.2210  145.3960 C   0  0  1  0  0  3  0  0  0  0  0  0
  191.9850  176.6370  146.5180 O   0  0  0  0  0  0  0  0  0  0  0  0
  191.6570  176.4040  144.1820 C   0  0  0  0  0  0  0  0  0  0  0  0
  191.4790  176.9660  142.8850 N   0  0  0  0  0  1  0  0  0  0  0  0
  192.0930  175.2290  144.2980 O   0  0  0  0  0  0  0  0  0  0  0  0
  1  7  1  6  0  0  0
  1  4  1  0  0  0  0
  1  5  1  0  0  0  0
  2  8  1  6  0  0  0
  2  7  1  0  0  0  0
  2  3  1  0  0  0  0
  4  3  1  6  0  0  0
  4  5  1  0  0  0  0
  4  6  1  0  0  0  0
  5 18  1  1  0  0  0
  5  6  1  0  0  0  0
  6 29  1  1  0  0  0
 10 11  1  0  0  0  0
 10 13  1  0  0  0  0
 11 12  1  0  0  0  0
 12  9  1  0  0  0  0
 12  8  1  1  0  0  0
 13 16  1  1  0  0  0
 13  9  1  0  0  0  0
 15 16  1  0  0  0  0
 16 14  1  0  0  0  0
 16 17  1  0  0  0  0
 18 24  1  0  0  0  0
 20 26  1  0  0  0  0
 20 19  2  0  0  0  0
 21 25  2  0  0  0  0
 21 24  1  0  0  0  0
 22 25  1  0  0  0  0
 23 19  1  0  0  0  0
 24 23  2  0  0  0  0
 25 20  1  0  0  0  0
 27 26  1  0  0  0  0
 28 27  1  0  0  0  0
 29 30  1  0  0  0  0
 31 32  1  0  0  0  0
 31 36  1  6  0  0  0
 32 35  1  0  0  0  0
 33 30  1  1  0  0  0
 33 31  1  0  0  0  0
 33 32  1  0  0  0  0
 34 35  1  0  0  0  0
 37 39  1  0  0  0  0
 37 36  1  1  0  0  0
 38 40  1  6  0  0  0
 38 37  1  0  0  0  0
 38 39  1  0  0  0  0
 40 42  2  0  0  0  0
 41 40  1  0  0  0  0
M  END
>  <MODEL>
1

>  <REMARK>
 VINA RESULT:      -7.9      0.000      0.000
  Name = 
  14 active torsions:
  status: ('A' for Active; 'I' for Inactive)
    1  A    between atoms: C_1  and  C_24
    2  A    between atoms: C_5  and  C_8
    3  A    between atoms: C_5  and  N_23
    4  A    between atoms: C_10  and  C_25
    5  A    between atoms: C_12  and  N_36
    6  A    between atoms: C_19  and  C_27
    7  A    between atoms: C_19  and  C_41
    8  A    between atoms: C_21  and  C_25
    9  A    between atoms: C_22  and  N_36
   10  A    between atoms: N_26  and  C_30
   11  A    between atoms: C_31  and  C_34
   12  A    between atoms: C_32  and  N_40
   13  A    between atoms: C_33  and  N_40
   14  A    between atoms: C_37  and  C_41
                            x       y       z     vdW  Elec       q    Type
                         _______ _______ _______ _____ _____    ______ ____

>  <TORSDO>
F 14

$$$$
=
 OpenBabel11042412563D

 42 48  0  0  1  0  0  0  0  0999 V2000
  188.5630  177.1670  141.8830 N   0  0  2  0  0  0  0  0  0  0  0  0
  190.5180  177.8950  142.9160 C   0  0  1  0  0  3  0  0  0  0  0  0
  190.7340  177.5080  141.4560 C   0  0  0  0  0  2  0  0  0  0  0  0
  189.4040  177.9550  140.9370 C   0  0  2  0  0  0  0  0  0  0  0  0
  188.0570  177.5530  140.5710 C   0  0  1  0  0  0  0  0  0  0  0  0
  189.1660  177.5260  139.5160 C   0  0  1  0  0  3  0  0  0  0  0  0
  188.9900  177.9910  142.9960 C   0  0  0  0  0  2  0  0  0  0  0  0
  190.9980  176.8210  143.7810 N   0  0  0  0  0  2  0  0  0  0  0  0
  189.8050  177.7140  145.7610 C   0  0  0  0  0  2  0  0  0  0  0  0
  190.6540  176.2490  147.5140 C   0  0  0  0  0  2  0  0  0  0  0  0
  191.9340  176.0490  146.2380 S   0  0  0  0  0  0  0  0  0  0  0  0
  191.1350  177.2900  145.1620 C   0  0  1  0  0  3  0  0  0  0  0  0
  189.9340  177.5600  147.2600 C   0  0  2  0  0  3  0  0  0  0  0  0
  188.6830  178.2180  149.1760 F   0  0  0  0  0  0  0  0  0  0  0  0
  187.6500  178.2760  147.1730 F   0  0  0  0  0  0  0  0  0  0  0  0
  188.5700  177.5920  147.9480 C   0  0  0  0  0  0  0  0  0  0  0  0
  188.1190  176.3000  148.1500 F   0  0  0  0  0  0  0  0  0  0  0  0
  187.2420  178.7660  140.6150 N   0  0  0  0  0  2  0  0  0  0  0  0
  184.1400  178.7610  142.7100 C   0  0  0  0  0  3  0  0  0  0  0  0
  183.1530  178.7820  141.7200 C   0  0  0  0  0  0  0  0  0  0  0  0
  184.8790  178.7990  140.0150 C   0  0  0  0  0  3  0  0  0  0  0  0
  182.5600  178.8270  139.3650 O   0  0  0  0  0  1  0  0  0  0  0  0
  185.4920  178.7530  142.3550 C   0  0  0  0  0  3  0  0  0  0  0  0
  185.8660  178.7720  141.0040 C   0  0  0  0  0  0  0  0  0  0  0  0
  183.5250  178.8050  140.3660 C   0  0  0  0  0  0  0  0  0  0  0  0
  181.7180  178.8140  142.1210 C   0  0  0  0  0  2  0  0  0  0  0  0
  181.6110  178.8360  143.5700 N   0  0  0  0  0  2  0  0  0  0  0  0
  180.2080  178.6430  143.8870 C   0  0  0  0  0  1  0  0  0  0  0  0
  189.1730  178.7460  138.6090 C   0  0  0  0  0  2  0  0  0  0  0  0
  189.0880  178.3010  137.1630 C   0  0  0  0  0  2  0  0  0  0  0  0
  189.7920  176.4080  135.7800 C   0  0  1  0  0  3  0  0  0  0  0  0
  188.3930  176.0880  136.1060 N   0  0  0  0  0  0  0  0  0  0  0  0
  189.2720  176.7870  137.0860 C   0  0  2  0  0  3  0  0  0  0  0  0
  186.2290  176.6230  135.4220 O   0  0  0  0  0  1  0  0  0  0  0  0
  187.5700  176.9830  135.2990 C   0  0  0  0  0  2  0  0  0  0  0  0
  190.6340  175.1560  135.9130 C   0  0  0  0  0  2  0  0  0  0  0  0
  192.0750  175.5390  136.1770 C   0  0  1  0  0  3  0  0  0  0  0  0
  192.5410  174.8880  137.4240 C   0  0  1  0  0  3  0  0  0  0  0  0
  192.8690  174.3800  136.1520 O   0  0  0  0  0  0  0  0  0  0  0  0
  193.7100  175.6250  137.9850 C   0  0  0  0  0  0  0  0  0  0  0  0
  193.5040  176.7690  138.8090 N   0  0  0  0  0  1  0  0  0  0  0  0
  194.8820  175.2190  137.7630 O   0  0  0  0  0  0  0  0  0  0  0  0
  1  7  1  1  0  0  0
  2  7  1  0  0  0  0
  2  8  1  1  0  0  0
  3  2  1  0  0  0  0
  4  3  1  1  0  0  0
  4  1  1  0  0  0  0
  5 18  1  6  0  0  0
  5  4  1  0  0  0  0
  5  1  1  0  0  0  0
  6 29  1  6  0  0  0
  6  5  1  0  0  0  0
  6  4  1  0  0  0  0
  9 13  1  0  0  0  0
 11 10  1  0  0  0  0
 12  8  1  6  0  0  0
 12  9  1  0  0  0  0
 12 11  1  0  0  0  0
 13 10  1  0  0  0  0
 13 16  1  1  0  0  0
 15 16  1  0  0  0  0
 16 17  1  0  0  0  0
 16 14  1  0  0  0  0
 18 24  1  0  0  0  0
 20 26  1  0  0  0  0
 20 19  2  0  0  0  0
 21 25  2  0  0  0  0
 21 24  1  0  0  0  0
 22 25  1  0  0  0  0
 23 19  1  0  0  0  0
 24 23  2  0  0  0  0
 25 20  1  0  0  0  0
 26 27  1  0  0  0  0
 27 28  1  0  0  0  0
 30 29  1  0  0  0  0
 31 36  1  1  0  0  0
 31 32  1  0  0  0  0
 31 33  1  0  0  0  0
 32 33  1  0  0  0  0
 33 30  1  6  0  0  0
 35 34  1  0  0  0  0
 35 32  1  0  0  0  0
 37 36  1  1  0  0  0
 37 38  1  0  0  0  0
 38 40  1  6  0  0  0
 39 37  1  0  0  0  0
 39 38  1  0  0  0  0
 40 41  1  0  0  0  0
 42 40  2  0  0  0  0
M  END
>  <MODEL>
2

>  <REMARK>
 VINA RESULT:      -7.8      4.477      7.778
  Name = 
  14 active torsions:
  status: ('A' for Active; 'I' for Inactive)
    1  A    between atoms: C_1  and  C_24
    2  A    between atoms: C_5  and  C_8
    3  A    between atoms: C_5  and  N_23
    4  A    between atoms: C_10  and  C_25
    5  A    between atoms: C_12  and  N_36
    6  A    between atoms: C_19  and  C_27
    7  A    between atoms: C_19  and  C_41
    8  A    between atoms: C_21  and  C_25
    9  A    between atoms: C_22  and  N_36
   10  A    between atoms: N_26  and  C_30
   11  A    between atoms: C_31  and  C_34
   12  A    between atoms: C_32  and  N_40
   13  A    between atoms: C_33  and  N_40
   14  A    between atoms: C_37  and  C_41
                            x       y       z     vdW  Elec       q    Type
                         _______ _______ _______ _____ _____    ______ ____

>  <TORSDO>
F 14

$$$$
=
 OpenBabel11042412563D

 42 48  0  0  1  0  0  0  0  0999 V2000
  187.0390  179.0480  140.9160 N   0  0  2  0  0  0  0  0  0  0  0  0
  185.3130  178.5640  139.4320 C   0  0  1  0  0  3  0  0  0  0  0  0
  186.6780  178.6030  138.7520 C   0  0  0  0  0  2  0  0  0  0  0  0
  187.4790  178.0580  139.8910 C   0  0  2  0  0  0  0  0  0  0  0  0
  188.3280  178.3730  141.0270 C   0  0  1  0  0  0  0  0  0  0  0  0
  188.9600  178.1500  139.6500 C   0  0  1  0  0  3  0  0  0  0  0  0
  185.6980  178.5000  140.9130 C   0  0  0  0  0  2  0  0  0  0  0  0
  184.5950  179.8050  139.1550 N   0  0  0  0  0  2  0  0  0  0  0  0
  182.3920  180.7890  138.5850 C   0  0  0  0  0  2  0  0  0  0  0  0
  181.5180  179.1100  137.0490 C   0  0  0  0  0  2  0  0  0  0  0  0
  182.7810  178.1500  137.9370 S   0  0  0  0  0  0  0  0  0  0  0  0
  183.1550  179.5560  139.0410 C   0  0  1  0  0  3  0  0  0  0  0  0
  181.1300  180.2950  137.9140 C   0  0  2  0  0  3  0  0  0  0  0  0
  181.1580  182.5820  137.2520 F   0  0  0  0  0  0  0  0  0  0  0  0
  180.4500  181.0590  135.7480 F   0  0  0  0  0  0  0  0  0  0  0  0
  180.4640  181.3960  137.0900 C   0  0  0  0  0  0  0  0  0  0  0  0
  179.1640  181.5810  137.5240 F   0  0  0  0  0  0  0  0  0  0  0  0
  188.2800  177.2090  141.9080 N   0  0  0  0  0  2  0  0  0  0  0  0
  188.0050  177.5130  145.6290 C   0  0  0  0  0  3  0  0  0  0  0  0
  189.3430  177.3600  146.0050 C   0  0  0  0  0  0  0  0  0  0  0  0
  189.9600  177.1030  143.6740 C   0  0  0  0  0  3  0  0  0  0  0  0
  191.6610  176.9940  145.3750 O   0  0  0  0  0  1  0  0  0  0  0  0
  187.6460  177.4670  144.2790 C   0  0  0  0  0  3  0  0  0  0  0  0
  188.6240  177.2610  143.2960 C   0  0  0  0  0  0  0  0  0  0  0  0
  190.3240  177.1500  145.0230 C   0  0  0  0  0  0  0  0  0  0  0  0
  189.7020  177.3890  147.4530 C   0  0  0  0  0  2  0  0  0  0  0  0
  188.5550  176.9930  148.2520 N   0  0  0  0  0  2  0  0  0  0  0  0
  188.0510  178.1990  148.8820 C   0  0  0  0  0  1  0  0  0  0  0  0
  189.5320  176.7540  139.4620 C   0  0  0  0  0  2  0  0  0  0  0  0
  189.8440  176.5280  137.9970 C   0  0  0  0  0  2  0  0  0  0  0  0
  191.2890  175.2760  136.4690 C   0  0  1  0  0  3  0  0  0  0  0  0
  190.6450  174.2210  137.2670 N   0  0  0  0  0  0  0  0  0  0  0  0
  190.9990  175.5360  137.8720 C   0  0  2  0  0  3  0  0  0  0  0  0
  188.7300  172.8970  137.1450 O   0  0  0  0  0  1  0  0  0  0  0  0
  189.2680  174.1340  136.7930 C   0  0  0  0  0  2  0  0  0  0  0  0
  192.7600  174.9510  136.3070 C   0  0  0  0  0  2  0  0  0  0  0  0
  193.4220  174.9030  137.6680 C   0  0  1  0  0  3  0  0  0  0  0  0
  194.8710  174.6400  137.5070 C   0  0  1  0  0  3  0  0  0  0  0  0
  194.3730  175.9340  137.7500 O   0  0  0  0  0  0  0  0  0  0  0  0
  195.4370  174.0750  138.7660 C   0  0  0  0  0  0  0  0  0  0  0  0
  195.9740  174.9440  139.7590 N   0  0  0  0  0  1  0  0  0  0  0  0
  195.4100  172.8330  138.9710 O   0  0  0  0  0  0  0  0  0  0  0  0
  1  7  1  1  0  0  0
  1  5  1  0  0  0  0
  2  8  1  1  0  0  0
  2  7  1  0  0  0  0
  3  2  1  0  0  0  0
  4  3  1  6  0  0  0
  4  1  1  0  0  0  0
  4  5  1  0  0  0  0
  5 18  1  1  0  0  0
  6 29  1  1  0  0  0
  6  4  1  0  0  0  0
  6  5  1  0  0  0  0
  9 12  1  0  0  0  0
 10 13  1  0  0  0  0
 10 11  1  0  0  0  0
 11 12  1  0  0  0  0
 12  8  1  6  0  0  0
 13 16  1  6  0  0  0
 13  9  1  0  0  0  0
 15 16  1  0  0  0  0
 16 14  1  0  0  0  0
 16 17  1  0  0  0  0
 18 24  1  0  0  0  0
 19 20  1  0  0  0  0
 20 26  1  0  0  0  0
 21 25  1  0  0  0  0
 23 19  2  0  0  0  0
 24 21  2  0  0  0  0
 24 23  1  0  0  0  0
 25 22  1  0  0  0  0
 25 20  2  0  0  0  0
 26 27  1  0  0  0  0
 27 28  1  0  0  0  0
 30 29  1  0  0  0  0
 31 36  1  1  0  0  0
 31 32  1  0  0  0  0
 31 33  1  0  0  0  0
 32 33  1  0  0  0  0
 33 30  1  6  0  0  0
 35 34  1  0  0  0  0
 35 32  1  0  0  0  0
 37 36  1  6  0  0  0
 37 39  1  0  0  0  0
 38 37  1  0  0  0  0
 38 39  1  0  0  0  0
 38 40  1  1  0  0  0
 40 42  2  0  0  0  0
 40 41  1  0  0  0  0
M  END
>  <MODEL>
3

>  <REMARK>
 VINA RESULT:      -7.7      4.614      8.741
  Name = 
  14 active torsions:
  status: ('A' for Active; 'I' for Inactive)
    1  A    between atoms: C_1  and  C_24
    2  A    between atoms: C_5  and  C_8
    3  A    between atoms: C_5  and  N_23
    4  A    between atoms: C_10  and  C_25
    5  A    between atoms: C_12  and  N_36
    6  A    between atoms: C_19  and  C_27
    7  A    between atoms: C_19  and  C_41
    8  A    between atoms: C_21  and  C_25
    9  A    between atoms: C_22  and  N_36
   10  A    between atoms: N_26  and  C_30
   11  A    between atoms: C_31  and  C_34
   12  A    between atoms: C_32  and  N_40
   13  A    between atoms: C_33  and  N_40
   14  A    between atoms: C_37  and  C_41
                            x       y       z     vdW  Elec       q    Type
                         _______ _______ _______ _____ _____    ______ ____

>  <TORSDO>
F 14

$$$$
=
 OpenBabel11042412563D

 42 48  0  0  1  0  0  0  0  0999 V2000
  186.4450  179.2200  141.3320 N   0  0  2  0  0  0  0  0  0  0  0  0
  184.9280  178.6500  139.6610 C   0  0  1  0  0  3  0  0  0  0  0  0
  186.3590  178.7570  139.1430 C   0  0  0  0  0  2  0  0  0  0  0  0
  187.0490  178.2530  140.3710 C   0  0  2  0  0  0  0  0  0  0  0  0
  187.7440  178.6100  141.5950 C   0  0  1  0  0  0  0  0  0  0  0  0
  188.5410  178.4190  140.3020 C   0  0  1  0  0  3  0  0  0  0  0  0
  185.1420  178.6050  141.1770 C   0  0  0  0  0  2  0  0  0  0  0  0
  184.1860  179.8530  139.2950 N   0  0  0  0  0  2  0  0  0  0  0  0
  183.0540  178.1830  137.8550 C   0  0  0  0  0  2  0  0  0  0  0  0
  180.9660  177.8630  139.0700 C   0  0  0  0  0  2  0  0  0  0  0  0
  181.5050  179.4750  139.7170 S   0  0  0  0  0  0  0  0  0  0  0  0
  182.9460  179.5060  138.5950 C   0  0  1  0  0  3  0  0  0  0  0  0
  181.6490  177.6370  137.7350 C   0  0  2  0  0  3  0  0  0  0  0  0
  180.3540  175.6810  137.3260 F   0  0  0  0  0  0  0  0  0  0  0  0
  182.2240  175.9810  136.1030 F   0  0  0  0  0  0  0  0  0  0  0  0
  181.6520  176.1580  137.3500 C   0  0  0  0  0  0  0  0  0  0  0  0
  182.3720  175.4360  138.2850 F   0  0  0  0  0  0  0  0  0  0  0  0
  187.6520  177.4450  142.4720 N   0  0  0  0  0  2  0  0  0  0  0  0
  190.4110  176.9280  144.9480 C   0  0  0  0  0  3  0  0  0  0  0  0
  189.7250  177.1220  146.1510 C   0  0  0  0  0  0  0  0  0  0  0  0
  187.6820  177.5340  144.9090 C   0  0  0  0  0  3  0  0  0  0  0  0
  187.6540  177.6290  147.3150 O   0  0  0  0  0  1  0  0  0  0  0  0
  189.7340  177.0300  143.7290 C   0  0  0  0  0  3  0  0  0  0  0  0
  188.3660  177.3340  143.7060 C   0  0  0  0  0  0  0  0  0  0  0  0
  188.3560  177.4300  146.1310 C   0  0  0  0  0  0  0  0  0  0  0  0
  190.4710  177.0330  147.4390 C   0  0  0  0  0  2  0  0  0  0  0  0
  191.8960  176.9230  147.1770 N   0  0  0  0  0  2  0  0  0  0  0  0
  192.3560  175.7330  147.8680 C   0  0  0  0  0  1  0  0  0  0  0  0
  189.2000  177.0530  140.1900 C   0  0  0  0  0  2  0  0  0  0  0  0
  190.2850  177.1000  139.1340 C   0  0  0  0  0  2  0  0  0  0  0  0
  188.7470  176.0130  137.5700 C   0  0  1  0  0  3  0  0  0  0  0  0
  190.0200  176.0330  136.8340 N   0  0  0  0  0  0  0  0  0  0  0  0
  189.6430  177.1470  137.7490 C   0  0  2  0  0  3  0  0  0  0  0  0
  190.1750  173.8040  137.5030 O   0  0  0  0  0  1  0  0  0  0  0  0
  190.8640  175.0140  137.4520 C   0  0  0  0  0  2  0  0  0  0  0  0
  187.6220  176.3990  136.6310 C   0  0  0  0  0  2  0  0  0  0  0  0
  186.8830  175.1550  136.1860 C   0  0  1  0  0  3  0  0  0  0  0  0
  185.4810  175.2140  136.6590 C   0  0  1  0  0  3  0  0  0  0  0  0
  185.8310  175.5290  135.3330 O   0  0  0  0  0  0  0  0  0  0  0  0
  184.8950  173.8440  136.7120 C   0  0  0  0  0  0  0  0  0  0  0  0
  185.0080  173.0650  137.8990 N   0  0  0  0  0  1  0  0  0  0  0  0
  184.2670  173.3850  135.7210 O   0  0  0  0  0  0  0  0  0  0  0  0
  1  7  1  1  0  0  0
  1  5  1  0  0  0  0
  2  8  1  1  0  0  0
  2  7  1  0  0  0  0
  3  2  1  0  0  0  0
  4  3  1  6  0  0  0
  4  1  1  0  0  0  0
  4  5  1  0  0  0  0
  5 18  1  1  0  0  0
  6 29  1  1  0  0  0
  6  4  1  0  0  0  0
  6  5  1  0  0  0  0
  9 12  1  0  0  0  0
 10 11  1  0  0  0  0
 12  8  1  1  0  0  0
 12 11  1  0  0  0  0
 13 16  1  1  0  0  0
 13  9  1  0  0  0  0
 13 10  1  0  0  0  0
 14 16  1  0  0  0  0
 15 16  1  0  0  0  0
 16 17  1  0  0  0  0
 18 24  1  0  0  0  0
 19 20  1  0  0  0  0
 20 26  1  0  0  0  0
 21 25  1  0  0  0  0
 23 19  2  0  0  0  0
 24 23  1  0  0  0  0
 24 21  2  0  0  0  0
 25 20  2  0  0  0  0
 25 22  1  0  0  0  0
 27 26  1  0  0  0  0
 27 28  1  0  0  0  0
 30 29  1  0  0  0  0
 31 36  1  6  0  0  0
 31 33  1  0  0  0  0
 32 35  1  0  0  0  0
 32 31  1  0  0  0  0
 32 33  1  0  0  0  0
 33 30  1  1  0  0  0
 35 34  1  0  0  0  0
 37 36  1  1  0  0  0
 37 38  1  0  0  0  0
 38 40  1  6  0  0  0
 39 37  1  0  0  0  0
 39 38  1  0  0  0  0
 40 41  1  0  0  0  0
 42 40  2  0  0  0  0
M  END
>  <MODEL>
4

>  <REMARK>
 VINA RESULT:      -7.6      4.024      8.855
  Name = 
  14 active torsions:
  status: ('A' for Active; 'I' for Inactive)
    1  A    between atoms: C_1  and  C_24
    2  A    between atoms: C_5  and  C_8
    3  A    between atoms: C_5  and  N_23
    4  A    between atoms: C_10  and  C_25
    5  A    between atoms: C_12  and  N_36
    6  A    between atoms: C_19  and  C_27
    7  A    between atoms: C_19  and  C_41
    8  A    between atoms: C_21  and  C_25
    9  A    between atoms: C_22  and  N_36
   10  A    between atoms: N_26  and  C_30
   11  A    between atoms: C_31  and  C_34
   12  A    between atoms: C_32  and  N_40
   13  A    between atoms: C_33  and  N_40
   14  A    between atoms: C_37  and  C_41
                            x       y       z     vdW  Elec       q    Type
                         _______ _______ _______ _____ _____    ______ ____

>  <TORSDO>
F 14

$$$$
=
 OpenBabel11042412563D

 42 48  0  0  1  0  0  0  0  0999 V2000
  186.5940  179.1290  141.1090 N   0  0  2  0  0  0  0  0  0  0  0  0
  185.0570  178.5670  139.4540 C   0  0  1  0  0  3  0  0  0  0  0  0
  186.4730  178.7270  138.9100 C   0  0  0  0  0  2  0  0  0  0  0  0
  187.2030  178.2070  140.1080 C   0  0  2  0  0  0  0  0  0  0  0  0
  187.9140  178.5470  141.3270 C   0  0  1  0  0  0  0  0  0  0  0  0
  188.6890  178.4140  140.0130 C   0  0  1  0  0  3  0  0  0  0  0  0
  185.3050  178.4840  140.9640 C   0  0  0  0  0  2  0  0  0  0  0  0
  184.2760  179.7600  139.1390 N   0  0  0  0  0  2  0  0  0  0  0  0
  182.9350  178.0960  137.8820 C   0  0  0  0  0  2  0  0  0  0  0  0
  181.1210  177.6800  139.4550 C   0  0  0  0  0  2  0  0  0  0  0  0
  181.7320  179.2890  140.0420 S   0  0  0  0  0  0  0  0  0  0  0  0
  182.9360  179.3940  138.6720 C   0  0  1  0  0  3  0  0  0  0  0  0
  181.5470  177.5110  138.0090 C   0  0  2  0  0  3  0  0  0  0  0  0
  182.6040  175.3810  138.1170 F   0  0  0  0  0  0  0  0  0  0  0  0
  180.3530  175.4350  138.0230 F   0  0  0  0  0  0  0  0  0  0  0  0
  181.5140  176.0440  137.5830 C   0  0  0  0  0  0  0  0  0  0  0  0
  181.5760  175.9580  136.2040 F   0  0  0  0  0  0  0  0  0  0  0  0
  187.8720  177.3550  142.1720 N   0  0  0  0  0  2  0  0  0  0  0  0
  190.5290  176.9160  144.7720 C   0  0  0  0  0  3  0  0  0  0  0  0
  189.7840  177.0980  145.9420 C   0  0  0  0  0  0  0  0  0  0  0  0
  187.7900  177.4530  144.6070 C   0  0  0  0  0  3  0  0  0  0  0  0
  187.6510  177.5570  147.0090 O   0  0  0  0  0  1  0  0  0  0  0  0
  189.9050  176.9970  143.5230 C   0  0  0  0  0  3  0  0  0  0  0  0
  188.5320  177.2670  143.4370 C   0  0  0  0  0  0  0  0  0  0  0  0
  188.4100  177.3710  145.8580 C   0  0  0  0  0  0  0  0  0  0  0  0
  190.4740  177.0310  147.2620 C   0  0  0  0  0  2  0  0  0  0  0  0
  191.9040  176.8660  147.0640 N   0  0  0  0  0  2  0  0  0  0  0  0
  192.3090  175.7360  147.8790 C   0  0  0  0  0  1  0  0  0  0  0  0
  189.3800  177.0710  139.8470 C   0  0  0  0  0  2  0  0  0  0  0  0
  189.4320  176.7070  138.3770 C   0  0  0  0  0  2  0  0  0  0  0  0
  190.8250  175.5990  136.6960 C   0  0  1  0  0  3  0  0  0  0  0  0
  190.2880  174.4780  137.4830 N   0  0  0  0  0  0  0  0  0  0  0  0
  190.6200  175.7800  138.1260 C   0  0  2  0  0  3  0  0  0  0  0  0
  188.6080  173.0110  136.8010 O   0  0  0  0  0  1  0  0  0  0  0  0
  188.8860  174.3440  137.0980 C   0  0  0  0  0  2  0  0  0  0  0  0
  192.2950  175.3560  136.4200 C   0  0  0  0  0  2  0  0  0  0  0  0
  193.0470  175.2580  137.7300 C   0  0  1  0  0  3  0  0  0  0  0  0
  194.4830  175.0180  137.4610 C   0  0  1  0  0  3  0  0  0  0  0  0
  193.9930  176.2950  137.7930 O   0  0  0  0  0  0  0  0  0  0  0  0
  195.1380  174.4060  138.6540 C   0  0  0  0  0  0  0  0  0  0  0  0
  195.2960  172.9920  138.7340 N   0  0  0  0  0  1  0  0  0  0  0  0
  195.5840  175.1370  139.5770 O   0  0  0  0  0  0  0  0  0  0  0  0
  1  7  1  1  0  0  0
  1  5  1  0  0  0  0
  2  8  1  1  0  0  0
  2  7  1  0  0  0  0
  3  2  1  0  0  0  0
  4  3  1  6  0  0  0
  4  1  1  0  0  0  0
  4  5  1  0  0  0  0
  5 18  1  1  0  0  0
  6 29  1  1  0  0  0
  6  4  1  0  0  0  0
  6  5  1  0  0  0  0
  9 13  1  0  0  0  0
  9 12  1  0  0  0  0
 10 11  1  0  0  0  0
 12  8  1  1  0  0  0
 12 11  1  0  0  0  0
 13 16  1  1  0  0  0
 13 10  1  0  0  0  0
 16 15  1  0  0  0  0
 16 14  1  0  0  0  0
 17 16  1  0  0  0  0
 18 24  1  0  0  0  0
 19 20  1  0  0  0  0
 20 26  1  0  0  0  0
 21 25  1  0  0  0  0
 23 19  2  0  0  0  0
 24 23  1  0  0  0  0
 24 21  2  0  0  0  0
 25 20  2  0  0  0  0
 25 22  1  0  0  0  0
 27 26  1  0  0  0  0
 27 28  1  0  0  0  0
 30 29  1  0  0  0  0
 31 36  1  1  0  0  0
 31 32  1  0  0  0  0
 31 33  1  0  0  0  0
 32 33  1  0  0  0  0
 33 30  1  6  0  0  0
 34 35  1  0  0  0  0
 35 32  1  0  0  0  0
 37 36  1  6  0  0  0
 37 39  1  0  0  0  0
 38 37  1  0  0  0  0
 38 39  1  0  0  0  0
 38 40  1  1  0  0  0
 40 41  1  0  0  0  0
 40 42  2  0  0  0  0
M  END
>  <MODEL>
5

>  <REMARK>
 VINA RESULT:      -7.6      4.033      8.469
  Name = 
  14 active torsions:
  status: ('A' for Active; 'I' for Inactive)
    1  A    between atoms: C_1  and  C_24
    2  A    between atoms: C_5  and  C_8
    3  A    between atoms: C_5  and  N_23
    4  A    between atoms: C_10  and  C_25
    5  A    between atoms: C_12  and  N_36
    6  A    between atoms: C_19  and  C_27
    7  A    between atoms: C_19  and  C_41
    8  A    between atoms: C_21  and  C_25
    9  A    between atoms: C_22  and  N_36
   10  A    between atoms: N_26  and  C_30
   11  A    between atoms: C_31  and  C_34
   12  A    between atoms: C_32  and  N_40
   13  A    between atoms: C_33  and  N_40
   14  A    between atoms: C_37  and  C_41
                            x       y       z     vdW  Elec       q    Type
                         _______ _______ _______ _____ _____    ______ ____

>  <TORSDO>
F 14

$$$$
=
 OpenBabel11042412563D

 42 48  0  0  1  0  0  0  0  0999 V2000
  190.2290  177.6750  140.4970 N   0  0  2  0  0  0  0  0  0  0  0  0
  188.5580  177.1500  142.0300 C   0  0  1  0  0  3  0  0  0  0  0  0
  188.0940  178.1490  140.9750 C   0  0  0  0  0  2  0  0  0  0  0  0
  188.8960  177.6120  139.8320 C   0  0  2  0  0  0  0  0  0  0  0  0
  190.1100  177.7430  139.0450 C   0  0  1  0  0  0  0  0  0  0  0  0
  188.8520  178.5070  138.6250 C   0  0  1  0  0  3  0  0  0  0  0  0
  189.8550  176.6160  141.4130 C   0  0  0  0  0  2  0  0  0  0  0  0
  188.8490  177.8560  143.2740 N   0  0  0  0  0  2  0  0  0  0  0  0
  188.7520  177.5300  145.7300 C   0  0  0  0  0  2  0  0  0  0  0  0
  186.4730  178.2530  146.2040 C   0  0  0  0  0  2  0  0  0  0  0  0
  186.3620  177.8860  144.4270 S   0  0  0  0  0  0  0  0  0  0  0  0
  188.0860  177.2830  144.3870 C   0  0  1  0  0  3  0  0  0  0  0  0
  187.6570  177.4920  146.7720 C   0  0  2  0  0  3  0  0  0  0  0  0
  187.9380  177.1670  149.1140 F   0  0  0  0  0  0  0  0  0  0  0  0
  189.4610  178.4310  148.0350 F   0  0  0  0  0  0  0  0  0  0  0  0
  188.1220  178.0890  148.0990 C   0  0  0  0  0  0  0  0  0  0  0  0
  187.3790  179.2190  148.3880 F   0  0  0  0  0  0  0  0  0  0  0  0
  190.3210  176.4490  138.4000 N   0  0  0  0  0  2  0  0  0  0  0  0
  192.7230  175.7130  135.6250 C   0  0  0  0  0  3  0  0  0  0  0  0
  193.8870  175.4380  136.3500 C   0  0  0  0  0  0  0  0  0  0  0  0
  192.6830  175.8410  138.4170 C   0  0  0  0  0  3  0  0  0  0  0  0
  195.0130  175.2390  138.4930 O   0  0  0  0  0  1  0  0  0  0  0  0
  191.5410  176.0450  136.2940 C   0  0  0  0  0  3  0  0  0  0  0  0
  191.5180  176.1110  137.6940 C   0  0  0  0  0  0  0  0  0  0  0  0
  193.8670  175.5060  137.7530 C   0  0  0  0  0  0  0  0  0  0  0  0
  195.1430  175.1090  135.6170 C   0  0  0  0  0  2  0  0  0  0  0  0
  196.0520  176.2420  135.6640 N   0  0  0  0  0  2  0  0  0  0  0  0
  197.3950  175.6950  135.7030 C   0  0  0  0  0  1  0  0  0  0  0  0
  188.0670  177.8250  137.5150 C   0  0  0  0  0  2  0  0  0  0  0  0
  186.6720  178.4110  137.4480 C   0  0  0  0  0  2  0  0  0  0  0  0
  184.3300  177.7000  137.4840 C   0  0  1  0  0  3  0  0  0  0  0  0
  184.6380  177.9230  138.9060 N   0  0  0  0  0  0  0  0  0  0  0  0
  185.6660  177.3860  137.9700 C   0  0  2  0  0  3  0  0  0  0  0  0
  184.9300  179.6620  140.4310 O   0  0  0  0  0  1  0  0  0  0  0  0
  184.6960  179.3700  139.0890 C   0  0  0  0  0  2  0  0  0  0  0  0
  183.5290  176.4220  137.3420 C   0  0  0  0  0  2  0  0  0  0  0  0
  184.4710  175.2390  137.2640 C   0  0  1  0  0  3  0  0  0  0  0  0
  183.7490  174.0650  136.7210 C   0  0  1  0  0  3  0  0  0  0  0  0
  184.6020  174.8470  135.9210 O   0  0  0  0  0  0  0  0  0  0  0  0
  184.4450  172.8050  137.1120 C   0  0  0  0  0  0  0  0  0  0  0  0
  185.8410  172.8190  137.3960 N   0  0  0  0  0  1  0  0  0  0  0  0
  183.7960  171.7310  137.2270 O   0  0  0  0  0  0  0  0  0  0  0  0
  1  7  1  6  0  0  0
  2  8  1  1  0  0  0
  3  2  1  0  0  0  0
  4  1  1  0  0  0  0
  4  3  1  6  0  0  0
  5 18  1  6  0  0  0
  5  4  1  0  0  0  0
  5  1  1  0  0  0  0
  6 29  1  6  0  0  0
  6  5  1  0  0  0  0
  6  4  1  0  0  0  0
  7  2  1  0  0  0  0
  9 13  1  0  0  0  0
 10 13  1  0  0  0  0
 11 10  1  0  0  0  0
 12  8  1  6  0  0  0
 12 11  1  0  0  0  0
 12  9  1  0  0  0  0
 13 16  1  1  0  0  0
 15 16  1  0  0  0  0
 16 17  1  0  0  0  0
 16 14  1  0  0  0  0
 19 23  2  0  0  0  0
 19 20  1  0  0  0  0
 20 25  2  0  0  0  0
 23 24  1  0  0  0  0
 24 18  1  0  0  0  0
 24 21  2  0  0  0  0
 25 21  1  0  0  0  0
 25 22  1  0  0  0  0
 26 27  1  0  0  0  0
 26 20  1  0  0  0  0
 27 28  1  0  0  0  0
 30 29  1  0  0  0  0
 31 36  1  1  0  0  0
 31 33  1  0  0  0  0
 31 32  1  0  0  0  0
 32 35  1  0  0  0  0
 33 30  1  6  0  0  0
 33 32  1  0  0  0  0
 35 34  1  0  0  0  0
 37 36  1  6  0  0  0
 38 40  1  1  0  0  0
 38 37  1  0  0  0  0
 39 38  1  0  0  0  0
 39 37  1  0  0  0  0
 40 42  2  0  0  0  0
 40 41  1  0  0  0  0
M  END
>  <MODEL>
6

>  <REMARK>
 VINA RESULT:      -7.6      4.924     10.602
  Name = 
  14 active torsions:
  status: ('A' for Active; 'I' for Inactive)
    1  A    between atoms: C_1  and  C_24
    2  A    between atoms: C_5  and  C_8
    3  A    between atoms: C_5  and  N_23
    4  A    between atoms: C_10  and  C_25
    5  A    between atoms: C_12  and  N_36
    6  A    between atoms: C_19  and  C_27
    7  A    between atoms: C_19  and  C_41
    8  A    between atoms: C_21  and  C_25
    9  A    between atoms: C_22  and  N_36
   10  A    between atoms: N_26  and  C_30
   11  A    between atoms: C_31  and  C_34
   12  A    between atoms: C_32  and  N_40
   13  A    between atoms: C_33  and  N_40
   14  A    between atoms: C_37  and  C_41
                            x       y       z     vdW  Elec       q    Type
                         _______ _______ _______ _____ _____    ______ ____

>  <TORSDO>
F 14

$$$$
=
 OpenBabel11042412563D

 42 48  0  0  1  0  0  0  0  0999 V2000
  186.6170  179.2410  141.2230 N   0  0  2  0  0  0  0  0  0  0  0  0
  185.1060  178.6810  139.5430 C   0  0  1  0  0  3  0  0  0  0  0  0
  186.5530  178.6690  139.0590 C   0  0  0  0  0  2  0  0  0  0  0  0
  187.1790  178.1870  140.3300 C   0  0  2  0  0  0  0  0  0  0  0  0
  187.8670  178.5640  141.5530 C   0  0  1  0  0  0  0  0  0  0  0  0
  188.6810  178.2530  140.2940 C   0  0  1  0  0  3  0  0  0  0  0  0
  185.2810  178.7040  141.0650 C   0  0  0  0  0  2  0  0  0  0  0  0
  184.4540  179.9090  139.0960 N   0  0  0  0  0  2  0  0  0  0  0  0
  182.2770  181.0330  138.7170 C   0  0  0  0  0  2  0  0  0  0  0  0
  181.2020  179.4620  137.1950 C   0  0  0  0  0  2  0  0  0  0  0  0
  182.4670  178.4010  137.9590 S   0  0  0  0  0  0  0  0  0  0  0  0
  182.9980  179.7450  139.0770 C   0  0  1  0  0  3  0  0  0  0  0  0
  180.9450  180.6350  138.1230 C   0  0  2  0  0  3  0  0  0  0  0  0
  179.0090  181.9980  137.8720 F   0  0  0  0  0  0  0  0  0  0  0  0
  181.0230  182.9600  137.5540 F   0  0  0  0  0  0  0  0  0  0  0  0
  180.2880  181.8000  137.3840 C   0  0  0  0  0  0  0  0  0  0  0  0
  180.2070  181.5090  136.0340 F   0  0  0  0  0  0  0  0  0  0  0  0
  187.6780  177.4560  142.4860 N   0  0  0  0  0  2  0  0  0  0  0  0
  190.5050  176.7750  144.8430 C   0  0  0  0  0  3  0  0  0  0  0  0
  189.8860  177.0180  146.0740 C   0  0  0  0  0  0  0  0  0  0  0  0
  187.8210  177.5530  144.9190 C   0  0  0  0  0  3  0  0  0  0  0  0
  187.9050  177.6610  147.3230 O   0  0  0  0  0  1  0  0  0  0  0  0
  189.7830  176.9140  143.6540 C   0  0  0  0  0  3  0  0  0  0  0  0
  188.4370  177.3050  143.6890 C   0  0  0  0  0  0  0  0  0  0  0  0
  188.5390  177.4130  146.1100 C   0  0  0  0  0  0  0  0  0  0  0  0
  190.6810  176.8870  147.3280 C   0  0  0  0  0  2  0  0  0  0  0  0
  192.0540  176.5350  147.0080 N   0  0  0  0  0  2  0  0  0  0  0  0
  192.6130  175.9170  148.1950 C   0  0  0  0  0  1  0  0  0  0  0  0
  189.2510  176.8440  140.2700 C   0  0  0  0  0  2  0  0  0  0  0  0
  190.6080  176.8590  139.5970 C   0  0  0  0  0  2  0  0  0  0  0  0
  190.2800  175.7780  137.4250 C   0  0  1  0  0  3  0  0  0  0  0  0
  191.5280  176.5350  137.2410 N   0  0  0  0  0  0  0  0  0  0  0  0
  190.4260  177.0630  138.0940 C   0  0  2  0  0  3  0  0  0  0  0  0
  193.7790  176.4680  137.8480 O   0  0  0  0  0  1  0  0  0  0  0  0
  192.5570  175.8090  137.9800 C   0  0  0  0  0  2  0  0  0  0  0  0
  189.4120  175.9430  136.1940 C   0  0  0  0  0  2  0  0  0  0  0  0
  188.0360  176.4220  136.6040 C   0  0  1  0  0  3  0  0  0  0  0  0
  187.0030  175.6470  135.8790 C   0  0  1  0  0  3  0  0  0  0  0  0
  187.3450  175.3620  137.2150 O   0  0  0  0  0  0  0  0  0  0  0  0
  185.7190  176.4050  135.8410 C   0  0  0  0  0  0  0  0  0  0  0  0
  185.5430  177.4640  134.9040 N   0  0  0  0  0  1  0  0  0  0  0  0
  184.7740  176.0910  136.6120 O   0  0  0  0  0  0  0  0  0  0  0  0
  1  7  1  1  0  0  0
  1  5  1  0  0  0  0
  2  8  1  6  0  0  0
  2  7  1  0  0  0  0
  3  2  1  0  0  0  0
  4  3  1  6  0  0  0
  4  1  1  0  0  0  0
  4  5  1  0  0  0  0
  5 18  1  1  0  0  0
  6 29  1  1  0  0  0
  6  4  1  0  0  0  0
  6  5  1  0  0  0  0
  9 12  1  0  0  0  0
 10 11  1  0  0  0  0
 10 13  1  0  0  0  0
 11 12  1  0  0  0  0
 12  8  1  6  0  0  0
 13 16  1  6  0  0  0
 13  9  1  0  0  0  0
 16 15  1  0  0  0  0
 16 14  1  0  0  0  0
 17 16  1  0  0  0  0
 18 24  1  0  0  0  0
 19 20  1  0  0  0  0
 20 25  2  0  0  0  0
 20 26  1  0  0  0  0
 21 25  1  0  0  0  0
 23 24  1  0  0  0  0
 23 19  2  0  0  0  0
 24 21  2  0  0  0  0
 25 22  1  0  0  0  0
 27 26  1  0  0  0  0
 27 28  1  0  0  0  0
 30 29  1  0  0  0  0
 31 36  1  6  0  0  0
 31 33  1  0  0  0  0
 32 31  1  0  0  0  0
 32 35  1  0  0  0  0
 32 33  1  0  0  0  0
 33 30  1  1  0  0  0
 34 35  1  0  0  0  0
 37 36  1  6  0  0  0
 37 39  1  0  0  0  0
 38 40  1  1  0  0  0
 38 37  1  0  0  0  0
 38 39  1  0  0  0  0
 40 42  2  0  0  0  0
 41 40  1  0  0  0  0
M  END
>  <MODEL>
7

>  <REMARK>
 VINA RESULT:      -7.6      4.579      9.308
  Name = 
  14 active torsions:
  status: ('A' for Active; 'I' for Inactive)
    1  A    between atoms: C_1  and  C_24
    2  A    between atoms: C_5  and  C_8
    3  A    between atoms: C_5  and  N_23
    4  A    between atoms: C_10  and  C_25
    5  A    between atoms: C_12  and  N_36
    6  A    between atoms: C_19  and  C_27
    7  A    between atoms: C_19  and  C_41
    8  A    between atoms: C_21  and  C_25
    9  A    between atoms: C_22  and  N_36
   10  A    between atoms: N_26  and  C_30
   11  A    between atoms: C_31  and  C_34
   12  A    between atoms: C_32  and  N_40
   13  A    between atoms: C_33  and  N_40
   14  A    between atoms: C_37  and  C_41
                            x       y       z     vdW  Elec       q    Type
                         _______ _______ _______ _____ _____    ______ ____

>  <TORSDO>
F 14

$$$$
=
 OpenBabel11042412563D

 42 48  0  0  1  0  0  0  0  0999 V2000
  186.9420  179.0610  141.0880 N   0  0  2  0  0  0  0  0  0  0  0  0
  185.1590  178.5380  139.6860 C   0  0  1  0  0  3  0  0  0  0  0  0
  186.4860  178.6250  138.9400 C   0  0  0  0  0  2  0  0  0  0  0  0
  187.3600  178.0940  140.0320 C   0  0  2  0  0  0  0  0  0  0  0  0
  188.2540  178.4250  141.1280 C   0  0  1  0  0  0  0  0  0  0  0  0
  188.8240  178.2340  139.7200 C   0  0  1  0  0  3  0  0  0  0  0  0
  185.6190  178.4720  141.1460 C   0  0  0  0  0  2  0  0  0  0  0  0
  184.3910  179.7590  139.4580 N   0  0  0  0  0  2  0  0  0  0  0  0
  182.2770  178.9940  140.5020 C   0  0  0  0  0  2  0  0  0  0  0  0
  180.7230  180.6910  139.6990 C   0  0  0  0  0  2  0  0  0  0  0  0
  182.0700  180.8490  138.4890 S   0  0  0  0  0  0  0  0  0  0  0  0
  182.9770  179.4480  139.2320 C   0  0  1  0  0  3  0  0  0  0  0  0
  180.8090  179.3120  140.3260 C   0  0  2  0  0  3  0  0  0  0  0  0
  179.1770  180.3160  141.7400 F   0  0  0  0  0  0  0  0  0  0  0  0
  179.3520  178.0690  141.7650 F   0  0  0  0  0  0  0  0  0  0  0  0
  180.0590  179.2540  141.6560 C   0  0  0  0  0  0  0  0  0  0  0  0
  180.9590  179.3410  142.7030 F   0  0  0  0  0  0  0  0  0  0  0  0
  188.2850  177.2520  141.9980 N   0  0  0  0  0  2  0  0  0  0  0  0
  190.6630  177.2980  144.8890 C   0  0  0  0  0  3  0  0  0  0  0  0
  189.7690  177.3250  145.9650 C   0  0  0  0  0  0  0  0  0  0  0  0
  187.9090  177.3100  144.4080 C   0  0  0  0  0  3  0  0  0  0  0  0
  187.4800  177.3630  146.7770 O   0  0  0  0  0  1  0  0  0  0  0  0
  190.1820  177.2710  143.5770 C   0  0  0  0  0  3  0  0  0  0  0  0
  188.8020  177.2780  143.3320 C   0  0  0  0  0  0  0  0  0  0  0  0
  188.3860  177.3350  145.7220 C   0  0  0  0  0  0  0  0  0  0  0  0
  190.3030  177.3780  147.3560 C   0  0  0  0  0  2  0  0  0  0  0  0
  191.7150  177.0340  147.3550 N   0  0  0  0  0  2  0  0  0  0  0  0
  191.8040  175.6390  147.7420 C   0  0  0  0  0  1  0  0  0  0  0  0
  189.4270  176.8570  139.4890 C   0  0  0  0  0  2  0  0  0  0  0  0
  189.7720  176.6960  138.0220 C   0  0  0  0  0  2  0  0  0  0  0  0
  191.1100  175.3550  136.4720 C   0  0  1  0  0  3  0  0  0  0  0  0
  190.4930  174.3460  137.3460 N   0  0  0  0  0  0  0  0  0  0  0  0
  190.9010  175.6780  137.8760 C   0  0  2  0  0  3  0  0  0  0  0  0
  188.6990  172.9310  136.8830 O   0  0  0  0  0  1  0  0  0  0  0  0
  189.0900  174.2670  136.9500 C   0  0  0  0  0  2  0  0  0  0  0  0
  192.5650  174.9960  136.2450 C   0  0  0  0  0  2  0  0  0  0  0  0
  193.3360  175.1660  137.5370 C   0  0  1  0  0  3  0  0  0  0  0  0
  194.7160  174.6560  137.3620 C   0  0  1  0  0  3  0  0  0  0  0  0
  194.4210  176.0310  137.3120 O   0  0  0  0  0  0  0  0  0  0  0  0
  195.3150  174.3190  138.6860 C   0  0  0  0  0  0  0  0  0  0  0  0
  195.4320  172.9590  139.0900 N   0  0  0  0  0  1  0  0  0  0  0  0
  195.7510  175.2330  139.4350 O   0  0  0  0  0  0  0  0  0  0  0  0
  1  5  1  0  0  0  0
  1  7  1  1  0  0  0
  2  8  1  1  0  0  0
  2  7  1  0  0  0  0
  3  2  1  0  0  0  0
  4  3  1  6  0  0  0
  4  1  1  0  0  0  0
  4  5  1  0  0  0  0
  5 18  1  1  0  0  0
  6 29  1  1  0  0  0
  6  4  1  0  0  0  0
  6  5  1  0  0  0  0
 10 13  1  0  0  0  0
 11 12  1  0  0  0  0
 11 10  1  0  0  0  0
 12  8  1  1  0  0  0
 12  9  1  0  0  0  0
 13  9  1  0  0  0  0
 13 16  1  1  0  0  0
 16 14  1  0  0  0  0
 16 15  1  0  0  0  0
 16 17  1  0  0  0  0
 18 24  1  0  0  0  0
 19 20  1  0  0  0  0
 20 26  1  0  0  0  0
 21 25  1  0  0  0  0
 23 19  2  0  0  0  0
 24 23  1  0  0  0  0
 24 21  2  0  0  0  0
 25 20  2  0  0  0  0
 25 22  1  0  0  0  0
 27 26  1  0  0  0  0
 27 28  1  0  0  0  0
 30 29  1  0  0  0  0
 31 36  1  1  0  0  0
 31 32  1  0  0  0  0
 31 33  1  0  0  0  0
 32 33  1  0  0  0  0
 33 30  1  6  0  0  0
 34 35  1  0  0  0  0
 35 32  1  0  0  0  0
 37 36  1  6  0  0  0
 38 37  1  0  0  0  0
 38 40  1  1  0  0  0
 39 38  1  0  0  0  0
 39 37  1  0  0  0  0
 40 41  1  0  0  0  0
 40 42  2  0  0  0  0
M  END
>  <MODEL>
8

>  <REMARK>
 VINA RESULT:      -7.5      4.608      9.038
  Name = 
  14 active torsions:
  status: ('A' for Active; 'I' for Inactive)
    1  A    between atoms: C_1  and  C_24
    2  A    between atoms: C_5  and  C_8
    3  A    between atoms: C_5  and  N_23
    4  A    between atoms: C_10  and  C_25
    5  A    between atoms: C_12  and  N_36
    6  A    between atoms: C_19  and  C_27
    7  A    between atoms: C_19  and  C_41
    8  A    between atoms: C_21  and  C_25
    9  A    between atoms: C_22  and  N_36
   10  A    between atoms: N_26  and  C_30
   11  A    between atoms: C_31  and  C_34
   12  A    between atoms: C_32  and  N_40
   13  A    between atoms: C_33  and  N_40
   14  A    between atoms: C_37  and  C_41
                            x       y       z     vdW  Elec       q    Type
                         _______ _______ _______ _____ _____    ______ ____

>  <TORSDO>
F 14

$$$$
=
 OpenBabel11042412563D

 42 48  0  0  1  0  0  0  0  0999 V2000
  188.7360  177.1200  142.0390 N   0  0  2  0  0  0  0  0  0  0  0  0
  190.7340  177.8500  142.9850 C   0  0  1  0  0  3  0  0  0  0  0  0
  190.8910  177.4430  141.5230 C   0  0  0  0  0  2  0  0  0  0  0  0
  189.5440  177.8910  141.0500 C   0  0  2  0  0  0  0  0  0  0  0  0
  188.1820  177.4930  140.7420 C   0  0  1  0  0  0  0  0  0  0  0  0
  189.2490  177.4450  139.6450 C   0  0  1  0  0  3  0  0  0  0  0  0
  189.2120  177.9560  143.1230 C   0  0  0  0  0  2  0  0  0  0  0  0
  191.2420  176.7850  143.8450 N   0  0  0  0  0  2  0  0  0  0  0  0
  189.9920  177.6960  145.7820 C   0  0  0  0  0  2  0  0  0  0  0  0
  190.7270  176.1950  147.5550 C   0  0  0  0  0  2  0  0  0  0  0  0
  192.0530  175.9690  146.3320 S   0  0  0  0  0  0  0  0  0  0  0  0
  191.3340  177.2400  145.2350 C   0  0  1  0  0  3  0  0  0  0  0  0
  190.0540  177.5270  147.2830 C   0  0  2  0  0  3  0  0  0  0  0  0
  188.7370  178.2360  149.1360 F   0  0  0  0  0  0  0  0  0  0  0  0
  187.7880  178.2780  147.0910 F   0  0  0  0  0  0  0  0  0  0  0  0
  188.6640  177.5920  147.9140 C   0  0  0  0  0  0  0  0  0  0  0  0
  188.1840  176.3100  148.1170 F   0  0  0  0  0  0  0  0  0  0  0  0
  187.3770  178.7110  140.8020 N   0  0  0  0  0  2  0  0  0  0  0  0
  183.9630  178.6620  142.3380 C   0  0  0  0  0  3  0  0  0  0  0  0
  183.1590  178.6880  141.1930 C   0  0  0  0  0  0  0  0  0  0  0  0
  185.1500  178.7350  139.8080 C   0  0  0  0  0  3  0  0  0  0  0  0
  182.9760  178.7560  138.7720 O   0  0  0  0  0  1  0  0  0  0  0  0
  185.3560  178.6670  142.2180 C   0  0  0  0  0  3  0  0  0  0  0  0
  185.9540  178.7040  140.9510 C   0  0  0  0  0  0  0  0  0  0  0  0
  183.7560  178.7280  139.9230 C   0  0  0  0  0  0  0  0  0  0  0  0
  181.6760  178.7070  141.3440 C   0  0  0  0  0  2  0  0  0  0  0  0
  181.3250  178.8630  142.7450 N   0  0  0  0  0  2  0  0  0  0  0  0
  180.2520  179.8380  142.8000 C   0  0  0  0  0  1  0  0  0  0  0  0
  189.2280  178.6530  138.7230 C   0  0  0  0  0  2  0  0  0  0  0  0
  189.3970  178.1960  137.2880 C   0  0  0  0  0  2  0  0  0  0  0  0
  187.4380  176.9680  136.4840 C   0  0  1  0  0  3  0  0  0  0  0  0
  187.9840  177.5720  135.2590 N   0  0  0  0  0  0  0  0  0  0  0  0
  188.0530  178.2850  136.5660 C   0  0  2  0  0  3  0  0  0  0  0  0
  188.8440  175.4860  134.6710 O   0  0  0  0  0  1  0  0  0  0  0  0
  189.1860  176.8120  134.9310 C   0  0  0  0  0  2  0  0  0  0  0  0
  185.9290  177.1130  136.4810 C   0  0  0  0  0  2  0  0  0  0  0  0
  185.2890  175.7540  136.2950 C   0  0  1  0  0  3  0  0  0  0  0  0
  184.1930  175.5820  137.2770 C   0  0  1  0  0  3  0  0  0  0  0  0
  183.9420  175.9280  135.9350 O   0  0  0  0  0  0  0  0  0  0  0  0
  183.9070  174.1330  137.4830 C   0  0  0  0  0  0  0  0  0  0  0  0
  182.6160  173.6120  137.1840 N   0  0  0  0  0  1  0  0  0  0  0  0
  184.8130  173.3590  137.8890 O   0  0  0  0  0  0  0  0  0  0  0  0
  1  7  1  1  0  0  0
  2  7  1  0  0  0  0
  2  8  1  1  0  0  0
  3  2  1  0  0  0  0
  4  3  1  1  0  0  0
  4  1  1  0  0  0  0
  5 18  1  6  0  0  0
  5  4  1  0  0  0  0
  5  1  1  0  0  0  0
  6 29  1  6  0  0  0
  6  5  1  0  0  0  0
  6  4  1  0  0  0  0
  9 13  1  0  0  0  0
 11 10  1  0  0  0  0
 12  8  1  6  0  0  0
 12  9  1  0  0  0  0
 12 11  1  0  0  0  0
 13 10  1  0  0  0  0
 13 16  1  6  0  0  0
 15 16  1  0  0  0  0
 16 17  1  0  0  0  0
 16 14  1  0  0  0  0
 18 24  1  0  0  0  0
 20 26  1  0  0  0  0
 20 19  2  0  0  0  0
 21 25  2  0  0  0  0
 21 24  1  0  0  0  0
 22 25  1  0  0  0  0
 23 19  1  0  0  0  0
 24 23  2  0  0  0  0
 25 20  1  0  0  0  0
 26 27  1  0  0  0  0
 27 28  1  0  0  0  0
 30 29  1  0  0  0  0
 31 36  1  6  0  0  0
 31 33  1  0  0  0  0
 32 31  1  0  0  0  0
 32 33  1  0  0  0  0
 33 30  1  1  0  0  0
 34 35  1  0  0  0  0
 35 32  1  0  0  0  0
 37 36  1  1  0  0  0
 37 38  1  0  0  0  0
 38 40  1  6  0  0  0
 39 37  1  0  0  0  0
 39 38  1  0  0  0  0
 40 42  2  0  0  0  0
 41 40  1  0  0  0  0
M  END
>  <MODEL>
9

>  <REMARK>
 VINA RESULT:      -7.5      4.757      8.378
  Name = 
  14 active torsions:
  status: ('A' for Active; 'I' for Inactive)
    1  A    between atoms: C_1  and  C_24
    2  A    between atoms: C_5  and  C_8
    3  A    between atoms: C_5  and  N_23
    4  A    between atoms: C_10  and  C_25
    5  A    between atoms: C_12  and  N_36
    6  A    between atoms: C_19  and  C_27
    7  A    between atoms: C_19  and  C_41
    8  A    between atoms: C_21  and  C_25
    9  A    between atoms: C_22  and  N_36
   10  A    between atoms: N_26  and  C_30
   11  A    between atoms: C_31  and  C_34
   12  A    between atoms: C_32  and  N_40
   13  A    between atoms: C_33  and  N_40
   14  A    between atoms: C_37  and  C_41
                            x       y       z     vdW  Elec       q    Type
                         _______ _______ _______ _____ _____    ______ ____

>  <TORSDO>
F 14

$$$$
