=
 OpenBabel11042410033D

 38 40  0  0  1  0  0  0  0  0999 V2000
  187.4480  178.1740  142.5940 C   0  0  0  0  0  3  0  0  0  0  0  0
  188.3770  177.3590  143.4790 C   0  0  0  0  0  2  0  0  0  0  0  0
  187.5370  178.1930  141.2550 C   0  0  0  0  0  0  0  0  0  0  0  0
  190.6700  176.3510  140.6500 N   0  0  0  0  0  0  0  0  0  0  0  0
  189.6590  176.9090  141.3670 C   0  0  0  0  0  0  0  0  0  0  0  0
  189.0280  177.3250  138.9980 S   0  0  0  0  0  0  0  0  0  0  0  0
  190.4710  176.4880  139.3130 C   0  0  0  0  0  0  0  0  0  0  0  0
  189.6140  176.9470  142.7980 N   0  0  0  0  0  0  0  0  0  0  0  0
  188.6590  177.4930  140.6270 C   0  0  0  0  0  0  0  0  0  0  0  0
  193.3400  175.0840  136.4400 C   0  0  0  0  0  3  0  0  0  0  0  0
  192.6400  176.6520  138.1370 C   0  0  0  0  0  3  0  0  0  0  0  0
  191.9150  173.2810  135.8370 F   0  0  0  0  0  0  0  0  0  0  0  0
  190.0060  174.0870  137.6440 O   0  0  0  0  0  1  0  0  0  0  0  0
  191.1850  174.8140  137.5230 C   0  0  0  0  0  0  0  0  0  0  0  0
  193.5900  176.2180  137.2110 C   0  0  0  0  0  3  0  0  0  0  0  0
  191.4290  175.9640  138.3090 C   0  0  0  0  0  0  0  0  0  0  0  0
  192.1440  174.3830  136.5940 C   0  0  0  0  0  0  0  0  0  0  0  0
  186.6300  178.9460  140.4350 N   0  0  0  0  0  2  0  0  0  0  0  0
  184.5710  179.7920  139.7710 O   0  0  0  0  0  0  0  0  0  0  0  0
  185.1960  178.9800  140.5030 C   0  0  0  0  0  0  0  0  0  0  0  0
  184.4090  178.0480  141.3700 C   0  0  0  0  0  2  0  0  0  0  0  0
  183.2220  178.7610  141.9970 C   0  0  0  0  0  2  0  0  0  0  0  0
  181.9880  178.3880  141.3110 N   0  0  0  0  0  2  0  0  0  0  0  0
  180.3350  180.0590  141.2300 O   0  0  0  0  0  1  0  0  0  0  0  0
  180.8430  178.9990  141.9850 C   0  0  0  0  0  3  0  0  0  0  0  0
  181.1990  179.4450  143.2600 O   0  0  0  0  0  1  0  0  0  0  0  0
  190.6860  176.3680  143.5940 C   0  0  0  0  0  2  0  0  0  0  0  0
  190.8770  177.1710  144.8700 C   0  0  0  0  0  2  0  0  0  0  0  0
  191.7260  176.4010  145.8700 C   0  0  0  0  0  2  0  0  0  0  0  0
  191.7720  177.2570  148.0990 O   0  0  0  0  0  1  0  0  0  0  0  0
  191.0820  176.3900  147.2510 C   0  0  1  0  0  3  0  0  0  0  0  0
  189.6340  176.8410  147.1520 C   0  0  0  0  0  2  0  0  0  0  0  0
  189.3260  177.9300  148.1670 C   0  0  0  0  0  2  0  0  0  0  0  0
  187.8260  178.0790  148.3370 C   0  0  0  0  0  2  0  0  0  0  0  0
  187.1990  177.9260  147.1010 O   0  0  0  0  0  0  0  0  0  0  0  0
  186.1250  178.8150  147.1440 C   0  0  0  0  0  2  0  0  0  0  0  0
  184.7650  178.8780  145.4100 C   0  0  0  0  0  1  0  0  0  0  0  0
  184.9920  178.2040  146.6090 O   0  0  0  0  0  0  0  0  0  0  0  0
  1  2  1  0  0  0  0
  3  1  2  0  0  0  0
  4  5  1  0  0  0  0
  5  8  1  0  0  0  0
  6  7  1  0  0  0  0
  6  9  1  0  0  0  0
  7  4  2  0  0  0  0
  8  2  1  0  0  0  0
  8 27  1  0  0  0  0
  9  3  1  0  0  0  0
  9  5  2  0  0  0  0
 10 17  2  0  0  0  0
 10 15  1  0  0  0  0
 11 16  1  0  0  0  0
 12 17  1  0  0  0  0
 14 13  1  0  0  0  0
 14 16  2  0  0  0  0
 15 11  2  0  0  0  0
 16  7  1  0  0  0  0
 17 14  1  0  0  0  0
 18 20  1  0  0  0  0
 18  3  1  0  0  0  0
 19 20  2  0  0  0  0
 20 21  1  0  0  0  0
 21 22  1  0  0  0  0
 23 25  1  0  0  0  0
 23 22  1  0  0  0  0
 24 25  1  0  0  0  0
 25 26  1  0  0  0  0
 27 28  1  0  0  0  0
 28 29  1  0  0  0  0
 29 31  1  0  0  0  0
 31 30  1  1  0  0  0
 32 31  1  0  0  0  0
 32 33  1  0  0  0  0
 33 34  1  0  0  0  0
 35 36  1  0  0  0  0
 35 34  1  0  0  0  0
 37 38  1  0  0  0  0
 38 36  1  0  0  0  0
M  END
>  <MODEL>
1

>  <REMARK>
 VINA RESULT:      -7.7      0.000      0.000
  Name = 
  16 active torsions:
  status: ('A' for Active; 'I' for Inactive)
    1  A    between atoms: C_3  and  C_11
    2  A    between atoms: C_3  and  C_27
    3  A    between atoms: C_4  and  C_11
    4  A    between atoms: C_4  and  C_34
    5  A    between atoms: C_5  and  O_35
    6  A    between atoms: C_5  and  O_38
    7  A    between atoms: C_9  and  N_10
    8  A    between atoms: C_17  and  C_25
    9  A    between atoms: C_17  and  C_30
   10  A    between atoms: C_18  and  C_34
   11  A    between atoms: C_18  and  O_35
   12  A    between atoms: C_20  and  N_32
   13  A    between atoms: C_21  and  C_27
   14  A    between atoms: C_21  and  N_36
   15  A    between atoms: C_28  and  C_33
   16  A    between atoms: C_30  and  N_32
                            x       y       z     vdW  Elec       q    Type
                         _______ _______ _______ _____ _____    ______ ____

>  <TORSDO>
F 16

$$$$
=
 OpenBabel11042410033D

 38 40  0  0  1  0  0  0  0  0999 V2000
  185.3990  178.7200  142.6130 C   0  0  0  0  0  3  0  0  0  0  0  0
  186.0620  177.8660  143.6810 C   0  0  0  0  0  2  0  0  0  0  0  0
  185.8860  178.8520  141.3690 C   0  0  0  0  0  0  0  0  0  0  0  0
  189.1530  177.1690  141.6220 N   0  0  0  0  0  0  0  0  0  0  0  0
  187.9440  177.6330  142.0340 C   0  0  0  0  0  0  0  0  0  0  0  0
  188.0330  178.2210  139.6200 S   0  0  0  0  0  0  0  0  0  0  0  0
  189.3590  177.4080  140.3020 C   0  0  0  0  0  0  0  0  0  0  0  0
  187.4670  177.5510  143.3830 N   0  0  0  0  0  0  0  0  0  0  0  0
  187.1820  178.2430  141.0660 C   0  0  0  0  0  0  0  0  0  0  0  0
  193.0410  176.3030  138.3830 C   0  0  0  0  0  3  0  0  0  0  0  0
  191.8250  177.4510  140.1250 C   0  0  0  0  0  3  0  0  0  0  0  0
  191.8580  175.0610  136.7380 F   0  0  0  0  0  0  0  0  0  0  0  0
  189.4420  175.7050  137.8820 O   0  0  0  0  0  1  0  0  0  0  0  0
  190.6180  176.1840  138.4480 C   0  0  0  0  0  0  0  0  0  0  0  0
  193.0360  177.1080  139.5220 C   0  0  0  0  0  3  0  0  0  0  0  0
  190.6030  177.0010  139.6040 C   0  0  0  0  0  0  0  0  0  0  0  0
  191.8380  175.8430  137.8470 C   0  0  0  0  0  0  0  0  0  0  0  0
  185.2270  179.6400  140.3650 N   0  0  0  0  0  2  0  0  0  0  0  0
  183.4800  180.2780  138.9740 O   0  0  0  0  0  0  0  0  0  0  0  0
  183.9460  179.4110  139.7590 C   0  0  0  0  0  0  0  0  0  0  0  0
  183.1650  178.1540  139.9800 C   0  0  0  0  0  2  0  0  0  0  0  0
  181.8160  178.4560  140.6120 C   0  0  0  0  0  2  0  0  0  0  0  0
  181.9880  178.8480  142.0080 N   0  0  0  0  0  2  0  0  0  0  0  0
  179.7190  178.2290  142.0270 O   0  0  0  0  0  1  0  0  0  0  0  0
  180.6790  179.0410  142.6330 C   0  0  0  0  0  3  0  0  0  0  0  0
  180.2900  180.3800  142.5630 O   0  0  0  0  0  1  0  0  0  0  0  0
  188.2800  176.9430  144.4250 C   0  0  0  0  0  2  0  0  0  0  0  0
  187.6910  177.2570  145.7910 C   0  0  0  0  0  2  0  0  0  0  0  0
  188.4990  178.3380  146.4920 C   0  0  0  0  0  2  0  0  0  0  0  0
  188.1260  177.6780  148.7560 O   0  0  0  0  0  1  0  0  0  0  0  0
  189.1170  177.8200  147.7840 C   0  0  1  0  0  3  0  0  0  0  0  0
  189.7700  176.4680  147.5400 C   0  0  0  0  0  2  0  0  0  0  0  0
  191.2850  176.5880  147.5000 C   0  0  0  0  0  2  0  0  0  0  0  0
  191.7900  176.3770  146.0850 C   0  0  0  0  0  2  0  0  0  0  0  0
  191.8400  177.6010  145.4200 O   0  0  0  0  0  0  0  0  0  0  0  0
  191.6950  177.2690  144.0730 C   0  0  0  0  0  2  0  0  0  0  0  0
  191.0550  179.3790  144.0190 C   0  0  0  0  0  1  0  0  0  0  0  0
  191.7730  178.4260  143.2970 O   0  0  0  0  0  0  0  0  0  0  0  0
  1  2  1  0  0  0  0
  3  1  2  0  0  0  0
  4  5  1  0  0  0  0
  5  8  1  0  0  0  0
  6  7  1  0  0  0  0
  6  9  1  0  0  0  0
  7  4  2  0  0  0  0
  8  2  1  0  0  0  0
  8 27  1  0  0  0  0
  9  3  1  0  0  0  0
  9  5  2  0  0  0  0
 10 15  1  0  0  0  0
 12 17  1  0  0  0  0
 13 14  1  0  0  0  0
 14 16  2  0  0  0  0
 15 11  2  0  0  0  0
 16 11  1  0  0  0  0
 16  7  1  0  0  0  0
 17 10  2  0  0  0  0
 17 14  1  0  0  0  0
 18  3  1  0  0  0  0
 19 20  2  0  0  0  0
 20 21  1  0  0  0  0
 20 18  1  0  0  0  0
 21 22  1  0  0  0  0
 22 23  1  0  0  0  0
 23 25  1  0  0  0  0
 24 25  1  0  0  0  0
 26 25  1  0  0  0  0
 27 28  1  0  0  0  0
 28 29  1  0  0  0  0
 29 31  1  0  0  0  0
 31 30  1  1  0  0  0
 32 31  1  0  0  0  0
 33 32  1  0  0  0  0
 34 33  1  0  0  0  0
 35 34  1  0  0  0  0
 36 35  1  0  0  0  0
 38 37  1  0  0  0  0
 38 36  1  0  0  0  0
M  END
>  <MODEL>
2

>  <REMARK>
 VINA RESULT:      -7.6      1.679      2.989
  Name = 
  16 active torsions:
  status: ('A' for Active; 'I' for Inactive)
    1  A    between atoms: C_3  and  C_11
    2  A    between atoms: C_3  and  C_27
    3  A    between atoms: C_4  and  C_11
    4  A    between atoms: C_4  and  C_34
    5  A    between atoms: C_5  and  O_35
    6  A    between atoms: C_5  and  O_38
    7  A    between atoms: C_9  and  N_10
    8  A    between atoms: C_17  and  C_25
    9  A    between atoms: C_17  and  C_30
   10  A    between atoms: C_18  and  C_34
   11  A    between atoms: C_18  and  O_35
   12  A    between atoms: C_20  and  N_32
   13  A    between atoms: C_21  and  C_27
   14  A    between atoms: C_21  and  N_36
   15  A    between atoms: C_28  and  C_33
   16  A    between atoms: C_30  and  N_32
                            x       y       z     vdW  Elec       q    Type
                         _______ _______ _______ _____ _____    ______ ____

>  <TORSDO>
F 16

$$$$
=
 OpenBabel11042410033D

 38 40  0  0  1  0  0  0  0  0999 V2000
  190.1010  177.4370  139.2450 C   0  0  0  0  0  3  0  0  0  0  0  0
  190.7320  176.7880  140.4660 C   0  0  0  0  0  2  0  0  0  0  0  0
  188.9360  178.1020  139.2840 C   0  0  0  0  0  0  0  0  0  0  0  0
  187.7430  177.3930  142.6970 N   0  0  0  0  0  0  0  0  0  0  0  0
  188.5770  177.3560  141.6250 C   0  0  0  0  0  0  0  0  0  0  0  0
  186.7170  178.8360  140.8980 S   0  0  0  0  0  0  0  0  0  0  0  0
  186.6600  178.1790  142.4630 C   0  0  0  0  0  0  0  0  0  0  0  0
  189.7820  176.5820  141.5700 N   0  0  0  0  0  0  0  0  0  0  0  0
  188.1780  178.0940  140.5370 C   0  0  0  0  0  0  0  0  0  0  0  0
  183.6820  178.7870  145.4990 C   0  0  0  0  0  3  0  0  0  0  0  0
  185.9790  178.4780  144.8210 C   0  0  0  0  0  3  0  0  0  0  0  0
  181.9600  178.8140  143.8620 F   0  0  0  0  0  0  0  0  0  0  0  0
  183.7780  178.4250  141.8360 O   0  0  0  0  0  1  0  0  0  0  0  0
  184.2230  178.5040  143.1500 C   0  0  0  0  0  0  0  0  0  0  0  0
  185.0330  178.6750  145.8280 C   0  0  0  0  0  3  0  0  0  0  0  0
  185.5960  178.3890  143.4740 C   0  0  0  0  0  0  0  0  0  0  0  0
  183.2780  178.7030  144.1670 C   0  0  0  0  0  0  0  0  0  0  0  0
  188.3720  178.7340  138.1240 N   0  0  0  0  0  2  0  0  0  0  0  0
  186.9450  178.9460  136.3050 O   0  0  0  0  0  0  0  0  0  0  0  0
  187.4090  178.1980  137.2040 C   0  0  0  0  0  0  0  0  0  0  0  0
  186.9750  176.7660  137.2380 C   0  0  0  0  0  2  0  0  0  0  0  0
  187.8730  175.9050  136.3640 C   0  0  0  0  0  2  0  0  0  0  0  0
  188.5090  174.8630  137.1640 N   0  0  0  0  0  2  0  0  0  0  0  0
  190.6740  174.1150  137.6970 O   0  0  0  0  0  1  0  0  0  0  0  0
  189.8680  174.6250  136.6780 C   0  0  0  0  0  3  0  0  0  0  0  0
  190.4250  175.8010  136.1690 O   0  0  0  0  0  1  0  0  0  0  0  0
  190.1950  175.7640  142.6990 C   0  0  0  0  0  2  0  0  0  0  0  0
  191.5960  176.1570  143.1400 C   0  0  0  0  0  2  0  0  0  0  0  0
  191.5860  176.6880  144.5650 C   0  0  0  0  0  2  0  0  0  0  0  0
  191.6570  178.7280  143.3240 O   0  0  0  0  0  1  0  0  0  0  0  0
  191.4070  178.2010  144.5920 C   0  0  1  0  0  3  0  0  0  0  0  0
  189.9840  178.5470  145.0000 C   0  0  0  0  0  2  0  0  0  0  0  0
  189.3720  177.4460  145.8500 C   0  0  0  0  0  2  0  0  0  0  0  0
  189.3650  177.8530  147.3120 C   0  0  0  0  0  2  0  0  0  0  0  0
  190.3850  177.1840  147.9860 O   0  0  0  0  0  0  0  0  0  0  0  0
  190.3890  175.9050  147.4300 C   0  0  0  0  0  2  0  0  0  0  0  0
  192.5090  176.1360  147.9920 C   0  0  0  0  0  1  0  0  0  0  0  0
  191.4860  175.1910  147.9110 O   0  0  0  0  0  0  0  0  0  0  0  0
  1  3  2  0  0  0  0
  1  2  1  0  0  0  0
  2  8  1  0  0  0  0
  3  9  1  0  0  0  0
  5  4  1  0  0  0  0
  6  7  1  0  0  0  0
  7  4  2  0  0  0  0
  7 16  1  0  0  0  0
  8  5  1  0  0  0  0
  8 27  1  0  0  0  0
  9  6  1  0  0  0  0
  9  5  2  0  0  0  0
 10 15  1  0  0  0  0
 11 15  2  0  0  0  0
 12 17  1  0  0  0  0
 13 14  1  0  0  0  0
 14 16  2  0  0  0  0
 14 17  1  0  0  0  0
 16 11  1  0  0  0  0
 17 10  2  0  0  0  0
 18  3  1  0  0  0  0
 19 20  2  0  0  0  0
 20 21  1  0  0  0  0
 20 18  1  0  0  0  0
 22 23  1  0  0  0  0
 22 21  1  0  0  0  0
 25 23  1  0  0  0  0
 25 24  1  0  0  0  0
 26 25  1  0  0  0  0
 27 28  1  0  0  0  0
 28 29  1  0  0  0  0
 29 31  1  0  0  0  0
 31 30  1  6  0  0  0
 31 32  1  0  0  0  0
 32 33  1  0  0  0  0
 33 34  1  0  0  0  0
 34 35  1  0  0  0  0
 36 38  1  0  0  0  0
 36 35  1  0  0  0  0
 38 37  1  0  0  0  0
M  END
>  <MODEL>
3

>  <REMARK>
 VINA RESULT:      -7.5      3.312      7.208
  Name = 
  16 active torsions:
  status: ('A' for Active; 'I' for Inactive)
    1  A    between atoms: C_3  and  C_11
    2  A    between atoms: C_3  and  C_27
    3  A    between atoms: C_4  and  C_11
    4  A    between atoms: C_4  and  C_34
    5  A    between atoms: C_5  and  O_35
    6  A    between atoms: C_5  and  O_38
    7  A    between atoms: C_9  and  N_10
    8  A    between atoms: C_17  and  C_25
    9  A    between atoms: C_17  and  C_30
   10  A    between atoms: C_18  and  C_34
   11  A    between atoms: C_18  and  O_35
   12  A    between atoms: C_20  and  N_32
   13  A    between atoms: C_21  and  C_27
   14  A    between atoms: C_21  and  N_36
   15  A    between atoms: C_28  and  C_33
   16  A    between atoms: C_30  and  N_32
                            x       y       z     vdW  Elec       q    Type
                         _______ _______ _______ _____ _____    ______ ____

>  <TORSDO>
F 16

$$$$
=
 OpenBabel11042410033D

 38 40  0  0  1  0  0  0  0  0999 V2000
  186.4120  178.2200  137.5570 C   0  0  0  0  0  3  0  0  0  0  0  0
  185.4120  178.4910  138.6690 C   0  0  0  0  0  2  0  0  0  0  0  0
  187.6880  177.8700  137.7840 C   0  0  0  0  0  0  0  0  0  0  0  0
  187.9870  178.3120  141.4290 N   0  0  0  0  0  0  0  0  0  0  0  0
  187.3880  178.3070  140.2090 C   0  0  0  0  0  0  0  0  0  0  0  0
  189.6860  177.4710  139.7630 S   0  0  0  0  0  0  0  0  0  0  0  0
  189.2680  177.8690  141.3600 C   0  0  0  0  0  0  0  0  0  0  0  0
  186.0470  178.7530  139.9690 N   0  0  0  0  0  0  0  0  0  0  0  0
  188.1690  177.8710  139.1660 C   0  0  0  0  0  0  0  0  0  0  0  0
  191.8030  177.7520  144.8270 C   0  0  0  0  0  3  0  0  0  0  0  0
  190.5440  178.9730  143.1680 C   0  0  0  0  0  3  0  0  0  0  0  0
  191.8500  175.3770  144.7620 F   0  0  0  0  0  0  0  0  0  0  0  0
  190.2320  175.3310  142.5400 O   0  0  0  0  0  1  0  0  0  0  0  0
  190.5910  176.5510  143.1010 C   0  0  0  0  0  0  0  0  0  0  0  0
  191.3660  178.9640  144.2950 C   0  0  0  0  0  3  0  0  0  0  0  0
  190.1440  177.7770  142.5540 C   0  0  0  0  0  0  0  0  0  0  0  0
  191.4180  176.5490  144.2340 C   0  0  0  0  0  0  0  0  0  0  0  0
  188.6090  177.5890  136.7180 N   0  0  0  0  0  2  0  0  0  0  0  0
  189.7950  176.2530  135.2350 O   0  0  0  0  0  0  0  0  0  0  0  0
  189.0710  176.3080  136.2620 C   0  0  0  0  0  0  0  0  0  0  0  0
  188.7710  175.0380  136.9940 C   0  0  0  0  0  2  0  0  0  0  0  0
  189.9800  174.1160  137.0020 C   0  0  0  0  0  2  0  0  0  0  0  0
  190.9340  174.5410  138.0210 N   0  0  0  0  0  2  0  0  0  0  0  0
  193.0010  173.7240  137.2530 O   0  0  0  0  0  1  0  0  0  0  0  0
  192.2150  174.8690  137.3950 C   0  0  0  0  0  3  0  0  0  0  0  0
  192.8980  175.8320  138.1410 O   0  0  0  0  0  1  0  0  0  0  0  0
  185.2220  179.2540  141.0580 C   0  0  0  0  0  2  0  0  0  0  0  0
  184.0950  178.2760  141.3470 C   0  0  0  0  0  2  0  0  0  0  0  0
  184.0300  177.9510  142.8310 C   0  0  0  0  0  2  0  0  0  0  0  0
  182.0520  179.0060  143.6520 O   0  0  0  0  0  1  0  0  0  0  0  0
  183.4430  179.1090  143.6290 C   0  0  1  0  0  3  0  0  0  0  0  0
  183.9670  179.0740  145.0550 C   0  0  0  0  0  2  0  0  0  0  0  0
  185.4410  178.7020  145.0920 C   0  0  0  0  0  2  0  0  0  0  0  0
  185.8440  178.2910  146.4950 C   0  0  0  0  0  2  0  0  0  0  0  0
  187.2340  178.2390  146.5850 O   0  0  0  0  0  0  0  0  0  0  0  0
  187.4890  178.1030  147.9490 C   0  0  0  0  0  2  0  0  0  0  0  0
  189.3590  177.0430  147.4600 C   0  0  0  0  0  1  0  0  0  0  0  0
  188.8650  178.1350  148.1720 O   0  0  0  0  0  0  0  0  0  0  0  0
  1  3  2  0  0  0  0
  1  2  1  0  0  0  0
  2  8  1  0  0  0  0
  3  9  1  0  0  0  0
  5  4  1  0  0  0  0
  6  7  1  0  0  0  0
  7  4  2  0  0  0  0
  7 16  1  0  0  0  0
  8  5  1  0  0  0  0
  8 27  1  0  0  0  0
  9  6  1  0  0  0  0
  9  5  2  0  0  0  0
 11 15  2  0  0  0  0
 13 14  1  0  0  0  0
 14 17  1  0  0  0  0
 15 10  1  0  0  0  0
 16 14  2  0  0  0  0
 16 11  1  0  0  0  0
 17 12  1  0  0  0  0
 17 10  2  0  0  0  0
 18  3  1  0  0  0  0
 19 20  2  0  0  0  0
 20 18  1  0  0  0  0
 20 21  1  0  0  0  0
 21 22  1  0  0  0  0
 22 23  1  0  0  0  0
 24 25  1  0  0  0  0
 25 23  1  0  0  0  0
 25 26  1  0  0  0  0
 27 28  1  0  0  0  0
 28 29  1  0  0  0  0
 29 31  1  0  0  0  0
 31 30  1  1  0  0  0
 31 32  1  0  0  0  0
 32 33  1  0  0  0  0
 33 34  1  0  0  0  0
 34 35  1  0  0  0  0
 35 36  1  0  0  0  0
 36 38  1  0  0  0  0
 37 38  1  0  0  0  0
M  END
>  <MODEL>
4

>  <REMARK>
 VINA RESULT:      -7.3      2.564      7.173
  Name = 
  16 active torsions:
  status: ('A' for Active; 'I' for Inactive)
    1  A    between atoms: C_3  and  C_11
    2  A    between atoms: C_3  and  C_27
    3  A    between atoms: C_4  and  C_11
    4  A    between atoms: C_4  and  C_34
    5  A    between atoms: C_5  and  O_35
    6  A    between atoms: C_5  and  O_38
    7  A    between atoms: C_9  and  N_10
    8  A    between atoms: C_17  and  C_25
    9  A    between atoms: C_17  and  C_30
   10  A    between atoms: C_18  and  C_34
   11  A    between atoms: C_18  and  O_35
   12  A    between atoms: C_20  and  N_32
   13  A    between atoms: C_21  and  C_27
   14  A    between atoms: C_21  and  N_36
   15  A    between atoms: C_28  and  C_33
   16  A    between atoms: C_30  and  N_32
                            x       y       z     vdW  Elec       q    Type
                         _______ _______ _______ _____ _____    ______ ____

>  <TORSDO>
F 16

$$$$
=
 OpenBabel11042410033D

 38 40  0  0  1  0  0  0  0  0999 V2000
  185.2470  178.7660  142.5180 C   0  0  0  0  0  3  0  0  0  0  0  0
  185.8960  177.9230  143.6030 C   0  0  0  0  0  2  0  0  0  0  0  0
  185.7530  178.8900  141.2810 C   0  0  0  0  0  0  0  0  0  0  0  0
  189.0240  177.2240  141.6020 N   0  0  0  0  0  0  0  0  0  0  0  0
  187.8050  177.6860  141.9890 C   0  0  0  0  0  0  0  0  0  0  0  0
  187.9330  178.2550  139.5730 S   0  0  0  0  0  0  0  0  0  0  0  0
  189.2510  177.4540  140.2830 C   0  0  0  0  0  0  0  0  0  0  0  0
  187.3070  177.6130  143.3310 N   0  0  0  0  0  0  0  0  0  0  0  0
  187.0570  178.2840  141.0040 C   0  0  0  0  0  0  0  0  0  0  0  0
  192.9690  176.3500  138.4350 C   0  0  0  0  0  3  0  0  0  0  0  0
  191.7200  177.4930  140.1570 C   0  0  0  0  0  3  0  0  0  0  0  0
  191.8170  175.1160  136.7620 F   0  0  0  0  0  0  0  0  0  0  0  0
  189.3800  175.7600  137.8590 O   0  0  0  0  0  1  0  0  0  0  0  0
  190.5450  176.2350  138.4510 C   0  0  0  0  0  0  0  0  0  0  0  0
  192.9420  177.1490  139.5770 C   0  0  0  0  0  3  0  0  0  0  0  0
  190.5080  177.0470  139.6090 C   0  0  0  0  0  0  0  0  0  0  0  0
  191.7760  175.8930  137.8730 C   0  0  0  0  0  0  0  0  0  0  0  0
  185.1080  179.6670  140.2600 N   0  0  0  0  0  2  0  0  0  0  0  0
  183.4050  180.2470  138.7910 O   0  0  0  0  0  0  0  0  0  0  0  0
  183.8740  179.3870  139.5820 C   0  0  0  0  0  0  0  0  0  0  0  0
  183.1490  178.0870  139.7350 C   0  0  0  0  0  2  0  0  0  0  0  0
  183.7330  177.0270  138.8150 C   0  0  0  0  0  2  0  0  0  0  0  0
  184.1720  177.6310  137.5620 N   0  0  0  0  0  2  0  0  0  0  0  0
  186.0210  176.2420  137.1300 O   0  0  0  0  0  1  0  0  0  0  0  0
  184.7460  176.6050  136.6910 C   0  0  0  0  0  3  0  0  0  0  0  0
  184.8020  177.0530  135.3690 O   0  0  0  0  0  1  0  0  0  0  0  0
  188.1050  177.0170  144.3910 C   0  0  0  0  0  2  0  0  0  0  0  0
  187.5270  177.3890  145.7470 C   0  0  0  0  0  2  0  0  0  0  0  0
  188.4200  178.3930  146.4580 C   0  0  0  0  0  2  0  0  0  0  0  0
  188.0280  177.6180  148.6830 O   0  0  0  0  0  1  0  0  0  0  0  0
  189.0260  177.7990  147.7240 C   0  0  1  0  0  3  0  0  0  0  0  0
  189.6630  176.4550  147.4120 C   0  0  0  0  0  2  0  0  0  0  0  0
  191.1780  176.5240  147.5220 C   0  0  0  0  0  2  0  0  0  0  0  0
  191.8120  176.3510  146.1540 C   0  0  0  0  0  2  0  0  0  0  0  0
  191.7820  177.5660  145.4700 O   0  0  0  0  0  0  0  0  0  0  0  0
  191.6640  177.2050  144.1280 C   0  0  0  0  0  2  0  0  0  0  0  0
  190.9900  179.2950  143.9320 C   0  0  0  0  0  1  0  0  0  0  0  0
  191.8030  178.3380  143.3270 O   0  0  0  0  0  0  0  0  0  0  0  0
  1  2  1  0  0  0  0
  3  1  2  0  0  0  0
  4  5  1  0  0  0  0
  5  8  1  0  0  0  0
  6  7  1  0  0  0  0
  6  9  1  0  0  0  0
  7  4  2  0  0  0  0
  8  2  1  0  0  0  0
  8 27  1  0  0  0  0
  9  3  1  0  0  0  0
  9  5  2  0  0  0  0
 10 15  1  0  0  0  0
 12 17  1  0  0  0  0
 13 14  1  0  0  0  0
 14 16  2  0  0  0  0
 15 11  2  0  0  0  0
 16 11  1  0  0  0  0
 16  7  1  0  0  0  0
 17 10  2  0  0  0  0
 17 14  1  0  0  0  0
 18  3  1  0  0  0  0
 19 20  2  0  0  0  0
 20 21  1  0  0  0  0
 20 18  1  0  0  0  0
 22 21  1  0  0  0  0
 23 22  1  0  0  0  0
 25 24  1  0  0  0  0
 25 23  1  0  0  0  0
 26 25  1  0  0  0  0
 27 28  1  0  0  0  0
 28 29  1  0  0  0  0
 29 31  1  0  0  0  0
 31 30  1  1  0  0  0
 32 33  1  0  0  0  0
 32 31  1  0  0  0  0
 34 33  1  0  0  0  0
 35 34  1  0  0  0  0
 36 35  1  0  0  0  0
 38 37  1  0  0  0  0
 38 36  1  0  0  0  0
M  END
>  <MODEL>
5

>  <REMARK>
 VINA RESULT:      -7.1      2.240      3.856
  Name = 
  16 active torsions:
  status: ('A' for Active; 'I' for Inactive)
    1  A    between atoms: C_3  and  C_11
    2  A    between atoms: C_3  and  C_27
    3  A    between atoms: C_4  and  C_11
    4  A    between atoms: C_4  and  C_34
    5  A    between atoms: C_5  and  O_35
    6  A    between atoms: C_5  and  O_38
    7  A    between atoms: C_9  and  N_10
    8  A    between atoms: C_17  and  C_25
    9  A    between atoms: C_17  and  C_30
   10  A    between atoms: C_18  and  C_34
   11  A    between atoms: C_18  and  O_35
   12  A    between atoms: C_20  and  N_32
   13  A    between atoms: C_21  and  C_27
   14  A    between atoms: C_21  and  N_36
   15  A    between atoms: C_28  and  C_33
   16  A    between atoms: C_30  and  N_32
                            x       y       z     vdW  Elec       q    Type
                         _______ _______ _______ _____ _____    ______ ____

>  <TORSDO>
F 16

$$$$
=
 OpenBabel11042410033D

 38 40  0  0  1  0  0  0  0  0999 V2000
  186.4790  177.9320  137.5520 C   0  0  0  0  0  3  0  0  0  0  0  0
  185.4840  178.3330  138.6280 C   0  0  0  0  0  2  0  0  0  0  0  0
  187.7370  177.5460  137.8190 C   0  0  0  0  0  0  0  0  0  0  0  0
  188.0290  178.2630  141.4210 N   0  0  0  0  0  0  0  0  0  0  0  0
  187.4390  178.1860  140.1990 C   0  0  0  0  0  0  0  0  0  0  0  0
  189.7010  177.2210  139.8440 S   0  0  0  0  0  0  0  0  0  0  0  0
  189.2900  177.7610  141.4000 C   0  0  0  0  0  0  0  0  0  0  0  0
  186.1210  178.6690  139.9110 N   0  0  0  0  0  0  0  0  0  0  0  0
  188.2080  177.6360  139.2020 C   0  0  0  0  0  0  0  0  0  0  0  0
  191.7900  177.8110  144.8950 C   0  0  0  0  0  3  0  0  0  0  0  0
  190.5740  178.9510  143.1480 C   0  0  0  0  0  3  0  0  0  0  0  0
  191.7840  175.4360  144.9820 F   0  0  0  0  0  0  0  0  0  0  0  0
  190.1850  175.2830  142.7500 O   0  0  0  0  0  1  0  0  0  0  0  0
  190.5670  176.5290  143.2360 C   0  0  0  0  0  0  0  0  0  0  0  0
  191.3860  178.9960  144.2820 C   0  0  0  0  0  3  0  0  0  0  0  0
  190.1530  177.7260  142.6070 C   0  0  0  0  0  0  0  0  0  0  0  0
  191.3830  176.5810  144.3750 C   0  0  0  0  0  0  0  0  0  0  0  0
  188.6520  177.1420  136.7880 N   0  0  0  0  0  2  0  0  0  0  0  0
  189.5230  175.7450  135.1510 O   0  0  0  0  0  0  0  0  0  0  0  0
  188.7210  175.8780  136.1120 C   0  0  0  0  0  0  0  0  0  0  0  0
  187.9150  174.6920  136.5390 C   0  0  0  0  0  2  0  0  0  0  0  0
  186.6100  174.6130  135.7650 C   0  0  0  0  0  2  0  0  0  0  0  0
  185.9050  173.3760  136.0860 N   0  0  0  0  0  2  0  0  0  0  0  0
  185.3240  172.9690  138.3280 O   0  0  0  0  0  1  0  0  0  0  0  0
  184.9370  173.6200  137.1560 C   0  0  0  0  0  3  0  0  0  0  0  0
  183.6600  173.2030  136.7720 O   0  0  0  0  0  1  0  0  0  0  0  0
  185.3110  179.2900  140.9470 C   0  0  0  0  0  2  0  0  0  0  0  0
  184.3750  178.2610  141.5610 C   0  0  0  0  0  2  0  0  0  0  0  0
  183.5520  178.8790  142.6810 C   0  0  0  0  0  2  0  0  0  0  0  0
  183.5700  179.3740  145.0170 O   0  0  0  0  0  1  0  0  0  0  0  0
  184.3990  179.1180  143.9240 C   0  0  1  0  0  3  0  0  0  0  0  0
  185.2450  177.8900  144.2200 C   0  0  0  0  0  2  0  0  0  0  0  0
  186.1100  178.1000  145.4520 C   0  0  0  0  0  2  0  0  0  0  0  0
  187.5710  177.8780  145.1120 C   0  0  0  0  0  2  0  0  0  0  0  0
  188.1570  177.0650  146.0820 O   0  0  0  0  0  0  0  0  0  0  0  0
  188.9620  177.9320  146.8200 C   0  0  0  0  0  2  0  0  0  0  0  0
  188.3050  177.8710  148.9240 C   0  0  0  0  0  1  0  0  0  0  0  0
  189.2620  177.3520  148.0530 O   0  0  0  0  0  0  0  0  0  0  0  0
  1  3  2  0  0  0  0
  1  2  1  0  0  0  0
  2  8  1  0  0  0  0
  3  9  1  0  0  0  0
  5  4  1  0  0  0  0
  6  7  1  0  0  0  0
  7  4  2  0  0  0  0
  7 16  1  0  0  0  0
  8  5  1  0  0  0  0
  8 27  1  0  0  0  0
  9  6  1  0  0  0  0
  9  5  2  0  0  0  0
 11 15  1  0  0  0  0
 13 14  1  0  0  0  0
 14 17  2  0  0  0  0
 15 10  2  0  0  0  0
 16 11  2  0  0  0  0
 16 14  1  0  0  0  0
 17 10  1  0  0  0  0
 17 12  1  0  0  0  0
 18  3  1  0  0  0  0
 19 20  2  0  0  0  0
 20 21  1  0  0  0  0
 20 18  1  0  0  0  0
 22 23  1  0  0  0  0
 22 21  1  0  0  0  0
 23 25  1  0  0  0  0
 25 24  1  0  0  0  0
 26 25  1  0  0  0  0
 27 28  1  0  0  0  0
 28 29  1  0  0  0  0
 29 31  1  0  0  0  0
 31 32  1  0  0  0  0
 31 30  1  1  0  0  0
 32 33  1  0  0  0  0
 34 33  1  0  0  0  0
 34 35  1  0  0  0  0
 35 36  1  0  0  0  0
 36 38  1  0  0  0  0
 38 37  1  0  0  0  0
M  END
>  <MODEL>
6

>  <REMARK>
 VINA RESULT:      -7.0      3.325      6.351
  Name = 
  16 active torsions:
  status: ('A' for Active; 'I' for Inactive)
    1  A    between atoms: C_3  and  C_11
    2  A    between atoms: C_3  and  C_27
    3  A    between atoms: C_4  and  C_11
    4  A    between atoms: C_4  and  C_34
    5  A    between atoms: C_5  and  O_35
    6  A    between atoms: C_5  and  O_38
    7  A    between atoms: C_9  and  N_10
    8  A    between atoms: C_17  and  C_25
    9  A    between atoms: C_17  and  C_30
   10  A    between atoms: C_18  and  C_34
   11  A    between atoms: C_18  and  O_35
   12  A    between atoms: C_20  and  N_32
   13  A    between atoms: C_21  and  C_27
   14  A    between atoms: C_21  and  N_36
   15  A    between atoms: C_28  and  C_33
   16  A    between atoms: C_30  and  N_32
                            x       y       z     vdW  Elec       q    Type
                         _______ _______ _______ _____ _____    ______ ____

>  <TORSDO>
F 16

$$$$
=
 OpenBabel11042410033D

 38 40  0  0  1  0  0  0  0  0999 V2000
  190.5880  177.4010  140.0010 C   0  0  0  0  0  3  0  0  0  0  0  0
  190.8130  177.0920  141.4720 C   0  0  0  0  0  2  0  0  0  0  0  0
  189.4380  177.9000  139.5220 C   0  0  0  0  0  0  0  0  0  0  0  0
  187.2190  177.7180  142.4570 N   0  0  0  0  0  0  0  0  0  0  0  0
  188.3640  177.5840  141.7380 C   0  0  0  0  0  0  0  0  0  0  0  0
  186.7660  178.6340  140.1490 S   0  0  0  0  0  0  0  0  0  0  0  0
  186.2310  178.2920  141.7240 C   0  0  0  0  0  0  0  0  0  0  0  0
  189.5640  176.9810  142.2400 N   0  0  0  0  0  0  0  0  0  0  0  0
  188.3070  178.0360  140.4410 C   0  0  0  0  0  0  0  0  0  0  0  0
  182.3790  179.1000  143.4480 C   0  0  0  0  0  3  0  0  0  0  0  0
  184.7910  179.1100  143.5610 C   0  0  0  0  0  3  0  0  0  0  0  0
  181.2910  178.2760  141.5030 F   0  0  0  0  0  0  0  0  0  0  0  0
  183.7000  177.7160  140.3010 O   0  0  0  0  0  1  0  0  0  0  0  0
  183.6820  178.2690  141.5760 C   0  0  0  0  0  0  0  0  0  0  0  0
  183.5530  179.3830  144.1450 C   0  0  0  0  0  3  0  0  0  0  0  0
  184.8790  178.5520  142.2760 C   0  0  0  0  0  0  0  0  0  0  0  0
  182.4420  178.5460  142.1690 C   0  0  0  0  0  0  0  0  0  0  0  0
  189.2560  178.2130  138.1320 N   0  0  0  0  0  2  0  0  0  0  0  0
  189.2330  177.7980  135.8470 O   0  0  0  0  0  0  0  0  0  0  0  0
  189.5700  177.3980  136.9920 C   0  0  0  0  0  0  0  0  0  0  0  0
  190.3310  176.1150  137.1070 C   0  0  0  0  0  2  0  0  0  0  0  0
  191.3730  176.0010  136.0050 C   0  0  0  0  0  2  0  0  0  0  0  0
  192.5820  175.3630  136.5160 N   0  0  0  0  0  2  0  0  0  0  0  0
  194.8560  175.9600  136.4650 O   0  0  0  0  0  1  0  0  0  0  0  0
  193.5800  176.3810  136.8420 C   0  0  0  0  0  3  0  0  0  0  0  0
  193.5550  176.6780  138.2070 O   0  0  0  0  0  1  0  0  0  0  0  0
  189.6260  176.4620  143.5970 C   0  0  0  0  0  2  0  0  0  0  0  0
  189.7510  177.6090  144.5870 C   0  0  0  0  0  2  0  0  0  0  0  0
  191.0690  177.5290  145.3420 C   0  0  0  0  0  2  0  0  0  0  0  0
  191.9250  176.9640  147.4980 O   0  0  0  0  0  1  0  0  0  0  0  0
  190.9600  176.6120  146.5530 C   0  0  1  0  0  3  0  0  0  0  0  0
  189.5810  176.7440  147.1800 C   0  0  0  0  0  2  0  0  0  0  0  0
  189.5440  177.8740  148.1970 C   0  0  0  0  0  2  0  0  0  0  0  0
  188.1100  178.2880  148.4690 C   0  0  0  0  0  2  0  0  0  0  0  0
  187.2790  177.7690  147.4780 O   0  0  0  0  0  0  0  0  0  0  0  0
  186.9180  178.8770  146.7120 C   0  0  0  0  0  2  0  0  0  0  0  0
  184.8230  178.2530  146.9990 C   0  0  0  0  0  1  0  0  0  0  0  0
  185.6740  179.3490  147.1320 O   0  0  0  0  0  0  0  0  0  0  0  0
  1  2  1  0  0  0  0
  2  8  1  0  0  0  0
  3  1  2  0  0  0  0
  3  9  1  0  0  0  0
  5  8  1  0  0  0  0
  5  4  1  0  0  0  0
  6  9  1  0  0  0  0
  6  7  1  0  0  0  0
  7 16  1  0  0  0  0
  7  4  2  0  0  0  0
  8 27  1  0  0  0  0
  9  5  2  0  0  0  0
 10 15  1  0  0  0  0
 11 15  2  0  0  0  0
 12 17  1  0  0  0  0
 13 14  1  0  0  0  0
 14 17  1  0  0  0  0
 14 16  2  0  0  0  0
 16 11  1  0  0  0  0
 17 10  2  0  0  0  0
 18  3  1  0  0  0  0
 19 20  2  0  0  0  0
 20 21  1  0  0  0  0
 20 18  1  0  0  0  0
 22 23  1  0  0  0  0
 22 21  1  0  0  0  0
 23 25  1  0  0  0  0
 24 25  1  0  0  0  0
 25 26  1  0  0  0  0
 27 28  1  0  0  0  0
 28 29  1  0  0  0  0
 29 31  1  0  0  0  0
 31 32  1  0  0  0  0
 31 30  1  1  0  0  0
 32 33  1  0  0  0  0
 33 34  1  0  0  0  0
 35 34  1  0  0  0  0
 36 38  1  0  0  0  0
 36 35  1  0  0  0  0
 37 38  1  0  0  0  0
M  END
>  <MODEL>
7

>  <REMARK>
 VINA RESULT:      -7.0      2.957      7.426
  Name = 
  16 active torsions:
  status: ('A' for Active; 'I' for Inactive)
    1  A    between atoms: C_3  and  C_11
    2  A    between atoms: C_3  and  C_27
    3  A    between atoms: C_4  and  C_11
    4  A    between atoms: C_4  and  C_34
    5  A    between atoms: C_5  and  O_35
    6  A    between atoms: C_5  and  O_38
    7  A    between atoms: C_9  and  N_10
    8  A    between atoms: C_17  and  C_25
    9  A    between atoms: C_17  and  C_30
   10  A    between atoms: C_18  and  C_34
   11  A    between atoms: C_18  and  O_35
   12  A    between atoms: C_20  and  N_32
   13  A    between atoms: C_21  and  C_27
   14  A    between atoms: C_21  and  N_36
   15  A    between atoms: C_28  and  C_33
   16  A    between atoms: C_30  and  N_32
                            x       y       z     vdW  Elec       q    Type
                         _______ _______ _______ _____ _____    ______ ____

>  <TORSDO>
F 16

$$$$
=
 OpenBabel11042410033D

 38 40  0  0  1  0  0  0  0  0999 V2000
  189.6930  177.8840  139.4480 C   0  0  0  0  0  3  0  0  0  0  0  0
  190.1580  177.7280  140.8870 C   0  0  0  0  0  2  0  0  0  0  0  0
  188.4380  178.2240  139.1130 C   0  0  0  0  0  0  0  0  0  0  0  0
  186.6930  178.0800  142.3540 N   0  0  0  0  0  0  0  0  0  0  0  0
  187.7320  177.9970  141.4820 C   0  0  0  0  0  0  0  0  0  0  0  0
  185.8190  178.7420  140.0810 S   0  0  0  0  0  0  0  0  0  0  0  0
  185.5540  178.4880  141.7390 C   0  0  0  0  0  0  0  0  0  0  0  0
  189.0500  177.5620  141.8400 N   0  0  0  0  0  0  0  0  0  0  0  0
  187.4420  178.3270  140.1800 C   0  0  0  0  0  0  0  0  0  0  0  0
  181.9240  179.0040  143.9790 C   0  0  0  0  0  3  0  0  0  0  0  0
  184.3310  178.8730  143.8540 C   0  0  0  0  0  3  0  0  0  0  0  0
  180.6230  178.7570  142.0050 F   0  0  0  0  0  0  0  0  0  0  0  0
  182.8790  178.4130  140.4710 O   0  0  0  0  0  1  0  0  0  0  0  0
  183.0060  178.6210  141.8400 C   0  0  0  0  0  0  0  0  0  0  0  0
  183.1680  179.0440  144.6060 C   0  0  0  0  0  3  0  0  0  0  0  0
  184.2730  178.6600  142.4680 C   0  0  0  0  0  0  0  0  0  0  0  0
  181.8410  178.7940  142.6020 C   0  0  0  0  0  0  0  0  0  0  0  0
  188.0270  178.3950  137.7470 N   0  0  0  0  0  2  0  0  0  0  0  0
  187.0360  177.7900  135.7370 O   0  0  0  0  0  0  0  0  0  0  0  0
  187.4360  177.4230  136.8720 C   0  0  0  0  0  0  0  0  0  0  0  0
  187.3260  175.9750  137.2350 C   0  0  0  0  0  2  0  0  0  0  0  0
  188.1940  175.1190  136.3270 C   0  0  0  0  0  2  0  0  0  0  0  0
  189.6040  175.4400  136.5250 N   0  0  0  0  0  2  0  0  0  0  0  0
  191.3390  174.8110  137.9820 O   0  0  0  0  0  1  0  0  0  0  0  0
  190.2710  174.3380  137.2180 C   0  0  0  0  0  3  0  0  0  0  0  0
  190.7190  173.3790  136.3070 O   0  0  0  0  0  1  0  0  0  0  0  0
  189.3610  177.1710  143.2060 C   0  0  0  0  0  2  0  0  0  0  0  0
  190.1350  178.2800  143.9000 C   0  0  0  0  0  2  0  0  0  0  0  0
  191.4700  177.7660  144.4160 C   0  0  0  0  0  2  0  0  0  0  0  0
  191.8950  175.4340  144.1240 O   0  0  0  0  0  1  0  0  0  0  0  0
  191.3360  176.3650  145.0000 C   0  0  1  0  0  3  0  0  0  0  0  0
  192.0610  176.2880  146.3340 C   0  0  0  0  0  2  0  0  0  0  0  0
  191.0830  176.3370  147.4960 C   0  0  0  0  0  2  0  0  0  0  0  0
  189.8960  177.2140  147.1460 C   0  0  0  0  0  2  0  0  0  0  0  0
  188.7390  176.6830  147.7150 O   0  0  0  0  0  0  0  0  0  0  0  0
  187.8690  177.7690  147.8100 C   0  0  0  0  0  2  0  0  0  0  0  0
  186.5680  177.5470  146.0430 C   0  0  0  0  0  1  0  0  0  0  0  0
  187.6370  178.2930  146.5380 O   0  0  0  0  0  0  0  0  0  0  0  0
  1  2  1  0  0  0  0
  2  8  1  0  0  0  0
  3  1  2  0  0  0  0
  3  9  1  0  0  0  0
  5  8  1  0  0  0  0
  5  4  1  0  0  0  0
  6  9  1  0  0  0  0
  6  7  1  0  0  0  0
  7  4  2  0  0  0  0
  7 16  1  0  0  0  0
  8 27  1  0  0  0  0
  9  5  2  0  0  0  0
 10 15  1  0  0  0  0
 11 15  2  0  0  0  0
 12 17  1  0  0  0  0
 13 14  1  0  0  0  0
 14 16  2  0  0  0  0
 14 17  1  0  0  0  0
 16 11  1  0  0  0  0
 17 10  2  0  0  0  0
 18  3  1  0  0  0  0
 19 20  2  0  0  0  0
 20 21  1  0  0  0  0
 20 18  1  0  0  0  0
 22 23  1  0  0  0  0
 22 21  1  0  0  0  0
 23 25  1  0  0  0  0
 25 24  1  0  0  0  0
 26 25  1  0  0  0  0
 27 28  1  0  0  0  0
 28 29  1  0  0  0  0
 29 31  1  0  0  0  0
 31 30  1  6  0  0  0
 31 32  1  0  0  0  0
 32 33  1  0  0  0  0
 34 33  1  0  0  0  0
 34 35  1  0  0  0  0
 35 36  1  0  0  0  0
 37 38  1  0  0  0  0
 38 36  1  0  0  0  0
M  END
>  <MODEL>
8

>  <REMARK>
 VINA RESULT:      -6.8      3.158      7.233
  Name = 
  16 active torsions:
  status: ('A' for Active; 'I' for Inactive)
    1  A    between atoms: C_3  and  C_11
    2  A    between atoms: C_3  and  C_27
    3  A    between atoms: C_4  and  C_11
    4  A    between atoms: C_4  and  C_34
    5  A    between atoms: C_5  and  O_35
    6  A    between atoms: C_5  and  O_38
    7  A    between atoms: C_9  and  N_10
    8  A    between atoms: C_17  and  C_25
    9  A    between atoms: C_17  and  C_30
   10  A    between atoms: C_18  and  C_34
   11  A    between atoms: C_18  and  O_35
   12  A    between atoms: C_20  and  N_32
   13  A    between atoms: C_21  and  C_27
   14  A    between atoms: C_21  and  N_36
   15  A    between atoms: C_28  and  C_33
   16  A    between atoms: C_30  and  N_32
                            x       y       z     vdW  Elec       q    Type
                         _______ _______ _______ _____ _____    ______ ____

>  <TORSDO>
F 16

$$$$
=
 OpenBabel11042410033D

 38 40  0  0  1  0  0  0  0  0999 V2000
  181.3590  178.9140  142.1580 C   0  0  0  0  0  3  0  0  0  0  0  0
  182.3520  179.0070  143.3050 C   0  0  0  0  0  2  0  0  0  0  0  0
  181.7190  178.6460  140.8930 C   0  0  0  0  0  0  0  0  0  0  0  0
  185.3960  178.7860  141.0760 N   0  0  0  0  0  0  0  0  0  0  0  0
  184.1130  178.8420  141.5210 C   0  0  0  0  0  0  0  0  0  0  0  0
  183.9000  178.2310  139.1210 S   0  0  0  0  0  0  0  0  0  0  0  0
  185.4570  178.4520  139.7620 C   0  0  0  0  0  0  0  0  0  0  0  0
  183.7390  179.2010  142.8570 N   0  0  0  0  0  0  0  0  0  0  0  0
  183.1480  178.5620  140.5840 C   0  0  0  0  0  0  0  0  0  0  0  0
  189.1030  178.0840  137.5190 C   0  0  0  0  0  3  0  0  0  0  0  0
  186.7000  178.2900  137.6300 C   0  0  0  0  0  3  0  0  0  0  0  0
  190.3780  178.0280  139.5230 F   0  0  0  0  0  0  0  0  0  0  0  0
  188.1100  178.2610  141.0610 O   0  0  0  0  0  1  0  0  0  0  0  0
  187.9990  178.2340  139.6750 C   0  0  0  0  0  0  0  0  0  0  0  0
  187.8680  178.1720  136.8770 C   0  0  0  0  0  3  0  0  0  0  0  0
  186.7420  178.3230  139.0320 C   0  0  0  0  0  0  0  0  0  0  0  0
  189.1700  178.1150  138.9120 C   0  0  0  0  0  0  0  0  0  0  0  0
  180.7610  178.5320  139.8290 N   0  0  0  0  0  2  0  0  0  0  0  0
  179.5320  179.2490  137.9930 O   0  0  0  0  0  0  0  0  0  0  0  0
  180.2950  179.5620  138.9440 C   0  0  0  0  0  0  0  0  0  0  0  0
  180.6360  181.0060  139.1400 C   0  0  0  0  0  2  0  0  0  0  0  0
  181.1790  181.6160  137.8570 C   0  0  0  0  0  2  0  0  0  0  0  0
  181.4970  183.0250  138.0620 N   0  0  0  0  0  2  0  0  0  0  0  0
  181.5490  184.5600  136.2810 O   0  0  0  0  0  1  0  0  0  0  0  0
  180.7120  183.8500  137.1440 C   0  0  0  0  0  3  0  0  0  0  0  0
  179.8900  184.7310  137.8490 O   0  0  0  0  0  1  0  0  0  0  0  0
  184.7490  179.5380  143.8480 C   0  0  0  0  0  2  0  0  0  0  0  0
  184.8820  178.4100  144.8580 C   0  0  0  0  0  2  0  0  0  0  0  0
  185.7310  178.8440  146.0440 C   0  0  0  0  0  2  0  0  0  0  0  0
  187.3690  177.5090  147.1560 O   0  0  0  0  0  1  0  0  0  0  0  0
  187.1220  178.2270  145.9850 C   0  0  1  0  0  3  0  0  0  0  0  0
  187.2220  177.2850  144.7950 C   0  0  0  0  0  2  0  0  0  0  0  0
  188.6710  176.9580  144.4730 C   0  0  0  0  0  2  0  0  0  0  0  0
  189.5010  178.2280  144.4380 C   0  0  0  0  0  2  0  0  0  0  0  0
  190.8400  177.9160  144.6690 O   0  0  0  0  0  0  0  0  0  0  0  0
  190.7990  176.8730  145.5930 C   0  0  0  0  0  2  0  0  0  0  0  0
  191.7730  176.2780  147.4800 C   0  0  0  0  0  1  0  0  0  0  0  0
  192.0510  176.7310  146.1910 O   0  0  0  0  0  0  0  0  0  0  0  0
  1  2  1  0  0  0  0
  3  1  2  0  0  0  0
  4  5  1  0  0  0  0
  5  8  1  0  0  0  0
  6  7  1  0  0  0  0
  6  9  1  0  0  0  0
  7  4  2  0  0  0  0
  8  2  1  0  0  0  0
  8 27  1  0  0  0  0
  9  3  1  0  0  0  0
  9  5  2  0  0  0  0
 10 17  1  0  0  0  0
 11 16  2  0  0  0  0
 14 13  1  0  0  0  0
 15 10  2  0  0  0  0
 15 11  1  0  0  0  0
 16 14  1  0  0  0  0
 16  7  1  0  0  0  0
 17 12  1  0  0  0  0
 17 14  2  0  0  0  0
 18  3  1  0  0  0  0
 19 20  2  0  0  0  0
 20 21  1  0  0  0  0
 20 18  1  0  0  0  0
 22 23  1  0  0  0  0
 22 21  1  0  0  0  0
 24 25  1  0  0  0  0
 25 26  1  0  0  0  0
 25 23  1  0  0  0  0
 27 28  1  0  0  0  0
 28 29  1  0  0  0  0
 31 29  1  0  0  0  0
 31 30  1  1  0  0  0
 32 31  1  0  0  0  0
 33 32  1  0  0  0  0
 34 33  1  0  0  0  0
 34 35  1  0  0  0  0
 35 36  1  0  0  0  0
 36 38  1  0  0  0  0
 38 37  1  0  0  0  0
M  END
>  <MODEL>
9

>  <REMARK>
 VINA RESULT:      -6.8      3.248      5.772
  Name = 
  16 active torsions:
  status: ('A' for Active; 'I' for Inactive)
    1  A    between atoms: C_3  and  C_11
    2  A    between atoms: C_3  and  C_27
    3  A    between atoms: C_4  and  C_11
    4  A    between atoms: C_4  and  C_34
    5  A    between atoms: C_5  and  O_35
    6  A    between atoms: C_5  and  O_38
    7  A    between atoms: C_9  and  N_10
    8  A    between atoms: C_17  and  C_25
    9  A    between atoms: C_17  and  C_30
   10  A    between atoms: C_18  and  C_34
   11  A    between atoms: C_18  and  O_35
   12  A    between atoms: C_20  and  N_32
   13  A    between atoms: C_21  and  C_27
   14  A    between atoms: C_21  and  N_36
   15  A    between atoms: C_28  and  C_33
   16  A    between atoms: C_30  and  N_32
                            x       y       z     vdW  Elec       q    Type
                         _______ _______ _______ _____ _____    ______ ____

>  <TORSDO>
F 16

$$$$
