=
 OpenBabel11032421173D

 52 55  0  0  1  0  0  0  0  0999 V2000
  188.7190  177.5340  138.4560 C   0  0  2  0  0  3  0  0  0  0  0  0
  190.0050  177.9460  140.5950 C   0  0  2  0  0  3  0  0  0  0  0  0
  190.8330  176.2660  138.9080 C   0  0  0  0  0  2  0  0  0  0  0  0
  189.1070  178.5620  139.5200 C   0  0  0  0  0  2  0  0  0  0  0  0
  191.2380  177.3020  139.9510 C   0  0  0  0  0  2  0  0  0  0  0  0
  189.9830  176.9330  137.8310 C   0  0  1  0  0  3  0  0  0  0  0  0
  188.7000  179.2720  137.0920 C   0  0  0  0  0  1  0  0  0  0  0  0
  187.9480  178.1600  137.4750 O   0  0  0  0  0  0  0  0  0  0  0  0
  189.2520  176.9720  141.3750 N   0  0  0  0  0  2  0  0  0  0  0  0
  189.1660  178.0140  145.0200 C   0  0  0  0  0  3  0  0  0  0  0  0
  189.7420  177.0200  142.7430 C   0  0  1  0  0  3  0  0  0  0  0  0
  188.6460  177.5490  143.6910 C   0  0  1  0  0  3  0  0  0  0  0  0
  191.7290  175.7740  143.6060 C   0  0  0  0  0  2  0  0  0  0  0  0
  190.2860  175.6460  143.1450 C   0  0  0  0  0  2  0  0  0  0  0  0
  190.2050  177.4240  145.5470 C   0  0  0  0  0  0  0  0  0  0  0  0
  191.2480  176.7460  145.9400 C   0  0  0  0  0  0  0  0  0  0  0  0
  191.8390  175.7760  145.0690 N   0  0  0  0  0  2  0  0  0  0  0  0
  191.6600  176.8010  147.3070 N   0  0  0  0  0  1  0  0  0  0  0  0
  187.4780  176.5810  143.8460 C   0  0  0  0  0  2  0  0  0  0  0  0
  186.3480  177.2450  144.6220 C   0  0  0  0  0  2  0  0  0  0  0  0
  186.4410  178.7580  144.5160 C   0  0  0  0  0  2  0  0  0  0  0  0
  184.9890  178.9470  142.4730 C   0  0  0  0  0  0  0  0  0  0  0  0
  182.6440  178.1920  142.8770 C   0  0  0  0  0  2  0  0  0  0  0  0
  185.1530  179.3300  143.9350 C   0  0  1  0  0  3  0  0  0  0  0  0
  182.6430  179.1020  144.0970 C   0  0  0  0  0  2  0  0  0  0  0  0
  183.8200  178.4870  141.9880 C   0  0  0  0  0  3  0  0  0  0  0  0
  183.9670  178.9300  144.8270 C   0  0  0  0  0  2  0  0  0  0  0  0
  185.7080  178.9020  140.2110 O   0  0  0  0  0  1  0  0  0  0  0  0
  186.1000  179.2410  141.5110 C   0  0  0  0  0  2  0  0  0  0  0  0
  189.6410  175.9970  136.8490 O   0  0  0  0  0  0  0  0  0  0  0  0
  188.9270  175.0060  137.5280 C   0  0  0  0  0  2  0  0  0  0  0  0
  187.9700  174.3100  136.5800 C   0  0  0  0  0  2  0  0  0  0  0  0
  187.1200  175.3420  135.8700 C   0  0  0  0  0  2  0  0  0  0  0  0
  185.9430  174.6600  135.2040 C   0  0  0  0  0  2  0  0  0  0  0  0
  184.9390  174.2990  136.2000 N   0  0  0  0  0  0  0  0  0  0  0  0
  182.3760  171.6440  135.3960 O   0  0  0  0  0  0  0  0  0  0  0  0
  183.4740  170.4000  137.0250 F   0  0  0  0  0  0  0  0  0  0  0  0
  183.7690  169.9310  134.8500 O   0  0  0  0  0  1  0  0  0  0  0  0
  184.7230  171.8830  135.7070 N   0  0  0  0  0  0  0  0  0  0  0  0
  185.6100  171.7880  134.6840 O   0  0  0  0  0  1  0  0  0  0  0  0
  181.9520  172.4830  136.4440 C   0  0  1  0  0  3  0  0  0  0  0  0
  183.7050  175.0780  136.3160 C   0  0  2  0  0  3  0  0  0  0  0  0
  182.6080  174.7290  134.9010 S   0  0  0  0  0  0  0  0  0  0  0  0
  181.3910  173.7900  135.8900 C   0  0  0  0  0  2  0  0  0  0  0  0
  180.8610  171.7890  137.2430 C   0  0  0  0  0  1  0  0  0  0  0  0
  183.5720  170.9700  135.7610 C   0  0  1  0  0  0  0  0  0  0  0  0
  184.7710  172.7090  137.8900 O   0  0  0  0  0  0  0  0  0  0  0  0
  184.8710  172.9460  136.6550 C   0  0  0  0  0  0  0  0  0  0  0  0
  183.9350  176.5840  136.5130 C   0  0  2  0  0  3  0  0  0  0  0  0
  184.5610  176.8530  137.7330 O   0  0  0  0  0  1  0  0  0  0  0  0
  182.6590  177.3590  136.4140 C   0  0  0  0  0  3  0  0  0  0  0  0
  182.4830  178.3520  137.1030 O   0  0  0  0  0  0  0  0  0  0  0  0
  1  8  1  6  0  0  0
  1  4  1  0  0  0  0
  2  9  1  6  0  0  0
  3  5  1  0  0  0  0
  4  2  1  0  0  0  0
  5  2  1  0  0  0  0
  6 30  1  6  0  0  0
  6  1  1  0  0  0  0
  6  3  1  0  0  0  0
  7  8  1  0  0  0  0
 10 15  2  0  0  0  0
 11  9  1  6  0  0  0
 11 14  1  0  0  0  0
 11 12  1  0  0  0  0
 12 19  1  1  0  0  0
 12 10  1  0  0  0  0
 13 17  1  0  0  0  0
 14 13  1  0  0  0  0
 15 16  2  0  0  0  0
 16 18  1  0  0  0  0
 17 16  1  0  0  0  0
 19 20  1  0  0  0  0
 21 20  1  0  0  0  0
 22 24  1  0  0  0  0
 23 25  1  0  0  0  0
 24 21  1  1  0  0  0
 24 27  1  0  0  0  0
 25 27  1  0  0  0  0
 26 22  2  0  0  0  0
 26 23  1  0  0  0  0
 28 29  1  0  0  0  0
 29 22  1  0  0  0  0
 30 31  1  0  0  0  0
 32 31  1  0  0  0  0
 33 32  1  0  0  0  0
 34 33  1  0  0  0  0
 34 35  1  0  0  0  0
 35 42  1  0  0  0  0
 35 48  1  0  0  0  0
 36 46  1  0  0  0  0
 36 41  1  0  0  0  0
 39 46  1  0  0  0  0
 39 48  1  0  0  0  0
 40 39  1  0  0  0  0
 41 45  1  6  0  0  0
 42 49  1  6  0  0  0
 43 44  1  0  0  0  0
 43 42  1  0  0  0  0
 44 41  1  0  0  0  0
 46 38  1  6  0  0  0
 46 37  1  0  0  0  0
 48 47  2  0  0  0  0
 49 50  1  1  0  0  0
 51 49  1  0  0  0  0
 51 52  2  0  0  0  0
M  END
>  <MODEL>
1

>  <REMARK>
 VINA RESULT:      -7.8      0.000      0.000
  Name = 
  16 active torsions:
  status: ('A' for Active; 'I' for Inactive)
    1  A    between atoms: C_1  and  O_7
    2  A    between atoms: C_1  and  C_23
    3  A    between atoms: N_2  and  C_49
    4  A    between atoms: C_4  and  O_17
    5  A    between atoms: C_5  and  C_38
    6  A    between atoms: C_6  and  C_27
    7  A    between atoms: C_6  and  C_34
    8  A    between atoms: O_7  and  C_41
    9  A    between atoms: C_8  and  N_15
   10  A    between atoms: C_12  and  N_15
   11  A    between atoms: C_19  and  C_27
   12  A    between atoms: C_21  and  C_34
   13  A    between atoms: C_23  and  C_29
   14  A    between atoms: C_26  and  C_35
   15  A    between atoms: C_26  and  C_36
   16  A    between atoms: C_29  and  C_49
                            x       y       z     vdW  Elec       q    Type
                         _______ _______ _______ _____ _____    ______ ____

>  <TORSDO>
F 16

$$$$
=
 OpenBabel11032421173D

 52 55  0  0  1  0  0  0  0  0999 V2000
  188.8210  177.5180  138.9140 C   0  0  2  0  0  3  0  0  0  0  0  0
  190.7520  177.2370  140.5230 C   0  0  2  0  0  3  0  0  0  0  0  0
  190.6730  175.9190  138.3750 C   0  0  0  0  0  2  0  0  0  0  0  0
  189.7120  178.2030  139.9510 C   0  0  0  0  0  2  0  0  0  0  0  0
  191.5760  176.6130  139.3900 C   0  0  0  0  0  2  0  0  0  0  0  0
  189.6870  176.9280  137.7960 C   0  0  1  0  0  3  0  0  0  0  0  0
  188.7070  179.2420  137.5360 C   0  0  0  0  0  1  0  0  0  0  0  0
  187.9290  178.4550  138.3870 O   0  0  0  0  0  0  0  0  0  0  0  0
  190.0940  176.2090  141.3190 N   0  0  0  0  0  2  0  0  0  0  0  0
  189.3650  177.8820  144.6430 C   0  0  0  0  0  3  0  0  0  0  0  0
  190.3300  176.5100  142.7220 C   0  0  1  0  0  3  0  0  0  0  0  0
  189.0870  177.1770  143.3470 C   0  0  1  0  0  3  0  0  0  0  0  0
  192.1140  175.4790  144.1360 C   0  0  0  0  0  2  0  0  0  0  0  0
  190.7760  175.2410  143.4540 C   0  0  0  0  0  2  0  0  0  0  0  0
  190.2840  177.4170  145.4440 C   0  0  0  0  0  0  0  0  0  0  0  0
  191.2320  176.8410  146.1330 C   0  0  0  0  0  0  0  0  0  0  0  0
  191.9590  175.7440  145.5710 N   0  0  0  0  0  2  0  0  0  0  0  0
  191.3920  177.1470  147.5200 N   0  0  0  0  0  1  0  0  0  0  0  0
  187.8990  176.2280  143.4610 C   0  0  0  0  0  2  0  0  0  0  0  0
  186.6180  177.0200  143.6880 C   0  0  0  0  0  2  0  0  0  0  0  0
  186.4190  178.0460  142.5850 C   0  0  0  0  0  2  0  0  0  0  0  0
  184.0380  178.7230  142.1460 C   0  0  0  0  0  0  0  0  0  0  0  0
  182.6400  178.7490  144.2140 C   0  0  0  0  0  2  0  0  0  0  0  0
  185.2950  179.0090  142.9520 C   0  0  1  0  0  3  0  0  0  0  0  0
  183.7360  179.5920  144.8510 C   0  0  0  0  0  2  0  0  0  0  0  0
  182.8230  178.6680  142.7240 C   0  0  0  0  0  3  0  0  0  0  0  0
  185.0840  178.9940  144.4740 C   0  0  0  0  0  2  0  0  0  0  0  0
  184.8410  179.7640  140.1690 O   0  0  0  0  0  1  0  0  0  0  0  0
  184.1250  178.6630  140.6510 C   0  0  0  0  0  2  0  0  0  0  0  0
  188.8830  176.3060  136.8350 O   0  0  0  0  0  0  0  0  0  0  0  0
  188.4120  175.1450  137.4530 C   0  0  0  0  0  2  0  0  0  0  0  0
  187.4070  174.4470  136.5580 C   0  0  0  0  0  2  0  0  0  0  0  0
  186.3060  175.4160  136.1830 C   0  0  0  0  0  2  0  0  0  0  0  0
  185.0650  175.1140  136.9990 C   0  0  0  0  0  2  0  0  0  0  0  0
  183.8690  175.2830  136.1810 N   0  0  0  0  0  0  0  0  0  0  0  0
  181.0100  177.3940  137.4580 O   0  0  0  0  0  0  0  0  0  0  0  0
  181.5860  178.8340  135.7250 F   0  0  0  0  0  0  0  0  0  0  0  0
  182.1240  179.3390  137.8460 O   0  0  0  0  0  1  0  0  0  0  0  0
  183.2820  177.6100  136.7850 N   0  0  0  0  0  0  0  0  0  0  0  0
  184.2840  177.8670  137.6640 O   0  0  0  0  0  1  0  0  0  0  0  0
  180.5920  176.4960  136.4580 C   0  0  1  0  0  3  0  0  0  0  0  0
  182.8000  174.2820  136.2270 C   0  0  2  0  0  3  0  0  0  0  0  0
  181.8910  174.4080  137.8040 S   0  0  0  0  0  0  0  0  0  0  0  0
  180.3810  175.1020  137.0450 C   0  0  0  0  0  2  0  0  0  0  0  0
  179.2800  176.9720  135.8590 C   0  0  0  0  0  1  0  0  0  0  0  0
  181.9860  178.2870  136.9390 C   0  0  1  0  0  0  0  0  0  0  0  0
  183.1440  176.8200  134.5940 O   0  0  0  0  0  0  0  0  0  0  0  0
  183.4780  176.6000  135.7900 C   0  0  0  0  0  0  0  0  0  0  0  0
  183.2750  172.8490  135.9450 C   0  0  2  0  0  3  0  0  0  0  0  0
  183.8240  172.7330  134.6660 O   0  0  0  0  0  1  0  0  0  0  0  0
  182.1720  171.8530  136.1190 C   0  0  0  0  0  3  0  0  0  0  0  0
  181.0150  172.1650  135.8860 O   0  0  0  0  0  0  0  0  0  0  0  0
  1  8  1  6  0  0  0
  1  4  1  0  0  0  0
  2  9  1  6  0  0  0
  3  5  1  0  0  0  0
  4  2  1  0  0  0  0
  5  2  1  0  0  0  0
  6 30  1  6  0  0  0
  6  3  1  0  0  0  0
  6  1  1  0  0  0  0
  7  8  1  0  0  0  0
 10 15  2  0  0  0  0
 11  9  1  6  0  0  0
 11 12  1  0  0  0  0
 11 14  1  0  0  0  0
 12 19  1  1  0  0  0
 12 10  1  0  0  0  0
 13 17  1  0  0  0  0
 14 13  1  0  0  0  0
 15 16  2  0  0  0  0
 16 18  1  0  0  0  0
 17 16  1  0  0  0  0
 19 20  1  0  0  0  0
 21 20  1  0  0  0  0
 22 26  2  0  0  0  0
 22 24  1  0  0  0  0
 23 25  1  0  0  0  0
 24 21  1  1  0  0  0
 24 27  1  0  0  0  0
 26 23  1  0  0  0  0
 27 25  1  0  0  0  0
 28 29  1  0  0  0  0
 29 22  1  0  0  0  0
 30 31  1  0  0  0  0
 32 31  1  0  0  0  0
 33 32  1  0  0  0  0
 33 34  1  0  0  0  0
 35 42  1  0  0  0  0
 35 34  1  0  0  0  0
 39 46  1  0  0  0  0
 39 40  1  0  0  0  0
 41 45  1  1  0  0  0
 41 44  1  0  0  0  0
 41 36  1  0  0  0  0
 42 49  1  1  0  0  0
 42 43  1  0  0  0  0
 44 43  1  0  0  0  0
 46 37  1  6  0  0  0
 46 36  1  0  0  0  0
 46 38  1  0  0  0  0
 47 48  2  0  0  0  0
 48 35  1  0  0  0  0
 48 39  1  0  0  0  0
 49 50  1  6  0  0  0
 49 51  1  0  0  0  0
 52 51  2  0  0  0  0
M  END
>  <MODEL>
2

>  <REMARK>
 VINA RESULT:      -7.3      1.818      3.452
  Name = 
  16 active torsions:
  status: ('A' for Active; 'I' for Inactive)
    1  A    between atoms: C_1  and  O_7
    2  A    between atoms: C_1  and  C_23
    3  A    between atoms: N_2  and  C_49
    4  A    between atoms: C_4  and  O_17
    5  A    between atoms: C_5  and  C_38
    6  A    between atoms: C_6  and  C_27
    7  A    between atoms: C_6  and  C_34
    8  A    between atoms: O_7  and  C_41
    9  A    between atoms: C_8  and  N_15
   10  A    between atoms: C_12  and  N_15
   11  A    between atoms: C_19  and  C_27
   12  A    between atoms: C_21  and  C_34
   13  A    between atoms: C_23  and  C_29
   14  A    between atoms: C_26  and  C_35
   15  A    between atoms: C_26  and  C_36
   16  A    between atoms: C_29  and  C_49
                            x       y       z     vdW  Elec       q    Type
                         _______ _______ _______ _____ _____    ______ ____

>  <TORSDO>
F 16

$$$$
=
 OpenBabel11032421173D

 52 55  0  0  1  0  0  0  0  0999 V2000
  190.8310  177.2310  138.4070 C   0  0  2  0  0  3  0  0  0  0  0  0
  190.3450  176.6420  140.8180 C   0  0  2  0  0  3  0  0  0  0  0  0
  188.7920  178.1560  139.5320 C   0  0  0  0  0  2  0  0  0  0  0  0
  190.9500  176.1650  139.4960 C   0  0  0  0  0  2  0  0  0  0  0  0
  188.8900  177.0790  140.6070 C   0  0  0  0  0  2  0  0  0  0  0  0
  189.3600  177.6210  138.2220 C   0  0  1  0  0  3  0  0  0  0  0  0
  190.8460  175.4260  137.1330 C   0  0  0  0  0  1  0  0  0  0  0  0
  191.3490  176.7260  137.2130 O   0  0  0  0  0  0  0  0  0  0  0  0
  191.1430  177.7290  141.3690 N   0  0  0  0  0  2  0  0  0  0  0  0
  190.8450  178.6680  145.0310 C   0  0  0  0  0  3  0  0  0  0  0  0
  191.2730  177.5080  142.8000 C   0  0  1  0  0  3  0  0  0  0  0  0
  190.4580  178.5580  143.5850 C   0  0  1  0  0  3  0  0  0  0  0  0
  192.0370  175.3810  143.8650 C   0  0  0  0  0  2  0  0  0  0  0  0
  190.8910  176.0640  143.1360 C   0  0  0  0  0  2  0  0  0  0  0  0
  191.2610  177.6080  145.6690 C   0  0  0  0  0  0  0  0  0  0  0  0
  191.6630  176.4700  146.1670 C   0  0  0  0  0  0  0  0  0  0  0  0
  191.8120  175.3300  145.3140 N   0  0  0  0  0  2  0  0  0  0  0  0
  191.7330  176.2980  147.5830 N   0  0  0  0  0  1  0  0  0  0  0  0
  188.9530  178.3920  143.4110 C   0  0  0  0  0  2  0  0  0  0  0  0
  188.3710  177.6290  144.5940 C   0  0  0  0  0  2  0  0  0  0  0  0
  186.9530  177.1730  144.2930 C   0  0  0  0  0  2  0  0  0  0  0  0
  185.1690  178.5070  143.1260 C   0  0  0  0  0  0  0  0  0  0  0  0
  183.0470  178.6420  144.4340 C   0  0  0  0  0  2  0  0  0  0  0  0
  185.9840  178.3460  144.4000 C   0  0  1  0  0  3  0  0  0  0  0  0
  183.8970  179.0770  145.6200 C   0  0  0  0  0  2  0  0  0  0  0  0
  183.8380  178.7030  143.1560 C   0  0  0  0  0  3  0  0  0  0  0  0
  185.1370  178.1950  145.6730 C   0  0  0  0  0  2  0  0  0  0  0  0
  185.3270  179.6500  141.0510 O   0  0  0  0  0  1  0  0  0  0  0  0
  185.8810  178.6150  141.8110 C   0  0  0  0  0  2  0  0  0  0  0  0
  189.2370  178.5900  137.2200 O   0  0  0  0  0  0  0  0  0  0  0  0
  187.8850  178.5760  136.8680 C   0  0  0  0  0  2  0  0  0  0  0  0
  187.6800  177.7420  135.6200 C   0  0  0  0  0  2  0  0  0  0  0  0
  186.1980  177.6110  135.3370 C   0  0  0  0  0  2  0  0  0  0  0  0
  185.5130  176.9530  136.5170 C   0  0  0  0  0  2  0  0  0  0  0  0
  184.1320  176.6220  136.1800 N   0  0  0  0  0  0  0  0  0  0  0  0
  181.4960  176.6100  138.8840 O   0  0  0  0  0  0  0  0  0  0  0  0
  180.6310  178.4440  137.7460 F   0  0  0  0  0  0  0  0  0  0  0  0
  181.7530  178.7290  139.6690 O   0  0  0  0  0  1  0  0  0  0  0  0
  182.9520  178.1180  137.7600 N   0  0  0  0  0  0  0  0  0  0  0  0
  184.0260  178.6860  138.3660 O   0  0  0  0  0  1  0  0  0  0  0  0
  181.1070  175.8430  137.7690 C   0  0  1  0  0  3  0  0  0  0  0  0
  183.7040  175.2220  136.1270 C   0  0  2  0  0  3  0  0  0  0  0  0
  183.5870  174.5380  137.8130 S   0  0  0  0  0  0  0  0  0  0  0  0
  181.7620  174.4640  137.8130 C   0  0  0  0  0  2  0  0  0  0  0  0
  179.5990  175.6620  137.7750 C   0  0  0  0  0  1  0  0  0  0  0  0
  181.6930  177.9640  138.5030 C   0  0  1  0  0  0  0  0  0  0  0  0
  182.2400  177.8220  135.5570 O   0  0  0  0  0  0  0  0  0  0  0  0
  183.1070  177.5810  136.4420 C   0  0  0  0  0  0  0  0  0  0  0  0
  184.5600  174.3430  135.2020 C   0  0  2  0  0  3  0  0  0  0  0  0
  183.7980  173.3430  134.5950 O   0  0  0  0  0  1  0  0  0  0  0  0
  185.7160  173.7330  135.9290 C   0  0  0  0  0  3  0  0  0  0  0  0
  186.4120  172.8890  135.3870 O   0  0  0  0  0  0  0  0  0  0  0  0
  1  8  1  6  0  0  0
  1  4  1  0  0  0  0
  2  9  1  6  0  0  0
  3  5  1  0  0  0  0
  4  2  1  0  0  0  0
  5  2  1  0  0  0  0
  6 30  1  6  0  0  0
  6  1  1  0  0  0  0
  6  3  1  0  0  0  0
  7  8  1  0  0  0  0
 10 15  2  0  0  0  0
 11  9  1  6  0  0  0
 11 14  1  0  0  0  0
 11 12  1  0  0  0  0
 12 19  1  1  0  0  0
 12 10  1  0  0  0  0
 13 17  1  0  0  0  0
 14 13  1  0  0  0  0
 15 16  2  0  0  0  0
 16 18  1  0  0  0  0
 17 16  1  0  0  0  0
 19 20  1  0  0  0  0
 21 20  1  0  0  0  0
 22 26  2  0  0  0  0
 22 24  1  0  0  0  0
 23 25  1  0  0  0  0
 24 21  1  6  0  0  0
 24 27  1  0  0  0  0
 25 27  1  0  0  0  0
 26 23  1  0  0  0  0
 28 29  1  0  0  0  0
 29 22  1  0  0  0  0
 31 30  1  0  0  0  0
 32 31  1  0  0  0  0
 33 32  1  0  0  0  0
 33 34  1  0  0  0  0
 35 48  1  0  0  0  0
 35 34  1  0  0  0  0
 39 40  1  0  0  0  0
 39 46  1  0  0  0  0
 41 45  1  1  0  0  0
 41 44  1  0  0  0  0
 41 36  1  0  0  0  0
 42 49  1  6  0  0  0
 42 35  1  0  0  0  0
 42 43  1  0  0  0  0
 43 44  1  0  0  0  0
 46 37  1  6  0  0  0
 46 36  1  0  0  0  0
 46 38  1  0  0  0  0
 47 48  2  0  0  0  0
 48 39  1  0  0  0  0
 49 50  1  1  0  0  0
 49 51  1  0  0  0  0
 52 51  2  0  0  0  0
M  END
>  <MODEL>
3

>  <REMARK>
 VINA RESULT:      -7.2      2.108      3.813
  Name = 
  16 active torsions:
  status: ('A' for Active; 'I' for Inactive)
    1  A    between atoms: C_1  and  O_7
    2  A    between atoms: C_1  and  C_23
    3  A    between atoms: N_2  and  C_49
    4  A    between atoms: C_4  and  O_17
    5  A    between atoms: C_5  and  C_38
    6  A    between atoms: C_6  and  C_27
    7  A    between atoms: C_6  and  C_34
    8  A    between atoms: O_7  and  C_41
    9  A    between atoms: C_8  and  N_15
   10  A    between atoms: C_12  and  N_15
   11  A    between atoms: C_19  and  C_27
   12  A    between atoms: C_21  and  C_34
   13  A    between atoms: C_23  and  C_29
   14  A    between atoms: C_26  and  C_35
   15  A    between atoms: C_26  and  C_36
   16  A    between atoms: C_29  and  C_49
                            x       y       z     vdW  Elec       q    Type
                         _______ _______ _______ _____ _____    ______ ____

>  <TORSDO>
F 16

$$$$
=
 OpenBabel11032421173D

 52 55  0  0  1  0  0  0  0  0999 V2000
  187.0170  174.8880  137.0440 C   0  0  2  0  0  3  0  0  0  0  0  0
  184.6440  175.4010  136.3350 C   0  0  2  0  0  3  0  0  0  0  0  0
  186.1800  177.2490  137.0980 C   0  0  0  0  0  2  0  0  0  0  0  0
  185.8610  174.4970  136.1230 C   0  0  0  0  0  2  0  0  0  0  0  0
  185.0390  176.8720  136.1580 C   0  0  0  0  0  2  0  0  0  0  0  0
  187.3860  176.3580  136.8190 C   0  0  1  0  0  3  0  0  0  0  0  0
  187.5770  172.7870  136.6490 C   0  0  0  0  0  1  0  0  0  0  0  0
  188.1150  174.0690  136.7720 O   0  0  0  0  0  0  0  0  0  0  0  0
  184.0730  175.1670  137.6550 N   0  0  0  0  0  2  0  0  0  0  0  0
  180.5160  174.0760  138.3890 C   0  0  0  0  0  3  0  0  0  0  0  0
  182.8880  174.3410  137.4890 C   0  0  1  0  0  3  0  0  0  0  0  0
  181.6650  175.0110  138.1510 C   0  0  1  0  0  3  0  0  0  0  0  0
  182.6260  172.5200  135.7980 C   0  0  0  0  0  2  0  0  0  0  0  0
  182.6810  174.0250  136.0050 C   0  0  0  0  0  2  0  0  0  0  0  0
  180.3050  173.0910  137.5590 C   0  0  0  0  0  0  0  0  0  0  0  0
  180.2250  172.1560  136.6520 C   0  0  0  0  0  0  0  0  0  0  0  0
  181.2470  172.0370  135.6570 N   0  0  0  0  0  2  0  0  0  0  0  0
  179.0200  171.4020  136.5090 N   0  0  0  0  0  1  0  0  0  0  0  0
  181.2240  176.2820  137.4320 C   0  0  0  0  0  2  0  0  0  0  0  0
  180.4920  177.2020  138.3990 C   0  0  0  0  0  2  0  0  0  0  0  0
  181.2840  177.3680  139.6850 C   0  0  0  0  0  2  0  0  0  0  0  0
  182.4040  179.5770  139.2510 C   0  0  0  0  0  0  0  0  0  0  0  0
  180.7820  181.4000  138.7260 C   0  0  0  0  0  2  0  0  0  0  0  0
  181.3600  178.8400  140.0760 C   0  0  1  0  0  3  0  0  0  0  0  0
  180.0240  180.9800  139.9770 C   0  0  0  0  0  2  0  0  0  0  0  0
  182.1490  180.7740  138.6910 C   0  0  0  0  0  3  0  0  0  0  0  0
  179.9560  179.4600  140.0120 C   0  0  0  0  0  2  0  0  0  0  0  0
  184.7070  180.0870  138.9840 O   0  0  0  0  0  1  0  0  0  0  0  0
  183.8030  179.0410  139.1940 C   0  0  0  0  0  2  0  0  0  0  0  0
  188.4490  176.7250  137.6500 O   0  0  0  0  0  0  0  0  0  0  0  0
  187.9060  177.6500  138.5450 C   0  0  0  0  0  2  0  0  0  0  0  0
  188.9960  178.5530  139.0880 C   0  0  0  0  0  2  0  0  0  0  0  0
  189.9140  177.7530  139.9870 C   0  0  0  0  0  2  0  0  0  0  0  0
  189.0970  177.0450  141.0480 C   0  0  0  0  0  2  0  0  0  0  0  0
  188.9610  177.8910  142.2300 N   0  0  0  0  0  0  0  0  0  0  0  0
  189.8150  176.5010  145.6350 O   0  0  0  0  0  0  0  0  0  0  0  0
  191.5760  178.0180  145.5720 F   0  0  0  0  0  0  0  0  0  0  0  0
  191.9520  175.8290  145.2420 O   0  0  0  0  0  1  0  0  0  0  0  0
  190.8610  177.0370  143.5670 N   0  0  0  0  0  0  0  0  0  0  0  0
  191.3210  176.0890  142.7120 O   0  0  0  0  0  1  0  0  0  0  0  0
  188.9660  177.6200  145.7230 C   0  0  1  0  0  3  0  0  0  0  0  0
  187.6640  178.0160  142.8990 C   0  0  2  0  0  3  0  0  0  0  0  0
  187.2750  176.4790  143.8010 S   0  0  0  0  0  0  0  0  0  0  0  0
  187.5180  177.2170  145.4550 C   0  0  0  0  0  2  0  0  0  0  0  0
  189.0510  178.2160  147.1180 C   0  0  0  0  0  1  0  0  0  0  0  0
  191.0400  176.8620  145.0150 C   0  0  1  0  0  0  0  0  0  0  0  0
  190.3610  179.3130  143.4250 O   0  0  0  0  0  0  0  0  0  0  0  0
  190.1110  178.1380  143.0400 C   0  0  0  0  0  0  0  0  0  0  0  0
  186.5210  178.4480  141.9690 C   0  0  2  0  0  3  0  0  0  0  0  0
  186.7320  179.7310  141.4580 O   0  0  0  0  0  1  0  0  0  0  0  0
  185.1920  178.3840  142.6540 C   0  0  0  0  0  3  0  0  0  0  0  0
  184.7530  179.3590  143.2430 O   0  0  0  0  0  0  0  0  0  0  0  0
  1  8  1  6  0  0  0
  2  9  1  1  0  0  0
  4  2  1  0  0  0  0
  4  1  1  0  0  0  0
  5  2  1  0  0  0  0
  5  3  1  0  0  0  0
  6  1  1  0  0  0  0
  6  3  1  0  0  0  0
  6 30  1  1  0  0  0
  7  8  1  0  0  0  0
 11  9  1  6  0  0  0
 11 12  1  0  0  0  0
 12 19  1  6  0  0  0
 12 10  1  0  0  0  0
 13 14  1  0  0  0  0
 14 11  1  0  0  0  0
 15 10  2  0  0  0  0
 16 15  2  0  0  0  0
 17 13  1  0  0  0  0
 17 16  1  0  0  0  0
 18 16  1  0  0  0  0
 19 20  1  0  0  0  0
 20 21  1  0  0  0  0
 22 24  1  0  0  0  0
 23 25  1  0  0  0  0
 24 21  1  6  0  0  0
 25 27  1  0  0  0  0
 26 23  1  0  0  0  0
 26 22  2  0  0  0  0
 27 24  1  0  0  0  0
 28 29  1  0  0  0  0
 29 22  1  0  0  0  0
 30 31  1  0  0  0  0
 31 32  1  0  0  0  0
 32 33  1  0  0  0  0
 33 34  1  0  0  0  0
 34 35  1  0  0  0  0
 35 42  1  0  0  0  0
 35 48  1  0  0  0  0
 36 41  1  0  0  0  0
 39 46  1  0  0  0  0
 40 39  1  0  0  0  0
 41 45  1  1  0  0  0
 42 49  1  6  0  0  0
 42 43  1  0  0  0  0
 43 44  1  0  0  0  0
 44 41  1  0  0  0  0
 46 38  1  1  0  0  0
 46 37  1  0  0  0  0
 46 36  1  0  0  0  0
 48 47  2  0  0  0  0
 48 39  1  0  0  0  0
 49 50  1  1  0  0  0
 49 51  1  0  0  0  0
 51 52  2  0  0  0  0
M  END
>  <MODEL>
4

>  <REMARK>
 VINA RESULT:      -7.1      3.839      9.204
  Name = 
  16 active torsions:
  status: ('A' for Active; 'I' for Inactive)
    1  A    between atoms: C_1  and  O_7
    2  A    between atoms: C_1  and  C_23
    3  A    between atoms: N_2  and  C_49
    4  A    between atoms: C_4  and  O_17
    5  A    between atoms: C_5  and  C_38
    6  A    between atoms: C_6  and  C_27
    7  A    between atoms: C_6  and  C_34
    8  A    between atoms: O_7  and  C_41
    9  A    between atoms: C_8  and  N_15
   10  A    between atoms: C_12  and  N_15
   11  A    between atoms: C_19  and  C_27
   12  A    between atoms: C_21  and  C_34
   13  A    between atoms: C_23  and  C_29
   14  A    between atoms: C_26  and  C_35
   15  A    between atoms: C_26  and  C_36
   16  A    between atoms: C_29  and  C_49
                            x       y       z     vdW  Elec       q    Type
                         _______ _______ _______ _____ _____    ______ ____

>  <TORSDO>
F 16

$$$$
=
 OpenBabel11032421173D

 52 55  0  0  1  0  0  0  0  0999 V2000
  188.6220  175.5400  136.2940 C   0  0  2  0  0  3  0  0  0  0  0  0
  186.2030  176.1380  135.8620 C   0  0  2  0  0  3  0  0  0  0  0  0
  187.8960  177.9370  136.3660 C   0  0  0  0  0  2  0  0  0  0  0  0
  187.3460  175.1750  135.5350 C   0  0  0  0  0  2  0  0  0  0  0  0
  186.6330  177.5840  135.5860 C   0  0  0  0  0  2  0  0  0  0  0  0
  189.0200  176.9850  135.9730 C   0  0  1  0  0  3  0  0  0  0  0  0
  189.2710  173.4340  136.4640 C   0  0  0  0  0  1  0  0  0  0  0  0
  189.6440  174.6650  135.9190 O   0  0  0  0  0  0  0  0  0  0  0  0
  185.7900  175.9700  137.2480 N   0  0  0  0  0  2  0  0  0  0  0  0
  182.1580  175.6440  138.2910 C   0  0  0  0  0  3  0  0  0  0  0  0
  184.4700  175.3600  137.2510 C   0  0  1  0  0  3  0  0  0  0  0  0
  183.4340  176.3180  137.8750 C   0  0  1  0  0  3  0  0  0  0  0  0
  183.7740  173.4240  135.8320 C   0  0  0  0  0  2  0  0  0  0  0  0
  184.1070  174.9080  135.8330 C   0  0  0  0  0  2  0  0  0  0  0  0
  181.7200  174.6210  137.6100 C   0  0  0  0  0  0  0  0  0  0  0  0
  181.4140  173.6120  136.8410 C   0  0  0  0  0  0  0  0  0  0  0  0
  182.3260  173.1870  135.8220 N   0  0  0  0  0  2  0  0  0  0  0  0
  180.0890  173.0780  136.8570 N   0  0  0  0  0  1  0  0  0  0  0  0
  183.1710  177.5500  137.0160 C   0  0  0  0  0  2  0  0  0  0  0  0
  181.7610  178.0670  137.2610 C   0  0  0  0  0  2  0  0  0  0  0  0
  181.7830  179.5510  137.5890 C   0  0  0  0  0  2  0  0  0  0  0  0
  180.3840  181.6350  137.4560 C   0  0  0  0  0  0  0  0  0  0  0  0
  180.5180  182.7520  135.2280 C   0  0  0  0  0  2  0  0  0  0  0  0
  180.6790  180.2800  136.8320 C   0  0  1  0  0  3  0  0  0  0  0  0
  180.2100  181.3940  134.6150 C   0  0  0  0  0  2  0  0  0  0  0  0
  180.2510  182.7460  136.7080 C   0  0  0  0  0  3  0  0  0  0  0  0
  181.0360  180.3400  135.3390 C   0  0  0  0  0  2  0  0  0  0  0  0
  179.0830  182.6790  139.1460 O   0  0  0  0  0  1  0  0  0  0  0  0
  180.0690  181.7130  138.9200 C   0  0  0  0  0  2  0  0  0  0  0  0
  190.1930  177.3280  136.6550 O   0  0  0  0  0  0  0  0  0  0  0  0
  189.7980  177.5090  137.9830 C   0  0  0  0  0  2  0  0  0  0  0  0
  190.6550  176.6600  138.9020 C   0  0  0  0  0  2  0  0  0  0  0  0
  190.9250  177.4170  140.1850 C   0  0  0  0  0  2  0  0  0  0  0  0
  190.2850  176.6880  141.3480 C   0  0  0  0  0  2  0  0  0  0  0  0
  189.9070  177.6360  142.3920 N   0  0  0  0  0  0  0  0  0  0  0  0
  189.7740  176.5000  145.9910 O   0  0  0  0  0  0  0  0  0  0  0  0
  191.5870  177.9280  146.2810 F   0  0  0  0  0  0  0  0  0  0  0  0
  191.8940  175.7060  146.2130 O   0  0  0  0  0  1  0  0  0  0  0  0
  191.3450  176.8150  144.2320 N   0  0  0  0  0  0  0  0  0  0  0  0
  191.9460  175.7790  143.5940 O   0  0  0  0  0  1  0  0  0  0  0  0
  189.0040  177.6590  145.7780 C   0  0  1  0  0  3  0  0  0  0  0  0
  188.4930  177.8730  142.6930 C   0  0  2  0  0  3  0  0  0  0  0  0
  187.7890  176.4360  143.5690 S   0  0  0  0  0  0  0  0  0  0  0  0
  187.6490  177.2990  145.1730 C   0  0  0  0  0  2  0  0  0  0  0  0
  188.7690  178.3670  147.1020 C   0  0  0  0  0  1  0  0  0  0  0  0
  191.1380  176.7550  145.6870 C   0  0  1  0  0  0  0  0  0  0  0  0
  191.0430  179.0900  143.8070 O   0  0  0  0  0  0  0  0  0  0  0  0
  190.8260  177.8990  143.4540 C   0  0  0  0  0  0  0  0  0  0  0  0
  187.6550  178.2740  141.4700 C   0  0  2  0  0  3  0  0  0  0  0  0
  188.1980  179.3830  140.8170 O   0  0  0  0  0  1  0  0  0  0  0  0
  186.2300  178.5470  141.8380 C   0  0  0  0  0  3  0  0  0  0  0  0
  185.8340  179.6950  141.9690 O   0  0  0  0  0  0  0  0  0  0  0  0
  1  8  1  6  0  0  0
  2  9  1  1  0  0  0
  4  2  1  0  0  0  0
  4  1  1  0  0  0  0
  5  2  1  0  0  0  0
  5  3  1  0  0  0  0
  6  1  1  0  0  0  0
  6  3  1  0  0  0  0
  6 30  1  1  0  0  0
  8  7  1  0  0  0  0
 11  9  1  6  0  0  0
 11 12  1  0  0  0  0
 12 19  1  6  0  0  0
 12 10  1  0  0  0  0
 13 14  1  0  0  0  0
 14 11  1  0  0  0  0
 15 10  2  0  0  0  0
 16 18  1  0  0  0  0
 16 15  2  0  0  0  0
 17 13  1  0  0  0  0
 17 16  1  0  0  0  0
 19 20  1  0  0  0  0
 20 21  1  0  0  0  0
 22 29  1  0  0  0  0
 23 26  1  0  0  0  0
 24 22  1  0  0  0  0
 24 21  1  1  0  0  0
 25 23  1  0  0  0  0
 25 27  1  0  0  0  0
 26 22  2  0  0  0  0
 27 24  1  0  0  0  0
 29 28  1  0  0  0  0
 30 31  1  0  0  0  0
 31 32  1  0  0  0  0
 32 33  1  0  0  0  0
 33 34  1  0  0  0  0
 34 35  1  0  0  0  0
 35 42  1  0  0  0  0
 35 48  1  0  0  0  0
 39 46  1  0  0  0  0
 40 39  1  0  0  0  0
 41 36  1  0  0  0  0
 41 45  1  1  0  0  0
 42 49  1  6  0  0  0
 42 43  1  0  0  0  0
 43 44  1  0  0  0  0
 44 41  1  0  0  0  0
 46 36  1  0  0  0  0
 46 38  1  1  0  0  0
 46 37  1  0  0  0  0
 48 47  2  0  0  0  0
 48 39  1  0  0  0  0
 49 50  1  1  0  0  0
 49 51  1  0  0  0  0
 51 52  2  0  0  0  0
M  END
>  <MODEL>
5

>  <REMARK>
 VINA RESULT:      -6.8      4.106      9.381
  Name = 
  16 active torsions:
  status: ('A' for Active; 'I' for Inactive)
    1  A    between atoms: C_1  and  O_7
    2  A    between atoms: C_1  and  C_23
    3  A    between atoms: N_2  and  C_49
    4  A    between atoms: C_4  and  O_17
    5  A    between atoms: C_5  and  C_38
    6  A    between atoms: C_6  and  C_27
    7  A    between atoms: C_6  and  C_34
    8  A    between atoms: O_7  and  C_41
    9  A    between atoms: C_8  and  N_15
   10  A    between atoms: C_12  and  N_15
   11  A    between atoms: C_19  and  C_27
   12  A    between atoms: C_21  and  C_34
   13  A    between atoms: C_23  and  C_29
   14  A    between atoms: C_26  and  C_35
   15  A    between atoms: C_26  and  C_36
   16  A    between atoms: C_29  and  C_49
                            x       y       z     vdW  Elec       q    Type
                         _______ _______ _______ _____ _____    ______ ____

>  <TORSDO>
F 16

$$$$
=
 OpenBabel11032421173D

 52 55  0  0  1  0  0  0  0  0999 V2000
  189.6850  175.8060  136.7830 C   0  0  2  0  0  3  0  0  0  0  0  0
  187.7930  174.5190  135.7070 C   0  0  2  0  0  3  0  0  0  0  0  0
  187.5540  176.9820  136.1880 C   0  0  0  0  0  2  0  0  0  0  0  0
  189.3100  174.6530  135.8520 C   0  0  0  0  0  2  0  0  0  0  0  0
  187.1860  175.8470  135.2380 C   0  0  0  0  0  2  0  0  0  0  0  0
  189.0710  177.1120  136.2650 C   0  0  1  0  0  3  0  0  0  0  0  0
  191.4990  174.7400  137.4570 C   0  0  0  0  0  1  0  0  0  0  0  0
  191.0760  175.9170  136.8380 O   0  0  0  0  0  0  0  0  0  0  0  0
  187.2060  174.0920  136.9700 N   0  0  0  0  0  2  0  0  0  0  0  0
  183.8520  172.3780  137.4100 C   0  0  0  0  0  3  0  0  0  0  0  0
  186.1870  173.0980  136.6760 C   0  0  1  0  0  3  0  0  0  0  0  0
  184.8380  173.5050  137.3060 C   0  0  1  0  0  3  0  0  0  0  0  0
  186.3170  171.3960  134.8510 C   0  0  0  0  0  2  0  0  0  0  0  0
  186.1090  172.8700  135.1640 C   0  0  0  0  0  2  0  0  0  0  0  0
  183.8500  171.4400  136.5030 C   0  0  0  0  0  0  0  0  0  0  0  0
  183.9740  170.5770  135.5300 C   0  0  0  0  0  0  0  0  0  0  0  0
  185.0480  170.7060  134.5940 N   0  0  0  0  0  2  0  0  0  0  0  0
  182.9210  169.6490  135.2630 N   0  0  0  0  0  1  0  0  0  0  0  0
  184.2250  174.7380  136.6510 C   0  0  0  0  0  2  0  0  0  0  0  0
  183.4140  175.5240  137.6720 C   0  0  0  0  0  2  0  0  0  0  0  0
  183.5090  177.0160  137.3980 C   0  0  0  0  0  2  0  0  0  0  0  0
  182.7390  179.0990  138.5760 C   0  0  0  0  0  0  0  0  0  0  0  0
  180.8370  180.2230  137.4130 C   0  0  0  0  0  2  0  0  0  0  0  0
  182.3230  177.7460  138.0190 C   0  0  1  0  0  3  0  0  0  0  0  0
  180.1480  178.8670  137.3950 C   0  0  0  0  0  2  0  0  0  0  0  0
  182.0180  180.2120  138.3440 C   0  0  0  0  0  3  0  0  0  0  0  0
  181.1720  177.8110  137.0030 C   0  0  0  0  0  2  0  0  0  0  0  0
  184.5640  180.3840  139.3840 O   0  0  0  0  0  1  0  0  0  0  0  0
  183.8830  179.1730  139.5410 C   0  0  0  0  0  2  0  0  0  0  0  0
  189.4150  178.1770  137.1040 O   0  0  0  0  0  0  0  0  0  0  0  0
  188.6360  178.0000  138.2490 C   0  0  0  0  0  2  0  0  0  0  0  0
  189.2650  178.7210  139.4250 C   0  0  0  0  0  2  0  0  0  0  0  0
  190.0390  177.7310  140.2700 C   0  0  0  0  0  2  0  0  0  0  0  0
  189.0990  177.0510  141.2450 C   0  0  0  0  0  2  0  0  0  0  0  0
  188.9460  177.8630  142.4480 N   0  0  0  0  0  0  0  0  0  0  0  0
  189.7960  176.3890  145.8190 O   0  0  0  0  0  0  0  0  0  0  0  0
  191.5380  177.9280  145.8100 F   0  0  0  0  0  0  0  0  0  0  0  0
  191.9430  175.7540  145.4220 O   0  0  0  0  0  1  0  0  0  0  0  0
  190.8480  176.9950  143.7740 N   0  0  0  0  0  0  0  0  0  0  0  0
  191.3250  176.0760  142.8960 O   0  0  0  0  0  1  0  0  0  0  0  0
  188.9320  177.4950  145.9330 C   0  0  1  0  0  3  0  0  0  0  0  0
  187.6440  177.9530  143.1120 C   0  0  2  0  0  3  0  0  0  0  0  0
  187.2680  176.3870  143.9690 S   0  0  0  0  0  0  0  0  0  0  0  0
  187.4910  177.0810  145.6440 C   0  0  0  0  0  2  0  0  0  0  0  0
  189.0020  178.0530  147.3450 C   0  0  0  0  0  1  0  0  0  0  0  0
  191.0210  176.7820  145.2180 C   0  0  1  0  0  0  0  0  0  0  0  0
  190.3200  179.2670  143.6920 O   0  0  0  0  0  0  0  0  0  0  0  0
  190.0880  178.1000  143.2720 C   0  0  0  0  0  0  0  0  0  0  0  0
  186.5010  178.3960  142.1870 C   0  0  2  0  0  3  0  0  0  0  0  0
  186.7510  179.6520  141.6280 O   0  0  0  0  0  1  0  0  0  0  0  0
  185.1840  178.4070  142.8960 C   0  0  0  0  0  3  0  0  0  0  0  0
  185.0110  179.1230  143.8700 O   0  0  0  0  0  0  0  0  0  0  0  0
  1  8  1  6  0  0  0
  2  4  1  0  0  0  0
  2  9  1  1  0  0  0
  3  6  1  0  0  0  0
  4  1  1  0  0  0  0
  5  2  1  0  0  0  0
  5  3  1  0  0  0  0
  6  1  1  0  0  0  0
  6 30  1  1  0  0  0
  8  7  1  0  0  0  0
 11  9  1  6  0  0  0
 11 12  1  0  0  0  0
 12 19  1  6  0  0  0
 12 10  1  0  0  0  0
 13 14  1  0  0  0  0
 14 11  1  0  0  0  0
 15 10  2  0  0  0  0
 16 15  2  0  0  0  0
 17 13  1  0  0  0  0
 17 16  1  0  0  0  0
 18 16  1  0  0  0  0
 19 20  1  0  0  0  0
 21 20  1  0  0  0  0
 22 29  1  0  0  0  0
 23 26  1  0  0  0  0
 24 21  1  6  0  0  0
 24 22  1  0  0  0  0
 25 23  1  0  0  0  0
 26 22  2  0  0  0  0
 27 25  1  0  0  0  0
 27 24  1  0  0  0  0
 28 29  1  0  0  0  0
 30 31  1  0  0  0  0
 31 32  1  0  0  0  0
 32 33  1  0  0  0  0
 33 34  1  0  0  0  0
 34 35  1  0  0  0  0
 35 42  1  0  0  0  0
 35 48  1  0  0  0  0
 36 41  1  0  0  0  0
 39 46  1  0  0  0  0
 40 39  1  0  0  0  0
 41 45  1  1  0  0  0
 42 49  1  6  0  0  0
 42 43  1  0  0  0  0
 43 44  1  0  0  0  0
 44 41  1  0  0  0  0
 46 38  1  1  0  0  0
 46 37  1  0  0  0  0
 46 36  1  0  0  0  0
 48 47  2  0  0  0  0
 48 39  1  0  0  0  0
 49 50  1  1  0  0  0
 49 51  1  0  0  0  0
 51 52  2  0  0  0  0
M  END
>  <MODEL>
6

>  <REMARK>
 VINA RESULT:      -6.6      3.822      9.017
  Name = 
  16 active torsions:
  status: ('A' for Active; 'I' for Inactive)
    1  A    between atoms: C_1  and  O_7
    2  A    between atoms: C_1  and  C_23
    3  A    between atoms: N_2  and  C_49
    4  A    between atoms: C_4  and  O_17
    5  A    between atoms: C_5  and  C_38
    6  A    between atoms: C_6  and  C_27
    7  A    between atoms: C_6  and  C_34
    8  A    between atoms: O_7  and  C_41
    9  A    between atoms: C_8  and  N_15
   10  A    between atoms: C_12  and  N_15
   11  A    between atoms: C_19  and  C_27
   12  A    between atoms: C_21  and  C_34
   13  A    between atoms: C_23  and  C_29
   14  A    between atoms: C_26  and  C_35
   15  A    between atoms: C_26  and  C_36
   16  A    between atoms: C_29  and  C_49
                            x       y       z     vdW  Elec       q    Type
                         _______ _______ _______ _____ _____    ______ ____

>  <TORSDO>
F 16

$$$$
=
 OpenBabel11032421173D

 52 55  0  0  1  0  0  0  0  0999 V2000
  188.9010  175.6030  136.4430 C   0  0  2  0  0  3  0  0  0  0  0  0
  190.5010  173.8350  135.5990 C   0  0  2  0  0  3  0  0  0  0  0  0
  188.3420  173.1770  136.7230 C   0  0  0  0  0  2  0  0  0  0  0  0
  189.9410  175.2430  135.3820 C   0  0  0  0  0  2  0  0  0  0  0  0
  189.3590  172.8130  135.6460 C   0  0  0  0  0  2  0  0  0  0  0  0
  187.7750  174.5640  136.4390 C   0  0  1  0  0  3  0  0  0  0  0  0
  189.3370  177.4640  135.3340 C   0  0  0  0  0  1  0  0  0  0  0  0
  188.3860  176.8710  136.1670 O   0  0  0  0  0  0  0  0  0  0  0  0
  191.2900  173.7960  136.8230 N   0  0  0  0  0  2  0  0  0  0  0  0
  193.9790  176.3790  136.1310 C   0  0  0  0  0  3  0  0  0  0  0  0
  192.6360  174.2420  136.5010 C   0  0  1  0  0  3  0  0  0  0  0  0
  192.7900  175.7490  136.7970 C   0  0  1  0  0  3  0  0  0  0  0  0
  194.6230  172.7510  136.2340 C   0  0  0  0  0  2  0  0  0  0  0  0
  193.6590  173.3690  137.2340 C   0  0  0  0  0  2  0  0  0  0  0  0
  195.0610  175.6730  135.9450 C   0  0  0  0  0  0  0  0  0  0  0  0
  196.0620  174.8450  135.8230 C   0  0  0  0  0  0  0  0  0  0  0  0
  195.9010  173.4710  136.1890 N   0  0  0  0  0  2  0  0  0  0  0  0
  197.3710  175.3450  135.5450 N   0  0  0  0  0  1  0  0  0  0  0  0
  192.7370  176.0700  138.2860 C   0  0  0  0  0  2  0  0  0  0  0  0
  191.5980  177.0390  138.5720 C   0  0  0  0  0  2  0  0  0  0  0  0
  190.6470  176.4600  139.6070 C   0  0  0  0  0  2  0  0  0  0  0  0
  188.8100  177.7260  140.7650 C   0  0  0  0  0  0  0  0  0  0  0  0
  188.8870  177.4910  143.2490 C   0  0  0  0  0  2  0  0  0  0  0  0
  190.3120  177.5060  140.6640 C   0  0  1  0  0  3  0  0  0  0  0  0
  190.3580  177.8730  143.1620 C   0  0  0  0  0  2  0  0  0  0  0  0
  188.1800  177.7800  141.9530 C   0  0  0  0  0  3  0  0  0  0  0  0
  190.9820  177.1250  141.9930 C   0  0  0  0  0  2  0  0  0  0  0  0
  188.7270  179.0060  138.7670 O   0  0  0  0  0  1  0  0  0  0  0  0
  188.0340  178.0570  139.5260 C   0  0  0  0  0  2  0  0  0  0  0  0
  186.8120  174.8870  137.4010 O   0  0  0  0  0  0  0  0  0  0  0  0
  185.6060  174.4110  136.8800 C   0  0  0  0  0  2  0  0  0  0  0  0
  185.2590  175.1530  135.6040 C   0  0  0  0  0  2  0  0  0  0  0  0
  183.8140  175.6020  135.6580 C   0  0  0  0  0  2  0  0  0  0  0  0
  183.3090  175.5170  137.0840 C   0  0  0  0  0  2  0  0  0  0  0  0
  182.2730  176.5190  137.3140 N   0  0  0  0  0  0  0  0  0  0  0  0
  182.5550  178.8580  140.2650 O   0  0  0  0  0  0  0  0  0  0  0  0
  182.8530  180.5060  138.6510 F   0  0  0  0  0  0  0  0  0  0  0  0
  184.6020  179.7530  139.8410 O   0  0  0  0  0  1  0  0  0  0  0  0
  183.6670  178.3500  138.2240 N   0  0  0  0  0  0  0  0  0  0  0  0
  184.8800  177.7420  138.1840 O   0  0  0  0  0  1  0  0  0  0  0  0
  181.2300  178.7610  139.7970 C   0  0  1  0  0  3  0  0  0  0  0  0
  181.0580  176.1630  138.0510 C   0  0  2  0  0  3  0  0  0  0  0  0
  181.4350  175.9660  139.8240 S   0  0  0  0  0  0  0  0  0  0  0  0
  180.5670  177.4920  140.3280 C   0  0  0  0  0  2  0  0  0  0  0  0
  180.4310  179.9610  140.2760 C   0  0  0  0  0  1  0  0  0  0  0  0
  183.3980  179.3730  139.2450 C   0  0  1  0  0  0  0  0  0  0  0  0
  181.9410  178.7370  136.7010 O   0  0  0  0  0  0  0  0  0  0  0  0
  182.6380  177.8990  137.3360 C   0  0  0  0  0  0  0  0  0  0  0  0
  180.3140  174.9480  137.4770 C   0  0  2  0  0  3  0  0  0  0  0  0
  179.0830  175.3130  136.9260 O   0  0  0  0  0  1  0  0  0  0  0  0
  180.1150  173.8810  138.5070 C   0  0  0  0  0  3  0  0  0  0  0  0
  178.9900  173.5120  138.8060 O   0  0  0  0  0  0  0  0  0  0  0  0
  1  8  1  6  0  0  0
  2  5  1  0  0  0  0
  2  9  1  1  0  0  0
  4  2  1  0  0  0  0
  4  1  1  0  0  0  0
  5  3  1  0  0  0  0
  6  1  1  0  0  0  0
  6  3  1  0  0  0  0
  6 30  1  1  0  0  0
  7  8  1  0  0  0  0
 10 12  1  0  0  0  0
 11 12  1  0  0  0  0
 11  9  1  1  0  0  0
 11 14  1  0  0  0  0
 12 19  1  1  0  0  0
 13 14  1  0  0  0  0
 15 10  2  0  0  0  0
 16 15  2  0  0  0  0
 16 17  1  0  0  0  0
 17 13  1  0  0  0  0
 18 16  1  0  0  0  0
 19 20  1  0  0  0  0
 20 21  1  0  0  0  0
 22 26  2  0  0  0  0
 24 21  1  6  0  0  0
 24 22  1  0  0  0  0
 24 27  1  0  0  0  0
 25 23  1  0  0  0  0
 26 23  1  0  0  0  0
 27 25  1  0  0  0  0
 28 29  1  0  0  0  0
 29 22  1  0  0  0  0
 31 30  1  0  0  0  0
 32 33  1  0  0  0  0
 32 31  1  0  0  0  0
 33 34  1  0  0  0  0
 34 35  1  0  0  0  0
 35 48  1  0  0  0  0
 35 42  1  0  0  0  0
 39 46  1  0  0  0  0
 40 39  1  0  0  0  0
 41 36  1  0  0  0  0
 41 45  1  1  0  0  0
 41 44  1  0  0  0  0
 42 49  1  6  0  0  0
 42 43  1  0  0  0  0
 43 44  1  0  0  0  0
 46 37  1  6  0  0  0
 46 38  1  0  0  0  0
 46 36  1  0  0  0  0
 47 48  2  0  0  0  0
 48 39  1  0  0  0  0
 49 50  1  1  0  0  0
 49 51  1  0  0  0  0
 51 52  2  0  0  0  0
M  END
>  <MODEL>
7

>  <REMARK>
 VINA RESULT:      -6.5      3.767      6.849
  Name = 
  16 active torsions:
  status: ('A' for Active; 'I' for Inactive)
    1  A    between atoms: C_1  and  O_7
    2  A    between atoms: C_1  and  C_23
    3  A    between atoms: N_2  and  C_49
    4  A    between atoms: C_4  and  O_17
    5  A    between atoms: C_5  and  C_38
    6  A    between atoms: C_6  and  C_27
    7  A    between atoms: C_6  and  C_34
    8  A    between atoms: O_7  and  C_41
    9  A    between atoms: C_8  and  N_15
   10  A    between atoms: C_12  and  N_15
   11  A    between atoms: C_19  and  C_27
   12  A    between atoms: C_21  and  C_34
   13  A    between atoms: C_23  and  C_29
   14  A    between atoms: C_26  and  C_35
   15  A    between atoms: C_26  and  C_36
   16  A    between atoms: C_29  and  C_49
                            x       y       z     vdW  Elec       q    Type
                         _______ _______ _______ _____ _____    ______ ____

>  <TORSDO>
F 16

$$$$
=
 OpenBabel11032421173D

 52 55  0  0  1  0  0  0  0  0999 V2000
  186.8340  178.2910  138.6270 C   0  0  2  0  0  3  0  0  0  0  0  0
  188.6520  177.1720  139.9830 C   0  0  2  0  0  3  0  0  0  0  0  0
  186.9850  178.7040  141.0940 C   0  0  0  0  0  2  0  0  0  0  0  0
  187.7160  177.0510  138.7790 C   0  0  0  0  0  2  0  0  0  0  0  0
  187.8440  177.4540  141.2560 C   0  0  0  0  0  2  0  0  0  0  0  0
  186.0350  178.5210  139.9150 C   0  0  1  0  0  3  0  0  0  0  0  0
  186.7930  177.7240  136.4910 C   0  0  0  0  0  1  0  0  0  0  0  0
  185.9660  178.1070  137.5490 O   0  0  0  0  0  0  0  0  0  0  0  0
  189.6370  178.2180  139.7470 N   0  0  0  0  0  2  0  0  0  0  0  0
  193.3450  177.5710  140.2130 C   0  0  0  0  0  3  0  0  0  0  0  0
  190.9090  177.5760  139.4560 C   0  0  1  0  0  3  0  0  0  0  0  0
  191.9170  177.8330  140.5950 C   0  0  1  0  0  3  0  0  0  0  0  0
  191.2490  175.7370  137.7980 C   0  0  0  0  0  2  0  0  0  0  0  0
  190.6830  176.0900  139.1650 C   0  0  0  0  0  2  0  0  0  0  0  0
  193.6170  176.6310  139.3490 C   0  0  0  0  0  0  0  0  0  0  0  0
  193.7310  175.6700  138.4740 C   0  0  0  0  0  0  0  0  0  0  0  0
  192.5590  175.0840  137.8990 N   0  0  0  0  0  2  0  0  0  0  0  0
  195.0000  175.0500  138.2570 N   0  0  0  0  0  1  0  0  0  0  0  0
  191.5380  177.1280  141.8930 C   0  0  0  0  0  2  0  0  0  0  0  0
  190.9110  178.1200  142.8630 C   0  0  0  0  0  2  0  0  0  0  0  0
  191.2840  177.7770  144.2960 C   0  0  0  0  0  2  0  0  0  0  0  0
  190.3940  176.9150  146.4830 C   0  0  0  0  0  0  0  0  0  0  0  0
  188.1520  177.8550  147.0550 C   0  0  0  0  0  2  0  0  0  0  0  0
  190.1210  177.0830  144.9960 C   0  0  1  0  0  3  0  0  0  0  0  0
  187.7110  177.4490  145.6560 C   0  0  0  0  0  2  0  0  0  0  0  0
  189.4650  177.2120  147.4110 C   0  0  0  0  0  3  0  0  0  0  0  0
  188.8140  177.8240  144.6760 C   0  0  0  0  0  2  0  0  0  0  0  0
  192.0470  176.7380  148.1770 O   0  0  0  0  0  1  0  0  0  0  0  0
  191.6620  176.2500  146.9240 C   0  0  0  0  0  2  0  0  0  0  0  0
  185.2170  179.6480  139.7850 O   0  0  0  0  0  0  0  0  0  0  0  0
  183.9920  179.2710  140.3410 C   0  0  0  0  0  2  0  0  0  0  0  0
  182.8850  179.4250  139.3170 C   0  0  0  0  0  2  0  0  0  0  0  0
  181.6230  178.7670  139.8330 C   0  0  0  0  0  2  0  0  0  0  0  0
  180.9590  177.9930  138.7130 C   0  0  0  0  0  2  0  0  0  0  0  0
  181.3260  176.5820  138.7880 N   0  0  0  0  0  0  0  0  0  0  0  0
  181.8290  174.6080  135.6080 O   0  0  0  0  0  0  0  0  0  0  0  0
  184.0580  174.5340  136.2650 F   0  0  0  0  0  0  0  0  0  0  0  0
  183.4090  175.9030  134.6080 O   0  0  0  0  0  1  0  0  0  0  0  0
  182.7890  176.4310  136.7970 N   0  0  0  0  0  0  0  0  0  0  0  0
  182.7020  177.7150  136.3640 O   0  0  0  0  0  1  0  0  0  0  0  0
  181.5650  173.7710  136.7090 C   0  0  1  0  0  3  0  0  0  0  0  0
  180.2870  175.5610  138.9430 C   0  0  2  0  0  3  0  0  0  0  0  0
  179.3620  175.3660  137.3830 S   0  0  0  0  0  0  0  0  0  0  0  0
  180.0670  173.7250  137.0000 C   0  0  0  0  0  2  0  0  0  0  0  0
  182.0420  172.3610  136.4030 C   0  0  0  0  0  1  0  0  0  0  0  0
  183.0200  175.3490  135.8290 C   0  0  1  0  0  0  0  0  0  0  0  0
  183.3170  175.3810  138.8140 O   0  0  0  0  0  0  0  0  0  0  0  0
  182.5440  176.1500  138.1800 C   0  0  0  0  0  0  0  0  0  0  0  0
  179.3580  175.7930  140.1430 C   0  0  2  0  0  3  0  0  0  0  0  0
  179.9530  176.6180  141.1010 O   0  0  0  0  0  1  0  0  0  0  0  0
  178.9320  174.5050  140.7740 C   0  0  0  0  0  3  0  0  0  0  0  0
  179.7510  173.7830  141.3200 O   0  0  0  0  0  0  0  0  0  0  0  0
  1  8  1  6  0  0  0
  1  4  1  0  0  0  0
  1  6  1  0  0  0  0
  2  9  1  6  0  0  0
  2  5  1  0  0  0  0
  3  5  1  0  0  0  0
  4  2  1  0  0  0  0
  6 30  1  6  0  0  0
  6  3  1  0  0  0  0
  7  8  1  0  0  0  0
 10 12  1  0  0  0  0
 11  9  1  1  0  0  0
 11 12  1  0  0  0  0
 12 19  1  1  0  0  0
 13 17  1  0  0  0  0
 13 14  1  0  0  0  0
 14 11  1  0  0  0  0
 15 10  2  0  0  0  0
 16 15  2  0  0  0  0
 17 16  1  0  0  0  0
 18 16  1  0  0  0  0
 19 20  1  0  0  0  0
 20 21  1  0  0  0  0
 22 29  1  0  0  0  0
 22 26  2  0  0  0  0
 23 26  1  0  0  0  0
 24 21  1  1  0  0  0
 24 22  1  0  0  0  0
 25 23  1  0  0  0  0
 27 24  1  0  0  0  0
 27 25  1  0  0  0  0
 29 28  1  0  0  0  0
 30 31  1  0  0  0  0
 32 33  1  0  0  0  0
 32 31  1  0  0  0  0
 34 35  1  0  0  0  0
 34 33  1  0  0  0  0
 35 42  1  0  0  0  0
 36 46  1  0  0  0  0
 36 41  1  0  0  0  0
 39 48  1  0  0  0  0
 40 39  1  0  0  0  0
 41 45  1  6  0  0  0
 41 44  1  0  0  0  0
 42 49  1  1  0  0  0
 43 42  1  0  0  0  0
 44 43  1  0  0  0  0
 46 38  1  6  0  0  0
 46 37  1  0  0  0  0
 46 39  1  0  0  0  0
 48 35  1  0  0  0  0
 48 47  2  0  0  0  0
 49 51  1  0  0  0  0
 49 50  1  1  0  0  0
 51 52  2  0  0  0  0
M  END
>  <MODEL>
8

>  <REMARK>
 VINA RESULT:      -6.4      3.171      5.599
  Name = 
  16 active torsions:
  status: ('A' for Active; 'I' for Inactive)
    1  A    between atoms: C_1  and  O_7
    2  A    between atoms: C_1  and  C_23
    3  A    between atoms: N_2  and  C_49
    4  A    between atoms: C_4  and  O_17
    5  A    between atoms: C_5  and  C_38
    6  A    between atoms: C_6  and  C_27
    7  A    between atoms: C_6  and  C_34
    8  A    between atoms: O_7  and  C_41
    9  A    between atoms: C_8  and  N_15
   10  A    between atoms: C_12  and  N_15
   11  A    between atoms: C_19  and  C_27
   12  A    between atoms: C_21  and  C_34
   13  A    between atoms: C_23  and  C_29
   14  A    between atoms: C_26  and  C_35
   15  A    between atoms: C_26  and  C_36
   16  A    between atoms: C_29  and  C_49
                            x       y       z     vdW  Elec       q    Type
                         _______ _______ _______ _____ _____    ______ ____

>  <TORSDO>
F 16

$$$$
=
 OpenBabel11032421173D

 52 55  0  0  1  0  0  0  0  0999 V2000
  188.3550  177.5530  136.4380 C   0  0  2  0  0  3  0  0  0  0  0  0
  185.8690  177.2430  136.7860 C   0  0  2  0  0  3  0  0  0  0  0  0
  187.5070  175.5380  137.6620 C   0  0  0  0  0  2  0  0  0  0  0  0
  187.0130  178.2520  136.6550 C   0  0  0  0  0  2  0  0  0  0  0  0
  186.1750  176.2390  137.9050 C   0  0  0  0  0  2  0  0  0  0  0  0
  188.6230  176.5750  137.5880 C   0  0  1  0  0  3  0  0  0  0  0  0
  189.0690  179.4030  137.4130 C   0  0  0  0  0  1  0  0  0  0  0  0
  189.3670  178.5140  136.3790 O   0  0  0  0  0  0  0  0  0  0  0  0
  185.6560  176.5630  135.5160 N   0  0  0  0  0  2  0  0  0  0  0  0
  183.0660  174.1780  136.9250 C   0  0  0  0  0  3  0  0  0  0  0  0
  185.0850  175.2560  135.7990 C   0  0  1  0  0  3  0  0  0  0  0  0
  183.6100  175.3930  136.2320 C   0  0  1  0  0  3  0  0  0  0  0  0
  186.0230  173.0740  135.0200 C   0  0  0  0  0  2  0  0  0  0  0  0
  185.2840  174.3330  134.5940 C   0  0  0  0  0  2  0  0  0  0  0  0
  183.5020  172.9950  136.5860 C   0  0  0  0  0  0  0  0  0  0  0  0
  184.0360  171.8880  136.1470 C   0  0  0  0  0  0  0  0  0  0  0  0
  185.1110  171.9390  135.2030 N   0  0  0  0  0  2  0  0  0  0  0  0
  183.4090  170.6350  136.4240 N   0  0  0  0  0  1  0  0  0  0  0  0
  182.7000  175.8570  135.1000 C   0  0  0  0  0  2  0  0  0  0  0  0
  182.0520  177.1860  135.4610 C   0  0  0  0  0  2  0  0  0  0  0  0
  180.8800  176.9730  136.4050 C   0  0  0  0  0  2  0  0  0  0  0  0
  181.0620  176.6820  138.8950 C   0  0  0  0  0  0  0  0  0  0  0  0
  183.2340  177.5050  139.8120 C   0  0  0  0  0  2  0  0  0  0  0  0
  181.1400  177.6660  137.7380 C   0  0  1  0  0  3  0  0  0  0  0  0
  182.9760  178.7980  139.0510 C   0  0  0  0  0  2  0  0  0  0  0  0
  181.9910  176.6600  139.8690 C   0  0  0  0  0  3  0  0  0  0  0  0
  182.4620  178.4450  137.6620 C   0  0  0  0  0  2  0  0  0  0  0  0
  179.6800  175.4590  140.3880 O   0  0  0  0  0  1  0  0  0  0  0  0
  179.8410  175.8270  139.0480 C   0  0  0  0  0  2  0  0  0  0  0  0
  189.8530  175.9360  137.4050 O   0  0  0  0  0  0  0  0  0  0  0  0
  190.3500  175.7350  138.6950 C   0  0  0  0  0  2  0  0  0  0  0  0
  191.5520  176.6260  138.9370 C   0  0  0  0  0  2  0  0  0  0  0  0
  191.2960  177.5050  140.1430 C   0  0  0  0  0  2  0  0  0  0  0  0
  190.3920  176.7790  141.1170 C   0  0  0  0  0  2  0  0  0  0  0  0
  189.9780  177.6780  142.1900 N   0  0  0  0  0  0  0  0  0  0  0  0
  189.9090  176.4320  145.7540 O   0  0  0  0  0  0  0  0  0  0  0  0
  191.6600  177.9280  146.0800 F   0  0  0  0  0  0  0  0  0  0  0  0
  192.0610  175.7230  145.9460 O   0  0  0  0  0  1  0  0  0  0  0  0
  191.4570  176.8660  144.0000 N   0  0  0  0  0  0  0  0  0  0  0  0
  192.0990  175.8750  143.3310 O   0  0  0  0  0  1  0  0  0  0  0  0
  189.0890  177.5630  145.5780 C   0  0  1  0  0  3  0  0  0  0  0  0
  188.5570  177.8450  142.5010 C   0  0  2  0  0  3  0  0  0  0  0  0
  187.9180  176.3540  143.3360 S   0  0  0  0  0  0  0  0  0  0  0  0
  187.7490  177.1620  144.9660 C   0  0  0  0  0  2  0  0  0  0  0  0
  188.8290  178.2200  146.9230 C   0  0  0  0  0  1  0  0  0  0  0  0
  191.2590  176.7540  145.4530 C   0  0  1  0  0  0  0  0  0  0  0  0
  191.0570  179.1370  143.6440 O   0  0  0  0  0  0  0  0  0  0  0  0
  190.8890  177.9490  143.2560 C   0  0  0  0  0  0  0  0  0  0  0  0
  187.6970  178.2460  141.2940 C   0  0  2  0  0  3  0  0  0  0  0  0
  188.2870  179.2800  140.5630 O   0  0  0  0  0  1  0  0  0  0  0  0
  186.3110  178.6370  141.7030 C   0  0  0  0  0  3  0  0  0  0  0  0
  185.9990  178.6640  142.8830 O   0  0  0  0  0  0  0  0  0  0  0  0
  1  8  1  1  0  0  0
  1  4  1  0  0  0  0
  1  6  1  0  0  0  0
  2  9  1  6  0  0  0
  2  5  1  0  0  0  0
  3  5  1  0  0  0  0
  4  2  1  0  0  0  0
  6 30  1  6  0  0  0
  6  3  1  0  0  0  0
  8  7  1  0  0  0  0
 11  9  1  6  0  0  0
 11 12  1  0  0  0  0
 12 19  1  6  0  0  0
 12 10  1  0  0  0  0
 13 17  1  0  0  0  0
 14 13  1  0  0  0  0
 14 11  1  0  0  0  0
 15 10  2  0  0  0  0
 16 18  1  0  0  0  0
 16 15  2  0  0  0  0
 17 16  1  0  0  0  0
 19 20  1  0  0  0  0
 20 21  1  0  0  0  0
 22 29  1  0  0  0  0
 22 26  2  0  0  0  0
 23 26  1  0  0  0  0
 24 21  1  6  0  0  0
 24 22  1  0  0  0  0
 25 23  1  0  0  0  0
 27 24  1  0  0  0  0
 27 25  1  0  0  0  0
 29 28  1  0  0  0  0
 30 31  1  0  0  0  0
 31 32  1  0  0  0  0
 32 33  1  0  0  0  0
 33 34  1  0  0  0  0
 34 35  1  0  0  0  0
 35 42  1  0  0  0  0
 35 48  1  0  0  0  0
 39 46  1  0  0  0  0
 40 39  1  0  0  0  0
 41 36  1  0  0  0  0
 41 45  1  1  0  0  0
 42 49  1  6  0  0  0
 42 43  1  0  0  0  0
 43 44  1  0  0  0  0
 44 41  1  0  0  0  0
 46 36  1  0  0  0  0
 46 38  1  1  0  0  0
 46 37  1  0  0  0  0
 48 47  2  0  0  0  0
 48 39  1  0  0  0  0
 49 50  1  1  0  0  0
 49 51  1  0  0  0  0
 51 52  2  0  0  0  0
M  END
>  <MODEL>
9

>  <REMARK>
 VINA RESULT:      -6.3      3.736      9.040
  Name = 
  16 active torsions:
  status: ('A' for Active; 'I' for Inactive)
    1  A    between atoms: C_1  and  O_7
    2  A    between atoms: C_1  and  C_23
    3  A    between atoms: N_2  and  C_49
    4  A    between atoms: C_4  and  O_17
    5  A    between atoms: C_5  and  C_38
    6  A    between atoms: C_6  and  C_27
    7  A    between atoms: C_6  and  C_34
    8  A    between atoms: O_7  and  C_41
    9  A    between atoms: C_8  and  N_15
   10  A    between atoms: C_12  and  N_15
   11  A    between atoms: C_19  and  C_27
   12  A    between atoms: C_21  and  C_34
   13  A    between atoms: C_23  and  C_29
   14  A    between atoms: C_26  and  C_35
   15  A    between atoms: C_26  and  C_36
   16  A    between atoms: C_29  and  C_49
                            x       y       z     vdW  Elec       q    Type
                         _______ _______ _______ _____ _____    ______ ____

>  <TORSDO>
F 16

$$$$
