=
 OpenBabel11032420073D

 59 62  0  0  1  0  0  0  0  0999 V2000
  183.3370  178.6620  138.7910 C   0  0  0  0  0  2  0  0  0  0  0  0
  183.2500  173.9300  137.2810 O   0  0  0  0  0  0  0  0  0  0  0  0
  185.6340  178.1710  137.9390 C   0  0  0  0  0  3  0  0  0  0  0  0
  187.9250  177.8740  137.1350 C   0  0  0  0  0  1  0  0  0  0  0  0
  185.3410  173.3480  136.5810 N   0  0  0  0  0  0  0  0  0  0  0  0
  184.3360  177.7370  138.1810 C   0  0  0  0  0  0  0  0  0  0  0  0
  186.6410  173.6780  136.3680 C   0  0  0  0  0  3  0  0  0  0  0  0
  184.4520  174.2600  137.0750 C   0  0  0  0  0  0  0  0  0  0  0  0
  184.8710  175.5670  137.3640 C   0  0  0  0  0  0  0  0  0  0  0  0
  186.2180  175.9490  137.1290 C   0  0  0  0  0  0  0  0  0  0  0  0
  183.9830  176.4620  137.8820 N   0  0  0  0  0  0  0  0  0  0  0  0
  187.1170  174.9650  136.6340 C   0  0  0  0  0  0  0  0  0  0  0  0
  186.5790  177.2960  137.4070 C   0  0  0  0  0  0  0  0  0  0  0  0
  186.0090  171.2640  135.4950 C   0  0  0  0  0  1  0  0  0  0  0  0
  184.9200  171.9850  136.2730 C   0  0  0  0  0  2  0  0  0  0  0  0
  188.5810  175.2020  136.4400 C   0  0  0  0  0  2  0  0  0  0  0  0
  189.3770  173.9900  136.8910 C   0  0  0  0  0  2  0  0  0  0  0  0
  190.8060  174.3890  137.2020 C   0  0  0  0  0  2  0  0  0  0  0  0
  190.9310  175.7780  137.1200 O   0  0  0  0  0  0  0  0  0  0  0  0
  192.2380  175.9930  136.6790 C   0  0  0  0  0  2  0  0  0  0  0  0
  193.9680  175.9040  138.3150 O   0  0  0  0  0  1  0  0  0  0  0  0
  193.1950  175.1130  137.4610 C   0  0  2  0  0  3  0  0  0  0  0  0
  194.0590  174.3980  136.5330 N   0  0  0  0  0  2  0  0  0  0  0  0
  195.4350  174.5510  136.9850 C   0  0  0  0  0  2  0  0  0  0  0  0
  197.2520  170.6830  137.4140 C   0  0  0  0  0  2  0  0  0  0  0  0
  195.1790  172.0660  136.7890 C   0  0  0  0  0  2  0  0  0  0  0  0
  196.0340  173.2020  137.3480 C   0  0  0  0  0  3  0  0  0  0  0  0
  195.7310  170.6950  137.2030 C   0  0  0  0  0  2  0  0  0  0  0  0
  197.9440  171.6980  136.5100 C   0  0  0  0  0  2  0  0  0  0  0  0
  197.4730  173.1270  136.8190 C   0  0  0  0  0  2  0  0  0  0  0  0
  182.0220  178.0350  138.8680 N   0  0  0  0  0  0  0  0  0  0  0  0
  181.1360  178.6350  137.8630 C   0  0  0  0  0  2  0  0  0  0  0  0
  181.2850  180.0270  137.8050 O   0  0  0  0  0  0  0  0  0  0  0  0
  180.1030  180.4820  137.2130 C   0  0  0  0  0  2  0  0  0  0  0  0
  180.4060  181.1870  135.9020 C   0  0  0  0  0  2  0  0  0  0  0  0
  179.6980  179.3180  134.5970 O   0  0  0  0  0  1  0  0  0  0  0  0
  180.7640  180.1900  134.8160 C   0  0  0  0  0  2  0  0  0  0  0  0
  181.4900  178.3170  140.1950 C   0  0  0  0  0  2  0  0  0  0  0  0
  182.5460  178.9890  141.0530 C   0  0  0  0  0  2  0  0  0  0  0  0
  182.6980  178.2510  142.2950 N   0  0  0  0  0  2  0  0  0  0  0  0
  182.5330  179.2080  143.3720 C   0  0  0  0  0  2  0  0  0  0  0  0
  183.8030  179.3880  144.0520 N   0  0  0  0  0  2  0  0  0  0  0  0
  184.5970  178.2790  143.7310 N   0  0  0  0  0  2  0  0  0  0  0  0
  185.9400  178.7800  143.5020 C   0  0  0  0  0  2  0  0  0  0  0  0
  186.0200  179.4550  141.2030 O   0  0  0  0  0  1  0  0  0  0  0  0
  186.3900  178.4380  142.0910 C   0  0  1  0  0  3  0  0  0  0  0  0
  187.9000  178.2010  142.0610 C   0  0  2  0  0  3  0  0  0  0  0  0
  188.4360  177.9570  140.6570 C   0  0  0  0  0  1  0  0  0  0  0  0
  188.3200  177.1100  142.9970 C   0  0  0  0  0  0  0  0  0  0  0  0
  187.4970  176.2750  143.3390 O   0  0  0  0  0  0  0  0  0  0  0  0
  190.6010  178.1850  143.0340 C   0  0  0  0  0  2  0  0  0  0  0  0
  191.2630  177.5740  145.3140 C   0  0  0  0  0  2  0  0  0  0  0  0
  189.8530  177.0690  145.0670 C   0  0  2  0  0  3  0  0  0  0  0  0
  189.7240  177.0640  143.5460 C   0  0  1  0  0  3  0  0  0  0  0  0
  191.6860  178.3600  144.0790 C   0  0  0  0  0  2  0  0  0  0  0  0
  188.8540  178.0020  145.7540 C   0  0  0  0  0  2  0  0  0  0  0  0
  188.3090  177.3720  146.9880 C   0  0  0  0  0  0  0  0  0  0  0  0
  188.9330  176.4320  147.5460 O   0  0  0  0  0  1  0  0  0  0  0  0
  187.1230  177.8340  147.5410 O   0  0  0  0  0  0  0  0  0  0  0  0
  1 31  1  0  0  0  0
  3  6  1  0  0  0  0
  4 13  1  0  0  0  0
  5  8  1  0  0  0  0
  6  1  1  0  0  0  0
  7  5  1  0  0  0  0
  7 12  2  0  0  0  0
  8  2  2  0  0  0  0
  8  9  1  0  0  0  0
  9 11  1  0  0  0  0
 10  9  2  0  0  0  0
 10 13  1  0  0  0  0
 11  6  2  0  0  0  0
 12 10  1  0  0  0  0
 13  3  2  0  0  0  0
 14 15  1  0  0  0  0
 15  5  1  0  0  0  0
 16 12  1  0  0  0  0
 16 17  1  0  0  0  0
 17 18  1  0  0  0  0
 19 18  1  0  0  0  0
 20 19  1  0  0  0  0
 20 22  1  0  0  0  0
 22 21  1  1  0  0  0
 23 24  1  0  0  0  0
 23 22  1  0  0  0  0
 24 27  1  0  0  0  0
 26 28  1  0  0  0  0
 26 27  1  0  0  0  0
 28 25  1  0  0  0  0
 29 30  1  0  0  0  0
 29 25  1  0  0  0  0
 30 27  1  0  0  0  0
 31 38  1  0  0  0  0
 32 31  1  0  0  0  0
 33 32  1  0  0  0  0
 34 33  1  0  0  0  0
 35 34  1  0  0  0  0
 36 37  1  0  0  0  0
 37 35  1  0  0  0  0
 38 39  1  0  0  0  0
 39 40  1  0  0  0  0
 40 41  1  0  0  0  0
 41 42  1  0  0  0  0
 43 42  1  0  0  0  0
 44 43  1  0  0  0  0
 46 45  1  6  0  0  0
 46 44  1  0  0  0  0
 47 48  1  6  0  0  0
 47 46  1  0  0  0  0
 47 49  1  0  0  0  0
 49 50  2  0  0  0  0
 51 54  1  0  0  0  0
 51 55  1  0  0  0  0
 53 52  1  0  0  0  0
 53 56  1  1  0  0  0
 54 49  1  1  0  0  0
 54 53  1  0  0  0  0
 55 52  1  0  0  0  0
 56 57  1  0  0  0  0
 57 59  2  0  0  0  0
 57 58  1  0  0  0  0
M  END
>  <MODEL>
1

>  <REMARK>
 VINA RESULT:      -5.6      0.000      0.000
  Name = 
  30 active torsions:
  status: ('A' for Active; 'I' for Inactive)
    1  A    between atoms: N_1  and  C_16
    2  A    between atoms: N_1  and  C_25
    3  A    between atoms: N_1  and  C_29
    4  A    between atoms: C_4  and  C_17
    5  A    between atoms: C_6  and  C_19
    6  A    between atoms: C_6  and  C_35
    7  A    between atoms: N_9  and  C_37
    8  A    between atoms: N_9  and  C_43
    9  A    between atoms: C_12  and  C_46
   10  A    between atoms: C_12  and  C_54
   11  A    between atoms: N_14  and  N_55
   12  A    between atoms: N_14  and  C_59
   13  A    between atoms: C_16  and  C_31
   14  A    between atoms: C_17  and  C_18
   15  A    between atoms: C_21  and  N_30
   16  A    between atoms: C_21  and  N_55
   17  A    between atoms: C_23  and  C_41
   18  A    between atoms: C_23  and  C_49
   19  A    between atoms: N_24  and  C_58
   20  A    between atoms: C_25  and  O_48
   21  A    between atoms: C_26  and  C_29
   22  A    between atoms: C_28  and  C_43
   23  A    between atoms: C_28  and  O_47
   24  A    between atoms: N_30  and  C_31
   25  A    between atoms: C_32  and  C_37
   26  A    between atoms: C_35  and  C_57
   27  A    between atoms: C_41  and  O_47
   28  A    between atoms: C_46  and  O_48
   29  A    between atoms: C_49  and  C_50
   30  A    between atoms: C_57  and  C_59
                            x       y       z     vdW  Elec       q    Type
                         _______ _______ _______ _____ _____    ______ ____

>  <TORSDO>
F 30

$$$$
=
 OpenBabel11032420073D

 59 62  0  0  1  0  0  0  0  0999 V2000
  188.0440  178.1390  142.9690 C   0  0  0  0  0  2  0  0  0  0  0  0
  185.2170  178.7370  138.9280 O   0  0  0  0  0  0  0  0  0  0  0  0
  185.6920  178.3010  143.7960 C   0  0  0  0  0  3  0  0  0  0  0  0
  183.4560  178.4230  144.7800 C   0  0  0  0  0  1  0  0  0  0  0  0
  183.0500  179.0040  139.5870 N   0  0  0  0  0  0  0  0  0  0  0  0
  186.5810  178.2930  142.7260 C   0  0  0  0  0  0  0  0  0  0  0  0
  182.1260  179.0810  140.5800 C   0  0  0  0  0  3  0  0  0  0  0  0
  184.3700  178.7900  139.8640 C   0  0  0  0  0  0  0  0  0  0  0  0
  184.7940  178.6340  141.1930 C   0  0  0  0  0  0  0  0  0  0  0  0
  183.8480  178.6850  142.2500 C   0  0  0  0  0  0  0  0  0  0  0  0
  186.1170  178.4470  141.4610 N   0  0  0  0  0  0  0  0  0  0  0  0
  182.4870  178.9310  141.9210 C   0  0  0  0  0  0  0  0  0  0  0  0
  184.3290  178.4850  143.5740 C   0  0  0  0  0  0  0  0  0  0  0  0
  181.8530  180.4860  138.0560 C   0  0  0  0  0  1  0  0  0  0  0  0
  182.5930  179.1660  138.2100 C   0  0  0  0  0  2  0  0  0  0  0  0
  181.4070  179.1110  142.9400 C   0  0  0  0  0  2  0  0  0  0  0  0
  180.0620  179.2870  142.2590 C   0  0  0  0  0  2  0  0  0  0  0  0
  179.2770  177.9910  142.3100 C   0  0  0  0  0  2  0  0  0  0  0  0
  178.9410  177.5980  141.0120 O   0  0  0  0  0  0  0  0  0  0  0  0
  179.5510  176.3520  140.8480 C   0  0  0  0  0  2  0  0  0  0  0  0
  179.3080  175.1620  138.7980 O   0  0  0  0  0  1  0  0  0  0  0  0
  180.0190  176.1960  139.4130 C   0  0  2  0  0  3  0  0  0  0  0  0
  181.4430  175.8920  139.4020 N   0  0  0  0  0  2  0  0  0  0  0  0
  181.8280  175.5780  138.0330 C   0  0  0  0  0  2  0  0  0  0  0  0
  185.5200  173.4880  137.3650 C   0  0  0  0  0  2  0  0  0  0  0  0
  182.9550  173.4920  137.2230 C   0  0  0  0  0  2  0  0  0  0  0  0
  183.1290  174.7910  138.0080 C   0  0  0  0  0  3  0  0  0  0  0  0
  184.2390  172.6500  137.2430 C   0  0  0  0  0  2  0  0  0  0  0  0
  185.3490  174.8570  136.7150 C   0  0  0  0  0  2  0  0  0  0  0  0
  184.2370  175.6630  137.4030 C   0  0  0  0  0  2  0  0  0  0  0  0
  188.3280  176.9050  143.6940 N   0  0  0  0  0  0  0  0  0  0  0  0
  188.6580  177.2240  145.0890 C   0  0  0  0  0  2  0  0  0  0  0  0
  190.0410  177.3180  145.2860 O   0  0  0  0  0  0  0  0  0  0  0  0
  190.2230  177.0260  146.6410 C   0  0  0  0  0  2  0  0  0  0  0  0
  188.8840  176.7700  147.3110 C   0  0  0  0  0  2  0  0  0  0  0  0
  187.9720  178.8550  148.0290 O   0  0  0  0  0  1  0  0  0  0  0  0
  188.6620  177.7250  148.4680 C   0  0  0  0  0  2  0  0  0  0  0  0
  189.4890  176.2930  143.0630 C   0  0  0  0  0  2  0  0  0  0  0  0
  189.5180  176.6240  141.5820 C   0  0  0  0  0  2  0  0  0  0  0  0
  190.6350  177.5120  141.3090 N   0  0  0  0  0  2  0  0  0  0  0  0
  191.3580  176.9400  140.1900 C   0  0  0  0  0  2  0  0  0  0  0  0
  190.4140  176.3380  139.2660 N   0  0  0  0  0  2  0  0  0  0  0  0
  191.1320  175.4170  138.4940 N   0  0  0  0  0  2  0  0  0  0  0  0
  191.7550  176.1690  137.4200 C   0  0  0  0  0  2  0  0  0  0  0  0
  191.2960  176.3360  135.0730 O   0  0  0  0  0  1  0  0  0  0  0  0
  191.5870  175.4320  136.1010 C   0  0  1  0  0  3  0  0  0  0  0  0
  192.8440  174.6220  135.7850 C   0  0  2  0  0  3  0  0  0  0  0  0
  192.8780  173.2750  136.4920 C   0  0  0  0  0  1  0  0  0  0  0  0
  194.0970  175.4000  136.0420 C   0  0  0  0  0  0  0  0  0  0  0  0
  194.0940  176.2550  136.9140 O   0  0  0  0  0  0  0  0  0  0  0  0
  196.0870  176.4390  134.8930 C   0  0  0  0  0  2  0  0  0  0  0  0
  197.6530  174.5640  135.0910 C   0  0  0  0  0  2  0  0  0  0  0  0
  196.3550  174.1870  135.7830 C   0  0  2  0  0  3  0  0  0  0  0  0
  195.3340  175.1660  135.2110 C   0  0  1  0  0  3  0  0  0  0  0  0
  197.5170  176.0090  134.6280 C   0  0  0  0  0  2  0  0  0  0  0  0
  196.5340  174.3170  137.2970 C   0  0  0  0  0  2  0  0  0  0  0  0
  196.2360  173.0250  137.9750 C   0  0  0  0  0  0  0  0  0  0  0  0
  196.9550  172.0160  137.7550 O   0  0  0  0  0  0  0  0  0  0  0  0
  195.1790  172.9350  138.8690 O   0  0  0  0  0  1  0  0  0  0  0  0
  1 31  1  0  0  0  0
  2  8  2  0  0  0  0
  5  8  1  0  0  0  0
  5  7  1  0  0  0  0
  6  1  1  0  0  0  0
  6  3  2  0  0  0  0
  7 12  2  0  0  0  0
  8  9  1  0  0  0  0
  9 11  2  0  0  0  0
  9 10  1  0  0  0  0
 10 13  2  0  0  0  0
 11  6  1  0  0  0  0
 12 10  1  0  0  0  0
 12 16  1  0  0  0  0
 13  3  1  0  0  0  0
 13  4  1  0  0  0  0
 14 15  1  0  0  0  0
 15  5  1  0  0  0  0
 17 18  1  0  0  0  0
 17 16  1  0  0  0  0
 19 18  1  0  0  0  0
 20 19  1  0  0  0  0
 22 21  1  1  0  0  0
 22 20  1  0  0  0  0
 23 22  1  0  0  0  0
 24 23  1  0  0  0  0
 26 28  1  0  0  0  0
 26 27  1  0  0  0  0
 27 24  1  0  0  0  0
 28 25  1  0  0  0  0
 29 25  1  0  0  0  0
 29 30  1  0  0  0  0
 30 27  1  0  0  0  0
 31 32  1  0  0  0  0
 32 33  1  0  0  0  0
 33 34  1  0  0  0  0
 34 35  1  0  0  0  0
 35 37  1  0  0  0  0
 36 37  1  0  0  0  0
 38 31  1  0  0  0  0
 39 38  1  0  0  0  0
 40 39  1  0  0  0  0
 41 40  1  0  0  0  0
 42 41  1  0  0  0  0
 43 42  1  0  0  0  0
 44 43  1  0  0  0  0
 46 45  1  6  0  0  0
 46 44  1  0  0  0  0
 47 49  1  0  0  0  0
 47 46  1  0  0  0  0
 47 48  1  1  0  0  0
 49 50  2  0  0  0  0
 51 54  1  0  0  0  0
 52 53  1  0  0  0  0
 53 56  1  1  0  0  0
 54 53  1  0  0  0  0
 54 49  1  1  0  0  0
 55 51  1  0  0  0  0
 55 52  1  0  0  0  0
 56 57  1  0  0  0  0
 57 59  1  0  0  0  0
 58 57  2  0  0  0  0
M  END
>  <MODEL>
2

>  <REMARK>
 VINA RESULT:      -5.5      2.448     10.637
  Name = 
  30 active torsions:
  status: ('A' for Active; 'I' for Inactive)
    1  A    between atoms: N_1  and  C_16
    2  A    between atoms: N_1  and  C_25
    3  A    between atoms: N_1  and  C_29
    4  A    between atoms: C_4  and  C_17
    5  A    between atoms: C_6  and  C_19
    6  A    between atoms: C_6  and  C_35
    7  A    between atoms: N_9  and  C_37
    8  A    between atoms: N_9  and  C_43
    9  A    between atoms: C_12  and  C_46
   10  A    between atoms: C_12  and  C_54
   11  A    between atoms: N_14  and  N_55
   12  A    between atoms: N_14  and  C_59
   13  A    between atoms: C_16  and  C_31
   14  A    between atoms: C_17  and  C_18
   15  A    between atoms: C_21  and  N_30
   16  A    between atoms: C_21  and  N_55
   17  A    between atoms: C_23  and  C_41
   18  A    between atoms: C_23  and  C_49
   19  A    between atoms: N_24  and  C_58
   20  A    between atoms: C_25  and  O_48
   21  A    between atoms: C_26  and  C_29
   22  A    between atoms: C_28  and  C_43
   23  A    between atoms: C_28  and  O_47
   24  A    between atoms: N_30  and  C_31
   25  A    between atoms: C_32  and  C_37
   26  A    between atoms: C_35  and  C_57
   27  A    between atoms: C_41  and  O_47
   28  A    between atoms: C_46  and  O_48
   29  A    between atoms: C_49  and  C_50
   30  A    between atoms: C_57  and  C_59
                            x       y       z     vdW  Elec       q    Type
                         _______ _______ _______ _____ _____    ______ ____

>  <TORSDO>
F 30

$$$$
=
 OpenBabel11032420073D

 59 62  0  0  1  0  0  0  0  0999 V2000
  187.4360  178.3060  142.9630 C   0  0  0  0  0  2  0  0  0  0  0  0
  185.1210  178.9430  138.6140 O   0  0  0  0  0  0  0  0  0  0  0  0
  184.9970  178.4170  143.4940 C   0  0  0  0  0  3  0  0  0  0  0  0
  182.6540  178.4880  144.1950 C   0  0  0  0  0  1  0  0  0  0  0  0
  182.8840  179.1660  139.0030 N   0  0  0  0  0  0  0  0  0  0  0  0
  186.0110  178.4430  142.5430 C   0  0  0  0  0  0  0  0  0  0  0  0
  181.8440  179.2090  139.8750 C   0  0  0  0  0  3  0  0  0  0  0  0
  184.1640  178.9650  139.4380 C   0  0  0  0  0  0  0  0  0  0  0  0
  184.4230  178.7890  140.8060 C   0  0  0  0  0  0  0  0  0  0  0  0
  183.3520  178.8050  141.7390 C   0  0  0  0  0  0  0  0  0  0  0  0
  185.7050  178.6160  141.2340 N   0  0  0  0  0  0  0  0  0  0  0  0
  182.0380  179.0380  141.2480 C   0  0  0  0  0  0  0  0  0  0  0  0
  183.6690  178.5860  143.1080 C   0  0  0  0  0  0  0  0  0  0  0  0
  181.1910  178.8690  137.2680 C   0  0  0  0  0  1  0  0  0  0  0  0
  182.5980  179.3480  137.5840 C   0  0  0  0  0  2  0  0  0  0  0  0
  180.8380  179.1820  142.1280 C   0  0  0  0  0  2  0  0  0  0  0  0
  179.5860  178.7460  141.3890 C   0  0  0  0  0  2  0  0  0  0  0  0
  179.5050  177.2330  141.3450 C   0  0  0  0  0  2  0  0  0  0  0  0
  178.9310  176.8320  140.1360 O   0  0  0  0  0  0  0  0  0  0  0  0
  179.9770  176.2380  139.4250 C   0  0  0  0  0  2  0  0  0  0  0  0
  179.2570  173.9740  139.2430 O   0  0  0  0  0  1  0  0  0  0  0  0
  179.4270  175.1550  138.5150 C   0  0  2  0  0  3  0  0  0  0  0  0
  180.3580  174.9300  137.4180 N   0  0  0  0  0  2  0  0  0  0  0  0
  181.5920  174.3950  137.9740 C   0  0  0  0  0  2  0  0  0  0  0  0
  183.7580  171.5930  135.5430 C   0  0  0  0  0  2  0  0  0  0  0  0
  183.8230  173.5580  137.1960 C   0  0  0  0  0  2  0  0  0  0  0  0
  182.3150  173.5360  136.9480 C   0  0  0  0  0  3  0  0  0  0  0  0
  184.5760  172.7520  136.1290 C   0  0  0  0  0  2  0  0  0  0  0  0
  182.7750  171.0360  136.5670 C   0  0  0  0  0  2  0  0  0  0  0  0
  181.7630  172.1060  137.0040 C   0  0  0  0  0  2  0  0  0  0  0  0
  187.6800  177.0010  143.5660 N   0  0  0  0  0  0  0  0  0  0  0  0
  187.9090  177.1640  145.0070 C   0  0  0  0  0  2  0  0  0  0  0  0
  189.2170  176.8160  145.3670 O   0  0  0  0  0  0  0  0  0  0  0  0
  189.5390  177.6910  146.4090 C   0  0  0  0  0  2  0  0  0  0  0  0
  189.0620  177.1300  147.7380 C   0  0  0  0  0  2  0  0  0  0  0  0
  187.1980  178.6050  147.9480 O   0  0  0  0  0  1  0  0  0  0  0  0
  188.3790  178.2000  148.5680 C   0  0  0  0  0  2  0  0  0  0  0  0
  188.8880  176.4640  142.9550 C   0  0  0  0  0  2  0  0  0  0  0  0
  188.9870  176.9100  141.5070 C   0  0  0  0  0  2  0  0  0  0  0  0
  190.0720  177.8660  141.3700 N   0  0  0  0  0  2  0  0  0  0  0  0
  191.1170  177.2060  140.6120 C   0  0  0  0  0  2  0  0  0  0  0  0
  190.7460  177.1790  139.2080 N   0  0  0  0  0  2  0  0  0  0  0  0
  191.6830  176.3680  138.5560 N   0  0  0  0  0  2  0  0  0  0  0  0
  191.4810  176.5610  137.1310 C   0  0  0  0  0  2  0  0  0  0  0  0
  191.4190  175.3590  135.0570 O   0  0  0  0  0  1  0  0  0  0  0  0
  191.8930  175.3080  136.3730 C   0  0  1  0  0  3  0  0  0  0  0  0
  193.4130  175.1470  136.4060 C   0  0  2  0  0  3  0  0  0  0  0  0
  194.1500  176.3280  135.7900 C   0  0  0  0  0  1  0  0  0  0  0  0
  193.8570  173.8540  135.7950 C   0  0  0  0  0  0  0  0  0  0  0  0
  194.0940  173.8160  134.5980 O   0  0  0  0  0  0  0  0  0  0  0  0
  194.1830  171.3540  135.8100 C   0  0  0  0  0  2  0  0  0  0  0  0
  195.3110  171.1370  137.9760 C   0  0  0  0  0  2  0  0  0  0  0  0
  195.0530  172.6090  137.7080 C   0  0  2  0  0  3  0  0  0  0  0  0
  193.9700  172.6050  136.6330 C   0  0  1  0  0  3  0  0  0  0  0  0
  194.8600  170.3660  136.7410 C   0  0  0  0  0  2  0  0  0  0  0  0
  196.3520  173.2750  137.2520 C   0  0  0  0  0  2  0  0  0  0  0  0
  196.7730  174.3250  138.2220 C   0  0  0  0  0  0  0  0  0  0  0  0
  197.9830  174.6620  138.3010 O   0  0  0  0  0  0  0  0  0  0  0  0
  195.8300  174.9510  139.0240 O   0  0  0  0  0  1  0  0  0  0  0  0
  1 31  1  0  0  0  0
  2  8  2  0  0  0  0
  5  8  1  0  0  0  0
  5  7  1  0  0  0  0
  6  1  1  0  0  0  0
  6  3  2  0  0  0  0
  7 12  2  0  0  0  0
  8  9  1  0  0  0  0
  9 11  2  0  0  0  0
  9 10  1  0  0  0  0
 10 13  2  0  0  0  0
 11  6  1  0  0  0  0
 12 10  1  0  0  0  0
 12 16  1  0  0  0  0
 13  3  1  0  0  0  0
 13  4  1  0  0  0  0
 14 15  1  0  0  0  0
 15  5  1  0  0  0  0
 17 16  1  0  0  0  0
 18 17  1  0  0  0  0
 19 18  1  0  0  0  0
 20 19  1  0  0  0  0
 22 21  1  1  0  0  0
 22 20  1  0  0  0  0
 23 24  1  0  0  0  0
 23 22  1  0  0  0  0
 25 28  1  0  0  0  0
 25 29  1  0  0  0  0
 27 30  1  0  0  0  0
 27 26  1  0  0  0  0
 27 24  1  0  0  0  0
 28 26  1  0  0  0  0
 29 30  1  0  0  0  0
 31 32  1  0  0  0  0
 32 33  1  0  0  0  0
 33 34  1  0  0  0  0
 34 35  1  0  0  0  0
 35 37  1  0  0  0  0
 36 37  1  0  0  0  0
 38 31  1  0  0  0  0
 39 38  1  0  0  0  0
 40 39  1  0  0  0  0
 41 40  1  0  0  0  0
 42 41  1  0  0  0  0
 43 42  1  0  0  0  0
 44 43  1  0  0  0  0
 46 45  1  6  0  0  0
 46 47  1  0  0  0  0
 46 44  1  0  0  0  0
 47 48  1  6  0  0  0
 49 47  1  0  0  0  0
 50 49  2  0  0  0  0
 51 54  1  0  0  0  0
 51 55  1  0  0  0  0
 53 56  1  6  0  0  0
 53 52  1  0  0  0  0
 54 49  1  6  0  0  0
 54 53  1  0  0  0  0
 55 52  1  0  0  0  0
 56 57  1  0  0  0  0
 57 58  2  0  0  0  0
 57 59  1  0  0  0  0
M  END
>  <MODEL>
3

>  <REMARK>
 VINA RESULT:      -5.4      2.463     10.605
  Name = 
  30 active torsions:
  status: ('A' for Active; 'I' for Inactive)
    1  A    between atoms: N_1  and  C_16
    2  A    between atoms: N_1  and  C_25
    3  A    between atoms: N_1  and  C_29
    4  A    between atoms: C_4  and  C_17
    5  A    between atoms: C_6  and  C_19
    6  A    between atoms: C_6  and  C_35
    7  A    between atoms: N_9  and  C_37
    8  A    between atoms: N_9  and  C_43
    9  A    between atoms: C_12  and  C_46
   10  A    between atoms: C_12  and  C_54
   11  A    between atoms: N_14  and  N_55
   12  A    between atoms: N_14  and  C_59
   13  A    between atoms: C_16  and  C_31
   14  A    between atoms: C_17  and  C_18
   15  A    between atoms: C_21  and  N_30
   16  A    between atoms: C_21  and  N_55
   17  A    between atoms: C_23  and  C_41
   18  A    between atoms: C_23  and  C_49
   19  A    between atoms: N_24  and  C_58
   20  A    between atoms: C_25  and  O_48
   21  A    between atoms: C_26  and  C_29
   22  A    between atoms: C_28  and  C_43
   23  A    between atoms: C_28  and  O_47
   24  A    between atoms: N_30  and  C_31
   25  A    between atoms: C_32  and  C_37
   26  A    between atoms: C_35  and  C_57
   27  A    between atoms: C_41  and  O_47
   28  A    between atoms: C_46  and  O_48
   29  A    between atoms: C_49  and  C_50
   30  A    between atoms: C_57  and  C_59
                            x       y       z     vdW  Elec       q    Type
                         _______ _______ _______ _____ _____    ______ ____

>  <TORSDO>
F 30

$$$$
=
 OpenBabel11032420073D

 59 62  0  0  1  0  0  0  0  0999 V2000
  184.1970  178.9330  137.7880 C   0  0  0  0  0  2  0  0  0  0  0  0
  180.6060  179.1480  141.2130 O   0  0  0  0  0  0  0  0  0  0  0  0
  185.3290  178.5960  139.9890 C   0  0  0  0  0  3  0  0  0  0  0  0
  186.5980  178.2360  142.0500 C   0  0  0  0  0  1  0  0  0  0  0  0
  181.5550  178.9570  143.2780 N   0  0  0  0  0  0  0  0  0  0  0  0
  184.1560  178.8090  139.2740 C   0  0  0  0  0  0  0  0  0  0  0  0
  182.6600  178.8080  144.0520 C   0  0  0  0  0  3  0  0  0  0  0  0
  181.6440  178.9920  141.9160 C   0  0  0  0  0  0  0  0  0  0  0  0
  182.8930  178.8630  141.2890 C   0  0  0  0  0  0  0  0  0  0  0  0
  184.0640  178.6810  142.0700 C   0  0  0  0  0  0  0  0  0  0  0  0
  182.9760  178.9260  139.9300 N   0  0  0  0  0  0  0  0  0  0  0  0
  183.9310  178.6720  143.4860 C   0  0  0  0  0  0  0  0  0  0  0  0
  185.2970  178.5200  141.3800 C   0  0  0  0  0  0  0  0  0  0  0  0
  179.7310  177.7170  144.3290 C   0  0  0  0  0  1  0  0  0  0  0  0
  180.2630  179.0880  143.9460 C   0  0  0  0  0  2  0  0  0  0  0  0
  185.0900  178.5920  144.4270 C   0  0  0  0  0  2  0  0  0  0  0  0
  184.6490  178.9310  145.8390 C   0  0  0  0  0  2  0  0  0  0  0  0
  185.5880  178.3010  146.8470 C   0  0  0  0  0  2  0  0  0  0  0  0
  186.3640  179.2950  147.4480 O   0  0  0  0  0  0  0  0  0  0  0  0
  187.3630  178.6020  148.1350 C   0  0  0  0  0  2  0  0  0  0  0  0
  188.3580  176.4380  148.1050 O   0  0  0  0  0  1  0  0  0  0  0  0
  187.8730  177.4570  147.2810 C   0  0  2  0  0  3  0  0  0  0  0  0
  188.9380  177.9400  146.4130 N   0  0  0  0  0  2  0  0  0  0  0  0
  189.9700  176.9150  146.3490 C   0  0  0  0  0  2  0  0  0  0  0  0
  191.3730  177.2150  142.3010 C   0  0  0  0  0  2  0  0  0  0  0  0
  189.4310  176.7250  143.9090 C   0  0  0  0  0  2  0  0  0  0  0  0
  190.5490  176.8230  144.9460 C   0  0  0  0  0  3  0  0  0  0  0  0
  189.9970  176.5630  142.4910 C   0  0  0  0  0  2  0  0  0  0  0  0
  191.5380  178.4330  143.2040 C   0  0  0  0  0  2  0  0  0  0  0  0
  191.4440  178.0420  144.6860 C   0  0  0  0  0  2  0  0  0  0  0  0
  183.4050  177.8860  137.1530 N   0  0  0  0  0  0  0  0  0  0  0  0
  181.9780  178.1940  137.3050 C   0  0  0  0  0  2  0  0  0  0  0  0
  181.1690  177.1390  136.8640 O   0  0  0  0  0  0  0  0  0  0  0  0
  180.0040  177.2460  137.6290 C   0  0  0  0  0  2  0  0  0  0  0  0
  179.6480  175.9010  138.2390 C   0  0  0  0  0  2  0  0  0  0  0  0
  180.3030  173.6070  138.2760 O   0  0  0  0  0  1  0  0  0  0  0  0
  180.3380  174.7680  137.5050 C   0  0  0  0  0  2  0  0  0  0  0  0
  183.6960  176.6420  137.8530 C   0  0  0  0  0  2  0  0  0  0  0  0
  184.2550  175.6130  136.8870 C   0  0  0  0  0  2  0  0  0  0  0  0
  185.6020  175.2540  137.2930 N   0  0  0  0  0  2  0  0  0  0  0  0
  186.5000  176.1710  136.6180 C   0  0  0  0  0  2  0  0  0  0  0  0
  187.5340  176.5980  137.5430 N   0  0  0  0  0  2  0  0  0  0  0  0
  188.6330  176.9920  136.7710 N   0  0  0  0  0  2  0  0  0  0  0  0
  189.7220  177.2500  137.6950 C   0  0  0  0  0  2  0  0  0  0  0  0
  189.9270  174.8850  137.3580 O   0  0  0  0  0  1  0  0  0  0  0  0
  190.6090  176.0200  137.8110 C   0  0  1  0  0  3  0  0  0  0  0  0
  191.9070  176.2310  137.0320 C   0  0  2  0  0  3  0  0  0  0  0  0
  191.8550  175.6590  135.6230 C   0  0  0  0  0  1  0  0  0  0  0  0
  193.1020  175.7220  137.7780 C   0  0  0  0  0  0  0  0  0  0  0  0
  193.6950  176.4780  138.5320 O   0  0  0  0  0  0  0  0  0  0  0  0
  192.7320  173.5110  136.6230 C   0  0  0  0  0  2  0  0  0  0  0  0
  195.0680  172.7880  136.4430 C   0  0  0  0  0  2  0  0  0  0  0  0
  195.0340  174.1680  137.0760 C   0  0  2  0  0  3  0  0  0  0  0  0
  193.5970  174.3120  137.5700 C   0  0  1  0  0  3  0  0  0  0  0  0
  193.6360  172.4280  136.0670 C   0  0  0  0  0  2  0  0  0  0  0  0
  195.4200  175.2150  136.0300 C   0  0  0  0  0  2  0  0  0  0  0  0
  196.8970  175.2540  135.8450 C   0  0  0  0  0  0  0  0  0  0  0  0
  197.5690  176.2010  136.3300 O   0  0  0  0  0  1  0  0  0  0  0  0
  197.5410  174.2340  135.1580 O   0  0  0  0  0  0  0  0  0  0  0  0
  1  6  1  0  0  0  0
  2  8  2  0  0  0  0
  3 13  1  0  0  0  0
  5 15  1  0  0  0  0
  5  7  1  0  0  0  0
  6 11  1  0  0  0  0
  6  3  2  0  0  0  0
  8  5  1  0  0  0  0
  9  8  1  0  0  0  0
  9 10  1  0  0  0  0
 10 12  1  0  0  0  0
 11  9  2  0  0  0  0
 12  7  2  0  0  0  0
 12 16  1  0  0  0  0
 13  4  1  0  0  0  0
 13 10  2  0  0  0  0
 15 14  1  0  0  0  0
 16 17  1  0  0  0  0
 17 18  1  0  0  0  0
 18 19  1  0  0  0  0
 19 20  1  0  0  0  0
 22 21  1  1  0  0  0
 22 20  1  0  0  0  0
 23 22  1  0  0  0  0
 24 23  1  0  0  0  0
 25 28  1  0  0  0  0
 25 29  1  0  0  0  0
 26 27  1  0  0  0  0
 27 24  1  0  0  0  0
 28 26  1  0  0  0  0
 29 30  1  0  0  0  0
 30 27  1  0  0  0  0
 31 32  1  0  0  0  0
 31  1  1  0  0  0  0
 31 38  1  0  0  0  0
 33 32  1  0  0  0  0
 33 34  1  0  0  0  0
 34 35  1  0  0  0  0
 37 35  1  0  0  0  0
 37 36  1  0  0  0  0
 39 40  1  0  0  0  0
 39 38  1  0  0  0  0
 41 40  1  0  0  0  0
 41 42  1  0  0  0  0
 43 42  1  0  0  0  0
 43 44  1  0  0  0  0
 44 46  1  0  0  0  0
 46 45  1  6  0  0  0
 47 48  1  6  0  0  0
 47 49  1  0  0  0  0
 47 46  1  0  0  0  0
 49 50  2  0  0  0  0
 51 54  1  0  0  0  0
 52 53  1  0  0  0  0
 53 56  1  6  0  0  0
 53 54  1  0  0  0  0
 54 49  1  6  0  0  0
 55 52  1  0  0  0  0
 55 51  1  0  0  0  0
 57 56  1  0  0  0  0
 57 58  1  0  0  0  0
 59 57  2  0  0  0  0
M  END
>  <MODEL>
4

>  <REMARK>
 VINA RESULT:      -5.2      2.329      8.884
  Name = 
  30 active torsions:
  status: ('A' for Active; 'I' for Inactive)
    1  A    between atoms: N_1  and  C_16
    2  A    between atoms: N_1  and  C_25
    3  A    between atoms: N_1  and  C_29
    4  A    between atoms: C_4  and  C_17
    5  A    between atoms: C_6  and  C_19
    6  A    between atoms: C_6  and  C_35
    7  A    between atoms: N_9  and  C_37
    8  A    between atoms: N_9  and  C_43
    9  A    between atoms: C_12  and  C_46
   10  A    between atoms: C_12  and  C_54
   11  A    between atoms: N_14  and  N_55
   12  A    between atoms: N_14  and  C_59
   13  A    between atoms: C_16  and  C_31
   14  A    between atoms: C_17  and  C_18
   15  A    between atoms: C_21  and  N_30
   16  A    between atoms: C_21  and  N_55
   17  A    between atoms: C_23  and  C_41
   18  A    between atoms: C_23  and  C_49
   19  A    between atoms: N_24  and  C_58
   20  A    between atoms: C_25  and  O_48
   21  A    between atoms: C_26  and  C_29
   22  A    between atoms: C_28  and  C_43
   23  A    between atoms: C_28  and  O_47
   24  A    between atoms: N_30  and  C_31
   25  A    between atoms: C_32  and  C_37
   26  A    between atoms: C_35  and  C_57
   27  A    between atoms: C_41  and  O_47
   28  A    between atoms: C_46  and  O_48
   29  A    between atoms: C_49  and  C_50
   30  A    between atoms: C_57  and  C_59
                            x       y       z     vdW  Elec       q    Type
                         _______ _______ _______ _____ _____    ______ ____

>  <TORSDO>
F 30

$$$$
=
 OpenBabel11032420073D

 59 62  0  0  1  0  0  0  0  0999 V2000
  182.9580  179.1210  139.5560 C   0  0  0  0  0  2  0  0  0  0  0  0
  182.1460  174.7180  137.4050 O   0  0  0  0  0  0  0  0  0  0  0  0
  185.0410  178.5850  138.2860 C   0  0  0  0  0  3  0  0  0  0  0  0
  187.1460  178.2310  137.0910 C   0  0  0  0  0  1  0  0  0  0  0  0
  184.0390  174.0840  136.3020 N   0  0  0  0  0  0  0  0  0  0  0  0
  183.7520  178.2260  138.6660 C   0  0  0  0  0  0  0  0  0  0  0  0
  185.3230  174.3350  135.9350 C   0  0  0  0  0  3  0  0  0  0  0  0
  183.3340  174.9750  137.0600 C   0  0  0  0  0  0  0  0  0  0  0  0
  183.9280  176.1800  137.4660 C   0  0  0  0  0  0  0  0  0  0  0  0
  185.2600  176.4810  137.0770 C   0  0  0  0  0  0  0  0  0  0  0  0
  183.2260  177.0500  138.2440 N   0  0  0  0  0  0  0  0  0  0  0  0
  185.9670  175.5170  136.3060 C   0  0  0  0  0  0  0  0  0  0  0  0
  185.7990  177.7310  137.4870 C   0  0  0  0  0  0  0  0  0  0  0  0
  184.1690  171.6520  136.4920 C   0  0  0  0  0  1  0  0  0  0  0  0
  183.4350  172.8280  135.8690 C   0  0  0  0  0  2  0  0  0  0  0  0
  187.4040  175.6600  135.9170 C   0  0  0  0  0  2  0  0  0  0  0  0
  188.2720  174.7400  136.7560 C   0  0  0  0  0  2  0  0  0  0  0  0
  189.4470  174.2400  135.9390 C   0  0  0  0  0  2  0  0  0  0  0  0
  190.6050  174.9210  136.3210 O   0  0  0  0  0  0  0  0  0  0  0  0
  190.5480  174.9680  137.7160 C   0  0  0  0  0  2  0  0  0  0  0  0
  190.4630  177.3370  137.9510 O   0  0  0  0  0  1  0  0  0  0  0  0
  191.2520  176.2140  138.2170 C   0  0  2  0  0  3  0  0  0  0  0  0
  192.5380  176.3440  137.5450 N   0  0  0  0  0  2  0  0  0  0  0  0
  193.0250  175.0060  137.2380 C   0  0  0  0  0  2  0  0  0  0  0  0
  197.2540  174.2920  137.4600 C   0  0  0  0  0  2  0  0  0  0  0  0
  194.8850  173.6340  138.2050 C   0  0  0  0  0  2  0  0  0  0  0  0
  194.5270  174.9180  137.4580 C   0  0  0  0  0  3  0  0  0  0  0  0
  196.3910  173.5590  138.4970 C   0  0  0  0  0  2  0  0  0  0  0  0
  196.6000  174.2730  136.0820 C   0  0  0  0  0  2  0  0  0  0  0  0
  195.2430  174.9910  136.1030 C   0  0  0  0  0  2  0  0  0  0  0  0
  182.5500  178.4230  140.7710 N   0  0  0  0  0  0  0  0  0  0  0  0
  181.2720  178.9710  141.2420 C   0  0  0  0  0  2  0  0  0  0  0  0
  180.2570  178.8140  140.2890 O   0  0  0  0  0  0  0  0  0  0  0  0
  180.3640  177.4830  139.8770 C   0  0  0  0  0  2  0  0  0  0  0  0
  178.9890  176.8450  139.7870 C   0  0  0  0  0  2  0  0  0  0  0  0
  180.1490  174.8850  140.4970 O   0  0  0  0  0  1  0  0  0  0  0  0
  178.9310  175.5570  140.5850 C   0  0  0  0  0  2  0  0  0  0  0  0
  183.5720  178.6780  141.7770 C   0  0  0  0  0  2  0  0  0  0  0  0
  183.0050  178.4650  143.1680 C   0  0  0  0  0  2  0  0  0  0  0  0
  183.7890  179.2210  144.1290 N   0  0  0  0  0  2  0  0  0  0  0  0
  184.1980  178.2870  145.1610 C   0  0  0  0  0  2  0  0  0  0  0  0
  184.1840  178.9580  146.4480 N   0  0  0  0  0  2  0  0  0  0  0  0
  185.5140  179.2620  146.7620 N   0  0  0  0  0  2  0  0  0  0  0  0
  186.2050  177.9960  146.9220 C   0  0  0  0  0  2  0  0  0  0  0  0
  187.9370  178.2730  148.5570 O   0  0  0  0  0  1  0  0  0  0  0  0
  187.6840  178.2380  147.1810 C   0  0  1  0  0  3  0  0  0  0  0  0
  188.5240  177.1630  146.4920 C   0  0  2  0  0  3  0  0  0  0  0  0
  189.6540  176.6400  147.3670 C   0  0  0  0  0  1  0  0  0  0  0  0
  189.0360  177.6130  145.1590 C   0  0  0  0  0  0  0  0  0  0  0  0
  190.0540  178.2860  145.1130 O   0  0  0  0  0  0  0  0  0  0  0  0
  187.1550  178.2420  143.6020 C   0  0  0  0  0  2  0  0  0  0  0  0
  188.1140  177.4130  141.5040 C   0  0  0  0  0  2  0  0  0  0  0  0
  189.1210  177.1910  142.6190 C   0  0  2  0  0  3  0  0  0  0  0  0
  188.2860  177.2810  143.8930 C   0  0  1  0  0  3  0  0  0  0  0  0
  186.9320  178.1630  142.1040 C   0  0  0  0  0  2  0  0  0  0  0  0
  190.2120  178.2610  142.5360 C   0  0  0  0  0  2  0  0  0  0  0  0
  191.5510  177.6340  142.3560 C   0  0  0  0  0  0  0  0  0  0  0  0
  192.0050  177.4370  141.1990 O   0  0  0  0  0  0  0  0  0  0  0  0
  192.3120  177.2860  143.4630 O   0  0  0  0  0  1  0  0  0  0  0  0
  1 31  1  0  0  0  0
  3  6  1  0  0  0  0
  4 13  1  0  0  0  0
  5  8  1  0  0  0  0
  6  1  1  0  0  0  0
  7  5  1  0  0  0  0
  7 12  2  0  0  0  0
  8  2  2  0  0  0  0
  8  9  1  0  0  0  0
  9 11  1  0  0  0  0
 10  9  2  0  0  0  0
 10 13  1  0  0  0  0
 11  6  2  0  0  0  0
 12 10  1  0  0  0  0
 13  3  2  0  0  0  0
 15  5  1  0  0  0  0
 15 14  1  0  0  0  0
 16 12  1  0  0  0  0
 16 17  1  0  0  0  0
 18 19  1  0  0  0  0
 18 17  1  0  0  0  0
 19 20  1  0  0  0  0
 20 22  1  0  0  0  0
 22 21  1  6  0  0  0
 23 22  1  0  0  0  0
 24 27  1  0  0  0  0
 24 23  1  0  0  0  0
 25 28  1  0  0  0  0
 26 28  1  0  0  0  0
 27 26  1  0  0  0  0
 29 30  1  0  0  0  0
 29 25  1  0  0  0  0
 30 27  1  0  0  0  0
 31 32  1  0  0  0  0
 31 38  1  0  0  0  0
 33 32  1  0  0  0  0
 34 33  1  0  0  0  0
 35 34  1  0  0  0  0
 35 37  1  0  0  0  0
 36 37  1  0  0  0  0
 38 39  1  0  0  0  0
 39 40  1  0  0  0  0
 40 41  1  0  0  0  0
 41 42  1  0  0  0  0
 42 43  1  0  0  0  0
 43 44  1  0  0  0  0
 44 46  1  0  0  0  0
 46 45  1  1  0  0  0
 47 46  1  0  0  0  0
 47 48  1  1  0  0  0
 49 47  1  0  0  0  0
 50 49  2  0  0  0  0
 51 54  1  0  0  0  0
 52 55  1  0  0  0  0
 52 53  1  0  0  0  0
 53 56  1  1  0  0  0
 53 54  1  0  0  0  0
 54 49  1  1  0  0  0
 55 51  1  0  0  0  0
 57 56  1  0  0  0  0
 57 59  1  0  0  0  0
 58 57  2  0  0  0  0
M  END
>  <MODEL>
5

>  <REMARK>
 VINA RESULT:      -5.0      2.187      3.569
  Name = 
  30 active torsions:
  status: ('A' for Active; 'I' for Inactive)
    1  A    between atoms: N_1  and  C_16
    2  A    between atoms: N_1  and  C_25
    3  A    between atoms: N_1  and  C_29
    4  A    between atoms: C_4  and  C_17
    5  A    between atoms: C_6  and  C_19
    6  A    between atoms: C_6  and  C_35
    7  A    between atoms: N_9  and  C_37
    8  A    between atoms: N_9  and  C_43
    9  A    between atoms: C_12  and  C_46
   10  A    between atoms: C_12  and  C_54
   11  A    between atoms: N_14  and  N_55
   12  A    between atoms: N_14  and  C_59
   13  A    between atoms: C_16  and  C_31
   14  A    between atoms: C_17  and  C_18
   15  A    between atoms: C_21  and  N_30
   16  A    between atoms: C_21  and  N_55
   17  A    between atoms: C_23  and  C_41
   18  A    between atoms: C_23  and  C_49
   19  A    between atoms: N_24  and  C_58
   20  A    between atoms: C_25  and  O_48
   21  A    between atoms: C_26  and  C_29
   22  A    between atoms: C_28  and  C_43
   23  A    between atoms: C_28  and  O_47
   24  A    between atoms: N_30  and  C_31
   25  A    between atoms: C_32  and  C_37
   26  A    between atoms: C_35  and  C_57
   27  A    between atoms: C_41  and  O_47
   28  A    between atoms: C_46  and  O_48
   29  A    between atoms: C_49  and  C_50
   30  A    between atoms: C_57  and  C_59
                            x       y       z     vdW  Elec       q    Type
                         _______ _______ _______ _____ _____    ______ ____

>  <TORSDO>
F 30

$$$$
=
 OpenBabel11032420073D

 59 62  0  0  1  0  0  0  0  0999 V2000
  183.4600  178.6740  138.3850 C   0  0  0  0  0  2  0  0  0  0  0  0
  180.5450  174.6720  138.7850 O   0  0  0  0  0  0  0  0  0  0  0  0
  184.1720  177.1230  136.5610 C   0  0  0  0  0  3  0  0  0  0  0  0
  184.9880  175.7390  134.7160 C   0  0  0  0  0  1  0  0  0  0  0  0
  181.1900  173.1400  137.2230 N   0  0  0  0  0  0  0  0  0  0  0  0
  183.3310  177.3910  137.6350 C   0  0  0  0  0  0  0  0  0  0  0  0
  182.0100  172.7790  136.2030 C   0  0  0  0  0  3  0  0  0  0  0  0
  181.3060  174.3600  137.8270 C   0  0  0  0  0  0  0  0  0  0  0  0
  182.2800  175.2710  137.3900 C   0  0  0  0  0  0  0  0  0  0  0  0
  183.1360  174.9320  136.3090 C   0  0  0  0  0  0  0  0  0  0  0  0
  182.4070  176.4750  138.0150 N   0  0  0  0  0  0  0  0  0  0  0  0
  182.9960  173.6440  135.7220 C   0  0  0  0  0  0  0  0  0  0  0  0
  184.0800  175.9070  135.8850 C   0  0  0  0  0  0  0  0  0  0  0  0
  179.9300  171.1480  136.5780 C   0  0  0  0  0  1  0  0  0  0  0  0
  180.1810  172.1820  137.6640 C   0  0  0  0  0  2  0  0  0  0  0  0
  183.8970  173.1200  134.6490 C   0  0  0  0  0  2  0  0  0  0  0  0
  184.8620  172.0980  135.2230 C   0  0  0  0  0  2  0  0  0  0  0  0
  186.2820  172.4300  134.8100 C   0  0  0  0  0  2  0  0  0  0  0  0
  187.1770  171.8590  135.7190 O   0  0  0  0  0  0  0  0  0  0  0  0
  188.1700  172.8250  135.8960 C   0  0  0  0  0  2  0  0  0  0  0  0
  189.8130  171.3520  134.9980 O   0  0  0  0  0  1  0  0  0  0  0  0
  189.2650  172.6310  134.8640 C   0  0  2  0  0  3  0  0  0  0  0  0
  190.2990  173.6350  135.0640 N   0  0  0  0  0  2  0  0  0  0  0  0
  191.5030  172.9600  135.5280 C   0  0  0  0  0  2  0  0  0  0  0  0
  193.3620  175.9450  137.9940 C   0  0  0  0  0  2  0  0  0  0  0  0
  193.0560  174.9220  135.6570 C   0  0  0  0  0  2  0  0  0  0  0  0
  192.3010  173.8610  136.4560 C   0  0  0  0  0  3  0  0  0  0  0  0
  193.9220  175.8000  136.5720 C   0  0  0  0  0  2  0  0  0  0  0  0
  191.8390  175.8640  137.9990 C   0  0  0  0  0  2  0  0  0  0  0  0
  191.3530  174.5040  137.4780 C   0  0  0  0  0  2  0  0  0  0  0  0
  183.3640  178.4520  139.8230 N   0  0  0  0  0  0  0  0  0  0  0  0
  182.1570  179.1110  140.3390 C   0  0  0  0  0  2  0  0  0  0  0  0
  181.5390  178.3510  141.3410 O   0  0  0  0  0  0  0  0  0  0  0  0
  180.3000  177.9970  140.7990 C   0  0  0  0  0  2  0  0  0  0  0  0
  179.1740  178.4680  141.7030 C   0  0  0  0  0  2  0  0  0  0  0  0
  179.3480  179.9640  143.5550 O   0  0  0  0  0  1  0  0  0  0  0  0
  179.4040  179.8950  142.1630 C   0  0  0  0  0  2  0  0  0  0  0  0
  184.5340  179.0680  140.4330 C   0  0  0  0  0  2  0  0  0  0  0  0
  185.7760  178.2480  140.1320 C   0  0  0  0  0  2  0  0  0  0  0  0
  186.6460  178.2480  141.2960 N   0  0  0  0  0  2  0  0  0  0  0  0
  187.9080  178.8240  140.8730 C   0  0  0  0  0  2  0  0  0  0  0  0
  188.9360  178.4900  141.8430 N   0  0  0  0  0  2  0  0  0  0  0  0
  189.1170  177.1030  141.7810 N   0  0  0  0  0  2  0  0  0  0  0  0
  189.3590  176.6530  143.1390 C   0  0  0  0  0  2  0  0  0  0  0  0
  191.5920  176.9440  142.3150 O   0  0  0  0  0  1  0  0  0  0  0  0
  190.8360  176.3490  143.3330 C   0  0  1  0  0  3  0  0  0  0  0  0
  191.2970  176.8230  144.7110 C   0  0  2  0  0  3  0  0  0  0  0  0
  191.6720  175.6770  145.6390 C   0  0  0  0  0  1  0  0  0  0  0  0
  190.3030  177.7380  145.3550 C   0  0  0  0  0  0  0  0  0  0  0  0
  190.1760  178.8730  144.9220 O   0  0  0  0  0  0  0  0  0  0  0  0
  189.8110  178.0650  147.8070 C   0  0  0  0  0  2  0  0  0  0  0  0
  187.4620  177.3660  147.8130 C   0  0  0  0  0  2  0  0  0  0  0  0
  187.9820  177.3070  146.3880 C   0  0  2  0  0  3  0  0  0  0  0  0
  189.4990  177.2850  146.5490 C   0  0  1  0  0  3  0  0  0  0  0  0
  188.5770  177.9390  148.6790 C   0  0  0  0  0  2  0  0  0  0  0  0
  187.4740  178.5250  145.6140 C   0  0  0  0  0  2  0  0  0  0  0  0
  185.9880  178.5030  145.5140 C   0  0  0  0  0  0  0  0  0  0  0  0
  185.2920  179.1720  146.3220 O   0  0  0  0  0  1  0  0  0  0  0  0
  185.3680  177.7650  144.5160 O   0  0  0  0  0  0  0  0  0  0  0  0
  1 31  1  0  0  0  0
  3  6  1  0  0  0  0
  4 13  1  0  0  0  0
  5 15  1  0  0  0  0
  5  8  1  0  0  0  0
  6 11  2  0  0  0  0
  6  1  1  0  0  0  0
  7  5  1  0  0  0  0
  8  2  2  0  0  0  0
  9  8  1  0  0  0  0
  9 11  1  0  0  0  0
 10  9  2  0  0  0  0
 12  7  2  0  0  0  0
 12 10  1  0  0  0  0
 13 10  1  0  0  0  0
 13  3  2  0  0  0  0
 14 15  1  0  0  0  0
 16 17  1  0  0  0  0
 16 12  1  0  0  0  0
 18 17  1  0  0  0  0
 18 19  1  0  0  0  0
 19 20  1  0  0  0  0
 22 21  1  1  0  0  0
 22 23  1  0  0  0  0
 22 20  1  0  0  0  0
 23 24  1  0  0  0  0
 24 27  1  0  0  0  0
 25 29  1  0  0  0  0
 26 27  1  0  0  0  0
 26 28  1  0  0  0  0
 27 30  1  0  0  0  0
 28 25  1  0  0  0  0
 30 29  1  0  0  0  0
 31 32  1  0  0  0  0
 31 38  1  0  0  0  0
 32 33  1  0  0  0  0
 34 33  1  0  0  0  0
 34 35  1  0  0  0  0
 35 37  1  0  0  0  0
 37 36  1  0  0  0  0
 39 38  1  0  0  0  0
 39 40  1  0  0  0  0
 41 40  1  0  0  0  0
 41 42  1  0  0  0  0
 43 42  1  0  0  0  0
 43 44  1  0  0  0  0
 44 46  1  0  0  0  0
 46 45  1  6  0  0  0
 46 47  1  0  0  0  0
 47 49  1  0  0  0  0
 47 48  1  1  0  0  0
 50 49  2  0  0  0  0
 51 55  1  0  0  0  0
 52 55  1  0  0  0  0
 53 56  1  6  0  0  0
 53 54  1  0  0  0  0
 53 52  1  0  0  0  0
 54 49  1  6  0  0  0
 54 51  1  0  0  0  0
 57 56  1  0  0  0  0
 57 58  1  0  0  0  0
 59 57  2  0  0  0  0
M  END
>  <MODEL>
6

>  <REMARK>
 VINA RESULT:      -4.8      3.004      4.722
  Name = 
  30 active torsions:
  status: ('A' for Active; 'I' for Inactive)
    1  A    between atoms: N_1  and  C_16
    2  A    between atoms: N_1  and  C_25
    3  A    between atoms: N_1  and  C_29
    4  A    between atoms: C_4  and  C_17
    5  A    between atoms: C_6  and  C_19
    6  A    between atoms: C_6  and  C_35
    7  A    between atoms: N_9  and  C_37
    8  A    between atoms: N_9  and  C_43
    9  A    between atoms: C_12  and  C_46
   10  A    between atoms: C_12  and  C_54
   11  A    between atoms: N_14  and  N_55
   12  A    between atoms: N_14  and  C_59
   13  A    between atoms: C_16  and  C_31
   14  A    between atoms: C_17  and  C_18
   15  A    between atoms: C_21  and  N_30
   16  A    between atoms: C_21  and  N_55
   17  A    between atoms: C_23  and  C_41
   18  A    between atoms: C_23  and  C_49
   19  A    between atoms: N_24  and  C_58
   20  A    between atoms: C_25  and  O_48
   21  A    between atoms: C_26  and  C_29
   22  A    between atoms: C_28  and  C_43
   23  A    between atoms: C_28  and  O_47
   24  A    between atoms: N_30  and  C_31
   25  A    between atoms: C_32  and  C_37
   26  A    between atoms: C_35  and  C_57
   27  A    between atoms: C_41  and  O_47
   28  A    between atoms: C_46  and  O_48
   29  A    between atoms: C_49  and  C_50
   30  A    between atoms: C_57  and  C_59
                            x       y       z     vdW  Elec       q    Type
                         _______ _______ _______ _____ _____    ______ ____

>  <TORSDO>
F 30

$$$$
=
 OpenBabel11032420073D

 59 62  0  0  1  0  0  0  0  0999 V2000
  183.2990  177.7630  136.8490 C   0  0  0  0  0  2  0  0  0  0  0  0
  179.5780  178.0670  140.1270 O   0  0  0  0  0  0  0  0  0  0  0  0
  184.3650  178.2610  139.0530 C   0  0  0  0  0  3  0  0  0  0  0  0
  185.5780  178.7300  141.1250 C   0  0  0  0  0  1  0  0  0  0  0  0
  180.4420  178.6280  142.1620 N   0  0  0  0  0  0  0  0  0  0  0  0
  183.2110  178.0210  138.3160 C   0  0  0  0  0  0  0  0  0  0  0  0
  181.5140  178.9280  142.9390 C   0  0  0  0  0  3  0  0  0  0  0  0
  180.5890  178.3280  140.8370 C   0  0  0  0  0  0  0  0  0  0  0  0
  181.8660  178.3170  140.2560 C   0  0  0  0  0  0  0  0  0  0  0  0
  183.0090  178.6030  141.0490 C   0  0  0  0  0  0  0  0  0  0  0  0
  182.0010  178.0430  138.9280 N   0  0  0  0  0  0  0  0  0  0  0  0
  182.8110  178.9300  142.4180 C   0  0  0  0  0  0  0  0  0  0  0  0
  184.2820  178.5420  140.4150 C   0  0  0  0  0  0  0  0  0  0  0  0
  179.2390  178.9730  144.2600 C   0  0  0  0  0  1  0  0  0  0  0  0
  179.1200  178.6420  142.7810 C   0  0  0  0  0  2  0  0  0  0  0  0
  183.9130  179.3510  143.3380 C   0  0  0  0  0  2  0  0  0  0  0  0
  183.6040  178.9240  144.7610 C   0  0  0  0  0  2  0  0  0  0  0  0
  184.7940  179.1990  145.6600 C   0  0  0  0  0  2  0  0  0  0  0  0
  185.8400  178.3360  145.3250 O   0  0  0  0  0  0  0  0  0  0  0  0
  186.0160  177.5330  146.4540 C   0  0  0  0  0  2  0  0  0  0  0  0
  187.6210  178.4170  147.9770 O   0  0  0  0  0  1  0  0  0  0  0  0
  187.4710  177.5620  146.8810 C   0  0  2  0  0  3  0  0  0  0  0  0
  188.2900  178.0310  145.7730 N   0  0  0  0  0  2  0  0  0  0  0  0
  188.0930  177.1260  144.6490 C   0  0  0  0  0  2  0  0  0  0  0  0
  191.8690  177.2090  142.6050 C   0  0  0  0  0  2  0  0  0  0  0  0
  189.3750  177.8230  142.6130 C   0  0  0  0  0  2  0  0  0  0  0  0
  189.3850  176.9510  143.8670 C   0  0  0  0  0  3  0  0  0  0  0  0
  190.6430  177.6100  141.7730 C   0  0  0  0  0  2  0  0  0  0  0  0
  191.8060  177.8040  144.0080 C   0  0  0  0  0  2  0  0  0  0  0  0
  190.5760  177.2920  144.7720 C   0  0  0  0  0  2  0  0  0  0  0  0
  182.1140  177.0600  136.3700 N   0  0  0  0  0  0  0  0  0  0  0  0
  181.8990  175.8570  137.1830 C   0  0  0  0  0  2  0  0  0  0  0  0
  180.5530  175.7080  137.5420 O   0  0  0  0  0  0  0  0  0  0  0  0
  180.1990  174.4440  137.0590 C   0  0  0  0  0  2  0  0  0  0  0  0
  180.6650  173.3620  138.0180 C   0  0  0  0  0  2  0  0  0  0  0  0
  179.2540  171.7630  136.9480 O   0  0  0  0  0  1  0  0  0  0  0  0
  180.5590  171.9890  137.3840 C   0  0  0  0  0  2  0  0  0  0  0  0
  182.3810  176.6580  134.9950 C   0  0  0  0  0  2  0  0  0  0  0  0
  183.8360  176.2580  134.8370 C   0  0  0  0  0  2  0  0  0  0  0  0
  184.0930  175.0570  135.6140 N   0  0  0  0  0  2  0  0  0  0  0  0
  185.0740  174.2850  134.8760 C   0  0  0  0  0  2  0  0  0  0  0  0
  185.2850  173.0140  135.5450 N   0  0  0  0  0  2  0  0  0  0  0  0
  185.3740  173.2860  136.9160 N   0  0  0  0  0  2  0  0  0  0  0  0
  186.5830  174.0660  137.1090 C   0  0  0  0  0  2  0  0  0  0  0  0
  187.4220  171.8750  136.6140 O   0  0  0  0  0  1  0  0  0  0  0  0
  187.8060  173.1740  136.9670 C   0  0  1  0  0  3  0  0  0  0  0  0
  188.7720  173.7620  135.9380 C   0  0  2  0  0  3  0  0  0  0  0  0
  188.7180  173.0490  134.5950 C   0  0  0  0  0  1  0  0  0  0  0  0
  190.1750  173.8340  136.4560 C   0  0  0  0  0  0  0  0  0  0  0  0
  191.0260  173.1110  135.9610 O   0  0  0  0  0  0  0  0  0  0  0  0
  192.0190  174.9230  137.7880 C   0  0  0  0  0  2  0  0  0  0  0  0
  190.8470  176.9760  138.4380 C   0  0  0  0  0  2  0  0  0  0  0  0
  189.9290  176.1520  137.5520 C   0  0  2  0  0  3  0  0  0  0  0  0
  190.5280  174.7500  137.6020 C   0  0  1  0  0  3  0  0  0  0  0  0
  192.1870  176.2530  138.4960 C   0  0  0  0  0  2  0  0  0  0  0  0
  189.9120  176.7520  136.1450 C   0  0  0  0  0  2  0  0  0  0  0  0
  188.5300  177.1490  135.7580 C   0  0  0  0  0  0  0  0  0  0  0  0
  188.1090  176.9160  134.5950 O   0  0  0  0  0  0  0  0  0  0  0  0
  187.6940  177.7550  136.6850 O   0  0  0  0  0  1  0  0  0  0  0  0
  1  6  1  0  0  0  0
  2  8  2  0  0  0  0
  3 13  1  0  0  0  0
  5 15  1  0  0  0  0
  5  7  1  0  0  0  0
  6 11  1  0  0  0  0
  6  3  2  0  0  0  0
  8  5  1  0  0  0  0
  9  8  1  0  0  0  0
  9 10  1  0  0  0  0
 10 12  1  0  0  0  0
 11  9  2  0  0  0  0
 12  7  2  0  0  0  0
 12 16  1  0  0  0  0
 13 10  2  0  0  0  0
 13  4  1  0  0  0  0
 15 14  1  0  0  0  0
 16 17  1  0  0  0  0
 17 18  1  0  0  0  0
 19 18  1  0  0  0  0
 19 20  1  0  0  0  0
 20 22  1  0  0  0  0
 22 21  1  1  0  0  0
 23 22  1  0  0  0  0
 24 23  1  0  0  0  0
 25 29  1  0  0  0  0
 26 27  1  0  0  0  0
 27 24  1  0  0  0  0
 27 30  1  0  0  0  0
 28 25  1  0  0  0  0
 28 26  1  0  0  0  0
 29 30  1  0  0  0  0
 31  1  1  0  0  0  0
 31 32  1  0  0  0  0
 32 33  1  0  0  0  0
 34 33  1  0  0  0  0
 34 35  1  0  0  0  0
 36 37  1  0  0  0  0
 37 35  1  0  0  0  0
 38 31  1  0  0  0  0
 39 38  1  0  0  0  0
 39 40  1  0  0  0  0
 41 42  1  0  0  0  0
 41 40  1  0  0  0  0
 42 43  1  0  0  0  0
 43 44  1  0  0  0  0
 46 45  1  6  0  0  0
 46 44  1  0  0  0  0
 47 48  1  6  0  0  0
 47 49  1  0  0  0  0
 47 46  1  0  0  0  0
 50 49  2  0  0  0  0
 51 55  1  0  0  0  0
 52 55  1  0  0  0  0
 53 56  1  6  0  0  0
 53 54  1  0  0  0  0
 53 52  1  0  0  0  0
 54 49  1  6  0  0  0
 54 51  1  0  0  0  0
 57 56  1  0  0  0  0
 57 59  1  0  0  0  0
 58 57  2  0  0  0  0
M  END
>  <MODEL>
7

>  <REMARK>
 VINA RESULT:      -4.4      3.129      8.611
  Name = 
  30 active torsions:
  status: ('A' for Active; 'I' for Inactive)
    1  A    between atoms: N_1  and  C_16
    2  A    between atoms: N_1  and  C_25
    3  A    between atoms: N_1  and  C_29
    4  A    between atoms: C_4  and  C_17
    5  A    between atoms: C_6  and  C_19
    6  A    between atoms: C_6  and  C_35
    7  A    between atoms: N_9  and  C_37
    8  A    between atoms: N_9  and  C_43
    9  A    between atoms: C_12  and  C_46
   10  A    between atoms: C_12  and  C_54
   11  A    between atoms: N_14  and  N_55
   12  A    between atoms: N_14  and  C_59
   13  A    between atoms: C_16  and  C_31
   14  A    between atoms: C_17  and  C_18
   15  A    between atoms: C_21  and  N_30
   16  A    between atoms: C_21  and  N_55
   17  A    between atoms: C_23  and  C_41
   18  A    between atoms: C_23  and  C_49
   19  A    between atoms: N_24  and  C_58
   20  A    between atoms: C_25  and  O_48
   21  A    between atoms: C_26  and  C_29
   22  A    between atoms: C_28  and  C_43
   23  A    between atoms: C_28  and  O_47
   24  A    between atoms: N_30  and  C_31
   25  A    between atoms: C_32  and  C_37
   26  A    between atoms: C_35  and  C_57
   27  A    between atoms: C_41  and  O_47
   28  A    between atoms: C_46  and  O_48
   29  A    between atoms: C_49  and  C_50
   30  A    between atoms: C_57  and  C_59
                            x       y       z     vdW  Elec       q    Type
                         _______ _______ _______ _____ _____    ______ ____

>  <TORSDO>
F 30

$$$$
=
 OpenBabel11032420073D

 59 62  0  0  1  0  0  0  0  0999 V2000
  182.8730  177.1560  139.4740 C   0  0  0  0  0  2  0  0  0  0  0  0
  182.8020  172.9920  136.7670 O   0  0  0  0  0  0  0  0  0  0  0  0
  184.8050  177.3290  137.9010 C   0  0  0  0  0  3  0  0  0  0  0  0
  186.7280  177.6730  136.4280 C   0  0  0  0  0  1  0  0  0  0  0  0
  184.6010  173.0020  135.3640 N   0  0  0  0  0  0  0  0  0  0  0  0
  183.7100  176.6100  138.3680 C   0  0  0  0  0  0  0  0  0  0  0  0
  185.7180  173.6140  134.8940 C   0  0  0  0  0  3  0  0  0  0  0  0
  183.8290  173.5840  136.3300 C   0  0  0  0  0  0  0  0  0  0  0  0
  184.1780  174.8400  136.8490 C   0  0  0  0  0  0  0  0  0  0  0  0
  185.3270  175.5160  136.3590 C   0  0  0  0  0  0  0  0  0  0  0  0
  183.4180  175.4000  137.8300 N   0  0  0  0  0  0  0  0  0  0  0  0
  186.1150  174.8670  135.3690 C   0  0  0  0  0  0  0  0  0  0  0  0
  185.6130  176.8020  136.8950 C   0  0  0  0  0  0  0  0  0  0  0  0
  183.8650  170.7430  135.9320 C   0  0  0  0  0  1  0  0  0  0  0  0
  184.2500  171.6970  134.8130 C   0  0  0  0  0  2  0  0  0  0  0  0
  187.4020  175.4170  134.8420 C   0  0  0  0  0  2  0  0  0  0  0  0
  188.3960  174.2960  134.5990 C   0  0  0  0  0  2  0  0  0  0  0  0
  189.7980  174.7540  134.9490 C   0  0  0  0  0  2  0  0  0  0  0  0
  189.9680  174.7150  136.3350 O   0  0  0  0  0  0  0  0  0  0  0  0
  191.0240  175.5930  136.5900 C   0  0  0  0  0  2  0  0  0  0  0  0
  190.3230  176.0050  138.8300 O   0  0  0  0  0  1  0  0  0  0  0  0
  191.3930  175.5380  138.0610 C   0  0  2  0  0  3  0  0  0  0  0  0
  192.5680  176.3660  138.2940 N   0  0  0  0  0  2  0  0  0  0  0  0
  193.5370  176.0830  137.2450 C   0  0  0  0  0  2  0  0  0  0  0  0
  196.0490  172.6910  138.0400 C   0  0  0  0  0  2  0  0  0  0  0  0
  195.1650  174.4050  136.3430 C   0  0  0  0  0  2  0  0  0  0  0  0
  194.2450  174.7640  137.5090 C   0  0  0  0  0  3  0  0  0  0  0  0
  195.8380  173.0430  136.5610 C   0  0  0  0  0  2  0  0  0  0  0  0
  196.2580  173.9450  138.8830 C   0  0  0  0  0  2  0  0  0  0  0  0
  195.0280  174.8640  138.8250 C   0  0  0  0  0  2  0  0  0  0  0  0
  182.6730  178.5930  139.3190 N   0  0  0  0  0  0  0  0  0  0  0  0
  182.3670  178.8940  137.9150 C   0  0  0  0  0  2  0  0  0  0  0  0
  181.0230  179.2500  137.7420 O   0  0  0  0  0  0  0  0  0  0  0  0
  181.0470  180.6360  137.5640 C   0  0  0  0  0  2  0  0  0  0  0  0
  180.6810  181.3420  138.8590 C   0  0  0  0  0  2  0  0  0  0  0  0
  178.9320  182.0430  137.3960 O   0  0  0  0  0  1  0  0  0  0  0  0
  179.3770  182.1020  138.7160 C   0  0  0  0  0  2  0  0  0  0  0  0
  183.9270  179.2420  139.6780 C   0  0  0  0  0  2  0  0  0  0  0  0
  184.4460  178.6910  140.9940 C   0  0  0  0  0  2  0  0  0  0  0  0
  183.4450  178.8920  142.0280 N   0  0  0  0  0  2  0  0  0  0  0  0
  184.1100  179.5680  143.1260 C   0  0  0  0  0  2  0  0  0  0  0  0
  183.5190  179.1390  144.3800 N   0  0  0  0  0  2  0  0  0  0  0  0
  184.5720  178.7350  145.2090 N   0  0  0  0  0  2  0  0  0  0  0  0
  185.7690  178.7270  144.3880 C   0  0  0  0  0  2  0  0  0  0  0  0
  186.3420  176.7580  145.6310 O   0  0  0  0  0  1  0  0  0  0  0  0
  186.8670  177.9310  145.0760 C   0  0  1  0  0  3  0  0  0  0  0  0
  187.9920  177.6190  144.0890 C   0  0  2  0  0  3  0  0  0  0  0  0
  187.9090  176.2110  143.5180 C   0  0  0  0  0  1  0  0  0  0  0  0
  189.3450  177.8880  144.6700 C   0  0  0  0  0  0  0  0  0  0  0  0
  189.8780  178.9650  144.4550 O   0  0  0  0  0  0  0  0  0  0  0  0
  191.5670  176.9820  145.4450 C   0  0  0  0  0  2  0  0  0  0  0  0
  190.8580  176.0400  147.5940 C   0  0  0  0  0  2  0  0  0  0  0  0
  189.6640  176.7150  146.9410 C   0  0  2  0  0  3  0  0  0  0  0  0
  190.0630  176.8320  145.4730 C   0  0  1  0  0  3  0  0  0  0  0  0
  192.0670  176.3000  146.7040 C   0  0  0  0  0  2  0  0  0  0  0  0
  189.4200  178.0680  147.6110 C   0  0  0  0  0  2  0  0  0  0  0  0
  188.1120  178.0750  148.3220 C   0  0  0  0  0  0  0  0  0  0  0  0
  187.8200  177.1430  149.1160 O   0  0  0  0  0  1  0  0  0  0  0  0
  187.2200  179.1220  148.1320 O   0  0  0  0  0  0  0  0  0  0  0  0
  3  6  1  0  0  0  0
  4 13  1  0  0  0  0
  5  8  1  0  0  0  0
  6  1  1  0  0  0  0
  7  5  1  0  0  0  0
  7 12  2  0  0  0  0
  8  2  2  0  0  0  0
  8  9  1  0  0  0  0
  9 11  1  0  0  0  0
 10  9  2  0  0  0  0
 10 13  1  0  0  0  0
 11  6  2  0  0  0  0
 12 10  1  0  0  0  0
 13  3  2  0  0  0  0
 15  5  1  0  0  0  0
 15 14  1  0  0  0  0
 16 12  1  0  0  0  0
 17 16  1  0  0  0  0
 17 18  1  0  0  0  0
 18 19  1  0  0  0  0
 19 20  1  0  0  0  0
 20 22  1  0  0  0  0
 22 23  1  0  0  0  0
 22 21  1  1  0  0  0
 24 27  1  0  0  0  0
 24 23  1  0  0  0  0
 25 29  1  0  0  0  0
 26 28  1  0  0  0  0
 26 27  1  0  0  0  0
 27 30  1  0  0  0  0
 28 25  1  0  0  0  0
 30 29  1  0  0  0  0
 31  1  1  0  0  0  0
 31 38  1  0  0  0  0
 32 31  1  0  0  0  0
 33 32  1  0  0  0  0
 34 33  1  0  0  0  0
 34 35  1  0  0  0  0
 36 37  1  0  0  0  0
 37 35  1  0  0  0  0
 38 39  1  0  0  0  0
 39 40  1  0  0  0  0
 40 41  1  0  0  0  0
 41 42  1  0  0  0  0
 42 43  1  0  0  0  0
 44 46  1  0  0  0  0
 44 43  1  0  0  0  0
 46 45  1  6  0  0  0
 47 48  1  1  0  0  0
 47 49  1  0  0  0  0
 47 46  1  0  0  0  0
 50 49  2  0  0  0  0
 51 54  1  0  0  0  0
 51 55  1  0  0  0  0
 53 52  1  0  0  0  0
 53 56  1  1  0  0  0
 54 49  1  1  0  0  0
 54 53  1  0  0  0  0
 55 52  1  0  0  0  0
 56 57  1  0  0  0  0
 57 58  1  0  0  0  0
 59 57  2  0  0  0  0
M  END
>  <MODEL>
8

>  <REMARK>
 VINA RESULT:      -4.3      1.859      2.332
  Name = 
  30 active torsions:
  status: ('A' for Active; 'I' for Inactive)
    1  A    between atoms: N_1  and  C_16
    2  A    between atoms: N_1  and  C_25
    3  A    between atoms: N_1  and  C_29
    4  A    between atoms: C_4  and  C_17
    5  A    between atoms: C_6  and  C_19
    6  A    between atoms: C_6  and  C_35
    7  A    between atoms: N_9  and  C_37
    8  A    between atoms: N_9  and  C_43
    9  A    between atoms: C_12  and  C_46
   10  A    between atoms: C_12  and  C_54
   11  A    between atoms: N_14  and  N_55
   12  A    between atoms: N_14  and  C_59
   13  A    between atoms: C_16  and  C_31
   14  A    between atoms: C_17  and  C_18
   15  A    between atoms: C_21  and  N_30
   16  A    between atoms: C_21  and  N_55
   17  A    between atoms: C_23  and  C_41
   18  A    between atoms: C_23  and  C_49
   19  A    between atoms: N_24  and  C_58
   20  A    between atoms: C_25  and  O_48
   21  A    between atoms: C_26  and  C_29
   22  A    between atoms: C_28  and  C_43
   23  A    between atoms: C_28  and  O_47
   24  A    between atoms: N_30  and  C_31
   25  A    between atoms: C_32  and  C_37
   26  A    between atoms: C_35  and  C_57
   27  A    between atoms: C_41  and  O_47
   28  A    between atoms: C_46  and  O_48
   29  A    between atoms: C_49  and  C_50
   30  A    between atoms: C_57  and  C_59
                            x       y       z     vdW  Elec       q    Type
                         _______ _______ _______ _____ _____    ______ ____

>  <TORSDO>
F 30

$$$$
=
 OpenBabel11032420073D

 59 62  0  0  1  0  0  0  0  0999 V2000
  179.9850  177.2110  140.3020 C   0  0  0  0  0  2  0  0  0  0  0  0
  184.7790  177.7470  139.1160 O   0  0  0  0  0  0  0  0  0  0  0  0
  181.0700  178.2620  142.2910 C   0  0  0  0  0  3  0  0  0  0  0  0
  181.9600  179.3040  144.3180 C   0  0  0  0  0  1  0  0  0  0  0  0
  185.8850  178.6050  140.9160 N   0  0  0  0  0  0  0  0  0  0  0  0
  181.1830  177.7620  140.9990 C   0  0  0  0  0  0  0  0  0  0  0  0
  185.8690  179.0560  142.1970 C   0  0  0  0  0  3  0  0  0  0  0  0
  184.7420  178.1780  140.3020 C   0  0  0  0  0  0  0  0  0  0  0  0
  183.5200  178.2090  140.9910 C   0  0  0  0  0  0  0  0  0  0  0  0
  183.4670  178.6990  142.3220 C   0  0  0  0  0  0  0  0  0  0  0  0
  182.3890  177.7570  140.3800 N   0  0  0  0  0  0  0  0  0  0  0  0
  184.6830  179.1140  142.9330 C   0  0  0  0  0  0  0  0  0  0  0  0
  182.1960  178.7410  142.9590 C   0  0  0  0  0  0  0  0  0  0  0  0
  188.2620  179.1400  141.1040 C   0  0  0  0  0  1  0  0  0  0  0  0
  187.1640  178.5810  140.2130 C   0  0  0  0  0  2  0  0  0  0  0  0
  184.7870  179.5520  144.3590 C   0  0  0  0  0  2  0  0  0  0  0  0
  185.5800  178.5400  145.1650 C   0  0  0  0  0  2  0  0  0  0  0  0
  185.0140  178.4290  146.5680 C   0  0  0  0  0  2  0  0  0  0  0  0
  186.0470  178.5630  147.4990 O   0  0  0  0  0  0  0  0  0  0  0  0
  186.7440  177.3540  147.4360 C   0  0  0  0  0  2  0  0  0  0  0  0
  188.5100  178.9530  147.4670 O   0  0  0  0  0  1  0  0  0  0  0  0
  188.2210  177.6010  147.6740 C   0  0  2  0  0  3  0  0  0  0  0  0
  189.0010  176.7840  146.7560 N   0  0  0  0  0  2  0  0  0  0  0  0
  190.4030  177.1500  146.9020 C   0  0  0  0  0  2  0  0  0  0  0  0
  191.5380  178.1230  142.8750 C   0  0  0  0  0  2  0  0  0  0  0  0
  190.9730  176.3140  144.6090 C   0  0  0  0  0  2  0  0  0  0  0  0
  191.0060  177.5140  145.5540 C   0  0  0  0  0  3  0  0  0  0  0  0
  191.6390  176.6420  143.2660 C   0  0  0  0  0  2  0  0  0  0  0  0
  190.2660  178.7560  143.4290 C   0  0  0  0  0  2  0  0  0  0  0  0
  190.2450  178.7090  144.9640 C   0  0  0  0  0  2  0  0  0  0  0  0
  180.1340  177.3030  138.8540 N   0  0  0  0  0  0  0  0  0  0  0  0
  179.0080  178.0600  138.2950 C   0  0  0  0  0  2  0  0  0  0  0  0
  179.3020  179.4260  138.1900 O   0  0  0  0  0  0  0  0  0  0  0  0
  180.0310  179.5380  137.0020 C   0  0  0  0  0  2  0  0  0  0  0  0
  180.5230  180.9630  136.8160 C   0  0  0  0  0  2  0  0  0  0  0  0
  182.0960  180.2870  138.4790 O   0  0  0  0  0  1  0  0  0  0  0  0
  181.4090  181.3890  137.9710 C   0  0  0  0  0  2  0  0  0  0  0  0
  180.0940  175.9440  138.3300 C   0  0  0  0  0  2  0  0  0  0  0  0
  178.9430  175.7900  137.3530 C   0  0  0  0  0  2  0  0  0  0  0  0
  179.4460  175.2680  136.0940 N   0  0  0  0  0  2  0  0  0  0  0  0
  180.8490  175.6290  136.0250 C   0  0  0  0  0  2  0  0  0  0  0  0
  181.3570  175.3250  134.6990 N   0  0  0  0  0  2  0  0  0  0  0  0
  182.1180  174.1560  134.8130 N   0  0  0  0  0  2  0  0  0  0  0  0
  183.3320  174.5160  135.5220 C   0  0  0  0  0  2  0  0  0  0  0  0
  185.5190  174.8490  134.5950 O   0  0  0  0  0  1  0  0  0  0  0  0
  184.5380  173.8820  134.8470 C   0  0  1  0  0  3  0  0  0  0  0  0
  185.0910  172.7470  135.7090 C   0  0  2  0  0  3  0  0  0  0  0  0
  184.0010  171.8660  136.3030 C   0  0  0  0  0  1  0  0  0  0  0  0
  186.0200  173.2470  136.7720 C   0  0  0  0  0  0  0  0  0  0  0  0
  185.5970  174.0290  137.6080 O   0  0  0  0  0  0  0  0  0  0  0  0
  187.8310  171.8950  135.6520 C   0  0  0  0  0  2  0  0  0  0  0  0
  189.7570  173.2960  136.2340 C   0  0  0  0  0  2  0  0  0  0  0  0
  188.4970  173.9560  136.7680 C   0  0  2  0  0  3  0  0  0  0  0  0
  187.4700  172.8280  136.7860 C   0  0  1  0  0  3  0  0  0  0  0  0
  189.3240  172.0650  135.4480 C   0  0  0  0  0  2  0  0  0  0  0  0
  188.1050  175.1150  135.8500 C   0  0  0  0  0  2  0  0  0  0  0  0
  189.0600  176.2480  135.9960 C   0  0  0  0  0  0  0  0  0  0  0  0
  189.9720  176.4180  135.1460 O   0  0  0  0  0  0  0  0  0  0  0  0
  188.9340  177.1340  137.0570 O   0  0  0  0  0  1  0  0  0  0  0  0
  1  6  1  0  0  0  0
  2  8  2  0  0  0  0
  3 13  1  0  0  0  0
  5  7  1  0  0  0  0
  6  3  2  0  0  0  0
  7 12  2  0  0  0  0
  8  5  1  0  0  0  0
  8  9  1  0  0  0  0
  9 10  1  0  0  0  0
 10 12  1  0  0  0  0
 10 13  2  0  0  0  0
 11  9  2  0  0  0  0
 11  6  1  0  0  0  0
 12 16  1  0  0  0  0
 13  4  1  0  0  0  0
 15  5  1  0  0  0  0
 15 14  1  0  0  0  0
 16 17  1  0  0  0  0
 17 18  1  0  0  0  0
 18 19  1  0  0  0  0
 20 19  1  0  0  0  0
 20 22  1  0  0  0  0
 22 21  1  6  0  0  0
 23 24  1  0  0  0  0
 23 22  1  0  0  0  0
 25 28  1  0  0  0  0
 25 29  1  0  0  0  0
 26 27  1  0  0  0  0
 27 24  1  0  0  0  0
 28 26  1  0  0  0  0
 29 30  1  0  0  0  0
 30 27  1  0  0  0  0
 31  1  1  0  0  0  0
 32 31  1  0  0  0  0
 33 32  1  0  0  0  0
 34 33  1  0  0  0  0
 35 34  1  0  0  0  0
 35 37  1  0  0  0  0
 37 36  1  0  0  0  0
 38 31  1  0  0  0  0
 39 38  1  0  0  0  0
 40 39  1  0  0  0  0
 41 40  1  0  0  0  0
 42 43  1  0  0  0  0
 42 41  1  0  0  0  0
 43 44  1  0  0  0  0
 46 45  1  1  0  0  0
 46 44  1  0  0  0  0
 46 47  1  0  0  0  0
 47 48  1  1  0  0  0
 47 49  1  0  0  0  0
 49 50  2  0  0  0  0
 51 54  1  0  0  0  0
 52 53  1  0  0  0  0
 53 56  1  6  0  0  0
 53 54  1  0  0  0  0
 54 49  1  6  0  0  0
 55 51  1  0  0  0  0
 55 52  1  0  0  0  0
 56 57  1  0  0  0  0
 57 59  1  0  0  0  0
 58 57  2  0  0  0  0
M  END
>  <MODEL>
9

>  <REMARK>
 VINA RESULT:      -4.2      3.484      8.669
  Name = 
  30 active torsions:
  status: ('A' for Active; 'I' for Inactive)
    1  A    between atoms: N_1  and  C_16
    2  A    between atoms: N_1  and  C_25
    3  A    between atoms: N_1  and  C_29
    4  A    between atoms: C_4  and  C_17
    5  A    between atoms: C_6  and  C_19
    6  A    between atoms: C_6  and  C_35
    7  A    between atoms: N_9  and  C_37
    8  A    between atoms: N_9  and  C_43
    9  A    between atoms: C_12  and  C_46
   10  A    between atoms: C_12  and  C_54
   11  A    between atoms: N_14  and  N_55
   12  A    between atoms: N_14  and  C_59
   13  A    between atoms: C_16  and  C_31
   14  A    between atoms: C_17  and  C_18
   15  A    between atoms: C_21  and  N_30
   16  A    between atoms: C_21  and  N_55
   17  A    between atoms: C_23  and  C_41
   18  A    between atoms: C_23  and  C_49
   19  A    between atoms: N_24  and  C_58
   20  A    between atoms: C_25  and  O_48
   21  A    between atoms: C_26  and  C_29
   22  A    between atoms: C_28  and  C_43
   23  A    between atoms: C_28  and  O_47
   24  A    between atoms: N_30  and  C_31
   25  A    between atoms: C_32  and  C_37
   26  A    between atoms: C_35  and  C_57
   27  A    between atoms: C_41  and  O_47
   28  A    between atoms: C_46  and  O_48
   29  A    between atoms: C_49  and  C_50
   30  A    between atoms: C_57  and  C_59
                            x       y       z     vdW  Elec       q    Type
                         _______ _______ _______ _____ _____    ______ ____

>  <TORSDO>
F 30

$$$$
