=
 OpenBabel11042411203D

 25 27  0  0  1  0  0  0  0  0999 V2000
  190.9010  176.8160  144.8840 C   0  0  0  0  0  2  0  0  0  0  0  0
  188.6390  176.0510  143.3080 C   0  0  0  0  0  3  0  0  0  0  0  0
  191.1320  176.2580  143.4730 C   0  0  1  0  0  3  0  0  0  0  0  0
  188.4340  176.8830  144.5500 C   0  0  1  0  0  3  0  0  0  0  0  0
  189.6660  177.7110  144.9120 C   0  0  0  0  0  2  0  0  0  0  0  0
  189.8600  175.7360  142.8490 C   0  0  0  0  0  3  0  0  0  0  0  0
  186.7670  178.0280  143.2370 N   0  0  0  0  0  0  0  0  0  0  0  0
  184.3730  178.3390  143.5890 C   0  0  2  0  0  3  0  0  0  0  0  0
  187.2200  177.7440  144.4260 C   0  0  0  0  0  0  0  0  0  0  0  0
  184.3970  178.2990  140.8000 C   0  0  0  0  0  2  0  0  0  0  0  0
  185.4250  178.7490  145.9320 C   0  0  0  0  0  3  0  0  0  0  0  0
  185.5460  179.0940  141.4140 C   0  0  0  0  0  2  0  0  0  0  0  0
  185.6460  178.9040  142.9380 C   0  0  2  0  0  3  0  0  0  0  0  0
  183.1720  178.6730  142.8410 N   0  0  0  0  0  0  0  0  0  0  0  0
  183.1500  178.6380  141.5540 C   0  0  0  0  0  3  0  0  0  0  0  0
  186.6570  178.2840  145.6850 C   0  0  0  0  0  3  0  0  0  0  0  0
  184.2810  178.8150  145.0070 C   0  0  0  0  0  0  0  0  0  0  0  0
  183.1900  179.2620  145.4480 O   0  0  0  0  0  0  0  0  0  0  0  0
  191.7370  177.3200  142.5680 C   0  0  0  0  0  2  0  0  0  0  0  0
  190.8240  177.6270  141.4780 N   0  0  0  0  0  2  0  0  0  0  0  0
  191.5400  177.3810  140.2360 C   0  0  0  0  0  2  0  0  0  0  0  0
  190.5560  175.9320  138.4950 C   0  0  0  0  0  1  0  0  0  0  0  0
  190.5720  177.3360  139.0620 C   0  0  1  0  0  3  0  0  0  0  0  0
  188.8130  178.9560  139.0020 O   0  0  0  0  0  1  0  0  0  0  0  0
  189.1650  177.7040  139.5060 C   0  0  0  0  0  2  0  0  0  0  0  0
  1  5  1  0  0  0  0
  2  4  1  0  0  0  0
  3 19  1  6  0  0  0
  3  1  1  0  0  0  0
  4  9  1  6  0  0  0
  4  5  1  0  0  0  0
  6  2  2  0  0  0  0
  6  3  1  0  0  0  0
  7  9  2  0  0  0  0
  8 14  1  6  0  0  0
  8 17  1  0  0  0  0
  9 16  1  0  0  0  0
 10 12  1  0  0  0  0
 10 15  1  0  0  0  0
 13 12  1  6  0  0  0
 13  7  1  0  0  0  0
 13  8  1  0  0  0  0
 15 14  2  0  0  0  0
 16 11  2  0  0  0  0
 17 18  2  0  0  0  0
 17 11  1  0  0  0  0
 20 19  1  0  0  0  0
 21 20  1  0  0  0  0
 23 22  1  1  0  0  0
 23 25  1  0  0  0  0
 23 21  1  0  0  0  0
 24 25  1  0  0  0  0
M  END
>  <MODEL>
1

>  <REMARK>
 VINA RESULT:      -8.3      0.000      0.000
  Name = 
  6 active torsions:
  status: ('A' for Active; 'I' for Inactive)
    1  A    between atoms: C_1  and  C_9
    2  A    between atoms: C_1  and  N_15
    3  A    between atoms: C_5  and  N_15
    4  A    between atoms: C_5  and  C_17
    5  A    between atoms: C_8  and  C_17
    6  A    between atoms: C_11  and  C_12
                            x       y       z     vdW  Elec       q    Type
                         _______ _______ _______ _____ _____    ______ ____

>  <TORSDO>
F 6

$$$$
=
 OpenBabel11042411203D

 25 27  0  0  1  0  0  0  0  0999 V2000
  191.5570  175.6390  144.4100 C   0  0  0  0  0  2  0  0  0  0  0  0
  191.4620  178.3360  143.4610 C   0  0  0  0  0  3  0  0  0  0  0  0
  191.4970  176.7850  145.4290 C   0  0  1  0  0  3  0  0  0  0  0  0
  191.2040  177.1990  142.5020 C   0  0  1  0  0  3  0  0  0  0  0  0
  190.6770  175.9480  143.2030 C   0  0  0  0  0  2  0  0  0  0  0  0
  191.6360  178.1390  144.7770 C   0  0  0  0  0  3  0  0  0  0  0  0
  190.5770  177.2690  140.1750 N   0  0  0  0  0  0  0  0  0  0  0  0
  188.3960  177.1420  139.0900 C   0  0  2  0  0  3  0  0  0  0  0  0
  190.2940  177.6250  141.3970 C   0  0  0  0  0  0  0  0  0  0  0  0
  189.9380  175.9390  137.1010 C   0  0  0  0  0  2  0  0  0  0  0  0
  188.0140  178.7300  141.1140 C   0  0  0  0  0  3  0  0  0  0  0  0
  190.5990  177.1580  137.7380 C   0  0  0  0  0  2  0  0  0  0  0  0
  189.8410  177.6550  138.9820 C   0  0  2  0  0  3  0  0  0  0  0  0
  187.8140  176.8460  137.7900 N   0  0  0  0  0  0  0  0  0  0  0  0
  188.4980  176.2680  136.8640 C   0  0  0  0  0  3  0  0  0  0  0  0
  189.1580  178.5000  141.7700 C   0  0  0  0  0  3  0  0  0  0  0  0
  187.5650  178.1370  139.8430 C   0  0  0  0  0  0  0  0  0  0  0  0
  186.4310  178.4650  139.4060 O   0  0  0  0  0  0  0  0  0  0  0  0
  190.1970  176.7370  146.2170 C   0  0  0  0  0  2  0  0  0  0  0  0
  189.3830  177.9030  145.9090 N   0  0  0  0  0  2  0  0  0  0  0  0
  188.0540  177.6500  146.4410 C   0  0  0  0  0  2  0  0  0  0  0  0
  186.8570  177.1280  144.3440 C   0  0  0  0  0  1  0  0  0  0  0  0
  186.9870  178.1340  145.4680 C   0  0  1  0  0  3  0  0  0  0  0  0
  185.6530  179.3720  147.0210 O   0  0  0  0  0  1  0  0  0  0  0  0
  185.6420  178.2710  146.1650 C   0  0  0  0  0  2  0  0  0  0  0  0
  1  3  1  0  0  0  0
  2  6  2  0  0  0  0
  3 19  1  6  0  0  0
  4  9  1  6  0  0  0
  4  5  1  0  0  0  0
  4  2  1  0  0  0  0
  5  1  1  0  0  0  0
  6  3  1  0  0  0  0
  7  9  2  0  0  0  0
  8 14  1  6  0  0  0
  8 17  1  0  0  0  0
  9 16  1  0  0  0  0
 10 12  1  0  0  0  0
 11 16  2  0  0  0  0
 13 12  1  6  0  0  0
 13  8  1  0  0  0  0
 13  7  1  0  0  0  0
 15 10  1  0  0  0  0
 15 14  2  0  0  0  0
 17 11  1  0  0  0  0
 18 17  2  0  0  0  0
 20 19  1  0  0  0  0
 20 21  1  0  0  0  0
 23 22  1  6  0  0  0
 23 25  1  0  0  0  0
 23 21  1  0  0  0  0
 25 24  1  0  0  0  0
M  END
>  <MODEL>
2

>  <REMARK>
 VINA RESULT:      -7.6      2.503      5.753
  Name = 
  6 active torsions:
  status: ('A' for Active; 'I' for Inactive)
    1  A    between atoms: C_1  and  C_9
    2  A    between atoms: C_1  and  N_15
    3  A    between atoms: C_5  and  N_15
    4  A    between atoms: C_5  and  C_17
    5  A    between atoms: C_8  and  C_17
    6  A    between atoms: C_11  and  C_12
                            x       y       z     vdW  Elec       q    Type
                         _______ _______ _______ _____ _____    ______ ____

>  <TORSDO>
F 6

$$$$
=
 OpenBabel11042411203D

 25 27  0  0  1  0  0  0  0  0999 V2000
  188.0180  177.5600  146.5570 C   0  0  0  0  0  2  0  0  0  0  0  0
  187.1830  176.7850  143.9330 C   0  0  0  0  0  3  0  0  0  0  0  0
  189.0840  177.1940  145.5150 C   0  0  1  0  0  3  0  0  0  0  0  0
  186.1960  177.4440  144.8650 C   0  0  1  0  0  3  0  0  0  0  0  0
  186.8740  178.3310  145.9080 C   0  0  0  0  0  2  0  0  0  0  0  0
  188.4790  176.6370  144.2490 C   0  0  0  0  0  3  0  0  0  0  0  0
  185.2940  178.3300  142.8110 N   0  0  0  0  0  0  0  0  0  0  0  0
  182.9990  178.5080  142.0050 C   0  0  2  0  0  3  0  0  0  0  0  0
  185.1590  178.2020  144.1020 C   0  0  0  0  0  0  0  0  0  0  0  0
  184.2930  178.1840  139.5550 C   0  0  0  0  0  2  0  0  0  0  0  0
  182.8610  179.2300  144.4990 C   0  0  0  0  0  3  0  0  0  0  0  0
  185.0240  179.1150  140.5180 C   0  0  0  0  0  2  0  0  0  0  0  0
  184.4200  179.0900  141.9340 C   0  0  2  0  0  3  0  0  0  0  0  0
  182.2660  178.6800  140.7610 N   0  0  0  0  0  0  0  0  0  0  0  0
  182.8350  178.5110  139.6170 C   0  0  0  0  0  3  0  0  0  0  0  0
  184.0750  178.8280  144.8940 C   0  0  0  0  0  3  0  0  0  0  0  0
  182.2630  179.1210  143.1580 C   0  0  0  0  0  0  0  0  0  0  0  0
  181.0840  179.5340  143.0010 O   0  0  0  0  0  0  0  0  0  0  0  0
  189.9390  178.4050  145.1740 C   0  0  0  0  0  2  0  0  0  0  0  0
  191.2720  177.9780  144.7780 N   0  0  0  0  0  2  0  0  0  0  0  0
  191.5140  178.5080  143.4450 C   0  0  0  0  0  2  0  0  0  0  0  0
  191.7000  176.0590  143.1860 C   0  0  0  0  0  1  0  0  0  0  0  0
  191.6740  177.3760  142.4400 C   0  0  1  0  0  3  0  0  0  0  0  0
  190.6160  176.2580  140.6080 O   0  0  0  0  0  1  0  0  0  0  0  0
  190.5150  177.3610  141.4550 C   0  0  0  0  0  2  0  0  0  0  0  0
  2  6  2  0  0  0  0
  2  4  1  0  0  0  0
  3 19  1  6  0  0  0
  3  1  1  0  0  0  0
  4  9  1  6  0  0  0
  4  5  1  0  0  0  0
  5  1  1  0  0  0  0
  6  3  1  0  0  0  0
  7  9  2  0  0  0  0
  8 14  1  6  0  0  0
  8 17  1  0  0  0  0
  9 16  1  0  0  0  0
 10 15  1  0  0  0  0
 10 12  1  0  0  0  0
 11 16  2  0  0  0  0
 13 12  1  6  0  0  0
 13  8  1  0  0  0  0
 13  7  1  0  0  0  0
 15 14  2  0  0  0  0
 17 11  1  0  0  0  0
 18 17  2  0  0  0  0
 20 19  1  0  0  0  0
 21 20  1  0  0  0  0
 23 22  1  1  0  0  0
 23 21  1  0  0  0  0
 24 25  1  0  0  0  0
 25 23  1  0  0  0  0
M  END
>  <MODEL>
3

>  <REMARK>
 VINA RESULT:      -7.6      1.848      2.773
  Name = 
  6 active torsions:
  status: ('A' for Active; 'I' for Inactive)
    1  A    between atoms: C_1  and  C_9
    2  A    between atoms: C_1  and  N_15
    3  A    between atoms: C_5  and  N_15
    4  A    between atoms: C_5  and  C_17
    5  A    between atoms: C_8  and  C_17
    6  A    between atoms: C_11  and  C_12
                            x       y       z     vdW  Elec       q    Type
                         _______ _______ _______ _____ _____    ______ ____

>  <TORSDO>
F 6

$$$$
=
 OpenBabel11042411203D

 25 27  0  0  1  0  0  0  0  0999 V2000
  189.0320  178.6310  139.7410 C   0  0  0  0  0  2  0  0  0  0  0  0
  190.1650  177.3270  142.0210 C   0  0  0  0  0  3  0  0  0  0  0  0
  189.9620  177.4290  139.5260 C   0  0  1  0  0  3  0  0  0  0  0  0
  189.0170  178.2900  142.2080 C   0  0  1  0  0  3  0  0  0  0  0  0
  188.1430  178.4090  140.9610 C   0  0  0  0  0  2  0  0  0  0  0  0
  190.6150  176.9740  140.8080 C   0  0  0  0  0  3  0  0  0  0  0  0
  188.8160  177.6400  144.5210 N   0  0  0  0  0  0  0  0  0  0  0  0
  187.2250  178.3010  146.2480 C   0  0  2  0  0  3  0  0  0  0  0  0
  188.2040  177.9320  143.4080 C   0  0  0  0  0  0  0  0  0  0  0  0
  189.4560  177.8580  147.8630 C   0  0  0  0  0  2  0  0  0  0  0  0
  185.7590  177.9310  144.1320 C   0  0  0  0  0  3  0  0  0  0  0  0
  189.2710  176.8100  146.7700 C   0  0  0  0  0  2  0  0  0  0  0  0
  188.1830  177.2040  145.7540 C   0  0  2  0  0  3  0  0  0  0  0  0
  187.0950  178.3140  147.6960 N   0  0  0  0  0  0  0  0  0  0  0  0
  188.1140  178.1370  148.4640 C   0  0  0  0  0  3  0  0  0  0  0  0
  186.7360  177.8590  143.2190 C   0  0  0  0  0  3  0  0  0  0  0  0
  185.8920  178.1380  145.5830 C   0  0  0  0  0  0  0  0  0  0  0  0
  184.8380  178.2080  146.2690 O   0  0  0  0  0  0  0  0  0  0  0  0
  189.2030  176.2660  138.9060 C   0  0  0  0  0  2  0  0  0  0  0  0
  188.8020  176.5990  137.5480 N   0  0  0  0  0  2  0  0  0  0  0  0
  187.4120  176.1970  137.4010 C   0  0  0  0  0  2  0  0  0  0  0  0
  185.8020  177.9970  137.9190 C   0  0  0  0  0  1  0  0  0  0  0  0
  186.5860  177.3310  136.8090 C   0  0  1  0  0  3  0  0  0  0  0  0
  187.4030  179.5790  136.8340 O   0  0  0  0  0  1  0  0  0  0  0  0
  187.4850  178.3660  136.1510 C   0  0  0  0  0  2  0  0  0  0  0  0
  1  5  1  0  0  0  0
  2  4  1  0  0  0  0
  3 19  1  1  0  0  0
  3  1  1  0  0  0  0
  3  6  1  0  0  0  0
  4  9  1  1  0  0  0
  5  4  1  0  0  0  0
  6  2  2  0  0  0  0
  7 13  1  0  0  0  0
  8 17  1  6  0  0  0
  8 14  1  0  0  0  0
  9  7  2  0  0  0  0
 10 15  1  0  0  0  0
 11 17  1  0  0  0  0
 12 10  1  0  0  0  0
 13  8  1  0  0  0  0
 13 12  1  1  0  0  0
 14 15  2  0  0  0  0
 16  9  1  0  0  0  0
 16 11  2  0  0  0  0
 17 18  2  0  0  0  0
 20 19  1  0  0  0  0
 21 20  1  0  0  0  0
 23 21  1  0  0  0  0
 23 22  1  1  0  0  0
 25 23  1  0  0  0  0
 25 24  1  0  0  0  0
M  END
>  <MODEL>
4

>  <REMARK>
 VINA RESULT:      -7.4      2.503      4.566
  Name = 
  6 active torsions:
  status: ('A' for Active; 'I' for Inactive)
    1  A    between atoms: C_1  and  C_9
    2  A    between atoms: C_1  and  N_15
    3  A    between atoms: C_5  and  N_15
    4  A    between atoms: C_5  and  C_17
    5  A    between atoms: C_8  and  C_17
    6  A    between atoms: C_11  and  C_12
                            x       y       z     vdW  Elec       q    Type
                         _______ _______ _______ _____ _____    ______ ____

>  <TORSDO>
F 6

$$$$
=
 OpenBabel11042411203D

 25 27  0  0  1  0  0  0  0  0999 V2000
  191.4540  176.4450  144.7650 C   0  0  0  0  0  2  0  0  0  0  0  0
  190.7600  178.7300  143.1900 C   0  0  0  0  0  3  0  0  0  0  0  0
  190.5330  177.5140  145.3700 C   0  0  1  0  0  3  0  0  0  0  0  0
  191.3910  177.5310  142.5250 C   0  0  1  0  0  3  0  0  0  0  0  0
  191.1330  176.2330  143.2890 C   0  0  0  0  0  2  0  0  0  0  0  0
  190.4130  178.7320  144.4860 C   0  0  0  0  0  3  0  0  0  0  0  0
  191.8160  177.0020  140.2110 N   0  0  0  0  0  0  0  0  0  0  0  0
  190.4250  175.9190  138.5240 C   0  0  2  0  0  3  0  0  0  0  0  0
  190.9570  177.4160  141.1000 C   0  0  0  0  0  0  0  0  0  0  0  0
  192.9280  175.0670  137.6330 C   0  0  0  0  0  2  0  0  0  0  0  0
  188.8070  177.5540  139.7380 C   0  0  0  0  0  3  0  0  0  0  0  0
  192.8970  176.5270  138.0770 C   0  0  0  0  0  2  0  0  0  0  0  0
  191.5810  176.9010  138.7810 C   0  0  2  0  0  3  0  0  0  0  0  0
  190.5540  175.2320  137.2490 N   0  0  0  0  0  0  0  0  0  0  0  0
  191.6940  174.8060  136.8270 C   0  0  0  0  0  3  0  0  0  0  0  0
  189.5800  177.8630  140.7860 C   0  0  0  0  0  3  0  0  0  0  0  0
  189.1180  176.6470  138.6210 C   0  0  0  0  0  0  0  0  0  0  0  0
  188.2340  176.4650  137.7430 O   0  0  0  0  0  0  0  0  0  0  0  0
  189.1480  176.9440  145.6330 C   0  0  0  0  0  2  0  0  0  0  0  0
  188.1630  178.0140  145.6490 N   0  0  0  0  0  2  0  0  0  0  0  0
  186.9720  177.5110  144.9820 C   0  0  0  0  0  2  0  0  0  0  0  0
  184.9860  178.3050  143.7470 C   0  0  0  0  0  1  0  0  0  0  0  0
  185.8990  178.5890  144.9210 C   0  0  1  0  0  3  0  0  0  0  0  0
  183.7650  179.0030  145.9200 O   0  0  0  0  0  1  0  0  0  0  0  0
  185.0710  178.6000  146.1970 C   0  0  0  0  0  2  0  0  0  0  0  0
  1  3  1  0  0  0  0
  2  6  2  0  0  0  0
  3 19  1  6  0  0  0
  4  9  1  6  0  0  0
  4  2  1  0  0  0  0
  4  5  1  0  0  0  0
  5  1  1  0  0  0  0
  6  3  1  0  0  0  0
  7  9  2  0  0  0  0
  8 14  1  6  0  0  0
  8 17  1  0  0  0  0
  8 13  1  0  0  0  0
 10 12  1  0  0  0  0
 11 16  2  0  0  0  0
 13 12  1  6  0  0  0
 13  7  1  0  0  0  0
 15 14  2  0  0  0  0
 15 10  1  0  0  0  0
 16  9  1  0  0  0  0
 17 11  1  0  0  0  0
 18 17  2  0  0  0  0
 19 20  1  0  0  0  0
 21 20  1  0  0  0  0
 23 22  1  6  0  0  0
 23 21  1  0  0  0  0
 23 25  1  0  0  0  0
 24 25  1  0  0  0  0
M  END
>  <MODEL>
5

>  <REMARK>
 VINA RESULT:      -7.3      1.964      6.915
  Name = 
  6 active torsions:
  status: ('A' for Active; 'I' for Inactive)
    1  A    between atoms: C_1  and  C_9
    2  A    between atoms: C_1  and  N_15
    3  A    between atoms: C_5  and  N_15
    4  A    between atoms: C_5  and  C_17
    5  A    between atoms: C_8  and  C_17
    6  A    between atoms: C_11  and  C_12
                            x       y       z     vdW  Elec       q    Type
                         _______ _______ _______ _____ _____    ______ ____

>  <TORSDO>
F 6

$$$$
=
 OpenBabel11042411203D

 25 27  0  0  1  0  0  0  0  0999 V2000
  182.9740  178.9980  142.4000 C   0  0  0  0  0  2  0  0  0  0  0  0
  185.7720  179.0040  141.8020 C   0  0  0  0  0  3  0  0  0  0  0  0
  183.4250  178.7910  140.9480 C   0  0  1  0  0  3  0  0  0  0  0  0
  185.3170  178.8880  143.2360 C   0  0  1  0  0  3  0  0  0  0  0  0
  183.9190  178.2850  143.3620 C   0  0  0  0  0  2  0  0  0  0  0  0
  184.9100  179.0030  140.7740 C   0  0  0  0  0  3  0  0  0  0  0  0
  187.3290  177.5780  143.4590 N   0  0  0  0  0  0  0  0  0  0  0  0
  189.0680  177.5750  145.1710 C   0  0  2  0  0  3  0  0  0  0  0  0
  186.3100  178.1300  144.0560 C   0  0  0  0  0  0  0  0  0  0  0  0
  190.6280  176.8660  142.9690 C   0  0  0  0  0  2  0  0  0  0  0  0
  186.8450  177.7180  146.5140 C   0  0  0  0  0  3  0  0  0  0  0  0
  189.2700  176.1700  143.0100 C   0  0  0  0  0  2  0  0  0  0  0  0
  188.3430  176.7520  144.0930 C   0  0  2  0  0  3  0  0  0  0  0  0
  190.4480  177.1550  145.3550 N   0  0  0  0  0  0  0  0  0  0  0  0
  191.1960  176.8460  144.3530 C   0  0  0  0  0  3  0  0  0  0  0  0
  186.0140  177.9950  145.5010 C   0  0  0  0  0  3  0  0  0  0  0  0
  188.3010  177.5030  146.4560 C   0  0  0  0  0  0  0  0  0  0  0  0
  188.9090  177.2840  147.5370 O   0  0  0  0  0  0  0  0  0  0  0  0
  183.0550  177.3980  140.4630 C   0  0  0  0  0  2  0  0  0  0  0  0
  181.6130  177.2950  140.2970 N   0  0  0  0  0  2  0  0  0  0  0  0
  181.2160  178.3250  139.3490 C   0  0  0  0  0  2  0  0  0  0  0  0
  179.4530  178.3420  141.0790 C   0  0  0  0  0  1  0  0  0  0  0  0
  179.9330  179.0060  139.8060 C   0  0  1  0  0  3  0  0  0  0  0  0
  180.0550  180.7430  141.4460 O   0  0  0  0  0  1  0  0  0  0  0  0
  180.1730  180.4820  140.0810 C   0  0  0  0  0  2  0  0  0  0  0  0
  1  5  1  0  0  0  0
  2  4  1  0  0  0  0
  3 19  1  1  0  0  0
  3  1  1  0  0  0  0
  4  5  1  0  0  0  0
  4  9  1  1  0  0  0
  6  3  1  0  0  0  0
  6  2  2  0  0  0  0
  7  9  2  0  0  0  0
  7 13  1  0  0  0  0
  8 14  1  1  0  0  0
  8 17  1  0  0  0  0
  9 16  1  0  0  0  0
 10 12  1  0  0  0  0
 10 15  1  0  0  0  0
 13 12  1  6  0  0  0
 13  8  1  0  0  0  0
 15 14  2  0  0  0  0
 16 11  2  0  0  0  0
 17 11  1  0  0  0  0
 17 18  2  0  0  0  0
 20 19  1  0  0  0  0
 21 23  1  0  0  0  0
 21 20  1  0  0  0  0
 23 25  1  0  0  0  0
 23 22  1  1  0  0  0
 25 24  1  0  0  0  0
M  END
>  <MODEL>
6

>  <REMARK>
 VINA RESULT:      -7.2      2.845      7.128
  Name = 
  6 active torsions:
  status: ('A' for Active; 'I' for Inactive)
    1  A    between atoms: C_1  and  C_9
    2  A    between atoms: C_1  and  N_15
    3  A    between atoms: C_5  and  N_15
    4  A    between atoms: C_5  and  C_17
    5  A    between atoms: C_8  and  C_17
    6  A    between atoms: C_11  and  C_12
                            x       y       z     vdW  Elec       q    Type
                         _______ _______ _______ _____ _____    ______ ____

>  <TORSDO>
F 6

$$$$
=
 OpenBabel11042411203D

 25 27  0  0  1  0  0  0  0  0999 V2000
  182.7630  178.8890  141.7700 C   0  0  0  0  0  2  0  0  0  0  0  0
  185.6070  178.9410  141.4670 C   0  0  0  0  0  3  0  0  0  0  0  0
  183.3680  178.6300  140.3840 C   0  0  1  0  0  3  0  0  0  0  0  0
  185.0060  178.8770  142.8500 C   0  0  1  0  0  3  0  0  0  0  0  0
  183.6150  178.2440  142.8580 C   0  0  0  0  0  2  0  0  0  0  0  0
  184.8580  178.8720  140.3560 C   0  0  0  0  0  3  0  0  0  0  0  0
  186.9780  177.5770  143.3350 N   0  0  0  0  0  0  0  0  0  0  0  0
  188.5790  177.7030  145.1720 C   0  0  2  0  0  3  0  0  0  0  0  0
  185.9230  178.1820  143.8030 C   0  0  0  0  0  0  0  0  0  0  0  0
  190.2950  176.8060  143.1630 C   0  0  0  0  0  2  0  0  0  0  0  0
  186.2610  177.9690  146.3210 C   0  0  0  0  0  3  0  0  0  0  0  0
  188.9300  176.1250  143.1550 C   0  0  0  0  0  2  0  0  0  0  0  0
  187.9290  176.7990  144.1110 C   0  0  2  0  0  3  0  0  0  0  0  0
  189.9350  177.2900  145.4970 N   0  0  0  0  0  0  0  0  0  0  0  0
  190.7540  176.8960  144.5840 C   0  0  0  0  0  3  0  0  0  0  0  0
  185.5140  178.1680  145.2270 C   0  0  0  0  0  3  0  0  0  0  0  0
  187.7140  177.7410  146.3950 C   0  0  0  0  0  0  0  0  0  0  0  0
  188.2340  177.6070  147.5340 O   0  0  0  0  0  0  0  0  0  0  0  0
  183.0800  177.2070  139.9290 C   0  0  0  0  0  2  0  0  0  0  0  0
  181.7480  177.1290  139.3480 N   0  0  0  0  0  2  0  0  0  0  0  0
  181.2360  175.7970  139.6280 C   0  0  0  0  0  2  0  0  0  0  0  0
  179.4570  174.7460  140.9810 C   0  0  0  0  0  1  0  0  0  0  0  0
  179.7610  175.8600  140.0020 C   0  0  1  0  0  3  0  0  0  0  0  0
  179.3750  177.0540  142.0390 O   0  0  0  0  0  1  0  0  0  0  0  0
  179.4240  177.1930  140.6520 C   0  0  0  0  0  2  0  0  0  0  0  0
  1  5  1  0  0  0  0
  2  4  1  0  0  0  0
  3 19  1  1  0  0  0
  3  1  1  0  0  0  0
  4  5  1  0  0  0  0
  4  9  1  1  0  0  0
  6  3  1  0  0  0  0
  6  2  2  0  0  0  0
  7  9  2  0  0  0  0
  7 13  1  0  0  0  0
  8 14  1  1  0  0  0
  8 17  1  0  0  0  0
  9 16  1  0  0  0  0
 10 15  1  0  0  0  0
 11 17  1  0  0  0  0
 12 10  1  0  0  0  0
 13 12  1  6  0  0  0
 13  8  1  0  0  0  0
 15 14  2  0  0  0  0
 16 11  2  0  0  0  0
 17 18  2  0  0  0  0
 20 21  1  0  0  0  0
 20 19  1  0  0  0  0
 21 23  1  0  0  0  0
 23 25  1  0  0  0  0
 23 22  1  1  0  0  0
 25 24  1  0  0  0  0
M  END
>  <MODEL>
7

>  <REMARK>
 VINA RESULT:      -7.1      2.962      7.155
  Name = 
  6 active torsions:
  status: ('A' for Active; 'I' for Inactive)
    1  A    between atoms: C_1  and  C_9
    2  A    between atoms: C_1  and  N_15
    3  A    between atoms: C_5  and  N_15
    4  A    between atoms: C_5  and  C_17
    5  A    between atoms: C_8  and  C_17
    6  A    between atoms: C_11  and  C_12
                            x       y       z     vdW  Elec       q    Type
                         _______ _______ _______ _____ _____    ______ ____

>  <TORSDO>
F 6

$$$$
=
 OpenBabel11042411203D

 25 27  0  0  1  0  0  0  0  0999 V2000
  189.5680  175.8500  143.2160 C   0  0  0  0  0  2  0  0  0  0  0  0
  189.0430  178.3730  141.9750 C   0  0  0  0  0  3  0  0  0  0  0  0
  190.6110  176.9690  143.3360 C   0  0  1  0  0  3  0  0  0  0  0  0
  187.9210  177.3780  142.1430 C   0  0  1  0  0  3  0  0  0  0  0  0
  188.1560  176.4190  143.3090 C   0  0  0  0  0  2  0  0  0  0  0  0
  190.2680  178.1650  142.4800 C   0  0  0  0  0  3  0  0  0  0  0  0
  185.9550  178.3930  141.1840 N   0  0  0  0  0  0  0  0  0  0  0  0
  183.6140  178.3350  141.8700 C   0  0  2  0  0  3  0  0  0  0  0  0
  186.6030  178.0700  142.2680 C   0  0  0  0  0  0  0  0  0  0  0  0
  183.2510  178.5490  139.1120 C   0  0  0  0  0  2  0  0  0  0  0  0
  184.9260  178.6770  144.0900 C   0  0  0  0  0  3  0  0  0  0  0  0
  184.3650  179.4370  139.6560 C   0  0  0  0  0  2  0  0  0  0  0  0
  184.7020  179.1270  141.1260 C   0  0  2  0  0  3  0  0  0  0  0  0
  182.2880  178.5650  141.3220 N   0  0  0  0  0  0  0  0  0  0  0  0
  182.0890  178.6420  140.0510 C   0  0  0  0  0  3  0  0  0  0  0  0
  186.1590  178.4120  143.6400 C   0  0  0  0  0  3  0  0  0  0  0  0
  183.6640  178.6660  143.3310 C   0  0  0  0  0  0  0  0  0  0  0  0
  182.5980  178.9150  143.9530 O   0  0  0  0  0  0  0  0  0  0  0  0
  190.7600  177.4120  144.7830 C   0  0  0  0  0  2  0  0  0  0  0  0
  190.4020  176.3220  145.6780 N   0  0  0  0  0  2  0  0  0  0  0  0
  190.2990  176.8820  147.0160 C   0  0  0  0  0  2  0  0  0  0  0  0
  187.8690  177.1830  146.6940 C   0  0  0  0  0  1  0  0  0  0  0  0
  189.1520  177.8810  147.0900 C   0  0  1  0  0  3  0  0  0  0  0  0
  187.9770  177.7550  149.1710 O   0  0  0  0  0  1  0  0  0  0  0  0
  189.0010  178.4260  148.5020 C   0  0  0  0  0  2  0  0  0  0  0  0
  1  5  1  0  0  0  0
  1  3  1  0  0  0  0
  2  4  1  0  0  0  0
  2  6  2  0  0  0  0
  3 19  1  1  0  0  0
  4  9  1  1  0  0  0
  4  5  1  0  0  0  0
  6  3  1  0  0  0  0
  7  9  2  0  0  0  0
  8 14  1  6  0  0  0
  8 17  1  0  0  0  0
  9 16  1  0  0  0  0
 10 12  1  0  0  0  0
 10 15  1  0  0  0  0
 13 12  1  6  0  0  0
 13  7  1  0  0  0  0
 13  8  1  0  0  0  0
 15 14  2  0  0  0  0
 16 11  2  0  0  0  0
 17 18  2  0  0  0  0
 17 11  1  0  0  0  0
 19 20  1  0  0  0  0
 20 21  1  0  0  0  0
 21 23  1  0  0  0  0
 23 22  1  1  0  0  0
 23 25  1  0  0  0  0
 25 24  1  0  0  0  0
M  END
>  <MODEL>
8

>  <REMARK>
 VINA RESULT:      -7.0      2.538      4.395
  Name = 
  6 active torsions:
  status: ('A' for Active; 'I' for Inactive)
    1  A    between atoms: C_1  and  C_9
    2  A    between atoms: C_1  and  N_15
    3  A    between atoms: C_5  and  N_15
    4  A    between atoms: C_5  and  C_17
    5  A    between atoms: C_8  and  C_17
    6  A    between atoms: C_11  and  C_12
                            x       y       z     vdW  Elec       q    Type
                         _______ _______ _______ _____ _____    ______ ____

>  <TORSDO>
F 6

$$$$
=
 OpenBabel11042411203D

 25 27  0  0  1  0  0  0  0  0999 V2000
  183.0650  178.9830  142.3420 C   0  0  0  0  0  2  0  0  0  0  0  0
  185.8770  179.0060  141.8130 C   0  0  0  0  0  3  0  0  0  0  0  0
  183.5530  178.7840  140.9000 C   0  0  1  0  0  3  0  0  0  0  0  0
  185.3870  178.8820  143.2350 C   0  0  1  0  0  3  0  0  0  0  0  0
  183.9900  178.2710  143.3240 C   0  0  0  0  0  2  0  0  0  0  0  0
  185.0410  179.0040  140.7640 C   0  0  0  0  0  3  0  0  0  0  0  0
  187.3950  177.5730  143.5010 N   0  0  0  0  0  0  0  0  0  0  0  0
  189.0990  177.5740  145.2480 C   0  0  2  0  0  3  0  0  0  0  0  0
  186.3640  178.1260  144.0760 C   0  0  0  0  0  0  0  0  0  0  0  0
  190.7030  176.8620  143.0800 C   0  0  0  0  0  2  0  0  0  0  0  0
  186.8490  177.7180  146.5450 C   0  0  0  0  0  3  0  0  0  0  0  0
  189.3460  176.1660  143.0950 C   0  0  0  0  0  2  0  0  0  0  0  0
  188.3960  176.7490  144.1570 C   0  0  2  0  0  3  0  0  0  0  0  0
  190.4740  177.1550  145.4610 N   0  0  0  0  0  0  0  0  0  0  0  0
  191.2430  176.8450  144.4750 C   0  0  0  0  0  3  0  0  0  0  0  0
  186.0380  177.9930  145.5150 C   0  0  0  0  0  3  0  0  0  0  0  0
  188.3060  177.5040  146.5180 C   0  0  0  0  0  0  0  0  0  0  0  0
  188.8910  177.2870  147.6110 O   0  0  0  0  0  0  0  0  0  0  0  0
  183.2020  177.3910  140.4010 C   0  0  0  0  0  2  0  0  0  0  0  0
  182.0180  177.4470  139.5580 N   0  0  0  0  0  2  0  0  0  0  0  0
  182.4600  177.2580  138.1850 C   0  0  0  0  0  2  0  0  0  0  0  0
  182.9110  174.8940  137.6270 C   0  0  0  0  0  1  0  0  0  0  0  0
  183.5370  176.1840  138.1140 C   0  0  1  0  0  3  0  0  0  0  0  0
  185.1110  177.8650  137.4650 O   0  0  0  0  0  1  0  0  0  0  0  0
  184.6420  176.5900  137.1500 C   0  0  0  0  0  2  0  0  0  0  0  0
  1  5  1  0  0  0  0
  2  4  1  0  0  0  0
  3 19  1  1  0  0  0
  3  1  1  0  0  0  0
  4  5  1  0  0  0  0
  4  9  1  1  0  0  0
  6  3  1  0  0  0  0
  6  2  2  0  0  0  0
  7  9  2  0  0  0  0
  7 13  1  0  0  0  0
  8 14  1  1  0  0  0
  8 17  1  0  0  0  0
  9 16  1  0  0  0  0
 10 12  1  0  0  0  0
 10 15  1  0  0  0  0
 13 12  1  6  0  0  0
 13  8  1  0  0  0  0
 15 14  2  0  0  0  0
 16 11  2  0  0  0  0
 17 11  1  0  0  0  0
 17 18  2  0  0  0  0
 20 19  1  0  0  0  0
 21 20  1  0  0  0  0
 23 22  1  6  0  0  0
 23 21  1  0  0  0  0
 25 24  1  0  0  0  0
 25 23  1  0  0  0  0
M  END
>  <MODEL>
9

>  <REMARK>
 VINA RESULT:      -6.9      2.584      6.231
  Name = 
  6 active torsions:
  status: ('A' for Active; 'I' for Inactive)
    1  A    between atoms: C_1  and  C_9
    2  A    between atoms: C_1  and  N_15
    3  A    between atoms: C_5  and  N_15
    4  A    between atoms: C_5  and  C_17
    5  A    between atoms: C_8  and  C_17
    6  A    between atoms: C_11  and  C_12
                            x       y       z     vdW  Elec       q    Type
                         _______ _______ _______ _____ _____    ______ ____

>  <TORSDO>
F 6

$$$$
