=
 OpenBabel11042410483D

 31 34  0  0  1  0  0  0  0  0999 V2000
  187.4870  178.2530  139.9020 C   0  0  0  0  0  3  0  0  0  0  0  0
  187.1260  178.6570  141.1290 C   0  0  0  0  0  0  0  0  0  0  0  0
  187.9180  178.3120  142.2670 N   0  0  0  0  0  2  0  0  0  0  0  0
  187.8630  176.9980  142.8880 C   0  0  0  0  0  2  0  0  0  0  0  0
  191.1460  177.1500  147.8350 O   0  0  0  0  0  0  0  0  0  0  0  0
  190.9820  176.7560  145.7620 C   0  0  0  0  0  0  0  0  0  0  0  0
  187.4630  177.6420  145.6640 N   0  0  0  0  0  2  0  0  0  0  0  0
  191.2450  176.4290  144.4760 N   0  0  0  0  0  0  0  0  0  0  0  0
  191.8410  176.7560  146.7950 N   0  0  0  0  0  2  0  0  0  0  0  0
  189.6910  177.1710  146.1860 C   0  0  0  0  0  0  0  0  0  0  0  0
  188.6380  177.2560  145.2870 C   0  0  0  0  0  0  0  0  0  0  0  0
  188.9000  177.8460  148.4540 N   0  0  0  0  0  1  0  0  0  0  0  0
  190.2250  176.5030  143.5660 C   0  0  0  0  0  3  0  0  0  0  0  0
  188.9160  176.9050  143.9430 C   0  0  0  0  0  0  0  0  0  0  0  0
  189.8840  177.4040  147.5250 C   0  0  0  0  0  0  0  0  0  0  0  0
  185.9260  179.4260  141.3290 N   0  0  0  0  0  2  0  0  0  0  0  0
  182.7740  178.7820  144.0960 C   0  0  0  0  0  3  0  0  0  0  0  0
  184.0310  179.2070  144.5330 C   0  0  0  0  0  3  0  0  0  0  0  0
  185.0610  179.4100  143.6080 C   0  0  0  0  0  3  0  0  0  0  0  0
  183.5760  178.7690  141.8120 C   0  0  0  0  0  3  0  0  0  0  0  0
  182.5450  178.5640  142.7350 C   0  0  0  0  0  3  0  0  0  0  0  0
  184.8430  179.1900  142.2430 C   0  0  0  0  0  0  0  0  0  0  0  0
  188.6570  177.4830  139.5820 N   0  0  0  0  0  2  0  0  0  0  0  0
  189.7990  177.9410  138.7950 C   0  0  1  0  0  3  0  0  0  0  0  0
  189.9910  177.1790  137.5260 C   0  0  2  0  0  3  0  0  0  0  0  0
  189.3460  178.4310  137.5550 O   0  0  0  0  0  0  0  0  0  0  0  0
  188.9610  176.0830  137.2640 C   0  0  0  0  0  2  0  0  0  0  0  0
  189.6500  174.7480  137.0500 C   0  0  0  0  0  2  0  0  0  0  0  0
  190.6300  174.5530  138.0290 O   0  0  0  0  0  0  0  0  0  0  0  0
  192.7280  174.5850  137.5580 C   0  0  0  0  0  1  0  0  0  0  0  0
  191.5590  173.8310  137.4380 O   0  0  0  0  0  0  0  0  0  0  0  0
  1  2  2  0  0  0  0
  2 16  1  0  0  0  0
  2  3  1  0  0  0  0
  3  4  1  0  0  0  0
  4 14  1  0  0  0  0
  6 10  1  0  0  0  0
  6  9  1  0  0  0  0
  8  6  2  0  0  0  0
  9  5  1  0  0  0  0
 10 15  2  0  0  0  0
 11  7  2  0  0  0  0
 11 10  1  0  0  0  0
 13 14  2  0  0  0  0
 13  8  1  0  0  0  0
 14 11  1  0  0  0  0
 15  5  1  0  0  0  0
 15 12  1  0  0  0  0
 16 22  1  0  0  0  0
 17 18  1  0  0  0  0
 19 18  2  0  0  0  0
 20 22  2  0  0  0  0
 20 21  1  0  0  0  0
 21 17  2  0  0  0  0
 22 19  1  0  0  0  0
 23  1  1  0  0  0  0
 24 23  1  1  0  0  0
 25 27  1  1  0  0  0
 25 26  1  0  0  0  0
 25 24  1  0  0  0  0
 26 24  1  0  0  0  0
 28 27  1  0  0  0  0
 28 29  1  0  0  0  0
 31 30  1  0  0  0  0
 31 29  1  0  0  0  0
M  END
>  <MODEL>
1

>  <REMARK>
 VINA RESULT:      -7.9      0.000      0.000
  Name = 
  11 active torsions:
  status: ('A' for Active; 'I' for Inactive)
    1  A    between atoms: C_1  and  C_9
    2  A    between atoms: C_1  and  O_10
    3  A    between atoms: C_9  and  C_30
    4  A    between atoms: O_10  and  O_13
    5  A    between atoms: C_17  and  N_21
    6  A    between atoms: C_17  and  C_25
    7  A    between atoms: C_20  and  N_24
    8  A    between atoms: N_21  and  C_22
    9  A    between atoms: C_22  and  N_23
   10  A    between atoms: N_23  and  C_28
   11  A    between atoms: N_24  and  C_29
                            x       y       z     vdW  Elec       q    Type
                         _______ _______ _______ _____ _____    ______ ____

>  <TORSDO>
F 11

$$$$
=
 OpenBabel11042410483D

 31 34  0  0  1  0  0  0  0  0999 V2000
  190.9180  176.8550  141.2760 C   0  0  0  0  0  3  0  0  0  0  0  0
  190.3600  176.9560  142.4910 C   0  0  0  0  0  0  0  0  0  0  0  0
  188.9980  176.5760  142.6960 N   0  0  0  0  0  2  0  0  0  0  0  0
  187.8820  177.3820  142.2300 C   0  0  0  0  0  2  0  0  0  0  0  0
  183.5310  179.0770  145.8980 O   0  0  0  0  0  0  0  0  0  0  0  0
  185.5000  178.3580  145.6090 C   0  0  0  0  0  0  0  0  0  0  0  0
  185.1640  178.2970  141.9940 N   0  0  0  0  0  2  0  0  0  0  0  0
  186.7680  177.9270  145.7990 N   0  0  0  0  0  0  0  0  0  0  0  0
  184.6140  178.7260  146.5490 N   0  0  0  0  0  2  0  0  0  0  0  0
  184.9350  178.4890  144.3120 C   0  0  0  0  0  0  0  0  0  0  0  0
  185.6690  178.1720  143.1780 C   0  0  0  0  0  0  0  0  0  0  0  0
  182.6610  179.2610  143.6360 N   0  0  0  0  0  1  0  0  0  0  0  0
  187.5170  177.6060  144.6990 C   0  0  0  0  0  3  0  0  0  0  0  0
  186.9940  177.7130  143.3830 C   0  0  0  0  0  0  0  0  0  0  0  0
  183.6730  178.9540  144.5880 C   0  0  0  0  0  0  0  0  0  0  0  0
  191.1100  177.4670  143.6080 N   0  0  0  0  0  2  0  0  0  0  0  0
  191.4070  175.9560  147.5610 C   0  0  0  0  0  3  0  0  0  0  0  0
  192.1940  175.4290  146.5350 C   0  0  0  0  0  3  0  0  0  0  0  0
  192.0810  175.9360  145.2360 C   0  0  0  0  0  3  0  0  0  0  0  0
  190.3980  177.4970  145.9910 C   0  0  0  0  0  3  0  0  0  0  0  0
  190.5090  176.9910  147.2900 C   0  0  0  0  0  3  0  0  0  0  0  0
  191.1810  176.9690  144.9540 C   0  0  0  0  0  0  0  0  0  0  0  0
  190.2690  176.3630  140.0920 N   0  0  0  0  0  2  0  0  0  0  0  0
  190.7650  176.4900  138.7240 C   0  0  1  0  0  3  0  0  0  0  0  0
  189.6820  176.6800  137.7140 C   0  0  2  0  0  3  0  0  0  0  0  0
  190.4290  177.7620  138.2210 O   0  0  0  0  0  0  0  0  0  0  0  0
  188.2660  176.7310  138.2810 C   0  0  0  0  0  2  0  0  0  0  0  0
  187.5920  178.0390  137.9080 C   0  0  0  0  0  2  0  0  0  0  0  0
  186.7960  178.4860  138.9670 O   0  0  0  0  0  0  0  0  0  0  0  0
  184.9500  177.9190  138.0210 C   0  0  0  0  0  1  0  0  0  0  0  0
  185.7350  179.0130  138.3920 O   0  0  0  0  0  0  0  0  0  0  0  0
  1  2  2  0  0  0  0
  2  3  1  0  0  0  0
  2 16  1  0  0  0  0
  4  3  1  0  0  0  0
  4 14  1  0  0  0  0
  5  9  1  0  0  0  0
  6  8  2  0  0  0  0
  6  9  1  0  0  0  0
  7 11  2  0  0  0  0
 10 15  2  0  0  0  0
 10  6  1  0  0  0  0
 11 14  1  0  0  0  0
 11 10  1  0  0  0  0
 12 15  1  0  0  0  0
 13  8  1  0  0  0  0
 14 13  2  0  0  0  0
 15  5  1  0  0  0  0
 16 22  1  0  0  0  0
 18 17  2  0  0  0  0
 19 18  1  0  0  0  0
 20 21  2  0  0  0  0
 21 17  1  0  0  0  0
 22 19  2  0  0  0  0
 22 20  1  0  0  0  0
 23  1  1  0  0  0  0
 24 23  1  1  0  0  0
 25 26  1  0  0  0  0
 25 27  1  1  0  0  0
 25 24  1  0  0  0  0
 26 24  1  0  0  0  0
 28 27  1  0  0  0  0
 28 29  1  0  0  0  0
 30 31  1  0  0  0  0
 31 29  1  0  0  0  0
M  END
>  <MODEL>
2

>  <REMARK>
 VINA RESULT:      -7.8      2.418      5.901
  Name = 
  11 active torsions:
  status: ('A' for Active; 'I' for Inactive)
    1  A    between atoms: C_1  and  C_9
    2  A    between atoms: C_1  and  O_10
    3  A    between atoms: C_9  and  C_30
    4  A    between atoms: O_10  and  O_13
    5  A    between atoms: C_17  and  N_21
    6  A    between atoms: C_17  and  C_25
    7  A    between atoms: C_20  and  N_24
    8  A    between atoms: N_21  and  C_22
    9  A    between atoms: C_22  and  N_23
   10  A    between atoms: N_23  and  C_28
   11  A    between atoms: N_24  and  C_29
                            x       y       z     vdW  Elec       q    Type
                         _______ _______ _______ _____ _____    ______ ____

>  <TORSDO>
F 11

$$$$
=
 OpenBabel11042410483D

 31 34  0  0  1  0  0  0  0  0999 V2000
  191.0030  176.8700  141.4170 C   0  0  0  0  0  3  0  0  0  0  0  0
  190.2540  177.0140  142.5200 C   0  0  0  0  0  0  0  0  0  0  0  0
  188.8790  176.6290  142.5170 N   0  0  0  0  0  2  0  0  0  0  0  0
  187.8140  177.5340  142.1160 C   0  0  0  0  0  2  0  0  0  0  0  0
  183.4800  179.0490  145.8820 O   0  0  0  0  0  0  0  0  0  0  0  0
  185.4560  178.3660  145.5490 C   0  0  0  0  0  0  0  0  0  0  0  0
  185.0820  178.4190  141.9380 N   0  0  0  0  0  2  0  0  0  0  0  0
  186.7310  177.9460  145.7120 N   0  0  0  0  0  0  0  0  0  0  0  0
  184.5750  178.6920  146.5100 N   0  0  0  0  0  2  0  0  0  0  0  0
  184.8750  178.5320  144.2620 C   0  0  0  0  0  0  0  0  0  0  0  0
  185.6020  178.2620  143.1120 C   0  0  0  0  0  0  0  0  0  0  0  0
  182.5840  179.2960  143.6360 N   0  0  0  0  0  1  0  0  0  0  0  0
  187.4720  177.6720  144.5940 C   0  0  0  0  0  3  0  0  0  0  0  0
  186.9340  177.8150  143.2880 C   0  0  0  0  0  0  0  0  0  0  0  0
  183.6100  178.9710  144.5670 C   0  0  0  0  0  0  0  0  0  0  0  0
  190.8120  177.5770  143.7220 N   0  0  0  0  0  2  0  0  0  0  0  0
  191.8390  175.6730  147.3720 C   0  0  0  0  0  3  0  0  0  0  0  0
  191.0760  176.8430  147.3680 C   0  0  0  0  0  3  0  0  0  0  0  0
  190.7500  177.4610  146.1560 C   0  0  0  0  0  3  0  0  0  0  0  0
  191.9450  175.7370  144.9550 C   0  0  0  0  0  3  0  0  0  0  0  0
  192.2730  175.1180  146.1660 C   0  0  0  0  0  3  0  0  0  0  0  0
  191.1840  176.9160  144.9420 C   0  0  0  0  0  0  0  0  0  0  0  0
  190.5560  176.3250  140.1650 N   0  0  0  0  0  2  0  0  0  0  0  0
  190.2000  177.0900  138.9730 C   0  0  1  0  0  3  0  0  0  0  0  0
  190.9410  176.6650  137.7490 C   0  0  2  0  0  3  0  0  0  0  0  0
  189.6290  176.2280  138.0160 O   0  0  0  0  0  0  0  0  0  0  0  0
  191.9130  175.5040  137.9480 C   0  0  0  0  0  2  0  0  0  0  0  0
  193.2980  175.8830  137.4580 C   0  0  0  0  0  2  0  0  0  0  0  0
  194.2230  175.7690  138.5020 O   0  0  0  0  0  0  0  0  0  0  0  0
  195.7530  174.3630  139.0550 C   0  0  0  0  0  1  0  0  0  0  0  0
  195.2300  175.0950  137.9870 O   0  0  0  0  0  0  0  0  0  0  0  0
  1  2  2  0  0  0  0
  2 16  1  0  0  0  0
  3  2  1  0  0  0  0
  4  3  1  0  0  0  0
  4 14  1  0  0  0  0
  5  9  1  0  0  0  0
  6  8  2  0  0  0  0
  6  9  1  0  0  0  0
  7 11  2  0  0  0  0
 10 15  2  0  0  0  0
 10  6  1  0  0  0  0
 11 14  1  0  0  0  0
 11 10  1  0  0  0  0
 12 15  1  0  0  0  0
 13  8  1  0  0  0  0
 14 13  2  0  0  0  0
 15  5  1  0  0  0  0
 16 22  1  0  0  0  0
 18 17  1  0  0  0  0
 19 18  2  0  0  0  0
 20 21  1  0  0  0  0
 21 17  2  0  0  0  0
 22 20  2  0  0  0  0
 22 19  1  0  0  0  0
 23  1  1  0  0  0  0
 24 23  1  1  0  0  0
 25 27  1  1  0  0  0
 25 26  1  0  0  0  0
 25 24  1  0  0  0  0
 26 24  1  0  0  0  0
 28 27  1  0  0  0  0
 28 29  1  0  0  0  0
 31 29  1  0  0  0  0
 31 30  1  0  0  0  0
M  END
>  <MODEL>
3

>  <REMARK>
 VINA RESULT:      -7.8      2.465      5.653
  Name = 
  11 active torsions:
  status: ('A' for Active; 'I' for Inactive)
    1  A    between atoms: C_1  and  C_9
    2  A    between atoms: C_1  and  O_10
    3  A    between atoms: C_9  and  C_30
    4  A    between atoms: O_10  and  O_13
    5  A    between atoms: C_17  and  N_21
    6  A    between atoms: C_17  and  C_25
    7  A    between atoms: C_20  and  N_24
    8  A    between atoms: N_21  and  C_22
    9  A    between atoms: C_22  and  N_23
   10  A    between atoms: N_23  and  C_28
   11  A    between atoms: N_24  and  C_29
                            x       y       z     vdW  Elec       q    Type
                         _______ _______ _______ _____ _____    ______ ____

>  <TORSDO>
F 11

$$$$
=
 OpenBabel11042410483D

 31 34  0  0  1  0  0  0  0  0999 V2000
  187.8140  178.2430  139.2430 C   0  0  0  0  0  3  0  0  0  0  0  0
  189.0590  177.9480  139.6470 C   0  0  0  0  0  0  0  0  0  0  0  0
  189.3870  177.9460  141.0370 N   0  0  0  0  0  2  0  0  0  0  0  0
  189.6480  176.7230  141.7780 C   0  0  0  0  0  2  0  0  0  0  0  0
  189.6480  177.2030  147.6970 O   0  0  0  0  0  0  0  0  0  0  0  0
  188.6110  177.3110  145.8550 C   0  0  0  0  0  0  0  0  0  0  0  0
  191.5620  176.4750  143.9120 N   0  0  0  0  0  2  0  0  0  0  0  0
  187.6580  177.4530  144.9060 N   0  0  0  0  0  0  0  0  0  0  0  0
  188.4640  177.4390  147.1840 N   0  0  0  0  0  2  0  0  0  0  0  0
  189.9540  176.9780  145.5310 C   0  0  0  0  0  0  0  0  0  0  0  0
  190.3440  176.7870  144.2130 C   0  0  0  0  0  0  0  0  0  0  0  0
  191.9160  176.6340  147.0330 N   0  0  0  0  0  1  0  0  0  0  0  0
  188.0130  177.2700  143.5970 C   0  0  0  0  0  3  0  0  0  0  0  0
  189.3430  176.9440  143.2220 C   0  0  0  0  0  0  0  0  0  0  0  0
  190.5500  176.9290  146.7670 C   0  0  0  0  0  0  0  0  0  0  0  0
  190.0930  177.6470  138.6920 N   0  0  0  0  0  2  0  0  0  0  0  0
  191.1860  173.8790  137.0760 C   0  0  0  0  0  3  0  0  0  0  0  0
  189.8580  174.3090  137.0480 C   0  0  0  0  0  3  0  0  0  0  0  0
  189.5130  175.5530  137.5880 C   0  0  0  0  0  3  0  0  0  0  0  0
  191.8250  175.9360  138.1810 C   0  0  0  0  0  3  0  0  0  0  0  0
  192.1710  174.6920  137.6420 C   0  0  0  0  0  3  0  0  0  0  0  0
  190.4920  176.3730  138.1620 C   0  0  0  0  0  0  0  0  0  0  0  0
  186.7060  178.5590  140.1000 N   0  0  0  0  0  2  0  0  0  0  0  0
  185.2950  178.5270  139.7270 C   0  0  1  0  0  3  0  0  0  0  0  0
  184.3680  178.6630  140.8910 C   0  0  2  0  0  3  0  0  0  0  0  0
  184.6930  179.7550  140.0620 O   0  0  0  0  0  0  0  0  0  0  0  0
  185.0490  178.8350  142.2460 C   0  0  0  0  0  2  0  0  0  0  0  0
  184.0390  178.6790  143.3690 C   0  0  0  0  0  2  0  0  0  0  0  0
  184.2650  179.6480  144.3520 O   0  0  0  0  0  0  0  0  0  0  0  0
  184.7080  178.5780  146.1640 C   0  0  0  0  0  1  0  0  0  0  0  0
  183.6790  179.1740  145.4320 O   0  0  0  0  0  0  0  0  0  0  0  0
  1  2  2  0  0  0  0
  1 23  1  0  0  0  0
  2  3  1  0  0  0  0
  3  4  1  0  0  0  0
  4 14  1  0  0  0  0
  6  9  1  0  0  0  0
  7 11  2  0  0  0  0
  8  6  2  0  0  0  0
  9  5  1  0  0  0  0
 10  6  1  0  0  0  0
 10 15  2  0  0  0  0
 11 10  1  0  0  0  0
 13  8  1  0  0  0  0
 14 13  2  0  0  0  0
 14 11  1  0  0  0  0
 15 12  1  0  0  0  0
 15  5  1  0  0  0  0
 16  2  1  0  0  0  0
 17 21  1  0  0  0  0
 18 17  2  0  0  0  0
 18 19  1  0  0  0  0
 19 22  2  0  0  0  0
 21 20  2  0  0  0  0
 22 20  1  0  0  0  0
 22 16  1  0  0  0  0
 24 26  1  0  0  0  0
 24 23  1  1  0  0  0
 24 25  1  0  0  0  0
 25 27  1  1  0  0  0
 26 25  1  0  0  0  0
 27 28  1  0  0  0  0
 28 29  1  0  0  0  0
 29 31  1  0  0  0  0
 31 30  1  0  0  0  0
M  END
>  <MODEL>
4

>  <REMARK>
 VINA RESULT:      -7.8      2.685      6.679
  Name = 
  11 active torsions:
  status: ('A' for Active; 'I' for Inactive)
    1  A    between atoms: C_1  and  C_9
    2  A    between atoms: C_1  and  O_10
    3  A    between atoms: C_9  and  C_30
    4  A    between atoms: O_10  and  O_13
    5  A    between atoms: C_17  and  N_21
    6  A    between atoms: C_17  and  C_25
    7  A    between atoms: C_20  and  N_24
    8  A    between atoms: N_21  and  C_22
    9  A    between atoms: C_22  and  N_23
   10  A    between atoms: N_23  and  C_28
   11  A    between atoms: N_24  and  C_29
                            x       y       z     vdW  Elec       q    Type
                         _______ _______ _______ _____ _____    ______ ____

>  <TORSDO>
F 11

$$$$
=
 OpenBabel11042410483D

 31 34  0  0  1  0  0  0  0  0999 V2000
  187.5150  178.2150  139.6940 C   0  0  0  0  0  3  0  0  0  0  0  0
  187.3770  178.6240  140.9630 C   0  0  0  0  0  0  0  0  0  0  0  0
  188.2840  178.1770  141.9710 N   0  0  0  0  0  2  0  0  0  0  0  0
  188.0780  176.9480  142.7200 C   0  0  0  0  0  2  0  0  0  0  0  0
  191.1350  177.0860  147.8090 O   0  0  0  0  0  0  0  0  0  0  0  0
  191.0740  176.7300  145.7240 C   0  0  0  0  0  0  0  0  0  0  0  0
  187.5380  177.5240  145.4870 N   0  0  0  0  0  2  0  0  0  0  0  0
  191.4010  176.4370  144.4450 N   0  0  0  0  0  0  0  0  0  0  0  0
  191.8860  176.7320  146.7940 N   0  0  0  0  0  2  0  0  0  0  0  0
  189.7540  177.1020  146.0980 C   0  0  0  0  0  0  0  0  0  0  0  0
  188.7390  177.1770  145.1550 C   0  0  0  0  0  0  0  0  0  0  0  0
  188.8470  177.7090  148.3410 N   0  0  0  0  0  1  0  0  0  0  0  0
  190.4200  176.5020  143.4920 C   0  0  0  0  0  3  0  0  0  0  0  0
  189.0850  176.8610  143.8180 C   0  0  0  0  0  0  0  0  0  0  0  0
  189.8810  177.3120  147.4490 C   0  0  0  0  0  0  0  0  0  0  0  0
  186.3020  179.5040  141.3420 N   0  0  0  0  0  2  0  0  0  0  0  0
  182.9210  178.6680  143.7670 C   0  0  0  0  0  3  0  0  0  0  0  0
  182.8480  178.5550  142.3760 C   0  0  0  0  0  3  0  0  0  0  0  0
  183.9710  178.8380  141.5910 C   0  0  0  0  0  3  0  0  0  0  0  0
  185.2390  179.3430  143.5860 C   0  0  0  0  0  3  0  0  0  0  0  0
  184.1170  179.0610  144.3730 C   0  0  0  0  0  3  0  0  0  0  0  0
  185.1720  179.2380  142.1880 C   0  0  0  0  0  0  0  0  0  0  0  0
  188.5420  177.3400  139.2010 N   0  0  0  0  0  2  0  0  0  0  0  0
  188.7270  176.9300  137.8110 C   0  0  1  0  0  3  0  0  0  0  0  0
  190.1480  176.6250  137.4650 C   0  0  2  0  0  3  0  0  0  0  0  0
  189.2190  175.6110  137.7730 O   0  0  0  0  0  0  0  0  0  0  0  0
  191.1410  176.7690  138.6150 C   0  0  0  0  0  2  0  0  0  0  0  0
  192.4450  176.0670  138.2790 C   0  0  0  0  0  2  0  0  0  0  0  0
  193.4700  177.0080  138.1320 O   0  0  0  0  0  0  0  0  0  0  0  0
  194.0320  175.2710  136.9950 C   0  0  0  0  0  1  0  0  0  0  0  0
  194.0830  176.6660  137.0170 O   0  0  0  0  0  0  0  0  0  0  0  0
  1  2  2  0  0  0  0
  2 16  1  0  0  0  0
  2  3  1  0  0  0  0
  3  4  1  0  0  0  0
  4 14  1  0  0  0  0
  6 10  1  0  0  0  0
  6  9  1  0  0  0  0
  8  6  2  0  0  0  0
  9  5  1  0  0  0  0
 10 15  2  0  0  0  0
 11  7  2  0  0  0  0
 11 10  1  0  0  0  0
 13 14  2  0  0  0  0
 13  8  1  0  0  0  0
 14 11  1  0  0  0  0
 15  5  1  0  0  0  0
 15 12  1  0  0  0  0
 16 22  1  0  0  0  0
 17 21  1  0  0  0  0
 18 17  2  0  0  0  0
 19 22  2  0  0  0  0
 19 18  1  0  0  0  0
 20 21  2  0  0  0  0
 22 20  1  0  0  0  0
 23  1  1  0  0  0  0
 24 23  1  1  0  0  0
 25 26  1  0  0  0  0
 25 24  1  0  0  0  0
 25 27  1  1  0  0  0
 26 24  1  0  0  0  0
 28 27  1  0  0  0  0
 29 28  1  0  0  0  0
 30 31  1  0  0  0  0
 31 29  1  0  0  0  0
M  END
>  <MODEL>
5

>  <REMARK>
 VINA RESULT:      -7.7      1.179      1.664
  Name = 
  11 active torsions:
  status: ('A' for Active; 'I' for Inactive)
    1  A    between atoms: C_1  and  C_9
    2  A    between atoms: C_1  and  O_10
    3  A    between atoms: C_9  and  C_30
    4  A    between atoms: O_10  and  O_13
    5  A    between atoms: C_17  and  N_21
    6  A    between atoms: C_17  and  C_25
    7  A    between atoms: C_20  and  N_24
    8  A    between atoms: N_21  and  C_22
    9  A    between atoms: C_22  and  N_23
   10  A    between atoms: N_23  and  C_28
   11  A    between atoms: N_24  and  C_29
                            x       y       z     vdW  Elec       q    Type
                         _______ _______ _______ _____ _____    ______ ____

>  <TORSDO>
F 11

$$$$
=
 OpenBabel11042410483D

 31 34  0  0  1  0  0  0  0  0999 V2000
  190.4740  177.1950  139.4580 C   0  0  0  0  0  3  0  0  0  0  0  0
  190.3130  177.4890  140.7570 C   0  0  0  0  0  0  0  0  0  0  0  0
  189.0200  177.8050  141.2730 N   0  0  0  0  0  2  0  0  0  0  0  0
  188.3600  176.9930  142.2820 C   0  0  0  0  0  2  0  0  0  0  0  0
  183.9470  179.3820  145.4570 O   0  0  0  0  0  0  0  0  0  0  0  0
  184.8690  179.0330  143.5840 C   0  0  0  0  0  0  0  0  0  0  0  0
  187.6200  177.1760  145.0570 N   0  0  0  0  0  1  0  0  0  0  0  0
  185.1560  178.9960  142.2640 N   0  0  0  0  0  0  0  0  0  0  0  0
  183.8080  179.6100  144.1730 N   0  0  0  0  0  2  0  0  0  0  0  0
  185.7040  178.4160  144.5550 C   0  0  0  0  0  0  0  0  0  0  0  0
  186.8600  177.7480  144.1800 C   0  0  0  0  0  0  0  0  0  0  0  0
  185.4450  178.2960  147.0330 N   0  0  0  0  0  1  0  0  0  0  0  0
  186.2910  178.3440  141.8630 C   0  0  0  0  0  3  0  0  0  0  0  0
  187.1610  177.7190  142.7960 C   0  0  0  0  0  0  0  0  0  0  0  0
  185.0410  178.6870  145.7260 C   0  0  1  0  0  3  0  0  0  0  0  0
  191.4400  177.5140  141.6520 N   0  0  0  0  0  2  0  0  0  0  0  0
  191.4960  176.9040  145.8510 C   0  0  0  0  0  3  0  0  0  0  0  0
  191.3190  178.1830  145.3180 C   0  0  0  0  0  3  0  0  0  0  0  0
  191.3070  178.3670  143.9320 C   0  0  0  0  0  3  0  0  0  0  0  0
  191.6450  175.9960  143.6120 C   0  0  0  0  0  3  0  0  0  0  0  0
  191.6580  175.8090  144.9990 C   0  0  0  0  0  3  0  0  0  0  0  0
  191.4740  177.2780  143.0690 C   0  0  0  0  0  0  0  0  0  0  0  0
  189.4280  177.1410  138.4740 N   0  0  0  0  0  2  0  0  0  0  0  0
  189.2960  178.0170  137.3130 C   0  0  1  0  0  3  0  0  0  0  0  0
  187.9070  178.5220  137.1040 C   0  0  2  0  0  3  0  0  0  0  0  0
  188.8980  179.2990  137.7360 O   0  0  0  0  0  0  0  0  0  0  0  0
  186.8850  178.0620  138.1400 C   0  0  0  0  0  2  0  0  0  0  0  0
  185.5950  177.6400  137.4610 C   0  0  0  0  0  2  0  0  0  0  0  0
  184.4970  178.0330  138.2340 O   0  0  0  0  0  0  0  0  0  0  0  0
  183.6440  179.8390  139.0310 C   0  0  0  0  0  1  0  0  0  0  0  0
  184.8490  179.1900  138.7550 O   0  0  0  0  0  0  0  0  0  0  0  0
  1  2  2  0  0  0  0
  2  3  1  0  0  0  0
  2 16  1  0  0  0  0
  3  4  1  0  0  0  0
  4 14  1  0  0  0  0
  5 15  1  0  0  0  0
  6  9  1  0  0  0  0
  6 10  1  0  0  0  0
  8  6  2  0  0  0  0
  9  5  1  0  0  0  0
 10 15  1  0  0  0  0
 11 10  2  0  0  0  0
 11  7  1  0  0  0  0
 13  8  1  0  0  0  0
 13 14  2  0  0  0  0
 14 11  1  0  0  0  0
 15 12  1  1  0  0  0
 16 22  1  0  0  0  0
 18 17  1  0  0  0  0
 19 18  2  0  0  0  0
 20 21  1  0  0  0  0
 21 17  2  0  0  0  0
 22 20  2  0  0  0  0
 22 19  1  0  0  0  0
 23  1  1  0  0  0  0
 24 26  1  0  0  0  0
 24 23  1  1  0  0  0
 25 24  1  0  0  0  0
 25 26  1  0  0  0  0
 25 27  1  1  0  0  0
 28 27  1  0  0  0  0
 28 29  1  0  0  0  0
 29 31  1  0  0  0  0
 31 30  1  0  0  0  0
M  END
>  <MODEL>
6

>  <REMARK>
 VINA RESULT:      -7.7      2.862      5.882
  Name = 
  11 active torsions:
  status: ('A' for Active; 'I' for Inactive)
    1  A    between atoms: C_1  and  C_9
    2  A    between atoms: C_1  and  O_10
    3  A    between atoms: C_9  and  C_30
    4  A    between atoms: O_10  and  O_13
    5  A    between atoms: C_17  and  N_21
    6  A    between atoms: C_17  and  C_25
    7  A    between atoms: C_20  and  N_24
    8  A    between atoms: N_21  and  C_22
    9  A    between atoms: C_22  and  N_23
   10  A    between atoms: N_23  and  C_28
   11  A    between atoms: N_24  and  C_29
                            x       y       z     vdW  Elec       q    Type
                         _______ _______ _______ _____ _____    ______ ____

>  <TORSDO>
F 11

$$$$
=
 OpenBabel11042410483D

 31 34  0  0  1  0  0  0  0  0999 V2000
  187.8000  178.3070  139.3230 C   0  0  0  0  0  3  0  0  0  0  0  0
  189.0460  177.9650  139.6840 C   0  0  0  0  0  0  0  0  0  0  0  0
  189.3880  177.8330  141.0650 N   0  0  0  0  0  2  0  0  0  0  0  0
  188.9260  176.7240  141.8830 C   0  0  0  0  0  2  0  0  0  0  0  0
  190.6790  177.1120  147.5430 O   0  0  0  0  0  0  0  0  0  0  0  0
  191.1460  176.7940  145.5040 C   0  0  0  0  0  0  0  0  0  0  0  0
  187.6950  177.1770  144.4440 N   0  0  0  0  0  2  0  0  0  0  0  0
  191.7940  176.5670  144.3390 N   0  0  0  0  0  0  0  0  0  0  0  0
  191.6810  176.8690  146.7340 N   0  0  0  0  0  2  0  0  0  0  0  0
  189.7410  177.0030  145.5580 C   0  0  0  0  0  0  0  0  0  0  0  0
  188.9720  176.9790  144.4030 C   0  0  0  0  0  0  0  0  0  0  0  0
  188.2730  177.4550  147.5220 N   0  0  0  0  0  1  0  0  0  0  0  0
  191.0610  176.5370  143.1830 C   0  0  0  0  0  3  0  0  0  0  0  0
  189.6540  176.7330  143.1860 C   0  0  0  0  0  0  0  0  0  0  0  0
  189.5260  177.1990  146.8990 C   0  0  0  0  0  0  0  0  0  0  0  0
  190.0670  177.7460  138.6940 N   0  0  0  0  0  2  0  0  0  0  0  0
  191.4880  174.0670  137.1290 C   0  0  0  0  0  3  0  0  0  0  0  0
  190.1250  174.3720  137.1090 C   0  0  0  0  0  3  0  0  0  0  0  0
  189.6730  175.5880  137.6330 C   0  0  0  0  0  3  0  0  0  0  0  0
  191.9450  176.1930  138.1920 C   0  0  0  0  0  3  0  0  0  0  0  0
  192.3990  174.9780  137.6700 C   0  0  0  0  0  3  0  0  0  0  0  0
  190.5770  176.5040  138.1810 C   0  0  0  0  0  0  0  0  0  0  0  0
  186.7030  178.5520  140.2190 N   0  0  0  0  0  2  0  0  0  0  0  0
  185.2890  178.5840  139.8560 C   0  0  1  0  0  3  0  0  0  0  0  0
  184.3740  178.6490  141.0350 C   0  0  2  0  0  3  0  0  0  0  0  0
  184.7210  179.7960  140.2940 O   0  0  0  0  0  0  0  0  0  0  0  0
  185.0680  178.6940  142.3940 C   0  0  0  0  0  2  0  0  0  0  0  0
  184.0440  178.8320  143.5070 C   0  0  0  0  0  2  0  0  0  0  0  0
  184.6140  179.4910  144.6010 O   0  0  0  0  0  0  0  0  0  0  0  0
  184.8890  178.4530  146.4650 C   0  0  0  0  0  1  0  0  0  0  0  0
  183.9360  179.0600  145.6440 O   0  0  0  0  0  0  0  0  0  0  0  0
  1  2  2  0  0  0  0
  1 23  1  0  0  0  0
  2  3  1  0  0  0  0
  3  4  1  0  0  0  0
  4 14  1  0  0  0  0
  6 10  1  0  0  0  0
  6  9  1  0  0  0  0
  8  6  2  0  0  0  0
  9  5  1  0  0  0  0
 10 15  2  0  0  0  0
 11  7  2  0  0  0  0
 11 10  1  0  0  0  0
 13 14  2  0  0  0  0
 13  8  1  0  0  0  0
 14 11  1  0  0  0  0
 15 12  1  0  0  0  0
 15  5  1  0  0  0  0
 16  2  1  0  0  0  0
 17 21  1  0  0  0  0
 18 17  2  0  0  0  0
 18 19  1  0  0  0  0
 19 22  2  0  0  0  0
 21 20  2  0  0  0  0
 22 20  1  0  0  0  0
 22 16  1  0  0  0  0
 24 23  1  1  0  0  0
 24 26  1  0  0  0  0
 24 25  1  0  0  0  0
 25 27  1  1  0  0  0
 26 25  1  0  0  0  0
 27 28  1  0  0  0  0
 28 29  1  0  0  0  0
 29 31  1  0  0  0  0
 31 30  1  0  0  0  0
M  END
>  <MODEL>
7

>  <REMARK>
 VINA RESULT:      -7.7      2.690      6.520
  Name = 
  11 active torsions:
  status: ('A' for Active; 'I' for Inactive)
    1  A    between atoms: C_1  and  C_9
    2  A    between atoms: C_1  and  O_10
    3  A    between atoms: C_9  and  C_30
    4  A    between atoms: O_10  and  O_13
    5  A    between atoms: C_17  and  N_21
    6  A    between atoms: C_17  and  C_25
    7  A    between atoms: C_20  and  N_24
    8  A    between atoms: N_21  and  C_22
    9  A    between atoms: C_22  and  N_23
   10  A    between atoms: N_23  and  C_28
   11  A    between atoms: N_24  and  C_29
                            x       y       z     vdW  Elec       q    Type
                         _______ _______ _______ _____ _____    ______ ____

>  <TORSDO>
F 11

$$$$
=
 OpenBabel11042410483D

 31 34  0  0  1  0  0  0  0  0999 V2000
  187.3360  178.2030  139.9350 C   0  0  0  0  0  3  0  0  0  0  0  0
  187.1460  178.6260  141.1930 C   0  0  0  0  0  0  0  0  0  0  0  0
  188.0470  178.2390  142.2310 N   0  0  0  0  0  2  0  0  0  0  0  0
  187.9190  176.9810  142.9490 C   0  0  0  0  0  2  0  0  0  0  0  0
  191.3720  177.1340  147.7770 O   0  0  0  0  0  0  0  0  0  0  0  0
  191.1290  176.7100  145.7190 C   0  0  0  0  0  0  0  0  0  0  0  0
  187.6300  177.6790  145.7250 N   0  0  0  0  0  2  0  0  0  0  0  0
  191.3390  176.3560  144.4300 N   0  0  0  0  0  0  0  0  0  0  0  0
  192.0220  176.7070  146.7220 N   0  0  0  0  0  2  0  0  0  0  0  0
  189.8630  177.1630  146.1790 C   0  0  0  0  0  0  0  0  0  0  0  0
  188.7820  177.2580  145.3150 C   0  0  0  0  0  0  0  0  0  0  0  0
  189.1670  177.8940  148.4600 N   0  0  0  0  0  1  0  0  0  0  0  0
  190.2900  176.4400  143.5540 C   0  0  0  0  0  3  0  0  0  0  0  0
  189.0050  176.8800  143.9680 C   0  0  0  0  0  0  0  0  0  0  0  0
  190.1070  177.4130  147.5070 C   0  0  0  0  0  0  0  0  0  0  0  0
  186.0220  179.4600  141.5290 N   0  0  0  0  0  2  0  0  0  0  0  0
  182.8420  178.7020  144.2350 C   0  0  0  0  0  3  0  0  0  0  0  0
  184.1050  179.0720  144.7040 C   0  0  0  0  0  3  0  0  0  0  0  0
  185.1430  179.3150  143.7980 C   0  0  0  0  0  3  0  0  0  0  0  0
  183.6560  178.8210  141.9580 C   0  0  0  0  0  3  0  0  0  0  0  0
  182.6160  178.5770  142.8620 C   0  0  0  0  0  3  0  0  0  0  0  0
  184.9290  179.1870  142.4210 C   0  0  0  0  0  0  0  0  0  0  0  0
  188.4160  177.3700  139.4830 N   0  0  0  0  0  2  0  0  0  0  0  0
  189.6770  177.8340  138.9100 C   0  0  1  0  0  3  0  0  0  0  0  0
  190.0190  177.1750  137.6140 C   0  0  2  0  0  3  0  0  0  0  0  0
  189.4280  178.4530  137.6700 O   0  0  0  0  0  0  0  0  0  0  0  0
  188.9940  176.1630  137.1090 C   0  0  0  0  0  2  0  0  0  0  0  0
  188.4120  176.6160  135.7830 C   0  0  0  0  0  2  0  0  0  0  0  0
  187.0200  176.4720  135.7980 O   0  0  0  0  0  0  0  0  0  0  0  0
  185.3160  177.0630  136.9690 C   0  0  0  0  0  1  0  0  0  0  0  0
  186.5880  177.4620  136.5510 O   0  0  0  0  0  0  0  0  0  0  0  0
  1  2  2  0  0  0  0
  2 16  1  0  0  0  0
  2  3  1  0  0  0  0
  3  4  1  0  0  0  0
  4 14  1  0  0  0  0
  6 10  1  0  0  0  0
  6  9  1  0  0  0  0
  8  6  2  0  0  0  0
  9  5  1  0  0  0  0
 10 15  2  0  0  0  0
 11  7  2  0  0  0  0
 11 10  1  0  0  0  0
 13 14  2  0  0  0  0
 13  8  1  0  0  0  0
 14 11  1  0  0  0  0
 15  5  1  0  0  0  0
 15 12  1  0  0  0  0
 16 22  1  0  0  0  0
 17 18  1  0  0  0  0
 19 18  2  0  0  0  0
 20 22  2  0  0  0  0
 20 21  1  0  0  0  0
 21 17  2  0  0  0  0
 22 19  1  0  0  0  0
 23  1  1  0  0  0  0
 24 23  1  6  0  0  0
 25 27  1  6  0  0  0
 25 26  1  0  0  0  0
 25 24  1  0  0  0  0
 26 24  1  0  0  0  0
 28 29  1  0  0  0  0
 28 27  1  0  0  0  0
 29 31  1  0  0  0  0
 31 30  1  0  0  0  0
M  END
>  <MODEL>
8

>  <REMARK>
 VINA RESULT:      -7.6      1.392      2.042
  Name = 
  11 active torsions:
  status: ('A' for Active; 'I' for Inactive)
    1  A    between atoms: C_1  and  C_9
    2  A    between atoms: C_1  and  O_10
    3  A    between atoms: C_9  and  C_30
    4  A    between atoms: O_10  and  O_13
    5  A    between atoms: C_17  and  N_21
    6  A    between atoms: C_17  and  C_25
    7  A    between atoms: C_20  and  N_24
    8  A    between atoms: N_21  and  C_22
    9  A    between atoms: C_22  and  N_23
   10  A    between atoms: N_23  and  C_28
   11  A    between atoms: N_24  and  C_29
                            x       y       z     vdW  Elec       q    Type
                         _______ _______ _______ _____ _____    ______ ____

>  <TORSDO>
F 11

$$$$
=
 OpenBabel11042410483D

 31 34  0  0  1  0  0  0  0  0999 V2000
  191.1870  177.1370  141.3960 C   0  0  0  0  0  3  0  0  0  0  0  0
  189.9060  176.9020  141.0730 C   0  0  0  0  0  0  0  0  0  0  0  0
  188.8660  177.1360  142.0240 N   0  0  0  0  0  2  0  0  0  0  0  0
  187.6650  177.8880  141.7000 C   0  0  0  0  0  2  0  0  0  0  0  0
  183.4940  179.0020  145.7770 O   0  0  0  0  0  0  0  0  0  0  0  0
  185.4670  178.4060  145.2980 C   0  0  0  0  0  0  0  0  0  0  0  0
  184.9040  178.6990  141.7230 N   0  0  0  0  0  2  0  0  0  0  0  0
  186.7600  178.0150  145.3660 N   0  0  0  0  0  0  0  0  0  0  0  0
  184.6290  178.6360  146.3220 N   0  0  0  0  0  2  0  0  0  0  0  0
  184.8150  178.6430  144.0570 C   0  0  0  0  0  0  0  0  0  0  0  0
  185.4880  178.4770  142.8550 C   0  0  0  0  0  0  0  0  0  0  0  0
  182.4750  179.3770  143.6020 N   0  0  0  0  0  1  0  0  0  0  0  0
  187.4490  177.8420  144.1960 C   0  0  0  0  0  3  0  0  0  0  0  0
  186.8400  178.0590  142.9320 C   0  0  0  0  0  0  0  0  0  0  0  0
  183.5570  179.0200  144.4540 C   0  0  0  0  0  0  0  0  0  0  0  0
  189.5540  176.3900  139.7750 N   0  0  0  0  0  2  0  0  0  0  0  0
  187.8990  178.4910  136.4810 C   0  0  0  0  0  3  0  0  0  0  0  0
  188.8950  179.0720  137.2700 C   0  0  0  0  0  3  0  0  0  0  0  0
  189.4270  178.3670  138.3550 C   0  0  0  0  0  3  0  0  0  0  0  0
  187.9720  176.5020  137.8580 C   0  0  0  0  0  3  0  0  0  0  0  0
  187.4380  177.2050  136.7740 C   0  0  0  0  0  3  0  0  0  0  0  0
  188.9680  177.0810  138.6600 C   0  0  0  0  0  0  0  0  0  0  0  0
  191.6560  177.6440  142.6560 N   0  0  0  0  0  2  0  0  0  0  0  0
  191.2130  178.8750  143.3050 C   0  0  1  0  0  3  0  0  0  0  0  0
  190.7430  178.6710  144.7080 C   0  0  2  0  0  3  0  0  0  0  0  0
  192.0380  179.1420  144.4150 O   0  0  0  0  0  0  0  0  0  0  0  0
  190.8290  177.2360  145.2200 C   0  0  0  0  0  2  0  0  0  0  0  0
  190.2020  177.1270  146.5990 C   0  0  0  0  0  2  0  0  0  0  0  0
  190.8590  176.1440  147.3460 O   0  0  0  0  0  0  0  0  0  0  0  0
  192.8070  175.6300  148.0970 C   0  0  0  0  0  1  0  0  0  0  0  0
  192.0000  176.6980  147.7020 O   0  0  0  0  0  0  0  0  0  0  0  0
  1 23  1  0  0  0  0
  2  1  2  0  0  0  0
  2  3  1  0  0  0  0
  4  3  1  0  0  0  0
  4 14  1  0  0  0  0
  5  9  1  0  0  0  0
  6  8  2  0  0  0  0
  6  9  1  0  0  0  0
  7 11  2  0  0  0  0
 10 15  2  0  0  0  0
 10  6  1  0  0  0  0
 11 14  1  0  0  0  0
 11 10  1  0  0  0  0
 12 15  1  0  0  0  0
 13  8  1  0  0  0  0
 14 13  2  0  0  0  0
 15  5  1  0  0  0  0
 16  2  1  0  0  0  0
 17 21  2  0  0  0  0
 17 18  1  0  0  0  0
 18 19  2  0  0  0  0
 19 22  1  0  0  0  0
 20 22  2  0  0  0  0
 21 20  1  0  0  0  0
 22 16  1  0  0  0  0
 24 23  1  6  0  0  0
 24 26  1  0  0  0  0
 24 25  1  0  0  0  0
 25 27  1  6  0  0  0
 26 25  1  0  0  0  0
 27 28  1  0  0  0  0
 28 29  1  0  0  0  0
 29 31  1  0  0  0  0
 31 30  1  0  0  0  0
M  END
>  <MODEL>
9

>  <REMARK>
 VINA RESULT:      -7.5      3.130      6.765
  Name = 
  11 active torsions:
  status: ('A' for Active; 'I' for Inactive)
    1  A    between atoms: C_1  and  C_9
    2  A    between atoms: C_1  and  O_10
    3  A    between atoms: C_9  and  C_30
    4  A    between atoms: O_10  and  O_13
    5  A    between atoms: C_17  and  N_21
    6  A    between atoms: C_17  and  C_25
    7  A    between atoms: C_20  and  N_24
    8  A    between atoms: N_21  and  C_22
    9  A    between atoms: C_22  and  N_23
   10  A    between atoms: N_23  and  C_28
   11  A    between atoms: N_24  and  C_29
                            x       y       z     vdW  Elec       q    Type
                         _______ _______ _______ _____ _____    ______ ____

>  <TORSDO>
F 11

$$$$
