=
 OpenBabel11042410403D

 44 47  0  0  1  0  0  0  0  0999 V2000
  186.5820  178.4470  142.7460 C   0  0  2  0  0  3  0  0  0  0  0  0
  184.3300  178.9150  141.7620 C   0  0  0  0  0  3  0  0  0  0  0  0
  182.3490  178.8320  143.2800 C   0  0  2  0  0  3  0  0  0  0  0  0
  183.2160  179.5630  144.3070 C   0  0  0  0  0  2  0  0  0  0  0  0
  185.2620  179.2030  142.9150 C   0  0  1  0  0  3  0  0  0  0  0  0
  184.6150  178.9610  144.2870 C   0  0  0  0  0  2  0  0  0  0  0  0
  183.0020  178.7940  141.9210 C   0  0  0  0  0  3  0  0  0  0  0  0
  180.6290  179.9100  142.0640 N   0  0  0  0  0  0  0  0  0  0  0  0
  181.0410  179.4590  143.1780 N   0  0  0  0  0  0  0  0  0  0  0  0
  179.3710  180.5140  141.9750 N   0  0  0  0  0  2  0  0  0  0  0  0
  179.0680  181.4200  140.8800 C   0  0  0  0  0  2  0  0  0  0  0  0
  180.0800  181.2550  139.7520 C   0  0  0  0  0  2  0  0  0  0  0  0
  179.6460  182.0090  138.5010 C   0  0  1  0  0  3  0  0  0  0  0  0
  179.4560  184.1720  137.9190 C   0  0  0  0  0  2  0  0  0  0  0  0
  180.8320  183.7870  137.4450 C   0  0  2  0  0  3  0  0  0  0  0  0
  181.0910  184.3240  136.0400 C   0  0  0  0  0  1  0  0  0  0  0  0
  179.0510  183.2280  138.8760 O   0  0  0  0  0  0  0  0  0  0  0  0
  180.8370  182.2780  137.5920 C   0  0  2  0  0  3  0  0  0  0  0  0
  180.6390  181.5020  136.2910 C   0  0  0  0  0  2  0  0  0  0  0  0
  179.2870  180.9750  136.2340 N   0  0  0  0  0  1  0  0  0  0  0  0
  189.3040  178.5380  141.8610 O   0  0  0  0  0  0  0  0  0  0  0  0
  187.0220  178.4780  141.3560 N   0  0  0  0  0  2  0  0  0  0  0  0
  188.4000  178.5150  140.9830 C   0  0  0  0  0  0  0  0  0  0  0  0
  188.7690  178.4990  139.5430 C   0  0  0  0  0  2  0  0  0  0  0  0
  188.1600  177.2820  138.8710 C   0  0  0  0  0  2  0  0  0  0  0  0
  187.4800  177.6860  137.5740 C   0  0  2  0  0  3  0  0  0  0  0  0
  186.0680  177.9370  137.8220 C   0  0  0  0  0  0  0  0  0  0  0  0
  185.5990  178.9630  138.3820 O   0  0  0  0  0  0  0  0  0  0  0  0
  187.3470  176.4730  136.6440 C   0  0  0  0  0  2  0  0  0  0  0  0
  185.2820  176.9030  137.2830 N   0  0  0  0  0  0  0  0  0  0  0  0
  186.0540  175.8980  136.7900 O   0  0  0  0  0  0  0  0  0  0  0  0
  183.9700  177.1840  136.7180 C   0  0  0  0  0  2  0  0  0  0  0  0
  182.6730  176.7410  137.9100 S   0  0  0  0  0  1  0  0  0  0  0  0
  186.4560  177.0030  143.2270 C   0  0  0  0  0  2  0  0  0  0  0  0
  187.7130  176.5630  143.9580 C   0  0  0  0  0  2  0  0  0  0  0  0
  188.1270  177.6170  144.9730 C   0  0  0  0  0  2  0  0  0  0  0  0
  190.5080  176.8980  144.8630 C   0  0  0  0  0  3  0  0  0  0  0  0
  189.3940  177.2050  145.6530 C   0  0  0  0  0  0  0  0  0  0  0  0
  190.7170  176.7890  147.6460 C   0  0  0  0  0  3  0  0  0  0  0  0
  189.4960  177.1530  147.0600 C   0  0  0  0  0  0  0  0  0  0  0  0
  191.7180  176.5340  145.4600 C   0  0  0  0  0  3  0  0  0  0  0  0
  191.8230  176.4780  146.8510 C   0  0  0  0  0  3  0  0  0  0  0  0
  188.4750  178.1270  148.9820 O   0  0  0  0  0  0  0  0  0  0  0  0
  188.3410  177.4760  147.9120 C   0  0  0  0  0  3  0  0  0  0  0  0
  1 34  1  6  0  0  0
  2  7  2  0  0  0  0
  2  5  1  0  0  0  0
  3  9  1  6  0  0  0
  3  4  1  0  0  0  0
  5  1  1  6  0  0  0
  5  6  1  0  0  0  0
  6  4  1  0  0  0  0
  7  3  1  0  0  0  0
  8  9  2  0  0  0  0
 10  8  1  0  0  0  0
 11 10  1  0  0  0  0
 12 11  1  0  0  0  0
 13 17  1  0  0  0  0
 13 12  1  1  0  0  0
 14 17  1  0  0  0  0
 15 16  1  6  0  0  0
 15 18  1  0  0  0  0
 15 14  1  0  0  0  0
 18 19  1  6  0  0  0
 18 13  1  0  0  0  0
 20 19  1  0  0  0  0
 22  1  1  0  0  0  0
 23 22  1  0  0  0  0
 23 21  2  0  0  0  0
 24 23  1  0  0  0  0
 25 24  1  0  0  0  0
 26 27  1  0  0  0  0
 26 25  1  1  0  0  0
 27 28  2  0  0  0  0
 29 31  1  0  0  0  0
 29 26  1  0  0  0  0
 30 27  1  0  0  0  0
 31 30  1  0  0  0  0
 32 30  1  0  0  0  0
 32 33  1  0  0  0  0
 34 35  1  0  0  0  0
 35 36  1  0  0  0  0
 36 38  1  0  0  0  0
 37 41  2  0  0  0  0
 37 38  1  0  0  0  0
 38 40  2  0  0  0  0
 40 39  1  0  0  0  0
 40 44  1  0  0  0  0
 41 42  1  0  0  0  0
 42 39  2  0  0  0  0
 44 43  2  0  0  0  0
M  END
>  <MODEL>
1

>  <REMARK>
 VINA RESULT:      -8.0      0.000      0.000
  Name = 
  17 active torsions:
  status: ('A' for Active; 'I' for Inactive)
    1  A    between atoms: C_1  and  C_20
    2  A    between atoms: C_2  and  C_11
    3  A    between atoms: C_3  and  C_20
    4  A    between atoms: C_3  and  N_24
    5  A    between atoms: N_7  and  N_24
    6  A    between atoms: C_9  and  N_29
    7  A    between atoms: C_10  and  N_15
    8  A    between atoms: C_10  and  C_37
    9  A    between atoms: C_10  and  C_39
   10  A    between atoms: C_11  and  C_31
   11  A    between atoms: C_18  and  N_34
   12  A    between atoms: C_19  and  C_36
   13  A    between atoms: C_23  and  C_33
   14  A    between atoms: C_30  and  C_35
   15  A    between atoms: C_31  and  C_44
   16  A    between atoms: C_32  and  C_33
   17  A    between atoms: C_32  and  C_37
                            x       y       z     vdW  Elec       q    Type
                         _______ _______ _______ _____ _____    ______ ____

>  <TORSDO>
F 17

$$$$
=
 OpenBabel11042410403D

 44 47  0  0  1  0  0  0  0  0999 V2000
  182.6710  178.8430  142.2430 C   0  0  2  0  0  3  0  0  0  0  0  0
  182.8710  177.1740  140.3910 C   0  0  0  0  0  3  0  0  0  0  0  0
  183.9670  177.9050  138.2690 C   0  0  2  0  0  3  0  0  0  0  0  0
  184.9930  178.6210  139.1500 C   0  0  0  0  0  2  0  0  0  0  0  0
  183.5950  178.2340  141.1870 C   0  0  1  0  0  3  0  0  0  0  0  0
  184.2640  179.2980  140.3040 C   0  0  0  0  0  2  0  0  0  0  0  0
  183.0760  176.9940  139.0760 C   0  0  0  0  0  3  0  0  0  0  0  0
  184.7940  175.8880  137.3510 N   0  0  0  0  0  0  0  0  0  0  0  0
  184.6330  177.1420  137.2270 N   0  0  0  0  0  0  0  0  0  0  0  0
  185.4390  175.1610  136.3440 N   0  0  0  0  0  2  0  0  0  0  0  0
  186.0760  175.8510  135.2350 C   0  0  0  0  0  2  0  0  0  0  0  0
  187.5680  175.5420  135.1980 C   0  0  0  0  0  2  0  0  0  0  0  0
  188.3900  176.7080  135.7350 C   0  0  1  0  0  3  0  0  0  0  0  0
  187.9290  178.6670  136.7370 C   0  0  0  0  0  2  0  0  0  0  0  0
  188.1670  177.7200  137.8820 C   0  0  2  0  0  3  0  0  0  0  0  0
  189.0470  178.3670  138.9470 C   0  0  0  0  0  1  0  0  0  0  0  0
  187.6550  177.9000  135.5940 O   0  0  0  0  0  0  0  0  0  0  0  0
  188.7410  176.4930  137.2000 C   0  0  2  0  0  3  0  0  0  0  0  0
  190.2560  176.3380  137.3190 C   0  0  0  0  0  2  0  0  0  0  0  0
  190.5690  175.2590  138.2400 N   0  0  0  0  0  1  0  0  0  0  0  0
  184.7590  180.0190  143.8120 O   0  0  0  0  0  0  0  0  0  0  0  0
  183.0670  178.4220  143.5820 N   0  0  0  0  0  2  0  0  0  0  0  0
  184.1150  179.0590  144.3140 C   0  0  0  0  0  0  0  0  0  0  0  0
  184.4280  178.6000  145.6930 C   0  0  0  0  0  2  0  0  0  0  0  0
  185.8910  178.8610  146.0010 C   0  0  0  0  0  2  0  0  0  0  0  0
  186.6800  177.5640  145.9330 C   0  0  2  0  0  3  0  0  0  0  0  0
  187.7680  177.6060  146.8970 C   0  0  0  0  0  0  0  0  0  0  0  0
  187.6430  177.4580  148.1420 O   0  0  0  0  0  0  0  0  0  0  0  0
  187.5070  177.5150  144.6420 C   0  0  0  0  0  2  0  0  0  0  0  0
  189.0030  177.7620  146.2420 N   0  0  0  0  0  0  0  0  0  0  0  0
  188.8330  177.9550  144.9060 O   0  0  0  0  0  0  0  0  0  0  0  0
  190.2050  177.1270  146.7590 C   0  0  0  0  0  2  0  0  0  0  0  0
  191.3830  176.8330  145.4080 S   0  0  0  0  0  1  0  0  0  0  0  0
  181.2130  178.4700  141.9820 C   0  0  0  0  0  2  0  0  0  0  0  0
  180.3410  179.7120  141.9090 C   0  0  0  0  0  2  0  0  0  0  0  0
  179.2980  179.5590  140.8140 C   0  0  0  0  0  2  0  0  0  0  0  0
  180.7710  180.7330  139.1850 C   0  0  0  0  0  3  0  0  0  0  0  0
  179.9500  179.6350  139.4700 C   0  0  0  0  0  0  0  0  0  0  0  0
  180.4410  178.7230  137.2730 C   0  0  0  0  0  3  0  0  0  0  0  0
  179.7830  178.6160  138.5080 C   0  0  0  0  0  0  0  0  0  0  0  0
  181.4180  180.8290  137.9510 C   0  0  0  0  0  3  0  0  0  0  0  0
  181.2530  179.8250  136.9940 C   0  0  0  0  0  3  0  0  0  0  0  0
  179.3940  176.4100  139.3250 O   0  0  0  0  0  0  0  0  0  0  0  0
  178.9310  177.4500  138.7850 C   0  0  0  0  0  3  0  0  0  0  0  0
  1 34  1  6  0  0  0
  1 22  1  0  0  0  0
  2  5  1  0  0  0  0
  3  9  1  6  0  0  0
  3  7  1  0  0  0  0
  3  4  1  0  0  0  0
  4  6  1  0  0  0  0
  5  1  1  1  0  0  0
  6  5  1  0  0  0  0
  7  2  2  0  0  0  0
  9  8  2  0  0  0  0
 10  8  1  0  0  0  0
 11 10  1  0  0  0  0
 12 11  1  0  0  0  0
 13 12  1  1  0  0  0
 13 18  1  0  0  0  0
 14 15  1  0  0  0  0
 15 16  1  1  0  0  0
 17 13  1  0  0  0  0
 17 14  1  0  0  0  0
 18 19  1  6  0  0  0
 18 15  1  0  0  0  0
 19 20  1  0  0  0  0
 21 23  2  0  0  0  0
 22 23  1  0  0  0  0
 23 24  1  0  0  0  0
 24 25  1  0  0  0  0
 26 25  1  6  0  0  0
 26 27  1  0  0  0  0
 27 28  2  0  0  0  0
 29 31  1  0  0  0  0
 29 26  1  0  0  0  0
 30 32  1  0  0  0  0
 30 27  1  0  0  0  0
 31 30  1  0  0  0  0
 33 32  1  0  0  0  0
 35 34  1  0  0  0  0
 36 35  1  0  0  0  0
 37 38  1  0  0  0  0
 38 36  1  0  0  0  0
 39 40  1  0  0  0  0
 40 44  1  0  0  0  0
 40 38  2  0  0  0  0
 41 37  2  0  0  0  0
 42 39  2  0  0  0  0
 42 41  1  0  0  0  0
 44 43  2  0  0  0  0
M  END
>  <MODEL>
2

>  <REMARK>
 VINA RESULT:      -7.5      3.079      9.561
  Name = 
  17 active torsions:
  status: ('A' for Active; 'I' for Inactive)
    1  A    between atoms: C_1  and  C_20
    2  A    between atoms: C_2  and  C_11
    3  A    between atoms: C_3  and  C_20
    4  A    between atoms: C_3  and  N_24
    5  A    between atoms: N_7  and  N_24
    6  A    between atoms: C_9  and  N_29
    7  A    between atoms: C_10  and  N_15
    8  A    between atoms: C_10  and  C_37
    9  A    between atoms: C_10  and  C_39
   10  A    between atoms: C_11  and  C_31
   11  A    between atoms: C_18  and  N_34
   12  A    between atoms: C_19  and  C_36
   13  A    between atoms: C_23  and  C_33
   14  A    between atoms: C_30  and  C_35
   15  A    between atoms: C_31  and  C_44
   16  A    between atoms: C_32  and  C_33
   17  A    between atoms: C_32  and  C_37
                            x       y       z     vdW  Elec       q    Type
                         _______ _______ _______ _____ _____    ______ ____

>  <TORSDO>
F 17

$$$$
=
 OpenBabel11042410403D

 44 47  0  0  1  0  0  0  0  0999 V2000
  183.3660  178.4670  140.1340 C   0  0  2  0  0  3  0  0  0  0  0  0
  184.9090  178.3410  142.0990 C   0  0  0  0  0  3  0  0  0  0  0  0
  184.1610  179.3760  144.2450 C   0  0  2  0  0  3  0  0  0  0  0  0
  182.7850  178.7740  143.9520 C   0  0  0  0  0  2  0  0  0  0  0  0
  183.4850  178.1660  141.6300 C   0  0  1  0  0  3  0  0  0  0  0  0
  182.4730  178.9560  142.4730 C   0  0  0  0  0  2  0  0  0  0  0  0
  185.2150  178.8460  143.3050 C   0  0  0  0  0  3  0  0  0  0  0  0
  185.7790  179.0500  145.9380 N   0  0  0  0  0  0  0  0  0  0  0  0
  184.5520  179.1120  145.6200 N   0  0  0  0  0  0  0  0  0  0  0  0
  186.1470  178.7930  147.2640 N   0  0  0  0  0  2  0  0  0  0  0  0
  187.2020  177.8380  147.5610 C   0  0  0  0  0  2  0  0  0  0  0  0
  188.5070  178.2560  146.8920 C   0  0  0  0  0  2  0  0  0  0  0  0
  189.0750  177.1340  146.0320 C   0  0  1  0  0  3  0  0  0  0  0  0
  189.1320  176.6730  143.8320 C   0  0  0  0  0  2  0  0  0  0  0  0
  190.4270  177.3960  144.0860 C   0  0  2  0  0  3  0  0  0  0  0  0
  191.5870  176.6930  143.3870 C   0  0  0  0  0  1  0  0  0  0  0  0
  188.2620  176.9620  144.8960 O   0  0  0  0  0  0  0  0  0  0  0  0
  190.4990  177.4520  145.6000 C   0  0  2  0  0  3  0  0  0  0  0  0
  191.4400  176.4330  146.2400 C   0  0  0  0  0  2  0  0  0  0  0  0
  191.7800  176.8570  147.5860 N   0  0  0  0  0  1  0  0  0  0  0  0
  181.6270  178.3700  137.8610 O   0  0  0  0  0  0  0  0  0  0  0  0
  183.0080  177.2650  139.3910 N   0  0  0  0  0  2  0  0  0  0  0  0
  182.1390  177.2880  138.2580 C   0  0  0  0  0  0  0  0  0  0  0  0
  181.8580  176.0250  137.5260 C   0  0  0  0  0  2  0  0  0  0  0  0
  182.8100  174.9390  137.9930 C   0  0  0  0  0  2  0  0  0  0  0  0
  183.6440  174.4360  136.8260 C   0  0  2  0  0  3  0  0  0  0  0  0
  184.3960  173.2610  137.2370 C   0  0  0  0  0  0  0  0  0  0  0  0
  183.9160  172.1050  137.3850 O   0  0  0  0  0  0  0  0  0  0  0  0
  184.8160  175.3890  136.5640 C   0  0  0  0  0  2  0  0  0  0  0  0
  185.7600  173.5720  137.3790 N   0  0  0  0  0  0  0  0  0  0  0  0
  185.9830  174.9030  137.2150 O   0  0  0  0  0  0  0  0  0  0  0  0
  186.7840  172.5950  137.0420 C   0  0  0  0  0  2  0  0  0  0  0  0
  188.2890  173.4420  136.4790 S   0  0  0  0  0  1  0  0  0  0  0  0
  184.6640  179.0580  139.5870 C   0  0  0  0  0  2  0  0  0  0  0  0
  185.4190  178.0340  138.7580 C   0  0  0  0  0  2  0  0  0  0  0  0
  186.5270  178.7100  137.9660 C   0  0  0  0  0  2  0  0  0  0  0  0
  188.1190  178.0920  139.7780 C   0  0  0  0  0  3  0  0  0  0  0  0
  187.8600  178.1950  138.4060 C   0  0  0  0  0  0  0  0  0  0  0  0
  190.0620  177.2810  137.9430 C   0  0  0  0  0  3  0  0  0  0  0  0
  188.8390  177.7830  137.4760 C   0  0  0  0  0  0  0  0  0  0  0  0
  189.3420  177.5930  140.2310 C   0  0  0  0  0  3  0  0  0  0  0  0
  190.3140  177.1870  139.3140 C   0  0  0  0  0  3  0  0  0  0  0  0
  188.1950  176.8810  135.3640 O   0  0  0  0  0  0  0  0  0  0  0  0
  188.5890  177.8760  136.0290 C   0  0  0  0  0  3  0  0  0  0  0  0
  1 34  1  6  0  0  0
  2  7  2  0  0  0  0
  3  9  1  1  0  0  0
  4  3  1  0  0  0  0
  5  1  1  6  0  0  0
  5  2  1  0  0  0  0
  5  6  1  0  0  0  0
  6  4  1  0  0  0  0
  7  3  1  0  0  0  0
  8 10  1  0  0  0  0
  9  8  2  0  0  0  0
 10 11  1  0  0  0  0
 12 11  1  0  0  0  0
 13 12  1  1  0  0  0
 14 15  1  0  0  0  0
 14 17  1  0  0  0  0
 15 16  1  1  0  0  0
 15 18  1  0  0  0  0
 17 13  1  0  0  0  0
 18 13  1  0  0  0  0
 18 19  1  1  0  0  0
 19 20  1  0  0  0  0
 21 23  2  0  0  0  0
 22  1  1  0  0  0  0
 23 22  1  0  0  0  0
 24 25  1  0  0  0  0
 24 23  1  0  0  0  0
 26 27  1  0  0  0  0
 26 25  1  1  0  0  0
 27 30  1  0  0  0  0
 27 28  2  0  0  0  0
 29 26  1  0  0  0  0
 29 31  1  0  0  0  0
 31 30  1  0  0  0  0
 32 30  1  0  0  0  0
 33 32  1  0  0  0  0
 35 34  1  0  0  0  0
 36 38  1  0  0  0  0
 36 35  1  0  0  0  0
 37 41  1  0  0  0  0
 38 37  2  0  0  0  0
 39 42  1  0  0  0  0
 40 39  2  0  0  0  0
 40 38  1  0  0  0  0
 42 41  2  0  0  0  0
 43 44  2  0  0  0  0
 44 40  1  0  0  0  0
M  END
>  <MODEL>
3

>  <REMARK>
 VINA RESULT:      -7.5      3.578      8.678
  Name = 
  17 active torsions:
  status: ('A' for Active; 'I' for Inactive)
    1  A    between atoms: C_1  and  C_20
    2  A    between atoms: C_2  and  C_11
    3  A    between atoms: C_3  and  C_20
    4  A    between atoms: C_3  and  N_24
    5  A    between atoms: N_7  and  N_24
    6  A    between atoms: C_9  and  N_29
    7  A    between atoms: C_10  and  N_15
    8  A    between atoms: C_10  and  C_37
    9  A    between atoms: C_10  and  C_39
   10  A    between atoms: C_11  and  C_31
   11  A    between atoms: C_18  and  N_34
   12  A    between atoms: C_19  and  C_36
   13  A    between atoms: C_23  and  C_33
   14  A    between atoms: C_30  and  C_35
   15  A    between atoms: C_31  and  C_44
   16  A    between atoms: C_32  and  C_33
   17  A    between atoms: C_32  and  C_37
                            x       y       z     vdW  Elec       q    Type
                         _______ _______ _______ _____ _____    ______ ____

>  <TORSDO>
F 17

$$$$
=
 OpenBabel11042410403D

 44 47  0  0  1  0  0  0  0  0999 V2000
  183.4980  178.6480  143.1440 C   0  0  2  0  0  3  0  0  0  0  0  0
  183.5410  177.8560  140.7720 C   0  0  0  0  0  3  0  0  0  0  0  0
  185.2580  178.8310  139.2430 C   0  0  2  0  0  3  0  0  0  0  0  0
  186.2410  178.7030  140.4080 C   0  0  0  0  0  2  0  0  0  0  0  0
  184.3790  178.1670  141.9890 C   0  0  1  0  0  3  0  0  0  0  0  0
  185.5400  179.1270  141.6920 C   0  0  0  0  0  2  0  0  0  0  0  0
  183.9610  178.1140  139.5230 C   0  0  0  0  0  3  0  0  0  0  0  0
  185.5500  177.1550  137.6000 N   0  0  0  0  0  0  0  0  0  0  0  0
  185.8480  178.3160  138.0180 N   0  0  0  0  0  0  0  0  0  0  0  0
  186.1250  176.6660  136.4210 N   0  0  0  0  0  2  0  0  0  0  0  0
  187.0870  175.5770  136.4710 C   0  0  0  0  0  2  0  0  0  0  0  0
  188.4940  176.0930  136.1900 C   0  0  0  0  0  2  0  0  0  0  0  0
  189.4470  175.7550  137.3290 C   0  0  1  0  0  3  0  0  0  0  0  0
  191.4170  174.6850  137.5070 C   0  0  0  0  0  2  0  0  0  0  0  0
  191.8010  176.1330  137.3570 C   0  0  2  0  0  3  0  0  0  0  0  0
  192.8960  176.5090  138.3510 C   0  0  0  0  0  1  0  0  0  0  0  0
  190.0990  174.5400  137.0460 O   0  0  0  0  0  0  0  0  0  0  0  0
  190.4790  176.8580  137.5160 C   0  0  2  0  0  3  0  0  0  0  0  0
  190.2580  177.5040  138.8830 C   0  0  0  0  0  2  0  0  0  0  0  0
  189.3350  178.6180  138.7560 N   0  0  0  0  0  1  0  0  0  0  0  0
  180.9540  178.3560  144.4260 O   0  0  0  0  0  0  0  0  0  0  0  0
  182.2320  179.1710  142.6460 N   0  0  0  0  0  2  0  0  0  0  0  0
  180.9960  178.9960  143.3410 C   0  0  0  0  0  0  0  0  0  0  0  0
  179.7550  179.6000  142.7900 C   0  0  0  0  0  2  0  0  0  0  0  0
  179.1560  178.6770  141.7440 C   0  0  0  0  0  2  0  0  0  0  0  0
  178.9400  179.4310  140.4430 C   0  0  2  0  0  3  0  0  0  0  0  0
  180.0220  179.1280  139.5190 C   0  0  0  0  0  0  0  0  0  0  0  0
  180.1470  178.0550  138.8700 O   0  0  0  0  0  0  0  0  0  0  0  0
  179.2120  180.9270  140.6460 C   0  0  0  0  0  2  0  0  0  0  0  0
  180.8840  180.2320  139.3890 N   0  0  0  0  0  0  0  0  0  0  0  0
  180.5440  181.2290  140.2480 O   0  0  0  0  0  0  0  0  0  0  0  0
  181.5280  180.5270  138.1180 C   0  0  0  0  0  2  0  0  0  0  0  0
  180.2900  181.0730  136.9060 S   0  0  0  0  0  1  0  0  0  0  0  0
  184.2140  179.7070  143.9800 C   0  0  0  0  0  2  0  0  0  0  0  0
  184.6720  179.1310  145.3090 C   0  0  0  0  0  2  0  0  0  0  0  0
  185.3550  177.7900  145.0940 C   0  0  0  0  0  2  0  0  0  0  0  0
  186.7430  178.1650  147.1270 C   0  0  0  0  0  3  0  0  0  0  0  0
  186.6820  177.7730  145.7840 C   0  0  0  0  0  0  0  0  0  0  0  0
  189.0670  177.3190  145.8300 C   0  0  0  0  0  3  0  0  0  0  0  0
  187.8540  177.3430  145.1260 C   0  0  0  0  0  0  0  0  0  0  0  0
  187.9580  178.1400  147.8160 C   0  0  0  0  0  3  0  0  0  0  0  0
  189.1200  177.7170  147.1680 C   0  0  0  0  0  3  0  0  0  0  0  0
  188.8450  176.9550  142.9930 O   0  0  0  0  0  0  0  0  0  0  0  0
  187.8160  176.9210  143.7170 C   0  0  0  0  0  3  0  0  0  0  0  0
  1 34  1  6  0  0  0
  2  5  1  0  0  0  0
  3  9  1  6  0  0  0
  3  7  1  0  0  0  0
  3  4  1  0  0  0  0
  4  6  1  0  0  0  0
  5  1  1  1  0  0  0
  6  5  1  0  0  0  0
  7  2  2  0  0  0  0
  8  9  2  0  0  0  0
 10 11  1  0  0  0  0
 10  8  1  0  0  0  0
 12 11  1  0  0  0  0
 13 12  1  6  0  0  0
 13 18  1  0  0  0  0
 15 14  1  0  0  0  0
 15 18  1  0  0  0  0
 15 16  1  1  0  0  0
 17 13  1  0  0  0  0
 17 14  1  0  0  0  0
 18 19  1  1  0  0  0
 20 19  1  0  0  0  0
 22  1  1  0  0  0  0
 22 23  1  0  0  0  0
 23 21  2  0  0  0  0
 24 23  1  0  0  0  0
 25 24  1  0  0  0  0
 26 29  1  0  0  0  0
 26 25  1  1  0  0  0
 27 26  1  0  0  0  0
 28 27  2  0  0  0  0
 30 27  1  0  0  0  0
 30 31  1  0  0  0  0
 31 29  1  0  0  0  0
 32 30  1  0  0  0  0
 33 32  1  0  0  0  0
 34 35  1  0  0  0  0
 36 35  1  0  0  0  0
 36 38  1  0  0  0  0
 37 41  1  0  0  0  0
 38 37  2  0  0  0  0
 39 42  1  0  0  0  0
 40 38  1  0  0  0  0
 40 39  2  0  0  0  0
 42 41  2  0  0  0  0
 43 44  2  0  0  0  0
 44 40  1  0  0  0  0
M  END
>  <MODEL>
4

>  <REMARK>
 VINA RESULT:      -7.4      2.648      7.875
  Name = 
  17 active torsions:
  status: ('A' for Active; 'I' for Inactive)
    1  A    between atoms: C_1  and  C_20
    2  A    between atoms: C_2  and  C_11
    3  A    between atoms: C_3  and  C_20
    4  A    between atoms: C_3  and  N_24
    5  A    between atoms: N_7  and  N_24
    6  A    between atoms: C_9  and  N_29
    7  A    between atoms: C_10  and  N_15
    8  A    between atoms: C_10  and  C_37
    9  A    between atoms: C_10  and  C_39
   10  A    between atoms: C_11  and  C_31
   11  A    between atoms: C_18  and  N_34
   12  A    between atoms: C_19  and  C_36
   13  A    between atoms: C_23  and  C_33
   14  A    between atoms: C_30  and  C_35
   15  A    between atoms: C_31  and  C_44
   16  A    between atoms: C_32  and  C_33
   17  A    between atoms: C_32  and  C_37
                            x       y       z     vdW  Elec       q    Type
                         _______ _______ _______ _____ _____    ______ ____

>  <TORSDO>
F 17

$$$$
=
 OpenBabel11042410403D

 44 47  0  0  1  0  0  0  0  0999 V2000
  187.1870  178.6090  141.3080 C   0  0  2  0  0  3  0  0  0  0  0  0
  184.9400  179.0670  140.3080 C   0  0  0  0  0  3  0  0  0  0  0  0
  182.9280  178.1790  141.4900 C   0  0  2  0  0  3  0  0  0  0  0  0
  183.6060  178.6190  142.7890 C   0  0  0  0  0  2  0  0  0  0  0  0
  185.7510  179.0620  141.5820 C   0  0  1  0  0  3  0  0  0  0  0  0
  185.0860  178.2670  142.7150 C   0  0  0  0  0  2  0  0  0  0  0  0
  183.6460  178.7120  140.2750 C   0  0  0  0  0  3  0  0  0  0  0  0
  181.2190  179.7650  141.8860 N   0  0  0  0  0  0  0  0  0  0  0  0
  181.5400  178.6100  141.4680 N   0  0  0  0  0  0  0  0  0  0  0  0
  179.8800  180.1720  141.8630 N   0  0  0  0  0  2  0  0  0  0  0  0
  179.4560  181.2510  140.9860 C   0  0  0  0  0  2  0  0  0  0  0  0
  179.1320  180.7160  139.5960 C   0  0  0  0  0  2  0  0  0  0  0  0
  180.2890  180.9400  138.6310 C   0  0  1  0  0  3  0  0  0  0  0  0
  181.0700  179.9010  136.7960 C   0  0  0  0  0  2  0  0  0  0  0  0
  180.1550  180.9640  136.2510 C   0  0  2  0  0  3  0  0  0  0  0  0
  180.8010  181.6800  135.0680 C   0  0  0  0  0  1  0  0  0  0  0  0
  180.7370  179.6970  138.1450 O   0  0  0  0  0  0  0  0  0  0  0  0
  179.8600  181.8210  137.4660 C   0  0  2  0  0  3  0  0  0  0  0  0
  180.6400  183.1330  137.5370 C   0  0  0  0  0  2  0  0  0  0  0  0
  179.7230  184.2550  137.4370 N   0  0  0  0  0  1  0  0  0  0  0  0
  189.6940  178.2640  139.9690 O   0  0  0  0  0  0  0  0  0  0  0  0
  187.3570  178.2480  139.9060 N   0  0  0  0  0  2  0  0  0  0  0  0
  188.6410  178.0840  139.3010 C   0  0  0  0  0  0  0  0  0  0  0  0
  188.7300  177.6700  137.8760 C   0  0  0  0  0  2  0  0  0  0  0  0
  187.5880  178.2860  137.0900 C   0  0  0  0  0  2  0  0  0  0  0  0
  186.9800  177.2560  136.1530 C   0  0  2  0  0  3  0  0  0  0  0  0
  185.6570  176.8850  136.6300 C   0  0  0  0  0  0  0  0  0  0  0  0
  184.6190  177.5900  136.5190 O   0  0  0  0  0  0  0  0  0  0  0  0
  187.6840  175.9040  136.3250 C   0  0  0  0  0  2  0  0  0  0  0  0
  185.6750  175.5880  137.1750 N   0  0  0  0  0  0  0  0  0  0  0  0
  186.9380  175.0870  137.2190 O   0  0  0  0  0  0  0  0  0  0  0  0
  184.5260  174.7070  137.0340 C   0  0  0  0  0  2  0  0  0  0  0  0
  183.1850  175.2540  138.1310 S   0  0  0  0  0  1  0  0  0  0  0  0
  187.5740  177.4350  142.2060 C   0  0  0  0  0  2  0  0  0  0  0  0
  188.6410  177.8470  143.2060 C   0  0  0  0  0  2  0  0  0  0  0  0
  188.8320  176.7590  144.2500 C   0  0  0  0  0  2  0  0  0  0  0  0
  187.2220  177.8140  145.8290 C   0  0  0  0  0  3  0  0  0  0  0  0
  188.5000  177.2880  145.6090 C   0  0  0  0  0  0  0  0  0  0  0  0
  189.0550  177.7200  147.9330 C   0  0  0  0  0  3  0  0  0  0  0  0
  189.4280  177.2360  146.6710 C   0  0  0  0  0  0  0  0  0  0  0  0
  186.8630  178.2950  147.0900 C   0  0  0  0  0  3  0  0  0  0  0  0
  187.7800  178.2490  148.1430 C   0  0  0  0  0  3  0  0  0  0  0  0
  191.7720  177.1260  147.1000 O   0  0  0  0  0  0  0  0  0  0  0  0
  190.7770  176.6830  146.4670 C   0  0  0  0  0  3  0  0  0  0  0  0
  1 34  1  1  0  0  0
  2  5  1  0  0  0  0
  3  9  1  1  0  0  0
  3  4  1  0  0  0  0
  5  1  1  6  0  0  0
  5  6  1  0  0  0  0
  6  4  1  0  0  0  0
  7  2  2  0  0  0  0
  7  3  1  0  0  0  0
  9  8  2  0  0  0  0
 10  8  1  0  0  0  0
 11 10  1  0  0  0  0
 12 11  1  0  0  0  0
 13 12  1  1  0  0  0
 14 17  1  0  0  0  0
 15 16  1  6  0  0  0
 15 14  1  0  0  0  0
 15 18  1  0  0  0  0
 17 13  1  0  0  0  0
 18 19  1  6  0  0  0
 18 13  1  0  0  0  0
 20 19  1  0  0  0  0
 22  1  1  0  0  0  0
 23 22  1  0  0  0  0
 23 21  2  0  0  0  0
 24 23  1  0  0  0  0
 25 24  1  0  0  0  0
 26 29  1  0  0  0  0
 26 27  1  0  0  0  0
 26 25  1  1  0  0  0
 27 30  1  0  0  0  0
 28 27  2  0  0  0  0
 29 31  1  0  0  0  0
 30 31  1  0  0  0  0
 32 30  1  0  0  0  0
 32 33  1  0  0  0  0
 34 35  1  0  0  0  0
 35 36  1  0  0  0  0
 36 38  1  0  0  0  0
 37 41  1  0  0  0  0
 38 37  2  0  0  0  0
 38 40  1  0  0  0  0
 39 42  1  0  0  0  0
 40 39  2  0  0  0  0
 41 42  2  0  0  0  0
 44 40  1  0  0  0  0
 44 43  2  0  0  0  0
M  END
>  <MODEL>
5

>  <REMARK>
 VINA RESULT:      -7.4      1.610      2.349
  Name = 
  17 active torsions:
  status: ('A' for Active; 'I' for Inactive)
    1  A    between atoms: C_1  and  C_20
    2  A    between atoms: C_2  and  C_11
    3  A    between atoms: C_3  and  C_20
    4  A    between atoms: C_3  and  N_24
    5  A    between atoms: N_7  and  N_24
    6  A    between atoms: C_9  and  N_29
    7  A    between atoms: C_10  and  N_15
    8  A    between atoms: C_10  and  C_37
    9  A    between atoms: C_10  and  C_39
   10  A    between atoms: C_11  and  C_31
   11  A    between atoms: C_18  and  N_34
   12  A    between atoms: C_19  and  C_36
   13  A    between atoms: C_23  and  C_33
   14  A    between atoms: C_30  and  C_35
   15  A    between atoms: C_31  and  C_44
   16  A    between atoms: C_32  and  C_33
   17  A    between atoms: C_32  and  C_37
                            x       y       z     vdW  Elec       q    Type
                         _______ _______ _______ _____ _____    ______ ____

>  <TORSDO>
F 17

$$$$
=
 OpenBabel11042410403D

 44 47  0  0  1  0  0  0  0  0999 V2000
  186.2940  178.7870  142.0220 C   0  0  2  0  0  3  0  0  0  0  0  0
  184.7450  178.9940  140.0680 C   0  0  0  0  0  3  0  0  0  0  0  0
  182.4480  178.0390  140.2880 C   0  0  2  0  0  3  0  0  0  0  0  0
  182.4360  178.6250  141.7010 C   0  0  0  0  0  2  0  0  0  0  0  0
  184.8780  179.1460  141.5650 C   0  0  1  0  0  3  0  0  0  0  0  0
  183.7950  178.3860  142.3450 C   0  0  0  0  0  2  0  0  0  0  0  0
  183.6250  178.5370  139.4860 C   0  0  0  0  0  3  0  0  0  0  0  0
  180.4930  179.3330  139.9740 N   0  0  0  0  0  0  0  0  0  0  0  0
  181.2120  178.3570  139.5930 N   0  0  0  0  0  0  0  0  0  0  0  0
  179.3030  179.6310  139.3010 N   0  0  0  0  0  2  0  0  0  0  0  0
  179.1520  180.8970  138.6030 C   0  0  0  0  0  2  0  0  0  0  0  0
  180.3840  181.7710  138.8080 C   0  0  0  0  0  2  0  0  0  0  0  0
  180.7880  182.4740  137.5180 C   0  0  1  0  0  3  0  0  0  0  0  0
  180.3540  182.1840  135.3310 C   0  0  0  0  0  2  0  0  0  0  0  0
  179.3190  183.1810  135.7780 C   0  0  2  0  0  3  0  0  0  0  0  0
  179.1930  184.3200  134.7700 C   0  0  0  0  0  1  0  0  0  0  0  0
  180.8450  181.5320  136.4730 O   0  0  0  0  0  0  0  0  0  0  0  0
  179.7930  183.5700  137.1650 C   0  0  2  0  0  3  0  0  0  0  0  0
  180.5080  184.9190  137.2480 C   0  0  0  0  0  2  0  0  0  0  0  0
  181.9320  184.7090  137.4410 N   0  0  0  0  0  1  0  0  0  0  0  0
  189.1540  178.7790  141.8800 O   0  0  0  0  0  0  0  0  0  0  0  0
  187.0860  178.2860  140.9060 N   0  0  0  0  0  2  0  0  0  0  0  0
  188.5150  178.3040  140.9030 C   0  0  0  0  0  0  0  0  0  0  0  0
  189.2510  177.7310  139.7460 C   0  0  0  0  0  2  0  0  0  0  0  0
  189.0700  178.6210  138.5300 C   0  0  0  0  0  2  0  0  0  0  0  0
  189.3840  177.8460  137.2610 C   0  0  2  0  0  3  0  0  0  0  0  0
  188.2030  177.1120  136.8340 C   0  0  0  0  0  0  0  0  0  0  0  0
  187.1970  177.6170  136.2700 O   0  0  0  0  0  0  0  0  0  0  0  0
  190.3010  176.6590  137.5800 C   0  0  0  0  0  2  0  0  0  0  0  0
  188.3650  175.7360  137.0730 N   0  0  0  0  0  0  0  0  0  0  0  0
  189.5200  175.4820  137.7440 O   0  0  0  0  0  0  0  0  0  0  0  0
  187.7980  174.7520  136.1630 C   0  0  0  0  0  2  0  0  0  0  0  0
  186.2130  174.1470  136.8120 S   0  0  0  0  0  1  0  0  0  0  0  0
  186.2650  177.7610  143.1520 C   0  0  0  0  0  2  0  0  0  0  0  0
  186.7950  178.3610  144.4430 C   0  0  0  0  0  2  0  0  0  0  0  0
  187.0510  177.2660  145.4660 C   0  0  0  0  0  2  0  0  0  0  0  0
  189.3540  176.8810  144.6020 C   0  0  0  0  0  3  0  0  0  0  0  0
  188.5200  177.1170  145.7020 C   0  0  0  0  0  0  0  0  0  0  0  0
  190.4680  177.1210  147.1520 C   0  0  0  0  0  3  0  0  0  0  0  0
  189.0800  177.2420  146.9910 C   0  0  0  0  0  0  0  0  0  0  0  0
  190.7340  176.7600  144.7760 C   0  0  0  0  0  3  0  0  0  0  0  0
  191.2920  176.8800  146.0500 C   0  0  0  0  0  3  0  0  0  0  0  0
  187.9330  178.6670  148.5220 O   0  0  0  0  0  0  0  0  0  0  0  0
  188.2260  177.4950  148.1620 C   0  0  0  0  0  3  0  0  0  0  0  0
  1 34  1  1  0  0  0
  2  5  1  0  0  0  0
  3  9  1  6  0  0  0
  3  4  1  0  0  0  0
  4  6  1  0  0  0  0
  5  1  1  1  0  0  0
  5  6  1  0  0  0  0
  7  2  2  0  0  0  0
  7  3  1  0  0  0  0
  9  8  2  0  0  0  0
 10  8  1  0  0  0  0
 11 12  1  0  0  0  0
 11 10  1  0  0  0  0
 13 12  1  1  0  0  0
 14 15  1  0  0  0  0
 14 17  1  0  0  0  0
 15 16  1  6  0  0  0
 15 18  1  0  0  0  0
 17 13  1  0  0  0  0
 18 19  1  6  0  0  0
 18 13  1  0  0  0  0
 19 20  1  0  0  0  0
 22  1  1  0  0  0  0
 23 22  1  0  0  0  0
 23 21  2  0  0  0  0
 24 23  1  0  0  0  0
 25 24  1  0  0  0  0
 26 29  1  0  0  0  0
 26 25  1  1  0  0  0
 27 30  1  0  0  0  0
 27 26  1  0  0  0  0
 28 27  2  0  0  0  0
 29 31  1  0  0  0  0
 30 31  1  0  0  0  0
 32 33  1  0  0  0  0
 32 30  1  0  0  0  0
 34 35  1  0  0  0  0
 35 36  1  0  0  0  0
 36 38  1  0  0  0  0
 37 41  2  0  0  0  0
 37 38  1  0  0  0  0
 38 40  2  0  0  0  0
 40 39  1  0  0  0  0
 40 44  1  0  0  0  0
 41 42  1  0  0  0  0
 42 39  2  0  0  0  0
 44 43  2  0  0  0  0
M  END
>  <MODEL>
6

>  <REMARK>
 VINA RESULT:      -7.2      1.918      2.398
  Name = 
  17 active torsions:
  status: ('A' for Active; 'I' for Inactive)
    1  A    between atoms: C_1  and  C_20
    2  A    between atoms: C_2  and  C_11
    3  A    between atoms: C_3  and  C_20
    4  A    between atoms: C_3  and  N_24
    5  A    between atoms: N_7  and  N_24
    6  A    between atoms: C_9  and  N_29
    7  A    between atoms: C_10  and  N_15
    8  A    between atoms: C_10  and  C_37
    9  A    between atoms: C_10  and  C_39
   10  A    between atoms: C_11  and  C_31
   11  A    between atoms: C_18  and  N_34
   12  A    between atoms: C_19  and  C_36
   13  A    between atoms: C_23  and  C_33
   14  A    between atoms: C_30  and  C_35
   15  A    between atoms: C_31  and  C_44
   16  A    between atoms: C_32  and  C_33
   17  A    between atoms: C_32  and  C_37
                            x       y       z     vdW  Elec       q    Type
                         _______ _______ _______ _____ _____    ______ ____

>  <TORSDO>
F 17

$$$$
=
 OpenBabel11042410403D

 44 47  0  0  1  0  0  0  0  0999 V2000
  185.6320  179.0620  141.4880 C   0  0  2  0  0  3  0  0  0  0  0  0
  183.8100  177.5050  140.7710 C   0  0  0  0  0  3  0  0  0  0  0  0
  182.0250  178.4020  139.2730 C   0  0  2  0  0  3  0  0  0  0  0  0
  183.1430  179.1240  138.5190 C   0  0  0  0  0  2  0  0  0  0  0  0
  184.7910  178.5580  140.3130 C   0  0  1  0  0  3  0  0  0  0  0  0
  184.1260  179.7000  139.5300 C   0  0  0  0  0  2  0  0  0  0  0  0
  182.5700  177.4050  140.2640 C   0  0  0  0  0  3  0  0  0  0  0  0
  180.7130  176.5570  138.5870 N   0  0  0  0  0  0  0  0  0  0  0  0
  181.1330  177.7310  138.3420 N   0  0  0  0  0  0  0  0  0  0  0  0
  179.8570  175.9170  137.6840 N   0  0  0  0  0  2  0  0  0  0  0  0
  180.3980  175.0760  136.6290 C   0  0  0  0  0  2  0  0  0  0  0  0
  181.6490  174.3510  137.1110 C   0  0  0  0  0  2  0  0  0  0  0  0
  182.8780  174.7740  136.3160 C   0  0  1  0  0  3  0  0  0  0  0  0
  183.8160  176.7340  135.7360 C   0  0  0  0  0  2  0  0  0  0  0  0
  184.5300  176.3490  137.0040 C   0  0  2  0  0  3  0  0  0  0  0  0
  186.0330  176.5750  136.8690 C   0  0  0  0  0  1  0  0  0  0  0  0
  182.6190  176.0020  135.6770 O   0  0  0  0  0  0  0  0  0  0  0  0
  184.0890  174.9160  137.2250 C   0  0  2  0  0  3  0  0  0  0  0  0
  185.1180  173.8560  136.8320 C   0  0  0  0  0  2  0  0  0  0  0  0
  185.3980  172.9980  137.9700 N   0  0  0  0  0  1  0  0  0  0  0  0
  187.3790  178.7030  139.2480 O   0  0  0  0  0  0  0  0  0  0  0  0
  186.9270  178.3940  141.5210 N   0  0  0  0  0  2  0  0  0  0  0  0
  187.7550  178.2560  140.3650 C   0  0  0  0  0  0  0  0  0  0  0  0
  189.0840  177.6020  140.4910 C   0  0  0  0  0  2  0  0  0  0  0  0
  189.7780  177.5850  139.1410 C   0  0  0  0  0  2  0  0  0  0  0  0
  190.6110  176.3230  138.9960 C   0  0  2  0  0  3  0  0  0  0  0  0
  191.9820  176.6810  138.6680 C   0  0  0  0  0  0  0  0  0  0  0  0
  192.8290  177.1400  139.4800 O   0  0  0  0  0  0  0  0  0  0  0  0
  190.2400  175.5890  137.7010 C   0  0  0  0  0  2  0  0  0  0  0  0
  192.2640  176.3750  137.3250 N   0  0  0  0  0  0  0  0  0  0  0  0
  191.1520  175.9460  136.6710 O   0  0  0  0  0  0  0  0  0  0  0  0
  193.5870  175.9170  136.9280 C   0  0  0  0  0  2  0  0  0  0  0  0
  193.8990  174.2590  137.6000 S   0  0  0  0  0  1  0  0  0  0  0  0
  184.9010  178.8630  142.8140 C   0  0  0  0  0  2  0  0  0  0  0  0
  185.8560  179.0080  143.9860 C   0  0  0  0  0  2  0  0  0  0  0  0
  185.8720  177.7330  144.8140 C   0  0  0  0  0  2  0  0  0  0  0  0
  186.6550  178.1930  147.1320 C   0  0  0  0  0  3  0  0  0  0  0  0
  186.9690  177.7920  145.8280 C   0  0  0  0  0  0  0  0  0  0  0  0
  189.2790  177.4690  146.5060 C   0  0  0  0  0  3  0  0  0  0  0  0
  188.2940  177.4230  145.5090 C   0  0  0  0  0  0  0  0  0  0  0  0
  187.6460  178.2380  148.1160 C   0  0  0  0  0  3  0  0  0  0  0  0
  188.9580  177.8760  147.8030 C   0  0  0  0  0  3  0  0  0  0  0  0
  189.7110  176.3570  143.9150 O   0  0  0  0  0  0  0  0  0  0  0  0
  188.6490  176.9930  144.1480 C   0  0  0  0  0  3  0  0  0  0  0  0
  1 22  1  0  0  0  0
  1 34  1  1  0  0  0
  3  9  1  6  0  0  0
  3  7  1  0  0  0  0
  4  3  1  0  0  0  0
  4  6  1  0  0  0  0
  5  2  1  0  0  0  0
  5  1  1  1  0  0  0
  6  5  1  0  0  0  0
  7  2  2  0  0  0  0
  9  8  2  0  0  0  0
 10  8  1  0  0  0  0
 11 12  1  0  0  0  0
 11 10  1  0  0  0  0
 13 12  1  1  0  0  0
 13 18  1  0  0  0  0
 14 15  1  0  0  0  0
 15 16  1  6  0  0  0
 15 18  1  0  0  0  0
 17 14  1  0  0  0  0
 17 13  1  0  0  0  0
 18 19  1  6  0  0  0
 19 20  1  0  0  0  0
 21 23  2  0  0  0  0
 23 24  1  0  0  0  0
 23 22  1  0  0  0  0
 25 24  1  0  0  0  0
 26 25  1  6  0  0  0
 27 26  1  0  0  0  0
 27 28  2  0  0  0  0
 29 26  1  0  0  0  0
 30 27  1  0  0  0  0
 31 30  1  0  0  0  0
 31 29  1  0  0  0  0
 32 30  1  0  0  0  0
 32 33  1  0  0  0  0
 34 35  1  0  0  0  0
 35 36  1  0  0  0  0
 36 38  1  0  0  0  0
 37 41  1  0  0  0  0
 38 37  2  0  0  0  0
 39 42  1  0  0  0  0
 40 38  1  0  0  0  0
 40 39  2  0  0  0  0
 42 41  2  0  0  0  0
 43 44  2  0  0  0  0
 44 40  1  0  0  0  0
M  END
>  <MODEL>
7

>  <REMARK>
 VINA RESULT:      -7.1      3.765      5.832
  Name = 
  17 active torsions:
  status: ('A' for Active; 'I' for Inactive)
    1  A    between atoms: C_1  and  C_20
    2  A    between atoms: C_2  and  C_11
    3  A    between atoms: C_3  and  C_20
    4  A    between atoms: C_3  and  N_24
    5  A    between atoms: N_7  and  N_24
    6  A    between atoms: C_9  and  N_29
    7  A    between atoms: C_10  and  N_15
    8  A    between atoms: C_10  and  C_37
    9  A    between atoms: C_10  and  C_39
   10  A    between atoms: C_11  and  C_31
   11  A    between atoms: C_18  and  N_34
   12  A    between atoms: C_19  and  C_36
   13  A    between atoms: C_23  and  C_33
   14  A    between atoms: C_30  and  C_35
   15  A    between atoms: C_31  and  C_44
   16  A    between atoms: C_32  and  C_33
   17  A    between atoms: C_32  and  C_37
                            x       y       z     vdW  Elec       q    Type
                         _______ _______ _______ _____ _____    ______ ____

>  <TORSDO>
F 17

$$$$
=
 OpenBabel11042410403D

 44 47  0  0  1  0  0  0  0  0999 V2000
  185.0740  179.1070  141.1040 C   0  0  2  0  0  3  0  0  0  0  0  0
  183.4970  177.2990  140.3940 C   0  0  0  0  0  3  0  0  0  0  0  0
  181.7960  177.8470  138.6500 C   0  0  2  0  0  3  0  0  0  0  0  0
  182.9100  178.6080  137.9290 C   0  0  0  0  0  2  0  0  0  0  0  0
  184.4120  178.4030  139.9180 C   0  0  1  0  0  3  0  0  0  0  0  0
  183.7220  179.3830  138.9580 C   0  0  0  0  0  2  0  0  0  0  0  0
  182.3330  177.0160  139.7890 C   0  0  0  0  0  3  0  0  0  0  0  0
  180.5940  175.8840  138.1040 N   0  0  0  0  0  0  0  0  0  0  0  0
  181.0760  176.9940  137.7190 N   0  0  0  0  0  0  0  0  0  0  0  0
  179.9030  175.0690  137.2010 N   0  0  0  0  0  2  0  0  0  0  0  0
  180.6160  174.0720  136.4190 C   0  0  0  0  0  2  0  0  0  0  0  0
  181.7780  173.4940  137.2190 C   0  0  0  0  0  2  0  0  0  0  0  0
  183.1150  173.7970  136.5550 C   0  0  1  0  0  3  0  0  0  0  0  0
  184.1200  175.6370  135.7400 C   0  0  0  0  0  2  0  0  0  0  0  0
  184.6240  175.5430  137.1550 C   0  0  2  0  0  3  0  0  0  0  0  0
  186.1280  175.7960  137.2130 C   0  0  0  0  0  1  0  0  0  0  0  0
  182.9530  174.8610  135.6470 O   0  0  0  0  0  0  0  0  0  0  0  0
  184.1640  174.1660  137.5940 C   0  0  2  0  0  3  0  0  0  0  0  0
  185.2500  173.0910  137.5910 C   0  0  0  0  0  2  0  0  0  0  0  0
  185.1380  172.2840  136.3890 N   0  0  0  0  0  1  0  0  0  0  0  0
  187.0850  178.6280  139.1230 O   0  0  0  0  0  0  0  0  0  0  0  0
  186.4000  178.5580  141.3580 N   0  0  0  0  0  2  0  0  0  0  0  0
  187.3620  178.3520  140.3210 C   0  0  0  0  0  0  0  0  0  0  0  0
  188.7100  177.8300  140.6680 C   0  0  0  0  0  2  0  0  0  0  0  0
  189.0520  178.2030  142.0990 C   0  0  0  0  0  2  0  0  0  0  0  0
  190.4940  177.8330  142.4060 C   0  0  2  0  0  3  0  0  0  0  0  0
  190.5230  176.6320  143.2260 C   0  0  0  0  0  0  0  0  0  0  0  0
  190.3160  175.4610  142.8110 O   0  0  0  0  0  0  0  0  0  0  0  0
  191.0930  178.8240  143.4110 C   0  0  0  0  0  2  0  0  0  0  0  0
  190.8890  176.9470  144.5480 N   0  0  0  0  0  0  0  0  0  0  0  0
  190.9940  178.2910  144.7260 O   0  0  0  0  0  0  0  0  0  0  0  0
  191.6890  176.0230  145.3380 C   0  0  0  0  0  2  0  0  0  0  0  0
  191.4790  176.3750  147.1070 S   0  0  0  0  0  1  0  0  0  0  0  0
  184.2100  179.0030  142.3590 C   0  0  0  0  0  2  0  0  0  0  0  0
  184.9810  179.4580  143.5870 C   0  0  0  0  0  2  0  0  0  0  0  0
  184.5590  178.6500  144.8030 C   0  0  0  0  0  2  0  0  0  0  0  0
  185.7520  178.9880  146.9620 C   0  0  0  0  0  3  0  0  0  0  0  0
  185.7380  178.4030  145.6900 C   0  0  0  0  0  0  0  0  0  0  0  0
  187.8740  177.3540  146.1710 C   0  0  0  0  0  3  0  0  0  0  0  0
  186.8070  177.5750  145.2880 C   0  0  0  0  0  0  0  0  0  0  0  0
  186.8220  178.7630  147.8310 C   0  0  0  0  0  3  0  0  0  0  0  0
  187.8840  177.9460  147.4360 C   0  0  0  0  0  3  0  0  0  0  0  0
  187.3680  175.8310  143.7620 O   0  0  0  0  0  0  0  0  0  0  0  0
  186.8140  176.9450  143.9590 C   0  0  0  0  0  3  0  0  0  0  0  0
  1 22  1  0  0  0  0
  1 34  1  1  0  0  0
  3  9  1  6  0  0  0
  3  7  1  0  0  0  0
  4  3  1  0  0  0  0
  4  6  1  0  0  0  0
  5  2  1  0  0  0  0
  5  1  1  1  0  0  0
  6  5  1  0  0  0  0
  7  2  2  0  0  0  0
  9  8  2  0  0  0  0
 10  8  1  0  0  0  0
 11 10  1  0  0  0  0
 11 12  1  0  0  0  0
 13 12  1  1  0  0  0
 13 18  1  0  0  0  0
 14 15  1  0  0  0  0
 15 16  1  6  0  0  0
 15 18  1  0  0  0  0
 17 14  1  0  0  0  0
 17 13  1  0  0  0  0
 18 19  1  6  0  0  0
 20 19  1  0  0  0  0
 21 23  2  0  0  0  0
 23 24  1  0  0  0  0
 23 22  1  0  0  0  0
 24 25  1  0  0  0  0
 26 25  1  1  0  0  0
 26 27  1  0  0  0  0
 26 29  1  0  0  0  0
 27 30  1  0  0  0  0
 28 27  2  0  0  0  0
 29 31  1  0  0  0  0
 30 31  1  0  0  0  0
 30 32  1  0  0  0  0
 32 33  1  0  0  0  0
 34 35  1  0  0  0  0
 35 36  1  0  0  0  0
 36 38  1  0  0  0  0
 37 41  1  0  0  0  0
 38 37  2  0  0  0  0
 39 42  1  0  0  0  0
 40 38  1  0  0  0  0
 40 39  2  0  0  0  0
 42 41  2  0  0  0  0
 43 44  2  0  0  0  0
 44 40  1  0  0  0  0
M  END
>  <MODEL>
8

>  <REMARK>
 VINA RESULT:      -7.1      3.985      6.820
  Name = 
  17 active torsions:
  status: ('A' for Active; 'I' for Inactive)
    1  A    between atoms: C_1  and  C_20
    2  A    between atoms: C_2  and  C_11
    3  A    between atoms: C_3  and  C_20
    4  A    between atoms: C_3  and  N_24
    5  A    between atoms: N_7  and  N_24
    6  A    between atoms: C_9  and  N_29
    7  A    between atoms: C_10  and  N_15
    8  A    between atoms: C_10  and  C_37
    9  A    between atoms: C_10  and  C_39
   10  A    between atoms: C_11  and  C_31
   11  A    between atoms: C_18  and  N_34
   12  A    between atoms: C_19  and  C_36
   13  A    between atoms: C_23  and  C_33
   14  A    between atoms: C_30  and  C_35
   15  A    between atoms: C_31  and  C_44
   16  A    between atoms: C_32  and  C_33
   17  A    between atoms: C_32  and  C_37
                            x       y       z     vdW  Elec       q    Type
                         _______ _______ _______ _____ _____    ______ ____

>  <TORSDO>
F 17

$$$$
=
 OpenBabel11042410403D

 44 47  0  0  1  0  0  0  0  0999 V2000
  186.2740  177.5960  144.3480 C   0  0  2  0  0  3  0  0  0  0  0  0
  187.3740  178.2530  142.2000 C   0  0  0  0  0  3  0  0  0  0  0  0
  189.7000  177.4460  141.7800 C   0  0  2  0  0  3  0  0  0  0  0  0
  189.2430  176.1040  142.3560 C   0  0  0  0  0  2  0  0  0  0  0  0
  187.0990  177.1140  143.1520 C   0  0  1  0  0  3  0  0  0  0  0  0
  188.3700  176.3640  143.5760 C   0  0  0  0  0  2  0  0  0  0  0  0
  188.5370  178.3770  141.5400 C   0  0  0  0  0  3  0  0  0  0  0  0
  189.8340  177.3200  139.4210 N   0  0  0  0  0  0  0  0  0  0  0  0
  190.4320  177.2460  140.5400 N   0  0  0  0  0  0  0  0  0  0  0  0
  190.5460  177.1250  138.2330 N   0  0  0  0  0  2  0  0  0  0  0  0
  191.2750  175.8870  138.0090 C   0  0  0  0  0  2  0  0  0  0  0  0
  192.1010  175.9760  136.7310 C   0  0  0  0  0  2  0  0  0  0  0  0
  193.5920  176.0390  137.0360 C   0  0  1  0  0  3  0  0  0  0  0  0
  195.0150  174.8690  138.3250 C   0  0  0  0  0  2  0  0  0  0  0  0
  195.1220  174.2120  136.9760 C   0  0  2  0  0  3  0  0  0  0  0  0
  196.5810  173.9420  136.6180 C   0  0  0  0  0  1  0  0  0  0  0  0
  193.8170  175.5990  138.3540 O   0  0  0  0  0  0  0  0  0  0  0  0
  194.3800  175.1710  136.0660 C   0  0  2  0  0  3  0  0  0  0  0  0
  195.2720  176.0770  135.2180 C   0  0  0  0  0  2  0  0  0  0  0  0
  195.1810  177.4440  135.6990 N   0  0  0  0  0  1  0  0  0  0  0  0
  184.1760  178.5670  146.0380 O   0  0  0  0  0  0  0  0  0  0  0  0
  185.0970  178.3310  143.9020 N   0  0  0  0  0  2  0  0  0  0  0  0
  184.0890  178.7950  144.8020 C   0  0  0  0  0  0  0  0  0  0  0  0
  182.9410  179.5790  144.2730 C   0  0  0  0  0  2  0  0  0  0  0  0
  181.8330  178.6360  143.8390 C   0  0  0  0  0  2  0  0  0  0  0  0
  181.1590  179.1630  142.5840 C   0  0  2  0  0  3  0  0  0  0  0  0
  180.0490  178.2940  142.2260 C   0  0  0  0  0  0  0  0  0  0  0  0
  178.9310  178.2630  142.8070 O   0  0  0  0  0  0  0  0  0  0  0  0
  182.0540  178.9230  141.3610 C   0  0  0  0  0  2  0  0  0  0  0  0
  180.3660  177.5320  141.0870 N   0  0  0  0  0  0  0  0  0  0  0  0
  181.6570  177.7250  140.7070 O   0  0  0  0  0  0  0  0  0  0  0  0
  179.3420  177.1940  140.1100 C   0  0  0  0  0  2  0  0  0  0  0  0
  179.1610  175.3890  140.0000 S   0  0  0  0  0  1  0  0  0  0  0  0
  187.1140  178.4620  145.2840 C   0  0  0  0  0  2  0  0  0  0  0  0
  187.5100  177.6880  146.5290 C   0  0  0  0  0  2  0  0  0  0  0  0
  188.7880  178.2620  147.1210 C   0  0  0  0  0  2  0  0  0  0  0  0
  190.2370  176.3030  147.6330 C   0  0  0  0  0  3  0  0  0  0  0  0
  189.9490  177.3810  146.7880 C   0  0  0  0  0  0  0  0  0  0  0  0
  191.7910  176.7180  145.3500 C   0  0  0  0  0  3  0  0  0  0  0  0
  190.7300  177.5920  145.6310 C   0  0  0  0  0  0  0  0  0  0  0  0
  191.2980  175.4420  147.3440 C   0  0  0  0  0  3  0  0  0  0  0  0
  192.0760  175.6490  146.2030 C   0  0  0  0  0  3  0  0  0  0  0  0
  191.3670  179.4430  144.2690 O   0  0  0  0  0  0  0  0  0  0  0  0
  190.4450  178.7140  144.7230 C   0  0  0  0  0  3  0  0  0  0  0  0
  1 34  1  1  0  0  0
  2  5  1  0  0  0  0
  3  9  1  6  0  0  0
  3  4  1  0  0  0  0
  4  6  1  0  0  0  0
  5  6  1  0  0  0  0
  5  1  1  1  0  0  0
  7  3  1  0  0  0  0
  7  2  2  0  0  0  0
  8  9  2  0  0  0  0
 10  8  1  0  0  0  0
 11 10  1  0  0  0  0
 12 11  1  0  0  0  0
 13 12  1  6  0  0  0
 13 17  1  0  0  0  0
 14 17  1  0  0  0  0
 15 16  1  6  0  0  0
 15 14  1  0  0  0  0
 18 19  1  1  0  0  0
 18 15  1  0  0  0  0
 18 13  1  0  0  0  0
 19 20  1  0  0  0  0
 22  1  1  0  0  0  0
 22 23  1  0  0  0  0
 23 21  2  0  0  0  0
 24 23  1  0  0  0  0
 25 24  1  0  0  0  0
 26 25  1  1  0  0  0
 27 26  1  0  0  0  0
 27 28  2  0  0  0  0
 29 26  1  0  0  0  0
 30 27  1  0  0  0  0
 31 30  1  0  0  0  0
 31 29  1  0  0  0  0
 32 30  1  0  0  0  0
 33 32  1  0  0  0  0
 34 35  1  0  0  0  0
 35 36  1  0  0  0  0
 38 36  1  0  0  0  0
 38 37  2  0  0  0  0
 39 40  2  0  0  0  0
 39 42  1  0  0  0  0
 40 38  1  0  0  0  0
 41 37  1  0  0  0  0
 42 41  2  0  0  0  0
 43 44  2  0  0  0  0
 44 40  1  0  0  0  0
M  END
>  <MODEL>
9

>  <REMARK>
 VINA RESULT:      -7.1      4.182      9.303
  Name = 
  17 active torsions:
  status: ('A' for Active; 'I' for Inactive)
    1  A    between atoms: C_1  and  C_20
    2  A    between atoms: C_2  and  C_11
    3  A    between atoms: C_3  and  C_20
    4  A    between atoms: C_3  and  N_24
    5  A    between atoms: N_7  and  N_24
    6  A    between atoms: C_9  and  N_29
    7  A    between atoms: C_10  and  N_15
    8  A    between atoms: C_10  and  C_37
    9  A    between atoms: C_10  and  C_39
   10  A    between atoms: C_11  and  C_31
   11  A    between atoms: C_18  and  N_34
   12  A    between atoms: C_19  and  C_36
   13  A    between atoms: C_23  and  C_33
   14  A    between atoms: C_30  and  C_35
   15  A    between atoms: C_31  and  C_44
   16  A    between atoms: C_32  and  C_33
   17  A    between atoms: C_32  and  C_37
                            x       y       z     vdW  Elec       q    Type
                         _______ _______ _______ _____ _____    ______ ____

>  <TORSDO>
F 17

$$$$
