=
 OpenBabel11042410043D

 38 41  0  0  1  0  0  0  0  0999 V2000
  186.7680  177.7640  134.7700 C   0  0  0  0  0  2  0  0  0  0  0  0
  187.3140  178.2320  138.9760 N   0  0  0  0  0  0  0  0  0  0  0  0
  188.4960  177.6950  138.9900 C   0  0  0  0  0  0  0  0  0  0  0  0
  184.9740  176.8310  136.2910 C   0  0  0  0  0  3  0  0  0  0  0  0
  187.8660  177.5380  136.8860 C   0  0  0  0  0  0  0  0  0  0  0  0
  187.8770  177.3300  135.6090 N   0  0  0  0  0  0  0  0  0  0  0  0
  185.5190  176.9890  135.0730 C   0  0  0  0  0  3  0  0  0  0  0  0
  188.9470  177.2010  137.7350 N   0  0  0  0  0  2  0  0  0  0  0  0
  185.4900  177.3320  137.6270 C   0  0  1  0  0  3  0  0  0  0  0  0
  186.7590  178.1980  137.6280 C   0  0  1  0  0  3  0  0  0  0  0  0
  180.4650  179.3250  137.1570 C   0  0  0  0  0  2  0  0  0  0  0  0
  181.5370  179.0690  137.8960 C   0  0  0  0  0  0  0  0  0  0  0  0
  181.9850  177.7080  137.9760 N   0  0  0  0  0  2  0  0  0  0  0  0
  184.4940  179.2480  138.6990 N   0  0  0  0  0  0  0  0  0  0  0  0
  183.1200  177.2460  138.7660 C   0  0  2  0  0  3  0  0  0  0  0  0
  182.2680  180.1930  138.5360 C   0  0  0  0  0  0  0  0  0  0  0  0
  183.4640  179.9700  139.4090 C   0  0  0  0  0  2  0  0  0  0  0  0
  181.8780  181.3780  138.3610 O   0  0  0  0  0  0  0  0  0  0  0  0
  184.3790  177.9990  138.3910 C   0  0  0  0  0  0  0  0  0  0  0  0
  182.0310  175.1420  138.3270 O   0  0  0  0  0  1  0  0  0  0  0  0
  183.2440  175.7260  138.6960 C   0  0  0  0  0  2  0  0  0  0  0  0
  189.2880  177.5040  140.2450 C   0  0  0  0  0  2  0  0  0  0  0  0
  188.6430  178.1970  141.4370 C   0  0  0  0  0  2  0  0  0  0  0  0
  188.1750  177.1620  142.4450 C   0  0  0  0  0  2  0  0  0  0  0  0
  186.9160  177.7530  144.5620 C   0  0  0  0  0  0  0  0  0  0  0  0
  184.6320  178.5740  144.4200 C   0  0  0  0  0  0  0  0  0  0  0  0
  186.9540  177.6480  143.1560 C   0  0  0  0  0  0  0  0  0  0  0  0
  185.8270  177.9880  142.4010 C   0  0  0  0  0  3  0  0  0  0  0  0
  185.7510  178.2310  145.1820 C   0  0  0  0  0  3  0  0  0  0  0  0
  183.4060  179.0780  145.0900 C   0  0  0  0  0  1  0  0  0  0  0  0
  184.6690  178.4510  143.0300 C   0  0  0  0  0  3  0  0  0  0  0  0
  187.8220  177.2110  146.7460 O   0  0  0  0  0  1  0  0  0  0  0  0
  188.1300  177.4180  145.3960 C   0  0  2  0  0  3  0  0  0  0  0  0
  189.1920  178.3310  145.2270 O   0  0  0  0  0  0  0  0  0  0  0  0
  190.4100  177.6390  145.3410 C   0  0  0  0  0  2  0  0  0  0  0  0
  191.4390  178.2410  144.3960 C   0  0  0  0  0  2  0  0  0  0  0  0
  191.4600  175.8520  143.6660 C   0  0  0  0  0  1  0  0  0  0  0  0
  191.7800  177.2800  143.2680 C   0  0  0  0  0  2  0  0  0  0  0  0
  1  7  1  0  0  0  0
  1  6  1  0  0  0  0
  2  3  2  0  0  0  0
  3 22  1  0  0  0  0
  4  9  1  0  0  0  0
  5  8  1  0  0  0  0
  6  5  2  0  0  0  0
  7  4  2  0  0  0  0
  8  3  1  0  0  0  0
  9 10  1  0  0  0  0
  9 19  1  6  0  0  0
 10  5  1  6  0  0  0
 10  2  1  0  0  0  0
 11 12  2  0  0  0  0
 12 13  1  0  0  0  0
 12 16  1  0  0  0  0
 13 15  1  0  0  0  0
 14 17  1  0  0  0  0
 15 21  1  6  0  0  0
 16 17  1  0  0  0  0
 18 16  2  0  0  0  0
 19 14  2  0  0  0  0
 19 15  1  0  0  0  0
 20 21  1  0  0  0  0
 22 23  1  0  0  0  0
 23 24  1  0  0  0  0
 24 27  1  0  0  0  0
 25 29  1  0  0  0  0
 25 33  1  0  0  0  0
 26 30  1  0  0  0  0
 26 29  2  0  0  0  0
 27 25  2  0  0  0  0
 28 31  2  0  0  0  0
 28 27  1  0  0  0  0
 31 26  1  0  0  0  0
 33 32  1  1  0  0  0
 34 35  1  0  0  0  0
 34 33  1  0  0  0  0
 36 35  1  0  0  0  0
 38 37  1  0  0  0  0
 38 36  1  0  0  0  0
M  END
>  <MODEL>
1

>  <REMARK>
 VINA RESULT:      -8.2      0.000      0.000
  Name = 
  11 active torsions:
  status: ('A' for Active; 'I' for Inactive)
    1  A    between atoms: C_6  and  C_17
    2  A    between atoms: C_7  and  C_28
    3  A    between atoms: C_13  and  C_14
    4  A    between atoms: C_13  and  C_26
    5  A    between atoms: C_15  and  CA_22
    6  A    between atoms: C_17  and  O_18
    7  A    between atoms: O_18  and  C_26
    8  A    between atoms: C_20  and  C_30
    9  A    between atoms: C_20  and  C_32
   10  A    between atoms: C_27  and  C_38
   11  A    between atoms: C_28  and  C_30
                            x       y       z     vdW  Elec       q    Type
                         _______ _______ _______ _____ _____    ______ ____

>  <TORSDO>
F 11

$$$$
=
 OpenBabel11042410043D

 38 41  0  0  1  0  0  0  0  0999 V2000
  184.9290  177.4650  136.3390 C   0  0  0  0  0  2  0  0  0  0  0  0
  184.0600  179.0300  140.2120 N   0  0  0  0  0  0  0  0  0  0  0  0
  185.3040  179.1300  140.5680 C   0  0  0  0  0  0  0  0  0  0  0  0
  183.3330  176.1510  137.7970 C   0  0  0  0  0  3  0  0  0  0  0  0
  185.3970  178.2440  138.5530 C   0  0  0  0  0  0  0  0  0  0  0  0
  185.8420  177.7960  137.4240 N   0  0  0  0  0  0  0  0  0  0  0  0
  184.0770  176.2800  136.6850 C   0  0  0  0  0  3  0  0  0  0  0  0
  186.2420  178.6480  139.6150 N   0  0  0  0  0  2  0  0  0  0  0  0
  183.2100  177.1110  138.9650 C   0  0  1  0  0  3  0  0  0  0  0  0
  183.9600  178.4500  138.8780 C   0  0  1  0  0  3  0  0  0  0  0  0
  179.7870  180.4410  141.5420 C   0  0  0  0  0  1  0  0  0  0  0  0
  180.0070  179.3450  140.8280 C   0  0  0  0  0  0  0  0  0  0  0  0
  180.6560  179.4930  139.5570 N   0  0  0  0  0  0  0  0  0  0  0  0
  181.2210  176.5910  140.2230 N   0  0  0  0  0  0  0  0  0  0  0  0
  180.9440  178.4040  138.6310 C   0  0  2  0  0  3  0  0  0  0  0  0
  179.6530  178.0190  141.3970 C   0  0  0  0  0  0  0  0  0  0  0  0
  179.8430  176.7470  140.6300 C   0  0  0  0  0  2  0  0  0  0  0  0
  179.1630  177.9420  142.5550 O   0  0  0  0  0  0  0  0  0  0  0  0
  181.7610  177.3240  139.3080 C   0  0  0  0  0  0  0  0  0  0  0  0
  181.4120  180.3280  137.2580 O   0  0  0  0  0  1  0  0  0  0  0  0
  181.5480  178.9410  137.3360 C   0  0  0  0  0  2  0  0  0  0  0  0
  185.7260  179.6100  141.9200 C   0  0  0  0  0  2  0  0  0  0  0  0
  184.7180  179.2410  142.9970 C   0  0  0  0  0  2  0  0  0  0  0  0
  184.9950  177.8370  143.5070 C   0  0  0  0  0  2  0  0  0  0  0  0
  187.2840  177.4810  144.5340 C   0  0  0  0  0  0  0  0  0  0  0  0
  187.6510  178.0070  146.8780 C   0  0  0  0  0  0  0  0  0  0  0  0
  185.9380  177.8840  144.6650 C   0  0  0  0  0  0  0  0  0  0  0  0
  185.4610  178.3250  145.9030 C   0  0  0  0  0  3  0  0  0  0  0  0
  188.1350  177.5600  145.6470 C   0  0  0  0  0  3  0  0  0  0  0  0
  188.5630  178.0840  148.0480 C   0  0  0  0  0  1  0  0  0  0  0  0
  186.3140  178.3880  147.0080 C   0  0  0  0  0  3  0  0  0  0  0  0
  188.2010  175.6770  143.1950 O   0  0  0  0  0  1  0  0  0  0  0  0
  187.8280  177.0280  143.1990 C   0  0  2  0  0  3  0  0  0  0  0  0
  188.8500  177.8630  142.7010 O   0  0  0  0  0  0  0  0  0  0  0  0
  189.9900  177.0830  142.4420 C   0  0  0  0  0  2  0  0  0  0  0  0
  191.1050  177.4590  143.4050 C   0  0  0  0  0  2  0  0  0  0  0  0
  191.6570  176.7220  145.7270 C   0  0  0  0  0  1  0  0  0  0  0  0
  191.4960  176.2820  144.2840 C   0  0  0  0  0  2  0  0  0  0  0  0
  1  7  1  0  0  0  0
  1  6  1  0  0  0  0
  2  3  2  0  0  0  0
  3 22  1  0  0  0  0
  4  9  1  0  0  0  0
  5  8  1  0  0  0  0
  6  5  2  0  0  0  0
  7  4  2  0  0  0  0
  8  3  1  0  0  0  0
  9 19  1  6  0  0  0
 10  5  1  1  0  0  0
 10  9  1  0  0  0  0
 10  2  1  0  0  0  0
 12 16  1  0  0  0  0
 12 11  1  0  0  0  0
 13 12  2  0  0  0  0
 14 17  1  0  0  0  0
 15 21  1  6  0  0  0
 15 19  1  0  0  0  0
 15 13  1  0  0  0  0
 16 18  2  0  0  0  0
 17 16  1  0  0  0  0
 19 14  2  0  0  0  0
 20 21  1  0  0  0  0
 22 23  1  0  0  0  0
 23 24  1  0  0  0  0
 24 27  1  0  0  0  0
 25 27  2  0  0  0  0
 25 29  1  0  0  0  0
 26 31  1  0  0  0  0
 26 30  1  0  0  0  0
 27 28  1  0  0  0  0
 28 31  2  0  0  0  0
 29 26  2  0  0  0  0
 33 32  1  1  0  0  0
 33 25  1  0  0  0  0
 34 33  1  0  0  0  0
 35 34  1  0  0  0  0
 35 36  1  0  0  0  0
 36 38  1  0  0  0  0
 38 37  1  0  0  0  0
M  END
>  <MODEL>
2

>  <REMARK>
 VINA RESULT:      -8.1      2.157      3.544
  Name = 
  11 active torsions:
  status: ('A' for Active; 'I' for Inactive)
    1  A    between atoms: C_6  and  C_17
    2  A    between atoms: C_7  and  C_28
    3  A    between atoms: C_13  and  C_14
    4  A    between atoms: C_13  and  C_26
    5  A    between atoms: C_15  and  CA_22
    6  A    between atoms: C_17  and  O_18
    7  A    between atoms: O_18  and  C_26
    8  A    between atoms: C_20  and  C_30
    9  A    between atoms: C_20  and  C_32
   10  A    between atoms: C_27  and  C_38
   11  A    between atoms: C_28  and  C_30
                            x       y       z     vdW  Elec       q    Type
                         _______ _______ _______ _____ _____    ______ ____

>  <TORSDO>
F 11

$$$$
=
 OpenBabel11042410043D

 38 41  0  0  1  0  0  0  0  0999 V2000
  179.5580  178.5030  142.5270 C   0  0  0  0  0  2  0  0  0  0  0  0
  183.8200  178.3050  142.5990 N   0  0  0  0  0  0  0  0  0  0  0  0
  183.9510  179.1790  143.5500 C   0  0  0  0  0  0  0  0  0  0  0  0
  180.7800  178.8670  140.3430 C   0  0  0  0  0  3  0  0  0  0  0  0
  181.7780  179.0960  143.2000 C   0  0  0  0  0  0  0  0  0  0  0  0
  180.5020  179.2730  143.3250 N   0  0  0  0  0  0  0  0  0  0  0  0
  179.6530  178.8620  141.0730 C   0  0  0  0  0  3  0  0  0  0  0  0
  182.7360  179.7650  143.9990 N   0  0  0  0  0  2  0  0  0  0  0  0
  182.1990  178.5740  140.7950 C   0  0  1  0  0  3  0  0  0  0  0  0
  182.4130  178.1400  142.2530 C   0  0  1  0  0  3  0  0  0  0  0  0
  182.8190  177.3910  135.5350 C   0  0  0  0  0  2  0  0  0  0  0  0
  183.0670  177.1260  136.8120 C   0  0  0  0  0  0  0  0  0  0  0  0
  183.6770  178.1560  137.6030 N   0  0  0  0  0  2  0  0  0  0  0  0
  182.3630  176.4240  139.7150 N   0  0  0  0  0  0  0  0  0  0  0  0
  184.0480  178.0230  139.0070 C   0  0  2  0  0  3  0  0  0  0  0  0
  182.6370  175.8240  137.3840 C   0  0  0  0  0  0  0  0  0  0  0  0
  182.9170  175.4480  138.8060 C   0  0  0  0  0  2  0  0  0  0  0  0
  182.0280  174.9900  136.6610 O   0  0  0  0  0  0  0  0  0  0  0  0
  182.8550  177.6110  139.8430 C   0  0  0  0  0  0  0  0  0  0  0  0
  184.1870  180.4280  138.9550 O   0  0  0  0  0  1  0  0  0  0  0  0
  184.7650  179.2790  139.4970 C   0  0  0  0  0  2  0  0  0  0  0  0
  185.2820  179.6280  144.0640 C   0  0  0  0  0  2  0  0  0  0  0  0
  185.5760  179.0690  145.4480 C   0  0  0  0  0  2  0  0  0  0  0  0
  186.0000  177.6150  145.3400 C   0  0  0  0  0  2  0  0  0  0  0  0
  188.4760  177.1700  145.0420 C   0  0  0  0  0  0  0  0  0  0  0  0
  189.9370  177.1180  146.9840 C   0  0  0  0  0  0  0  0  0  0  0  0
  187.3780  177.4350  145.8870 C   0  0  0  0  0  0  0  0  0  0  0  0
  187.5690  177.5200  147.2700 C   0  0  0  0  0  3  0  0  0  0  0  0
  189.7550  177.0270  145.6030 C   0  0  0  0  0  3  0  0  0  0  0  0
  191.2950  176.9630  147.5640 C   0  0  0  0  0  1  0  0  0  0  0  0
  188.8440  177.3620  147.8190 C   0  0  0  0  0  3  0  0  0  0  0  0
  188.0930  175.7980  143.0780 O   0  0  0  0  0  1  0  0  0  0  0  0
  188.2990  177.1030  143.5430 C   0  0  2  0  0  3  0  0  0  0  0  0
  189.3190  177.7670  142.8300 O   0  0  0  0  0  0  0  0  0  0  0  0
  189.4790  177.1460  141.5800 C   0  0  0  0  0  2  0  0  0  0  0  0
  188.8440  178.0000  140.4920 C   0  0  0  0  0  2  0  0  0  0  0  0
  189.0050  178.7800  138.1240 C   0  0  0  0  0  1  0  0  0  0  0  0
  189.5700  177.8340  139.1660 C   0  0  0  0  0  2  0  0  0  0  0  0
  1  6  1  0  0  0  0
  2  3  2  0  0  0  0
  3  8  1  0  0  0  0
  3 22  1  0  0  0  0
  4  9  1  0  0  0  0
  4  7  2  0  0  0  0
  5  6  2  0  0  0  0
  5  8  1  0  0  0  0
  7  1  1  0  0  0  0
  9 19  1  6  0  0  0
  9 10  1  0  0  0  0
 10  2  1  1  0  0  0
 10  5  1  0  0  0  0
 11 12  2  0  0  0  0
 12 16  1  0  0  0  0
 12 13  1  0  0  0  0
 13 15  1  0  0  0  0
 14 19  2  0  0  0  0
 15 21  1  1  0  0  0
 15 19  1  0  0  0  0
 16 17  1  0  0  0  0
 17 14  1  0  0  0  0
 18 16  2  0  0  0  0
 20 21  1  0  0  0  0
 22 23  1  0  0  0  0
 24 23  1  0  0  0  0
 24 27  1  0  0  0  0
 25 29  2  0  0  0  0
 25 27  1  0  0  0  0
 26 30  1  0  0  0  0
 26 31  2  0  0  0  0
 27 28  2  0  0  0  0
 28 31  1  0  0  0  0
 29 26  1  0  0  0  0
 33 32  1  6  0  0  0
 33 25  1  0  0  0  0
 34 33  1  0  0  0  0
 35 34  1  0  0  0  0
 36 35  1  0  0  0  0
 37 38  1  0  0  0  0
 38 36  1  0  0  0  0
M  END
>  <MODEL>
3

>  <REMARK>
 VINA RESULT:      -8.1      2.432      5.678
  Name = 
  11 active torsions:
  status: ('A' for Active; 'I' for Inactive)
    1  A    between atoms: C_6  and  C_17
    2  A    between atoms: C_7  and  C_28
    3  A    between atoms: C_13  and  C_14
    4  A    between atoms: C_13  and  C_26
    5  A    between atoms: C_15  and  CA_22
    6  A    between atoms: C_17  and  O_18
    7  A    between atoms: O_18  and  C_26
    8  A    between atoms: C_20  and  C_30
    9  A    between atoms: C_20  and  C_32
   10  A    between atoms: C_27  and  C_38
   11  A    between atoms: C_28  and  C_30
                            x       y       z     vdW  Elec       q    Type
                         _______ _______ _______ _____ _____    ______ ____

>  <TORSDO>
F 11

$$$$
=
 OpenBabel11042410043D

 38 41  0  0  1  0  0  0  0  0999 V2000
  187.7780  176.2800  137.2060 C   0  0  0  0  0  2  0  0  0  0  0  0
  191.4150  176.2680  139.4370 N   0  0  0  0  0  0  0  0  0  0  0  0
  190.9680  177.0490  140.3730 C   0  0  0  0  0  0  0  0  0  0  0  0
  189.9000  176.9140  135.9820 C   0  0  0  0  0  3  0  0  0  0  0  0
  189.2880  176.9020  138.9560 C   0  0  0  0  0  0  0  0  0  0  0  0
  188.1150  177.0090  138.4210 N   0  0  0  0  0  0  0  0  0  0  0  0
  188.5630  176.7850  136.0310 C   0  0  0  0  0  3  0  0  0  0  0  0
  189.6450  177.5310  140.1720 N   0  0  0  0  0  2  0  0  0  0  0  0
  190.9130  176.6420  137.0780 C   0  0  1  0  0  3  0  0  0  0  0  0
  190.3980  176.0760  138.4100 C   0  0  1  0  0  3  0  0  0  0  0  0
  195.0840  173.4910  138.5350 C   0  0  0  0  0  1  0  0  0  0  0  0
  194.3510  174.0650  137.5900 C   0  0  0  0  0  0  0  0  0  0  0  0
  192.9440  173.7820  137.5700 N   0  0  0  0  0  0  0  0  0  0  0  0
  193.0860  176.4060  136.0600 N   0  0  0  0  0  0  0  0  0  0  0  0
  192.0010  174.2970  136.5850 C   0  0  2  0  0  3  0  0  0  0  0  0
  194.9880  175.0270  136.6540 C   0  0  0  0  0  0  0  0  0  0  0  0
  194.2260  175.6830  135.5440 C   0  0  0  0  0  2  0  0  0  0  0  0
  196.2120  175.3030  136.7730 O   0  0  0  0  0  0  0  0  0  0  0  0
  192.0450  175.8100  136.5380 C   0  0  0  0  0  0  0  0  0  0  0  0
  189.9840  173.4280  135.5930 O   0  0  0  0  0  1  0  0  0  0  0  0
  190.6100  173.7090  136.8090 C   0  0  0  0  0  2  0  0  0  0  0  0
  191.8090  177.5040  141.5230 C   0  0  0  0  0  2  0  0  0  0  0  0
  190.9680  177.8520  142.7420 C   0  0  0  0  0  2  0  0  0  0  0  0
  190.6330  176.5890  143.5170 C   0  0  0  0  0  2  0  0  0  0  0  0
  188.6110  177.1270  144.9440 C   0  0  0  0  0  0  0  0  0  0  0  0
  188.8920  177.5790  147.3160 C   0  0  0  0  0  0  0  0  0  0  0  0
  190.0030  176.9370  144.8260 C   0  0  0  0  0  0  0  0  0  0  0  0
  190.8250  177.0880  145.9480 C   0  0  0  0  0  3  0  0  0  0  0  0
  188.0650  177.4350  146.2000 C   0  0  0  0  0  3  0  0  0  0  0  0
  188.3000  177.9070  148.6390 C   0  0  0  0  0  1  0  0  0  0  0  0
  190.2720  177.4080  147.1900 C   0  0  0  0  0  3  0  0  0  0  0  0
  187.9330  175.7370  143.0750 O   0  0  0  0  0  1  0  0  0  0  0  0
  187.7010  176.9410  143.7520 C   0  0  2  0  0  3  0  0  0  0  0  0
  187.6930  178.0490  142.8790 O   0  0  0  0  0  0  0  0  0  0  0  0
  186.3620  178.3590  142.5490 C   0  0  0  0  0  2  0  0  0  0  0  0
  185.4760  178.2070  143.7760 C   0  0  0  0  0  2  0  0  0  0  0  0
  183.3040  178.9180  144.7870 C   0  0  0  0  0  1  0  0  0  0  0  0
  184.0570  178.6750  143.4920 C   0  0  0  0  0  2  0  0  0  0  0  0
  1  6  1  0  0  0  0
  2  3  2  0  0  0  0
  3 22  1  0  0  0  0
  4  7  2  0  0  0  0
  4  9  1  0  0  0  0
  5  8  1  0  0  0  0
  6  5  2  0  0  0  0
  7  1  1  0  0  0  0
  8  3  1  0  0  0  0
  9 19  1  6  0  0  0
  9 10  1  0  0  0  0
 10  5  1  1  0  0  0
 10  2  1  0  0  0  0
 12 11  1  0  0  0  0
 13 12  2  0  0  0  0
 14 19  2  0  0  0  0
 15 21  1  1  0  0  0
 15 13  1  0  0  0  0
 16 18  2  0  0  0  0
 16 12  1  0  0  0  0
 17 14  1  0  0  0  0
 17 16  1  0  0  0  0
 19 15  1  0  0  0  0
 20 21  1  0  0  0  0
 22 23  1  0  0  0  0
 23 24  1  0  0  0  0
 24 27  1  0  0  0  0
 25 29  1  0  0  0  0
 26 30  1  0  0  0  0
 27 25  2  0  0  0  0
 27 28  1  0  0  0  0
 28 31  2  0  0  0  0
 29 26  2  0  0  0  0
 31 26  1  0  0  0  0
 33 32  1  6  0  0  0
 33 25  1  0  0  0  0
 34 33  1  0  0  0  0
 35 34  1  0  0  0  0
 35 36  1  0  0  0  0
 38 36  1  0  0  0  0
 38 37  1  0  0  0  0
M  END
>  <MODEL>
4

>  <REMARK>
 VINA RESULT:      -7.8      4.001      7.457
  Name = 
  11 active torsions:
  status: ('A' for Active; 'I' for Inactive)
    1  A    between atoms: C_6  and  C_17
    2  A    between atoms: C_7  and  C_28
    3  A    between atoms: C_13  and  C_14
    4  A    between atoms: C_13  and  C_26
    5  A    between atoms: C_15  and  CA_22
    6  A    between atoms: C_17  and  O_18
    7  A    between atoms: O_18  and  C_26
    8  A    between atoms: C_20  and  C_30
    9  A    between atoms: C_20  and  C_32
   10  A    between atoms: C_27  and  C_38
   11  A    between atoms: C_28  and  C_30
                            x       y       z     vdW  Elec       q    Type
                         _______ _______ _______ _____ _____    ______ ____

>  <TORSDO>
F 11

$$$$
=
 OpenBabel11042410043D

 38 41  0  0  1  0  0  0  0  0999 V2000
  180.8170  178.6280  143.9730 C   0  0  0  0  0  2  0  0  0  0  0  0
  183.7510  178.0260  140.9350 N   0  0  0  0  0  0  0  0  0  0  0  0
  184.7250  178.5360  141.6250 C   0  0  0  0  0  0  0  0  0  0  0  0
  180.3200  179.5530  141.6720 C   0  0  0  0  0  3  0  0  0  0  0  0
  182.9680  178.7690  142.9320 C   0  0  0  0  0  0  0  0  0  0  0  0
  182.2210  179.0140  143.9600 N   0  0  0  0  0  0  0  0  0  0  0  0
  180.0240  179.4190  142.9750 C   0  0  0  0  0  3  0  0  0  0  0  0
  184.3530  179.0580  142.8940 N   0  0  0  0  0  2  0  0  0  0  0  0
  181.5150  179.0020  140.9150 C   0  0  1  0  0  3  0  0  0  0  0  0
  182.5020  178.1100  141.6820 C   0  0  1  0  0  3  0  0  0  0  0  0
  182.5130  174.8430  137.5760 C   0  0  0  0  0  2  0  0  0  0  0  0
  181.8030  175.9180  137.8940 C   0  0  0  0  0  0  0  0  0  0  0  0
  181.1570  175.9370  139.1760 N   0  0  0  0  0  2  0  0  0  0  0  0
  181.3430  178.8890  138.5130 N   0  0  0  0  0  0  0  0  0  0  0  0
  180.3140  177.0190  139.6720 C   0  0  2  0  0  3  0  0  0  0  0  0
  181.7720  177.0760  136.9640 C   0  0  0  0  0  0  0  0  0  0  0  0
  180.9640  178.3040  137.2470 C   0  0  0  0  0  2  0  0  0  0  0  0
  182.4290  177.0370  135.8900 O   0  0  0  0  0  0  0  0  0  0  0  0
  181.0580  178.3370  139.6450 C   0  0  0  0  0  0  0  0  0  0  0  0
  178.9310  175.5030  140.9350 O   0  0  0  0  0  1  0  0  0  0  0  0
  179.7120  176.6560  141.0270 C   0  0  0  0  0  2  0  0  0  0  0  0
  186.1150  178.6740  141.0910 C   0  0  0  0  0  2  0  0  0  0  0  0
  187.1540  178.6950  142.2020 C   0  0  0  0  0  2  0  0  0  0  0  0
  187.2480  177.3240  142.8490 C   0  0  0  0  0  2  0  0  0  0  0  0
  188.9400  177.2250  144.7310 C   0  0  0  0  0  0  0  0  0  0  0  0
  188.2460  177.7280  147.0060 C   0  0  0  0  0  0  0  0  0  0  0  0
  187.6200  177.4550  144.2890 C   0  0  0  0  0  0  0  0  0  0  0  0
  186.6270  177.7990  145.2120 C   0  0  0  0  0  3  0  0  0  0  0  0
  189.2430  177.3780  146.0930 C   0  0  0  0  0  3  0  0  0  0  0  0
  188.5820  177.8850  148.4450 C   0  0  0  0  0  1  0  0  0  0  0  0
  186.9380  177.9360  146.5670 C   0  0  0  0  0  3  0  0  0  0  0  0
  191.1290  176.2500  144.3550 O   0  0  0  0  0  1  0  0  0  0  0  0
  190.0350  176.8800  143.7490 C   0  0  2  0  0  3  0  0  0  0  0  0
  190.4280  177.9710  142.9460 O   0  0  0  0  0  0  0  0  0  0  0  0
  191.2560  177.5010  141.9120 C   0  0  0  0  0  2  0  0  0  0  0  0
  190.4160  176.8010  140.8540 C   0  0  0  0  0  2  0  0  0  0  0  0
  188.7960  177.1420  138.9820 C   0  0  0  0  0  1  0  0  0  0  0  0
  189.8570  177.7950  139.8480 C   0  0  0  0  0  2  0  0  0  0  0  0
  2  3  2  0  0  0  0
  3  8  1  0  0  0  0
  4  7  2  0  0  0  0
  5  6  2  0  0  0  0
  6  1  1  0  0  0  0
  7  1  1  0  0  0  0
  8  5  1  0  0  0  0
  9 19  1  6  0  0  0
  9  4  1  0  0  0  0
  9 10  1  0  0  0  0
 10  2  1  6  0  0  0
 10  5  1  0  0  0  0
 11 12  2  0  0  0  0
 12 13  1  0  0  0  0
 13 15  1  0  0  0  0
 14 19  2  0  0  0  0
 15 21  1  1  0  0  0
 16 17  1  0  0  0  0
 16 12  1  0  0  0  0
 17 14  1  0  0  0  0
 18 16  2  0  0  0  0
 19 15  1  0  0  0  0
 20 21  1  0  0  0  0
 22  3  1  0  0  0  0
 22 23  1  0  0  0  0
 23 24  1  0  0  0  0
 24 27  1  0  0  0  0
 25 29  1  0  0  0  0
 26 30  1  0  0  0  0
 27 25  2  0  0  0  0
 27 28  1  0  0  0  0
 28 31  2  0  0  0  0
 29 26  2  0  0  0  0
 31 26  1  0  0  0  0
 33 32  1  1  0  0  0
 33 25  1  0  0  0  0
 34 33  1  0  0  0  0
 35 34  1  0  0  0  0
 36 35  1  0  0  0  0
 37 38  1  0  0  0  0
 38 36  1  0  0  0  0
M  END
>  <MODEL>
5

>  <REMARK>
 VINA RESULT:      -7.4      2.859      5.088
  Name = 
  11 active torsions:
  status: ('A' for Active; 'I' for Inactive)
    1  A    between atoms: C_6  and  C_17
    2  A    between atoms: C_7  and  C_28
    3  A    between atoms: C_13  and  C_14
    4  A    between atoms: C_13  and  C_26
    5  A    between atoms: C_15  and  CA_22
    6  A    between atoms: C_17  and  O_18
    7  A    between atoms: O_18  and  C_26
    8  A    between atoms: C_20  and  C_30
    9  A    between atoms: C_20  and  C_32
   10  A    between atoms: C_27  and  C_38
   11  A    between atoms: C_28  and  C_30
                            x       y       z     vdW  Elec       q    Type
                         _______ _______ _______ _____ _____    ______ ____

>  <TORSDO>
F 11

$$$$
=
 OpenBabel11042410043D

 38 41  0  0  1  0  0  0  0  0999 V2000
  187.1730  176.5310  136.6270 C   0  0  0  0  0  2  0  0  0  0  0  0
  190.5660  176.1490  139.1840 N   0  0  0  0  0  0  0  0  0  0  0  0
  190.0330  176.8080  140.1670 C   0  0  0  0  0  0  0  0  0  0  0  0
  189.4120  177.2760  135.7140 C   0  0  0  0  0  3  0  0  0  0  0  0
  188.5040  176.8850  138.5840 C   0  0  0  0  0  0  0  0  0  0  0  0
  187.3910  177.0860  137.9550 N   0  0  0  0  0  0  0  0  0  0  0  0
  188.0760  177.1700  135.6130 C   0  0  0  0  0  3  0  0  0  0  0  0
  188.7410  177.3410  139.9030 N   0  0  0  0  0  2  0  0  0  0  0  0
  190.3080  176.8400  136.8580 C   0  0  1  0  0  3  0  0  0  0  0  0
  189.6570  176.1150  138.0450 C   0  0  1  0  0  3  0  0  0  0  0  0
  194.3410  173.5100  138.3040 C   0  0  0  0  0  1  0  0  0  0  0  0
  193.6910  174.1920  137.3690 C   0  0  0  0  0  0  0  0  0  0  0  0
  192.2910  173.9250  137.1990 N   0  0  0  0  0  0  0  0  0  0  0  0
  192.5590  176.6990  136.0070 N   0  0  0  0  0  0  0  0  0  0  0  0
  191.4340  174.5550  136.2020 C   0  0  2  0  0  3  0  0  0  0  0  0
  194.4050  175.2460  136.6030 C   0  0  0  0  0  0  0  0  0  0  0  0
  193.7390  176.0270  135.5130 C   0  0  0  0  0  2  0  0  0  0  0  0
  195.6140  175.4960  136.8550 O   0  0  0  0  0  0  0  0  0  0  0  0
  191.4820  176.0630  136.3270 C   0  0  0  0  0  0  0  0  0  0  0  0
  190.0250  172.6570  135.7350 O   0  0  0  0  0  1  0  0  0  0  0  0
  190.0290  173.9580  136.2410 C   0  0  0  0  0  2  0  0  0  0  0  0
  190.7580  177.0900  141.4450 C   0  0  0  0  0  2  0  0  0  0  0  0
  189.8590  177.7570  142.4750 C   0  0  0  0  0  2  0  0  0  0  0  0
  188.9320  176.7270  143.0970 C   0  0  0  0  0  2  0  0  0  0  0  0
  187.3790  177.5930  144.9020 C   0  0  0  0  0  0  0  0  0  0  0  0
  185.2550  178.6020  144.2860 C   0  0  0  0  0  0  0  0  0  0  0  0
  187.6600  177.3740  143.5370 C   0  0  0  0  0  0  0  0  0  0  0  0
  186.7280  177.7550  142.5650 C   0  0  0  0  0  3  0  0  0  0  0  0
  186.1770  178.2210  145.2630 C   0  0  0  0  0  3  0  0  0  0  0  0
  183.9870  179.2650  144.6830 C   0  0  0  0  0  1  0  0  0  0  0  0
  185.5290  178.3670  142.9370 C   0  0  0  0  0  3  0  0  0  0  0  0
  187.8210  177.1640  147.2490 O   0  0  0  0  0  1  0  0  0  0  0  0
  188.3830  177.2160  145.9670 C   0  0  2  0  0  3  0  0  0  0  0  0
  189.5550  178.0010  145.9320 O   0  0  0  0  0  0  0  0  0  0  0  0
  190.5580  177.3540  146.6720 C   0  0  0  0  0  2  0  0  0  0  0  0
  191.5800  176.7360  145.7300 C   0  0  0  0  0  2  0  0  0  0  0  0
  192.4350  175.6280  147.8000 C   0  0  0  0  0  1  0  0  0  0  0  0
  192.1700  175.4620  146.3150 C   0  0  0  0  0  2  0  0  0  0  0  0
  1  6  1  0  0  0  0
  2  3  2  0  0  0  0
  3 22  1  0  0  0  0
  4  9  1  0  0  0  0
  5  8  1  0  0  0  0
  6  5  2  0  0  0  0
  7  4  2  0  0  0  0
  7  1  1  0  0  0  0
  8  3  1  0  0  0  0
  9 19  1  6  0  0  0
  9 10  1  0  0  0  0
 10  5  1  1  0  0  0
 10  2  1  0  0  0  0
 12 11  1  0  0  0  0
 13 12  2  0  0  0  0
 14 19  2  0  0  0  0
 15 21  1  1  0  0  0
 15 19  1  0  0  0  0
 15 13  1  0  0  0  0
 16 18  2  0  0  0  0
 16 12  1  0  0  0  0
 17 14  1  0  0  0  0
 17 16  1  0  0  0  0
 20 21  1  0  0  0  0
 22 23  1  0  0  0  0
 23 24  1  0  0  0  0
 24 27  1  0  0  0  0
 25 29  1  0  0  0  0
 25 33  1  0  0  0  0
 26 30  1  0  0  0  0
 26 29  2  0  0  0  0
 27 25  2  0  0  0  0
 28 31  2  0  0  0  0
 28 27  1  0  0  0  0
 31 26  1  0  0  0  0
 33 32  1  1  0  0  0
 34 33  1  0  0  0  0
 34 35  1  0  0  0  0
 36 38  1  0  0  0  0
 36 35  1  0  0  0  0
 38 37  1  0  0  0  0
M  END
>  <MODEL>
6

>  <REMARK>
 VINA RESULT:      -7.3      3.717      6.413
  Name = 
  11 active torsions:
  status: ('A' for Active; 'I' for Inactive)
    1  A    between atoms: C_6  and  C_17
    2  A    between atoms: C_7  and  C_28
    3  A    between atoms: C_13  and  C_14
    4  A    between atoms: C_13  and  C_26
    5  A    between atoms: C_15  and  CA_22
    6  A    between atoms: C_17  and  O_18
    7  A    between atoms: O_18  and  C_26
    8  A    between atoms: C_20  and  C_30
    9  A    between atoms: C_20  and  C_32
   10  A    between atoms: C_27  and  C_38
   11  A    between atoms: C_28  and  C_30
                            x       y       z     vdW  Elec       q    Type
                         _______ _______ _______ _____ _____    ______ ____

>  <TORSDO>
F 11

$$$$
=
 OpenBabel11042410043D

 38 41  0  0  1  0  0  0  0  0999 V2000
  187.5640  177.5020  135.2010 C   0  0  0  0  0  2  0  0  0  0  0  0
  189.0360  176.6370  139.1110 N   0  0  0  0  0  0  0  0  0  0  0  0
  188.4440  177.6470  139.6730 C   0  0  0  0  0  0  0  0  0  0  0  0
  190.0650  177.2330  135.4740 C   0  0  0  0  0  3  0  0  0  0  0  0
  187.9300  177.8480  137.5410 C   0  0  0  0  0  0  0  0  0  0  0  0
  187.3860  178.2490  136.4380 N   0  0  0  0  0  0  0  0  0  0  0  0
  188.9890  177.5510  134.7340 C   0  0  0  0  0  3  0  0  0  0  0  0
  187.7310  178.4960  138.7840 N   0  0  0  0  0  2  0  0  0  0  0  0
  190.1160  176.8080  136.9290 C   0  0  1  0  0  3  0  0  0  0  0  0
  188.7840  176.6370  137.6750 C   0  0  1  0  0  3  0  0  0  0  0  0
  194.8930  174.6540  135.5230 C   0  0  0  0  0  2  0  0  0  0  0  0
  193.7330  174.5630  136.1610 C   0  0  0  0  0  0  0  0  0  0  0  0
  193.4270  175.5680  137.1390 N   0  0  0  0  0  2  0  0  0  0  0  0
  190.6750  174.5190  136.4210 N   0  0  0  0  0  0  0  0  0  0  0  0
  192.2180  175.6030  137.9530 C   0  0  2  0  0  3  0  0  0  0  0  0
  192.7760  173.4900  135.7870 C   0  0  0  0  0  0  0  0  0  0  0  0
  191.4660  173.3120  136.4900 C   0  0  0  0  0  2  0  0  0  0  0  0
  193.0630  172.6870  134.8600 O   0  0  0  0  0  0  0  0  0  0  0  0
  190.9810  175.5870  137.0800 C   0  0  0  0  0  0  0  0  0  0  0  0
  193.5300  177.3620  138.9470 O   0  0  0  0  0  1  0  0  0  0  0  0
  192.2740  176.7530  138.9550 C   0  0  0  0  0  2  0  0  0  0  0  0
  188.5860  177.9660  141.1280 C   0  0  0  0  0  2  0  0  0  0  0  0
  187.3450  178.6450  141.6870 C   0  0  0  0  0  2  0  0  0  0  0  0
  186.8030  177.8470  142.8600 C   0  0  0  0  0  2  0  0  0  0  0  0
  184.8380  178.3180  144.3880 C   0  0  0  0  0  0  0  0  0  0  0  0
  182.6520  178.7910  143.4340 C   0  0  0  0  0  0  0  0  0  0  0  0
  185.3630  178.1720  143.0860 C   0  0  0  0  0  0  0  0  0  0  0  0
  184.5240  178.3170  141.9760 C   0  0  0  0  0  3  0  0  0  0  0  0
  183.4820  178.6420  144.5480 C   0  0  0  0  0  3  0  0  0  0  0  0
  181.2180  179.1320  143.6180 C   0  0  0  0  0  1  0  0  0  0  0  0
  183.1720  178.6270  142.1480 C   0  0  0  0  0  3  0  0  0  0  0  0
  185.2120  178.8430  146.7260 O   0  0  0  0  0  1  0  0  0  0  0  0
  185.7310  178.1940  145.6000 C   0  0  2  0  0  3  0  0  0  0  0  0
  187.0700  178.5580  145.3460 O   0  0  0  0  0  0  0  0  0  0  0  0
  187.9060  177.8810  146.2500 C   0  0  0  0  0  2  0  0  0  0  0  0
  188.9760  177.1120  145.4900 C   0  0  0  0  0  2  0  0  0  0  0  0
  191.0980  177.4590  144.2190 C   0  0  0  0  0  1  0  0  0  0  0  0
  190.2720  177.9030  145.4110 C   0  0  0  0  0  2  0  0  0  0  0  0
  1  6  1  0  0  0  0
  2  3  2  0  0  0  0
  3 22  1  0  0  0  0
  4  9  1  0  0  0  0
  5  8  1  0  0  0  0
  6  5  2  0  0  0  0
  7  1  1  0  0  0  0
  7  4  2  0  0  0  0
  8  3  1  0  0  0  0
  9 19  1  6  0  0  0
  9 10  1  0  0  0  0
 10  5  1  1  0  0  0
 10  2  1  0  0  0  0
 11 12  2  0  0  0  0
 12 13  1  0  0  0  0
 13 15  1  0  0  0  0
 14 17  1  0  0  0  0
 14 19  2  0  0  0  0
 15 21  1  6  0  0  0
 16 12  1  0  0  0  0
 16 17  1  0  0  0  0
 18 16  2  0  0  0  0
 19 15  1  0  0  0  0
 20 21  1  0  0  0  0
 22 23  1  0  0  0  0
 23 24  1  0  0  0  0
 24 27  1  0  0  0  0
 25 29  1  0  0  0  0
 25 33  1  0  0  0  0
 26 30  1  0  0  0  0
 26 29  2  0  0  0  0
 27 25  2  0  0  0  0
 28 31  2  0  0  0  0
 28 27  1  0  0  0  0
 31 26  1  0  0  0  0
 33 32  1  1  0  0  0
 34 33  1  0  0  0  0
 34 35  1  0  0  0  0
 36 35  1  0  0  0  0
 37 38  1  0  0  0  0
 38 36  1  0  0  0  0
M  END
>  <MODEL>
7

>  <REMARK>
 VINA RESULT:      -7.2      3.673      6.531
  Name = 
  11 active torsions:
  status: ('A' for Active; 'I' for Inactive)
    1  A    between atoms: C_6  and  C_17
    2  A    between atoms: C_7  and  C_28
    3  A    between atoms: C_13  and  C_14
    4  A    between atoms: C_13  and  C_26
    5  A    between atoms: C_15  and  CA_22
    6  A    between atoms: C_17  and  O_18
    7  A    between atoms: O_18  and  C_26
    8  A    between atoms: C_20  and  C_30
    9  A    between atoms: C_20  and  C_32
   10  A    between atoms: C_27  and  C_38
   11  A    between atoms: C_28  and  C_30
                            x       y       z     vdW  Elec       q    Type
                         _______ _______ _______ _____ _____    ______ ____

>  <TORSDO>
F 11

$$$$
=
 OpenBabel11042410043D

 38 41  0  0  1  0  0  0  0  0999 V2000
  185.5380  178.8340  142.7930 C   0  0  0  0  0  2  0  0  0  0  0  0
  188.9970  178.7430  140.2960 N   0  0  0  0  0  0  0  0  0  0  0  0
  188.3270  178.6280  139.1910 C   0  0  0  0  0  0  0  0  0  0  0  0
  187.3240  177.1260  143.3340 C   0  0  0  0  0  3  0  0  0  0  0  0
  186.7760  178.6280  140.7540 C   0  0  0  0  0  0  0  0  0  0  0  0
  185.6280  178.6520  141.3510 N   0  0  0  0  0  0  0  0  0  0  0  0
  186.1040  177.6540  143.5280 C   0  0  0  0  0  3  0  0  0  0  0  0
  186.9180  178.5250  139.3500 N   0  0  0  0  0  2  0  0  0  0  0  0
  188.3810  177.5370  142.3260 C   0  0  1  0  0  3  0  0  0  0  0  0
  188.0910  178.7560  141.4380 C   0  0  1  0  0  3  0  0  0  0  0  0
  192.0700  174.8220  145.2350 C   0  0  0  0  0  1  0  0  0  0  0  0
  191.6670  175.9390  144.6430 C   0  0  0  0  0  0  0  0  0  0  0  0
  191.3780  175.8850  143.2380 N   0  0  0  0  0  0  0  0  0  0  0  0
  189.7930  178.3120  144.1200 N   0  0  0  0  0  0  0  0  0  0  0  0
  190.9580  177.0200  142.4260 C   0  0  2  0  0  3  0  0  0  0  0  0
  191.4530  177.1620  145.4590 C   0  0  0  0  0  0  0  0  0  0  0  0
  191.0320  178.4630  144.8480 C   0  0  0  0  0  2  0  0  0  0  0  0
  191.6400  177.1280  146.7040 O   0  0  0  0  0  0  0  0  0  0  0  0
  189.7180  177.6660  143.0040 C   0  0  0  0  0  0  0  0  0  0  0  0
  191.8460  177.2160  140.1940 O   0  0  0  0  0  1  0  0  0  0  0  0
  190.8400  176.6190  140.9570 C   0  0  0  0  0  2  0  0  0  0  0  0
  188.9830  178.4980  137.8520 C   0  0  0  0  0  2  0  0  0  0  0  0
  187.9690  178.4960  136.7180 C   0  0  0  0  0  2  0  0  0  0  0  0
  188.2030  177.2950  135.8180 C   0  0  0  0  0  2  0  0  0  0  0  0
  187.9480  174.8740  136.5200 C   0  0  0  0  0  0  0  0  0  0  0  0
  185.7560  174.0170  137.1280 C   0  0  0  0  0  0  0  0  0  0  0  0
  187.3730  176.1390  136.2710 C   0  0  0  0  0  0  0  0  0  0  0  0
  185.9960  176.3220  136.4350 C   0  0  0  0  0  3  0  0  0  0  0  0
  187.1290  173.8240  136.9620 C   0  0  0  0  0  3  0  0  0  0  0  0
  184.9010  172.8960  137.5950 C   0  0  0  0  0  1  0  0  0  0  0  0
  185.1890  175.2650  136.8620 C   0  0  0  0  0  3  0  0  0  0  0  0
  189.7610  173.7610  135.3540 O   0  0  0  0  0  1  0  0  0  0  0  0
  189.4370  174.6610  136.3780 C   0  0  2  0  0  3  0  0  0  0  0  0
  190.0730  174.3340  137.5940 O   0  0  0  0  0  0  0  0  0  0  0  0
  191.4550  174.5480  137.4570 C   0  0  0  0  0  2  0  0  0  0  0  0
  191.7180  175.9880  137.0460 C   0  0  0  0  0  2  0  0  0  0  0  0
  193.9290  175.2710  137.9630 C   0  0  0  0  0  1  0  0  0  0  0  0
  193.1930  176.3370  137.1730 C   0  0  0  0  0  2  0  0  0  0  0  0
  1  7  1  0  0  0  0
  3  8  1  0  0  0  0
  3  2  2  0  0  0  0
  4  7  2  0  0  0  0
  5  6  2  0  0  0  0
  5 10  1  0  0  0  0
  6  1  1  0  0  0  0
  8  5  1  0  0  0  0
  9 19  1  1  0  0  0
  9  4  1  0  0  0  0
 10  2  1  6  0  0  0
 10  9  1  0  0  0  0
 12 11  1  0  0  0  0
 12 16  1  0  0  0  0
 13 12  2  0  0  0  0
 14 17  1  0  0  0  0
 15 21  1  6  0  0  0
 15 19  1  0  0  0  0
 15 13  1  0  0  0  0
 16 18  2  0  0  0  0
 17 16  1  0  0  0  0
 19 14  2  0  0  0  0
 20 21  1  0  0  0  0
 22  3  1  0  0  0  0
 23 22  1  0  0  0  0
 24 27  1  0  0  0  0
 24 23  1  0  0  0  0
 25 29  1  0  0  0  0
 26 30  1  0  0  0  0
 27 28  1  0  0  0  0
 27 25  2  0  0  0  0
 28 31  2  0  0  0  0
 29 26  2  0  0  0  0
 31 26  1  0  0  0  0
 33 32  1  6  0  0  0
 33 25  1  0  0  0  0
 33 34  1  0  0  0  0
 35 34  1  0  0  0  0
 36 38  1  0  0  0  0
 36 35  1  0  0  0  0
 38 37  1  0  0  0  0
M  END
>  <MODEL>
8

>  <REMARK>
 VINA RESULT:      -7.0      3.448      8.338
  Name = 
  11 active torsions:
  status: ('A' for Active; 'I' for Inactive)
    1  A    between atoms: C_6  and  C_17
    2  A    between atoms: C_7  and  C_28
    3  A    between atoms: C_13  and  C_14
    4  A    between atoms: C_13  and  C_26
    5  A    between atoms: C_15  and  CA_22
    6  A    between atoms: C_17  and  O_18
    7  A    between atoms: O_18  and  C_26
    8  A    between atoms: C_20  and  C_30
    9  A    between atoms: C_20  and  C_32
   10  A    between atoms: C_27  and  C_38
   11  A    between atoms: C_28  and  C_30
                            x       y       z     vdW  Elec       q    Type
                         _______ _______ _______ _____ _____    ______ ____

>  <TORSDO>
F 11

$$$$
=
 OpenBabel11042410043D

 38 41  0  0  1  0  0  0  0  0999 V2000
  186.4640  177.9560  135.9440 C   0  0  0  0  0  2  0  0  0  0  0  0
  184.7240  178.9450  139.7120 N   0  0  0  0  0  0  0  0  0  0  0  0
  185.8130  178.7400  140.3890 C   0  0  0  0  0  0  0  0  0  0  0  0
  184.3510  176.7340  136.6100 C   0  0  0  0  0  3  0  0  0  0  0  0
  186.3680  178.2250  138.3210 C   0  0  0  0  0  0  0  0  0  0  0  0
  187.0570  177.9080  137.2730 N   0  0  0  0  0  0  0  0  0  0  0  0
  185.3960  176.9130  135.7850 C   0  0  0  0  0  3  0  0  0  0  0  0
  186.9140  178.2640  139.6260 N   0  0  0  0  0  2  0  0  0  0  0  0
  184.0240  177.4770  137.8930 C   0  0  1  0  0  3  0  0  0  0  0  0
  184.9400  178.6410  138.3030 C   0  0  1  0  0  3  0  0  0  0  0  0
  179.1480  176.3100  135.8170 C   0  0  0  0  0  2  0  0  0  0  0  0
  179.9180  177.0610  136.5940 C   0  0  0  0  0  0  0  0  0  0  0  0
  180.6570  176.4080  137.6360 N   0  0  0  0  0  2  0  0  0  0  0  0
  182.2410  178.9610  137.2390 N   0  0  0  0  0  0  0  0  0  0  0  0
  181.5210  177.0820  138.5980 C   0  0  2  0  0  3  0  0  0  0  0  0
  180.0490  178.5130  136.3070 C   0  0  0  0  0  0  0  0  0  0  0  0
  180.8740  179.4230  137.1650 C   0  0  0  0  0  2  0  0  0  0  0  0
  179.4430  179.0170  135.3250 O   0  0  0  0  0  0  0  0  0  0  0  0
  182.5800  177.8990  137.8900 C   0  0  0  0  0  0  0  0  0  0  0  0
  181.0580  175.2290  140.0680 O   0  0  0  0  0  1  0  0  0  0  0  0
  182.0640  176.0910  139.6250 C   0  0  0  0  0  2  0  0  0  0  0  0
  185.8850  178.8820  141.8770 C   0  0  0  0  0  2  0  0  0  0  0  0
  187.2790  178.5880  142.4110 C   0  0  0  0  0  2  0  0  0  0  0  0
  187.2810  177.2590  143.1460 C   0  0  0  0  0  2  0  0  0  0  0  0
  188.8280  177.1110  145.1470 C   0  0  0  0  0  0  0  0  0  0  0  0
  188.0730  177.9010  147.3180 C   0  0  0  0  0  0  0  0  0  0  0  0
  187.5800  177.4690  144.5940 C   0  0  0  0  0  0  0  0  0  0  0  0
  186.5880  178.0200  145.4130 C   0  0  0  0  0  3  0  0  0  0  0  0
  189.0660  177.3450  146.5100 C   0  0  0  0  0  3  0  0  0  0  0  0
  188.3390  178.1410  148.7600 C   0  0  0  0  0  1  0  0  0  0  0  0
  186.8330  178.2360  146.7710 C   0  0  0  0  0  3  0  0  0  0  0  0
  191.1250  176.3530  144.9710 O   0  0  0  0  0  1  0  0  0  0  0  0
  189.9230  176.5410  144.2770 C   0  0  2  0  0  3  0  0  0  0  0  0
  190.1100  177.2550  143.0750 O   0  0  0  0  0  0  0  0  0  0  0  0
  191.4790  177.2630  142.7570 C   0  0  0  0  0  2  0  0  0  0  0  0
  191.6640  177.5240  141.2700 C   0  0  0  0  0  2  0  0  0  0  0  0
  190.4120  176.5600  139.3350 C   0  0  0  0  0  1  0  0  0  0  0  0
  190.3350  177.4860  140.5330 C   0  0  0  0  0  2  0  0  0  0  0  0
  1  6  1  0  0  0  0
  2  3  2  0  0  0  0
  3 22  1  0  0  0  0
  4  9  1  0  0  0  0
  5  8  1  0  0  0  0
  6  5  2  0  0  0  0
  7  1  1  0  0  0  0
  7  4  2  0  0  0  0
  8  3  1  0  0  0  0
  9 19  1  6  0  0  0
  9 10  1  0  0  0  0
 10  5  1  1  0  0  0
 10  2  1  0  0  0  0
 11 12  2  0  0  0  0
 12 13  1  0  0  0  0
 13 15  1  0  0  0  0
 14 19  2  0  0  0  0
 15 21  1  1  0  0  0
 16 12  1  0  0  0  0
 16 17  1  0  0  0  0
 17 14  1  0  0  0  0
 18 16  2  0  0  0  0
 19 15  1  0  0  0  0
 21 20  1  0  0  0  0
 22 23  1  0  0  0  0
 23 24  1  0  0  0  0
 24 27  1  0  0  0  0
 25 29  1  0  0  0  0
 26 30  1  0  0  0  0
 27 25  2  0  0  0  0
 27 28  1  0  0  0  0
 28 31  2  0  0  0  0
 29 26  2  0  0  0  0
 31 26  1  0  0  0  0
 33 32  1  1  0  0  0
 33 25  1  0  0  0  0
 34 33  1  0  0  0  0
 35 34  1  0  0  0  0
 36 35  1  0  0  0  0
 37 38  1  0  0  0  0
 38 36  1  0  0  0  0
M  END
>  <MODEL>
9

>  <REMARK>
 VINA RESULT:      -7.0      1.809      2.980
  Name = 
  11 active torsions:
  status: ('A' for Active; 'I' for Inactive)
    1  A    between atoms: C_6  and  C_17
    2  A    between atoms: C_7  and  C_28
    3  A    between atoms: C_13  and  C_14
    4  A    between atoms: C_13  and  C_26
    5  A    between atoms: C_15  and  CA_22
    6  A    between atoms: C_17  and  O_18
    7  A    between atoms: O_18  and  C_26
    8  A    between atoms: C_20  and  C_30
    9  A    between atoms: C_20  and  C_32
   10  A    between atoms: C_27  and  C_38
   11  A    between atoms: C_28  and  C_30
                            x       y       z     vdW  Elec       q    Type
                         _______ _______ _______ _____ _____    ______ ____

>  <TORSDO>
F 11

$$$$
