=
 OpenBabel11032420293D

 33 35  0  0  1  0  0  0  0  0999 V2000
  180.5400  176.6180  138.0880 C   0  0  0  0  0  0  0  0  0  0  0  0
  181.3450  178.6600  136.9220 C   0  0  0  0  0  3  0  0  0  0  0  0
  184.8370  177.8500  137.6300 O   0  0  0  0  0  0  0  0  0  0  0  0
  187.8650  177.0520  135.8260 C   0  0  0  0  0  2  0  0  0  0  0  0
  181.7100  171.4810  135.4280 C   0  0  0  0  0  2  0  0  0  0  0  0
  181.0230  172.6710  136.0920 C   0  0  0  0  0  2  0  0  0  0  0  0
  183.0000  176.6580  138.5400 C   0  0  0  0  0  3  0  0  0  0  0  0
  185.7680  176.7820  137.8000 C   0  0  2  0  0  3  0  0  0  0  0  0
  183.2300  171.4890  135.5970 C   0  0  2  0  0  3  0  0  0  0  0  0
  183.0360  175.1860  135.5430 C   0  0  0  0  0  2  0  0  0  0  0  0
  181.6000  176.3030  138.8310 C   0  0  0  0  0  3  0  0  0  0  0  0
  185.1060  174.5090  136.7120 C   0  0  2  0  0  3  0  0  0  0  0  0
  180.3970  172.2680  137.4230 C   0  0  2  0  0  3  0  0  0  0  0  0
  188.0890  177.5140  137.2400 C   0  0  0  0  0  0  0  0  0  0  0  0
  180.6840  177.3300  136.7700 C   0  0  2  0  0  3  0  0  0  0  0  0
  184.0030  174.2850  135.7150 C   0  0  0  0  0  0  0  0  0  0  0  0
  187.1200  177.3560  138.1510 C   0  0  0  0  0  3  0  0  0  0  0  0
  183.6590  171.4430  137.0540 C   0  0  0  0  0  1  0  0  0  0  0  0
  185.4850  172.4400  134.5950 O   0  0  0  0  0  0  0  0  0  0  0  0
  179.1500  171.4250  137.2080 C   0  0  0  0  0  1  0  0  0  0  0  0
  187.1340  175.7180  135.8550 C   0  0  0  0  0  2  0  0  0  0  0  0
  180.0910  173.4890  138.2880 C   0  0  0  0  0  2  0  0  0  0  0  0
  179.4460  177.4990  136.1460 O   0  0  0  0  0  1  0  0  0  0  0  0
  179.1140  174.4530  137.6230 C   0  0  0  0  0  2  0  0  0  0  0  0
  183.4600  177.7150  137.8530 C   0  0  0  0  0  0  0  0  0  0  0  0
  184.6420  174.2990  138.0130 O   0  0  0  0  0  1  0  0  0  0  0  0
  184.0170  172.8380  134.6750 S   0  0  1  0  0  0  0  0  0  0  0  0
  185.7700  175.8840  136.5290 C   0  0  2  0  0  3  0  0  0  0  0  0
  178.9470  175.9750  138.6130 S   0  0  0  0  0  0  0  0  0  0  0  0
  182.5930  178.8050  137.3680 C   0  0  0  0  0  3  0  0  0  0  0  0
  189.4180  178.0520  137.6740 C   0  0  0  0  0  3  0  0  0  0  0  0
  189.3420  178.5990  139.0870 C   0  0  0  0  0  1  0  0  0  0  0  0
  190.4880  176.9790  137.5900 C   0  0  0  0  0  1  0  0  0  0  0  0
  1 29  1  0  0  0  0
  1 11  2  0  0  0  0
  2 30  2  0  0  0  0
  3  8  1  0  0  0  0
  3 25  1  0  0  0  0
  4 21  1  0  0  0  0
  4 14  1  0  0  0  0
  5  9  1  0  0  0  0
  5  6  1  0  0  0  0
  6 13  1  0  0  0  0
  7 11  1  0  0  0  0
  8 17  1  6  0  0  0
  9 18  1  1  0  0  0
 10 16  2  0  0  0  0
 12 26  1  1  0  0  0
 13 20  1  6  0  0  0
 13 22  1  0  0  0  0
 14 31  1  0  0  0  0
 14 17  2  0  0  0  0
 15 23  1  1  0  0  0
 15  2  1  0  0  0  0
 15  1  1  0  0  0  0
 16 12  1  0  0  0  0
 24 22  1  0  0  0  0
 24 29  1  0  0  0  0
 25  7  2  0  0  0  0
 27 19  2  1  0  0  0
 27  9  1  0  0  0  0
 27 16  1  0  0  0  0
 28 21  1  1  0  0  0
 28 12  1  0  0  0  0
 28  8  1  0  0  0  0
 30 25  1  0  0  0  0
 31 32  1  0  0  0  0
 33 31  1  0  0  0  0
M  END
>  <MODEL>
1

>  <REMARK>
 VINA RESULT:      -4.8      0.000      0.000
  Name = 
  1 active torsions:
  status: ('A' for Active; 'I' for Inactive)
    1  A    between atoms: C_1  and  C_17
                            x       y       z     vdW  Elec       q    Type
                         _______ _______ _______ _____ _____    ______ ____

>  <TORSDO>
F 1

$$$$
=
 OpenBabel11032420293D

 33 35  0  0  1  0  0  0  0  0999 V2000
  186.9720  174.0650  135.2280 C   0  0  0  0  0  0  0  0  0  0  0  0
  188.2020  171.9330  135.5670 C   0  0  0  0  0  3  0  0  0  0  0  0
  191.4320  173.5530  135.0260 O   0  0  0  0  0  0  0  0  0  0  0  0
  194.4750  174.2320  136.8530 C   0  0  0  0  0  2  0  0  0  0  0  0
  187.6130  178.1300  139.4590 C   0  0  0  0  0  2  0  0  0  0  0  0
  187.0510  177.1290  138.4540 C   0  0  0  0  0  2  0  0  0  0  0  0
  189.3470  174.6270  134.6770 C   0  0  0  0  0  3  0  0  0  0  0  0
  192.1650  174.7650  135.1980 C   0  0  2  0  0  3  0  0  0  0  0  0
  189.0890  178.4550  139.2280 C   0  0  2  0  0  3  0  0  0  0  0  0
  189.4740  174.9850  137.9950 C   0  0  0  0  0  2  0  0  0  0  0  0
  187.8870  174.8000  134.5940 C   0  0  0  0  0  3  0  0  0  0  0  0
  191.2790  176.3790  137.0410 C   0  0  2  0  0  3  0  0  0  0  0  0
  186.2330  177.8360  137.3780 C   0  0  2  0  0  3  0  0  0  0  0  0
  194.6160  174.3210  135.3580 C   0  0  0  0  0  0  0  0  0  0  0  0
  187.3630  172.9900  136.2040 C   0  0  2  0  0  3  0  0  0  0  0  0
  190.2670  176.0510  138.1040 C   0  0  0  0  0  0  0  0  0  0  0  0
  193.5440  174.5980  134.6060 C   0  0  0  0  0  3  0  0  0  0  0  0
  189.3490  179.0660  137.8610 C   0  0  0  0  0  1  0  0  0  0  0  0
  191.5580  177.6480  139.7280 O   0  0  0  0  0  0  0  0  0  0  0  0
  184.9010  178.3160  137.9320 C   0  0  0  0  0  1  0  0  0  0  0  0
  193.5480  175.3420  137.3270 C   0  0  0  0  0  2  0  0  0  0  0  0
  186.0290  176.9430  136.1550 C   0  0  0  0  0  2  0  0  0  0  0  0
  186.2400  172.4000  136.7870 O   0  0  0  0  0  1  0  0  0  0  0  0
  185.2880  175.6510  136.4860 C   0  0  0  0  0  2  0  0  0  0  0  0
  190.0360  173.5030  134.9290 C   0  0  0  0  0  0  0  0  0  0  0  0
  190.6530  176.9270  135.9190 O   0  0  0  0  0  1  0  0  0  0  0  0
  190.1680  177.0410  139.5820 S   0  0  1  0  0  0  0  0  0  0  0  0
  192.1630  175.1680  136.7010 C   0  0  2  0  0  3  0  0  0  0  0  0
  185.2530  174.5480  135.0350 S   0  0  0  0  0  0  0  0  0  0  0  0
  189.4030  172.1750  135.0410 C   0  0  0  0  0  3  0  0  0  0  0  0
  195.9580  174.2110  134.7020 C   0  0  0  0  0  3  0  0  0  0  0  0
  196.7050  175.5300  134.7790 C   0  0  0  0  0  1  0  0  0  0  0  0
  196.7840  173.1100  135.3420 C   0  0  0  0  0  1  0  0  0  0  0  0
  1 15  1  0  0  0  0
  2 15  1  0  0  0  0
  3  8  1  0  0  0  0
  4 21  1  0  0  0  0
  6  5  1  0  0  0  0
  7 25  2  0  0  0  0
  8 17  1  1  0  0  0
  8 28  1  0  0  0  0
  9 18  1  6  0  0  0
  9  5  1  0  0  0  0
  9 27  1  0  0  0  0
 10 16  2  0  0  0  0
 11  7  1  0  0  0  0
 11  1  2  0  0  0  0
 12 26  1  6  0  0  0
 12 16  1  0  0  0  0
 13 20  1  1  0  0  0
 13  6  1  0  0  0  0
 14  4  1  0  0  0  0
 15 23  1  6  0  0  0
 16 27  1  0  0  0  0
 17 14  2  0  0  0  0
 22 24  1  0  0  0  0
 22 13  1  0  0  0  0
 25  3  1  0  0  0  0
 25 30  1  0  0  0  0
 27 19  2  6  0  0  0
 28 12  1  0  0  0  0
 28 21  1  6  0  0  0
 29  1  1  0  0  0  0
 29 24  1  0  0  0  0
 30  2  2  0  0  0  0
 31 32  1  0  0  0  0
 31 33  1  0  0  0  0
 31 14  1  0  0  0  0
M  END
>  <MODEL>
2

>  <REMARK>
 VINA RESULT:      -4.7      4.133      8.066
  Name = 
  1 active torsions:
  status: ('A' for Active; 'I' for Inactive)
    1  A    between atoms: C_1  and  C_17
                            x       y       z     vdW  Elec       q    Type
                         _______ _______ _______ _____ _____    ______ ____

>  <TORSDO>
F 1

$$$$
=
 OpenBabel11032420293D

 33 35  0  0  1  0  0  0  0  0999 V2000
  189.5210  177.8480  142.1370 C   0  0  0  0  0  0  0  0  0  0  0  0
  187.4340  176.9890  143.1770 C   0  0  0  0  0  3  0  0  0  0  0  0
  185.3450  178.6780  140.7000 O   0  0  0  0  0  0  0  0  0  0  0  0
  182.9970  177.8290  138.0870 C   0  0  0  0  0  2  0  0  0  0  0  0
  190.9080  175.5950  136.8620 C   0  0  0  0  0  2  0  0  0  0  0  0
  190.9240  176.0410  138.3210 C   0  0  0  0  0  2  0  0  0  0  0  0
  187.6880  179.0000  140.8840 C   0  0  0  0  0  3  0  0  0  0  0  0
  185.2720  179.1020  139.3390 C   0  0  2  0  0  3  0  0  0  0  0  0
  189.7580  176.2000  136.0560 C   0  0  2  0  0  3  0  0  0  0  0  0
  187.7720  176.1290  139.1800 C   0  0  0  0  0  2  0  0  0  0  0  0
  189.0550  178.8660  141.4120 C   0  0  0  0  0  3  0  0  0  0  0  0
  186.8300  177.8450  137.6710 C   0  0  2  0  0  3  0  0  0  0  0  0
  191.9690  177.1270  138.5490 C   0  0  2  0  0  3  0  0  0  0  0  0
  182.9030  179.2520  138.5680 C   0  0  0  0  0  0  0  0  0  0  0  0
  188.6770  176.6380  142.4300 C   0  0  2  0  0  3  0  0  0  0  0  0
  187.5760  176.5670  137.9360 C   0  0  0  0  0  0  0  0  0  0  0  0
  183.9730  179.8380  139.1190 C   0  0  0  0  0  3  0  0  0  0  0  0
  189.8060  177.7190  136.0150 C   0  0  0  0  0  1  0  0  0  0  0  0
  187.2050  175.9100  135.4290 O   0  0  0  0  0  0  0  0  0  0  0  0
  193.3750  176.5490  138.5140 C   0  0  0  0  0  1  0  0  0  0  0  0
  184.3420  177.6290  137.4030 C   0  0  0  0  0  2  0  0  0  0  0  0
  191.7180  177.8780  139.8560 C   0  0  0  0  0  2  0  0  0  0  0  0
  189.3940  175.6810  143.1510 O   0  0  0  0  0  1  0  0  0  0  0  0
  191.7640  176.9660  141.0780 C   0  0  0  0  0  2  0  0  0  0  0  0
  186.5520  178.4880  141.3850 C   0  0  0  0  0  0  0  0  0  0  0  0
  187.6310  178.9520  137.9630 O   0  0  0  0  0  1  0  0  0  0  0  0
  188.1430  175.5620  136.5780 S   0  0  1  0  0  0  0  0  0  0  0  0
  185.4770  177.8780  138.4000 C   0  0  2  0  0  3  0  0  0  0  0  0
  191.2630  177.8790  142.5740 S   0  0  0  0  0  0  0  0  0  0  0  0
  186.4850  177.7820  142.6790 C   0  0  0  0  0  3  0  0  0  0  0  0
  181.6620  180.0600  138.3430 C   0  0  0  0  0  3  0  0  0  0  0  0
  181.9630  181.5450  138.4340 C   0  0  0  0  0  1  0  0  0  0  0  0
  181.0430  179.7370  136.9960 C   0  0  0  0  0  1  0  0  0  0  0  0
  1 15  1  0  0  0  0
  1 29  1  0  0  0  0
  3 25  1  0  0  0  0
  4 14  1  0  0  0  0
  5  6  1  0  0  0  0
  6 13  1  0  0  0  0
  7 25  2  0  0  0  0
  7 11  1  0  0  0  0
  8 17  1  1  0  0  0
  8  3  1  0  0  0  0
  9 18  1  1  0  0  0
  9 27  1  0  0  0  0
  9  5  1  0  0  0  0
 11  1  2  0  0  0  0
 12 16  1  0  0  0  0
 12 26  1  1  0  0  0
 12 28  1  0  0  0  0
 13 20  1  1  0  0  0
 13 22  1  0  0  0  0
 14 17  2  0  0  0  0
 15 23  1  1  0  0  0
 15  2  1  0  0  0  0
 16 10  2  0  0  0  0
 21  4  1  0  0  0  0
 22 24  1  0  0  0  0
 24 29  1  0  0  0  0
 25 30  1  0  0  0  0
 27 19  2  6  0  0  0
 27 16  1  0  0  0  0
 28 21  1  6  0  0  0
 28  8  1  0  0  0  0
 30  2  2  0  0  0  0
 31 32  1  0  0  0  0
 31 14  1  0  0  0  0
 33 31  1  0  0  0  0
M  END
>  <MODEL>
3

>  <REMARK>
 VINA RESULT:      -4.1      4.320      8.426
  Name = 
  1 active torsions:
  status: ('A' for Active; 'I' for Inactive)
    1  A    between atoms: C_1  and  C_17
                            x       y       z     vdW  Elec       q    Type
                         _______ _______ _______ _____ _____    ______ ____

>  <TORSDO>
F 1

$$$$
=
 OpenBabel11032420293D

 33 35  0  0  1  0  0  0  0  0999 V2000
  190.3850  177.5580  140.4230 C   0  0  0  0  0  0  0  0  0  0  0  0
  188.6190  177.1230  142.1160 C   0  0  0  0  0  3  0  0  0  0  0  0
  186.0190  178.5160  139.9590 O   0  0  0  0  0  0  0  0  0  0  0  0
  183.0170  177.4290  138.2670 C   0  0  0  0  0  2  0  0  0  0  0  0
  190.1910  174.2240  135.5570 C   0  0  0  0  0  2  0  0  0  0  0  0
  190.6200  174.9330  136.8380 C   0  0  0  0  0  2  0  0  0  0  0  0
  188.3370  178.6310  139.4680 C   0  0  0  0  0  3  0  0  0  0  0  0
  185.6020  178.6800  138.6040 C   0  0  2  0  0  3  0  0  0  0  0  0
  188.8950  174.7790  134.9630 C   0  0  2  0  0  3  0  0  0  0  0  0
  187.8250  175.4960  138.4350 C   0  0  0  0  0  2  0  0  0  0  0  0
  189.7890  178.4620  139.6460 C   0  0  0  0  0  3  0  0  0  0  0  0
  186.5910  176.9830  136.8930 C   0  0  2  0  0  3  0  0  0  0  0  0
  191.7380  175.9330  136.5610 C   0  0  2  0  0  3  0  0  0  0  0  0
  183.1210  178.9190  138.4490 C   0  0  0  0  0  0  0  0  0  0  0  0
  189.5970  176.5150  141.1670 C   0  0  2  0  0  3  0  0  0  0  0  0
  187.3210  175.7100  137.2190 C   0  0  0  0  0  0  0  0  0  0  0  0
  184.3270  179.4880  138.5750 C   0  0  0  0  0  3  0  0  0  0  0  0
  189.0000  176.2500  134.5960 C   0  0  0  0  0  1  0  0  0  0  0  0
  186.2570  174.6330  135.0830 O   0  0  0  0  0  0  0  0  0  0  0  0
  193.0530  175.2210  136.2890 C   0  0  0  0  0  1  0  0  0  0  0  0
  184.1160  176.9700  137.3200 C   0  0  0  0  0  2  0  0  0  0  0  0
  191.8840  176.9380  137.7020 C   0  0  0  0  0  2  0  0  0  0  0  0
  190.4370  175.6440  141.8640 O   0  0  0  0  0  1  0  0  0  0  0  0
  192.2160  176.2720  139.0340 C   0  0  0  0  0  2  0  0  0  0  0  0
  187.3560  178.3380  140.3370 C   0  0  0  0  0  0  0  0  0  0  0  0
  187.4920  178.0390  136.7340 O   0  0  0  0  0  1  0  0  0  0  0  0
  187.4530  174.4160  136.0010 S   0  0  1  0  0  0  0  0  0  0  0  0
  185.4880  177.2880  137.9200 C   0  0  2  0  0  3  0  0  0  0  0  0
  192.1800  177.4960  140.3850 S   0  0  0  0  0  0  0  0  0  0  0  0
  187.6080  177.8980  141.7230 C   0  0  0  0  0  3  0  0  0  0  0  0
  181.9050  179.7900  138.3850 C   0  0  0  0  0  3  0  0  0  0  0  0
  182.2680  181.2410  138.6410 C   0  0  0  0  0  1  0  0  0  0  0  0
  181.2150  179.6570  137.0400 C   0  0  0  0  0  1  0  0  0  0  0  0
  1 15  1  0  0  0  0
  3 25  1  0  0  0  0
  4 14  1  0  0  0  0
  5  6  1  0  0  0  0
  7 11  1  0  0  0  0
  7 25  2  0  0  0  0
  8 17  1  1  0  0  0
  8  3  1  0  0  0  0
  9 18  1  1  0  0  0
  9  5  1  0  0  0  0
  9 27  1  0  0  0  0
 11  1  2  0  0  0  0
 12 26  1  1  0  0  0
 12 16  1  0  0  0  0
 12 28  1  0  0  0  0
 13 20  1  1  0  0  0
 13  6  1  0  0  0  0
 13 22  1  0  0  0  0
 14 17  2  0  0  0  0
 15 23  1  1  0  0  0
 15  2  1  0  0  0  0
 16 10  2  0  0  0  0
 21  4  1  0  0  0  0
 22 24  1  0  0  0  0
 24 29  1  0  0  0  0
 25 30  1  0  0  0  0
 27 19  2  6  0  0  0
 27 16  1  0  0  0  0
 28 21  1  6  0  0  0
 28  8  1  0  0  0  0
 29  1  1  0  0  0  0
 30  2  2  0  0  0  0
 31 14  1  0  0  0  0
 31 32  1  0  0  0  0
 33 31  1  0  0  0  0
M  END
>  <MODEL>
4

>  <REMARK>
 VINA RESULT:      -4.0      3.925      8.095
  Name = 
  1 active torsions:
  status: ('A' for Active; 'I' for Inactive)
    1  A    between atoms: C_1  and  C_17
                            x       y       z     vdW  Elec       q    Type
                         _______ _______ _______ _____ _____    ______ ____

>  <TORSDO>
F 1

$$$$
=
 OpenBabel11032420293D

 33 35  0  0  1  0  0  0  0  0999 V2000
  184.1850  176.8160  136.0020 C   0  0  0  0  0  0  0  0  0  0  0  0
  185.5650  174.9580  136.9070 C   0  0  0  0  0  3  0  0  0  0  0  0
  187.1950  177.1640  139.3210 O   0  0  0  0  0  0  0  0  0  0  0  0
  187.4700  177.5450  142.9040 C   0  0  0  0  0  2  0  0  0  0  0  0
  179.9760  178.9000  139.5760 C   0  0  0  0  0  2  0  0  0  0  0  0
  180.7460  178.3060  138.4000 C   0  0  0  0  0  2  0  0  0  0  0  0
  185.7490  177.9320  137.6050 C   0  0  0  0  0  3  0  0  0  0  0  0
  187.0130  178.3090  140.1520 C   0  0  2  0  0  3  0  0  0  0  0  0
  180.8810  179.5270  140.6370 C   0  0  2  0  0  3  0  0  0  0  0  0
  183.3920  176.9520  139.7580 C   0  0  0  0  0  2  0  0  0  0  0  0
  184.8650  177.8810  136.4290 C   0  0  0  0  0  3  0  0  0  0  0  0
  184.5500  178.8850  140.7740 C   0  0  2  0  0  3  0  0  0  0  0  0
  180.7080  179.2390  137.1940 C   0  0  2  0  0  3  0  0  0  0  0  0
  188.5470  178.2460  142.1210 C   0  0  0  0  0  0  0  0  0  0  0  0
  184.1890  175.5200  136.7660 C   0  0  2  0  0  3  0  0  0  0  0  0
  183.3500  177.9990  140.5810 C   0  0  0  0  0  0  0  0  0  0  0  0
  188.3120  178.6200  140.8570 C   0  0  0  0  0  3  0  0  0  0  0  0
  181.7260  180.6660  140.0900 C   0  0  0  0  0  1  0  0  0  0  0  0
  182.3420  179.0030  142.7790 O   0  0  0  0  0  0  0  0  0  0  0  0
  179.3340  179.2340  136.5420 C   0  0  0  0  0  1  0  0  0  0  0  0
  186.1330  178.2060  142.6010 C   0  0  0  0  0  2  0  0  0  0  0  0
  181.7960  178.8880  136.1820 C   0  0  0  0  0  2  0  0  0  0  0  0
  183.3620  174.5720  136.1620 O   0  0  0  0  0  1  0  0  0  0  0  0
  181.6610  177.4690  135.6380 C   0  0  0  0  0  2  0  0  0  0  0  0
  186.4500  176.9290  138.1580 C   0  0  0  0  0  0  0  0  0  0  0  0
  184.7230  179.7250  139.6710 O   0  0  0  0  0  1  0  0  0  0  0  0
  181.8640  178.2870  141.5220 S   0  0  1  0  0  0  0  0  0  0  0  0
  185.8100  178.0730  141.1110 C   0  0  2  0  0  3  0  0  0  0  0  0
  183.0940  177.0470  134.5940 S   0  0  0  0  0  0  0  0  0  0  0  0
  186.5430  175.5820  137.5620 C   0  0  0  0  0  3  0  0  0  0  0  0
  189.8440  178.6280  142.7650 C   0  0  0  0  0  3  0  0  0  0  0  0
  189.8050  178.3550  144.2570 C   0  0  0  0  0  1  0  0  0  0  0  0
  191.0030  177.8810  142.1310 C   0  0  0  0  0  1  0  0  0  0  0  0
  1 11  2  0  0  0  0
  1 15  1  0  0  0  0
  2 30  2  0  0  0  0
  3  8  1  0  0  0  0
  5  9  1  0  0  0  0
  6  5  1  0  0  0  0
  7 25  2  0  0  0  0
  8 17  1  1  0  0  0
  8 28  1  0  0  0  0
  9 18  1  6  0  0  0
  9 27  1  0  0  0  0
 10 16  2  0  0  0  0
 11  7  1  0  0  0  0
 12 26  1  6  0  0  0
 12 28  1  0  0  0  0
 13 20  1  6  0  0  0
 13  6  1  0  0  0  0
 14 31  1  0  0  0  0
 14  4  1  0  0  0  0
 15 23  1  6  0  0  0
 15  2  1  0  0  0  0
 16 12  1  0  0  0  0
 16 27  1  0  0  0  0
 17 14  2  0  0  0  0
 21  4  1  0  0  0  0
 22 13  1  0  0  0  0
 24 22  1  0  0  0  0
 25  3  1  0  0  0  0
 27 19  2  1  0  0  0
 28 21  1  1  0  0  0
 29 24  1  0  0  0  0
 29  1  1  0  0  0  0
 30 25  1  0  0  0  0
 31 32  1  0  0  0  0
 33 31  1  0  0  0  0
M  END
>  <MODEL>
5

>  <REMARK>
 VINA RESULT:      -4.0      3.245      6.144
  Name = 
  1 active torsions:
  status: ('A' for Active; 'I' for Inactive)
    1  A    between atoms: C_1  and  C_17
                            x       y       z     vdW  Elec       q    Type
                         _______ _______ _______ _____ _____    ______ ____

>  <TORSDO>
F 1

$$$$
=
 OpenBabel11032420293D

 33 35  0  0  1  0  0  0  0  0999 V2000
  180.7960  178.4070  138.4780 C   0  0  0  0  0  0  0  0  0  0  0  0
  182.0750  180.5060  138.1100 C   0  0  0  0  0  3  0  0  0  0  0  0
  185.2240  178.9100  139.0520 O   0  0  0  0  0  0  0  0  0  0  0  0
  188.4130  178.0930  137.5610 C   0  0  0  0  0  2  0  0  0  0  0  0
  181.7730  174.0630  134.6040 C   0  0  0  0  0  2  0  0  0  0  0  0
  181.1330  175.1320  135.4850 C   0  0  0  0  0  2  0  0  0  0  0  0
  183.1040  177.8720  139.2810 C   0  0  0  0  0  3  0  0  0  0  0  0
  185.9550  177.6850  139.0300 C   0  0  2  0  0  3  0  0  0  0  0  0
  183.2180  173.7460  134.9910 C   0  0  2  0  0  3  0  0  0  0  0  0
  183.5280  177.2900  136.0200 C   0  0  0  0  0  2  0  0  0  0  0  0
  181.6400  177.7130  139.2410 C   0  0  0  0  0  3  0  0  0  0  0  0
  185.2230  175.9540  137.2260 C   0  0  2  0  0  3  0  0  0  0  0  0
  180.2130  174.5040  136.5260 C   0  0  2  0  0  3  0  0  0  0  0  0
  188.4160  178.1050  139.0660 C   0  0  0  0  0  0  0  0  0  0  0  0
  181.2860  179.4120  137.4710 C   0  0  2  0  0  3  0  0  0  0  0  0
  184.3160  176.2150  136.0550 C   0  0  0  0  0  0  0  0  0  0  0  0
  187.2770  177.8850  139.7330 C   0  0  0  0  0  3  0  0  0  0  0  0
  183.3460  173.2280  136.4140 C   0  0  0  0  0  1  0  0  0  0  0  0
  185.7310  174.5050  134.6660 O   0  0  0  0  0  0  0  0  0  0  0  0
  178.9310  173.9940  135.8860 C   0  0  0  0  0  1  0  0  0  0  0  0
  187.5210  176.9590  137.0800 C   0  0  0  0  0  2  0  0  0  0  0  0
  179.9080  175.4780  137.6620 C   0  0  0  0  0  2  0  0  0  0  0  0
  180.2270  179.9670  136.7500 O   0  0  0  0  0  1  0  0  0  0  0  0
  179.2150  176.7490  137.1800 C   0  0  0  0  0  2  0  0  0  0  0  0
  183.8250  178.9740  139.0180 C   0  0  0  0  0  0  0  0  0  0  0  0
  184.4920  175.4870  138.3200 O   0  0  0  0  0  1  0  0  0  0  0  0
  184.3410  175.1280  134.6430 S   0  0  1  0  0  0  0  0  0  0  0  0
  186.0860  177.1820  137.5640 C   0  0  2  0  0  3  0  0  0  0  0  0
  179.0600  177.9480  138.5440 S   0  0  0  0  0  0  0  0  0  0  0  0
  183.2200  180.2940  138.7590 C   0  0  0  0  0  3  0  0  0  0  0  0
  189.6940  178.2520  139.8330 C   0  0  0  0  0  3  0  0  0  0  0  0
  189.4660  178.0060  141.3130 C   0  0  0  0  0  1  0  0  0  0  0  0
  190.7530  177.3000  139.3070 C   0  0  0  0  0  1  0  0  0  0  0  0
  1 29  1  0  0  0  0
  1 11  2  0  0  0  0
  2 30  2  0  0  0  0
  4 14  1  0  0  0  0
  5  9  1  0  0  0  0
  5  6  1  0  0  0  0
  6 13  1  0  0  0  0
  8  3  1  0  0  0  0
  8 17  1  6  0  0  0
  9 18  1  1  0  0  0
 10 16  2  0  0  0  0
 11  7  1  0  0  0  0
 12 28  1  0  0  0  0
 12 26  1  1  0  0  0
 13 20  1  6  0  0  0
 13 22  1  0  0  0  0
 14 17  2  0  0  0  0
 14 31  1  0  0  0  0
 15 23  1  1  0  0  0
 15  2  1  0  0  0  0
 15  1  1  0  0  0  0
 16 12  1  0  0  0  0
 21  4  1  0  0  0  0
 24 22  1  0  0  0  0
 24 29  1  0  0  0  0
 25  3  1  0  0  0  0
 25  7  2  0  0  0  0
 27 19  2  1  0  0  0
 27  9  1  0  0  0  0
 27 16  1  0  0  0  0
 28 21  1  1  0  0  0
 28  8  1  0  0  0  0
 30 25  1  0  0  0  0
 31 32  1  0  0  0  0
 33 31  1  0  0  0  0
M  END
>  <MODEL>
6

>  <REMARK>
 VINA RESULT:      -3.9      1.713      2.075
  Name = 
  1 active torsions:
  status: ('A' for Active; 'I' for Inactive)
    1  A    between atoms: C_1  and  C_17
                            x       y       z     vdW  Elec       q    Type
                         _______ _______ _______ _____ _____    ______ ____

>  <TORSDO>
F 1

$$$$
=
 OpenBabel11032420293D

 33 35  0  0  1  0  0  0  0  0999 V2000
  181.2390  177.7960  139.2230 C   0  0  0  0  0  0  0  0  0  0  0  0
  182.3070  179.8680  138.3630 C   0  0  0  0  0  3  0  0  0  0  0  0
  185.6470  178.4060  138.5960 O   0  0  0  0  0  0  0  0  0  0  0  0
  188.3780  177.4970  136.4110 C   0  0  0  0  0  2  0  0  0  0  0  0
  181.3520  173.1290  135.6130 C   0  0  0  0  0  2  0  0  0  0  0  0
  180.9200  174.2660  136.5340 C   0  0  0  0  0  2  0  0  0  0  0  0
  183.6930  177.3660  139.4490 C   0  0  0  0  0  3  0  0  0  0  0  0
  186.3920  177.1930  138.4910 C   0  0  2  0  0  3  0  0  0  0  0  0
  182.8590  172.8670  135.6410 C   0  0  2  0  0  3  0  0  0  0  0  0
  183.2930  176.4930  136.2500 C   0  0  0  0  0  2  0  0  0  0  0  0
  182.2750  177.1860  139.8000 C   0  0  0  0  0  3  0  0  0  0  0  0
  185.2870  175.2950  137.0890 C   0  0  2  0  0  3  0  0  0  0  0  0
  180.3180  173.7240  137.8260 C   0  0  2  0  0  3  0  0  0  0  0  0
  188.7640  177.6450  137.8570 C   0  0  0  0  0  0  0  0  0  0  0  0
  181.4210  178.7110  138.0430 C   0  0  2  0  0  3  0  0  0  0  0  0
  184.1020  175.4370  136.1730 C   0  0  0  0  0  0  0  0  0  0  0  0
  187.8410  177.4730  138.8120 C   0  0  0  0  0  3  0  0  0  0  0  0
  183.3630  172.4830  137.0220 C   0  0  0  0  0  1  0  0  0  0  0  0
  185.1770  173.6250  134.6180 O   0  0  0  0  0  0  0  0  0  0  0  0
  178.9350  173.1410  137.5830 C   0  0  0  0  0  1  0  0  0  0  0  0
  187.4330  176.3110  136.2730 C   0  0  0  0  0  2  0  0  0  0  0  0
  180.2780  174.7940  138.9160 C   0  0  0  0  0  2  0  0  0  0  0  0
  180.1940  179.1840  137.5730 O   0  0  0  0  0  1  0  0  0  0  0  0
  179.4400  176.0060  138.5210 C   0  0  0  0  0  2  0  0  0  0  0  0
  184.2840  178.4480  138.9170 C   0  0  0  0  0  0  0  0  0  0  0  0
  184.8750  174.9200  138.3700 O   0  0  0  0  0  1  0  0  0  0  0  0
  183.8050  174.2250  134.9000 S   0  0  1  0  0  0  0  0  0  0  0  0
  186.1620  176.5590  137.0890 C   0  0  2  0  0  3  0  0  0  0  0  0
  179.5950  177.3230  139.7720 S   0  0  0  0  0  0  0  0  0  0  0  0
  183.5860  179.7320  138.7110 C   0  0  0  0  0  3  0  0  0  0  0  0
  190.1890  177.8780  138.2550 C   0  0  0  0  0  3  0  0  0  0  0  0
  190.3350  177.8720  139.7650 C   0  0  0  0  0  1  0  0  0  0  0  0
  191.0990  176.8300  137.6420 C   0  0  0  0  0  1  0  0  0  0  0  0
  1 29  1  0  0  0  0
  1 11  2  0  0  0  0
  2 30  2  0  0  0  0
  3 25  1  0  0  0  0
  4 14  1  0  0  0  0
  5  9  1  0  0  0  0
  5  6  1  0  0  0  0
  6 13  1  0  0  0  0
  7 11  1  0  0  0  0
  8  3  1  0  0  0  0
  8 17  1  6  0  0  0
  9 18  1  1  0  0  0
 12 26  1  1  0  0  0
 13 20  1  6  0  0  0
 13 22  1  0  0  0  0
 14 31  1  0  0  0  0
 14 17  2  0  0  0  0
 15 23  1  1  0  0  0
 15  2  1  0  0  0  0
 15  1  1  0  0  0  0
 16 10  2  0  0  0  0
 16 12  1  0  0  0  0
 21  4  1  0  0  0  0
 24 22  1  0  0  0  0
 24 29  1  0  0  0  0
 25  7  2  0  0  0  0
 27 19  2  1  0  0  0
 27  9  1  0  0  0  0
 27 16  1  0  0  0  0
 28 21  1  1  0  0  0
 28 12  1  0  0  0  0
 28  8  1  0  0  0  0
 30 25  1  0  0  0  0
 31 32  1  0  0  0  0
 33 31  1  0  0  0  0
M  END
>  <MODEL>
7

>  <REMARK>
 VINA RESULT:      -3.9      1.300      1.452
  Name = 
  1 active torsions:
  status: ('A' for Active; 'I' for Inactive)
    1  A    between atoms: C_1  and  C_17
                            x       y       z     vdW  Elec       q    Type
                         _______ _______ _______ _____ _____    ______ ____

>  <TORSDO>
F 1

$$$$
=
 OpenBabel11032420293D

 33 35  0  0  1  0  0  0  0  0999 V2000
  190.1830  177.3840  144.7890 C   0  0  0  0  0  0  0  0  0  0  0  0
  191.9890  178.4980  143.4960 C   0  0  0  0  0  3  0  0  0  0  0  0
  190.7800  177.1010  140.3440 O   0  0  0  0  0  0  0  0  0  0  0  0
  189.4290  178.2550  137.1970 C   0  0  0  0  0  2  0  0  0  0  0  0
  184.7250  179.4650  143.9410 C   0  0  0  0  0  2  0  0  0  0  0  0
  186.0490  179.0140  144.5510 C   0  0  0  0  0  2  0  0  0  0  0  0
  189.9290  176.4820  142.4690 C   0  0  0  0  0  3  0  0  0  0  0  0
  189.6160  176.6970  139.6260 C   0  0  2  0  0  3  0  0  0  0  0  0
  184.5430  179.0150  142.4910 C   0  0  2  0  0  3  0  0  0  0  0  0
  188.2140  179.3260  142.1230 C   0  0  0  0  0  2  0  0  0  0  0  0
  189.7930  176.4380  143.9350 C   0  0  0  0  0  3  0  0  0  0  0  0
  187.3680  177.7510  140.4150 C   0  0  2  0  0  3  0  0  0  0  0  0
  185.8510  177.8020  145.4550 C   0  0  2  0  0  3  0  0  0  0  0  0
  189.9770  176.8540  137.1610 C   0  0  0  0  0  0  0  0  0  0  0  0
  190.7530  178.6910  144.3100 C   0  0  2  0  0  3  0  0  0  0  0  0
  187.2090  178.9220  141.3450 C   0  0  0  0  0  0  0  0  0  0  0  0
  190.0300  176.1330  138.2880 C   0  0  0  0  0  3  0  0  0  0  0  0
  184.5650  177.5030  142.3380 C   0  0  0  0  0  1  0  0  0  0  0  0
  185.0910  179.6310  139.9780 O   0  0  0  0  0  0  0  0  0  0  0  0
  185.1690  178.1960  146.7550 C   0  0  0  0  0  1  0  0  0  0  0  0
  188.2130  178.2840  138.1110 C   0  0  0  0  0  2  0  0  0  0  0  0
  187.1720  177.0840  145.7250 C   0  0  0  0  0  2  0  0  0  0  0  0
  191.0320  179.5450  145.3790 O   0  0  0  0  0  1  0  0  0  0  0  0
  188.1980  177.9770  146.4140 C   0  0  0  0  0  2  0  0  0  0  0  0
  190.8520  177.1330  141.7430 C   0  0  0  0  0  0  0  0  0  0  0  0
  187.3340  176.5490  141.1280 O   0  0  0  0  0  1  0  0  0  0  0  0
  185.6890  179.8520  141.3630 S   0  0  1  0  0  0  0  0  0  0  0  0
  188.6190  177.8880  139.5330 C   0  0  2  0  0  3  0  0  0  0  0  0
  189.8080  177.1290  146.5270 S   0  0  0  0  0  0  0  0  0  0  0  0
  192.0030  177.8360  142.3400 C   0  0  0  0  0  3  0  0  0  0  0  0
  190.3660  176.2120  135.8650 C   0  0  0  0  0  3  0  0  0  0  0  0
  189.8900  174.7720  135.8130 C   0  0  0  0  0  1  0  0  0  0  0  0
  189.8030  176.9870  134.6870 C   0  0  0  0  0  1  0  0  0  0  0  0
  1 29  1  0  0  0  0
  2 15  1  0  0  0  0
  3 25  1  0  0  0  0
  4 21  1  0  0  0  0
  5  6  1  0  0  0  0
  6 13  1  0  0  0  0
  7 11  1  0  0  0  0
  8 17  1  6  0  0  0
  8  3  1  0  0  0  0
  9 18  1  1  0  0  0
  9  5  1  0  0  0  0
 11  1  2  0  0  0  0
 12 26  1  1  0  0  0
 12 16  1  0  0  0  0
 13 22  1  0  0  0  0
 13 20  1  1  0  0  0
 14  4  1  0  0  0  0
 14 17  2  0  0  0  0
 15  1  1  0  0  0  0
 15 23  1  1  0  0  0
 16 27  1  0  0  0  0
 16 10  2  0  0  0  0
 22 24  1  0  0  0  0
 24 29  1  0  0  0  0
 25 30  1  0  0  0  0
 25  7  2  0  0  0  0
 27 19  2  6  0  0  0
 27  9  1  0  0  0  0
 28 21  1  6  0  0  0
 28  8  1  0  0  0  0
 28 12  1  0  0  0  0
 30  2  2  0  0  0  0
 31 14  1  0  0  0  0
 32 31  1  0  0  0  0
 33 31  1  0  0  0  0
M  END
>  <MODEL>
8

>  <REMARK>
 VINA RESULT:      -3.1      6.034      9.180
  Name = 
  1 active torsions:
  status: ('A' for Active; 'I' for Inactive)
    1  A    between atoms: C_1  and  C_17
                            x       y       z     vdW  Elec       q    Type
                         _______ _______ _______ _____ _____    ______ ____

>  <TORSDO>
F 1

$$$$
=
 OpenBabel11032420293D

 33 35  0  0  1  0  0  0  0  0999 V2000
  190.3700  177.6360  140.0540 C   0  0  0  0  0  0  0  0  0  0  0  0
  188.3340  177.2640  141.4300 C   0  0  0  0  0  3  0  0  0  0  0  0
  186.1420  177.6500  138.5330 O   0  0  0  0  0  0  0  0  0  0  0  0
  183.7810  175.6870  136.6280 C   0  0  0  0  0  2  0  0  0  0  0  0
  191.7450  173.3420  136.2450 C   0  0  0  0  0  2  0  0  0  0  0  0
  191.7700  174.3800  137.3630 C   0  0  0  0  0  2  0  0  0  0  0  0
  188.4740  178.0790  138.4840 C   0  0  0  0  0  3  0  0  0  0  0  0
  186.0290  177.4360  137.1270 C   0  0  2  0  0  3  0  0  0  0  0  0
  190.5590  173.5060  135.2930 C   0  0  2  0  0  3  0  0  0  0  0  0
  188.6330  174.7550  138.1990 C   0  0  0  0  0  2  0  0  0  0  0  0
  189.8550  178.2230  138.9740 C   0  0  0  0  0  3  0  0  0  0  0  0
  187.6020  175.6170  136.1240 C   0  0  2  0  0  3  0  0  0  0  0  0
  192.7790  175.4830  137.0620 C   0  0  2  0  0  3  0  0  0  0  0  0
  183.6420  177.1740  136.4440 C   0  0  0  0  0  0  0  0  0  0  0  0
  189.5760  176.6530  140.8720 C   0  0  2  0  0  3  0  0  0  0  0  0
  188.3990  174.6020  136.8950 C   0  0  0  0  0  0  0  0  0  0  0  0
  184.7000  177.9690  136.6500 C   0  0  0  0  0  3  0  0  0  0  0  0
  190.5500  174.8550  134.5940 C   0  0  0  0  0  1  0  0  0  0  0  0
  188.0070  172.9080  134.9370 O   0  0  0  0  0  0  0  0  0  0  0  0
  194.2040  174.9830  137.2370 C   0  0  0  0  0  1  0  0  0  0  0  0
  185.1190  175.2430  136.0560 C   0  0  0  0  0  2  0  0  0  0  0  0
  192.5240  176.7220  137.9190 C   0  0  0  0  0  2  0  0  0  0  0  0
  190.3410  176.1250  141.9140 O   0  0  0  0  0  1  0  0  0  0  0  0
  192.6250  176.4360  139.4140 C   0  0  0  0  0  2  0  0  0  0  0  0
  187.3670  177.8080  139.1940 C   0  0  0  0  0  0  0  0  0  0  0  0
  188.3670  176.7600  135.8790 O   0  0  0  0  0  1  0  0  0  0  0  0
  188.9780  173.1200  136.0930 S   0  0  1  0  0  0  0  0  0  0  0  0
  186.2620  175.9300  136.8090 C   0  0  2  0  0  3  0  0  0  0  0  0
  192.1180  177.8980  140.3780 S   0  0  0  0  0  0  0  0  0  0  0  0
  187.3490  177.7350  140.6680 C   0  0  0  0  0  3  0  0  0  0  0  0
  182.3690  177.7720  135.9300 C   0  0  0  0  0  3  0  0  0  0  0  0
  181.7950  178.7590  136.9290 C   0  0  0  0  0  1  0  0  0  0  0  0
  182.5950  178.4580  134.5950 C   0  0  0  0  0  1  0  0  0  0  0  0
  1 29  1  0  0  0  0
  1 15  1  0  0  0  0
  3 25  1  0  0  0  0
  5  6  1  0  0  0  0
  7 11  1  0  0  0  0
  7 25  2  0  0  0  0
  8 17  1  1  0  0  0
  8  3  1  0  0  0  0
  9 18  1  1  0  0  0
  9 27  1  0  0  0  0
  9  5  1  0  0  0  0
 11  1  2  0  0  0  0
 12 26  1  1  0  0  0
 12 28  1  0  0  0  0
 12 16  1  0  0  0  0
 13 20  1  1  0  0  0
 13  6  1  0  0  0  0
 13 22  1  0  0  0  0
 14  4  1  0  0  0  0
 14 17  2  0  0  0  0
 15  2  1  0  0  0  0
 15 23  1  1  0  0  0
 16 10  2  0  0  0  0
 21  4  1  0  0  0  0
 22 24  1  0  0  0  0
 24 29  1  0  0  0  0
 25 30  1  0  0  0  0
 27 19  2  6  0  0  0
 27 16  1  0  0  0  0
 28 21  1  6  0  0  0
 28  8  1  0  0  0  0
 30  2  2  0  0  0  0
 31 14  1  0  0  0  0
 31 32  1  0  0  0  0
 33 31  1  0  0  0  0
M  END
>  <MODEL>
9

>  <REMARK>
 VINA RESULT:      -2.3      3.683      8.228
  Name = 
  1 active torsions:
  status: ('A' for Active; 'I' for Inactive)
    1  A    between atoms: C_1  and  C_17
                            x       y       z     vdW  Elec       q    Type
                         _______ _______ _______ _____ _____    ______ ____

>  <TORSDO>
F 1

$$$$
