=
 OpenBabel11032421213D

 43 46  0  0  1  0  0  0  0  0999 V2000
  187.2060  178.3240  141.6780 C   0  0  2  0  0  3  0  0  0  0  0  0
  184.4910  179.5580  143.0980 O   0  0  0  0  0  1  0  0  0  0  0  0
  182.6400  177.1760  139.4860 N   0  0  0  0  0  0  0  0  0  0  0  0
  182.8790  177.4160  140.9050 C   0  0  0  0  0  2  0  0  0  0  0  0
  185.5960  178.8610  139.8000 C   0  0  0  0  0  2  0  0  0  0  0  0
  185.9260  179.0660  141.2580 C   0  0  1  0  0  3  0  0  0  0  0  0
  183.5230  178.7730  141.0620 C   0  0  2  0  0  3  0  0  0  0  0  0
  184.1030  179.0950  139.7070 C   0  0  2  0  0  3  0  0  0  0  0  0
  184.6840  178.6740  142.0380 C   0  0  2  0  0  3  0  0  0  0  0  0
  183.4870  178.1050  138.7430 C   0  0  0  0  0  2  0  0  0  0  0  0
  183.1020  175.9300  139.2170 O   0  0  0  0  0  0  0  0  0  0  0  0
  183.1310  175.8400  137.8200 C   0  0  0  0  0  2  0  0  0  0  0  0
  182.3250  174.6360  137.3700 C   0  0  0  0  0  2  0  0  0  0  0  0
  183.0130  173.9520  136.3700 O   0  0  0  0  0  0  0  0  0  0  0  0
  182.5660  172.6350  136.4750 C   0  0  0  0  0  2  0  0  0  0  0  0
  183.6740  171.7710  137.0440 C   0  0  0  0  0  1  0  0  0  0  0  0
  187.8290  177.4490  140.5890 C   0  0  0  0  0  2  0  0  0  0  0  0
  189.2150  177.8830  140.2280 C   0  0  0  0  0  0  0  0  0  0  0  0
  190.1490  177.6950  141.0480 O   0  0  0  0  0  0  0  0  0  0  0  0
  189.5000  178.5070  138.9740 N   0  0  0  0  0  2  0  0  0  0  0  0
  188.4870  178.8650  138.0720 N   0  0  0  0  0  2  0  0  0  0  0  0
  189.0400  178.7560  136.7270 C   0  0  0  0  0  2  0  0  0  0  0  0
  186.8810  177.0190  136.5780 S   0  0  0  0  0  0  0  0  0  0  0  0
  187.4370  175.3500  136.8520 C   0  0  0  0  0  0  0  0  0  0  0  0
  186.4780  174.2770  137.2510 C   0  0  0  0  0  1  0  0  0  0  0  0
  189.5310  176.3260  136.2580 C   0  0  0  0  0  2  0  0  0  0  0  0
  188.7360  175.1420  136.6750 C   0  0  0  0  0  0  0  0  0  0  0  0
  188.5620  177.4830  136.0310 C   0  0  2  0  0  3  0  0  0  0  0  0
  189.3930  173.8250  136.9110 C   0  0  0  0  0  1  0  0  0  0  0  0
  186.9320  177.5030  142.8480 N   0  0  0  0  0  2  0  0  0  0  0  0
  188.0290  177.6920  146.4210 C   0  0  0  0  0  0  0  0  0  0  0  0
  189.3970  177.4420  146.2900 C   0  0  0  0  0  3  0  0  0  0  0  0
  187.7690  177.4840  144.0090 C   0  0  0  0  0  0  0  0  0  0  0  0
  185.8100  177.9670  145.4010 N   0  0  0  0  0  1  0  0  0  0  0  0
  187.2070  177.7100  145.2780 C   0  0  0  0  0  0  0  0  0  0  0  0
  189.1450  177.2420  143.8940 C   0  0  0  0  0  3  0  0  0  0  0  0
  189.9660  177.2170  145.0280 C   0  0  0  0  0  0  0  0  0  0  0  0
  191.6420  175.7550  144.2460 F   0  0  0  0  0  0  0  0  0  0  0  0
  191.9950  176.8670  146.1740 F   0  0  0  0  0  0  0  0  0  0  0  0
  191.4400  176.9510  144.9100 C   0  0  0  0  0  0  0  0  0  0  0  0
  192.0750  177.9640  144.2100 F   0  0  0  0  0  0  0  0  0  0  0  0
  188.5830  178.1500  148.7880 C   0  0  0  0  0  1  0  0  0  0  0  0
  187.4650  177.9170  147.7860 C   0  0  0  0  0  2  0  0  0  0  0  0
  1 17  1  6  0  0  0
  1 30  1  0  0  0  0
  3  4  1  0  0  0  0
  5  6  1  0  0  0  0
  6  1  1  1  0  0  0
  6  9  1  0  0  0  0
  7  4  1  6  0  0  0
  7  9  1  0  0  0  0
  8 10  1  6  0  0  0
  8  5  1  0  0  0  0
  8  7  1  0  0  0  0
  9  2  1  1  0  0  0
 10  3  1  0  0  0  0
 11  3  1  0  0  0  0
 12 11  1  0  0  0  0
 13 12  1  0  0  0  0
 14 15  1  0  0  0  0
 14 13  1  0  0  0  0
 15 16  1  0  0  0  0
 18 17  1  0  0  0  0
 18 19  2  0  0  0  0
 20 18  1  0  0  0  0
 21 20  1  0  0  0  0
 22 21  1  0  0  0  0
 23 24  1  0  0  0  0
 24 25  1  0  0  0  0
 26 27  1  0  0  0  0
 27 24  2  0  0  0  0
 27 29  1  0  0  0  0
 28 26  1  0  0  0  0
 28 23  1  0  0  0  0
 28 22  1  1  0  0  0
 30 33  1  0  0  0  0
 31 43  1  0  0  0  0
 32 31  1  0  0  0  0
 33 35  1  0  0  0  0
 35 34  1  0  0  0  0
 35 31  2  0  0  0  0
 36 33  2  0  0  0  0
 36 37  1  0  0  0  0
 37 32  2  0  0  0  0
 38 40  1  0  0  0  0
 40 37  1  0  0  0  0
 40 39  1  0  0  0  0
 41 40  1  0  0  0  0
 43 42  1  0  0  0  0
M  END
>  <MODEL>
1

>  <REMARK>
 VINA RESULT:      -7.8      0.000      0.000
  Name = 
  15 active torsions:
  status: ('A' for Active; 'I' for Inactive)
    1  A    between atoms: O_3  and  C_7
    2  A    between atoms: O_3  and  C_29
    3  A    between atoms: C_4  and  C_30
    4  A    between atoms: C_7  and  C_31
    5  A    between atoms: N_8  and  O_20
    6  A    between atoms: C_11  and  C_19
    7  A    between atoms: C_11  and  C_38
    8  A    between atoms: C_11  and  N_41
    9  A    between atoms: C_12  and  N_41
   10  A    between atoms: C_14  and  C_38
   11  A    between atoms: C_16  and  C_24
   12  A    between atoms: C_16  and  N_28
   13  A    between atoms: O_20  and  C_31
   14  A    between atoms: N_28  and  N_42
   15  A    between atoms: C_39  and  C_43
                            x       y       z     vdW  Elec       q    Type
                         _______ _______ _______ _____ _____    ______ ____

>  <TORSDO>
F 15

$$$$
=
 OpenBabel11032421213D

 43 46  0  0  1  0  0  0  0  0999 V2000
  187.6360  177.8640  139.9870 C   0  0  2  0  0  3  0  0  0  0  0  0
  190.3880  176.0650  139.6780 O   0  0  0  0  0  1  0  0  0  0  0  0
  190.3030  176.8260  144.3220 N   0  0  0  0  0  0  0  0  0  0  0  0
  190.2200  175.9790  143.1370 C   0  0  0  0  0  2  0  0  0  0  0  0
  189.2740  178.7590  141.6980 C   0  0  0  0  0  2  0  0  0  0  0  0
  189.0980  177.9100  140.4630 C   0  0  1  0  0  3  0  0  0  0  0  0
  190.6650  176.7820  141.9380 C   0  0  2  0  0  3  0  0  0  0  0  0
  190.5290  178.2260  142.3560 C   0  0  2  0  0  3  0  0  0  0  0  0
  189.6990  176.5530  140.7870 C   0  0  2  0  0  3  0  0  0  0  0  0
  190.3540  178.2100  143.8590 C   0  0  0  0  0  2  0  0  0  0  0  0
  189.1310  176.6830  144.9880 O   0  0  0  0  0  0  0  0  0  0  0  0
  189.2560  177.4810  146.1320 C   0  0  0  0  0  2  0  0  0  0  0  0
  190.0100  176.7190  147.2050 C   0  0  0  0  0  2  0  0  0  0  0  0
  191.2920  177.2450  147.3490 O   0  0  0  0  0  0  0  0  0  0  0  0
  192.1420  176.2060  146.9750 C   0  0  0  0  0  2  0  0  0  0  0  0
  192.6490  175.4990  148.2160 C   0  0  0  0  0  1  0  0  0  0  0  0
  187.4550  177.8710  138.4680 C   0  0  0  0  0  2  0  0  0  0  0  0
  188.6380  178.4420  137.7520 C   0  0  0  0  0  0  0  0  0  0  0  0
  188.9300  179.6540  137.9210 O   0  0  0  0  0  0  0  0  0  0  0  0
  189.4400  177.6430  136.8790 N   0  0  0  0  0  2  0  0  0  0  0  0
  189.0930  176.3260  136.5450 N   0  0  0  0  0  2  0  0  0  0  0  0
  188.5740  176.3430  135.1820 C   0  0  0  0  0  2  0  0  0  0  0  0
  185.8120  176.4500  135.4350 S   0  0  0  0  0  0  0  0  0  0  0  0
  185.2600  175.1550  136.5250 C   0  0  0  0  0  0  0  0  0  0  0  0
  183.9200  175.2200  137.1790 C   0  0  0  0  0  1  0  0  0  0  0  0
  187.3920  174.2500  135.9510 C   0  0  0  0  0  2  0  0  0  0  0  0
  186.1130  174.1520  136.7010 C   0  0  0  0  0  0  0  0  0  0  0  0
  187.3160  175.4850  135.0570 C   0  0  2  0  0  3  0  0  0  0  0  0
  185.8510  173.0080  137.6190 C   0  0  0  0  0  1  0  0  0  0  0  0
  186.9020  178.9840  140.5580 N   0  0  0  0  0  2  0  0  0  0  0  0
  183.4370  178.6550  141.9350 C   0  0  0  0  0  0  0  0  0  0  0  0
  183.7090  178.5090  143.2980 C   0  0  0  0  0  3  0  0  0  0  0  0
  185.8240  178.8250  141.4880 C   0  0  0  0  0  0  0  0  0  0  0  0
  184.2320  178.9630  139.6290 N   0  0  0  0  0  1  0  0  0  0  0  0
  184.4970  178.8100  141.0220 C   0  0  0  0  0  0  0  0  0  0  0  0
  186.0790  178.6860  142.8590 C   0  0  0  0  0  3  0  0  0  0  0  0
  185.0280  178.5250  143.7700 C   0  0  0  0  0  0  0  0  0  0  0  0
  186.0790  179.4190  145.6830 F   0  0  0  0  0  0  0  0  0  0  0  0
  185.9680  177.1790  145.4620 F   0  0  0  0  0  0  0  0  0  0  0  0
  185.2970  178.3670  145.2410 C   0  0  0  0  0  0  0  0  0  0  0  0
  184.1160  178.3550  145.9650 F   0  0  0  0  0  0  0  0  0  0  0  0
  181.0960  179.1420  142.5670 C   0  0  0  0  0  1  0  0  0  0  0  0
  182.0160  178.6220  141.4750 C   0  0  0  0  0  2  0  0  0  0  0  0
  1 17  1  6  0  0  0
  1 30  1  0  0  0  0
  3 11  1  0  0  0  0
  4  3  1  0  0  0  0
  6  1  1  1  0  0  0
  6  9  1  0  0  0  0
  6  5  1  0  0  0  0
  7  8  1  0  0  0  0
  7  4  1  1  0  0  0
  8  5  1  6  0  0  0
  8 10  1  0  0  0  0
  9  2  1  6  0  0  0
  9  7  1  0  0  0  0
 10  3  1  0  0  0  0
 11 12  1  0  0  0  0
 12 13  1  0  0  0  0
 13 14  1  0  0  0  0
 15 14  1  0  0  0  0
 15 16  1  0  0  0  0
 18 19  2  0  0  0  0
 18 17  1  0  0  0  0
 20 18  1  0  0  0  0
 21 20  1  0  0  0  0
 22 21  1  0  0  0  0
 23 24  1  0  0  0  0
 24 27  2  0  0  0  0
 24 25  1  0  0  0  0
 26 27  1  0  0  0  0
 27 29  1  0  0  0  0
 28 22  1  1  0  0  0
 28 23  1  0  0  0  0
 28 26  1  0  0  0  0
 30 33  1  0  0  0  0
 31 32  1  0  0  0  0
 32 37  2  0  0  0  0
 33 36  2  0  0  0  0
 34 35  1  0  0  0  0
 35 33  1  0  0  0  0
 35 31  2  0  0  0  0
 36 37  1  0  0  0  0
 37 40  1  0  0  0  0
 40 39  1  0  0  0  0
 40 38  1  0  0  0  0
 40 41  1  0  0  0  0
 43 31  1  0  0  0  0
 43 42  1  0  0  0  0
M  END
>  <MODEL>
2

>  <REMARK>
 VINA RESULT:      -7.7      3.065      6.958
  Name = 
  15 active torsions:
  status: ('A' for Active; 'I' for Inactive)
    1  A    between atoms: O_3  and  C_7
    2  A    between atoms: O_3  and  C_29
    3  A    between atoms: C_4  and  C_30
    4  A    between atoms: C_7  and  C_31
    5  A    between atoms: N_8  and  O_20
    6  A    between atoms: C_11  and  C_19
    7  A    between atoms: C_11  and  C_38
    8  A    between atoms: C_11  and  N_41
    9  A    between atoms: C_12  and  N_41
   10  A    between atoms: C_14  and  C_38
   11  A    between atoms: C_16  and  C_24
   12  A    between atoms: C_16  and  N_28
   13  A    between atoms: O_20  and  C_31
   14  A    between atoms: N_28  and  N_42
   15  A    between atoms: C_39  and  C_43
                            x       y       z     vdW  Elec       q    Type
                         _______ _______ _______ _____ _____    ______ ____

>  <TORSDO>
F 15

$$$$
=
 OpenBabel11032421213D

 43 46  0  0  1  0  0  0  0  0999 V2000
  187.6710  177.8460  139.8980 C   0  0  2  0  0  3  0  0  0  0  0  0
  190.3890  175.9930  139.6110 O   0  0  0  0  0  1  0  0  0  0  0  0
  190.3160  176.8070  144.2460 N   0  0  0  0  0  0  0  0  0  0  0  0
  190.2170  175.9480  143.0710 C   0  0  0  0  0  2  0  0  0  0  0  0
  189.3240  178.7290  141.6010 C   0  0  0  0  0  2  0  0  0  0  0  0
  189.1330  177.8700  140.3750 C   0  0  1  0  0  3  0  0  0  0  0  0
  190.6770  176.7300  141.8630 C   0  0  2  0  0  3  0  0  0  0  0  0
  190.5680  178.1810  142.2650 C   0  0  2  0  0  3  0  0  0  0  0  0
  189.7080  176.5060  140.7130 C   0  0  2  0  0  3  0  0  0  0  0  0
  190.3930  178.1840  143.7680 C   0  0  0  0  0  2  0  0  0  0  0  0
  189.1400  176.6930  144.9130 O   0  0  0  0  0  0  0  0  0  0  0  0
  189.1280  177.7550  145.8250 C   0  0  0  0  0  2  0  0  0  0  0  0
  188.8440  177.2270  147.2180 C   0  0  0  0  0  2  0  0  0  0  0  0
  189.7640  176.2320  147.5460 O   0  0  0  0  0  0  0  0  0  0  0  0
  190.9860  176.8980  147.6250 C   0  0  0  0  0  2  0  0  0  0  0  0
  192.1130  175.9090  147.3990 C   0  0  0  0  0  1  0  0  0  0  0  0
  187.4900  177.8690  138.3790 C   0  0  0  0  0  2  0  0  0  0  0  0
  188.6610  178.4740  137.6710 C   0  0  0  0  0  0  0  0  0  0  0  0
  188.9050  179.6980  137.8260 O   0  0  0  0  0  0  0  0  0  0  0  0
  189.5050  177.6940  136.8210 N   0  0  0  0  0  2  0  0  0  0  0  0
  189.2130  176.3600  136.5010 N   0  0  0  0  0  2  0  0  0  0  0  0
  190.3480  175.8300  135.7540 C   0  0  0  0  0  2  0  0  0  0  0  0
  192.9210  175.9090  136.7900 S   0  0  0  0  0  0  0  0  0  0  0  0
  193.7460  174.3660  136.4610 C   0  0  0  0  0  0  0  0  0  0  0  0
  195.2350  174.2650  136.5100 C   0  0  0  0  0  1  0  0  0  0  0  0
  191.4930  173.6260  136.1980 C   0  0  0  0  0  2  0  0  0  0  0  0
  192.9510  173.3400  136.1800 C   0  0  0  0  0  0  0  0  0  0  0  0
  191.3050  175.0660  136.6670 C   0  0  2  0  0  3  0  0  0  0  0  0
  193.4600  171.9860  135.8230 C   0  0  0  0  0  1  0  0  0  0  0  0
  186.9500  178.9700  140.4780 N   0  0  0  0  0  2  0  0  0  0  0  0
  183.4990  178.6840  141.8990 C   0  0  0  0  0  0  0  0  0  0  0  0
  183.7870  178.5120  143.2560 C   0  0  0  0  0  3  0  0  0  0  0  0
  185.8830  178.8170  141.4210 C   0  0  0  0  0  0  0  0  0  0  0  0
  184.2670  179.0120  139.5870 N   0  0  0  0  0  1  0  0  0  0  0  0
  184.5490  178.8340  140.9740 C   0  0  0  0  0  0  0  0  0  0  0  0
  186.1540  178.6520  142.7860 C   0  0  0  0  0  3  0  0  0  0  0  0
  185.1130  178.4960  143.7090 C   0  0  0  0  0  0  0  0  0  0  0  0
  186.0210  177.0920  145.3720 F   0  0  0  0  0  0  0  0  0  0  0  0
  184.2110  178.3350  145.8810 F   0  0  0  0  0  0  0  0  0  0  0  0
  185.3990  178.3110  145.1740 C   0  0  0  0  0  0  0  0  0  0  0  0
  186.2240  179.3160  145.6510 F   0  0  0  0  0  0  0  0  0  0  0  0
  181.1530  178.9140  142.6470 C   0  0  0  0  0  1  0  0  0  0  0  0
  182.0720  178.6850  141.4590 C   0  0  0  0  0  2  0  0  0  0  0  0
  1 17  1  6  0  0  0
  1 30  1  0  0  0  0
  3 11  1  0  0  0  0
  4  3  1  0  0  0  0
  6  1  1  1  0  0  0
  6  9  1  0  0  0  0
  6  5  1  0  0  0  0
  7  8  1  0  0  0  0
  7  4  1  1  0  0  0
  8  5  1  6  0  0  0
  8 10  1  0  0  0  0
  9  2  1  6  0  0  0
  9  7  1  0  0  0  0
 10  3  1  0  0  0  0
 11 12  1  0  0  0  0
 12 13  1  0  0  0  0
 13 14  1  0  0  0  0
 14 15  1  0  0  0  0
 16 15  1  0  0  0  0
 18 19  2  0  0  0  0
 18 17  1  0  0  0  0
 20 18  1  0  0  0  0
 21 20  1  0  0  0  0
 22 21  1  0  0  0  0
 24 25  1  0  0  0  0
 24 23  1  0  0  0  0
 26 28  1  0  0  0  0
 27 26  1  0  0  0  0
 27 24  2  0  0  0  0
 28 22  1  6  0  0  0
 28 23  1  0  0  0  0
 29 27  1  0  0  0  0
 30 33  1  0  0  0  0
 31 32  1  0  0  0  0
 32 37  2  0  0  0  0
 33 36  2  0  0  0  0
 34 35  1  0  0  0  0
 35 33  1  0  0  0  0
 35 31  2  0  0  0  0
 36 37  1  0  0  0  0
 37 40  1  0  0  0  0
 40 38  1  0  0  0  0
 40 41  1  0  0  0  0
 40 39  1  0  0  0  0
 43 31  1  0  0  0  0
 43 42  1  0  0  0  0
M  END
>  <MODEL>
3

>  <REMARK>
 VINA RESULT:      -7.6      3.719      7.105
  Name = 
  15 active torsions:
  status: ('A' for Active; 'I' for Inactive)
    1  A    between atoms: O_3  and  C_7
    2  A    between atoms: O_3  and  C_29
    3  A    between atoms: C_4  and  C_30
    4  A    between atoms: C_7  and  C_31
    5  A    between atoms: N_8  and  O_20
    6  A    between atoms: C_11  and  C_19
    7  A    between atoms: C_11  and  C_38
    8  A    between atoms: C_11  and  N_41
    9  A    between atoms: C_12  and  N_41
   10  A    between atoms: C_14  and  C_38
   11  A    between atoms: C_16  and  C_24
   12  A    between atoms: C_16  and  N_28
   13  A    between atoms: O_20  and  C_31
   14  A    between atoms: N_28  and  N_42
   15  A    between atoms: C_39  and  C_43
                            x       y       z     vdW  Elec       q    Type
                         _______ _______ _______ _____ _____    ______ ____

>  <TORSDO>
F 15

$$$$
=
 OpenBabel11032421213D

 43 46  0  0  1  0  0  0  0  0999 V2000
  185.2730  178.3390  139.1760 C   0  0  2  0  0  3  0  0  0  0  0  0
  185.2560  176.4930  136.4380 O   0  0  0  0  0  1  0  0  0  0  0  0
  189.7830  176.2310  137.6960 N   0  0  0  0  0  0  0  0  0  0  0  0
  188.4560  175.6670  137.4780 C   0  0  0  0  0  2  0  0  0  0  0  0
  187.4910  178.7440  138.0250 C   0  0  0  0  0  2  0  0  0  0  0  0
  186.0930  178.1950  137.8830 C   0  0  1  0  0  3  0  0  0  0  0  0
  187.6160  176.6850  136.7420 C   0  0  2  0  0  3  0  0  0  0  0  0
  188.3010  178.0090  136.9780 C   0  0  2  0  0  3  0  0  0  0  0  0
  186.2410  176.7680  137.3850 C   0  0  2  0  0  3  0  0  0  0  0  0
  189.6710  177.6770  137.5280 C   0  0  0  0  0  2  0  0  0  0  0  0
  190.0900  176.0150  138.9990 O   0  0  0  0  0  0  0  0  0  0  0  0
  191.0990  176.9380  139.2990 C   0  0  0  0  0  2  0  0  0  0  0  0
  191.6000  176.7040  140.7120 C   0  0  0  0  0  2  0  0  0  0  0  0
  191.5040  177.8830  141.4500 O   0  0  0  0  0  0  0  0  0  0  0  0
  191.6700  177.4810  142.7740 C   0  0  0  0  0  2  0  0  0  0  0  0
  191.4310  178.6630  143.6920 C   0  0  0  0  0  1  0  0  0  0  0  0
  183.9610  179.1120  139.0230 C   0  0  0  0  0  2  0  0  0  0  0  0
  182.7610  178.2200  139.0670 C   0  0  0  0  0  0  0  0  0  0  0  0
  182.8070  177.1640  139.7480 O   0  0  0  0  0  0  0  0  0  0  0  0
  181.5670  178.5390  138.3490 N   0  0  0  0  0  2  0  0  0  0  0  0
  181.4940  179.6280  137.4680 N   0  0  0  0  0  2  0  0  0  0  0  0
  180.0950  179.7950  137.0930 C   0  0  0  0  0  2  0  0  0  0  0  0
  179.3450  181.9490  135.5120 S   0  0  0  0  0  0  0  0  0  0  0  0
  180.3570  183.3600  135.9040 C   0  0  0  0  0  0  0  0  0  0  0  0
  180.4820  184.5040  134.9530 C   0  0  0  0  0  1  0  0  0  0  0  0
  180.7110  182.1050  137.9020 C   0  0  0  0  0  2  0  0  0  0  0  0
  180.9720  183.3150  137.0810 C   0  0  0  0  0  0  0  0  0  0  0  0
  179.6700  181.2600  137.1730 C   0  0  2  0  0  3  0  0  0  0  0  0
  181.9020  184.3770  137.5570 C   0  0  0  0  0  1  0  0  0  0  0  0
  186.0850  178.9800  140.2000 N   0  0  0  0  0  2  0  0  0  0  0  0
  187.0080  177.6600  143.5780 C   0  0  0  0  0  0  0  0  0  0  0  0
  185.8650  177.9920  144.3110 C   0  0  0  0  0  3  0  0  0  0  0  0
  186.0060  178.6460  141.5900 C   0  0  0  0  0  0  0  0  0  0  0  0
  188.2440  177.6540  141.4540 N   0  0  0  0  0  1  0  0  0  0  0  0
  187.0840  177.9900  142.2120 C   0  0  0  0  0  0  0  0  0  0  0  0
  184.8640  178.9640  142.3380 C   0  0  0  0  0  3  0  0  0  0  0  0
  184.7860  178.6440  143.6980 C   0  0  0  0  0  0  0  0  0  0  0  0
  183.8220  178.7640  145.8470 F   0  0  0  0  0  0  0  0  0  0  0  0
  182.5080  178.1950  144.1060 F   0  0  0  0  0  0  0  0  0  0  0  0
  183.5660  178.9900  144.5060 C   0  0  0  0  0  0  0  0  0  0  0  0
  183.2160  180.3190  144.3360 F   0  0  0  0  0  0  0  0  0  0  0  0
  188.3370  177.5630  145.6620 C   0  0  0  0  0  1  0  0  0  0  0  0
  188.1380  176.9750  144.2750 C   0  0  0  0  0  2  0  0  0  0  0  0
  1 17  1  6  0  0  0
  1 30  1  0  0  0  0
  3 11  1  0  0  0  0
  4  3  1  0  0  0  0
  6  5  1  0  0  0  0
  6  1  1  1  0  0  0
  7  8  1  0  0  0  0
  7  9  1  0  0  0  0
  7  4  1  1  0  0  0
  8 10  1  1  0  0  0
  8  5  1  0  0  0  0
  9  2  1  6  0  0  0
  9  6  1  0  0  0  0
 10  3  1  0  0  0  0
 11 12  1  0  0  0  0
 12 13  1  0  0  0  0
 13 14  1  0  0  0  0
 14 15  1  0  0  0  0
 15 16  1  0  0  0  0
 17 18  1  0  0  0  0
 18 19  2  0  0  0  0
 20 18  1  0  0  0  0
 21 20  1  0  0  0  0
 22 21  1  0  0  0  0
 23 24  1  0  0  0  0
 23 28  1  0  0  0  0
 24 27  2  0  0  0  0
 25 24  1  0  0  0  0
 27 29  1  0  0  0  0
 27 26  1  0  0  0  0
 28 22  1  6  0  0  0
 28 26  1  0  0  0  0
 30 33  1  0  0  0  0
 31 43  1  0  0  0  0
 31 32  1  0  0  0  0
 33 35  1  0  0  0  0
 33 36  2  0  0  0  0
 34 35  1  0  0  0  0
 35 31  2  0  0  0  0
 36 37  1  0  0  0  0
 37 32  2  0  0  0  0
 37 40  1  0  0  0  0
 39 40  1  0  0  0  0
 40 38  1  0  0  0  0
 41 40  1  0  0  0  0
 43 42  1  0  0  0  0
M  END
>  <MODEL>
4

>  <REMARK>
 VINA RESULT:      -7.5      4.013      7.748
  Name = 
  15 active torsions:
  status: ('A' for Active; 'I' for Inactive)
    1  A    between atoms: O_3  and  C_7
    2  A    between atoms: O_3  and  C_29
    3  A    between atoms: C_4  and  C_30
    4  A    between atoms: C_7  and  C_31
    5  A    between atoms: N_8  and  O_20
    6  A    between atoms: C_11  and  C_19
    7  A    between atoms: C_11  and  C_38
    8  A    between atoms: C_11  and  N_41
    9  A    between atoms: C_12  and  N_41
   10  A    between atoms: C_14  and  C_38
   11  A    between atoms: C_16  and  C_24
   12  A    between atoms: C_16  and  N_28
   13  A    between atoms: O_20  and  C_31
   14  A    between atoms: N_28  and  N_42
   15  A    between atoms: C_39  and  C_43
                            x       y       z     vdW  Elec       q    Type
                         _______ _______ _______ _____ _____    ______ ____

>  <TORSDO>
F 15

$$$$
=
 OpenBabel11032421213D

 43 46  0  0  1  0  0  0  0  0999 V2000
  185.7990  178.3110  139.4960 C   0  0  2  0  0  3  0  0  0  0  0  0
  184.2810  177.3670  136.7200 O   0  0  0  0  0  1  0  0  0  0  0  0
  188.4650  175.2670  136.2400 N   0  0  0  0  0  0  0  0  0  0  0  0
  187.0200  175.2650  136.4330 C   0  0  0  0  0  2  0  0  0  0  0  0
  187.5800  178.2280  137.6980 C   0  0  0  0  0  2  0  0  0  0  0  0
  186.0990  178.2430  137.9900 C   0  0  1  0  0  3  0  0  0  0  0  0
  186.4990  176.6610  136.1890 C   0  0  2  0  0  3  0  0  0  0  0  0
  187.6990  177.5640  136.3430 C   0  0  2  0  0  3  0  0  0  0  0  0
  185.5110  177.0340  137.2830 C   0  0  2  0  0  3  0  0  0  0  0  0
  188.9090  176.6560  136.3200 C   0  0  0  0  0  2  0  0  0  0  0  0
  189.0040  174.6260  137.3070 O   0  0  0  0  0  0  0  0  0  0  0  0
  189.6920  173.5310  136.7730 C   0  0  0  0  0  2  0  0  0  0  0  0
  191.1860  173.7820  136.8470 C   0  0  0  0  0  2  0  0  0  0  0  0
  191.4710  174.6410  137.9070 O   0  0  0  0  0  0  0  0  0  0  0  0
  192.3670  175.5680  137.3760 C   0  0  0  0  0  2  0  0  0  0  0  0
  192.7840  176.5420  138.4590 C   0  0  0  0  0  1  0  0  0  0  0  0
  184.6820  179.2820  139.8860 C   0  0  0  0  0  2  0  0  0  0  0  0
  183.3600  178.6000  140.0470 C   0  0  0  0  0  0  0  0  0  0  0  0
  183.2460  177.6780  140.8940 O   0  0  0  0  0  0  0  0  0  0  0  0
  182.2270  178.9700  139.2590 N   0  0  0  0  0  2  0  0  0  0  0  0
  182.3200  179.8950  138.2080 N   0  0  0  0  0  2  0  0  0  0  0  0
  181.0950  179.7900  137.4240 C   0  0  0  0  0  2  0  0  0  0  0  0
  179.6070  181.5000  135.8220 S   0  0  0  0  0  0  0  0  0  0  0  0
  180.2300  183.1600  135.9780 C   0  0  0  0  0  0  0  0  0  0  0  0
  179.9270  184.1950  134.9450 C   0  0  0  0  0  1  0  0  0  0  0  0
  181.1420  182.2500  137.9860 C   0  0  0  0  0  2  0  0  0  0  0  0
  180.9640  183.3970  137.0590 C   0  0  0  0  0  0  0  0  0  0  0  0
  180.2960  181.0920  137.4640 C   0  0  2  0  0  3  0  0  0  0  0  0
  181.6160  184.7090  137.3320 C   0  0  0  0  0  1  0  0  0  0  0  0
  187.0110  178.6680  140.2190 N   0  0  0  0  0  2  0  0  0  0  0  0
  188.9050  176.7710  142.8310 C   0  0  0  0  0  0  0  0  0  0  0  0
  188.0890  176.9750  143.9480 C   0  0  0  0  0  3  0  0  0  0  0  0
  187.3710  178.0950  141.4810 C   0  0  0  0  0  0  0  0  0  0  0  0
  189.3730  177.1320  140.4460 N   0  0  0  0  0  1  0  0  0  0  0  0
  188.5500  177.3350  141.5920 C   0  0  0  0  0  0  0  0  0  0  0  0
  186.5600  178.2820  142.6090 C   0  0  0  0  0  3  0  0  0  0  0  0
  186.9110  177.7290  143.8450 C   0  0  0  0  0  0  0  0  0  0  0  0
  184.7270  178.0590  144.6690 F   0  0  0  0  0  0  0  0  0  0  0  0
  186.4400  179.0870  145.7130 F   0  0  0  0  0  0  0  0  0  0  0  0
  186.0480  177.9330  145.0590 C   0  0  0  0  0  0  0  0  0  0  0  0
  186.1560  176.8640  145.9330 F   0  0  0  0  0  0  0  0  0  0  0  0
  191.1900  176.7540  143.7770 C   0  0  0  0  0  1  0  0  0  0  0  0
  190.1550  175.9690  142.9890 C   0  0  0  0  0  2  0  0  0  0  0  0
  1 17  1  6  0  0  0
  1 30  1  0  0  0  0
  3 10  1  0  0  0  0
  3  4  1  0  0  0  0
  3 11  1  0  0  0  0
  5  6  1  0  0  0  0
  6  1  1  1  0  0  0
  7  8  1  0  0  0  0
  7  4  1  1  0  0  0
  7  9  1  0  0  0  0
  8 10  1  1  0  0  0
  8  5  1  0  0  0  0
  9  2  1  6  0  0  0
  9  6  1  0  0  0  0
 12 13  1  0  0  0  0
 12 11  1  0  0  0  0
 13 14  1  0  0  0  0
 15 14  1  0  0  0  0
 15 16  1  0  0  0  0
 17 18  1  0  0  0  0
 18 19  2  0  0  0  0
 20 18  1  0  0  0  0
 21 20  1  0  0  0  0
 22 21  1  0  0  0  0
 23 24  1  0  0  0  0
 23 28  1  0  0  0  0
 24 27  2  0  0  0  0
 25 24  1  0  0  0  0
 27 29  1  0  0  0  0
 27 26  1  0  0  0  0
 28 22  1  6  0  0  0
 28 26  1  0  0  0  0
 30 33  1  0  0  0  0
 31 43  1  0  0  0  0
 31 32  1  0  0  0  0
 33 35  1  0  0  0  0
 33 36  2  0  0  0  0
 34 35  1  0  0  0  0
 35 31  2  0  0  0  0
 36 37  1  0  0  0  0
 37 32  2  0  0  0  0
 37 40  1  0  0  0  0
 38 40  1  0  0  0  0
 40 39  1  0  0  0  0
 40 41  1  0  0  0  0
 43 42  1  0  0  0  0
M  END
>  <MODEL>
5

>  <REMARK>
 VINA RESULT:      -7.3      3.729      7.104
  Name = 
  15 active torsions:
  status: ('A' for Active; 'I' for Inactive)
    1  A    between atoms: O_3  and  C_7
    2  A    between atoms: O_3  and  C_29
    3  A    between atoms: C_4  and  C_30
    4  A    between atoms: C_7  and  C_31
    5  A    between atoms: N_8  and  O_20
    6  A    between atoms: C_11  and  C_19
    7  A    between atoms: C_11  and  C_38
    8  A    between atoms: C_11  and  N_41
    9  A    between atoms: C_12  and  N_41
   10  A    between atoms: C_14  and  C_38
   11  A    between atoms: C_16  and  C_24
   12  A    between atoms: C_16  and  N_28
   13  A    between atoms: O_20  and  C_31
   14  A    between atoms: N_28  and  N_42
   15  A    between atoms: C_39  and  C_43
                            x       y       z     vdW  Elec       q    Type
                         _______ _______ _______ _____ _____    ______ ____

>  <TORSDO>
F 15

$$$$
=
 OpenBabel11032421213D

 43 46  0  0  1  0  0  0  0  0999 V2000
  184.1570  178.6490  142.2800 C   0  0  2  0  0  3  0  0  0  0  0  0
  182.9090  176.5070  140.0980 O   0  0  0  0  0  1  0  0  0  0  0  0
  180.1310  180.2430  139.4110 N   0  0  0  0  0  0  0  0  0  0  0  0
  181.1540  179.2860  139.0050 C   0  0  0  0  0  2  0  0  0  0  0  0
  181.6580  179.0530  142.2270 C   0  0  0  0  0  2  0  0  0  0  0  0
  182.7790  178.1140  141.8550 C   0  0  1  0  0  3  0  0  0  0  0  0
  181.1930  178.1650  140.0150 C   0  0  2  0  0  3  0  0  0  0  0  0
  180.5440  178.7270  141.2560 C   0  0  2  0  0  3  0  0  0  0  0  0
  182.6380  177.8470  140.3660 C   0  0  2  0  0  3  0  0  0  0  0  0
  179.8500  179.9990  140.8230 C   0  0  0  0  0  2  0  0  0  0  0  0
  180.6950  181.4750  139.3350 O   0  0  0  0  0  0  0  0  0  0  0  0
  181.2860  181.5330  138.0680 C   0  0  0  0  0  2  0  0  0  0  0  0
  180.4000  182.3280  137.1280 C   0  0  0  0  0  2  0  0  0  0  0  0
  180.6190  183.6920  137.3090 O   0  0  0  0  0  0  0  0  0  0  0  0
  181.1800  184.1200  136.1070 C   0  0  0  0  0  2  0  0  0  0  0  0
  180.0840  184.6210  135.1890 C   0  0  0  0  0  1  0  0  0  0  0  0
  184.1300  179.6360  143.4490 C   0  0  0  0  0  2  0  0  0  0  0  0
  183.8360  178.9690  144.7560 C   0  0  0  0  0  0  0  0  0  0  0  0
  182.6430  178.8730  145.1400 O   0  0  0  0  0  0  0  0  0  0  0  0
  184.8800  178.4410  145.5770 N   0  0  0  0  0  2  0  0  0  0  0  0
  186.2360  178.6310  145.2730 N   0  0  0  0  0  2  0  0  0  0  0  0
  186.9790  178.5710  146.5260 C   0  0  0  0  0  2  0  0  0  0  0  0
  188.9070  177.3330  148.0920 S   0  0  0  0  0  0  0  0  0  0  0  0
  190.3560  177.0070  147.1100 C   0  0  0  0  0  0  0  0  0  0  0  0
  191.6790  176.7520  147.7530 C   0  0  0  0  0  1  0  0  0  0  0  0
  188.7770  177.2590  145.3390 C   0  0  0  0  0  2  0  0  0  0  0  0
  190.1690  177.0060  145.7950 C   0  0  0  0  0  0  0  0  0  0  0  0
  187.8880  177.3440  146.5760 C   0  0  2  0  0  3  0  0  0  0  0  0
  191.2710  176.8070  144.8130 C   0  0  0  0  0  1  0  0  0  0  0  0
  184.8080  179.2800  141.1420 N   0  0  0  0  0  2  0  0  0  0  0  0
  187.2970  178.1440  138.5870 C   0  0  0  0  0  0  0  0  0  0  0  0
  188.3880  177.8350  139.4030 C   0  0  0  0  0  3  0  0  0  0  0  0
  186.0200  178.7890  140.5570 C   0  0  0  0  0  0  0  0  0  0  0  0
  184.9860  178.9440  138.3400 N   0  0  0  0  0  1  0  0  0  0  0  0
  186.1060  178.6270  139.1630 C   0  0  0  0  0  0  0  0  0  0  0  0
  187.1210  178.4660  141.3620 C   0  0  0  0  0  3  0  0  0  0  0  0
  188.3090  177.9910  140.7940 C   0  0  0  0  0  0  0  0  0  0  0  0
  189.6490  178.6150  142.6310 F   0  0  0  0  0  0  0  0  0  0  0  0
  190.6340  177.6130  140.8690 F   0  0  0  0  0  0  0  0  0  0  0  0
  189.4950  177.6500  141.6520 C   0  0  0  0  0  0  0  0  0  0  0  0
  189.3320  176.4170  142.2620 F   0  0  0  0  0  0  0  0  0  0  0  0
  188.8300  177.5000  136.7560 C   0  0  0  0  0  1  0  0  0  0  0  0
  187.4290  177.9720  137.1090 C   0  0  0  0  0  2  0  0  0  0  0  0
  1 17  1  1  0  0  0
  3 10  1  0  0  0  0
  4  3  1  0  0  0  0
  6  5  1  0  0  0  0
  6  1  1  6  0  0  0
  7  4  1  6  0  0  0
  7  9  1  0  0  0  0
  7  8  1  0  0  0  0
  8 10  1  6  0  0  0
  8  5  1  0  0  0  0
  9  2  1  1  0  0  0
  9  6  1  0  0  0  0
 11  3  1  0  0  0  0
 12 11  1  0  0  0  0
 13 14  1  0  0  0  0
 13 12  1  0  0  0  0
 15 14  1  0  0  0  0
 16 15  1  0  0  0  0
 17 18  1  0  0  0  0
 18 19  2  0  0  0  0
 18 20  1  0  0  0  0
 21 20  1  0  0  0  0
 21 22  1  0  0  0  0
 24 25  1  0  0  0  0
 24 23  1  0  0  0  0
 26 27  1  0  0  0  0
 26 28  1  0  0  0  0
 27 24  2  0  0  0  0
 28 22  1  6  0  0  0
 28 23  1  0  0  0  0
 29 27  1  0  0  0  0
 30  1  1  0  0  0  0
 31 35  2  0  0  0  0
 31 32  1  0  0  0  0
 32 37  2  0  0  0  0
 33 30  1  0  0  0  0
 33 36  2  0  0  0  0
 34 35  1  0  0  0  0
 35 33  1  0  0  0  0
 37 36  1  0  0  0  0
 37 40  1  0  0  0  0
 39 40  1  0  0  0  0
 40 41  1  0  0  0  0
 40 38  1  0  0  0  0
 42 43  1  0  0  0  0
 43 31  1  0  0  0  0
M  END
>  <MODEL>
6

>  <REMARK>
 VINA RESULT:      -7.3      3.586      7.498
  Name = 
  15 active torsions:
  status: ('A' for Active; 'I' for Inactive)
    1  A    between atoms: O_3  and  C_7
    2  A    between atoms: O_3  and  C_29
    3  A    between atoms: C_4  and  C_30
    4  A    between atoms: C_7  and  C_31
    5  A    between atoms: N_8  and  O_20
    6  A    between atoms: C_11  and  C_19
    7  A    between atoms: C_11  and  C_38
    8  A    between atoms: C_11  and  N_41
    9  A    between atoms: C_12  and  N_41
   10  A    between atoms: C_14  and  C_38
   11  A    between atoms: C_16  and  C_24
   12  A    between atoms: C_16  and  N_28
   13  A    between atoms: O_20  and  C_31
   14  A    between atoms: N_28  and  N_42
   15  A    between atoms: C_39  and  C_43
                            x       y       z     vdW  Elec       q    Type
                         _______ _______ _______ _____ _____    ______ ____

>  <TORSDO>
F 15

$$$$
=
 OpenBabel11032421213D

 43 46  0  0  1  0  0  0  0  0999 V2000
  185.5290  178.5740  140.1990 C   0  0  2  0  0  3  0  0  0  0  0  0
  183.9390  181.0420  138.6850 O   0  0  0  0  0  1  0  0  0  0  0  0
  180.7930  177.5600  138.3220 N   0  0  0  0  0  0  0  0  0  0  0  0
  181.2630  178.8450  138.8260 C   0  0  0  0  0  2  0  0  0  0  0  0
  184.2100  177.5250  138.3100 C   0  0  0  0  0  2  0  0  0  0  0  0
  184.7460  178.8080  138.8960 C   0  0  1  0  0  3  0  0  0  0  0  0
  182.5060  179.2370  138.0610 C   0  0  2  0  0  3  0  0  0  0  0  0
  183.0270  177.9520  137.4670 C   0  0  2  0  0  3  0  0  0  0  0  0
  183.5600  179.7460  139.0320 C   0  0  2  0  0  3  0  0  0  0  0  0
  181.9070  176.9440  137.6060 C   0  0  0  0  0  2  0  0  0  0  0  0
  180.5500  176.7800  139.4040 O   0  0  0  0  0  0  0  0  0  0  0  0
  179.2140  177.0250  139.7430 C   0  0  0  0  0  2  0  0  0  0  0  0
  179.0650  177.0390  141.2520 C   0  0  0  0  0  2  0  0  0  0  0  0
  180.2040  177.5910  141.8360 O   0  0  0  0  0  0  0  0  0  0  0  0
  179.7340  178.6950  142.5470 C   0  0  0  0  0  2  0  0  0  0  0  0
  179.8510  178.4230  144.0340 C   0  0  0  0  0  1  0  0  0  0  0  0
  184.8850  179.1750  141.4510 C   0  0  0  0  0  2  0  0  0  0  0  0
  183.9270  178.2340  142.1110 C   0  0  0  0  0  0  0  0  0  0  0  0
  183.3090  177.3950  141.4070 O   0  0  0  0  0  0  0  0  0  0  0  0
  183.6980  178.2690  143.5220 N   0  0  0  0  0  2  0  0  0  0  0  0
  184.2520  179.2610  144.3430 N   0  0  0  0  0  2  0  0  0  0  0  0
  185.6950  179.0540  144.3660 C   0  0  0  0  0  2  0  0  0  0  0  0
  185.9910  178.6490  147.0960 S   0  0  0  0  0  0  0  0  0  0  0  0
  187.6140  178.0010  147.4320 C   0  0  0  0  0  0  0  0  0  0  0  0
  188.2070  178.0850  148.8000 C   0  0  0  0  0  1  0  0  0  0  0  0
  187.4810  177.4370  145.1180 C   0  0  0  0  0  2  0  0  0  0  0  0
  188.2370  177.4480  146.3970 C   0  0  0  0  0  0  0  0  0  0  0  0
  186.0870  177.9930  145.3940 C   0  0  2  0  0  3  0  0  0  0  0  0
  189.6210  176.9040  146.4720 C   0  0  0  0  0  1  0  0  0  0  0  0
  186.8780  179.1010  140.0600 N   0  0  0  0  0  2  0  0  0  0  0  0
  189.7550  176.9570  138.9960 C   0  0  0  0  0  0  0  0  0  0  0  0
  190.3530  176.6890  140.2300 C   0  0  0  0  0  3  0  0  0  0  0  0
  188.0520  178.2840  140.1210 C   0  0  0  0  0  0  0  0  0  0  0  0
  187.9820  178.0410  137.6830 N   0  0  0  0  0  1  0  0  0  0  0  0
  188.6020  177.7620  138.9370 C   0  0  0  0  0  0  0  0  0  0  0  0
  188.6590  177.9970  141.3520 C   0  0  0  0  0  3  0  0  0  0  0  0
  189.8100  177.2030  141.4150 C   0  0  0  0  0  0  0  0  0  0  0  0
  189.8600  175.8010  143.3100 F   0  0  0  0  0  0  0  0  0  0  0  0
  190.3370  177.9880  143.5750 F   0  0  0  0  0  0  0  0  0  0  0  0
  190.4690  176.9000  142.7320 C   0  0  0  0  0  0  0  0  0  0  0  0
  191.8170  176.6250  142.5630 F   0  0  0  0  0  0  0  0  0  0  0  0
  191.5670  175.5240  138.1110 C   0  0  0  0  0  1  0  0  0  0  0  0
  190.3740  176.3960  137.7570 C   0  0  0  0  0  2  0  0  0  0  0  0
  1 17  1  1  0  0  0
  3  4  1  0  0  0  0
  3 11  1  0  0  0  0
  5  6  1  0  0  0  0
  6  9  1  0  0  0  0
  6  1  1  1  0  0  0
  7  4  1  1  0  0  0
  7  9  1  0  0  0  0
  8 10  1  1  0  0  0
  8  7  1  0  0  0  0
  8  5  1  0  0  0  0
  9  2  1  6  0  0  0
 10  3  1  0  0  0  0
 11 12  1  0  0  0  0
 12 13  1  0  0  0  0
 13 14  1  0  0  0  0
 14 15  1  0  0  0  0
 15 16  1  0  0  0  0
 17 18  1  0  0  0  0
 18 20  1  0  0  0  0
 19 18  2  0  0  0  0
 20 21  1  0  0  0  0
 21 22  1  0  0  0  0
 23 24  1  0  0  0  0
 24 25  1  0  0  0  0
 26 28  1  0  0  0  0
 26 27  1  0  0  0  0
 27 29  1  0  0  0  0
 27 24  2  0  0  0  0
 28 22  1  6  0  0  0
 28 23  1  0  0  0  0
 30 33  1  0  0  0  0
 30  1  1  0  0  0  0
 31 32  1  0  0  0  0
 32 37  2  0  0  0  0
 33 36  2  0  0  0  0
 34 35  1  0  0  0  0
 35 31  2  0  0  0  0
 35 33  1  0  0  0  0
 36 37  1  0  0  0  0
 37 40  1  0  0  0  0
 40 38  1  0  0  0  0
 40 39  1  0  0  0  0
 41 40  1  0  0  0  0
 43 42  1  0  0  0  0
 43 31  1  0  0  0  0
M  END
>  <MODEL>
7

>  <REMARK>
 VINA RESULT:      -7.2      3.002      6.716
  Name = 
  15 active torsions:
  status: ('A' for Active; 'I' for Inactive)
    1  A    between atoms: O_3  and  C_7
    2  A    between atoms: O_3  and  C_29
    3  A    between atoms: C_4  and  C_30
    4  A    between atoms: C_7  and  C_31
    5  A    between atoms: N_8  and  O_20
    6  A    between atoms: C_11  and  C_19
    7  A    between atoms: C_11  and  C_38
    8  A    between atoms: C_11  and  N_41
    9  A    between atoms: C_12  and  N_41
   10  A    between atoms: C_14  and  C_38
   11  A    between atoms: C_16  and  C_24
   12  A    between atoms: C_16  and  N_28
   13  A    between atoms: O_20  and  C_31
   14  A    between atoms: N_28  and  N_42
   15  A    between atoms: C_39  and  C_43
                            x       y       z     vdW  Elec       q    Type
                         _______ _______ _______ _____ _____    ______ ____

>  <TORSDO>
F 15

$$$$
=
 OpenBabel11032421213D

 43 46  0  0  1  0  0  0  0  0999 V2000
  187.3990  178.2820  138.2140 C   0  0  2  0  0  3  0  0  0  0  0  0
  186.4890  175.2590  137.2430 O   0  0  0  0  0  1  0  0  0  0  0  0
  190.9680  175.3780  135.8050 N   0  0  0  0  0  0  0  0  0  0  0  0
  189.8800  174.8870  136.6430 C   0  0  0  0  0  2  0  0  0  0  0  0
  188.6050  177.8360  136.0330 C   0  0  0  0  0  2  0  0  0  0  0  0
  187.4910  177.4030  136.9550 C   0  0  1  0  0  3  0  0  0  0  0  0
  188.5740  175.4080  136.0910 C   0  0  2  0  0  3  0  0  0  0  0  0
  188.9500  176.5950  135.2380 C   0  0  2  0  0  3  0  0  0  0  0  0
  187.7120  175.9260  137.2310 C   0  0  2  0  0  3  0  0  0  0  0  0
  190.4480  176.5090  135.0430 C   0  0  0  0  0  2  0  0  0  0  0  0
  191.9130  175.8750  136.6410 O   0  0  0  0  0  0  0  0  0  0  0  0
  192.2810  174.8030  137.4620 C   0  0  0  0  0  2  0  0  0  0  0  0
  193.7460  174.4750  137.2450 C   0  0  0  0  0  2  0  0  0  0  0  0
  194.5040  174.9610  138.3080 O   0  0  0  0  0  0  0  0  0  0  0  0
  195.4770  173.9850  138.5200 C   0  0  0  0  0  2  0  0  0  0  0  0
  196.5090  174.5070  139.5000 C   0  0  0  0  0  1  0  0  0  0  0  0
  187.6740  177.5500  139.5300 C   0  0  0  0  0  2  0  0  0  0  0  0
  189.0420  177.8310  140.0670 C   0  0  0  0  0  0  0  0  0  0  0  0
  189.8960  178.3690  139.3170 O   0  0  0  0  0  0  0  0  0  0  0  0
  189.4000  177.4980  141.4100 N   0  0  0  0  0  2  0  0  0  0  0  0
  188.5410  176.7790  142.2540 N   0  0  0  0  0  2  0  0  0  0  0  0
  189.2810  176.4750  143.4740 C   0  0  0  0  0  2  0  0  0  0  0  0
  189.8670  177.1020  146.1130 S   0  0  0  0  0  0  0  0  0  0  0  0
  188.3700  177.5440  146.9700 C   0  0  0  0  0  0  0  0  0  0  0  0
  188.3000  177.5120  148.4610 C   0  0  0  0  0  1  0  0  0  0  0  0
  187.6130  177.8890  144.7340 C   0  0  0  0  0  2  0  0  0  0  0  0
  187.3500  177.8970  146.1960 C   0  0  0  0  0  0  0  0  0  0  0  0
  189.0900  177.5660  144.5260 C   0  0  2  0  0  3  0  0  0  0  0  0
  186.0030  178.2450  146.7290 C   0  0  0  0  0  1  0  0  0  0  0  0
  186.0830  178.9000  138.2820 N   0  0  0  0  0  2  0  0  0  0  0  0
  182.9830  177.3390  139.6810 C   0  0  0  0  0  0  0  0  0  0  0  0
  183.0910  177.7000  141.0270 C   0  0  0  0  0  3  0  0  0  0  0  0
  185.0720  178.4980  139.2130 C   0  0  0  0  0  0  0  0  0  0  0  0
  183.8760  177.3740  137.3920 N   0  0  0  0  0  1  0  0  0  0  0  0
  183.9780  177.7350  138.7670 C   0  0  0  0  0  0  0  0  0  0  0  0
  185.1610  178.8590  140.5640 C   0  0  0  0  0  3  0  0  0  0  0  0
  184.1770  178.4620  141.4780 C   0  0  0  0  0  0  0  0  0  0  0  0
  184.9300  180.0520  143.0490 F   0  0  0  0  0  0  0  0  0  0  0  0
  184.9820  177.8700  143.6130 F   0  0  0  0  0  0  0  0  0  0  0  0
  184.2720  178.8400  142.9300 C   0  0  0  0  0  0  0  0  0  0  0  0
  183.0140  178.9580  143.4980 F   0  0  0  0  0  0  0  0  0  0  0  0
  180.6310  177.4140  138.9180 C   0  0  0  0  0  1  0  0  0  0  0  0
  181.8130  176.5170  139.2470 C   0  0  0  0  0  2  0  0  0  0  0  0
  1 30  1  0  0  0  0
  1 17  1  1  0  0  0
  3 11  1  0  0  0  0
  3  4  1  0  0  0  0
  5  6  1  0  0  0  0
  6  9  1  0  0  0  0
  6  1  1  1  0  0  0
  7  4  1  1  0  0  0
  7  9  1  0  0  0  0
  8 10  1  1  0  0  0
  8  5  1  0  0  0  0
  8  7  1  0  0  0  0
  9  2  1  6  0  0  0
 10  3  1  0  0  0  0
 11 12  1  0  0  0  0
 13 12  1  0  0  0  0
 13 14  1  0  0  0  0
 14 15  1  0  0  0  0
 15 16  1  0  0  0  0
 17 18  1  0  0  0  0
 18 20  1  0  0  0  0
 19 18  2  0  0  0  0
 20 21  1  0  0  0  0
 21 22  1  0  0  0  0
 23 24  1  0  0  0  0
 24 25  1  0  0  0  0
 26 27  1  0  0  0  0
 27 29  1  0  0  0  0
 27 24  2  0  0  0  0
 28 22  1  6  0  0  0
 28 26  1  0  0  0  0
 28 23  1  0  0  0  0
 30 33  1  0  0  0  0
 31 32  1  0  0  0  0
 32 37  2  0  0  0  0
 33 36  2  0  0  0  0
 34 35  1  0  0  0  0
 35 33  1  0  0  0  0
 35 31  2  0  0  0  0
 36 37  1  0  0  0  0
 37 40  1  0  0  0  0
 40 38  1  0  0  0  0
 40 41  1  0  0  0  0
 40 39  1  0  0  0  0
 42 43  1  0  0  0  0
 43 31  1  0  0  0  0
M  END
>  <MODEL>
8

>  <REMARK>
 VINA RESULT:      -7.1      3.665      8.371
  Name = 
  15 active torsions:
  status: ('A' for Active; 'I' for Inactive)
    1  A    between atoms: O_3  and  C_7
    2  A    between atoms: O_3  and  C_29
    3  A    between atoms: C_4  and  C_30
    4  A    between atoms: C_7  and  C_31
    5  A    between atoms: N_8  and  O_20
    6  A    between atoms: C_11  and  C_19
    7  A    between atoms: C_11  and  C_38
    8  A    between atoms: C_11  and  N_41
    9  A    between atoms: C_12  and  N_41
   10  A    between atoms: C_14  and  C_38
   11  A    between atoms: C_16  and  C_24
   12  A    between atoms: C_16  and  N_28
   13  A    between atoms: O_20  and  C_31
   14  A    between atoms: N_28  and  N_42
   15  A    between atoms: C_39  and  C_43
                            x       y       z     vdW  Elec       q    Type
                         _______ _______ _______ _____ _____    ______ ____

>  <TORSDO>
F 15

$$$$
=
 OpenBabel11032421213D

 43 46  0  0  1  0  0  0  0  0999 V2000
  186.4760  177.3760  138.1150 C   0  0  2  0  0  3  0  0  0  0  0  0
  186.1360  177.7060  134.8460 O   0  0  0  0  0  1  0  0  0  0  0  0
  183.4820  173.9080  135.6690 N   0  0  0  0  0  0  0  0  0  0  0  0
  183.6820  175.2990  135.2800 C   0  0  0  0  0  2  0  0  0  0  0  0
  186.3390  175.0320  137.1680 C   0  0  0  0  0  2  0  0  0  0  0  0
  186.5500  176.4940  136.8570 C   0  0  1  0  0  3  0  0  0  0  0  0
  185.1630  175.5420  135.1050 C   0  0  2  0  0  3  0  0  0  0  0  0
  185.8390  174.4310  135.8710 C   0  0  2  0  0  3  0  0  0  0  0  0
  185.5460  176.8510  135.7750 C   0  0  2  0  0  3  0  0  0  0  0  0
  184.7620  173.4090  136.1610 C   0  0  0  0  0  2  0  0  0  0  0  0
  182.6360  173.9160  136.7290 O   0  0  0  0  0  0  0  0  0  0  0  0
  182.1330  172.6120  136.8120 C   0  0  0  0  0  2  0  0  0  0  0  0
  180.6320  172.6580  137.0250 C   0  0  0  0  0  2  0  0  0  0  0  0
  180.2480  173.9360  137.4240 O   0  0  0  0  0  0  0  0  0  0  0  0
  179.5860  173.7410  138.6360 C   0  0  0  0  0  2  0  0  0  0  0  0
  180.0900  174.7450  139.6530 C   0  0  0  0  0  1  0  0  0  0  0  0
  185.2590  178.3010  138.1800 C   0  0  0  0  0  2  0  0  0  0  0  0
  184.1800  177.7670  139.0690 C   0  0  0  0  0  0  0  0  0  0  0  0
  183.4570  176.8240  138.6570 O   0  0  0  0  0  0  0  0  0  0  0  0
  183.9520  178.3050  140.3730 N   0  0  0  0  0  2  0  0  0  0  0  0
  184.6310  179.4400  140.8410 N   0  0  0  0  0  2  0  0  0  0  0  0
  185.8520  178.9810  141.4930 C   0  0  0  0  0  2  0  0  0  0  0  0
  184.6790  179.1960  143.9990 S   0  0  0  0  0  0  0  0  0  0  0  0
  185.8180  178.6280  145.2430 C   0  0  0  0  0  0  0  0  0  0  0  0
  185.6470  179.0120  146.6760 C   0  0  0  0  0  1  0  0  0  0  0  0
  186.8020  177.5610  143.3500 C   0  0  0  0  0  2  0  0  0  0  0  0
  186.8050  177.8530  144.8070 C   0  0  0  0  0  0  0  0  0  0  0  0
  185.5390  178.1740  142.7520 C   0  0  2  0  0  3  0  0  0  0  0  0
  187.8840  177.3290  145.6900 C   0  0  0  0  0  1  0  0  0  0  0  0
  187.6860  178.1780  138.2200 N   0  0  0  0  0  2  0  0  0  0  0  0
  191.1520  176.8070  138.5650 C   0  0  0  0  0  0  0  0  0  0  0  0
  191.2790  176.7610  139.9550 C   0  0  0  0  0  3  0  0  0  0  0  0
  188.8990  177.6970  138.8100 C   0  0  0  0  0  0  0  0  0  0  0  0
  189.8180  177.3300  136.5680 N   0  0  0  0  0  1  0  0  0  0  0  0
  189.9600  177.2800  137.9860 C   0  0  0  0  0  0  0  0  0  0  0  0
  189.0400  177.6360  140.2040 C   0  0  0  0  0  3  0  0  0  0  0  0
  190.2260  177.1720  140.7840 C   0  0  0  0  0  0  0  0  0  0  0  0
  191.7070  176.8530  142.5920 F   0  0  0  0  0  0  0  0  0  0  0  0
  189.5920  176.0980  142.7850 F   0  0  0  0  0  0  0  0  0  0  0  0
  190.3850  177.1110  142.2780 C   0  0  0  0  0  0  0  0  0  0  0  0
  190.0120  178.3080  142.8680 F   0  0  0  0  0  0  0  0  0  0  0  0
  192.2820  174.8600  137.5410 C   0  0  0  0  0  1  0  0  0  0  0  0
  192.3040  176.3680  137.7200 C   0  0  0  0  0  2  0  0  0  0  0  0
  1 17  1  6  0  0  0
  1 30  1  0  0  0  0
  3 10  1  0  0  0  0
  3 11  1  0  0  0  0
  4  3  1  0  0  0  0
  6  5  1  0  0  0  0
  6  1  1  1  0  0  0
  7  4  1  1  0  0  0
  7  9  1  0  0  0  0
  7  8  1  0  0  0  0
  8 10  1  1  0  0  0
  8  5  1  0  0  0  0
  9  2  1  6  0  0  0
  9  6  1  0  0  0  0
 11 12  1  0  0  0  0
 12 13  1  0  0  0  0
 13 14  1  0  0  0  0
 14 15  1  0  0  0  0
 15 16  1  0  0  0  0
 17 18  1  0  0  0  0
 18 20  1  0  0  0  0
 19 18  2  0  0  0  0
 20 21  1  0  0  0  0
 21 22  1  0  0  0  0
 23 24  1  0  0  0  0
 24 25  1  0  0  0  0
 26 27  1  0  0  0  0
 27 24  2  0  0  0  0
 27 29  1  0  0  0  0
 28 22  1  6  0  0  0
 28 26  1  0  0  0  0
 28 23  1  0  0  0  0
 30 33  1  0  0  0  0
 31 32  1  0  0  0  0
 32 37  2  0  0  0  0
 33 36  2  0  0  0  0
 34 35  1  0  0  0  0
 35 31  2  0  0  0  0
 35 33  1  0  0  0  0
 36 37  1  0  0  0  0
 37 40  1  0  0  0  0
 40 38  1  0  0  0  0
 40 39  1  0  0  0  0
 40 41  1  0  0  0  0
 42 43  1  0  0  0  0
 43 31  1  0  0  0  0
M  END
>  <MODEL>
9

>  <REMARK>
 VINA RESULT:      -7.1      2.724      6.532
  Name = 
  15 active torsions:
  status: ('A' for Active; 'I' for Inactive)
    1  A    between atoms: O_3  and  C_7
    2  A    between atoms: O_3  and  C_29
    3  A    between atoms: C_4  and  C_30
    4  A    between atoms: C_7  and  C_31
    5  A    between atoms: N_8  and  O_20
    6  A    between atoms: C_11  and  C_19
    7  A    between atoms: C_11  and  C_38
    8  A    between atoms: C_11  and  N_41
    9  A    between atoms: C_12  and  N_41
   10  A    between atoms: C_14  and  C_38
   11  A    between atoms: C_16  and  C_24
   12  A    between atoms: C_16  and  N_28
   13  A    between atoms: O_20  and  C_31
   14  A    between atoms: N_28  and  N_42
   15  A    between atoms: C_39  and  C_43
                            x       y       z     vdW  Elec       q    Type
                         _______ _______ _______ _____ _____    ______ ____

>  <TORSDO>
F 15

$$$$
