=
 OpenBabel11042411083D

 68 75  0  0  1  0  0  0  0  0999 V2000
  190.0660  178.1410  134.7770 O   0  0  0  0  0  0  0  0  0  0  0  0
  188.6790  177.6410  136.5850 N   0  0  0  0  0  0  0  0  0  0  0  0
  189.8550  177.4060  135.7800 C   0  0  0  0  0  0  0  0  0  0  0  0
  187.7570  178.2890  141.0300 C   0  0  0  0  0  3  0  0  0  0  0  0
  188.3540  176.8050  137.7450 C   0  0  2  0  0  3  0  0  0  0  0  0
  186.2020  178.0360  138.4540 O   0  0  0  0  0  1  0  0  0  0  0  0
  188.6790  178.2710  142.0890 C   0  0  0  0  0  3  0  0  0  0  0  0
  187.4780  177.5480  138.7100 C   0  0  0  0  0  0  0  0  0  0  0  0
  189.3510  177.0620  139.7140 C   0  0  0  0  0  0  0  0  0  0  0  0
  189.9240  177.6300  141.9250 C   0  0  0  0  0  0  0  0  0  0  0  0
  189.5570  176.5450  138.5480 N   0  0  0  0  0  0  0  0  0  0  0  0
  190.2460  177.0420  140.7330 N   0  0  0  0  0  0  0  0  0  0  0  0
  188.1310  177.6650  139.8450 C   0  0  0  0  0  0  0  0  0  0  0  0
  190.9060  177.6520  143.0480 C   0  0  0  0  0  2  0  0  0  0  0  0
  191.8280  176.1470  144.8050 C   0  0  0  0  0  1  0  0  0  0  0  0
  190.5590  176.6150  144.1130 C   0  0  1  0  0  3  0  0  0  0  0  0
  189.8430  177.1280  146.4560 N   0  0  0  0  0  0  0  0  0  0  0  0
  188.7560  177.7200  146.9840 C   0  0  0  0  0  0  0  0  0  0  0  0
  188.3810  177.7690  144.8680 C   0  0  0  0  0  3  0  0  0  0  0  0
  187.8520  178.0960  146.0600 N   0  0  0  0  0  0  0  0  0  0  0  0
  188.6230  177.9830  148.3800 N   0  0  0  0  0  1  0  0  0  0  0  0
  189.5960  177.1530  145.1290 C   0  0  0  0  0  0  0  0  0  0  0  0
  185.8880  177.4950  144.2840 O   0  0  0  0  0  1  0  0  0  0  0  0
  185.4490  177.9290  146.6250 C   0  0  0  0  0  2  0  0  0  0  0  0
  186.6150  178.8540  146.2600 C   0  0  2  0  0  3  0  0  0  0  0  0
  185.5620  178.4750  145.2270 C   0  0  1  0  0  0  0  0  0  0  0  0
  184.5130  179.5070  144.8600 C   0  0  0  0  0  2  0  0  0  0  0  0
  183.2400  179.0370  145.2210 O   0  0  0  0  0  0  0  0  0  0  0  0
  183.2480  178.5330  142.9760 F   0  0  0  0  0  0  0  0  0  0  0  0
  181.8490  180.1440  143.7570 F   0  0  0  0  0  0  0  0  0  0  0  0
  181.4840  177.9840  144.2510 F   0  0  0  0  0  0  0  0  0  0  0  0
  182.4650  178.9350  144.0490 C   0  0  0  0  0  0  0  0  0  0  0  0
  193.5940  174.8220  137.4800 C   0  0  0  0  0  3  0  0  0  0  0  0
  191.7400  174.2570  136.0290 C   0  0  0  0  0  0  0  0  0  0  0  0
  192.1650  172.8710  135.8500 C   0  0  0  0  0  3  0  0  0  0  0  0
  193.2800  172.4740  136.4850 C   0  0  0  0  0  3  0  0  0  0  0  0
  191.8660  176.4510  136.8240 N   0  0  0  0  0  0  0  0  0  0  0  0
  194.1070  173.3950  137.3790 C   0  0  0  0  0  2  0  0  0  0  0  0
  190.7110  174.9260  135.5420 C   0  0  0  0  0  0  0  0  0  0  0  0
  190.8190  176.3110  136.0630 C   0  0  0  0  0  0  0  0  0  0  0  0
  192.4840  175.1730  136.8370 C   0  0  0  0  0  0  0  0  0  0  0  0
  189.6830  174.3820  134.6060 C   0  0  0  0  0  2  0  0  0  0  0  0
  188.6190  173.8480  135.3370 O   0  0  0  0  0  1  0  0  0  0  0  0
  187.6850  178.6110  136.1280 C   0  0  0  0  0  2  0  0  0  0  0  0
  187.1170  178.2010  134.7800 C   0  0  0  0  0  2  0  0  0  0  0  0
  185.7380  177.6010  134.9820 C   0  0  0  0  0  2  0  0  0  0  0  0
  185.8520  176.0880  135.0930 C   0  0  0  0  0  2  0  0  0  0  0  0
  184.6380  173.9930  135.6270 C   0  0  1  0  0  3  0  0  0  0  0  0
  184.9850  173.4140  137.9210 O   0  0  0  0  0  1  0  0  0  0  0  0
  183.7300  176.0400  136.3570 C   0  0  0  0  0  0  0  0  0  0  0  0
  183.9820  173.1770  134.7060 O   0  0  0  0  0  1  0  0  0  0  0  0
  184.4760  175.4580  135.2210 C   0  0  1  0  0  3  0  0  0  0  0  0
  183.3060  177.2260  136.3800 O   0  0  0  0  0  0  0  0  0  0  0  0
  183.4830  175.1150  137.3970 N   0  0  0  0  0  0  0  0  0  0  0  0
  184.0040  173.8140  137.0120 C   0  0  1  0  0  3  0  0  0  0  0  0
  182.3900  175.2810  138.3450 C   0  0  0  0  0  2  0  0  0  0  0  0
  182.8450  176.0830  139.5490 C   0  0  0  0  0  2  0  0  0  0  0  0
  181.8050  177.0240  139.9220 N   0  0  0  0  0  2  0  0  0  0  0  0
  181.7020  177.9830  138.8340 C   0  0  0  0  0  2  0  0  0  0  0  0
  180.7610  179.0970  140.8170 C   0  0  0  0  0  1  0  0  0  0  0  0
  181.0260  179.2520  139.3290 C   0  0  1  0  0  3  0  0  0  0  0  0
  181.8880  180.4920  139.0630 C   0  0  1  0  0  3  0  0  0  0  0  0
  183.2000  180.1140  138.7570 O   0  0  0  0  0  1  0  0  0  0  0  0
  181.3270  181.2950  137.8970 C   0  0  2  0  0  3  0  0  0  0  0  0
  179.9350  181.7890  138.2490 C   0  0  2  0  0  3  0  0  0  0  0  0
  180.1040  180.6020  137.3260 C   0  0  0  0  0  2  0  0  0  0  0  0
  180.7220  183.9740  137.5680 N   0  0  0  0  0  1  0  0  0  0  0  0
  179.6340  183.0250  137.4280 C   0  0  0  0  0  2  0  0  0  0  0  0
  1  3  2  0  0  0  0
  3 40  1  0  0  0  0
  3  2  1  0  0  0  0
  4  7  2  0  0  0  0
  5  2  1  6  0  0  0
  5 11  1  0  0  0  0
  5  8  1  0  0  0  0
  6  8  1  0  0  0  0
  8 13  2  0  0  0  0
  9 13  1  0  0  0  0
  9 12  1  0  0  0  0
 10  7  1  0  0  0  0
 10 14  1  0  0  0  0
 11  9  2  0  0  0  0
 12 10  2  0  0  0  0
 13  4  1  0  0  0  0
 14 16  1  0  0  0  0
 16 15  1  1  0  0  0
 16 22  1  0  0  0  0
 17 18  2  0  0  0  0
 18 21  1  0  0  0  0
 19 22  2  0  0  0  0
 19 20  1  0  0  0  0
 20 18  1  0  0  0  0
 22 17  1  0  0  0  0
 25 20  1  6  0  0  0
 25 24  1  0  0  0  0
 26 23  1  6  0  0  0
 26 25  1  0  0  0  0
 26 24  1  0  0  0  0
 27 28  1  0  0  0  0
 27 26  1  0  0  0  0
 29 32  1  0  0  0  0
 30 32  1  0  0  0  0
 32 31  1  0  0  0  0
 32 28  1  0  0  0  0
 34 41  1  0  0  0  0
 35 34  1  0  0  0  0
 35 36  2  0  0  0  0
 36 38  1  0  0  0  0
 37 41  1  0  0  0  0
 38 33  1  0  0  0  0
 39 34  2  0  0  0  0
 39 40  1  0  0  0  0
 40 37  2  0  0  0  0
 41 33  2  0  0  0  0
 42 43  1  0  0  0  0
 42 39  1  0  0  0  0
 44  2  1  0  0  0  0
 45 46  1  0  0  0  0
 45 44  1  0  0  0  0
 46 47  1  0  0  0  0
 48 51  1  6  0  0  0
 48 55  1  0  0  0  0
 50 53  2  0  0  0  0
 50 54  1  0  0  0  0
 52 47  1  1  0  0  0
 52 48  1  0  0  0  0
 52 50  1  0  0  0  0
 54 56  1  0  0  0  0
 55 54  1  0  0  0  0
 55 49  1  1  0  0  0
 56 57  1  0  0  0  0
 57 58  1  0  0  0  0
 59 61  1  0  0  0  0
 59 58  1  0  0  0  0
 61 60  1  1  0  0  0
 62 63  1  6  0  0  0
 62 61  1  0  0  0  0
 64 65  1  0  0  0  0
 64 62  1  1  0  0  0
 65 68  1  6  0  0  0
 66 64  1  0  0  0  0
 66 65  1  0  0  0  0
 68 67  1  0  0  0  0
M  END
>  <MODEL>
1

>  <REMARK>
 VINA RESULT:      -7.1      0.000      0.000
  Name = 
  23 active torsions:
  status: ('A' for Active; 'I' for Inactive)
    1  A    between atoms: N_3  and  C_9
    2  A    between atoms: N_3  and  C_58
    3  A    between atoms: C_8  and  C_10
    4  A    between atoms: C_8  and  C_57
    5  A    between atoms: C_9  and  C_57
    6  A    between atoms: C_11  and  C_54
    7  A    between atoms: C_13  and  N_38
    8  A    between atoms: C_14  and  C_30
    9  A    between atoms: C_14  and  C_43
   10  A    between atoms: C_15  and  C_52
   11  A    between atoms: C_15  and  C_56
   12  A    between atoms: C_18  and  C_47
   13  A    between atoms: C_22  and  C_24
   14  A    between atoms: C_22  and  C_30
   15  A    between atoms: C_24  and  N_38
   16  A    between atoms: O_26  and  C_31
   17  A    between atoms: O_26  and  C_62
   18  A    between atoms: C_31  and  C_61
   19  A    between atoms: N_32  and  C_60
   20  A    between atoms: C_35  and  C_58
   21  A    between atoms: C_35  and  N_65
   22  A    between atoms: C_40  and  C_64
   23  A    between atoms: C_53  and  C_56
                            x       y       z     vdW  Elec       q    Type
                         _______ _______ _______ _____ _____    ______ ____

>  <TORSDO>
F 23

$$$$
=
 OpenBabel11042411083D

 68 75  0  0  1  0  0  0  0  0999 V2000
  189.8960  176.1090  142.5050 O   0  0  0  0  0  0  0  0  0  0  0  0
  188.2440  177.6320  141.8790 N   0  0  0  0  0  0  0  0  0  0  0  0
  189.0610  176.9790  142.8750 C   0  0  0  0  0  0  0  0  0  0  0  0
  183.6740  177.9780  141.7130 C   0  0  0  0  0  3  0  0  0  0  0  0
  187.2310  178.6290  142.2400 C   0  0  2  0  0  3  0  0  0  0  0  0
  185.7630  177.1000  143.7090 O   0  0  0  0  0  1  0  0  0  0  0  0
  182.9130  178.5290  140.6700 C   0  0  0  0  0  3  0  0  0  0  0  0
  185.9460  177.9650  142.6360 C   0  0  0  0  0  0  0  0  0  0  0  0
  185.5720  179.1900  140.8720 C   0  0  0  0  0  0  0  0  0  0  0  0
  183.5140  179.4140  139.7520 C   0  0  0  0  0  0  0  0  0  0  0  0
  186.8320  179.4100  141.0610 N   0  0  0  0  0  0  0  0  0  0  0  0
  184.8420  179.7240  139.8610 N   0  0  0  0  0  0  0  0  0  0  0  0
  185.0160  178.3380  141.7850 C   0  0  0  0  0  0  0  0  0  0  0  0
  182.7000  179.9610  138.6280 C   0  0  0  0  0  2  0  0  0  0  0  0
  180.2790  180.5440  138.6520 C   0  0  0  0  0  1  0  0  0  0  0  0
  181.2800  179.4010  138.6450 C   0  0  1  0  0  3  0  0  0  0  0  0
  179.9130  178.6100  136.7030 N   0  0  0  0  0  0  0  0  0  0  0  0
  180.0880  177.6500  135.7770 C   0  0  0  0  0  0  0  0  0  0  0  0
  181.8470  177.4980  137.0020 C   0  0  0  0  0  3  0  0  0  0  0  0
  181.2280  176.9520  135.9410 N   0  0  0  0  0  0  0  0  0  0  0  0
  179.1840  177.4520  134.6910 N   0  0  0  0  0  1  0  0  0  0  0  0
  181.0150  178.5020  137.4740 C   0  0  0  0  0  0  0  0  0  0  0  0
  181.8520  174.6440  137.2270 O   0  0  0  0  0  1  0  0  0  0  0  0
  180.8770  174.6850  135.0120 C   0  0  0  0  0  2  0  0  0  0  0  0
  181.7890  175.9170  135.0700 C   0  0  2  0  0  3  0  0  0  0  0  0
  182.1230  174.6560  135.8560 C   0  0  1  0  0  0  0  0  0  0  0  0
  183.2260  173.7560  135.3320 C   0  0  0  0  0  2  0  0  0  0  0  0
  183.5950  172.8330  136.3240 O   0  0  0  0  0  0  0  0  0  0  0  0
  185.6640  173.4380  135.5160 F   0  0  0  0  0  0  0  0  0  0  0  0
  184.9040  171.3230  135.1780 F   0  0  0  0  0  0  0  0  0  0  0  0
  185.4960  172.0030  137.2340 F   0  0  0  0  0  0  0  0  0  0  0  0
  184.9090  172.4030  136.0500 C   0  0  0  0  0  0  0  0  0  0  0  0
  187.3670  177.5100  147.3900 C   0  0  0  0  0  3  0  0  0  0  0  0
  189.5570  177.8430  146.4150 C   0  0  0  0  0  0  0  0  0  0  0  0
  190.1680  178.2670  147.6730 C   0  0  0  0  0  3  0  0  0  0  0  0
  189.3880  178.3010  148.7650 C   0  0  0  0  0  3  0  0  0  0  0  0
  187.8370  177.1360  145.0010 N   0  0  0  0  0  0  0  0  0  0  0  0
  187.9110  177.9140  148.7510 C   0  0  0  0  0  2  0  0  0  0  0  0
  190.0570  177.7150  145.2000 C   0  0  0  0  0  0  0  0  0  0  0  0
  188.9430  177.2670  144.3280 C   0  0  0  0  0  0  0  0  0  0  0  0
  188.1740  177.4880  146.3340 C   0  0  0  0  0  0  0  0  0  0  0  0
  191.4610  178.0220  144.7990 C   0  0  0  0  0  2  0  0  0  0  0  0
  191.5050  179.2590  144.1530 O   0  0  0  0  0  1  0  0  0  0  0  0
  188.2860  177.1550  140.4970 C   0  0  0  0  0  2  0  0  0  0  0  0
  189.2390  177.9990  139.6680 C   0  0  0  0  0  2  0  0  0  0  0  0
  189.2890  177.4510  138.2540 C   0  0  0  0  0  2  0  0  0  0  0  0
  188.0110  176.6810  137.9600 C   0  0  0  0  0  2  0  0  0  0  0  0
  187.9380  176.7080  135.4820 C   0  0  1  0  0  3  0  0  0  0  0  0
  189.6990  178.0830  134.6300 O   0  0  0  0  0  1  0  0  0  0  0  0
  189.5780  175.3960  136.5480 C   0  0  0  0  0  0  0  0  0  0  0  0
  186.9350  176.1440  134.6930 O   0  0  0  0  0  1  0  0  0  0  0  0
  188.1750  175.8310  136.7120 C   0  0  1  0  0  3  0  0  0  0  0  0
  190.1480  174.5730  137.3130 O   0  0  0  0  0  0  0  0  0  0  0  0
  190.2060  175.9470  135.4080 N   0  0  0  0  0  0  0  0  0  0  0  0
  189.2470  176.7640  134.6830 C   0  0  1  0  0  3  0  0  0  0  0  0
  191.3540  175.3200  134.7690 C   0  0  0  0  0  2  0  0  0  0  0  0
  191.1730  173.8160  134.7030 C   0  0  0  0  0  2  0  0  0  0  0  0
  192.4690  173.1700  134.7970 N   0  0  0  0  0  2  0  0  0  0  0  0
  193.4310  174.2120  135.1180 C   0  0  0  0  0  2  0  0  0  0  0  0
  195.3210  172.6550  134.8700 C   0  0  0  0  0  1  0  0  0  0  0  0
  194.6280  173.6050  135.8330 C   0  0  1  0  0  3  0  0  0  0  0  0
  195.6040  174.6830  136.3170 C   0  0  1  0  0  3  0  0  0  0  0  0
  194.9850  175.9390  136.3030 O   0  0  0  0  0  1  0  0  0  0  0  0
  196.0710  174.3860  137.7360 C   0  0  2  0  0  3  0  0  0  0  0  0
  197.5720  174.1540  137.7330 C   0  0  2  0  0  3  0  0  0  0  0  0
  196.6250  172.9760  137.8180 C   0  0  0  0  0  2  0  0  0  0  0  0
  198.6900  175.7940  139.1190 N   0  0  0  0  0  1  0  0  0  0  0  0
  198.1150  174.4620  139.1130 C   0  0  0  0  0  2  0  0  0  0  0  0
  1  3  2  0  0  0  0
  2  3  1  0  0  0  0
  3 40  1  0  0  0  0
  4 13  1  0  0  0  0
  5  2  1  6  0  0  0
  5  8  1  0  0  0  0
  7  4  2  0  0  0  0
  8  6  1  0  0  0  0
  9 11  2  0  0  0  0
  9 13  1  0  0  0  0
 10 12  2  0  0  0  0
 10  7  1  0  0  0  0
 11  5  1  0  0  0  0
 12  9  1  0  0  0  0
 13  8  2  0  0  0  0
 14 16  1  0  0  0  0
 14 10  1  0  0  0  0
 16 15  1  6  0  0  0
 17 22  1  0  0  0  0
 18 20  1  0  0  0  0
 18 17  2  0  0  0  0
 19 22  2  0  0  0  0
 20 19  1  0  0  0  0
 21 18  1  0  0  0  0
 22 16  1  0  0  0  0
 24 26  1  0  0  0  0
 25 24  1  6  0  0  0
 25 26  1  0  0  0  0
 25 20  1  0  0  0  0
 26 23  1  1  0  0  0
 27 26  1  0  0  0  0
 27 28  1  0  0  0  0
 29 32  1  0  0  0  0
 30 32  1  0  0  0  0
 32 28  1  0  0  0  0
 32 31  1  0  0  0  0
 33 38  1  0  0  0  0
 34 35  1  0  0  0  0
 35 36  2  0  0  0  0
 37 41  1  0  0  0  0
 38 36  1  0  0  0  0
 39 34  2  0  0  0  0
 40 37  2  0  0  0  0
 40 39  1  0  0  0  0
 41 34  1  0  0  0  0
 41 33  2  0  0  0  0
 42 39  1  0  0  0  0
 43 42  1  0  0  0  0
 44  2  1  0  0  0  0
 45 44  1  0  0  0  0
 46 45  1  0  0  0  0
 47 46  1  0  0  0  0
 48 51  1  6  0  0  0
 48 52  1  0  0  0  0
 50 52  1  0  0  0  0
 50 53  2  0  0  0  0
 52 47  1  1  0  0  0
 54 50  1  0  0  0  0
 55 49  1  1  0  0  0
 55 54  1  0  0  0  0
 55 48  1  0  0  0  0
 56 54  1  0  0  0  0
 57 56  1  0  0  0  0
 57 58  1  0  0  0  0
 58 59  1  0  0  0  0
 59 61  1  0  0  0  0
 61 60  1  6  0  0  0
 61 62  1  0  0  0  0
 62 63  1  1  0  0  0
 64 62  1  6  0  0  0
 64 66  1  0  0  0  0
 65 64  1  0  0  0  0
 65 66  1  0  0  0  0
 65 68  1  1  0  0  0
 68 67  1  0  0  0  0
M  END
>  <MODEL>
2

>  <REMARK>
 VINA RESULT:      -6.8      3.340     10.916
  Name = 
  23 active torsions:
  status: ('A' for Active; 'I' for Inactive)
    1  A    between atoms: N_3  and  C_9
    2  A    between atoms: N_3  and  C_58
    3  A    between atoms: C_8  and  C_10
    4  A    between atoms: C_8  and  C_57
    5  A    between atoms: C_9  and  C_57
    6  A    between atoms: C_11  and  C_54
    7  A    between atoms: C_13  and  N_38
    8  A    between atoms: C_14  and  C_30
    9  A    between atoms: C_14  and  C_43
   10  A    between atoms: C_15  and  C_52
   11  A    between atoms: C_15  and  C_56
   12  A    between atoms: C_18  and  C_47
   13  A    between atoms: C_22  and  C_24
   14  A    between atoms: C_22  and  C_30
   15  A    between atoms: C_24  and  N_38
   16  A    between atoms: O_26  and  C_31
   17  A    between atoms: O_26  and  C_62
   18  A    between atoms: C_31  and  C_61
   19  A    between atoms: N_32  and  C_60
   20  A    between atoms: C_35  and  C_58
   21  A    between atoms: C_35  and  N_65
   22  A    between atoms: C_40  and  C_64
   23  A    between atoms: C_53  and  C_56
                            x       y       z     vdW  Elec       q    Type
                         _______ _______ _______ _____ _____    ______ ____

>  <TORSDO>
F 23

$$$$
=
 OpenBabel11042411083D

 68 75  0  0  1  0  0  0  0  0999 V2000
  189.5560  178.4810  135.3150 O   0  0  0  0  0  0  0  0  0  0  0  0
  188.2020  177.8370  137.1020 N   0  0  0  0  0  0  0  0  0  0  0  0
  189.4160  177.7380  136.3240 C   0  0  0  0  0  0  0  0  0  0  0  0
  187.8670  178.3790  141.6430 C   0  0  0  0  0  3  0  0  0  0  0  0
  187.9570  176.9820  138.2680 C   0  0  2  0  0  3  0  0  0  0  0  0
  186.0010  178.3330  139.2690 O   0  0  0  0  0  1  0  0  0  0  0  0
  188.9050  178.2560  142.5810 C   0  0  0  0  0  3  0  0  0  0  0  0
  187.2600  177.7470  139.3540 C   0  0  0  0  0  0  0  0  0  0  0  0
  189.1980  177.0950  140.1080 C   0  0  0  0  0  0  0  0  0  0  0  0
  190.0710  177.5370  142.2480 C   0  0  0  0  0  0  0  0  0  0  0  0
  189.2250  176.6090  138.9100 N   0  0  0  0  0  0  0  0  0  0  0  0
  190.2040  176.9740  141.0090 N   0  0  0  0  0  0  0  0  0  0  0  0
  188.0500  177.7750  140.4040 C   0  0  0  0  0  0  0  0  0  0  0  0
  191.1790  177.4470  143.2430 C   0  0  0  0  0  2  0  0  0  0  0  0
  192.1320  175.9990  145.0310 C   0  0  0  0  0  1  0  0  0  0  0  0
  190.8500  176.4580  144.3580 C   0  0  1  0  0  3  0  0  0  0  0  0
  190.2760  177.2220  146.6720 N   0  0  0  0  0  0  0  0  0  0  0  0
  189.1850  177.7910  147.2160 C   0  0  0  0  0  0  0  0  0  0  0  0
  188.6430  177.5280  145.1520 C   0  0  0  0  0  3  0  0  0  0  0  0
  188.1800  177.9690  146.3350 N   0  0  0  0  0  0  0  0  0  0  0  0
  189.1370  178.2270  148.5730 N   0  0  0  0  0  1  0  0  0  0  0  0
  189.9250  177.0500  145.3800 C   0  0  0  0  0  0  0  0  0  0  0  0
  186.2020  177.1400  144.6710 O   0  0  0  0  0  1  0  0  0  0  0  0
  185.8180  177.6620  147.0040 C   0  0  0  0  0  2  0  0  0  0  0  0
  186.9010  178.6470  146.5470 C   0  0  2  0  0  3  0  0  0  0  0  0
  185.8410  178.1410  145.5770 C   0  0  1  0  0  0  0  0  0  0  0  0
  184.7070  179.0760  145.2020 C   0  0  0  0  0  2  0  0  0  0  0  0
  183.8020  178.4100  144.3600 O   0  0  0  0  0  0  0  0  0  0  0  0
  184.3500  177.9060  142.1820 F   0  0  0  0  0  0  0  0  0  0  0  0
  184.9100  179.9350  143.0370 F   0  0  0  0  0  0  0  0  0  0  0  0
  182.7620  179.4300  142.6250 F   0  0  0  0  0  0  0  0  0  0  0  0
  183.9690  178.9150  143.0550 C   0  0  0  0  0  0  0  0  0  0  0  0
  193.4830  175.7040  138.0160 C   0  0  0  0  0  3  0  0  0  0  0  0
  191.6260  174.8270  136.7350 C   0  0  0  0  0  0  0  0  0  0  0  0
  192.1820  173.4790  136.6540 C   0  0  0  0  0  3  0  0  0  0  0  0
  193.3630  173.2540  137.2520 C   0  0  0  0  0  3  0  0  0  0  0  0
  191.5650  177.0870  137.3250 N   0  0  0  0  0  0  0  0  0  0  0  0
  194.1350  174.3310  138.0100 C   0  0  0  0  0  2  0  0  0  0  0  0
  190.5090  175.3430  136.2540 C   0  0  0  0  0  0  0  0  0  0  0  0
  190.5010  176.7750  136.6440 C   0  0  0  0  0  0  0  0  0  0  0  0
  192.3110  175.8830  137.4140 C   0  0  0  0  0  0  0  0  0  0  0  0
  189.4970  174.6160  135.4330 C   0  0  0  0  0  2  0  0  0  0  0  0
  188.8390  175.5170  134.5940 O   0  0  0  0  0  1  0  0  0  0  0  0
  187.1060  178.6710  136.6100 C   0  0  0  0  0  2  0  0  0  0  0  0
  186.1250  177.8420  135.7990 C   0  0  0  0  0  2  0  0  0  0  0  0
  184.7250  178.0530  136.3420 C   0  0  0  0  0  2  0  0  0  0  0  0
  184.2690  176.8030  137.0780 C   0  0  0  0  0  2  0  0  0  0  0  0
  182.2150  178.1790  137.2650 C   0  0  1  0  0  3  0  0  0  0  0  0
  180.6670  177.5690  135.5470 O   0  0  0  0  0  1  0  0  0  0  0  0
  182.1500  175.9470  138.0140 C   0  0  0  0  0  0  0  0  0  0  0  0
  182.0360  179.2570  138.1320 O   0  0  0  0  0  1  0  0  0  0  0  0
  183.0640  177.1070  137.9500 C   0  0  1  0  0  3  0  0  0  0  0  0
  182.4330  174.8660  138.5970 O   0  0  0  0  0  0  0  0  0  0  0  0
  180.8960  176.1870  137.4090 N   0  0  0  0  0  0  0  0  0  0  0  0
  180.8520  177.5590  136.9310 C   0  0  1  0  0  3  0  0  0  0  0  0
  179.7010  175.4340  137.7620 C   0  0  0  0  0  2  0  0  0  0  0  0
  178.9390  175.0250  136.5170 C   0  0  0  0  0  2  0  0  0  0  0  0
  179.1570  173.6130  136.2610 N   0  0  0  0  0  2  0  0  0  0  0  0
  180.0340  173.1300  137.3140 C   0  0  0  0  0  2  0  0  0  0  0  0
  179.5410  170.9120  136.3660 C   0  0  0  0  0  1  0  0  0  0  0  0
  180.6500  171.8010  136.9020 C   0  0  1  0  0  3  0  0  0  0  0  0
  181.7450  171.9900  135.8460 C   0  0  1  0  0  3  0  0  0  0  0  0
  181.9980  173.3520  135.6470 O   0  0  0  0  0  1  0  0  0  0  0  0
  183.0370  171.3130  136.2860 C   0  0  2  0  0  3  0  0  0  0  0  0
  183.8570  170.9510  135.0600 C   0  0  2  0  0  3  0  0  0  0  0  0
  183.0710  169.8810  135.7870 C   0  0  0  0  0  2  0  0  0  0  0  0
  186.1050  171.7190  134.5960 N   0  0  0  0  0  1  0  0  0  0  0  0
  185.3150  170.8610  135.4590 C   0  0  0  0  0  2  0  0  0  0  0  0
  1  3  2  0  0  0  0
  3 40  1  0  0  0  0
  3  2  1  0  0  0  0
  4  7  2  0  0  0  0
  5  2  1  6  0  0  0
  5 11  1  0  0  0  0
  5  8  1  0  0  0  0
  6  8  1  0  0  0  0
  8 13  2  0  0  0  0
  9 13  1  0  0  0  0
  9 12  1  0  0  0  0
 10  7  1  0  0  0  0
 10 14  1  0  0  0  0
 11  9  2  0  0  0  0
 12 10  2  0  0  0  0
 13  4  1  0  0  0  0
 14 16  1  0  0  0  0
 16 15  1  1  0  0  0
 16 22  1  0  0  0  0
 17 18  2  0  0  0  0
 18 21  1  0  0  0  0
 19 22  2  0  0  0  0
 19 20  1  0  0  0  0
 20 18  1  0  0  0  0
 22 17  1  0  0  0  0
 25 20  1  6  0  0  0
 25 24  1  0  0  0  0
 26 23  1  6  0  0  0
 26 25  1  0  0  0  0
 26 24  1  0  0  0  0
 27 26  1  0  0  0  0
 28 27  1  0  0  0  0
 29 32  1  0  0  0  0
 30 32  1  0  0  0  0
 31 32  1  0  0  0  0
 32 28  1  0  0  0  0
 34 41  1  0  0  0  0
 35 34  1  0  0  0  0
 35 36  2  0  0  0  0
 36 38  1  0  0  0  0
 37 41  1  0  0  0  0
 38 33  1  0  0  0  0
 39 40  1  0  0  0  0
 39 34  2  0  0  0  0
 40 37  2  0  0  0  0
 41 33  2  0  0  0  0
 42 39  1  0  0  0  0
 43 42  1  0  0  0  0
 44  2  1  0  0  0  0
 45 46  1  0  0  0  0
 45 44  1  0  0  0  0
 46 47  1  0  0  0  0
 48 52  1  0  0  0  0
 48 51  1  1  0  0  0
 50 53  2  0  0  0  0
 52 47  1  6  0  0  0
 52 50  1  0  0  0  0
 54 56  1  0  0  0  0
 54 50  1  0  0  0  0
 55 49  1  6  0  0  0
 55 48  1  0  0  0  0
 55 54  1  0  0  0  0
 57 56  1  0  0  0  0
 58 57  1  0  0  0  0
 58 59  1  0  0  0  0
 61 60  1  6  0  0  0
 61 59  1  0  0  0  0
 62 63  1  1  0  0  0
 62 61  1  0  0  0  0
 64 62  1  6  0  0  0
 65 68  1  1  0  0  0
 65 66  1  0  0  0  0
 65 64  1  0  0  0  0
 66 64  1  0  0  0  0
 67 68  1  0  0  0  0
M  END
>  <MODEL>
3

>  <REMARK>
 VINA RESULT:      -5.8      2.011      4.484
  Name = 
  23 active torsions:
  status: ('A' for Active; 'I' for Inactive)
    1  A    between atoms: N_3  and  C_9
    2  A    between atoms: N_3  and  C_58
    3  A    between atoms: C_8  and  C_10
    4  A    between atoms: C_8  and  C_57
    5  A    between atoms: C_9  and  C_57
    6  A    between atoms: C_11  and  C_54
    7  A    between atoms: C_13  and  N_38
    8  A    between atoms: C_14  and  C_30
    9  A    between atoms: C_14  and  C_43
   10  A    between atoms: C_15  and  C_52
   11  A    between atoms: C_15  and  C_56
   12  A    between atoms: C_18  and  C_47
   13  A    between atoms: C_22  and  C_24
   14  A    between atoms: C_22  and  C_30
   15  A    between atoms: C_24  and  N_38
   16  A    between atoms: O_26  and  C_31
   17  A    between atoms: O_26  and  C_62
   18  A    between atoms: C_31  and  C_61
   19  A    between atoms: N_32  and  C_60
   20  A    between atoms: C_35  and  C_58
   21  A    between atoms: C_35  and  N_65
   22  A    between atoms: C_40  and  C_64
   23  A    between atoms: C_53  and  C_56
                            x       y       z     vdW  Elec       q    Type
                         _______ _______ _______ _____ _____    ______ ____

>  <TORSDO>
F 23

$$$$
=
 OpenBabel11042411083D

 68 75  0  0  1  0  0  0  0  0999 V2000
  187.9090  177.9680  145.8690 O   0  0  0  0  0  0  0  0  0  0  0  0
  189.0110  177.0540  144.0270 N   0  0  0  0  0  0  0  0  0  0  0  0
  188.9370  177.3820  145.4320 C   0  0  0  0  0  0  0  0  0  0  0  0
  192.1360  178.0310  140.8160 C   0  0  0  0  0  3  0  0  0  0  0  0
  190.1890  176.4020  143.4440 C   0  0  2  0  0  3  0  0  0  0  0  0
  191.8560  178.3360  143.8080 O   0  0  0  0  0  1  0  0  0  0  0  0
  192.0750  177.6890  139.4560 C   0  0  0  0  0  3  0  0  0  0  0  0
  191.1950  177.4200  142.9970 C   0  0  0  0  0  0  0  0  0  0  0  0
  190.5280  176.2980  141.2510 C   0  0  0  0  0  0  0  0  0  0  0  0
  191.2350  176.6390  139.0330 C   0  0  0  0  0  0  0  0  0  0  0  0
  189.8380  175.7310  142.1860 N   0  0  0  0  0  0  0  0  0  0  0  0
  190.4640  175.9640  139.9380 N   0  0  0  0  0  0  0  0  0  0  0  0
  191.3410  177.3030  141.6950 C   0  0  0  0  0  0  0  0  0  0  0  0
  191.1540  176.3130  137.5790 C   0  0  0  0  0  2  0  0  0  0  0  0
  189.4170  177.2160  136.0410 C   0  0  0  0  0  1  0  0  0  0  0  0
  189.7060  176.1830  137.1160 C   0  0  1  0  0  3  0  0  0  0  0  0
  190.2710  174.1080  135.8330 N   0  0  0  0  0  0  0  0  0  0  0  0
  189.6230  172.9500  135.6130 C   0  0  0  0  0  0  0  0  0  0  0  0
  188.2560  174.0700  136.8380 C   0  0  0  0  0  3  0  0  0  0  0  0
  188.4040  172.9040  136.1840 N   0  0  0  0  0  0  0  0  0  0  0  0
  190.2110  171.8600  134.9060 N   0  0  0  0  0  1  0  0  0  0  0  0
  189.4040  174.8100  136.5930 C   0  0  0  0  0  0  0  0  0  0  0  0
  185.9910  173.4000  135.0420 O   0  0  0  0  0  1  0  0  0  0  0  0
  187.1240  171.2700  134.8370 C   0  0  0  0  0  2  0  0  0  0  0  0
  187.4740  171.7740  136.2420 C   0  0  2  0  0  3  0  0  0  0  0  0
  186.1410  172.1230  135.5930 C   0  0  1  0  0  0  0  0  0  0  0  0
  184.8990  171.3940  136.0680 C   0  0  0  0  0  2  0  0  0  0  0  0
  184.1040  171.0440  134.9650 O   0  0  0  0  0  0  0  0  0  0  0  0
  182.1170  169.8880  134.8520 F   0  0  0  0  0  0  0  0  0  0  0  0
  182.0860  172.1510  135.0510 F   0  0  0  0  0  0  0  0  0  0  0  0
  182.7470  170.8680  136.7710 F   0  0  0  0  0  0  0  0  0  0  0  0
  182.7630  170.9890  135.3950 C   0  0  0  0  0  0  0  0  0  0  0  0
  192.8650  175.4930  147.5630 C   0  0  0  0  0  3  0  0  0  0  0  0
  191.3360  177.2510  148.2170 C   0  0  0  0  0  0  0  0  0  0  0  0
  192.0200  177.5210  149.4800 C   0  0  0  0  0  3  0  0  0  0  0  0
  193.1100  176.7930  149.7670 C   0  0  0  0  0  3  0  0  0  0  0  0
  190.9410  176.1710  146.1830 N   0  0  0  0  0  0  0  0  0  0  0  0
  193.6620  175.7130  148.8390 C   0  0  0  0  0  2  0  0  0  0  0  0
  190.2600  177.7900  147.6730 C   0  0  0  0  0  0  0  0  0  0  0  0
  190.0360  177.0840  146.3870 C   0  0  0  0  0  0  0  0  0  0  0  0
  191.7930  176.2390  147.3170 C   0  0  0  0  0  0  0  0  0  0  0  0
  189.4190  178.8620  148.2830 C   0  0  0  0  0  2  0  0  0  0  0  0
  188.3730  178.2840  149.0040 O   0  0  0  0  0  1  0  0  0  0  0  0
  187.9750  177.5520  143.1230 C   0  0  0  0  0  2  0  0  0  0  0  0
  186.5960  177.3610  143.7320 C   0  0  0  0  0  2  0  0  0  0  0  0
  185.7210  178.5440  143.3650 C   0  0  0  0  0  2  0  0  0  0  0  0
  186.0940  179.0440  141.9780 C   0  0  0  0  0  2  0  0  0  0  0  0
  184.2010  178.6550  140.4250 C   0  0  1  0  0  3  0  0  0  0  0  0
  184.1280  180.3890  138.7800 O   0  0  0  0  0  1  0  0  0  0  0  0
  186.3820  178.1530  139.6920 C   0  0  0  0  0  0  0  0  0  0  0  0
  183.2220  177.6720  140.5680 O   0  0  0  0  0  1  0  0  0  0  0  0
  185.5460  178.1130  140.9100 C   0  0  1  0  0  3  0  0  0  0  0  0
  187.5570  177.6980  139.6360 O   0  0  0  0  0  0  0  0  0  0  0  0
  185.7140  178.6960  138.5720 N   0  0  0  0  0  0  0  0  0  0  0  0
  184.3470  179.0200  138.9420 C   0  0  1  0  0  3  0  0  0  0  0  0
  186.1140  178.3970  137.2040 C   0  0  0  0  0  2  0  0  0  0  0  0
  184.9660  177.7690  136.4370 C   0  0  0  0  0  2  0  0  0  0  0  0
  184.9880  176.3310  136.6300 N   0  0  0  0  0  2  0  0  0  0  0  0
  183.8650  175.7930  135.8800 C   0  0  0  0  0  2  0  0  0  0  0  0
  183.8920  174.5880  138.0260 C   0  0  0  0  0  1  0  0  0  0  0  0
  183.1450  174.7430  136.7120 C   0  0  1  0  0  3  0  0  0  0  0  0
  181.6840  175.1290  136.9680 C   0  0  1  0  0  3  0  0  0  0  0  0
  180.9700  174.0290  137.4580 O   0  0  0  0  0  1  0  0  0  0  0  0
  181.5990  176.2590  137.9870 C   0  0  2  0  0  3  0  0  0  0  0  0
  180.1890  176.8230  137.9950 C   0  0  2  0  0  3  0  0  0  0  0  0
  181.2990  177.5700  137.2870 C   0  0  0  0  0  2  0  0  0  0  0  0
  180.1680  178.8940  139.2470 N   0  0  0  0  0  1  0  0  0  0  0  0
  179.9290  177.4660  139.3410 C   0  0  0  0  0  2  0  0  0  0  0  0
  2  3  1  0  0  0  0
  3  1  2  0  0  0  0
  3 40  1  0  0  0  0
  4 13  1  0  0  0  0
  5  2  1  6  0  0  0
  7  4  2  0  0  0  0
  8  5  1  0  0  0  0
  8  6  1  0  0  0  0
  9 13  1  0  0  0  0
  9 11  2  0  0  0  0
 10  7  1  0  0  0  0
 10 12  2  0  0  0  0
 11  5  1  0  0  0  0
 12  9  1  0  0  0  0
 13  8  2  0  0  0  0
 14 10  1  0  0  0  0
 16 15  1  6  0  0  0
 16 14  1  0  0  0  0
 17 22  1  0  0  0  0
 18 17  2  0  0  0  0
 18 20  1  0  0  0  0
 20 25  1  0  0  0  0
 20 19  1  0  0  0  0
 21 18  1  0  0  0  0
 22 19  2  0  0  0  0
 22 16  1  0  0  0  0
 24 26  1  0  0  0  0
 25 24  1  6  0  0  0
 26 23  1  6  0  0  0
 26 27  1  0  0  0  0
 26 25  1  0  0  0  0
 28 32  1  0  0  0  0
 28 27  1  0  0  0  0
 29 32  1  0  0  0  0
 30 32  1  0  0  0  0
 32 31  1  0  0  0  0
 33 38  1  0  0  0  0
 34 35  1  0  0  0  0
 35 36  2  0  0  0  0
 37 40  2  0  0  0  0
 37 41  1  0  0  0  0
 38 36  1  0  0  0  0
 39 34  2  0  0  0  0
 39 42  1  0  0  0  0
 40 39  1  0  0  0  0
 41 33  2  0  0  0  0
 41 34  1  0  0  0  0
 42 43  1  0  0  0  0
 44 45  1  0  0  0  0
 44  2  1  0  0  0  0
 46 45  1  0  0  0  0
 47 46  1  0  0  0  0
 48 51  1  6  0  0  0
 48 52  1  0  0  0  0
 50 52  1  0  0  0  0
 52 47  1  1  0  0  0
 53 50  2  0  0  0  0
 54 55  1  0  0  0  0
 54 50  1  0  0  0  0
 55 49  1  1  0  0  0
 55 48  1  0  0  0  0
 56 54  1  0  0  0  0
 57 58  1  0  0  0  0
 57 56  1  0  0  0  0
 59 58  1  0  0  0  0
 59 61  1  0  0  0  0
 61 62  1  0  0  0  0
 61 60  1  1  0  0  0
 62 63  1  1  0  0  0
 64 62  1  6  0  0  0
 64 65  1  0  0  0  0
 65 68  1  1  0  0  0
 66 64  1  0  0  0  0
 66 65  1  0  0  0  0
 67 68  1  0  0  0  0
M  END
>  <MODEL>
4

>  <REMARK>
 VINA RESULT:      -5.7      3.443      8.934
  Name = 
  23 active torsions:
  status: ('A' for Active; 'I' for Inactive)
    1  A    between atoms: N_3  and  C_9
    2  A    between atoms: N_3  and  C_58
    3  A    between atoms: C_8  and  C_10
    4  A    between atoms: C_8  and  C_57
    5  A    between atoms: C_9  and  C_57
    6  A    between atoms: C_11  and  C_54
    7  A    between atoms: C_13  and  N_38
    8  A    between atoms: C_14  and  C_30
    9  A    between atoms: C_14  and  C_43
   10  A    between atoms: C_15  and  C_52
   11  A    between atoms: C_15  and  C_56
   12  A    between atoms: C_18  and  C_47
   13  A    between atoms: C_22  and  C_24
   14  A    between atoms: C_22  and  C_30
   15  A    between atoms: C_24  and  N_38
   16  A    between atoms: O_26  and  C_31
   17  A    between atoms: O_26  and  C_62
   18  A    between atoms: C_31  and  C_61
   19  A    between atoms: N_32  and  C_60
   20  A    between atoms: C_35  and  C_58
   21  A    between atoms: C_35  and  N_65
   22  A    between atoms: C_40  and  C_64
   23  A    between atoms: C_53  and  C_56
                            x       y       z     vdW  Elec       q    Type
                         _______ _______ _______ _____ _____    ______ ____

>  <TORSDO>
F 23

$$$$
=
 OpenBabel11042411083D

 68 75  0  0  1  0  0  0  0  0999 V2000
  190.0830  174.5680  134.6410 O   0  0  0  0  0  0  0  0  0  0  0  0
  189.8840  176.2890  136.2020 N   0  0  0  0  0  0  0  0  0  0  0  0
  190.6730  175.3750  135.4090 C   0  0  0  0  0  0  0  0  0  0  0  0
  190.0810  176.8440  140.7500 C   0  0  0  0  0  3  0  0  0  0  0  0
  190.5000  177.2320  137.1410 C   0  0  2  0  0  3  0  0  0  0  0  0
  191.7250  175.4970  138.6040 O   0  0  0  0  0  1  0  0  0  0  0  0
  189.2190  177.6250  141.5370 C   0  0  0  0  0  3  0  0  0  0  0  0
  190.8370  176.5540  138.4350 C   0  0  0  0  0  0  0  0  0  0  0  0
  189.3800  178.1240  138.8400 C   0  0  0  0  0  0  0  0  0  0  0  0
  188.4610  178.6520  140.9410 C   0  0  0  0  0  0  0  0  0  0  0  0
  189.5290  178.2510  137.5620 N   0  0  0  0  0  0  0  0  0  0  0  0
  188.5450  178.8800  139.5950 N   0  0  0  0  0  0  0  0  0  0  0  0
  190.1380  177.1280  139.3890 C   0  0  0  0  0  0  0  0  0  0  0  0
  187.5220  179.4470  141.7860 C   0  0  0  0  0  2  0  0  0  0  0  0
  186.3570  177.2590  141.5560 C   0  0  0  0  0  1  0  0  0  0  0  0
  186.3580  178.5940  142.2810 C   0  0  1  0  0  3  0  0  0  0  0  0
  185.4020  178.6900  144.5930 N   0  0  0  0  0  0  0  0  0  0  0  0
  185.8550  178.3020  145.7990 C   0  0  0  0  0  0  0  0  0  0  0  0
  187.4570  177.7770  144.4640 C   0  0  0  0  0  3  0  0  0  0  0  0
  187.0920  177.7700  145.7590 N   0  0  0  0  0  0  0  0  0  0  0  0
  185.0630  178.3840  146.9830 N   0  0  0  0  0  1  0  0  0  0  0  0
  186.4160  178.3670  143.7620 C   0  0  0  0  0  0  0  0  0  0  0  0
  189.4450  179.0060  146.3130 O   0  0  0  0  0  1  0  0  0  0  0  0
  187.9970  178.1130  148.0360 C   0  0  0  0  0  2  0  0  0  0  0  0
  187.8470  177.1520  146.8500 C   0  0  2  0  0  3  0  0  0  0  0  0
  189.1560  177.8890  147.1020 C   0  0  1  0  0  0  0  0  0  0  0  0
  190.3130  177.1110  147.6990 C   0  0  0  0  0  2  0  0  0  0  0  0
  190.5260  175.9370  146.9590 O   0  0  0  0  0  0  0  0  0  0  0  0
  191.8590  177.5090  145.9350 F   0  0  0  0  0  0  0  0  0  0  0  0
  191.4370  175.5410  144.8800 F   0  0  0  0  0  0  0  0  0  0  0  0
  192.7520  175.5970  146.6990 F   0  0  0  0  0  0  0  0  0  0  0  0
  191.6320  176.1520  146.1120 C   0  0  0  0  0  0  0  0  0  0  0  0
  195.3830  176.5240  135.2230 C   0  0  0  0  0  3  0  0  0  0  0  0
  194.2170  174.5010  135.8590 C   0  0  0  0  0  0  0  0  0  0  0  0
  195.4420  173.7610  136.1530 C   0  0  0  0  0  3  0  0  0  0  0  0
  196.6110  174.4010  135.9910 C   0  0  0  0  0  3  0  0  0  0  0  0
  192.9280  176.3250  135.1740 N   0  0  0  0  0  0  0  0  0  0  0  0
  196.7130  175.8520  135.5250 C   0  0  0  0  0  2  0  0  0  0  0  0
  192.9460  174.1470  135.9200 C   0  0  0  0  0  0  0  0  0  0  0  0
  192.1560  175.3230  135.4800 C   0  0  0  0  0  0  0  0  0  0  0  0
  194.2480  175.8550  135.4010 C   0  0  0  0  0  0  0  0  0  0  0  0
  192.4350  172.7990  136.3090 C   0  0  0  0  0  2  0  0  0  0  0  0
  192.5930  171.9120  135.2420 O   0  0  0  0  0  1  0  0  0  0  0  0
  188.4280  176.1450  136.2180 C   0  0  0  0  0  2  0  0  0  0  0  0
  188.0070  175.0710  137.2070 C   0  0  0  0  0  2  0  0  0  0  0  0
  187.7750  173.7700  136.4620 C   0  0  0  0  0  2  0  0  0  0  0  0
  186.3550  173.7400  135.9190 C   0  0  0  0  0  2  0  0  0  0  0  0
  184.8270  175.6910  136.0250 C   0  0  1  0  0  3  0  0  0  0  0  0
  182.9420  175.3280  134.6000 O   0  0  0  0  0  1  0  0  0  0  0  0
  184.2340  173.7300  137.1860 C   0  0  0  0  0  0  0  0  0  0  0  0
  185.0890  176.8920  136.6850 O   0  0  0  0  0  1  0  0  0  0  0  0
  185.4230  174.5290  136.8220 C   0  0  1  0  0  3  0  0  0  0  0  0
  184.2760  172.7170  137.9360 O   0  0  0  0  0  0  0  0  0  0  0  0
  183.0290  174.2460  136.6610 N   0  0  0  0  0  0  0  0  0  0  0  0
  183.3110  175.4750  135.9380 C   0  0  1  0  0  3  0  0  0  0  0  0
  181.7310  173.9590  137.2560 C   0  0  0  0  0  2  0  0  0  0  0  0
  181.0110  175.2440  137.6140 C   0  0  0  0  0  2  0  0  0  0  0  0
  181.8610  176.0490  138.4720 N   0  0  0  0  0  2  0  0  0  0  0  0
  181.3360  175.9160  139.8210 C   0  0  0  0  0  2  0  0  0  0  0  0
  178.9310  176.0200  140.3330 C   0  0  0  0  0  1  0  0  0  0  0  0
  180.1570  176.8580  140.0100 C   0  0  1  0  0  3  0  0  0  0  0  0
  180.4200  177.8760  141.1250 C   0  0  1  0  0  3  0  0  0  0  0  0
  181.7590  178.2800  141.1070 O   0  0  0  0  0  1  0  0  0  0  0  0
  179.5370  179.1060  140.9480 C   0  0  2  0  0  3  0  0  0  0  0  0
  180.4000  180.2920  140.5570 C   0  0  2  0  0  3  0  0  0  0  0  0
  179.8960  180.1590  141.9780 C   0  0  0  0  0  2  0  0  0  0  0  0
  179.5920  181.0090  138.3910 N   0  0  0  0  0  1  0  0  0  0  0  0
  179.5430  181.2940  139.8130 C   0  0  0  0  0  2  0  0  0  0  0  0
  1  3  2  0  0  0  0
  2 44  1  0  0  0  0
  3 40  1  0  0  0  0
  3  2  1  0  0  0  0
  4  7  2  0  0  0  0
  5  2  1  6  0  0  0
  5 11  1  0  0  0  0
  5  8  1  0  0  0  0
  8  6  1  0  0  0  0
  8 13  2  0  0  0  0
  9 13  1  0  0  0  0
  9 12  1  0  0  0  0
 10  7  1  0  0  0  0
 10 14  1  0  0  0  0
 11  9  2  0  0  0  0
 12 10  2  0  0  0  0
 13  4  1  0  0  0  0
 14 16  1  0  0  0  0
 16 15  1  6  0  0  0
 16 22  1  0  0  0  0
 17 18  2  0  0  0  0
 18 21  1  0  0  0  0
 19 20  1  0  0  0  0
 20 18  1  0  0  0  0
 22 19  2  0  0  0  0
 22 17  1  0  0  0  0
 25 20  1  6  0  0  0
 25 26  1  0  0  0  0
 25 24  1  0  0  0  0
 26 23  1  6  0  0  0
 26 27  1  0  0  0  0
 26 24  1  0  0  0  0
 28 27  1  0  0  0  0
 29 32  1  0  0  0  0
 30 32  1  0  0  0  0
 32 31  1  0  0  0  0
 32 28  1  0  0  0  0
 33 41  2  0  0  0  0
 33 38  1  0  0  0  0
 34 39  2  0  0  0  0
 34 35  1  0  0  0  0
 36 35  2  0  0  0  0
 37 41  1  0  0  0  0
 37 40  2  0  0  0  0
 38 36  1  0  0  0  0
 39 42  1  0  0  0  0
 40 39  1  0  0  0  0
 41 34  1  0  0  0  0
 43 42  1  0  0  0  0
 44 45  1  0  0  0  0
 46 45  1  0  0  0  0
 47 46  1  0  0  0  0
 48 51  1  1  0  0  0
 48 52  1  0  0  0  0
 50 53  2  0  0  0  0
 52 47  1  6  0  0  0
 52 50  1  0  0  0  0
 54 50  1  0  0  0  0
 54 56  1  0  0  0  0
 55 49  1  6  0  0  0
 55 48  1  0  0  0  0
 55 54  1  0  0  0  0
 56 57  1  0  0  0  0
 57 58  1  0  0  0  0
 58 59  1  0  0  0  0
 59 61  1  0  0  0  0
 61 60  1  1  0  0  0
 61 62  1  0  0  0  0
 62 63  1  6  0  0  0
 64 62  1  1  0  0  0
 64 66  1  0  0  0  0
 65 68  1  6  0  0  0
 65 64  1  0  0  0  0
 65 66  1  0  0  0  0
 67 68  1  0  0  0  0
M  END
>  <MODEL>
5

>  <REMARK>
 VINA RESULT:      -5.5      2.934      4.242
  Name = 
  23 active torsions:
  status: ('A' for Active; 'I' for Inactive)
    1  A    between atoms: N_3  and  C_9
    2  A    between atoms: N_3  and  C_58
    3  A    between atoms: C_8  and  C_10
    4  A    between atoms: C_8  and  C_57
    5  A    between atoms: C_9  and  C_57
    6  A    between atoms: C_11  and  C_54
    7  A    between atoms: C_13  and  N_38
    8  A    between atoms: C_14  and  C_30
    9  A    between atoms: C_14  and  C_43
   10  A    between atoms: C_15  and  C_52
   11  A    between atoms: C_15  and  C_56
   12  A    between atoms: C_18  and  C_47
   13  A    between atoms: C_22  and  C_24
   14  A    between atoms: C_22  and  C_30
   15  A    between atoms: C_24  and  N_38
   16  A    between atoms: O_26  and  C_31
   17  A    between atoms: O_26  and  C_62
   18  A    between atoms: C_31  and  C_61
   19  A    between atoms: N_32  and  C_60
   20  A    between atoms: C_35  and  C_58
   21  A    between atoms: C_35  and  N_65
   22  A    between atoms: C_40  and  C_64
   23  A    between atoms: C_53  and  C_56
                            x       y       z     vdW  Elec       q    Type
                         _______ _______ _______ _____ _____    ______ ____

>  <TORSDO>
F 23

$$$$
=
 OpenBabel11042411083D

 68 75  0  0  1  0  0  0  0  0999 V2000
  186.3610  178.7310  144.8140 O   0  0  0  0  0  0  0  0  0  0  0  0
  187.0960  178.0890  142.6950 N   0  0  0  0  0  0  0  0  0  0  0  0
  187.2500  178.1550  144.1300 C   0  0  0  0  0  0  0  0  0  0  0  0
  189.1550  179.0380  138.7090 C   0  0  0  0  0  3  0  0  0  0  0  0
  188.1060  177.4630  141.8350 C   0  0  2  0  0  3  0  0  0  0  0  0
  189.6890  179.4900  141.6470 O   0  0  0  0  0  1  0  0  0  0  0  0
  188.7440  178.6200  137.4330 C   0  0  0  0  0  3  0  0  0  0  0  0
  188.8870  178.5020  141.0870 C   0  0  0  0  0  0  0  0  0  0  0  0
  187.8360  177.2570  139.6390 C   0  0  0  0  0  0  0  0  0  0  0  0
  187.8850  177.5110  137.3000 C   0  0  0  0  0  0  0  0  0  0  0  0
  187.4640  176.7090  140.7500 N   0  0  0  0  0  0  0  0  0  0  0  0
  187.4340  176.8500  138.4090 N   0  0  0  0  0  0  0  0  0  0  0  0
  188.6770  178.3210  139.8020 C   0  0  0  0  0  0  0  0  0  0  0  0
  187.4290  177.1030  135.9390 C   0  0  0  0  0  2  0  0  0  0  0  0
  189.4410  178.1460  134.9060 C   0  0  0  0  0  1  0  0  0  0  0  0
  188.6100  176.8770  134.9990 C   0  0  1  0  0  3  0  0  0  0  0  0
  189.3980  174.5030  134.9050 N   0  0  0  0  0  0  0  0  0  0  0  0
  190.3450  173.8140  135.5680 C   0  0  0  0  0  0  0  0  0  0  0  0
  190.4700  175.7870  136.4120 C   0  0  0  0  0  3  0  0  0  0  0  0
  190.9920  174.5500  136.4930 N   0  0  0  0  0  0  0  0  0  0  0  0
  190.6720  172.4600  135.2590 N   0  0  0  0  0  1  0  0  0  0  0  0
  189.4750  175.7370  135.4470 C   0  0  0  0  0  0  0  0  0  0  0  0
  193.3850  174.7900  135.2340 O   0  0  0  0  0  1  0  0  0  0  0  0
  193.0700  175.3580  137.5660 C   0  0  0  0  0  2  0  0  0  0  0  0
  192.1390  174.1650  137.3160 C   0  0  2  0  0  3  0  0  0  0  0  0
  193.4450  174.3150  136.5480 C   0  0  1  0  0  0  0  0  0  0  0  0
  194.6140  173.4330  136.9410 C   0  0  0  0  0  2  0  0  0  0  0  0
  195.6560  173.5850  136.0120 O   0  0  0  0  0  0  0  0  0  0  0  0
  196.5380  174.8250  137.7390 F   0  0  0  0  0  0  0  0  0  0  0  0
  197.7800  174.4650  135.8710 F   0  0  0  0  0  0  0  0  0  0  0  0
  197.3460  172.7800  137.2890 F   0  0  0  0  0  0  0  0  0  0  0  0
  196.8250  173.9260  136.7220 C   0  0  0  0  0  0  0  0  0  0  0  0
  191.6490  176.3910  145.1680 C   0  0  0  0  0  3  0  0  0  0  0  0
  189.7090  176.8580  146.5380 C   0  0  0  0  0  0  0  0  0  0  0  0
  190.3430  176.4080  147.7750 C   0  0  0  0  0  3  0  0  0  0  0  0
  191.6100  175.9670  147.7030 C   0  0  0  0  0  3  0  0  0  0  0  0
  189.5500  177.2930  144.2480 N   0  0  0  0  0  0  0  0  0  0  0  0
  192.4070  175.9240  146.4010 C   0  0  0  0  0  2  0  0  0  0  0  0
  188.5000  177.3310  146.2970 C   0  0  0  0  0  0  0  0  0  0  0  0
  188.4300  177.5960  144.8390 C   0  0  0  0  0  0  0  0  0  0  0  0
  190.3970  176.8220  145.2850 C   0  0  0  0  0  0  0  0  0  0  0  0
  187.4150  177.5030  147.3080 C   0  0  0  0  0  2  0  0  0  0  0  0
  187.4910  178.7820  147.8640 O   0  0  0  0  0  1  0  0  0  0  0  0
  186.0060  178.8290  142.0610 C   0  0  0  0  0  2  0  0  0  0  0  0
  184.6600  178.2620  142.4760 C   0  0  0  0  0  2  0  0  0  0  0  0
  183.6370  178.5610  141.3970 C   0  0  0  0  0  2  0  0  0  0  0  0
  182.2350  178.4070  141.9660 C   0  0  0  0  0  2  0  0  0  0  0  0
  181.9160  178.1790  139.5180 C   0  0  1  0  0  3  0  0  0  0  0  0
  182.4850  175.9620  138.8260 O   0  0  0  0  0  1  0  0  0  0  0  0
  180.3080  177.2370  140.9570 C   0  0  0  0  0  0  0  0  0  0  0  0
  181.6070  179.2170  138.6390 O   0  0  0  0  0  1  0  0  0  0  0  0
  181.2040  178.4080  140.8510 C   0  0  1  0  0  3  0  0  0  0  0  0
  179.4640  177.0840  141.8820 O   0  0  0  0  0  0  0  0  0  0  0  0
  180.4430  176.3290  139.8840 N   0  0  0  0  0  0  0  0  0  0  0  0
  181.4140  176.8510  138.9370 C   0  0  1  0  0  3  0  0  0  0  0  0
  179.3810  175.4080  139.5010 C   0  0  0  0  0  2  0  0  0  0  0  0
  179.9510  174.0410  139.1750 C   0  0  0  0  0  2  0  0  0  0  0  0
  179.1760  173.4380  138.1080 N   0  0  0  0  0  2  0  0  0  0  0  0
  180.0050  172.3940  137.5300 C   0  0  0  0  0  2  0  0  0  0  0  0
  179.2940  173.8130  135.6480 C   0  0  0  0  0  1  0  0  0  0  0  0
  180.1770  172.6390  136.0380 C   0  0  1  0  0  3  0  0  0  0  0  0
  181.6390  172.9240  135.6770 C   0  0  1  0  0  3  0  0  0  0  0  0
  181.7790  174.2410  135.2250 O   0  0  0  0  0  1  0  0  0  0  0  0
  182.5400  172.7260  136.8900 C   0  0  2  0  0  3  0  0  0  0  0  0
  183.9490  172.4110  136.4240 C   0  0  2  0  0  3  0  0  0  0  0  0
  183.0550  171.3000  136.9300 C   0  0  0  0  0  2  0  0  0  0  0  0
  185.2430  174.2160  137.3850 N   0  0  0  0  0  1  0  0  0  0  0  0
  184.9230  172.8070  137.5130 C   0  0  0  0  0  2  0  0  0  0  0  0
  2  3  1  0  0  0  0
  3  1  2  0  0  0  0
  3 40  1  0  0  0  0
  4 13  1  0  0  0  0
  5  2  1  1  0  0  0
  7  4  2  0  0  0  0
  8  6  1  0  0  0  0
  8  5  1  0  0  0  0
  9 13  1  0  0  0  0
  9 11  2  0  0  0  0
 10  7  1  0  0  0  0
 10 12  2  0  0  0  0
 11  5  1  0  0  0  0
 12  9  1  0  0  0  0
 13  8  2  0  0  0  0
 14 10  1  0  0  0  0
 16 15  1  1  0  0  0
 16 22  1  0  0  0  0
 16 14  1  0  0  0  0
 17 22  1  0  0  0  0
 17 18  2  0  0  0  0
 18 20  1  0  0  0  0
 19 20  1  0  0  0  0
 21 18  1  0  0  0  0
 22 19  2  0  0  0  0
 25 20  1  6  0  0  0
 25 24  1  0  0  0  0
 26 23  1  6  0  0  0
 26 27  1  0  0  0  0
 26 25  1  0  0  0  0
 26 24  1  0  0  0  0
 28 32  1  0  0  0  0
 28 27  1  0  0  0  0
 30 32  1  0  0  0  0
 32 31  1  0  0  0  0
 32 29  1  0  0  0  0
 33 41  2  0  0  0  0
 33 38  1  0  0  0  0
 34 35  1  0  0  0  0
 36 35  2  0  0  0  0
 37 40  2  0  0  0  0
 37 41  1  0  0  0  0
 38 36  1  0  0  0  0
 39 34  2  0  0  0  0
 39 42  1  0  0  0  0
 40 39  1  0  0  0  0
 41 34  1  0  0  0  0
 42 43  1  0  0  0  0
 44 45  1  0  0  0  0
 44  2  1  0  0  0  0
 46 47  1  0  0  0  0
 46 45  1  0  0  0  0
 48 51  1  6  0  0  0
 48 52  1  0  0  0  0
 50 53  2  0  0  0  0
 52 50  1  0  0  0  0
 52 47  1  1  0  0  0
 54 50  1  0  0  0  0
 55 49  1  1  0  0  0
 55 48  1  0  0  0  0
 55 54  1  0  0  0  0
 56 54  1  0  0  0  0
 57 56  1  0  0  0  0
 58 57  1  0  0  0  0
 59 58  1  0  0  0  0
 61 60  1  1  0  0  0
 61 59  1  0  0  0  0
 62 63  1  1  0  0  0
 62 61  1  0  0  0  0
 64 62  1  6  0  0  0
 64 66  1  0  0  0  0
 65 64  1  0  0  0  0
 65 66  1  0  0  0  0
 65 68  1  1  0  0  0
 67 68  1  0  0  0  0
M  END
>  <MODEL>
6

>  <REMARK>
 VINA RESULT:      -4.8      4.205      9.588
  Name = 
  23 active torsions:
  status: ('A' for Active; 'I' for Inactive)
    1  A    between atoms: N_3  and  C_9
    2  A    between atoms: N_3  and  C_58
    3  A    between atoms: C_8  and  C_10
    4  A    between atoms: C_8  and  C_57
    5  A    between atoms: C_9  and  C_57
    6  A    between atoms: C_11  and  C_54
    7  A    between atoms: C_13  and  N_38
    8  A    between atoms: C_14  and  C_30
    9  A    between atoms: C_14  and  C_43
   10  A    between atoms: C_15  and  C_52
   11  A    between atoms: C_15  and  C_56
   12  A    between atoms: C_18  and  C_47
   13  A    between atoms: C_22  and  C_24
   14  A    between atoms: C_22  and  C_30
   15  A    between atoms: C_24  and  N_38
   16  A    between atoms: O_26  and  C_31
   17  A    between atoms: O_26  and  C_62
   18  A    between atoms: C_31  and  C_61
   19  A    between atoms: N_32  and  C_60
   20  A    between atoms: C_35  and  C_58
   21  A    between atoms: C_35  and  N_65
   22  A    between atoms: C_40  and  C_64
   23  A    between atoms: C_53  and  C_56
                            x       y       z     vdW  Elec       q    Type
                         _______ _______ _______ _____ _____    ______ ____

>  <TORSDO>
F 23

$$$$
=
 OpenBabel11042411083D

 68 75  0  0  1  0  0  0  0  0999 V2000
  178.9370  177.3960  138.6110 O   0  0  0  0  0  0  0  0  0  0  0  0
  181.1200  177.7890  139.3310 N   0  0  0  0  0  0  0  0  0  0  0  0
  179.8740  178.2290  138.7490 C   0  0  0  0  0  0  0  0  0  0  0  0
  185.0580  177.8320  141.6800 C   0  0  0  0  0  3  0  0  0  0  0  0
  182.2630  178.6950  139.4910 C   0  0  2  0  0  3  0  0  0  0  0  0
  184.1200  176.9930  138.9350 O   0  0  0  0  0  1  0  0  0  0  0  0
  185.2680  178.3840  142.9540 C   0  0  0  0  0  3  0  0  0  0  0  0
  183.5180  177.9250  139.7740 C   0  0  0  0  0  0  0  0  0  0  0  0
  183.1010  179.2130  141.4820 C   0  0  0  0  0  0  0  0  0  0  0  0
  184.3780  179.3560  143.4540 C   0  0  0  0  0  0  0  0  0  0  0  0
  182.1110  179.5080  140.7050 N   0  0  0  0  0  0  0  0  0  0  0  0
  183.2980  179.7490  142.7120 N   0  0  0  0  0  0  0  0  0  0  0  0
  183.9530  178.2780  140.9640 C   0  0  0  0  0  0  0  0  0  0  0  0
  184.5950  179.9050  144.8240 C   0  0  0  0  0  2  0  0  0  0  0  0
  183.8300  177.6020  145.3810 C   0  0  0  0  0  1  0  0  0  0  0  0
  184.6340  178.7950  145.8700 C   0  0  1  0  0  3  0  0  0  0  0  0
  186.6110  178.5670  147.3900 N   0  0  0  0  0  0  0  0  0  0  0  0
  187.8310  178.0200  147.2460 C   0  0  0  0  0  0  0  0  0  0  0  0
  186.9010  177.6900  145.3360 C   0  0  0  0  0  3  0  0  0  0  0  0
  188.0440  177.5040  146.0200 N   0  0  0  0  0  0  0  0  0  0  0  0
  188.7690  177.9340  148.3180 N   0  0  0  0  0  1  0  0  0  0  0  0
  186.0360  178.3660  146.1850 C   0  0  0  0  0  0  0  0  0  0  0  0
  189.1690  178.5040  143.7610 O   0  0  0  0  0  1  0  0  0  0  0  0
  190.4780  177.5960  145.5840 C   0  0  0  0  0  2  0  0  0  0  0  0
  189.2030  176.7450  145.5460 C   0  0  2  0  0  3  0  0  0  0  0  0
  189.7780  177.3540  144.2740 C   0  0  1  0  0  0  0  0  0  0  0  0
  190.5200  176.4440  143.3150 C   0  0  0  0  0  2  0  0  0  0  0  0
  189.9420  176.5280  142.0380 O   0  0  0  0  0  0  0  0  0  0  0  0
  191.2380  176.6340  140.1390 F   0  0  0  0  0  0  0  0  0  0  0  0
  191.8400  177.8310  141.9740 F   0  0  0  0  0  0  0  0  0  0  0  0
  190.0290  178.4120  140.7820 F   0  0  0  0  0  0  0  0  0  0  0  0
  190.7700  177.3400  141.2380 C   0  0  0  0  0  0  0  0  0  0  0  0
  179.1210  183.0190  138.5680 C   0  0  0  0  0  3  0  0  0  0  0  0
  179.4220  181.3450  136.8470 C   0  0  0  0  0  0  0  0  0  0  0  0
  179.2850  182.2980  135.7480 C   0  0  0  0  0  3  0  0  0  0  0  0
  179.0790  183.5870  136.0620 C   0  0  0  0  0  3  0  0  0  0  0  0
  179.4760  180.6340  139.0720 N   0  0  0  0  0  0  0  0  0  0  0  0
  178.9890  184.0930  137.5000 C   0  0  0  0  0  3  0  0  0  0  0  0
  179.6240  180.0390  136.8520 C   0  0  0  0  0  0  0  0  0  0  0  0
  179.6530  179.6200  138.2740 C   0  0  0  0  0  0  0  0  0  0  0  0
  179.3270  181.7550  138.2130 C   0  0  2  0  0  3  0  0  0  0  0  0
  179.7430  179.1720  135.6430 C   0  0  0  0  0  2  0  0  0  0  0  0
  181.0460  179.2380  135.1450 O   0  0  0  0  0  1  0  0  0  0  0  0
  181.3220  176.3640  139.5920 C   0  0  0  0  0  2  0  0  0  0  0  0
  180.9970  175.5430  138.3570 C   0  0  0  0  0  2  0  0  0  0  0  0
  181.9380  175.9360  137.2340 C   0  0  0  0  0  2  0  0  0  0  0  0
  181.4920  175.2730  135.9400 C   0  0  0  0  0  2  0  0  0  0  0  0
  183.9490  175.5160  135.7130 C   0  0  1  0  0  3  0  0  0  0  0  0
  185.0470  174.4050  137.5240 O   0  0  0  0  0  1  0  0  0  0  0  0
  182.9620  173.4550  135.1440 C   0  0  0  0  0  0  0  0  0  0  0  0
  184.6030  176.3090  134.7710 O   0  0  0  0  0  1  0  0  0  0  0  0
  182.6940  174.9070  135.0870 C   0  0  1  0  0  3  0  0  0  0  0  0
  182.2040  172.5830  134.6390 O   0  0  0  0  0  0  0  0  0  0  0  0
  184.1880  173.1350  135.7700 N   0  0  0  0  0  0  0  0  0  0  0  0
  184.8690  174.3640  136.1400 C   0  0  1  0  0  3  0  0  0  0  0  0
  184.8920  171.8860  135.5170 C   0  0  0  0  0  2  0  0  0  0  0  0
  186.2490  172.1540  134.8960 C   0  0  0  0  0  2  0  0  0  0  0  0
  187.2870  171.6180  135.7580 N   0  0  0  0  0  2  0  0  0  0  0  0
  188.5440  172.1800  135.2930 C   0  0  0  0  0  2  0  0  0  0  0  0
  189.3550  173.3480  137.3030 C   0  0  0  0  0  1  0  0  0  0  0  0
  188.7590  173.5490  135.9200 C   0  0  1  0  0  3  0  0  0  0  0  0
  189.6790  174.4250  135.0620 C   0  0  1  0  0  3  0  0  0  0  0  0
  189.0510  175.6390  134.7600 O   0  0  0  0  0  1  0  0  0  0  0  0
  190.9800  174.7200  135.8000 C   0  0  2  0  0  3  0  0  0  0  0  0
  192.1070  174.8640  134.7930 C   0  0  2  0  0  3  0  0  0  0  0  0
  191.9650  173.5860  135.5910 C   0  0  0  0  0  2  0  0  0  0  0  0
  194.2870  174.8670  135.8440 N   0  0  0  0  0  1  0  0  0  0  0  0
  193.1980  175.7180  135.4020 C   0  0  0  0  0  2  0  0  0  0  0  0
  1  3  2  0  0  0  0
  2 44  1  0  0  0  0
  3  2  1  0  0  0  0
  4  7  2  0  0  0  0
  5  2  1  1  0  0  0
  5  8  1  0  0  0  0
  5 11  1  0  0  0  0
  6  8  1  0  0  0  0
  7 10  1  0  0  0  0
  8 13  2  0  0  0  0
  9 12  1  0  0  0  0
 10 14  1  0  0  0  0
 11  9  2  0  0  0  0
 12 10  2  0  0  0  0
 13  9  1  0  0  0  0
 13  4  1  0  0  0  0
 14 16  1  0  0  0  0
 16 15  1  6  0  0  0
 16 22  1  0  0  0  0
 18 17  2  0  0  0  0
 18 21  1  0  0  0  0
 19 20  1  0  0  0  0
 19 22  2  0  0  0  0
 20 18  1  0  0  0  0
 22 17  1  0  0  0  0
 25 24  1  1  0  0  0
 25 20  1  0  0  0  0
 26 23  1  6  0  0  0
 26 25  1  0  0  0  0
 26 24  1  0  0  0  0
 27 26  1  0  0  0  0
 28 27  1  0  0  0  0
 29 32  1  0  0  0  0
 31 32  1  0  0  0  0
 32 30  1  0  0  0  0
 32 28  1  0  0  0  0
 34 39  2  0  0  0  0
 34 41  1  0  0  0  0
 35 36  2  0  0  0  0
 35 34  1  0  0  0  0
 36 38  1  0  0  0  0
 38 33  2  0  0  0  0
 39 40  1  0  0  0  0
 40  3  1  0  0  0  0
 40 37  2  0  0  0  0
 41 33  1  6  0  0  0
 41 37  1  0  0  0  0
 42 39  1  0  0  0  0
 43 42  1  0  0  0  0
 45 44  1  0  0  0  0
 46 45  1  0  0  0  0
 47 46  1  0  0  0  0
 48 51  1  6  0  0  0
 48 55  1  0  0  0  0
 50 54  1  0  0  0  0
 52 50  1  0  0  0  0
 52 48  1  0  0  0  0
 52 47  1  1  0  0  0
 53 50  2  0  0  0  0
 54 55  1  0  0  0  0
 55 49  1  1  0  0  0
 56 54  1  0  0  0  0
 57 56  1  0  0  0  0
 57 58  1  0  0  0  0
 59 58  1  0  0  0  0
 59 61  1  0  0  0  0
 61 60  1  1  0  0  0
 62 63  1  1  0  0  0
 62 61  1  0  0  0  0
 64 62  1  6  0  0  0
 65 68  1  1  0  0  0
 65 66  1  0  0  0  0
 65 64  1  0  0  0  0
 66 64  1  0  0  0  0
 68 67  1  0  0  0  0
M  END
>  <MODEL>
7

>  <REMARK>
 VINA RESULT:      -4.8      3.037      9.050
  Name = 
  23 active torsions:
  status: ('A' for Active; 'I' for Inactive)
    1  A    between atoms: N_3  and  C_9
    2  A    between atoms: N_3  and  C_58
    3  A    between atoms: C_8  and  C_10
    4  A    between atoms: C_8  and  C_57
    5  A    between atoms: C_9  and  C_57
    6  A    between atoms: C_11  and  C_54
    7  A    between atoms: C_13  and  N_38
    8  A    between atoms: C_14  and  C_30
    9  A    between atoms: C_14  and  C_43
   10  A    between atoms: C_15  and  C_52
   11  A    between atoms: C_15  and  C_56
   12  A    between atoms: C_18  and  C_47
   13  A    between atoms: C_22  and  C_24
   14  A    between atoms: C_22  and  C_30
   15  A    between atoms: C_24  and  N_38
   16  A    between atoms: O_26  and  C_31
   17  A    between atoms: O_26  and  C_62
   18  A    between atoms: C_31  and  C_61
   19  A    between atoms: N_32  and  C_60
   20  A    between atoms: C_35  and  C_58
   21  A    between atoms: C_35  and  N_65
   22  A    between atoms: C_40  and  C_64
   23  A    between atoms: C_53  and  C_56
                            x       y       z     vdW  Elec       q    Type
                         _______ _______ _______ _____ _____    ______ ____

>  <TORSDO>
F 23

$$$$
=
 OpenBabel11042411083D

 68 75  0  0  1  0  0  0  0  0999 V2000
  187.6730  178.1090  145.2530 O   0  0  0  0  0  0  0  0  0  0  0  0
  188.9160  177.1430  143.5320 N   0  0  0  0  0  0  0  0  0  0  0  0
  188.7310  177.5100  144.9170 C   0  0  0  0  0  0  0  0  0  0  0  0
  192.1050  177.8590  140.3150 C   0  0  0  0  0  3  0  0  0  0  0  0
  190.1340  176.4750  143.0640 C   0  0  2  0  0  3  0  0  0  0  0  0
  191.7180  178.5030  143.2400 O   0  0  0  0  0  1  0  0  0  0  0  0
  192.1000  177.3570  139.0040 C   0  0  0  0  0  3  0  0  0  0  0  0
  191.1170  177.4730  142.5260 C   0  0  0  0  0  0  0  0  0  0  0  0
  190.5480  176.1270  140.9090 C   0  0  0  0  0  0  0  0  0  0  0  0
  191.3130  176.2320  138.6860 C   0  0  0  0  0  0  0  0  0  0  0  0
  189.8490  175.6470  141.8850 N   0  0  0  0  0  0  0  0  0  0  0  0
  190.5380  175.6380  139.6440 N   0  0  0  0  0  0  0  0  0  0  0  0
  191.3090  177.2090  141.2530 C   0  0  0  0  0  0  0  0  0  0  0  0
  191.2910  175.7340  137.2790 C   0  0  0  0  0  2  0  0  0  0  0  0
  191.0510  176.7970  135.0400 C   0  0  0  0  0  1  0  0  0  0  0  0
  190.3950  176.5970  136.3960 C   0  0  1  0  0  3  0  0  0  0  0  0
  188.0730  176.5680  135.4610 N   0  0  0  0  0  0  0  0  0  0  0  0
  187.0480  175.7010  135.5530 C   0  0  0  0  0  0  0  0  0  0  0  0
  188.5910  174.7880  136.7380 C   0  0  0  0  0  3  0  0  0  0  0  0
  187.3200  174.6340  136.3280 N   0  0  0  0  0  0  0  0  0  0  0  0
  185.8280  175.8710  134.8340 N   0  0  0  0  0  1  0  0  0  0  0  0
  189.0340  175.9940  136.2160 C   0  0  0  0  0  0  0  0  0  0  0  0
  187.8210  172.5740  134.6320 O   0  0  0  0  0  1  0  0  0  0  0  0
  187.3420  172.2480  136.9830 C   0  0  0  0  0  2  0  0  0  0  0  0
  186.4890  173.4520  136.5650 C   0  0  2  0  0  3  0  0  0  0  0  0
  186.8150  172.3410  135.5760 C   0  0  1  0  0  0  0  0  0  0  0  0
  185.7270  171.3410  135.2350 C   0  0  0  0  0  2  0  0  0  0  0  0
  184.4700  171.9610  135.3220 O   0  0  0  0  0  0  0  0  0  0  0  0
  183.9380  169.7840  134.7990 F   0  0  0  0  0  0  0  0  0  0  0  0
  182.3050  171.3640  134.8140 F   0  0  0  0  0  0  0  0  0  0  0  0
  183.2450  170.6840  136.7360 F   0  0  0  0  0  0  0  0  0  0  0  0
  183.4920  170.9510  135.4040 C   0  0  0  0  0  0  0  0  0  0  0  0
  192.5180  175.7360  147.3760 C   0  0  0  0  0  3  0  0  0  0  0  0
  190.8700  177.4270  147.9070 C   0  0  0  0  0  0  0  0  0  0  0  0
  191.4260  177.7040  149.2290 C   0  0  0  0  0  3  0  0  0  0  0  0
  192.5130  177.0120  149.6070 C   0  0  0  0  0  3  0  0  0  0  0  0
  190.7020  176.3630  145.8340 N   0  0  0  0  0  0  0  0  0  0  0  0
  193.1870  175.9660  148.7210 C   0  0  0  0  0  2  0  0  0  0  0  0
  189.8280  177.9340  147.2730 C   0  0  0  0  0  0  0  0  0  0  0  0
  189.7480  177.2400  145.9650 C   0  0  0  0  0  0  0  0  0  0  0  0
  191.4440  176.4450  147.0410 C   0  0  0  0  0  0  0  0  0  0  0  0
  188.8960  178.9660  147.8150 C   0  0  0  0  0  2  0  0  0  0  0  0
  188.0290  178.3770  148.7370 O   0  0  0  0  0  1  0  0  0  0  0  0
  187.9560  177.6160  142.5340 C   0  0  0  0  0  2  0  0  0  0  0  0
  188.4970  178.8360  141.8080 C   0  0  0  0  0  2  0  0  0  0  0  0
  188.2650  178.6730  140.3180 C   0  0  0  0  0  2  0  0  0  0  0  0
  187.0350  177.8090  140.0850 C   0  0  0  0  0  2  0  0  0  0  0  0
  185.2540  178.1790  138.4000 C   0  0  1  0  0  3  0  0  0  0  0  0
  183.7640  176.3090  138.3660 O   0  0  0  0  0  1  0  0  0  0  0  0
  184.7280  178.4620  140.6780 C   0  0  0  0  0  0  0  0  0  0  0  0
  185.2040  179.2350  137.4910 O   0  0  0  0  0  1  0  0  0  0  0  0
  185.8380  178.6710  139.7250 C   0  0  1  0  0  3  0  0  0  0  0  0
  184.7640  178.8290  141.8840 O   0  0  0  0  0  0  0  0  0  0  0  0
  183.5910  177.8640  140.0910 N   0  0  0  0  0  0  0  0  0  0  0  0
  183.8330  177.6690  138.6720 C   0  0  1  0  0  3  0  0  0  0  0  0
  182.2550  178.0080  140.6540 C   0  0  0  0  0  2  0  0  0  0  0  0
  181.2130  177.4470  139.7050 C   0  0  0  0  0  2  0  0  0  0  0  0
  180.4450  178.5390  139.1340 N   0  0  0  0  0  2  0  0  0  0  0  0
  180.5540  179.6530  140.0600 C   0  0  0  0  0  2  0  0  0  0  0  0
  182.1150  180.5780  138.3970 C   0  0  0  0  0  1  0  0  0  0  0  0
  180.9440  180.9140  139.3050 C   0  0  1  0  0  3  0  0  0  0  0  0
  179.7730  181.4680  138.4850 C   0  0  1  0  0  3  0  0  0  0  0  0
  179.0540  182.4030  139.2380 O   0  0  0  0  0  1  0  0  0  0  0  0
  180.2780  182.1460  137.2180 C   0  0  2  0  0  3  0  0  0  0  0  0
  179.5330  183.4540  137.0170 C   0  0  2  0  0  3  0  0  0  0  0  0
  179.1620  182.2380  136.1950 C   0  0  0  0  0  2  0  0  0  0  0  0
  180.0140  185.7560  136.4450 N   0  0  0  0  0  1  0  0  0  0  0  0
  180.3920  184.3800  136.1820 C   0  0  0  0  0  2  0  0  0  0  0  0
  2  3  1  0  0  0  0
  3  1  2  0  0  0  0
  3 40  1  0  0  0  0
  4 13  1  0  0  0  0
  5  2  1  6  0  0  0
  7  4  2  0  0  0  0
  8  5  1  0  0  0  0
  8  6  1  0  0  0  0
  9 13  1  0  0  0  0
  9 11  2  0  0  0  0
 10  7  1  0  0  0  0
 10 12  2  0  0  0  0
 11  5  1  0  0  0  0
 12  9  1  0  0  0  0
 13  8  2  0  0  0  0
 14 10  1  0  0  0  0
 16 15  1  6  0  0  0
 16 14  1  0  0  0  0
 17 18  2  0  0  0  0
 17 22  1  0  0  0  0
 18 20  1  0  0  0  0
 20 19  1  0  0  0  0
 21 18  1  0  0  0  0
 22 16  1  0  0  0  0
 22 19  2  0  0  0  0
 25 20  1  6  0  0  0
 25 24  1  0  0  0  0
 26 23  1  6  0  0  0
 26 25  1  0  0  0  0
 26 24  1  0  0  0  0
 27 28  1  0  0  0  0
 27 26  1  0  0  0  0
 28 32  1  0  0  0  0
 29 32  1  0  0  0  0
 30 32  1  0  0  0  0
 32 31  1  0  0  0  0
 33 38  1  0  0  0  0
 34 35  1  0  0  0  0
 35 36  2  0  0  0  0
 37 40  2  0  0  0  0
 37 41  1  0  0  0  0
 38 36  1  0  0  0  0
 39 42  1  0  0  0  0
 39 34  2  0  0  0  0
 40 39  1  0  0  0  0
 41 33  2  0  0  0  0
 41 34  1  0  0  0  0
 42 43  1  0  0  0  0
 44  2  1  0  0  0  0
 45 44  1  0  0  0  0
 46 45  1  0  0  0  0
 47 46  1  0  0  0  0
 48 51  1  6  0  0  0
 48 55  1  0  0  0  0
 48 52  1  0  0  0  0
 50 53  2  0  0  0  0
 52 47  1  1  0  0  0
 52 50  1  0  0  0  0
 54 56  1  0  0  0  0
 54 50  1  0  0  0  0
 55 49  1  1  0  0  0
 55 54  1  0  0  0  0
 57 56  1  0  0  0  0
 58 57  1  0  0  0  0
 58 59  1  0  0  0  0
 61 60  1  6  0  0  0
 61 59  1  0  0  0  0
 62 63  1  1  0  0  0
 62 61  1  0  0  0  0
 64 62  1  1  0  0  0
 65 68  1  6  0  0  0
 65 64  1  0  0  0  0
 66 65  1  0  0  0  0
 66 64  1  0  0  0  0
 68 67  1  0  0  0  0
M  END
>  <MODEL>
8

>  <REMARK>
 VINA RESULT:      -4.5      3.282      8.406
  Name = 
  23 active torsions:
  status: ('A' for Active; 'I' for Inactive)
    1  A    between atoms: N_3  and  C_9
    2  A    between atoms: N_3  and  C_58
    3  A    between atoms: C_8  and  C_10
    4  A    between atoms: C_8  and  C_57
    5  A    between atoms: C_9  and  C_57
    6  A    between atoms: C_11  and  C_54
    7  A    between atoms: C_13  and  N_38
    8  A    between atoms: C_14  and  C_30
    9  A    between atoms: C_14  and  C_43
   10  A    between atoms: C_15  and  C_52
   11  A    between atoms: C_15  and  C_56
   12  A    between atoms: C_18  and  C_47
   13  A    between atoms: C_22  and  C_24
   14  A    between atoms: C_22  and  C_30
   15  A    between atoms: C_24  and  N_38
   16  A    between atoms: O_26  and  C_31
   17  A    between atoms: O_26  and  C_62
   18  A    between atoms: C_31  and  C_61
   19  A    between atoms: N_32  and  C_60
   20  A    between atoms: C_35  and  C_58
   21  A    between atoms: C_35  and  N_65
   22  A    between atoms: C_40  and  C_64
   23  A    between atoms: C_53  and  C_56
                            x       y       z     vdW  Elec       q    Type
                         _______ _______ _______ _____ _____    ______ ____

>  <TORSDO>
F 23

$$$$
=
 OpenBabel11042411083D

 68 75  0  0  1  0  0  0  0  0999 V2000
  186.6800  179.1410  146.3880 O   0  0  0  0  0  0  0  0  0  0  0  0
  186.5830  178.2600  144.2300 N   0  0  0  0  0  0  0  0  0  0  0  0
  187.2120  178.3920  145.5240 C   0  0  0  0  0  0  0  0  0  0  0  0
  188.6000  178.9520  140.1700 C   0  0  0  0  0  3  0  0  0  0  0  0
  187.1640  177.4330  143.1670 C   0  0  2  0  0  3  0  0  0  0  0  0
  189.4580  178.6050  143.0450 O   0  0  0  0  0  1  0  0  0  0  0  0
  187.9700  178.9810  138.9160 C   0  0  0  0  0  3  0  0  0  0  0  0
  188.2720  178.1630  142.4680 C   0  0  0  0  0  0  0  0  0  0  0  0
  186.6960  177.7550  141.0190 C   0  0  0  0  0  0  0  0  0  0  0  0
  186.7070  178.3780  138.7500 C   0  0  0  0  0  0  0  0  0  0  0  0
  186.1920  177.2260  142.0850 N   0  0  0  0  0  0  0  0  0  0  0  0
  186.0820  177.7810  139.8100 N   0  0  0  0  0  0  0  0  0  0  0  0
  187.9260  178.3200  141.2100 C   0  0  0  0  0  0  0  0  0  0  0  0
  186.0350  178.4510  137.4190 C   0  0  0  0  0  2  0  0  0  0  0  0
  188.1330  179.3050  136.3830 C   0  0  0  0  0  1  0  0  0  0  0  0
  187.0330  178.2620  136.2800 C   0  0  1  0  0  3  0  0  0  0  0  0
  186.8990  175.7650  136.4150 N   0  0  0  0  0  0  0  0  0  0  0  0
  187.8150  174.7830  136.3390 C   0  0  0  0  0  0  0  0  0  0  0  0
  188.9770  176.5770  136.1120 C   0  0  0  0  0  3  0  0  0  0  0  0
  189.0730  175.2380  136.1780 N   0  0  0  0  0  0  0  0  0  0  0  0
  187.4660  173.4000  136.3530 N   0  0  0  0  0  1  0  0  0  0  0  0
  187.6360  176.8880  136.2820 C   0  0  0  0  0  0  0  0  0  0  0  0
  191.2120  176.1050  137.6080 O   0  0  0  0  0  1  0  0  0  0  0  0
  190.7500  173.7580  137.2380 C   0  0  0  0  0  2  0  0  0  0  0  0
  190.2940  174.4620  135.9540 C   0  0  2  0  0  3  0  0  0  0  0  0
  191.4530  175.0060  136.7780 C   0  0  1  0  0  0  0  0  0  0  0  0
  192.8640  174.7890  136.2640 C   0  0  0  0  0  2  0  0  0  0  0  0
  193.5510  173.9150  137.1210 O   0  0  0  0  0  0  0  0  0  0  0  0
  195.0800  175.5330  136.5390 F   0  0  0  0  0  0  0  0  0  0  0  0
  195.8130  173.5300  137.3210 F   0  0  0  0  0  0  0  0  0  0  0  0
  194.7870  174.9790  138.6940 F   0  0  0  0  0  0  0  0  0  0  0  0
  194.8080  174.4840  137.4050 C   0  0  0  0  0  0  0  0  0  0  0  0
  191.3120  175.8050  145.3270 C   0  0  0  0  0  3  0  0  0  0  0  0
  190.2290  177.0200  147.1180 C   0  0  0  0  0  0  0  0  0  0  0  0
  191.2500  176.6810  148.1070 C   0  0  0  0  0  3  0  0  0  0  0  0
  192.2830  175.9250  147.7030 C   0  0  0  0  0  3  0  0  0  0  0  0
  189.1850  177.0120  145.0280 N   0  0  0  0  0  0  0  0  0  0  0  0
  192.4390  175.4180  146.2710 C   0  0  0  0  0  2  0  0  0  0  0  0
  189.1190  177.7290  147.2150 C   0  0  0  0  0  0  0  0  0  0  0  0
  188.4810  177.7040  145.8760 C   0  0  0  0  0  0  0  0  0  0  0  0
  190.3090  176.5570  145.7680 C   0  0  0  0  0  0  0  0  0  0  0  0
  188.6030  178.3730  148.4590 C   0  0  0  0  0  2  0  0  0  0  0  0
  187.4430  177.7200  148.8790 O   0  0  0  0  0  1  0  0  0  0  0  0
  185.4460  179.1190  143.8990 C   0  0  0  0  0  2  0  0  0  0  0  0
  184.1830  178.6200  144.5800 C   0  0  0  0  0  2  0  0  0  0  0  0
  182.9740  179.0960  143.7970 C   0  0  0  0  0  2  0  0  0  0  0  0
  181.7200  178.4310  144.3430 C   0  0  0  0  0  2  0  0  0  0  0  0
  180.9320  179.7790  142.4170 C   0  0  1  0  0  3  0  0  0  0  0  0
  182.0980  179.1240  140.4340 O   0  0  0  0  0  1  0  0  0  0  0  0
  180.1810  177.5560  142.6210 C   0  0  0  0  0  0  0  0  0  0  0  0
  180.0610  180.8650  142.4880 O   0  0  0  0  0  1  0  0  0  0  0  0
  180.5270  178.7280  143.4520 C   0  0  1  0  0  3  0  0  0  0  0  0
  179.7010  176.4870  143.0860 O   0  0  0  0  0  0  0  0  0  0  0  0
  180.3820  177.7700  141.2390 N   0  0  0  0  0  0  0  0  0  0  0  0
  180.8350  179.1350  141.0280 C   0  0  1  0  0  3  0  0  0  0  0  0
  179.6780  177.0040  140.2190 C   0  0  0  0  0  2  0  0  0  0  0  0
  180.4220  175.7200  139.9070 C   0  0  0  0  0  2  0  0  0  0  0  0
  181.8300  176.0140  139.7140 N   0  0  0  0  0  2  0  0  0  0  0  0
  182.0160  176.2420  138.2910 C   0  0  0  0  0  2  0  0  0  0  0  0
  180.3310  175.7080  136.5780 C   0  0  0  0  0  1  0  0  0  0  0  0
  181.3800  175.1090  137.5000 C   0  0  1  0  0  3  0  0  0  0  0  0
  182.4230  174.3290  136.6920 C   0  0  1  0  0  3  0  0  0  0  0  0
  183.7100  174.6070  137.1650 O   0  0  0  0  0  1  0  0  0  0  0  0
  182.1750  172.8290  136.8020 C   0  0  2  0  0  3  0  0  0  0  0  0
  182.6940  172.1410  135.5530 C   0  0  2  0  0  3  0  0  0  0  0  0
  181.2100  172.3800  135.7220 C   0  0  0  0  0  2  0  0  0  0  0  0
  184.3910  170.4150  135.5360 N   0  0  0  0  0  1  0  0  0  0  0  0
  183.0130  170.6990  135.8880 C   0  0  0  0  0  2  0  0  0  0  0  0
  2  3  1  0  0  0  0
  3 40  1  0  0  0  0
  3  1  2  0  0  0  0
  4 13  1  0  0  0  0
  5  2  1  1  0  0  0
  7  4  2  0  0  0  0
  8  6  1  0  0  0  0
  8  5  1  0  0  0  0
  9 13  1  0  0  0  0
  9 11  2  0  0  0  0
 10  7  1  0  0  0  0
 10 12  2  0  0  0  0
 11  5  1  0  0  0  0
 12  9  1  0  0  0  0
 13  8  2  0  0  0  0
 14 10  1  0  0  0  0
 16 22  1  0  0  0  0
 16 15  1  1  0  0  0
 16 14  1  0  0  0  0
 18 21  1  0  0  0  0
 18 17  2  0  0  0  0
 19 20  1  0  0  0  0
 19 22  2  0  0  0  0
 20 18  1  0  0  0  0
 22 17  1  0  0  0  0
 25 20  1  1  0  0  0
 25 26  1  0  0  0  0
 25 24  1  0  0  0  0
 26 24  1  0  0  0  0
 26 23  1  1  0  0  0
 27 26  1  0  0  0  0
 27 28  1  0  0  0  0
 28 32  1  0  0  0  0
 29 32  1  0  0  0  0
 30 32  1  0  0  0  0
 32 31  1  0  0  0  0
 33 41  2  0  0  0  0
 33 38  1  0  0  0  0
 34 39  2  0  0  0  0
 34 35  1  0  0  0  0
 36 35  2  0  0  0  0
 37 41  1  0  0  0  0
 37 40  2  0  0  0  0
 38 36  1  0  0  0  0
 39 42  1  0  0  0  0
 40 39  1  0  0  0  0
 41 34  1  0  0  0  0
 42 43  1  0  0  0  0
 44  2  1  0  0  0  0
 44 45  1  0  0  0  0
 46 47  1  0  0  0  0
 46 45  1  0  0  0  0
 48 51  1  6  0  0  0
 48 52  1  0  0  0  0
 50 53  2  0  0  0  0
 50 52  1  0  0  0  0
 52 47  1  1  0  0  0
 54 50  1  0  0  0  0
 55 49  1  1  0  0  0
 55 54  1  0  0  0  0
 55 48  1  0  0  0  0
 56 54  1  0  0  0  0
 57 56  1  0  0  0  0
 58 57  1  0  0  0  0
 59 58  1  0  0  0  0
 61 60  1  6  0  0  0
 61 59  1  0  0  0  0
 62 63  1  1  0  0  0
 62 61  1  0  0  0  0
 64 62  1  6  0  0  0
 65 66  1  0  0  0  0
 65 68  1  1  0  0  0
 65 64  1  0  0  0  0
 66 64  1  0  0  0  0
 67 68  1  0  0  0  0
M  END
>  <MODEL>
9

>  <REMARK>
 VINA RESULT:      -4.2      3.841      9.570
  Name = 
  23 active torsions:
  status: ('A' for Active; 'I' for Inactive)
    1  A    between atoms: N_3  and  C_9
    2  A    between atoms: N_3  and  C_58
    3  A    between atoms: C_8  and  C_10
    4  A    between atoms: C_8  and  C_57
    5  A    between atoms: C_9  and  C_57
    6  A    between atoms: C_11  and  C_54
    7  A    between atoms: C_13  and  N_38
    8  A    between atoms: C_14  and  C_30
    9  A    between atoms: C_14  and  C_43
   10  A    between atoms: C_15  and  C_52
   11  A    between atoms: C_15  and  C_56
   12  A    between atoms: C_18  and  C_47
   13  A    between atoms: C_22  and  C_24
   14  A    between atoms: C_22  and  C_30
   15  A    between atoms: C_24  and  N_38
   16  A    between atoms: O_26  and  C_31
   17  A    between atoms: O_26  and  C_62
   18  A    between atoms: C_31  and  C_61
   19  A    between atoms: N_32  and  C_60
   20  A    between atoms: C_35  and  C_58
   21  A    between atoms: C_35  and  N_65
   22  A    between atoms: C_40  and  C_64
   23  A    between atoms: C_53  and  C_56
                            x       y       z     vdW  Elec       q    Type
                         _______ _______ _______ _____ _____    ______ ____

>  <TORSDO>
F 23

$$$$
