=
 OpenBabel11032419133D

 30 34  0  0  1  0  0  0  0  0999 V2000
  187.0900  178.0650  141.5070 N   0  0  0  0  0  0  0  0  0  0  0  0
  189.1720  176.8040  144.2870 C   0  0  0  0  0  0  0  0  0  0  0  0
  184.9620  178.4160  145.0110 C   0  0  0  0  0  0  0  0  0  0  0  0
  189.1840  177.0140  145.7000 N   0  0  0  0  0  2  0  0  0  0  0  0
  184.9500  178.6440  142.5690 C   0  0  0  0  0  0  0  0  0  0  0  0
  189.9460  175.9370  143.8040 O   0  0  0  0  0  0  0  0  0  0  0  0
  184.2760  178.5090  146.2160 O   0  0  0  0  0  1  0  0  0  0  0  0
  188.4540  178.0810  146.3630 C   0  0  1  0  0  3  0  0  0  0  0  0
  187.0200  177.8710  146.2290 N   0  0  0  0  0  2  0  0  0  0  0  0
  186.9600  177.9620  143.7500 C   0  0  0  0  0  0  0  0  0  0  0  0
  188.2240  177.5190  143.4010 C   0  0  0  0  0  0  0  0  0  0  0  0
  186.3220  178.0540  144.9960 C   0  0  0  0  0  0  0  0  0  0  0  0
  188.8930  178.1010  148.1210 S   0  0  0  0  0  1  0  0  0  0  0  0
  184.2890  178.7100  143.8100 C   0  0  0  0  0  3  0  0  0  0  0  0
  188.2710  177.6240  142.0030 C   0  0  0  0  0  0  0  0  0  0  0  0
  186.3000  178.2570  142.5790 C   0  0  1  0  0  3  0  0  0  0  0  0
  191.5830  176.8840  139.3760 C   0  0  0  0  0  0  0  0  0  0  0  0
  189.4220  177.3410  141.1220 C   0  0  0  0  0  0  0  0  0  0  0  0
  191.8020  177.4430  140.6420 C   0  0  0  0  0  3  0  0  0  0  0  0
  189.2030  176.8010  139.8480 C   0  0  0  0  0  3  0  0  0  0  0  0
  190.2750  176.5680  138.9830 C   0  0  0  0  0  3  0  0  0  0  0  0
  190.7280  177.6750  141.5060 C   0  0  0  0  0  3  0  0  0  0  0  0
  192.4910  176.3640  137.1260 O   0  0  0  0  0  0  0  0  0  0  0  0
  193.8990  176.6770  138.9010 O   0  0  0  0  0  1  0  0  0  0  0  0
  192.7160  176.6390  138.4700 C   0  0  0  0  0  0  0  0  0  0  0  0
  182.3630  178.9830  139.9910 C   0  0  0  0  0  3  0  0  0  0  0  0
  184.2110  178.9570  141.3260 C   0  0  0  0  0  0  0  0  0  0  0  0
  184.8030  179.5850  140.2740 N   0  0  0  0  0  0  0  0  0  0  0  0
  182.8870  178.6260  141.1850 N   0  0  0  0  0  0  0  0  0  0  0  0
  183.5960  179.7100  139.1470 S   0  0  0  0  0  0  0  0  0  0  0  0
  1 15  2  0  0  0  0
  2  4  1  0  0  0  0
  3  7  1  0  0  0  0
  4  8  1  0  0  0  0
  5 16  1  0  0  0  0
  5 14  2  0  0  0  0
  6  2  2  0  0  0  0
  8 13  1  1  0  0  0
  9  8  1  0  0  0  0
 10 12  1  0  0  0  0
 11 10  2  0  0  0  0
 11  2  1  0  0  0  0
 12  3  2  0  0  0  0
 12  9  1  0  0  0  0
 14  3  1  0  0  0  0
 15 11  1  0  0  0  0
 16  1  1  6  0  0  0
 16 10  1  0  0  0  0
 17 19  1  0  0  0  0
 18 22  1  0  0  0  0
 18 15  1  0  0  0  0
 19 22  2  0  0  0  0
 20 18  2  0  0  0  0
 21 17  2  0  0  0  0
 21 20  1  0  0  0  0
 23 25  2  0  0  0  0
 25 24  1  0  0  0  0
 25 17  1  0  0  0  0
 26 29  2  0  0  0  0
 27  5  1  0  0  0  0
 28 27  2  0  0  0  0
 29 27  1  0  0  0  0
 30 26  1  0  0  0  0
 30 28  1  0  0  0  0
M  END
>  <MODEL>
1

>  <REMARK>
 VINA RESULT:      -9.7      0.000      0.000
  Name = 
  3 active torsions:
  status: ('A' for Active; 'I' for Inactive)
    1  A    between atoms: C_6  and  C_30
    2  A    between atoms: C_7  and  C_26
    3  A    between atoms: C_8  and  C_9
                            x       y       z     vdW  Elec       q    Type
                         _______ _______ _______ _____ _____    ______ ____

>  <TORSDO>
F 3

$$$$
=
 OpenBabel11032419133D

 30 34  0  0  1  0  0  0  0  0999 V2000
  183.7190  178.6260  143.1870 N   0  0  0  0  0  0  0  0  0  0  0  0
  186.7740  178.7640  141.1130 C   0  0  0  0  0  0  0  0  0  0  0  0
  182.6290  179.3300  139.2830 C   0  0  0  0  0  0  0  0  0  0  0  0
  187.0460  178.5760  139.7240 N   0  0  0  0  0  2  0  0  0  0  0  0
  181.8980  179.1290  141.6150 C   0  0  0  0  0  0  0  0  0  0  0  0
  187.7070  179.1620  141.8570 O   0  0  0  0  0  0  0  0  0  0  0  0
  182.3060  179.5760  137.9540 O   0  0  0  0  0  1  0  0  0  0  0  0
  186.1040  177.9830  138.7910 C   0  0  1  0  0  3  0  0  0  0  0  0
  184.9430  178.8440  138.6270 N   0  0  0  0  0  2  0  0  0  0  0  0
  184.2220  178.7840  141.0010 C   0  0  0  0  0  0  0  0  0  0  0  0
  185.4140  178.5780  141.6730 C   0  0  0  0  0  0  0  0  0  0  0  0
  183.9510  179.0080  139.6430 C   0  0  0  0  0  0  0  0  0  0  0  0
  186.9150  177.7620  137.1840 S   0  0  0  0  0  1  0  0  0  0  0  0
  181.6180  179.3860  140.2600 C   0  0  0  0  0  3  0  0  0  0  0  0
  185.0530  178.4600  143.0230 C   0  0  2  0  0  3  0  0  0  0  0  0
  183.2290  178.8330  141.9520 C   0  0  0  0  0  0  0  0  0  0  0  0
  187.5530  177.5430  146.3890 C   0  0  0  0  0  0  0  0  0  0  0  0
  185.9420  178.1630  144.1650 C   0  0  0  0  0  0  0  0  0  0  0  0
  187.8000  176.9430  145.1480 C   0  0  0  0  0  3  0  0  0  0  0  0
  185.6840  178.7470  145.4130 C   0  0  0  0  0  3  0  0  0  0  0  0
  186.4870  178.4450  146.5160 C   0  0  0  0  0  3  0  0  0  0  0  0
  186.9960  177.2460  144.0460 C   0  0  0  0  0  3  0  0  0  0  0  0
  189.6640  176.6700  147.3590 O   0  0  0  0  0  0  0  0  0  0  0  0
  187.9960  177.4430  148.7190 O   0  0  0  0  0  1  0  0  0  0  0  0
  188.4020  177.2220  147.5470 C   0  0  0  0  0  0  0  0  0  0  0  0
  179.5550  178.3850  144.3370 C   0  0  0  0  0  3  0  0  0  0  0  0
  180.8100  179.1970  142.6160 C   0  0  0  0  0  0  0  0  0  0  0  0
  179.9930  180.2800  142.7200 N   0  0  0  0  0  0  0  0  0  0  0  0
  180.5830  178.1630  143.4880 N   0  0  0  0  0  0  0  0  0  0  0  0
  178.9620  179.8910  143.9570 S   0  0  0  0  0  0  0  0  0  0  0  0
  2 11  1  0  0  0  0
  2  6  2  0  0  0  0
  3 12  2  0  0  0  0
  3 14  1  0  0  0  0
  4  2  1  0  0  0  0
  5 16  1  0  0  0  0
  5 27  1  0  0  0  0
  7  3  1  0  0  0  0
  8 13  1  6  0  0  0
  8  4  1  0  0  0  0
  9  8  1  0  0  0  0
  9 12  1  0  0  0  0
 10 11  2  0  0  0  0
 10 16  1  0  0  0  0
 11 15  1  0  0  0  0
 12 10  1  0  0  0  0
 14  5  2  0  0  0  0
 15  1  1  0  0  0  0
 15 18  1  6  0  0  0
 16  1  2  0  0  0  0
 17 21  1  0  0  0  0
 17 25  1  0  0  0  0
 18 20  1  0  0  0  0
 19 17  2  0  0  0  0
 20 21  2  0  0  0  0
 22 18  2  0  0  0  0
 22 19  1  0  0  0  0
 23 25  2  0  0  0  0
 25 24  1  0  0  0  0
 27 28  2  0  0  0  0
 27 29  1  0  0  0  0
 28 30  1  0  0  0  0
 29 26  2  0  0  0  0
 30 26  1  0  0  0  0
M  END
>  <MODEL>
2

>  <REMARK>
 VINA RESULT:      -9.4      4.185      6.613
  Name = 
  3 active torsions:
  status: ('A' for Active; 'I' for Inactive)
    1  A    between atoms: C_6  and  C_30
    2  A    between atoms: C_7  and  C_26
    3  A    between atoms: C_8  and  C_9
                            x       y       z     vdW  Elec       q    Type
                         _______ _______ _______ _____ _____    ______ ____

>  <TORSDO>
F 3

$$$$
=
 OpenBabel11032419133D

 30 34  0  0  1  0  0  0  0  0999 V2000
  188.4680  177.5780  143.3860 N   0  0  0  0  0  0  0  0  0  0  0  0
  191.4520  175.9650  144.8510 C   0  0  0  0  0  0  0  0  0  0  0  0
  187.9560  177.3160  147.4600 C   0  0  0  0  0  0  0  0  0  0  0  0
  192.0430  175.9540  146.1510 N   0  0  0  0  0  2  0  0  0  0  0  0
  186.9640  177.9190  145.3000 C   0  0  0  0  0  0  0  0  0  0  0  0
  191.9330  175.2080  143.9690 O   0  0  0  0  0  0  0  0  0  0  0  0
  187.8210  177.1990  148.8380 O   0  0  0  0  0  1  0  0  0  0  0  0
  191.6820  176.8810  147.2090 C   0  0  1  0  0  3  0  0  0  0  0  0
  190.3110  176.6510  147.6380 N   0  0  0  0  0  2  0  0  0  0  0  0
  189.2550  177.1250  145.4430 C   0  0  0  0  0  0  0  0  0  0  0  0
  190.2520  176.7800  144.5480 C   0  0  0  0  0  0  0  0  0  0  0  0
  189.1800  177.0020  146.8380 C   0  0  0  0  0  0  0  0  0  0  0  0
  192.7970  176.6410  148.6190 S   0  0  0  0  0  1  0  0  0  0  0  0
  186.8650  177.7710  146.6960 C   0  0  0  0  0  3  0  0  0  0  0  0
  189.7320  177.1020  143.2850 C   0  0  0  0  0  0  0  0  0  0  0  0
  188.1880  177.5770  144.7010 C   0  0  1  0  0  3  0  0  0  0  0  0
  191.6550  176.8680  139.4550 C   0  0  0  0  0  0  0  0  0  0  0  0
  190.4170  176.9950  141.9810 C   0  0  0  0  0  0  0  0  0  0  0  0
  192.3280  177.4350  140.5450 C   0  0  0  0  0  3  0  0  0  0  0  0
  189.7380  176.4470  140.8850 C   0  0  0  0  0  3  0  0  0  0  0  0
  190.3530  176.3780  139.6320 C   0  0  0  0  0  3  0  0  0  0  0  0
  191.7110  177.5030  141.7980 C   0  0  0  0  0  3  0  0  0  0  0  0
  191.5530  176.5730  136.9940 O   0  0  0  0  0  0  0  0  0  0  0  0
  193.5560  176.9380  138.0350 O   0  0  0  0  0  1  0  0  0  0  0  0
  192.3080  176.7970  138.1390 C   0  0  0  0  0  0  0  0  0  0  0  0
  183.9560  179.7010  144.1930 C   0  0  0  0  0  3  0  0  0  0  0  0
  185.7960  178.3990  144.5270 C   0  0  0  0  0  0  0  0  0  0  0  0
  185.4890  177.8990  143.3000 N   0  0  0  0  0  0  0  0  0  0  0  0
  184.9730  179.3780  145.0220 N   0  0  0  0  0  0  0  0  0  0  0  0
  184.1310  178.7350  142.8520 S   0  0  0  0  0  0  0  0  0  0  0  0
  2  4  1  0  0  0  0
  3  7  1  0  0  0  0
  4  8  1  0  0  0  0
  5 14  2  0  0  0  0
  6  2  2  0  0  0  0
  8  9  1  0  0  0  0
  8 13  1  1  0  0  0
 10 12  1  0  0  0  0
 11  2  1  0  0  0  0
 11 10  2  0  0  0  0
 12  3  2  0  0  0  0
 12  9  1  0  0  0  0
 14  3  1  0  0  0  0
 15  1  2  0  0  0  0
 15 11  1  0  0  0  0
 16  1  1  6  0  0  0
 16  5  1  0  0  0  0
 16 10  1  0  0  0  0
 17 21  2  0  0  0  0
 17 19  1  0  0  0  0
 18 15  1  0  0  0  0
 19 22  2  0  0  0  0
 20 18  2  0  0  0  0
 21 20  1  0  0  0  0
 22 18  1  0  0  0  0
 23 25  2  0  0  0  0
 24 25  1  0  0  0  0
 25 17  1  0  0  0  0
 26 29  2  0  0  0  0
 27 29  1  0  0  0  0
 27  5  1  0  0  0  0
 28 27  2  0  0  0  0
 30 28  1  0  0  0  0
 30 26  1  0  0  0  0
M  END
>  <MODEL>
3

>  <REMARK>
 VINA RESULT:      -9.3      2.305      2.966
  Name = 
  3 active torsions:
  status: ('A' for Active; 'I' for Inactive)
    1  A    between atoms: C_6  and  C_30
    2  A    between atoms: C_7  and  C_26
    3  A    between atoms: C_8  and  C_9
                            x       y       z     vdW  Elec       q    Type
                         _______ _______ _______ _____ _____    ______ ____

>  <TORSDO>
F 3

$$$$
=
 OpenBabel11032419133D

 30 34  0  0  1  0  0  0  0  0999 V2000
  187.4280  177.8490  143.5240 N   0  0  0  0  0  0  0  0  0  0  0  0
  190.4610  177.6970  141.4210 C   0  0  0  0  0  0  0  0  0  0  0  0
  186.3680  178.6280  139.6260 C   0  0  0  0  0  0  0  0  0  0  0  0
  190.7020  177.4780  140.0300 N   0  0  0  0  0  2  0  0  0  0  0  0
  185.6440  178.5060  141.9660 C   0  0  0  0  0  0  0  0  0  0  0  0
  191.4350  178.0130  142.1540 O   0  0  0  0  0  0  0  0  0  0  0  0
  186.0550  178.8950  138.2990 O   0  0  0  0  0  1  0  0  0  0  0  0
  189.7010  176.9680  139.1100 C   0  0  1  0  0  3  0  0  0  0  0  0
  188.6210  177.9300  138.9510 N   0  0  0  0  0  2  0  0  0  0  0  0
  187.9220  177.9490  141.3330 C   0  0  0  0  0  0  0  0  0  0  0  0
  189.0970  177.6380  141.9950 C   0  0  0  0  0  0  0  0  0  0  0  0
  187.6590  178.1890  139.9760 C   0  0  0  0  0  0  0  0  0  0  0  0
  190.4720  176.6660  137.4970 S   0  0  0  0  0  1  0  0  0  0  0  0
  185.3750  178.7800  140.6120 C   0  0  0  0  0  3  0  0  0  0  0  0
  188.7400  177.5610  143.3490 C   0  0  2  0  0  3  0  0  0  0  0  0
  186.9460  178.0920  142.2930 C   0  0  0  0  0  0  0  0  0  0  0  0
  191.3390  176.5590  146.6140 C   0  0  0  0  0  0  0  0  0  0  0  0
  189.6090  177.1910  144.4840 C   0  0  0  0  0  0  0  0  0  0  0  0
  190.1370  177.2350  146.8560 C   0  0  0  0  0  3  0  0  0  0  0  0
  190.8220  176.5320  144.2410 C   0  0  0  0  0  3  0  0  0  0  0  0
  191.6790  176.2130  145.2980 C   0  0  0  0  0  3  0  0  0  0  0  0
  189.2810  177.5540  145.7980 C   0  0  0  0  0  3  0  0  0  0  0  0
  192.4300  177.1280  148.7680 O   0  0  0  0  0  1  0  0  0  0  0  0
  192.8380  175.1180  147.7580 O   0  0  0  0  0  0  0  0  0  0  0  0
  192.2370  176.2240  147.7300 C   0  0  0  0  0  0  0  0  0  0  0  0
  183.7920  179.0030  145.0920 C   0  0  0  0  0  3  0  0  0  0  0  0
  184.5770  178.6790  142.9770 C   0  0  0  0  0  0  0  0  0  0  0  0
  183.2590  178.6690  142.6420 N   0  0  0  0  0  0  0  0  0  0  0  0
  184.8800  178.8600  144.3030 N   0  0  0  0  0  0  0  0  0  0  0  0
  182.4740  178.8950  144.0840 S   0  0  0  0  0  0  0  0  0  0  0  0
  2 11  1  0  0  0  0
  2  6  2  0  0  0  0
  3 12  2  0  0  0  0
  3 14  1  0  0  0  0
  4  2  1  0  0  0  0
  5 16  1  0  0  0  0
  5 27  1  0  0  0  0
  7  3  1  0  0  0  0
  8 13  1  6  0  0  0
  8  4  1  0  0  0  0
  9  8  1  0  0  0  0
  9 12  1  0  0  0  0
 10 11  2  0  0  0  0
 10 16  1  0  0  0  0
 11 15  1  0  0  0  0
 12 10  1  0  0  0  0
 14  5  2  0  0  0  0
 15  1  1  0  0  0  0
 15 18  1  6  0  0  0
 16  1  2  0  0  0  0
 17 19  1  0  0  0  0
 17 25  1  0  0  0  0
 18 22  1  0  0  0  0
 20 18  2  0  0  0  0
 20 21  1  0  0  0  0
 21 17  2  0  0  0  0
 22 19  2  0  0  0  0
 25 24  2  0  0  0  0
 25 23  1  0  0  0  0
 27 29  1  0  0  0  0
 28 27  2  0  0  0  0
 28 30  1  0  0  0  0
 29 26  2  0  0  0  0
 30 26  1  0  0  0  0
M  END
>  <MODEL>
4

>  <REMARK>
 VINA RESULT:      -9.1      3.196      5.801
  Name = 
  3 active torsions:
  status: ('A' for Active; 'I' for Inactive)
    1  A    between atoms: C_6  and  C_30
    2  A    between atoms: C_7  and  C_26
    3  A    between atoms: C_8  and  C_9
                            x       y       z     vdW  Elec       q    Type
                         _______ _______ _______ _____ _____    ______ ____

>  <TORSDO>
F 3

$$$$
=
 OpenBabel11032419133D

 30 34  0  0  1  0  0  0  0  0999 V2000
  188.5400  177.5690  143.2360 N   0  0  0  0  0  0  0  0  0  0  0  0
  185.4910  179.0820  141.7980 C   0  0  0  0  0  0  0  0  0  0  0  0
  185.8950  178.3560  146.2880 C   0  0  0  0  0  0  0  0  0  0  0  0
  184.1340  179.1970  142.2300 N   0  0  0  0  0  2  0  0  0  0  0  0
  188.1380  177.5880  145.6610 C   0  0  0  0  0  0  0  0  0  0  0  0
  185.8380  179.6850  140.7500 O   0  0  0  0  0  0  0  0  0  0  0  0
  184.9750  178.6460  147.2890 O   0  0  0  0  0  1  0  0  0  0  0  0
  183.5720  178.4360  143.3320 C   0  0  1  0  0  3  0  0  0  0  0  0
  184.1900  178.8320  144.5880 N   0  0  0  0  0  2  0  0  0  0  0  0
  186.5070  178.1940  143.9660 C   0  0  0  0  0  0  0  0  0  0  0  0
  186.5010  178.3430  142.5910 C   0  0  0  0  0  0  0  0  0  0  0  0
  185.5340  178.4880  144.9340 C   0  0  0  0  0  0  0  0  0  0  0  0
  181.7880  178.7440  143.4220 S   0  0  0  0  0  1  0  0  0  0  0  0
  187.1810  177.9090  146.6420 C   0  0  0  0  0  3  0  0  0  0  0  0
  187.7730  177.9200  142.1760 C   0  0  0  0  0  0  0  0  0  0  0  0
  187.7610  177.7510  144.3180 C   0  0  1  0  0  3  0  0  0  0  0  0
  189.2460  177.5000  138.1670 C   0  0  0  0  0  0  0  0  0  0  0  0
  188.2730  177.8120  140.7900 C   0  0  0  0  0  0  0  0  0  0  0  0
  187.8810  177.7150  138.3940 C   0  0  0  0  0  3  0  0  0  0  0  0
  189.6350  177.5760  140.5620 C   0  0  0  0  0  3  0  0  0  0  0  0
  190.1210  177.4270  139.2610 C   0  0  0  0  0  3  0  0  0  0  0  0
  187.3970  177.8640  139.6970 C   0  0  0  0  0  3  0  0  0  0  0  0
  190.8690  176.5560  136.5440 O   0  0  0  0  0  1  0  0  0  0  0  0
  189.1780  177.9210  135.8320 O   0  0  0  0  0  0  0  0  0  0  0  0
  189.7510  177.3440  136.7940 C   0  0  0  0  0  0  0  0  0  0  0  0
  191.6640  176.5790  145.6940 C   0  0  0  0  0  3  0  0  0  0  0  0
  189.4820  177.1220  146.0700 C   0  0  0  0  0  0  0  0  0  0  0  0
  189.7670  176.7820  147.3550 N   0  0  0  0  0  0  0  0  0  0  0  0
  190.5020  177.0170  145.1590 N   0  0  0  0  0  0  0  0  0  0  0  0
  191.3620  176.3370  147.3110 S   0  0  0  0  0  0  0  0  0  0  0  0
  2  4  1  0  0  0  0
  2 11  1  0  0  0  0
  3 14  1  0  0  0  0
  3  7  1  0  0  0  0
  4  8  1  0  0  0  0
  5 27  1  0  0  0  0
  5 14  2  0  0  0  0
  6  2  2  0  0  0  0
  8 13  1  1  0  0  0
  8  9  1  0  0  0  0
  9 12  1  0  0  0  0
 10 16  1  0  0  0  0
 10 12  1  0  0  0  0
 11 10  2  0  0  0  0
 12  3  2  0  0  0  0
 15 11  1  0  0  0  0
 15  1  2  0  0  0  0
 16  1  1  1  0  0  0
 16  5  1  0  0  0  0
 17 19  2  0  0  0  0
 17 21  1  0  0  0  0
 18 15  1  0  0  0  0
 19 22  1  0  0  0  0
 20 18  1  0  0  0  0
 21 20  2  0  0  0  0
 22 18  2  0  0  0  0
 23 25  1  0  0  0  0
 24 25  2  0  0  0  0
 25 17  1  0  0  0  0
 26 30  1  0  0  0  0
 27 28  2  0  0  0  0
 29 26  2  0  0  0  0
 29 27  1  0  0  0  0
 30 28  1  0  0  0  0
M  END
>  <MODEL>
5

>  <REMARK>
 VINA RESULT:      -9.1      2.309      5.335
  Name = 
  3 active torsions:
  status: ('A' for Active; 'I' for Inactive)
    1  A    between atoms: C_6  and  C_30
    2  A    between atoms: C_7  and  C_26
    3  A    between atoms: C_8  and  C_9
                            x       y       z     vdW  Elec       q    Type
                         _______ _______ _______ _____ _____    ______ ____

>  <TORSDO>
F 3

$$$$
=
 OpenBabel11032419133D

 30 34  0  0  1  0  0  0  0  0999 V2000
  188.2400  177.6400  140.3410 N   0  0  0  0  0  0  0  0  0  0  0  0
  191.8480  177.1280  139.7340 C   0  0  0  0  0  0  0  0  0  0  0  0
  188.8850  177.5050  136.2810 C   0  0  0  0  0  0  0  0  0  0  0  0
  192.6140  176.6160  138.6420 N   0  0  0  0  0  2  0  0  0  0  0  0
  187.2760  177.8790  138.0930 C   0  0  0  0  0  0  0  0  0  0  0  0
  192.4620  177.6290  140.7120 O   0  0  0  0  0  0  0  0  0  0  0  0
  189.1490  177.4620  134.9170 O   0  0  0  0  0  1  0  0  0  0  0  0
  192.0390  175.8820  137.5280 C   0  0  1  0  0  3  0  0  0  0  0  0
  191.1730  176.7500  136.7440 N   0  0  0  0  0  2  0  0  0  0  0  0
  189.5780  177.2700  138.5730 C   0  0  0  0  0  0  0  0  0  0  0  0
  190.3670  177.1520  139.7030 C   0  0  0  0  0  0  0  0  0  0  0  0
  189.8980  177.1970  137.2090 C   0  0  0  0  0  0  0  0  0  0  0  0
  193.3740  175.2580  136.4720 S   0  0  0  0  0  1  0  0  0  0  0  0
  187.5910  177.8390  136.7220 C   0  0  0  0  0  3  0  0  0  0  0  0
  189.4910  177.3640  140.7790 C   0  0  2  0  0  3  0  0  0  0  0  0
  188.3100  177.5900  138.9990 C   0  0  0  0  0  0  0  0  0  0  0  0
  190.5130  177.1060  144.9390 C   0  0  0  0  0  0  0  0  0  0  0  0
  189.8070  177.2820  142.2200 C   0  0  0  0  0  0  0  0  0  0  0  0
  190.1530  178.3390  144.3800 C   0  0  0  0  0  3  0  0  0  0  0  0
  190.1870  176.0530  142.7760 C   0  0  0  0  0  3  0  0  0  0  0  0
  190.5320  175.9630  144.1270 C   0  0  0  0  0  3  0  0  0  0  0  0
  189.8080  178.4270  143.0280 C   0  0  0  0  0  3  0  0  0  0  0  0
  189.9130  177.2320  147.3440 O   0  0  0  0  0  1  0  0  0  0  0  0
  192.0560  176.7470  146.7080 O   0  0  0  0  0  0  0  0  0  0  0  0
  190.8740  177.0180  146.3630 C   0  0  0  0  0  0  0  0  0  0  0  0
  183.6320  178.2080  138.3490 C   0  0  0  0  0  3  0  0  0  0  0  0
  185.9050  178.2350  138.5220 C   0  0  0  0  0  0  0  0  0  0  0  0
  185.6700  179.0040  139.6190 N   0  0  0  0  0  0  0  0  0  0  0  0
  184.8080  177.7960  137.8250 N   0  0  0  0  0  0  0  0  0  0  0  0
  184.0180  179.1190  139.6850 S   0  0  0  0  0  0  0  0  0  0  0  0
  1 15  1  0  0  0  0
  2  6  2  0  0  0  0
  3 14  1  0  0  0  0
  3 12  2  0  0  0  0
  4  2  1  0  0  0  0
  5 27  1  0  0  0  0
  5 16  1  0  0  0  0
  7  3  1  0  0  0  0
  8 13  1  6  0  0  0
  8  4  1  0  0  0  0
  9 12  1  0  0  0  0
  9  8  1  0  0  0  0
 10 16  1  0  0  0  0
 10 11  2  0  0  0  0
 11  2  1  0  0  0  0
 11 15  1  0  0  0  0
 12 10  1  0  0  0  0
 14  5  2  0  0  0  0
 15 18  1  1  0  0  0
 16  1  2  0  0  0  0
 17 25  1  0  0  0  0
 18 20  2  0  0  0  0
 18 22  1  0  0  0  0
 19 17  1  0  0  0  0
 20 21  1  0  0  0  0
 21 17  2  0  0  0  0
 22 19  2  0  0  0  0
 25 24  2  0  0  0  0
 25 23  1  0  0  0  0
 26 30  1  0  0  0  0
 27 28  2  0  0  0  0
 28 30  1  0  0  0  0
 29 26  2  0  0  0  0
 29 27  1  0  0  0  0
M  END
>  <MODEL>
6

>  <REMARK>
 VINA RESULT:      -9.1      3.630      6.651
  Name = 
  3 active torsions:
  status: ('A' for Active; 'I' for Inactive)
    1  A    between atoms: C_6  and  C_30
    2  A    between atoms: C_7  and  C_26
    3  A    between atoms: C_8  and  C_9
                            x       y       z     vdW  Elec       q    Type
                         _______ _______ _______ _____ _____    ______ ____

>  <TORSDO>
F 3

$$$$
=
 OpenBabel11032419133D

 30 34  0  0  1  0  0  0  0  0999 V2000
  190.1510  177.0180  143.4200 N   0  0  0  0  0  0  0  0  0  0  0  0
  187.5520  178.5220  141.2680 C   0  0  0  0  0  0  0  0  0  0  0  0
  186.9570  178.1030  145.7750 C   0  0  0  0  0  0  0  0  0  0  0  0
  186.1410  178.7100  141.3900 N   0  0  0  0  0  2  0  0  0  0  0  0
  189.2440  177.2210  145.6960 C   0  0  0  0  0  0  0  0  0  0  0  0
  188.1410  179.0380  140.2830 O   0  0  0  0  0  0  0  0  0  0  0  0
  185.8610  178.4930  146.5350 O   0  0  0  0  0  1  0  0  0  0  0  0
  185.3230  178.0480  142.3900 C   0  0  1  0  0  3  0  0  0  0  0  0
  185.6770  178.5120  143.7230 N   0  0  0  0  0  2  0  0  0  0  0  0
  188.0410  177.7580  143.6550 C   0  0  0  0  0  0  0  0  0  0  0  0
  188.3350  177.8090  142.3040 C   0  0  0  0  0  0  0  0  0  0  0  0
  186.8990  178.1500  144.3700 C   0  0  0  0  0  0  0  0  0  0  0  0
  183.5770  178.4190  142.0740 S   0  0  0  0  0  1  0  0  0  0  0  0
  188.1170  177.6400  146.4260 C   0  0  0  0  0  3  0  0  0  0  0  0
  189.6450  177.3170  142.2000 C   0  0  0  0  0  0  0  0  0  0  0  0
  189.1700  177.3000  144.2950 C   0  0  1  0  0  3  0  0  0  0  0  0
  191.9660  176.6000  138.6620 C   0  0  0  0  0  0  0  0  0  0  0  0
  190.4220  177.0960  140.9640 C   0  0  0  0  0  0  0  0  0  0  0  0
  190.6330  176.1730  138.7250 C   0  0  0  0  0  3  0  0  0  0  0  0
  191.7620  177.5030  140.9060 C   0  0  0  0  0  3  0  0  0  0  0  0
  192.5270  177.2630  139.7620 C   0  0  0  0  0  3  0  0  0  0  0  0
  189.8690  176.4140  139.8710 C   0  0  0  0  0  3  0  0  0  0  0  0
  192.1430  175.9900  136.2630 O   0  0  0  0  0  0  0  0  0  0  0  0
  194.0220  176.4460  137.4850 O   0  0  0  0  0  1  0  0  0  0  0  0
  192.7660  176.3450  137.4540 C   0  0  0  0  0  0  0  0  0  0  0  0
  192.4300  175.6280  146.5710 C   0  0  0  0  0  3  0  0  0  0  0  0
  190.4480  176.7430  146.4120 C   0  0  0  0  0  0  0  0  0  0  0  0
  190.6710  177.0350  147.7210 N   0  0  0  0  0  0  0  0  0  0  0  0
  191.3950  175.9800  145.7760 N   0  0  0  0  0  0  0  0  0  0  0  0
  192.1140  176.2940  148.0600 S   0  0  0  0  0  0  0  0  0  0  0  0
  2  4  1  0  0  0  0
  2 11  1  0  0  0  0
  3 14  1  0  0  0  0
  3  7  1  0  0  0  0
  4  8  1  0  0  0  0
  5 27  1  0  0  0  0
  5 14  2  0  0  0  0
  6  2  2  0  0  0  0
  8 13  1  6  0  0  0
  8  9  1  0  0  0  0
  9 12  1  0  0  0  0
 10 16  1  0  0  0  0
 10 12  1  0  0  0  0
 11 10  2  0  0  0  0
 12  3  2  0  0  0  0
 15 11  1  0  0  0  0
 15  1  2  0  0  0  0
 16  1  1  1  0  0  0
 16  5  1  0  0  0  0
 17 19  2  0  0  0  0
 17 21  1  0  0  0  0
 18 15  1  0  0  0  0
 19 22  1  0  0  0  0
 20 18  1  0  0  0  0
 21 20  2  0  0  0  0
 22 18  2  0  0  0  0
 23 25  2  0  0  0  0
 25 24  1  0  0  0  0
 25 17  1  0  0  0  0
 26 30  1  0  0  0  0
 27 28  2  0  0  0  0
 28 30  1  0  0  0  0
 29 27  1  0  0  0  0
 29 26  2  0  0  0  0
M  END
>  <MODEL>
7

>  <REMARK>
 VINA RESULT:      -9.0      1.993      5.414
  Name = 
  3 active torsions:
  status: ('A' for Active; 'I' for Inactive)
    1  A    between atoms: C_6  and  C_30
    2  A    between atoms: C_7  and  C_26
    3  A    between atoms: C_8  and  C_9
                            x       y       z     vdW  Elec       q    Type
                         _______ _______ _______ _____ _____    ______ ____

>  <TORSDO>
F 3

$$$$
=
 OpenBabel11032419133D

 30 34  0  0  1  0  0  0  0  0999 V2000
  188.3820  177.6400  143.4180 N   0  0  0  0  0  0  0  0  0  0  0  0
  186.1730  178.5870  140.6120 C   0  0  0  0  0  0  0  0  0  0  0  0
  184.6900  178.6450  144.9290 C   0  0  0  0  0  0  0  0  0  0  0  0
  184.7580  178.6350  140.4280 N   0  0  0  0  0  2  0  0  0  0  0  0
  187.0080  178.0130  145.4220 C   0  0  0  0  0  0  0  0  0  0  0  0
  186.9110  179.0430  139.7000 O   0  0  0  0  0  0  0  0  0  0  0  0
  183.4310  179.0020  145.3980 O   0  0  0  0  0  1  0  0  0  0  0  0
  183.8060  178.0110  141.3310 C   0  0  1  0  0  3  0  0  0  0  0  0
  183.8360  178.6670  142.6290 N   0  0  0  0  0  2  0  0  0  0  0  0
  186.2160  178.1700  143.1310 C   0  0  0  0  0  0  0  0  0  0  0  0
  186.7790  178.0910  141.8700 C   0  0  0  0  0  0  0  0  0  0  0  0
  184.9220  178.5180  143.5470 C   0  0  2  0  0  3  0  0  0  0  0  0
  182.1390  178.1510  140.6300 S   0  0  0  0  0  1  0  0  0  0  0  0
  185.7220  178.3920  145.8520 C   0  0  0  0  0  3  0  0  0  0  0  0
  188.1180  177.7350  142.0930 C   0  0  0  0  0  0  0  0  0  0  0  0
  187.2200  177.9160  144.0360 C   0  0  0  0  0  0  0  0  0  0  0  0
  191.1460  176.8230  139.1920 C   0  0  0  0  0  0  0  0  0  0  0  0
  189.1510  177.4530  141.0760 C   0  0  0  0  0  0  0  0  0  0  0  0
  189.7920  176.7530  138.8390 C   0  0  0  0  0  3  0  0  0  0  0  0
  190.5060  177.5030  141.4330 C   0  0  0  0  0  3  0  0  0  0  0  0
  191.4970  177.1960  140.4970 C   0  0  0  0  0  3  0  0  0  0  0  0
  188.8020  177.0600  139.7760 C   0  0  0  0  0  3  0  0  0  0  0  0
  193.5290  176.6690  138.5160 O   0  0  0  0  0  1  0  0  0  0  0  0
  191.8700  176.0690  137.0610 O   0  0  0  0  0  0  0  0  0  0  0  0
  192.1850  176.5010  138.2020 C   0  0  0  0  0  0  0  0  0  0  0  0
  189.0070  177.8810  148.4930 C   0  0  0  0  0  3  0  0  0  0  0  0
  188.0700  177.7560  146.4190 C   0  0  0  0  0  0  0  0  0  0  0  0
  189.2030  177.0720  146.1050 N   0  0  0  0  0  0  0  0  0  0  0  0
  187.9510  178.1990  147.7120 N   0  0  0  0  0  0  0  0  0  0  0  0
  190.0640  177.0430  147.5200 S   0  0  0  0  0  0  0  0  0  0  0  0
  1 16  1  0  0  0  0
  2 11  1  0  0  0  0
  3  7  1  0  0  0  0
  3 14  2  0  0  0  0
  4  2  1  0  0  0  0
  4  8  1  0  0  0  0
  5 14  1  0  0  0  0
  5 27  1  0  0  0  0
  6  2  2  0  0  0  0
  8 13  1  6  0  0  0
  8  9  1  0  0  0  0
 10 12  1  0  0  0  0
 10 16  1  0  0  0  0
 11 15  1  0  0  0  0
 11 10  2  0  0  0  0
 12  9  1  1  0  0  0
 12  3  1  0  0  0  0
 15  1  2  0  0  0  0
 16  5  2  0  0  0  0
 17 21  1  0  0  0  0
 18 20  1  0  0  0  0
 18 15  1  0  0  0  0
 19 17  2  0  0  0  0
 19 22  1  0  0  0  0
 21 20  2  0  0  0  0
 22 18  2  0  0  0  0
 24 25  2  0  0  0  0
 25 23  1  0  0  0  0
 25 17  1  0  0  0  0
 27 29  1  0  0  0  0
 28 27  2  0  0  0  0
 28 30  1  0  0  0  0
 29 26  2  0  0  0  0
 30 26  1  0  0  0  0
M  END
>  <MODEL>
8

>  <REMARK>
 VINA RESULT:      -9.0      1.607      5.052
  Name = 
  3 active torsions:
  status: ('A' for Active; 'I' for Inactive)
    1  A    between atoms: C_6  and  C_30
    2  A    between atoms: C_7  and  C_26
    3  A    between atoms: C_8  and  C_9
                            x       y       z     vdW  Elec       q    Type
                         _______ _______ _______ _____ _____    ______ ____

>  <TORSDO>
F 3

$$$$
=
 OpenBabel11032419133D

 30 34  0  0  1  0  0  0  0  0999 V2000
  187.4360  177.9120  140.4730 N   0  0  0  0  0  0  0  0  0  0  0  0
  191.0740  177.3390  140.1770 C   0  0  0  0  0  0  0  0  0  0  0  0
  188.4160  177.7000  136.4830 C   0  0  0  0  0  0  0  0  0  0  0  0
  191.9200  176.7970  139.1620 N   0  0  0  0  0  2  0  0  0  0  0  0
  186.6670  178.1270  138.1480 C   0  0  0  0  0  0  0  0  0  0  0  0
  191.6120  177.8470  141.1950 O   0  0  0  0  0  0  0  0  0  0  0  0
  188.7920  177.6300  135.1470 O   0  0  0  0  0  1  0  0  0  0  0  0
  191.4290  176.0530  138.0150 C   0  0  1  0  0  3  0  0  0  0  0  0
  190.6450  176.9200  137.1480 N   0  0  0  0  0  2  0  0  0  0  0  0
  188.9120  177.4940  138.8280 C   0  0  0  0  0  0  0  0  0  0  0  0
  189.6010  177.3840  140.0230 C   0  0  0  0  0  0  0  0  0  0  0  0
  189.3420  177.3930  137.4970 C   0  0  0  0  0  0  0  0  0  0  0  0
  192.8370  175.3930  137.0840 S   0  0  0  0  0  1  0  0  0  0  0  0
  187.0950  178.0590  136.8100 C   0  0  0  0  0  3  0  0  0  0  0  0
  188.6430  177.6250  141.0180 C   0  0  2  0  0  3  0  0  0  0  0  0
  187.6170  177.8380  139.1430 C   0  0  0  0  0  0  0  0  0  0  0  0
  189.1650  177.5470  145.2770 C   0  0  0  0  0  0  0  0  0  0  0  0
  188.8360  177.5630  142.4810 C   0  0  0  0  0  0  0  0  0  0  0  0
  188.1760  176.7570  144.6770 C   0  0  0  0  0  3  0  0  0  0  0  0
  189.8110  178.3680  143.0860 C   0  0  0  0  0  3  0  0  0  0  0  0
  189.9790  178.3570  144.4730 C   0  0  0  0  0  3  0  0  0  0  0  0
  188.0090  176.7700  143.2890 C   0  0  0  0  0  3  0  0  0  0  0  0
  190.4900  176.9930  147.3010 O   0  0  0  0  0  0  0  0  0  0  0  0
  188.4470  178.0010  147.4940 O   0  0  0  0  0  1  0  0  0  0  0  0
  189.3380  177.5300  146.7380 C   0  0  0  0  0  0  0  0  0  0  0  0
  183.0100  178.2200  138.4120 C   0  0  0  0  0  3  0  0  0  0  0  0
  185.2710  178.5090  138.4560 C   0  0  0  0  0  0  0  0  0  0  0  0
  184.9700  179.6390  139.1510 N   0  0  0  0  0  0  0  0  0  0  0  0
  184.2170  177.7300  138.0500 N   0  0  0  0  0  0  0  0  0  0  0  0
  183.3150  179.6300  139.2390 S   0  0  0  0  0  0  0  0  0  0  0  0
  1 15  1  0  0  0  0
  2  6  2  0  0  0  0
  3 14  1  0  0  0  0
  3 12  2  0  0  0  0
  4  2  1  0  0  0  0
  5 27  1  0  0  0  0
  5 16  1  0  0  0  0
  7  3  1  0  0  0  0
  8 13  1  6  0  0  0
  8  4  1  0  0  0  0
  9 12  1  0  0  0  0
  9  8  1  0  0  0  0
 10 16  1  0  0  0  0
 10 11  2  0  0  0  0
 11  2  1  0  0  0  0
 11 15  1  0  0  0  0
 12 10  1  0  0  0  0
 14  5  2  0  0  0  0
 15 18  1  1  0  0  0
 16  1  2  0  0  0  0
 17 25  1  0  0  0  0
 18 20  2  0  0  0  0
 18 22  1  0  0  0  0
 19 17  1  0  0  0  0
 20 21  1  0  0  0  0
 21 17  2  0  0  0  0
 22 19  2  0  0  0  0
 25 23  2  0  0  0  0
 25 24  1  0  0  0  0
 26 30  1  0  0  0  0
 27 28  2  0  0  0  0
 28 30  1  0  0  0  0
 29 26  2  0  0  0  0
 29 27  1  0  0  0  0
M  END
>  <MODEL>
9

>  <REMARK>
 VINA RESULT:      -8.8      3.350      6.564
  Name = 
  3 active torsions:
  status: ('A' for Active; 'I' for Inactive)
    1  A    between atoms: C_6  and  C_30
    2  A    between atoms: C_7  and  C_26
    3  A    between atoms: C_8  and  C_9
                            x       y       z     vdW  Elec       q    Type
                         _______ _______ _______ _____ _____    ______ ____

>  <TORSDO>
F 3

$$$$
