=
 OpenBabel11042409503D

 33 36  0  0  1  0  0  0  0  0999 V2000
  187.2330  178.3210  147.3600 C   0  0  0  0  0  0  0  0  0  0  0  0
  186.4600  177.5210  142.7070 C   0  0  0  0  0  2  0  0  0  0  0  0
  185.2360  178.7790  146.0420 C   0  0  0  0  0  3  0  0  0  0  0  0
  187.5780  177.3340  143.6850 C   0  0  0  0  0  0  0  0  0  0  0  0
  187.9030  178.3450  148.5860 C   0  0  0  0  0  3  0  0  0  0  0  0
  185.3310  178.1700  143.5300 C   0  0  1  0  0  3  0  0  0  0  0  0
  189.8600  177.3620  147.5430 C   0  0  0  0  0  0  0  0  0  0  0  0
  189.2140  177.8660  148.6770 C   0  0  0  0  0  3  0  0  0  0  0  0
  191.4990  176.7640  147.6640 Cl  0  0  0  0  0  0  0  0  0  0  0  0
  185.9150  178.8000  147.2690 C   0  0  0  0  0  3  0  0  0  0  0  0
  187.1810  177.8030  144.9960 C   0  0  0  0  0  0  0  0  0  0  0  0
  188.7360  176.8200  143.4130 N   0  0  0  0  0  0  0  0  0  0  0  0
  185.8930  178.2790  144.9150 C   0  0  0  0  0  0  0  0  0  0  0  0
  187.8860  177.8100  146.2090 C   0  0  0  0  0  0  0  0  0  0  0  0
  189.1980  177.3330  146.3120 C   0  0  0  0  0  3  0  0  0  0  0  0
  185.0490  179.4940  143.0000 N   0  0  0  0  0  2  0  0  0  0  0  0
  183.5060  178.6550  140.8390 O   0  0  0  0  0  0  0  0  0  0  0  0
  185.5060  179.5100  141.6750 N   0  0  0  0  0  2  0  0  0  0  0  0
  184.6750  179.0680  140.6050 C   0  0  0  0  0  0  0  0  0  0  0  0
  185.1780  179.0950  139.2700 N   0  0  0  0  0  2  0  0  0  0  0  0
  184.3770  178.6610  138.1360 C   0  0  0  0  0  2  0  0  0  0  0  0
  184.3510  177.1540  136.2310 N   0  0  0  0  0  1  0  0  0  0  0  0
  184.9980  177.4270  137.5020 C   0  0  1  0  0  3  0  0  0  0  0  0
  186.9220  178.6280  136.4700 O   0  0  0  0  0  0  0  0  0  0  0  0
  186.4670  177.6100  137.2960 C   0  0  0  0  0  0  0  0  0  0  0  0
  187.2950  176.8430  137.8580 O   0  0  0  0  0  1  0  0  0  0  0  0
  189.1030  176.3540  142.0840 C   0  0  0  0  0  2  0  0  0  0  0  0
  191.5150  177.1240  141.7710 C   0  0  0  0  0  2  0  0  0  0  0  0
  192.0350  176.9370  139.3200 C   0  0  0  0  0  2  0  0  0  0  0  0
  192.4130  177.6110  140.6420 C   0  0  0  0  0  2  0  0  0  0  0  0
  189.7720  177.4670  140.0080 O   0  0  0  0  0  0  0  0  0  0  0  0
  190.0360  177.3500  141.4010 C   0  0  1  0  0  3  0  0  0  0  0  0
  190.5560  176.5370  139.2940 C   0  0  0  0  0  2  0  0  0  0  0  0
  1  5  1  0  0  0  0
  2  6  1  0  0  0  0
  2  4  1  0  0  0  0
  3 10  1  0  0  0  0
  4 11  1  0  0  0  0
  5  8  2  0  0  0  0
  6 16  1  6  0  0  0
  6 13  1  0  0  0  0
  7  9  1  0  0  0  0
  7  8  1  0  0  0  0
 10  1  2  0  0  0  0
 11 14  2  0  0  0  0
 12  4  2  0  0  0  0
 13 11  1  0  0  0  0
 13  3  2  0  0  0  0
 14 15  1  0  0  0  0
 14  1  1  0  0  0  0
 15  7  2  0  0  0  0
 18 16  1  0  0  0  0
 19 17  2  0  0  0  0
 19 18  1  0  0  0  0
 20 19  1  0  0  0  0
 21 20  1  0  0  0  0
 23 22  1  6  0  0  0
 23 21  1  0  0  0  0
 24 25  2  0  0  0  0
 25 23  1  0  0  0  0
 25 26  1  0  0  0  0
 27 12  1  0  0  0  0
 29 30  1  0  0  0  0
 30 28  1  0  0  0  0
 31 32  1  0  0  0  0
 32 28  1  0  0  0  0
 32 27  1  6  0  0  0
 33 29  1  0  0  0  0
 33 31  1  0  0  0  0
M  END
>  <MODEL>
1

>  <REMARK>
 VINA RESULT:      -9.6      0.000      0.000
  Name = 
  7 active torsions:
  status: ('A' for Active; 'I' for Inactive)
    1  A    between atoms: C_10  and  N_24
    2  A    between atoms: C_11  and  CA_30
    3  A    between atoms: N_20  and  N_24
    4  A    between atoms: N_21  and  C_25
    5  A    between atoms: C_23  and  C_25
    6  A    between atoms: CA_30  and  C_32
    7  A    between atoms: N_31  and  C_32
                            x       y       z     vdW  Elec       q    Type
                         _______ _______ _______ _____ _____    ______ ____

>  <TORSDO>
F 7

$$$$
=
 OpenBabel11042409503D

 33 36  0  0  1  0  0  0  0  0999 V2000
  190.5820  177.2150  144.5680 C   0  0  0  0  0  0  0  0  0  0  0  0
  188.4590  178.0150  140.3560 C   0  0  0  0  0  2  0  0  0  0  0  0
  191.5550  177.1780  142.3350 C   0  0  0  0  0  3  0  0  0  0  0  0
  188.0620  177.9770  141.8000 C   0  0  0  0  0  0  0  0  0  0  0  0
  190.7270  177.0810  145.9520 C   0  0  0  0  0  3  0  0  0  0  0  0
  189.9600  177.6670  140.3590 C   0  0  1  0  0  3  0  0  0  0  0  0
  188.3680  177.5610  146.2520 C   0  0  0  0  0  0  0  0  0  0  0  0
  189.6220  177.2540  146.7920 C   0  0  0  0  0  3  0  0  0  0  0  0
  186.9910  177.7750  147.3080 Cl  0  0  0  0  0  0  0  0  0  0  0  0
  191.6930  177.0450  143.7250 C   0  0  0  0  0  3  0  0  0  0  0  0
  189.2060  177.6540  142.6260 C   0  0  0  0  0  0  0  0  0  0  0  0
  186.8710  178.2060  142.2580 N   0  0  0  0  0  0  0  0  0  0  0  0
  190.2970  177.4790  141.8070 C   0  0  0  0  0  0  0  0  0  0  0  0
  189.3120  177.5270  144.0190 C   0  0  0  0  0  0  0  0  0  0  0  0
  188.2130  177.6980  144.8700 C   0  0  0  0  0  3  0  0  0  0  0  0
  190.1650  176.4240  139.6330 N   0  0  0  0  0  2  0  0  0  0  0  0
  191.2360  174.4020  138.0460 O   0  0  0  0  0  0  0  0  0  0  0  0
  191.4190  176.5140  139.0140 N   0  0  0  0  0  2  0  0  0  0  0  0
  191.9210  175.4480  138.2120 C   0  0  0  0  0  0  0  0  0  0  0  0
  193.2050  175.5750  137.6010 N   0  0  0  0  0  2  0  0  0  0  0  0
  193.7700  174.5250  136.7690 C   0  0  0  0  0  2  0  0  0  0  0  0
  195.9950  175.4970  136.7630 N   0  0  0  0  0  1  0  0  0  0  0  0
  195.2330  174.3130  137.1190 C   0  0  1  0  0  3  0  0  0  0  0  0
  195.8640  175.0110  139.4270 O   0  0  0  0  0  1  0  0  0  0  0  0
  195.4000  174.0180  138.5750 C   0  0  0  0  0  0  0  0  0  0  0  0
  195.1340  172.8750  139.0330 O   0  0  0  0  0  0  0  0  0  0  0  0
  185.7420  178.5330  141.3990 C   0  0  0  0  0  2  0  0  0  0  0  0
  183.3180  178.6190  142.1900 C   0  0  0  0  0  2  0  0  0  0  0  0
  183.3670  178.7340  144.7000 C   0  0  0  0  0  2  0  0  0  0  0  0
  182.5460  179.0210  143.4390 C   0  0  0  0  0  2  0  0  0  0  0  0
  185.1630  179.7600  143.4380 O   0  0  0  0  0  0  0  0  0  0  0  0
  184.6890  179.3240  142.1700 C   0  0  1  0  0  3  0  0  0  0  0  0
  184.8720  178.7870  144.4160 C   0  0  0  0  0  2  0  0  0  0  0  0
  1  5  1  0  0  0  0
  2  6  1  0  0  0  0
  2  4  1  0  0  0  0
  3 10  1  0  0  0  0
  4 12  2  0  0  0  0
  4 11  1  0  0  0  0
  5  8  2  0  0  0  0
  6 16  1  6  0  0  0
  6 13  1  0  0  0  0
  7  8  1  0  0  0  0
  7  9  1  0  0  0  0
 10  1  2  0  0  0  0
 11 14  2  0  0  0  0
 13  3  2  0  0  0  0
 13 11  1  0  0  0  0
 14  1  1  0  0  0  0
 14 15  1  0  0  0  0
 15  7  2  0  0  0  0
 17 19  2  0  0  0  0
 18 16  1  0  0  0  0
 19 18  1  0  0  0  0
 20 19  1  0  0  0  0
 21 23  1  0  0  0  0
 21 20  1  0  0  0  0
 23 22  1  1  0  0  0
 23 25  1  0  0  0  0
 25 26  2  0  0  0  0
 25 24  1  0  0  0  0
 27 12  1  0  0  0  0
 28 30  1  0  0  0  0
 30 29  1  0  0  0  0
 31 33  1  0  0  0  0
 32 27  1  1  0  0  0
 32 28  1  0  0  0  0
 32 31  1  0  0  0  0
 33 29  1  0  0  0  0
M  END
>  <MODEL>
2

>  <REMARK>
 VINA RESULT:      -9.5      3.717      7.132
  Name = 
  7 active torsions:
  status: ('A' for Active; 'I' for Inactive)
    1  A    between atoms: C_10  and  N_24
    2  A    between atoms: C_11  and  CA_30
    3  A    between atoms: N_20  and  N_24
    4  A    between atoms: N_21  and  C_25
    5  A    between atoms: C_23  and  C_25
    6  A    between atoms: CA_30  and  C_32
    7  A    between atoms: N_31  and  C_32
                            x       y       z     vdW  Elec       q    Type
                         _______ _______ _______ _____ _____    ______ ____

>  <TORSDO>
F 7

$$$$
=
 OpenBabel11042409503D

 33 36  0  0  1  0  0  0  0  0999 V2000
  184.0750  178.6620  144.3620 C   0  0  0  0  0  0  0  0  0  0  0  0
  186.1000  178.4130  140.0340 C   0  0  0  0  0  2  0  0  0  0  0  0
  183.0360  178.9070  142.1730 C   0  0  0  0  0  3  0  0  0  0  0  0
  186.5380  178.3080  141.4620 C   0  0  0  0  0  0  0  0  0  0  0  0
  183.9670  178.6380  145.7550 C   0  0  0  0  0  3  0  0  0  0  0  0
  184.5880  178.7000  140.1150 C   0  0  1  0  0  3  0  0  0  0  0  0
  186.3500  178.2200  145.9390 C   0  0  0  0  0  0  0  0  0  0  0  0
  185.1020  178.4170  146.5420 C   0  0  0  0  0  3  0  0  0  0  0  0
  187.7650  177.9450  146.9300 Cl  0  0  0  0  0  0  0  0  0  0  0  0
  182.9350  178.8810  143.5720 C   0  0  0  0  0  3  0  0  0  0  0  0
  185.4080  178.4940  142.3480 C   0  0  0  0  0  0  0  0  0  0  0  0
  187.7490  178.0760  141.8610 N   0  0  0  0  0  0  0  0  0  0  0  0
  184.2880  178.7140  141.5820 C   0  0  0  0  0  0  0  0  0  0  0  0
  185.3400  178.4630  143.7490 C   0  0  0  0  0  0  0  0  0  0  0  0
  186.4680  178.2420  144.5470 C   0  0  0  0  0  3  0  0  0  0  0  0
  184.3160  180.0060  139.5360 N   0  0  0  0  0  2  0  0  0  0  0  0
  182.9150  182.2540  138.6750 O   0  0  0  0  0  0  0  0  0  0  0  0
  183.0360  179.9450  138.9700 N   0  0  0  0  0  2  0  0  0  0  0  0
  182.3620  181.1280  138.5470 C   0  0  0  0  0  0  0  0  0  0  0  0
  181.0570  181.0250  137.9790 N   0  0  0  0  0  2  0  0  0  0  0  0
  180.3200  182.1940  137.5250 C   0  0  0  0  0  2  0  0  0  0  0  0
  179.5710  182.0970  135.2170 N   0  0  0  0  0  1  0  0  0  0  0  0
  180.6680  182.5010  136.0780 C   0  0  1  0  0  3  0  0  0  0  0  0
  181.7590  184.6210  136.8050 O   0  0  0  0  0  1  0  0  0  0  0  0
  180.9520  183.9570  135.8920 C   0  0  0  0  0  0  0  0  0  0  0  0
  180.4560  184.5890  134.9210 O   0  0  0  0  0  0  0  0  0  0  0  0
  188.8630  177.8900  140.9430 C   0  0  0  0  0  2  0  0  0  0  0  0
  190.1300  178.4920  143.0730 C   0  0  0  0  0  2  0  0  0  0  0  0
  190.8270  176.3310  144.1510 C   0  0  0  0  0  2  0  0  0  0  0  0
  191.1080  177.8320  144.0370 C   0  0  0  0  0  2  0  0  0  0  0  0
  190.6780  176.4500  141.7350 O   0  0  0  0  0  0  0  0  0  0  0  0
  190.1800  177.7810  141.7070 C   0  0  1  0  0  3  0  0  0  0  0  0
  190.1840  175.7800  142.8740 C   0  0  0  0  0  2  0  0  0  0  0  0
  1  5  1  0  0  0  0
  2  6  1  0  0  0  0
  2  4  1  0  0  0  0
  3 10  1  0  0  0  0
  4 12  2  0  0  0  0
  4 11  1  0  0  0  0
  5  8  2  0  0  0  0
  6 16  1  1  0  0  0
  6 13  1  0  0  0  0
  7  8  1  0  0  0  0
  7  9  1  0  0  0  0
 10  1  2  0  0  0  0
 11 14  2  0  0  0  0
 13  3  2  0  0  0  0
 13 11  1  0  0  0  0
 14  1  1  0  0  0  0
 14 15  1  0  0  0  0
 15  7  2  0  0  0  0
 18 16  1  0  0  0  0
 19 17  2  0  0  0  0
 19 18  1  0  0  0  0
 20 19  1  0  0  0  0
 21 20  1  0  0  0  0
 23 22  1  6  0  0  0
 23 21  1  0  0  0  0
 25 23  1  0  0  0  0
 25 24  1  0  0  0  0
 26 25  2  0  0  0  0
 27 12  1  0  0  0  0
 28 30  1  0  0  0  0
 30 29  1  0  0  0  0
 31 33  1  0  0  0  0
 32 27  1  1  0  0  0
 32 31  1  0  0  0  0
 32 28  1  0  0  0  0
 33 29  1  0  0  0  0
M  END
>  <MODEL>
3

>  <REMARK>
 VINA RESULT:      -9.4      3.568      4.740
  Name = 
  7 active torsions:
  status: ('A' for Active; 'I' for Inactive)
    1  A    between atoms: C_10  and  N_24
    2  A    between atoms: C_11  and  CA_30
    3  A    between atoms: N_20  and  N_24
    4  A    between atoms: N_21  and  C_25
    5  A    between atoms: C_23  and  C_25
    6  A    between atoms: CA_30  and  C_32
    7  A    between atoms: N_31  and  C_32
                            x       y       z     vdW  Elec       q    Type
                         _______ _______ _______ _____ _____    ______ ____

>  <TORSDO>
F 7

$$$$
=
 OpenBabel11042409503D

 33 36  0  0  1  0  0  0  0  0999 V2000
  187.5490  177.9240  147.2650 C   0  0  0  0  0  0  0  0  0  0  0  0
  185.8990  177.9030  142.7740 C   0  0  0  0  0  2  0  0  0  0  0  0
  185.3080  178.4330  146.4580 C   0  0  0  0  0  3  0  0  0  0  0  0
  187.1990  177.6430  143.4710 C   0  0  0  0  0  0  0  0  0  0  0  0
  188.4490  177.7860  148.3250 C   0  0  0  0  0  3  0  0  0  0  0  0
  184.9270  178.2930  143.9040 C   0  0  1  0  0  3  0  0  0  0  0  0
  190.2040  177.1800  146.7630 C   0  0  0  0  0  0  0  0  0  0  0  0
  189.7740  177.4150  148.0740 C   0  0  0  0  0  3  0  0  0  0  0  0
  191.8630  176.7160  146.4580 Cl  0  0  0  0  0  0  0  0  0  0  0  0
  186.2170  178.2940  147.5170 C   0  0  0  0  0  3  0  0  0  0  0  0
  187.0500  177.8330  144.8980 C   0  0  0  0  0  0  0  0  0  0  0  0
  188.3030  177.2890  142.8920 N   0  0  0  0  0  0  0  0  0  0  0  0
  185.7500  178.2020  145.1530 C   0  0  0  0  0  0  0  0  0  0  0  0
  187.9830  177.6860  145.9350 C   0  0  0  0  0  0  0  0  0  0  0  0
  189.3110  177.3140  145.6970 C   0  0  0  0  0  3  0  0  0  0  0  0
  184.4780  179.6610  143.7010 N   0  0  0  0  0  2  0  0  0  0  0  0
  182.6780  178.7000  141.8050 O   0  0  0  0  0  0  0  0  0  0  0  0
  183.0890  179.6680  143.8850 N   0  0  0  0  0  2  0  0  0  0  0  0
  182.2110  179.1650  142.8810 C   0  0  0  0  0  0  0  0  0  0  0  0
  180.8020  179.1930  143.1030 N   0  0  0  0  0  2  0  0  0  0  0  0
  179.8560  178.6920  142.1190 C   0  0  0  0  0  2  0  0  0  0  0  0
  179.3860  181.0740  142.0620 N   0  0  0  0  0  1  0  0  0  0  0  0
  179.2990  179.8420  141.2980 C   0  0  1  0  0  3  0  0  0  0  0  0
  180.2840  178.8720  139.2240 O   0  0  0  0  0  0  0  0  0  0  0  0
  180.0420  179.9910  140.0080 C   0  0  0  0  0  0  0  0  0  0  0  0
  180.4600  181.1200  139.6340 O   0  0  0  0  0  1  0  0  0  0  0  0
  188.4190  177.1020  141.4540 C   0  0  0  0  0  2  0  0  0  0  0  0
  190.9650  177.2410  141.5010 C   0  0  0  0  0  2  0  0  0  0  0  0
  191.7680  176.8380  139.1540 C   0  0  0  0  0  2  0  0  0  0  0  0
  192.1090  177.4480  140.5170 C   0  0  0  0  0  2  0  0  0  0  0  0
  189.6350  177.9350  139.4980 O   0  0  0  0  0  0  0  0  0  0  0  0
  189.6590  177.8100  140.9150 C   0  0  1  0  0  3  0  0  0  0  0  0
  190.2560  176.8130  138.9100 C   0  0  0  0  0  2  0  0  0  0  0  0
  1 10  2  0  0  0  0
  1  5  1  0  0  0  0
  2  4  1  0  0  0  0
  2  6  1  0  0  0  0
  3 10  1  0  0  0  0
  4 11  1  0  0  0  0
  6 16  1  6  0  0  0
  6 13  1  0  0  0  0
  7  8  1  0  0  0  0
  8  5  2  0  0  0  0
  9  7  1  0  0  0  0
 11 13  1  0  0  0  0
 11 14  2  0  0  0  0
 12  4  2  0  0  0  0
 13  3  2  0  0  0  0
 14  1  1  0  0  0  0
 15 14  1  0  0  0  0
 15  7  2  0  0  0  0
 16 18  1  0  0  0  0
 17 19  2  0  0  0  0
 19 20  1  0  0  0  0
 19 18  1  0  0  0  0
 21 20  1  0  0  0  0
 23 22  1  1  0  0  0
 23 21  1  0  0  0  0
 24 25  2  0  0  0  0
 25 23  1  0  0  0  0
 26 25  1  0  0  0  0
 27 12  1  0  0  0  0
 29 30  1  0  0  0  0
 30 28  1  0  0  0  0
 31 32  1  0  0  0  0
 32 27  1  6  0  0  0
 32 28  1  0  0  0  0
 33 29  1  0  0  0  0
 33 31  1  0  0  0  0
M  END
>  <MODEL>
4

>  <REMARK>
 VINA RESULT:      -9.4      2.469      3.509
  Name = 
  7 active torsions:
  status: ('A' for Active; 'I' for Inactive)
    1  A    between atoms: C_10  and  N_24
    2  A    between atoms: C_11  and  CA_30
    3  A    between atoms: N_20  and  N_24
    4  A    between atoms: N_21  and  C_25
    5  A    between atoms: C_23  and  C_25
    6  A    between atoms: CA_30  and  C_32
    7  A    between atoms: N_31  and  C_32
                            x       y       z     vdW  Elec       q    Type
                         _______ _______ _______ _____ _____    ______ ____

>  <TORSDO>
F 7

$$$$
=
 OpenBabel11042409503D

 33 36  0  0  1  0  0  0  0  0999 V2000
  189.1330  177.4200  145.4380 C   0  0  0  0  0  0  0  0  0  0  0  0
  188.4150  178.2010  140.7730 C   0  0  0  0  0  2  0  0  0  0  0  0
  190.7340  177.3070  143.6060 C   0  0  0  0  0  3  0  0  0  0  0  0
  187.5980  178.2040  142.0280 C   0  0  0  0  0  0  0  0  0  0  0  0
  188.8470  177.3100  146.8010 C   0  0  0  0  0  3  0  0  0  0  0  0
  189.8310  177.8050  141.2340 C   0  0  1  0  0  3  0  0  0  0  0  0
  186.5270  177.8700  146.3670 C   0  0  0  0  0  0  0  0  0  0  0  0
  187.5460  177.5340  147.2650 C   0  0  0  0  0  3  0  0  0  0  0  0
  184.9030  178.1490  146.9540 Cl  0  0  0  0  0  0  0  0  0  0  0  0
  190.4400  177.1970  144.9730 C   0  0  0  0  0  3  0  0  0  0  0  0
  188.4260  177.8620  143.1650 C   0  0  0  0  0  0  0  0  0  0  0  0
  186.3340  178.4800  142.1010 N   0  0  0  0  0  0  0  0  0  0  0  0
  189.7060  177.6360  142.7180 C   0  0  0  0  0  0  0  0  0  0  0  0
  188.1000  177.7600  144.5260 C   0  0  0  0  0  0  0  0  0  0  0  0
  186.8020  177.9840  145.0020 C   0  0  0  0  0  3  0  0  0  0  0  0
  190.2010  176.5420  140.6170 N   0  0  0  0  0  2  0  0  0  0  0  0
  190.5890  175.0830  138.2770 O   0  0  0  0  0  0  0  0  0  0  0  0
  191.2210  176.8190  139.6970 N   0  0  0  0  0  2  0  0  0  0  0  0
  191.3760  176.0390  138.5140 C   0  0  0  0  0  0  0  0  0  0  0  0
  192.4300  176.3500  137.6030 N   0  0  0  0  0  2  0  0  0  0  0  0
  192.6370  175.5940  136.3780 C   0  0  0  0  0  2  0  0  0  0  0  0
  194.7890  176.6570  136.0040 N   0  0  0  0  0  1  0  0  0  0  0  0
  194.1230  175.3740  136.1460 C   0  0  1  0  0  3  0  0  0  0  0  0
  194.2400  173.3500  137.5950 O   0  0  0  0  0  0  0  0  0  0  0  0
  194.7340  174.6050  137.2740 C   0  0  0  0  0  0  0  0  0  0  0  0
  195.6870  175.0920  137.9400 O   0  0  0  0  0  1  0  0  0  0  0  0
  185.5310  178.8250  140.9370 C   0  0  0  0  0  2  0  0  0  0  0  0
  183.2780  178.7500  142.1310 C   0  0  0  0  0  2  0  0  0  0  0  0
  181.5140  179.2250  140.4050 C   0  0  0  0  0  2  0  0  0  0  0  0
  181.8060  178.5940  141.7690 C   0  0  0  0  0  2  0  0  0  0  0  0
  183.5350  178.0660  139.7380 O   0  0  0  0  0  0  0  0  0  0  0  0
  184.1590  178.1610  141.0120 C   0  0  1  0  0  3  0  0  0  0  0  0
  182.7530  179.2160  139.5030 C   0  0  0  0  0  2  0  0  0  0  0  0
  1  5  1  0  0  0  0
  2  6  1  0  0  0  0
  2  4  1  0  0  0  0
  3 10  1  0  0  0  0
  4 12  2  0  0  0  0
  4 11  1  0  0  0  0
  5  8  2  0  0  0  0
  6 16  1  6  0  0  0
  6 13  1  0  0  0  0
  7  9  1  0  0  0  0
  7  8  1  0  0  0  0
 10  1  2  0  0  0  0
 11 14  2  0  0  0  0
 13 11  1  0  0  0  0
 13  3  2  0  0  0  0
 14 15  1  0  0  0  0
 14  1  1  0  0  0  0
 15  7  2  0  0  0  0
 17 19  2  0  0  0  0
 18 16  1  0  0  0  0
 19 18  1  0  0  0  0
 20 19  1  0  0  0  0
 21 20  1  0  0  0  0
 23 22  1  1  0  0  0
 23 21  1  0  0  0  0
 23 25  1  0  0  0  0
 25 24  2  0  0  0  0
 25 26  1  0  0  0  0
 27 12  1  0  0  0  0
 29 30  1  0  0  0  0
 30 28  1  0  0  0  0
 31 32  1  0  0  0  0
 32 27  1  6  0  0  0
 32 28  1  0  0  0  0
 33 31  1  0  0  0  0
 33 29  1  0  0  0  0
M  END
>  <MODEL>
5

>  <REMARK>
 VINA RESULT:      -9.2      3.544      6.697
  Name = 
  7 active torsions:
  status: ('A' for Active; 'I' for Inactive)
    1  A    between atoms: C_10  and  N_24
    2  A    between atoms: C_11  and  CA_30
    3  A    between atoms: N_20  and  N_24
    4  A    between atoms: N_21  and  C_25
    5  A    between atoms: C_23  and  C_25
    6  A    between atoms: CA_30  and  C_32
    7  A    between atoms: N_31  and  C_32
                            x       y       z     vdW  Elec       q    Type
                         _______ _______ _______ _____ _____    ______ ____

>  <TORSDO>
F 7

$$$$
=
 OpenBabel11042409503D

 33 36  0  0  1  0  0  0  0  0999 V2000
  184.6820  178.4720  145.1140 C   0  0  0  0  0  0  0  0  0  0  0  0
  186.7030  178.1820  140.7870 C   0  0  0  0  0  2  0  0  0  0  0  0
  183.6380  178.6790  142.9230 C   0  0  0  0  0  3  0  0  0  0  0  0
  187.1440  178.1000  142.2160 C   0  0  0  0  0  0  0  0  0  0  0  0
  184.5760  178.4650  146.5070 C   0  0  0  0  0  3  0  0  0  0  0  0
  185.1890  178.4580  140.8660 C   0  0  1  0  0  3  0  0  0  0  0  0
  186.9620  178.0700  146.6940 C   0  0  0  0  0  0  0  0  0  0  0  0
  185.7130  178.2650  147.2960 C   0  0  0  0  0  3  0  0  0  0  0  0
  188.3800  177.8200  147.6870 Cl  0  0  0  0  0  0  0  0  0  0  0  0
  183.5380  178.6710  144.3220 C   0  0  0  0  0  3  0  0  0  0  0  0
  186.0140  178.2880  143.1010 C   0  0  0  0  0  0  0  0  0  0  0  0
  188.3570  177.8840  142.6170 N   0  0  0  0  0  0  0  0  0  0  0  0
  184.8910  178.4890  142.3330 C   0  0  0  0  0  0  0  0  0  0  0  0
  185.9470  178.2750  144.5020 C   0  0  0  0  0  0  0  0  0  0  0  0
  187.0790  178.0740  145.3020 C   0  0  0  0  0  3  0  0  0  0  0  0
  184.9060  179.7540  140.2710 N   0  0  0  0  0  2  0  0  0  0  0  0
  182.1460  179.4650  140.0390 O   0  0  0  0  0  0  0  0  0  0  0  0
  184.2570  179.5120  139.0530 N   0  0  0  0  0  2  0  0  0  0  0  0
  182.8400  179.3710  138.9900 C   0  0  0  0  0  0  0  0  0  0  0  0
  182.2150  179.1210  137.7320 N   0  0  0  0  0  2  0  0  0  0  0  0
  180.7740  178.9710  137.6020 C   0  0  0  0  0  2  0  0  0  0  0  0
  181.4890  176.7850  136.8210 N   0  0  0  0  0  1  0  0  0  0  0  0
  180.4120  177.5000  137.4830 C   0  0  1  0  0  3  0  0  0  0  0  0
  181.1060  176.0700  139.4030 O   0  0  0  0  0  0  0  0  0  0  0  0
  180.1540  176.9000  138.8280 C   0  0  0  0  0  0  0  0  0  0  0  0
  179.0760  177.1310  139.4380 O   0  0  0  0  0  1  0  0  0  0  0  0
  189.4720  177.6940  141.7000 C   0  0  0  0  0  2  0  0  0  0  0  0
  190.6800  178.6380  143.7380 C   0  0  0  0  0  2  0  0  0  0  0  0
  191.6810  176.6880  144.9680 C   0  0  0  0  0  2  0  0  0  0  0  0
  191.7540  178.1990  144.7250 C   0  0  0  0  0  2  0  0  0  0  0  0
  191.4790  176.5830  142.5550 O   0  0  0  0  0  0  0  0  0  0  0  0
  190.8040  177.8280  142.4330 C   0  0  1  0  0  3  0  0  0  0  0  0
  191.0990  175.9500  143.7580 C   0  0  0  0  0  2  0  0  0  0  0  0
  1  5  1  0  0  0  0
  2  6  1  0  0  0  0
  2  4  1  0  0  0  0
  3 10  1  0  0  0  0
  4 12  2  0  0  0  0
  4 11  1  0  0  0  0
  5  8  2  0  0  0  0
  6 16  1  1  0  0  0
  6 13  1  0  0  0  0
  7  8  1  0  0  0  0
  7  9  1  0  0  0  0
 10  1  2  0  0  0  0
 11 14  2  0  0  0  0
 13  3  2  0  0  0  0
 13 11  1  0  0  0  0
 14  1  1  0  0  0  0
 14 15  1  0  0  0  0
 15  7  2  0  0  0  0
 18 16  1  0  0  0  0
 19 18  1  0  0  0  0
 19 17  2  0  0  0  0
 20 19  1  0  0  0  0
 21 20  1  0  0  0  0
 23 22  1  1  0  0  0
 23 21  1  0  0  0  0
 23 25  1  0  0  0  0
 25 24  2  0  0  0  0
 25 26  1  0  0  0  0
 27 12  1  0  0  0  0
 28 30  1  0  0  0  0
 30 29  1  0  0  0  0
 31 33  1  0  0  0  0
 32 27  1  1  0  0  0
 32 31  1  0  0  0  0
 32 28  1  0  0  0  0
 33 29  1  0  0  0  0
M  END
>  <MODEL>
6

>  <REMARK>
 VINA RESULT:      -8.9      2.550      3.745
  Name = 
  7 active torsions:
  status: ('A' for Active; 'I' for Inactive)
    1  A    between atoms: C_10  and  N_24
    2  A    between atoms: C_11  and  CA_30
    3  A    between atoms: N_20  and  N_24
    4  A    between atoms: N_21  and  C_25
    5  A    between atoms: C_23  and  C_25
    6  A    between atoms: CA_30  and  C_32
    7  A    between atoms: N_31  and  C_32
                            x       y       z     vdW  Elec       q    Type
                         _______ _______ _______ _____ _____    ______ ____

>  <TORSDO>
F 7

$$$$
=
 OpenBabel11042409503D

 33 36  0  0  1  0  0  0  0  0999 V2000
  187.4880  177.7870  146.8130 C   0  0  0  0  0  0  0  0  0  0  0  0
  185.0280  178.4170  142.7580 C   0  0  0  0  0  2  0  0  0  0  0  0
  185.0950  178.1270  146.5150 C   0  0  0  0  0  3  0  0  0  0  0  0
  186.4560  178.2090  143.1590 C   0  0  0  0  0  0  0  0  0  0  0  0
  188.5830  177.5720  147.6550 C   0  0  0  0  0  3  0  0  0  0  0  0
  184.2530  178.4380  144.0900 C   0  0  1  0  0  3  0  0  0  0  0  0
  190.0620  177.5350  145.7330 C   0  0  0  0  0  0  0  0  0  0  0  0
  189.8670  177.4460  147.1160 C   0  0  0  0  0  3  0  0  0  0  0  0
  191.6720  177.3760  145.0660 Cl  0  0  0  0  0  0  0  0  0  0  0  0
  186.1980  177.9110  147.3540 C   0  0  0  0  0  3  0  0  0  0  0  0
  186.5620  178.0930  144.5980 C   0  0  0  0  0  0  0  0  0  0  0  0
  187.4610  178.1330  142.3440 N   0  0  0  0  0  0  0  0  0  0  0  0
  185.3030  178.2200  145.1360 C   0  0  0  0  0  0  0  0  0  0  0  0
  187.6840  177.8770  145.4100 C   0  0  0  0  0  0  0  0  0  0  0  0
  188.9750  177.7490  144.8820 C   0  0  0  0  0  3  0  0  0  0  0  0
  183.6360  179.7430  144.2650 N   0  0  0  0  0  2  0  0  0  0  0  0
  181.0850  178.6280  144.2070 O   0  0  0  0  0  0  0  0  0  0  0  0
  182.7430  179.9200  143.2010 N   0  0  0  0  0  2  0  0  0  0  0  0
  181.4470  179.3260  143.2210 C   0  0  0  0  0  0  0  0  0  0  0  0
  180.5680  179.5250  142.1150 N   0  0  0  0  0  2  0  0  0  0  0  0
  179.2330  178.9480  142.0780 C   0  0  0  0  0  2  0  0  0  0  0  0
  179.5990  179.1550  139.6860 N   0  0  0  0  0  1  0  0  0  0  0  0
  178.9640  178.3440  140.7100 C   0  0  1  0  0  3  0  0  0  0  0  0
  179.3050  176.0900  141.7190 O   0  0  0  0  0  1  0  0  0  0  0  0
  179.4720  176.9400  140.6340 C   0  0  0  0  0  0  0  0  0  0  0  0
  180.0590  176.5240  139.5990 O   0  0  0  0  0  0  0  0  0  0  0  0
  187.3210  178.2490  140.9000 C   0  0  0  0  0  2  0  0  0  0  0  0
  189.7590  177.5010  140.9260 C   0  0  0  0  0  2  0  0  0  0  0  0
  190.2150  176.4000  138.7130 C   0  0  0  0  0  2  0  0  0  0  0  0
  190.8350  177.1040  139.9240 C   0  0  0  0  0  2  0  0  0  0  0  0
  188.6120  178.2150  138.8200 O   0  0  0  0  0  0  0  0  0  0  0  0
  188.6880  178.3640  140.2320 C   0  0  1  0  0  3  0  0  0  0  0  0
  188.7710  176.8560  138.4750 C   0  0  0  0  0  2  0  0  0  0  0  0
  1 10  2  0  0  0  0
  1  5  1  0  0  0  0
  2  4  1  0  0  0  0
  2  6  1  0  0  0  0
  3 10  1  0  0  0  0
  4 11  1  0  0  0  0
  6 16  1  1  0  0  0
  6 13  1  0  0  0  0
  7  8  1  0  0  0  0
  8  5  2  0  0  0  0
  9  7  1  0  0  0  0
 11 13  1  0  0  0  0
 11 14  2  0  0  0  0
 12  4  2  0  0  0  0
 13  3  2  0  0  0  0
 14  1  1  0  0  0  0
 15 14  1  0  0  0  0
 15  7  2  0  0  0  0
 18 19  1  0  0  0  0
 18 16  1  0  0  0  0
 19 17  2  0  0  0  0
 20 19  1  0  0  0  0
 21 20  1  0  0  0  0
 23 22  1  6  0  0  0
 23 21  1  0  0  0  0
 25 23  1  0  0  0  0
 25 24  1  0  0  0  0
 26 25  2  0  0  0  0
 27 12  1  0  0  0  0
 29 30  1  0  0  0  0
 30 28  1  0  0  0  0
 31 32  1  0  0  0  0
 32 27  1  1  0  0  0
 32 28  1  0  0  0  0
 33 29  1  0  0  0  0
 33 31  1  0  0  0  0
M  END
>  <MODEL>
7

>  <REMARK>
 VINA RESULT:      -8.9      2.889      3.805
  Name = 
  7 active torsions:
  status: ('A' for Active; 'I' for Inactive)
    1  A    between atoms: C_10  and  N_24
    2  A    between atoms: C_11  and  CA_30
    3  A    between atoms: N_20  and  N_24
    4  A    between atoms: N_21  and  C_25
    5  A    between atoms: C_23  and  C_25
    6  A    between atoms: CA_30  and  C_32
    7  A    between atoms: N_31  and  C_32
                            x       y       z     vdW  Elec       q    Type
                         _______ _______ _______ _____ _____    ______ ____

>  <TORSDO>
F 7

$$$$
=
 OpenBabel11042409503D

 33 36  0  0  1  0  0  0  0  0999 V2000
  184.6260  178.7990  142.8170 C   0  0  0  0  0  0  0  0  0  0  0  0
  188.9790  177.5090  141.3090 C   0  0  0  0  0  2  0  0  0  0  0  0
  185.4540  178.5970  140.5360 C   0  0  0  0  0  3  0  0  0  0  0  0
  188.2810  177.7050  142.6190 C   0  0  0  0  0  0  0  0  0  0  0  0
  183.5850  179.0890  143.7040 C   0  0  0  0  0  3  0  0  0  0  0  0
  187.9200  177.8720  140.2500 C   0  0  1  0  0  3  0  0  0  0  0  0
  185.0450  178.6200  145.5830 C   0  0  0  0  0  0  0  0  0  0  0  0
  183.7940  178.9990  145.0840 C   0  0  0  0  0  3  0  0  0  0  0  0
  185.3000  178.5090  147.3100 Cl  0  0  0  0  0  0  0  0  0  0  0  0
  184.4140  178.8870  141.4310 C   0  0  0  0  0  3  0  0  0  0  0  0
  186.9150  178.1310  142.4010 C   0  0  0  0  0  0  0  0  0  0  0  0
  188.8090  177.5140  143.7870 N   0  0  0  0  0  0  0  0  0  0  0  0
  186.7010  178.2250  141.0460 C   0  0  0  0  0  0  0  0  0  0  0  0
  185.8950  178.4140  143.3220 C   0  0  0  0  0  0  0  0  0  0  0  0
  186.0920  178.3270  144.7050 C   0  0  0  0  0  3  0  0  0  0  0  0
  188.3740  179.0290  139.4940 N   0  0  0  0  0  2  0  0  0  0  0  0
  186.5320  178.7860  137.4190 O   0  0  0  0  0  0  0  0  0  0  0  0
  188.7130  178.5730  138.2130 N   0  0  0  0  0  2  0  0  0  0  0  0
  187.7300  178.4670  137.1860 C   0  0  0  0  0  0  0  0  0  0  0  0
  188.1130  177.9940  135.8960 N   0  0  0  0  0  2  0  0  0  0  0  0
  187.1570  177.8660  134.8060 C   0  0  0  0  0  2  0  0  0  0  0  0
  187.8860  175.5650  135.0710 N   0  0  0  0  0  1  0  0  0  0  0  0
  186.8020  176.4040  134.5940 C   0  0  1  0  0  3  0  0  0  0  0  0
  184.3650  176.7340  135.0000 O   0  0  0  0  0  0  0  0  0  0  0  0
  185.5340  176.0510  135.3040 C   0  0  0  0  0  0  0  0  0  0  0  0
  185.5210  175.1480  136.1820 O   0  0  0  0  0  1  0  0  0  0  0  0
  190.1860  177.0810  143.9720 C   0  0  0  0  0  2  0  0  0  0  0  0
  189.7390  177.2920  146.4750 C   0  0  0  0  0  2  0  0  0  0  0  0
  191.5590  176.0260  147.6570 C   0  0  0  0  0  2  0  0  0  0  0  0
  190.5030  177.1280  147.7820 C   0  0  0  0  0  2  0  0  0  0  0  0
  192.0580  177.1160  145.5510 O   0  0  0  0  0  0  0  0  0  0  0  0
  190.7250  177.5540  145.3200 C   0  0  1  0  0  3  0  0  0  0  0  0
  192.0420  175.8700  146.2110 C   0  0  0  0  0  2  0  0  0  0  0  0
  1 14  1  0  0  0  0
  1  5  1  0  0  0  0
  2  4  1  0  0  0  0
  3 13  2  0  0  0  0
  3 10  1  0  0  0  0
  4 12  2  0  0  0  0
  5  8  2  0  0  0  0
  6 16  1  1  0  0  0
  6 13  1  0  0  0  0
  6  2  1  0  0  0  0
  7  9  1  0  0  0  0
  8  7  1  0  0  0  0
 10  1  2  0  0  0  0
 11  4  1  0  0  0  0
 11 14  2  0  0  0  0
 12 27  1  0  0  0  0
 13 11  1  0  0  0  0
 14 15  1  0  0  0  0
 15  7  2  0  0  0  0
 18 16  1  0  0  0  0
 19 17  2  0  0  0  0
 19 18  1  0  0  0  0
 20 19  1  0  0  0  0
 21 20  1  0  0  0  0
 23 21  1  0  0  0  0
 23 22  1  1  0  0  0
 23 25  1  0  0  0  0
 24 25  2  0  0  0  0
 25 26  1  0  0  0  0
 28 30  1  0  0  0  0
 29 30  1  0  0  0  0
 31 33  1  0  0  0  0
 32 27  1  6  0  0  0
 32 31  1  0  0  0  0
 32 28  1  0  0  0  0
 33 29  1  0  0  0  0
M  END
>  <MODEL>
8

>  <REMARK>
 VINA RESULT:      -8.7      2.685      4.841
  Name = 
  7 active torsions:
  status: ('A' for Active; 'I' for Inactive)
    1  A    between atoms: C_10  and  N_24
    2  A    between atoms: C_11  and  CA_30
    3  A    between atoms: N_20  and  N_24
    4  A    between atoms: N_21  and  C_25
    5  A    between atoms: C_23  and  C_25
    6  A    between atoms: CA_30  and  C_32
    7  A    between atoms: N_31  and  C_32
                            x       y       z     vdW  Elec       q    Type
                         _______ _______ _______ _____ _____    ______ ____

>  <TORSDO>
F 7

$$$$
=
 OpenBabel11042409503D

 33 36  0  0  1  0  0  0  0  0999 V2000
  184.6990  178.8220  142.6200 C   0  0  0  0  0  0  0  0  0  0  0  0
  189.0780  177.4630  141.2530 C   0  0  0  0  0  2  0  0  0  0  0  0
  185.6040  178.6250  140.3680 C   0  0  0  0  0  3  0  0  0  0  0  0
  188.3380  177.6600  142.5400 C   0  0  0  0  0  0  0  0  0  0  0  0
  183.6330  179.1230  143.4720 C   0  0  0  0  0  3  0  0  0  0  0  0
  188.0640  177.8560  140.1610 C   0  0  1  0  0  3  0  0  0  0  0  0
  185.0170  178.6090  145.3970 C   0  0  0  0  0  0  0  0  0  0  0  0
  183.7920  179.0170  144.8580 C   0  0  0  0  0  3  0  0  0  0  0  0
  185.2090  178.4780  147.1310 Cl  0  0  0  0  0  0  0  0  0  0  0  0
  184.5380  178.9260  141.2280 C   0  0  0  0  0  3  0  0  0  0  0  0
  186.9880  178.1140  142.2780 C   0  0  0  0  0  0  0  0  0  0  0  0
  188.8210  177.4490  143.7240 N   0  0  0  0  0  0  0  0  0  0  0  0
  186.8240  178.2250  140.9170 C   0  0  0  0  0  0  0  0  0  0  0  0
  185.9420  178.4080  143.1650 C   0  0  0  0  0  0  0  0  0  0  0  0
  186.0890  178.3040  144.5540 C   0  0  0  0  0  3  0  0  0  0  0  0
  188.5670  179.0110  139.4330 N   0  0  0  0  0  2  0  0  0  0  0  0
  190.4130  177.3480  138.1750 O   0  0  0  0  0  0  0  0  0  0  0  0
  188.5110  178.6910  138.0700 N   0  0  0  0  0  2  0  0  0  0  0  0
  189.4830  177.8350  137.4750 C   0  0  0  0  0  0  0  0  0  0  0  0
  189.3960  177.5370  136.0820 N   0  0  0  0  0  2  0  0  0  0  0  0
  190.3550  176.6680  135.4180 C   0  0  0  0  0  2  0  0  0  0  0  0
  190.6760  174.4060  134.5940 N   0  0  0  0  0  1  0  0  0  0  0  0
  189.6720  175.3890  134.9640 C   0  0  1  0  0  3  0  0  0  0  0  0
  189.3670  174.2780  137.1750 O   0  0  0  0  0  1  0  0  0  0  0  0
  188.7940  174.8370  136.0410 C   0  0  0  0  0  0  0  0  0  0  0  0
  187.5390  174.8660  135.9240 O   0  0  0  0  0  0  0  0  0  0  0  0
  190.1820  176.9880  143.9530 C   0  0  0  0  0  2  0  0  0  0  0  0
  189.7270  177.2500  146.4490 C   0  0  0  0  0  2  0  0  0  0  0  0
  191.5690  176.0480  147.6640 C   0  0  0  0  0  2  0  0  0  0  0  0
  190.4920  177.1320  147.7610 C   0  0  0  0  0  2  0  0  0  0  0  0
  192.0500  177.0970  145.5330 O   0  0  0  0  0  0  0  0  0  0  0  0
  190.7090  177.5030  145.2890 C   0  0  1  0  0  3  0  0  0  0  0  0
  192.0570  175.8660  146.2230 C   0  0  0  0  0  2  0  0  0  0  0  0
  1 14  1  0  0  0  0
  1  5  1  0  0  0  0
  2  4  1  0  0  0  0
  3 13  2  0  0  0  0
  3 10  1  0  0  0  0
  4 12  2  0  0  0  0
  5  8  2  0  0  0  0
  6 16  1  1  0  0  0
  6 13  1  0  0  0  0
  6  2  1  0  0  0  0
  7  9  1  0  0  0  0
  8  7  1  0  0  0  0
 10  1  2  0  0  0  0
 11  4  1  0  0  0  0
 11 14  2  0  0  0  0
 12 27  1  0  0  0  0
 13 11  1  0  0  0  0
 14 15  1  0  0  0  0
 15  7  2  0  0  0  0
 18 16  1  0  0  0  0
 19 18  1  0  0  0  0
 19 17  2  0  0  0  0
 20 19  1  0  0  0  0
 21 20  1  0  0  0  0
 23 22  1  1  0  0  0
 23 21  1  0  0  0  0
 23 25  1  0  0  0  0
 25 24  1  0  0  0  0
 26 25  2  0  0  0  0
 28 30  1  0  0  0  0
 29 30  1  0  0  0  0
 31 33  1  0  0  0  0
 32 27  1  6  0  0  0
 32 31  1  0  0  0  0
 32 28  1  0  0  0  0
 33 29  1  0  0  0  0
M  END
>  <MODEL>
9

>  <REMARK>
 VINA RESULT:      -8.6      3.047      5.362
  Name = 
  7 active torsions:
  status: ('A' for Active; 'I' for Inactive)
    1  A    between atoms: C_10  and  N_24
    2  A    between atoms: C_11  and  CA_30
    3  A    between atoms: N_20  and  N_24
    4  A    between atoms: N_21  and  C_25
    5  A    between atoms: C_23  and  C_25
    6  A    between atoms: CA_30  and  C_32
    7  A    between atoms: N_31  and  C_32
                            x       y       z     vdW  Elec       q    Type
                         _______ _______ _______ _____ _____    ______ ____

>  <TORSDO>
F 7

$$$$
