=
 OpenBabel11032419543D

 41 45  0  0  1  0  0  0  0  0999 V2000
  187.8610  178.5640  140.0210 C   0  0  1  0  0  3  0  0  0  0  0  0
  185.9440  177.9970  144.3810 C   0  0  0  0  0  3  0  0  0  0  0  0
  187.7530  177.6900  138.8080 C   0  0  0  0  0  3  0  0  0  0  0  0
  188.7450  176.8570  138.4840 C   0  0  0  0  0  3  0  0  0  0  0  0
  186.7870  178.3030  142.0580 C   0  0  0  0  0  0  0  0  0  0  0  0
  184.4850  178.7320  142.7160 N   0  0  0  0  0  0  0  0  0  0  0  0
  185.8220  178.3360  142.9730 C   0  0  2  0  0  3  0  0  0  0  0  0
  189.9390  176.6900  139.3460 C   0  0  0  0  0  0  0  0  0  0  0  0
  186.5810  178.6680  140.7000 N   0  0  0  0  0  0  0  0  0  0  0  0
  188.7900  177.9870  140.9960 N   0  0  0  0  0  0  0  0  0  0  0  0
  189.9390  177.2220  140.5900 C   0  0  0  0  0  0  0  0  0  0  0  0
  183.9140  178.6080  143.8710 C   0  0  0  0  0  0  0  0  0  0  0  0
  188.1830  177.8770  142.3140 C   0  0  0  0  0  2  0  0  0  0  0  0
  184.7830  178.1700  144.9190 N   0  0  0  0  0  0  0  0  0  0  0  0
  191.0540  177.0350  141.5550 C   0  0  0  0  0  0  0  0  0  0  0  0
  192.1480  177.6480  141.4150 O   0  0  0  0  0  0  0  0  0  0  0  0
  190.8850  176.1500  142.6200 O   0  0  0  0  0  0  0  0  0  0  0  0
  191.5940  176.2890  143.8420 C   0  0  0  0  0  2  0  0  0  0  0  0
  190.9430  177.3670  144.6870 C   0  0  0  0  0  2  0  0  0  0  0  0
  189.8210  176.8100  145.4250 N   0  0  0  0  0  0  0  0  0  0  0  0
  190.1460  176.9500  146.8510 C   0  0  0  0  0  2  0  0  0  0  0  0
  189.2500  177.9070  146.2170 C   0  0  0  0  0  2  0  0  0  0  0  0
  191.0470  175.9250  138.8630 N   0  0  0  0  0  2  0  0  0  0  0  0
  191.5110  176.0590  137.5460 N   0  0  0  0  0  2  0  0  0  0  0  0
  192.8070  176.4410  137.6250 O   0  0  0  0  0  0  0  0  0  0  0  0
  193.3810  175.9250  136.5130 N   0  0  0  0  0  2  0  0  0  0  0  0
  194.5890  173.3350  136.5530 C   0  0  0  0  0  1  0  0  0  0  0  0
  196.0050  175.6040  136.3720 O   0  0  0  0  0  0  0  0  0  0  0  0
  194.9110  175.1290  138.5180 O   0  0  0  0  0  0  0  0  0  0  0  0
  194.7750  175.0380  137.0240 S   0  0  0  0  0  0  0  0  0  0  0  0
  182.4880  178.9640  144.0990 C   0  0  0  0  0  2  0  0  0  0  0  0
  182.0020  179.7620  142.9880 N   0  0  0  0  0  2  0  0  0  0  0  0
  179.2660  180.9270  141.7240 C   0  0  0  0  0  2  0  0  0  0  0  0
  180.5030  179.1760  141.1250 C   0  0  2  0  0  3  0  0  0  0  0  0
  180.0630  180.4280  140.6810 O   0  0  0  0  0  0  0  0  0  0  0  0
  179.6530  180.2480  143.0270 C   0  0  0  0  0  2  0  0  0  0  0  0
  180.6910  179.2400  142.6340 C   0  0  2  0  0  3  0  0  0  0  0  0
  181.6930  178.6700  140.2940 C   0  0  1  0  0  3  0  0  0  0  0  0
  181.4190  177.4240  139.7240 O   0  0  0  0  0  1  0  0  0  0  0  0
  182.1090  179.6570  139.2120 C   0  0  0  0  0  2  0  0  0  0  0  0
  183.6170  179.6470  139.0340 C   0  0  0  0  0  1  0  0  0  0  0  0
  1  3  1  6  0  0  0
  1  9  1  0  0  0  0
  1 10  1  0  0  0  0
  2 14  2  0  0  0  0
  4  3  2  0  0  0  0
  4  8  1  0  0  0  0
  5 13  1  0  0  0  0
  6  7  1  0  0  0  0
  6 12  2  0  0  0  0
  7  5  1  1  0  0  0
  7  2  1  0  0  0  0
  8 11  2  0  0  0  0
  9  5  2  0  0  0  0
 10 13  1  0  0  0  0
 11 10  1  0  0  0  0
 11 15  1  0  0  0  0
 12 31  1  0  0  0  0
 12 14  1  0  0  0  0
 15 17  1  0  0  0  0
 16 15  2  0  0  0  0
 17 18  1  0  0  0  0
 18 19  1  0  0  0  0
 19 20  1  0  0  0  0
 20 22  1  0  0  0  0
 20 21  1  0  0  0  0
 22 21  1  0  0  0  0
 23  8  1  0  0  0  0
 24 25  1  0  0  0  0
 24 23  1  0  0  0  0
 26 30  1  0  0  0  0
 26 25  1  0  0  0  0
 27 30  1  0  0  0  0
 28 30  2  0  0  0  0
 30 29  2  0  0  0  0
 32 31  1  0  0  0  0
 33 36  1  0  0  0  0
 34 38  1  6  0  0  0
 34 37  1  0  0  0  0
 35 34  1  0  0  0  0
 35 33  1  0  0  0  0
 37 32  1  6  0  0  0
 37 36  1  0  0  0  0
 38 39  1  6  0  0  0
 40 38  1  0  0  0  0
 41 40  1  0  0  0  0
M  END
>  <MODEL>
1

>  <REMARK>
 VINA RESULT:      -7.1      0.000      0.000
  Name = 
  15 active torsions:
  status: ('A' for Active; 'I' for Inactive)
    1  A    between atoms: C_1  and  O_27
    2  A    between atoms: C_1  and  C_28
    3  A    between atoms: N_5  and  O_30
    4  A    between atoms: N_5  and  S_36
    5  A    between atoms: N_6  and  C_11
    6  A    between atoms: C_10  and  C_11
    7  A    between atoms: C_10  and  O_27
    8  A    between atoms: C_16  and  C_38
    9  A    between atoms: C_21  and  N_23
   10  A    between atoms: N_22  and  N_23
   11  A    between atoms: N_22  and  O_30
   12  A    between atoms: C_31  and  C_38
   13  A    between atoms: N_32  and  C_35
   14  A    between atoms: N_32  and  C_37
   15  A    between atoms: C_33  and  C_35
                            x       y       z     vdW  Elec       q    Type
                         _______ _______ _______ _____ _____    ______ ____

>  <TORSDO>
F 15

$$$$
=
 OpenBabel11032419543D

 41 45  0  0  1  0  0  0  0  0999 V2000
  185.5450  179.0880  142.8600 C   0  0  1  0  0  3  0  0  0  0  0  0
  189.5320  177.2130  140.9650 C   0  0  0  0  0  3  0  0  0  0  0  0
  184.3430  178.4000  143.4330 C   0  0  0  0  0  3  0  0  0  0  0  0
  183.2270  178.2740  142.7100 C   0  0  0  0  0  3  0  0  0  0  0  0
  187.5040  178.1180  142.0910 C   0  0  0  0  0  0  0  0  0  0  0  0
  189.3920  177.1630  143.2920 N   0  0  0  0  0  0  0  0  0  0  0  0
  188.7040  177.5430  142.1120 C   0  0  0  0  0  0  0  0  0  0  0  0
  183.1570  178.7170  141.2970 C   0  0  0  0  0  0  0  0  0  0  0  0
  186.7680  178.4200  143.2680 N   0  0  0  0  0  2  0  0  0  0  0  0
  185.5260  179.0350  141.3960 N   0  0  0  0  0  0  0  0  0  0  0  0
  184.2950  179.0590  140.6510 C   0  0  0  0  0  0  0  0  0  0  0  0
  190.4930  176.6550  142.8400 C   0  0  0  0  0  0  0  0  0  0  0  0
  186.7710  178.5040  140.8630 C   0  0  0  0  0  2  0  0  0  0  0  0
  190.6180  176.6780  141.4160 N   0  0  0  0  0  0  0  0  0  0  0  0
  184.3330  179.4340  139.2130 C   0  0  0  0  0  0  0  0  0  0  0  0
  184.1220  180.6210  138.8420 O   0  0  0  0  0  0  0  0  0  0  0  0
  184.5900  178.4440  138.2640 O   0  0  0  0  0  0  0  0  0  0  0  0
  183.5610  177.6310  137.7190 C   0  0  0  0  0  2  0  0  0  0  0  0
  184.0010  177.0890  136.3720 C   0  0  0  0  0  2  0  0  0  0  0  0
  185.4000  176.6990  136.4270 N   0  0  0  0  0  0  0  0  0  0  0  0
  185.4250  175.2840  136.8220 C   0  0  0  0  0  2  0  0  0  0  0  0
  185.5840  175.6450  135.4200 C   0  0  0  0  0  2  0  0  0  0  0  0
  181.8910  178.7250  140.6310 N   0  0  0  0  0  2  0  0  0  0  0  0
  180.9090  177.7640  140.9120 N   0  0  0  0  0  2  0  0  0  0  0  0
  180.6120  177.1550  139.7400 O   0  0  0  0  0  0  0  0  0  0  0  0
  181.1340  175.9120  139.8610 N   0  0  0  0  0  2  0  0  0  0  0  0
  181.6110  174.4340  137.4610 C   0  0  0  0  0  1  0  0  0  0  0  0
  179.7930  173.7020  139.2910 O   0  0  0  0  0  0  0  0  0  0  0  0
  179.3060  175.7070  137.9610 O   0  0  0  0  0  0  0  0  0  0  0  0
  180.3870  174.9260  138.6520 S   0  0  0  0  0  0  0  0  0  0  0  0
  191.5680  176.1530  143.7370 C   0  0  0  0  0  2  0  0  0  0  0  0
  191.5110  176.8580  145.0060 N   0  0  0  0  0  2  0  0  0  0  0  0
  192.6330  176.0040  147.9130 C   0  0  0  0  0  2  0  0  0  0  0  0
  190.5700  176.5250  147.2560 C   0  0  2  0  0  3  0  0  0  0  0  0
  191.6110  176.9510  148.0890 O   0  0  0  0  0  0  0  0  0  0  0  0
  192.4520  175.3070  146.5760 C   0  0  0  0  0  2  0  0  0  0  0  0
  191.1790  175.8720  146.0230 C   0  0  2  0  0  3  0  0  0  0  0  0
  189.5430  177.6430  147.0190 C   0  0  1  0  0  3  0  0  0  0  0  0
  188.4460  177.1770  146.2910 O   0  0  0  0  0  1  0  0  0  0  0  0
  189.0710  178.2840  148.3170 C   0  0  0  0  0  2  0  0  0  0  0  0
  187.5620  178.4450  148.3130 C   0  0  0  0  0  1  0  0  0  0  0  0
  1  9  1  0  0  0  0
  1  3  1  1  0  0  0
  2 14  2  0  0  0  0
  2  7  1  0  0  0  0
  4  3  2  0  0  0  0
  5  7  2  0  0  0  0
  5  9  1  0  0  0  0
  7  6  1  0  0  0  0
  8  4  1  0  0  0  0
 10  1  1  0  0  0  0
 11  8  2  0  0  0  0
 11 10  1  0  0  0  0
 12  6  2  0  0  0  0
 12 31  1  0  0  0  0
 13 10  1  0  0  0  0
 13  5  1  0  0  0  0
 14 12  1  0  0  0  0
 15 11  1  0  0  0  0
 16 15  2  0  0  0  0
 17 15  1  0  0  0  0
 18 17  1  0  0  0  0
 19 20  1  0  0  0  0
 19 18  1  0  0  0  0
 20 21  1  0  0  0  0
 22 20  1  0  0  0  0
 22 21  1  0  0  0  0
 23 24  1  0  0  0  0
 23  8  1  0  0  0  0
 25 26  1  0  0  0  0
 25 24  1  0  0  0  0
 27 30  1  0  0  0  0
 29 30  2  0  0  0  0
 30 28  2  0  0  0  0
 30 26  1  0  0  0  0
 31 32  1  0  0  0  0
 33 35  1  0  0  0  0
 34 38  1  6  0  0  0
 34 35  1  0  0  0  0
 36 33  1  0  0  0  0
 37 32  1  6  0  0  0
 37 36  1  0  0  0  0
 37 34  1  0  0  0  0
 38 39  1  1  0  0  0
 38 40  1  0  0  0  0
 41 40  1  0  0  0  0
M  END
>  <MODEL>
2

>  <REMARK>
 VINA RESULT:      -6.8      4.514     10.047
  Name = 
  15 active torsions:
  status: ('A' for Active; 'I' for Inactive)
    1  A    between atoms: C_1  and  O_27
    2  A    between atoms: C_1  and  C_28
    3  A    between atoms: N_5  and  O_30
    4  A    between atoms: N_5  and  S_36
    5  A    between atoms: N_6  and  C_11
    6  A    between atoms: C_10  and  C_11
    7  A    between atoms: C_10  and  O_27
    8  A    between atoms: C_16  and  C_38
    9  A    between atoms: C_21  and  N_23
   10  A    between atoms: N_22  and  N_23
   11  A    between atoms: N_22  and  O_30
   12  A    between atoms: C_31  and  C_38
   13  A    between atoms: N_32  and  C_35
   14  A    between atoms: N_32  and  C_37
   15  A    between atoms: C_33  and  C_35
                            x       y       z     vdW  Elec       q    Type
                         _______ _______ _______ _____ _____    ______ ____

>  <TORSDO>
F 15

$$$$
=
 OpenBabel11032419543D

 41 45  0  0  1  0  0  0  0  0999 V2000
  186.8820  178.5640  138.9560 C   0  0  1  0  0  3  0  0  0  0  0  0
  190.5280  176.5670  141.3470 C   0  0  0  0  0  3  0  0  0  0  0  0
  185.4220  178.2270  138.9830 C   0  0  0  0  0  3  0  0  0  0  0  0
  184.8790  177.4930  138.0090 C   0  0  0  0  0  3  0  0  0  0  0  0
  188.5730  177.6510  140.2500 C   0  0  0  0  0  0  0  0  0  0  0  0
  189.1680  178.0030  142.5830 N   0  0  0  0  0  0  0  0  0  0  0  0
  189.3540  177.4220  141.3030 C   0  0  2  0  0  3  0  0  0  0  0  0
  185.6990  176.9060  136.9220 C   0  0  0  0  0  0  0  0  0  0  0  0
  187.4490  178.5180  140.2920 N   0  0  0  0  0  0  0  0  0  0  0  0
  187.6280  177.5810  138.1670 N   0  0  0  0  0  0  0  0  0  0  0  0
  187.0480  176.9270  137.0240 C   0  0  0  0  0  0  0  0  0  0  0  0
  190.1400  177.5040  143.2770 C   0  0  0  0  0  0  0  0  0  0  0  0
  188.7520  177.0360  138.9140 C   0  0  0  0  0  2  0  0  0  0  0  0
  191.0010  176.6260  142.5470 N   0  0  0  0  0  0  0  0  0  0  0  0
  187.9490  176.2900  136.0270 C   0  0  0  0  0  0  0  0  0  0  0  0
  188.6680  176.9860  135.2590 O   0  0  0  0  0  0  0  0  0  0  0  0
  187.9780  174.8980  135.9360 O   0  0  0  0  0  0  0  0  0  0  0  0
  188.6280  174.0890  136.9050 C   0  0  0  0  0  2  0  0  0  0  0  0
  190.1020  173.9710  136.5620 C   0  0  0  0  0  2  0  0  0  0  0  0
  190.9090  174.4340  137.6780 N   0  0  0  0  0  0  0  0  0  0  0  0
  192.3120  174.2390  137.2890 C   0  0  0  0  0  2  0  0  0  0  0  0
  191.7100  175.5610  137.1810 C   0  0  0  0  0  2  0  0  0  0  0  0
  185.0450  176.2850  135.8120 N   0  0  0  0  0  2  0  0  0  0  0  0
  183.6530  176.1220  135.7800 N   0  0  0  0  0  2  0  0  0  0  0  0
  183.4190  174.8130  135.5250 O   0  0  0  0  0  0  0  0  0  0  0  0
  184.6490  174.2810  135.3290 N   0  0  0  0  0  2  0  0  0  0  0  0
  185.9740  171.7730  135.6840 C   0  0  0  0  0  1  0  0  0  0  0  0
  185.2130  173.3260  137.7330 O   0  0  0  0  0  0  0  0  0  0  0  0
  183.4420  172.2110  136.4490 O   0  0  0  0  0  0  0  0  0  0  0  0
  184.7750  172.8980  136.3600 S   0  0  0  0  0  0  0  0  0  0  0  0
  190.3770  177.8730  144.6970 C   0  0  0  0  0  2  0  0  0  0  0  0
  189.1490  178.3860  145.2790 N   0  0  0  0  0  2  0  0  0  0  0  0
  188.3840  177.8380  148.3700 C   0  0  0  0  0  2  0  0  0  0  0  0
  187.1560  177.6490  146.5220 C   0  0  2  0  0  3  0  0  0  0  0  0
  187.2580  178.3690  147.7180 O   0  0  0  0  0  0  0  0  0  0  0  0
  189.2980  177.1820  147.3490 C   0  0  0  0  0  2  0  0  0  0  0  0
  188.5610  177.3010  146.0500 C   0  0  2  0  0  3  0  0  0  0  0  0
  186.2350  178.3560  145.5150 C   0  0  1  0  0  3  0  0  0  0  0  0
  186.0800  177.5990  144.3520 O   0  0  0  0  0  1  0  0  0  0  0  0
  184.8720  178.6870  146.1070 C   0  0  0  0  0  2  0  0  0  0  0  0
  183.8490  178.8920  145.0040 C   0  0  0  0  0  1  0  0  0  0  0  0
  1  3  1  1  0  0  0
  1  9  1  0  0  0  0
  2 14  2  0  0  0  0
  4  3  2  0  0  0  0
  5  9  2  0  0  0  0
  6 12  2  0  0  0  0
  7  5  1  6  0  0  0
  7  2  1  0  0  0  0
  7  6  1  0  0  0  0
  8 11  2  0  0  0  0
  8  4  1  0  0  0  0
 10 13  1  0  0  0  0
 10  1  1  0  0  0  0
 11 10  1  0  0  0  0
 12 31  1  0  0  0  0
 13  5  1  0  0  0  0
 14 12  1  0  0  0  0
 15 11  1  0  0  0  0
 16 15  2  0  0  0  0
 17 15  1  0  0  0  0
 17 18  1  0  0  0  0
 19 18  1  0  0  0  0
 19 20  1  0  0  0  0
 21 20  1  0  0  0  0
 22 21  1  0  0  0  0
 22 20  1  0  0  0  0
 23  8  1  0  0  0  0
 24 23  1  0  0  0  0
 25 24  1  0  0  0  0
 26 25  1  0  0  0  0
 26 30  1  0  0  0  0
 27 30  1  0  0  0  0
 30 29  2  0  0  0  0
 30 28  2  0  0  0  0
 31 32  1  0  0  0  0
 34 38  1  6  0  0  0
 34 35  1  0  0  0  0
 35 33  1  0  0  0  0
 36 33  1  0  0  0  0
 37 32  1  6  0  0  0
 37 34  1  0  0  0  0
 37 36  1  0  0  0  0
 38 39  1  6  0  0  0
 38 40  1  0  0  0  0
 41 40  1  0  0  0  0
M  END
>  <MODEL>
3

>  <REMARK>
 VINA RESULT:      -6.8      4.041      7.593
  Name = 
  15 active torsions:
  status: ('A' for Active; 'I' for Inactive)
    1  A    between atoms: C_1  and  O_27
    2  A    between atoms: C_1  and  C_28
    3  A    between atoms: N_5  and  O_30
    4  A    between atoms: N_5  and  S_36
    5  A    between atoms: N_6  and  C_11
    6  A    between atoms: C_10  and  C_11
    7  A    between atoms: C_10  and  O_27
    8  A    between atoms: C_16  and  C_38
    9  A    between atoms: C_21  and  N_23
   10  A    between atoms: N_22  and  N_23
   11  A    between atoms: N_22  and  O_30
   12  A    between atoms: C_31  and  C_38
   13  A    between atoms: N_32  and  C_35
   14  A    between atoms: N_32  and  C_37
   15  A    between atoms: C_33  and  C_35
                            x       y       z     vdW  Elec       q    Type
                         _______ _______ _______ _____ _____    ______ ____

>  <TORSDO>
F 15

$$$$
=
 OpenBabel11032419543D

 41 45  0  0  1  0  0  0  0  0999 V2000
  186.0240  178.8670  139.4860 C   0  0  1  0  0  3  0  0  0  0  0  0
  190.2300  177.0340  140.8800 C   0  0  0  0  0  3  0  0  0  0  0  0
  184.6380  178.3260  139.6670 C   0  0  0  0  0  3  0  0  0  0  0  0
  184.0200  177.6970  138.6640 C   0  0  0  0  0  3  0  0  0  0  0  0
  188.0060  177.9990  140.3140 C   0  0  0  0  0  0  0  0  0  0  0  0
  188.9520  178.0330  142.5550 N   0  0  0  0  0  0  0  0  0  0  0  0
  188.9780  177.7080  141.1750 C   0  0  2  0  0  3  0  0  0  0  0  0
  184.7010  177.4240  137.3750 C   0  0  0  0  0  0  0  0  0  0  0  0
  186.8160  178.6770  140.6880 N   0  0  0  0  0  0  0  0  0  0  0  0
  186.7280  178.1470  138.4210 N   0  0  0  0  0  0  0  0  0  0  0  0
  186.0360  177.6190  137.2750 C   0  0  0  0  0  0  0  0  0  0  0  0
  190.0790  177.5680  142.9880 C   0  0  0  0  0  0  0  0  0  0  0  0
  188.0180  177.6490  138.8740 C   0  0  0  0  0  2  0  0  0  0  0  0
  190.8950  176.9570  141.9850 N   0  0  0  0  0  0  0  0  0  0  0  0
  186.8160  177.2940  136.0530 C   0  0  0  0  0  0  0  0  0  0  0  0
  187.1530  178.1930  135.2350 O   0  0  0  0  0  0  0  0  0  0  0  0
  187.1610  175.9640  135.8060 O   0  0  0  0  0  0  0  0  0  0  0  0
  187.1170  174.9690  136.8180 C   0  0  0  0  0  2  0  0  0  0  0  0
  188.3160  174.0490  136.6780 C   0  0  0  0  0  2  0  0  0  0  0  0
  189.4840  174.8140  136.2760 N   0  0  0  0  0  0  0  0  0  0  0  0
  190.2980  175.0010  137.4850 C   0  0  0  0  0  2  0  0  0  0  0  0
  190.6540  173.9610  136.5300 C   0  0  0  0  0  2  0  0  0  0  0  0
  183.9390  176.9130  136.2780 N   0  0  0  0  0  2  0  0  0  0  0  0
  183.6080  175.5530  136.1870 N   0  0  0  0  0  2  0  0  0  0  0  0
  182.2700  175.4630  136.3790 O   0  0  0  0  0  0  0  0  0  0  0  0
  182.1340  174.6240  137.4330 N   0  0  0  0  0  2  0  0  0  0  0  0
  180.2880  176.7870  137.7280 C   0  0  0  0  0  1  0  0  0  0  0  0
  179.7600  174.2920  138.5550 O   0  0  0  0  0  0  0  0  0  0  0  0
  181.4470  175.5590  139.8100 O   0  0  0  0  0  0  0  0  0  0  0  0
  180.8910  175.2750  138.4430 S   0  0  0  0  0  0  0  0  0  0  0  0
  190.5160  177.7220  144.4010 C   0  0  0  0  0  2  0  0  0  0  0  0
  189.4360  178.2980  145.1850 N   0  0  0  0  0  2  0  0  0  0  0  0
  188.6480  177.6950  148.2600 C   0  0  0  0  0  2  0  0  0  0  0  0
  187.4250  177.5680  146.4030 C   0  0  2  0  0  3  0  0  0  0  0  0
  187.5350  178.2600  147.6150 O   0  0  0  0  0  0  0  0  0  0  0  0
  189.5550  177.0460  147.2280 C   0  0  0  0  0  2  0  0  0  0  0  0
  188.8260  177.2060  145.9290 C   0  0  2  0  0  3  0  0  0  0  0  0
  186.5220  178.3140  145.4080 C   0  0  1  0  0  3  0  0  0  0  0  0
  186.0910  177.4680  144.3840 O   0  0  0  0  0  1  0  0  0  0  0  0
  185.3230  178.9640  146.0860 C   0  0  0  0  0  2  0  0  0  0  0  0
  184.0930  178.8600  145.2030 C   0  0  0  0  0  1  0  0  0  0  0  0
  1  3  1  1  0  0  0
  1  9  1  0  0  0  0
  2  7  1  0  0  0  0
  2 14  2  0  0  0  0
  4  3  2  0  0  0  0
  5  9  2  0  0  0  0
  6 12  2  0  0  0  0
  7  5  1  6  0  0  0
  7  6  1  0  0  0  0
  8  4  1  0  0  0  0
 10 13  1  0  0  0  0
 10  1  1  0  0  0  0
 11  8  2  0  0  0  0
 11 10  1  0  0  0  0
 12 31  1  0  0  0  0
 13  5  1  0  0  0  0
 14 12  1  0  0  0  0
 15 11  1  0  0  0  0
 16 15  2  0  0  0  0
 17 15  1  0  0  0  0
 17 18  1  0  0  0  0
 19 18  1  0  0  0  0
 20 22  1  0  0  0  0
 20 19  1  0  0  0  0
 20 21  1  0  0  0  0
 22 21  1  0  0  0  0
 23  8  1  0  0  0  0
 24 23  1  0  0  0  0
 24 25  1  0  0  0  0
 25 26  1  0  0  0  0
 26 30  1  0  0  0  0
 27 30  1  0  0  0  0
 30 28  2  0  0  0  0
 30 29  2  0  0  0  0
 31 32  1  0  0  0  0
 34 38  1  6  0  0  0
 34 35  1  0  0  0  0
 35 33  1  0  0  0  0
 36 33  1  0  0  0  0
 37 32  1  6  0  0  0
 37 34  1  0  0  0  0
 37 36  1  0  0  0  0
 38 39  1  6  0  0  0
 38 40  1  0  0  0  0
 41 40  1  0  0  0  0
M  END
>  <MODEL>
4

>  <REMARK>
 VINA RESULT:      -6.7      4.258      8.522
  Name = 
  15 active torsions:
  status: ('A' for Active; 'I' for Inactive)
    1  A    between atoms: C_1  and  O_27
    2  A    between atoms: C_1  and  C_28
    3  A    between atoms: N_5  and  O_30
    4  A    between atoms: N_5  and  S_36
    5  A    between atoms: N_6  and  C_11
    6  A    between atoms: C_10  and  C_11
    7  A    between atoms: C_10  and  O_27
    8  A    between atoms: C_16  and  C_38
    9  A    between atoms: C_21  and  N_23
   10  A    between atoms: N_22  and  N_23
   11  A    between atoms: N_22  and  O_30
   12  A    between atoms: C_31  and  C_38
   13  A    between atoms: N_32  and  C_35
   14  A    between atoms: N_32  and  C_37
   15  A    between atoms: C_33  and  C_35
                            x       y       z     vdW  Elec       q    Type
                         _______ _______ _______ _____ _____    ______ ____

>  <TORSDO>
F 15

$$$$
=
 OpenBabel11032419543D

 41 45  0  0  1  0  0  0  0  0999 V2000
  186.7620  177.6760  141.8960 C   0  0  1  0  0  3  0  0  0  0  0  0
  191.5220  177.2500  142.2910 C   0  0  0  0  0  3  0  0  0  0  0  0
  185.9280  178.8960  141.6480 C   0  0  0  0  0  3  0  0  0  0  0  0
  185.3010  179.5040  142.6580 C   0  0  0  0  0  3  0  0  0  0  0  0
  189.0730  177.5190  141.9310 C   0  0  0  0  0  0  0  0  0  0  0  0
  190.7020  177.5070  140.1230 N   0  0  0  0  0  0  0  0  0  0  0  0
  190.3260  177.4370  141.4880 C   0  0  2  0  0  3  0  0  0  0  0  0
  185.4740  179.0640  144.0640 C   0  0  0  0  0  0  0  0  0  0  0  0
  187.9560  177.6880  141.0700 N   0  0  0  0  0  0  0  0  0  0  0  0
  187.2310  177.6390  143.2830 N   0  0  0  0  0  0  0  0  0  0  0  0
  186.4450  178.1710  144.3650 C   0  0  0  0  0  0  0  0  0  0  0  0
  191.9890  177.3860  140.1650 C   0  0  0  0  0  0  0  0  0  0  0  0
  188.6740  177.4620  143.3560 C   0  0  0  0  0  2  0  0  0  0  0  0
  192.5270  177.2150  141.4790 N   0  0  0  0  0  0  0  0  0  0  0  0
  186.7480  177.7360  145.7530 C   0  0  0  0  0  0  0  0  0  0  0  0
  185.9200  177.0550  146.4190 O   0  0  0  0  0  0  0  0  0  0  0  0
  187.9640  178.1080  146.3280 O   0  0  0  0  0  0  0  0  0  0  0  0
  188.2980  177.7860  147.6700 C   0  0  0  0  0  2  0  0  0  0  0  0
  189.8020  177.6320  147.7960 C   0  0  0  0  0  2  0  0  0  0  0  0
  190.2480  176.4760  147.0370 N   0  0  0  0  0  0  0  0  0  0  0  0
  191.3230  176.9450  146.1520 C   0  0  0  0  0  2  0  0  0  0  0  0
  191.6570  176.2560  147.3910 C   0  0  0  0  0  2  0  0  0  0  0  0
  184.6430  179.6310  145.0800 N   0  0  0  0  0  2  0  0  0  0  0  0
  183.3580  179.1330  145.3380 N   0  0  0  0  0  2  0  0  0  0  0  0
  182.5680  179.5460  144.3190 O   0  0  0  0  0  0  0  0  0  0  0  0
  181.8470  178.4500  143.9840 N   0  0  0  0  0  2  0  0  0  0  0  0
  180.9970  178.5730  141.2570 C   0  0  0  0  0  1  0  0  0  0  0  0
  179.2920  178.2900  143.3060 O   0  0  0  0  0  0  0  0  0  0  0  0
  180.4040  180.4650  143.0610 O   0  0  0  0  0  0  0  0  0  0  0  0
  180.5760  178.9780  142.9360 S   0  0  0  0  0  0  0  0  0  0  0  0
  192.8290  177.3560  138.9380 C   0  0  0  0  0  2  0  0  0  0  0  0
  193.8010  176.2810  139.0400 N   0  0  0  0  0  2  0  0  0  0  0  0
  194.4740  176.2360  135.8800 C   0  0  0  0  0  2  0  0  0  0  0  0
  194.8450  174.7100  137.4580 C   0  0  2  0  0  3  0  0  0  0  0  0
  195.5000  175.5650  136.5660 O   0  0  0  0  0  0  0  0  0  0  0  0
  193.2060  176.2110  136.7170 C   0  0  0  0  0  2  0  0  0  0  0  0
  193.5610  175.3870  137.9170 C   0  0  2  0  0  3  0  0  0  0  0  0
  195.7960  174.2010  138.5530 C   0  0  1  0  0  3  0  0  0  0  0  0
  195.4370  172.9210  138.9810 O   0  0  0  0  0  1  0  0  0  0  0  0
  197.2520  174.2120  138.1090 C   0  0  0  0  0  2  0  0  0  0  0  0
  197.6200  172.8900  137.4590 C   0  0  0  0  0  1  0  0  0  0  0  0
  1  3  1  1  0  0  0
  1 10  1  0  0  0  0
  3  4  2  0  0  0  0
  4  8  1  0  0  0  0
  5 13  1  0  0  0  0
  6 12  2  0  0  0  0
  6  7  1  0  0  0  0
  7  5  1  6  0  0  0
  7  2  1  0  0  0  0
  8 11  2  0  0  0  0
  8 23  1  0  0  0  0
  9  1  1  0  0  0  0
  9  5  2  0  0  0  0
 10 13  1  0  0  0  0
 10 11  1  0  0  0  0
 11 15  1  0  0  0  0
 12 14  1  0  0  0  0
 14  2  2  0  0  0  0
 15 17  1  0  0  0  0
 15 16  2  0  0  0  0
 17 18  1  0  0  0  0
 18 19  1  0  0  0  0
 20 22  1  0  0  0  0
 20 19  1  0  0  0  0
 21 20  1  0  0  0  0
 21 22  1  0  0  0  0
 23 24  1  0  0  0  0
 25 24  1  0  0  0  0
 26 25  1  0  0  0  0
 27 30  1  0  0  0  0
 30 29  2  0  0  0  0
 30 28  2  0  0  0  0
 30 26  1  0  0  0  0
 31 32  1  0  0  0  0
 31 12  1  0  0  0  0
 33 35  1  0  0  0  0
 33 36  1  0  0  0  0
 34 37  1  0  0  0  0
 34 38  1  1  0  0  0
 35 34  1  0  0  0  0
 36 37  1  0  0  0  0
 37 32  1  1  0  0  0
 38 39  1  6  0  0  0
 40 38  1  0  0  0  0
 41 40  1  0  0  0  0
M  END
>  <MODEL>
5

>  <REMARK>
 VINA RESULT:      -6.5      3.473     10.761
  Name = 
  15 active torsions:
  status: ('A' for Active; 'I' for Inactive)
    1  A    between atoms: C_1  and  O_27
    2  A    between atoms: C_1  and  C_28
    3  A    between atoms: N_5  and  O_30
    4  A    between atoms: N_5  and  S_36
    5  A    between atoms: N_6  and  C_11
    6  A    between atoms: C_10  and  C_11
    7  A    between atoms: C_10  and  O_27
    8  A    between atoms: C_16  and  C_38
    9  A    between atoms: C_21  and  N_23
   10  A    between atoms: N_22  and  N_23
   11  A    between atoms: N_22  and  O_30
   12  A    between atoms: C_31  and  C_38
   13  A    between atoms: N_32  and  C_35
   14  A    between atoms: N_32  and  C_37
   15  A    between atoms: C_33  and  C_35
                            x       y       z     vdW  Elec       q    Type
                         _______ _______ _______ _____ _____    ______ ____

>  <TORSDO>
F 15

$$$$
=
 OpenBabel11032419543D

 41 45  0  0  1  0  0  0  0  0999 V2000
  184.2700  177.9490  144.2920 C   0  0  1  0  0  3  0  0  0  0  0  0
  184.1240  179.0620  139.6300 C   0  0  0  0  0  3  0  0  0  0  0  0
  184.4110  178.8450  145.4850 C   0  0  0  0  0  3  0  0  0  0  0  0
  185.5920  178.9840  146.0910 C   0  0  0  0  0  3  0  0  0  0  0  0
  184.0610  178.5680  142.0690 C   0  0  0  0  0  0  0  0  0  0  0  0
  182.1710  179.4760  140.8350 N   0  0  0  0  0  0  0  0  0  0  0  0
  183.5030  179.0020  140.9410 C   0  0  0  0  0  0  0  0  0  0  0  0
  186.8220  178.3440  145.5640 C   0  0  0  0  0  0  0  0  0  0  0  0
  183.3710  178.5300  143.3100 N   0  0  0  0  0  2  0  0  0  0  0  0
  185.5570  177.7820  143.6120 N   0  0  0  0  0  0  0  0  0  0  0  0
  186.8030  177.7840  144.3320 C   0  0  0  0  0  0  0  0  0  0  0  0
  182.0680  179.7850  139.5830 C   0  0  0  0  0  0  0  0  0  0  0  0
  185.4560  178.0850  142.1920 C   0  0  0  0  0  2  0  0  0  0  0  0
  183.2440  179.5340  138.8100 N   0  0  0  0  0  0  0  0  0  0  0  0
  188.0060  177.1950  143.6880 C   0  0  0  0  0  0  0  0  0  0  0  0
  188.4590  176.0760  144.0520 O   0  0  0  0  0  0  0  0  0  0  0  0
  188.6480  177.9110  142.6770 O   0  0  0  0  0  0  0  0  0  0  0  0
  190.0580  177.8870  142.5100 C   0  0  0  0  0  2  0  0  0  0  0  0
  190.4020  177.2380  141.1830 C   0  0  0  0  0  2  0  0  0  0  0  0
  189.2750  177.3440  140.2720 N   0  0  0  0  0  0  0  0  0  0  0  0
  189.7980  177.9130  139.0220 C   0  0  0  0  0  2  0  0  0  0  0  0
  189.5770  176.4770  139.1240 C   0  0  0  0  0  2  0  0  0  0  0  0
  188.0170  178.3770  146.3490 N   0  0  0  0  0  2  0  0  0  0  0  0
  187.9870  178.1820  147.7370 N   0  0  0  0  0  2  0  0  0  0  0  0
  189.2270  177.7780  148.1010 O   0  0  0  0  0  0  0  0  0  0  0  0
  189.5760  176.8660  147.1630 N   0  0  0  0  0  2  0  0  0  0  0  0
  191.8010  175.0750  147.2590 C   0  0  0  0  0  1  0  0  0  0  0  0
  191.8400  177.3780  145.8880 O   0  0  0  0  0  0  0  0  0  0  0  0
  191.8510  177.5270  148.3390 O   0  0  0  0  0  0  0  0  0  0  0  0
  191.3040  176.7780  147.1580 S   0  0  0  0  0  0  0  0  0  0  0  0
  180.8040  180.2930  138.9870 C   0  0  0  0  0  2  0  0  0  0  0  0
  180.9200  181.7200  138.7410 N   0  0  0  0  0  2  0  0  0  0  0  0
  179.1130  181.8350  136.0650 C   0  0  0  0  0  2  0  0  0  0  0  0
  180.6630  183.2420  136.8230 C   0  0  2  0  0  3  0  0  0  0  0  0
  179.2970  183.1460  136.5370 O   0  0  0  0  0  0  0  0  0  0  0  0
  180.2400  180.9520  136.5720 C   0  0  0  0  0  2  0  0  0  0  0  0
  181.1490  181.8850  137.3130 C   0  0  2  0  0  3  0  0  0  0  0  0
  180.9680  184.4570  137.7140 C   0  0  1  0  0  3  0  0  0  0  0  0
  182.2890  184.8830  137.5550 O   0  0  0  0  0  1  0  0  0  0  0  0
  180.0130  185.6160  137.4640 C   0  0  0  0  0  2  0  0  0  0  0  0
  179.4470  186.1310  138.7750 C   0  0  0  0  0  1  0  0  0  0  0  0
  1  3  1  1  0  0  0
  2  7  1  0  0  0  0
  3  4  2  0  0  0  0
  5 13  1  0  0  0  0
  5  9  1  0  0  0  0
  6  7  1  0  0  0  0
  7  5  2  0  0  0  0
  8  4  1  0  0  0  0
  8 23  1  0  0  0  0
  9  1  1  0  0  0  0
 10  1  1  0  0  0  0
 10 11  1  0  0  0  0
 11  8  2  0  0  0  0
 12  6  2  0  0  0  0
 13 10  1  0  0  0  0
 14 12  1  0  0  0  0
 14  2  2  0  0  0  0
 15 16  2  0  0  0  0
 15 11  1  0  0  0  0
 17 15  1  0  0  0  0
 18 17  1  0  0  0  0
 19 18  1  0  0  0  0
 20 19  1  0  0  0  0
 21 22  1  0  0  0  0
 21 20  1  0  0  0  0
 22 20  1  0  0  0  0
 23 24  1  0  0  0  0
 24 25  1  0  0  0  0
 26 25  1  0  0  0  0
 28 30  2  0  0  0  0
 30 26  1  0  0  0  0
 30 27  1  0  0  0  0
 30 29  2  0  0  0  0
 31 12  1  0  0  0  0
 32 31  1  0  0  0  0
 33 35  1  0  0  0  0
 33 36  1  0  0  0  0
 34 37  1  0  0  0  0
 34 38  1  1  0  0  0
 35 34  1  0  0  0  0
 36 37  1  0  0  0  0
 37 32  1  1  0  0  0
 38 39  1  6  0  0  0
 40 38  1  0  0  0  0
 40 41  1  0  0  0  0
M  END
>  <MODEL>
6

>  <REMARK>
 VINA RESULT:      -6.4      3.928      6.884
  Name = 
  15 active torsions:
  status: ('A' for Active; 'I' for Inactive)
    1  A    between atoms: C_1  and  O_27
    2  A    between atoms: C_1  and  C_28
    3  A    between atoms: N_5  and  O_30
    4  A    between atoms: N_5  and  S_36
    5  A    between atoms: N_6  and  C_11
    6  A    between atoms: C_10  and  C_11
    7  A    between atoms: C_10  and  O_27
    8  A    between atoms: C_16  and  C_38
    9  A    between atoms: C_21  and  N_23
   10  A    between atoms: N_22  and  N_23
   11  A    between atoms: N_22  and  O_30
   12  A    between atoms: C_31  and  C_38
   13  A    between atoms: N_32  and  C_35
   14  A    between atoms: N_32  and  C_37
   15  A    between atoms: C_33  and  C_35
                            x       y       z     vdW  Elec       q    Type
                         _______ _______ _______ _____ _____    ______ ____

>  <TORSDO>
F 15

$$$$
=
 OpenBabel11032419543D

 41 45  0  0  1  0  0  0  0  0999 V2000
  188.0100  176.4180  138.0360 C   0  0  1  0  0  3  0  0  0  0  0  0
  192.7390  176.7910  138.7350 C   0  0  0  0  0  3  0  0  0  0  0  0
  187.0930  177.2760  137.2170 C   0  0  0  0  0  3  0  0  0  0  0  0
  186.3320  178.2040  137.8020 C   0  0  0  0  0  3  0  0  0  0  0  0
  190.3140  176.5700  138.2140 C   0  0  0  0  0  0  0  0  0  0  0  0
  192.0820  175.9120  136.6770 N   0  0  0  0  0  0  0  0  0  0  0  0
  191.6020  176.4410  137.9020 C   0  0  2  0  0  3  0  0  0  0  0  0
  186.4260  178.4910  139.2530 C   0  0  0  0  0  0  0  0  0  0  0  0
  189.2630  176.1860  137.3400 N   0  0  0  0  0  0  0  0  0  0  0  0
  188.3620  177.0860  139.2910 N   0  0  0  0  0  0  0  0  0  0  0  0
  187.4450  177.9620  139.9700 C   0  0  0  0  0  0  0  0  0  0  0  0
  193.3670  175.9780  136.8120 C   0  0  0  0  0  0  0  0  0  0  0  0
  189.8040  177.1350  139.4850 C   0  0  0  0  0  2  0  0  0  0  0  0
  193.8070  176.5030  138.0680 N   0  0  0  0  0  0  0  0  0  0  0  0
  187.6680  178.2620  141.4090 C   0  0  0  0  0  0  0  0  0  0  0  0
  188.4640  179.1710  141.7700 O   0  0  0  0  0  0  0  0  0  0  0  0
  186.9940  177.5050  142.3680 O   0  0  0  0  0  0  0  0  0  0  0  0
  185.9890  178.0610  143.2030 C   0  0  0  0  0  2  0  0  0  0  0  0
  186.4400  177.9990  144.6500 C   0  0  0  0  0  2  0  0  0  0  0  0
  187.5510  177.0740  144.7850 N   0  0  0  0  0  0  0  0  0  0  0  0
  188.7230  177.8770  145.1590 C   0  0  0  0  0  2  0  0  0  0  0  0
  187.9930  177.1450  146.1850 C   0  0  0  0  0  2  0  0  0  0  0  0
  185.4660  179.3630  139.8550 N   0  0  0  0  0  2  0  0  0  0  0  0
  184.5560  180.0980  139.0810 N   0  0  0  0  0  2  0  0  0  0  0  0
  183.3220  179.8300  139.5690 O   0  0  0  0  0  0  0  0  0  0  0  0
  182.8200  178.8970  138.7250 N   0  0  0  0  0  2  0  0  0  0  0  0
  180.8480  176.8280  138.7020 C   0  0  0  0  0  1  0  0  0  0  0  0
  183.0430  176.7360  140.2380 O   0  0  0  0  0  0  0  0  0  0  0  0
  181.3180  178.3750  140.8390 O   0  0  0  0  0  0  0  0  0  0  0  0
  182.0290  177.7050  139.6980 S   0  0  0  0  0  0  0  0  0  0  0  0
  194.3060  175.4810  135.7710 C   0  0  0  0  0  2  0  0  0  0  0  0
  195.6740  175.7350  136.1880 N   0  0  0  0  0  2  0  0  0  0  0  0
  198.7240  174.8480  135.5960 C   0  0  0  0  0  2  0  0  0  0  0  0
  197.3250  174.2210  137.2100 C   0  0  2  0  0  3  0  0  0  0  0  0
  198.5330  174.8910  136.9870 O   0  0  0  0  0  0  0  0  0  0  0  0
  197.3850  174.6450  134.9070 C   0  0  0  0  0  2  0  0  0  0  0  0
  196.4030  174.4860  136.0280 C   0  0  2  0  0  3  0  0  0  0  0  0
  196.7670  174.5180  138.6110 C   0  0  1  0  0  3  0  0  0  0  0  0
  195.9790  173.4620  139.0770 O   0  0  0  0  0  1  0  0  0  0  0  0
  197.8630  174.8320  139.6190 C   0  0  0  0  0  2  0  0  0  0  0  0
  197.3010  175.6210  140.7880 C   0  0  0  0  0  1  0  0  0  0  0  0
  1  3  1  6  0  0  0
  1 10  1  0  0  0  0
  3  4  2  0  0  0  0
  4  8  1  0  0  0  0
  5 13  1  0  0  0  0
  6 12  2  0  0  0  0
  6  7  1  0  0  0  0
  7  5  1  1  0  0  0
  7  2  1  0  0  0  0
  8 23  1  0  0  0  0
  8 11  2  0  0  0  0
  9  1  1  0  0  0  0
  9  5  2  0  0  0  0
 10 13  1  0  0  0  0
 10 11  1  0  0  0  0
 11 15  1  0  0  0  0
 12 14  1  0  0  0  0
 14  2  2  0  0  0  0
 15 16  2  0  0  0  0
 15 17  1  0  0  0  0
 17 18  1  0  0  0  0
 18 19  1  0  0  0  0
 19 20  1  0  0  0  0
 20 21  1  0  0  0  0
 20 22  1  0  0  0  0
 21 22  1  0  0  0  0
 24 25  1  0  0  0  0
 24 23  1  0  0  0  0
 26 25  1  0  0  0  0
 26 30  1  0  0  0  0
 27 30  1  0  0  0  0
 30 28  2  0  0  0  0
 30 29  2  0  0  0  0
 31 32  1  0  0  0  0
 31 12  1  0  0  0  0
 33 35  1  0  0  0  0
 34 38  1  1  0  0  0
 35 34  1  0  0  0  0
 36 33  1  0  0  0  0
 36 37  1  0  0  0  0
 37 32  1  1  0  0  0
 37 34  1  0  0  0  0
 38 39  1  1  0  0  0
 38 40  1  0  0  0  0
 40 41  1  0  0  0  0
M  END
>  <MODEL>
7

>  <REMARK>
 VINA RESULT:      -6.3      3.449     11.228
  Name = 
  15 active torsions:
  status: ('A' for Active; 'I' for Inactive)
    1  A    between atoms: C_1  and  O_27
    2  A    between atoms: C_1  and  C_28
    3  A    between atoms: N_5  and  O_30
    4  A    between atoms: N_5  and  S_36
    5  A    between atoms: N_6  and  C_11
    6  A    between atoms: C_10  and  C_11
    7  A    between atoms: C_10  and  O_27
    8  A    between atoms: C_16  and  C_38
    9  A    between atoms: C_21  and  N_23
   10  A    between atoms: N_22  and  N_23
   11  A    between atoms: N_22  and  O_30
   12  A    between atoms: C_31  and  C_38
   13  A    between atoms: N_32  and  C_35
   14  A    between atoms: N_32  and  C_37
   15  A    between atoms: C_33  and  C_35
                            x       y       z     vdW  Elec       q    Type
                         _______ _______ _______ _____ _____    ______ ____

>  <TORSDO>
F 15

$$$$
=
 OpenBabel11032419543D

 41 45  0  0  1  0  0  0  0  0999 V2000
  185.0920  179.1430  140.9900 C   0  0  1  0  0  3  0  0  0  0  0  0
  189.5080  177.4310  140.2400 C   0  0  0  0  0  3  0  0  0  0  0  0
  183.9400  178.5280  141.7260 C   0  0  0  0  0  3  0  0  0  0  0  0
  182.9510  177.9300  141.0580 C   0  0  0  0  0  3  0  0  0  0  0  0
  187.2490  178.3210  140.7890 C   0  0  0  0  0  0  0  0  0  0  0  0
  189.0930  178.2710  142.3750 N   0  0  0  0  0  0  0  0  0  0  0  0
  188.5080  178.0280  141.1070 C   0  0  0  0  0  0  0  0  0  0  0  0
  182.9910  177.7650  139.5850 C   0  0  0  0  0  0  0  0  0  0  0  0
  186.3390  178.9210  141.7000 N   0  0  0  0  0  2  0  0  0  0  0  0
  185.2600  178.5190  139.6750 N   0  0  0  0  0  0  0  0  0  0  0  0
  184.1390  178.0270  138.9180 C   0  0  0  0  0  0  0  0  0  0  0  0
  190.3020  177.8340  142.2300 C   0  0  0  0  0  0  0  0  0  0  0  0
  186.6250  178.0570  139.4720 C   0  0  0  0  0  2  0  0  0  0  0  0
  190.5960  177.3210  140.9280 N   0  0  0  0  0  0  0  0  0  0  0  0
  184.2990  177.8100  137.4570 C   0  0  0  0  0  0  0  0  0  0  0  0
  183.3110  177.8770  136.6750 O   0  0  0  0  0  0  0  0  0  0  0  0
  185.5650  177.5090  136.9530 O   0  0  0  0  0  0  0  0  0  0  0  0
  185.7800  177.1830  135.5880 C   0  0  0  0  0  2  0  0  0  0  0  0
  187.2070  177.5270  135.2030 C   0  0  0  0  0  2  0  0  0  0  0  0
  188.1190  177.1060  136.2520 N   0  0  0  0  0  0  0  0  0  0  0  0
  189.4560  177.0430  135.6460 C   0  0  0  0  0  2  0  0  0  0  0  0
  189.0790  178.2030  136.4410 C   0  0  0  0  0  2  0  0  0  0  0  0
  181.8290  177.2820  138.9050 N   0  0  0  0  0  2  0  0  0  0  0  0
  180.5410  177.4830  139.4230 N   0  0  0  0  0  2  0  0  0  0  0  0
  180.2510  178.7940  139.2490 O   0  0  0  0  0  0  0  0  0  0  0  0
  180.1230  178.9390  137.9090 N   0  0  0  0  0  2  0  0  0  0  0  0
  180.7930  180.6970  135.7560 C   0  0  0  0  0  1  0  0  0  0  0  0
  179.6180  181.5360  138.0150 O   0  0  0  0  0  0  0  0  0  0  0  0
  181.9630  180.8220  138.1650 O   0  0  0  0  0  0  0  0  0  0  0  0
  180.6340  180.5450  137.5200 S   0  0  0  0  0  0  0  0  0  0  0  0
  191.3200  177.9260  143.3100 C   0  0  0  0  0  2  0  0  0  0  0  0
  190.6580  178.1500  144.5840 N   0  0  0  0  0  2  0  0  0  0  0  0
  191.3100  176.7290  147.4120 C   0  0  0  0  0  2  0  0  0  0  0  0
  189.3960  176.8950  146.2850 C   0  0  2  0  0  3  0  0  0  0  0  0
  190.0200  177.2830  147.4760 O   0  0  0  0  0  0  0  0  0  0  0  0
  191.6770  176.4700  145.9610 C   0  0  0  0  0  2  0  0  0  0  0  0
  190.4490  176.8420  145.1860 C   0  0  2  0  0  3  0  0  0  0  0  0
  188.1390  177.7360  146.0080 C   0  0  1  0  0  3  0  0  0  0  0  0
  187.4000  177.2060  144.9470 O   0  0  0  0  0  1  0  0  0  0  0  0
  187.2540  177.8800  147.2380 C   0  0  0  0  0  2  0  0  0  0  0  0
  186.0400  178.7350  146.9220 C   0  0  0  0  0  1  0  0  0  0  0  0
  1  9  1  0  0  0  0
  1  3  1  1  0  0  0
  2 14  2  0  0  0  0
  2  7  1  0  0  0  0
  4  3  2  0  0  0  0
  5  7  2  0  0  0  0
  5  9  1  0  0  0  0
  7  6  1  0  0  0  0
  8  4  1  0  0  0  0
 10  1  1  0  0  0  0
 11  8  2  0  0  0  0
 11 10  1  0  0  0  0
 12  6  2  0  0  0  0
 12 31  1  0  0  0  0
 13 10  1  0  0  0  0
 13  5  1  0  0  0  0
 14 12  1  0  0  0  0
 15 11  1  0  0  0  0
 16 15  2  0  0  0  0
 17 15  1  0  0  0  0
 18 17  1  0  0  0  0
 19 18  1  0  0  0  0
 19 20  1  0  0  0  0
 20 22  1  0  0  0  0
 21 20  1  0  0  0  0
 21 22  1  0  0  0  0
 23 24  1  0  0  0  0
 23  8  1  0  0  0  0
 25 24  1  0  0  0  0
 26 25  1  0  0  0  0
 27 30  1  0  0  0  0
 30 26  1  0  0  0  0
 30 28  2  0  0  0  0
 30 29  2  0  0  0  0
 31 32  1  0  0  0  0
 33 35  1  0  0  0  0
 34 38  1  6  0  0  0
 34 35  1  0  0  0  0
 36 33  1  0  0  0  0
 37 32  1  1  0  0  0
 37 36  1  0  0  0  0
 37 34  1  0  0  0  0
 38 39  1  6  0  0  0
 38 40  1  0  0  0  0
 41 40  1  0  0  0  0
M  END
>  <MODEL>
8

>  <REMARK>
 VINA RESULT:      -6.1      4.428      9.667
  Name = 
  15 active torsions:
  status: ('A' for Active; 'I' for Inactive)
    1  A    between atoms: C_1  and  O_27
    2  A    between atoms: C_1  and  C_28
    3  A    between atoms: N_5  and  O_30
    4  A    between atoms: N_5  and  S_36
    5  A    between atoms: N_6  and  C_11
    6  A    between atoms: C_10  and  C_11
    7  A    between atoms: C_10  and  O_27
    8  A    between atoms: C_16  and  C_38
    9  A    between atoms: C_21  and  N_23
   10  A    between atoms: N_22  and  N_23
   11  A    between atoms: N_22  and  O_30
   12  A    between atoms: C_31  and  C_38
   13  A    between atoms: N_32  and  C_35
   14  A    between atoms: N_32  and  C_37
   15  A    between atoms: C_33  and  C_35
                            x       y       z     vdW  Elec       q    Type
                         _______ _______ _______ _____ _____    ______ ____

>  <TORSDO>
F 15

$$$$
=
 OpenBabel11032419543D

 41 45  0  0  1  0  0  0  0  0999 V2000
  188.9820  178.4550  137.6070 C   0  0  1  0  0  3  0  0  0  0  0  0
  185.6320  178.6110  141.0340 C   0  0  0  0  0  3  0  0  0  0  0  0
  189.2680  177.3860  136.5960 C   0  0  0  0  0  3  0  0  0  0  0  0
  190.2720  176.5250  136.7860 C   0  0  0  0  0  3  0  0  0  0  0  0
  187.2510  178.5290  139.1440 C   0  0  0  0  0  0  0  0  0  0  0  0
  184.8860  179.0260  138.8640 N   0  0  0  0  0  0  0  0  0  0  0  0
  186.0280  178.7020  139.6390 C   0  0  2  0  0  3  0  0  0  0  0  0
  191.0780  176.5270  138.0310 C   0  0  0  0  0  0  0  0  0  0  0  0
  187.5520  178.6530  137.7610 N   0  0  0  0  0  0  0  0  0  0  0  0
  189.4820  178.0690  138.9280 N   0  0  0  0  0  0  0  0  0  0  0  0
  190.6650  177.2650  139.0880 C   0  0  0  0  0  0  0  0  0  0  0  0
  183.9410  179.0930  139.7450 C   0  0  0  0  0  0  0  0  0  0  0  0
  188.4460  178.1750  139.9450 C   0  0  0  0  0  2  0  0  0  0  0  0
  184.3640  178.8540  141.0900 N   0  0  0  0  0  0  0  0  0  0  0  0
  191.3600  177.2630  140.4020 C   0  0  0  0  0  0  0  0  0  0  0  0
  192.5260  177.7290  140.5240 O   0  0  0  0  0  0  0  0  0  0  0  0
  190.7100  176.7170  141.5090 O   0  0  0  0  0  0  0  0  0  0  0  0
  190.6410  177.3920  142.7560 C   0  0  0  0  0  2  0  0  0  0  0  0
  191.5750  176.7230  143.7480 C   0  0  0  0  0  2  0  0  0  0  0  0
  191.6160  177.4850  144.9840 N   0  0  0  0  0  0  0  0  0  0  0  0
  190.4100  177.1230  145.7400 C   0  0  0  0  0  2  0  0  0  0  0  0
  191.6860  176.5090  146.0800 C   0  0  0  0  0  2  0  0  0  0  0  0
  192.2490  175.7100  138.1050 N   0  0  0  0  0  2  0  0  0  0  0  0
  193.0380  175.4560  136.9740 N   0  0  0  0  0  2  0  0  0  0  0  0
  194.3180  175.7290  137.3210 O   0  0  0  0  0  0  0  0  0  0  0  0
  194.3880  175.4080  138.6350 N   0  0  0  0  0  2  0  0  0  0  0  0
  196.7250  174.3980  137.3350 C   0  0  0  0  0  1  0  0  0  0  0  0
  196.6230  174.9110  139.9640 O   0  0  0  0  0  0  0  0  0  0  0  0
  195.3330  172.9900  139.1420 O   0  0  0  0  0  0  0  0  0  0  0  0
  195.7740  174.3930  138.8370 S   0  0  0  0  0  0  0  0  0  0  0  0
  182.5440  179.4590  139.3920 C   0  0  0  0  0  2  0  0  0  0  0  0
  181.6450  178.3900  139.7910 N   0  0  0  0  0  2  0  0  0  0  0  0
  181.9530  178.1210  136.5860 C   0  0  0  0  0  2  0  0  0  0  0  0
  181.0140  176.7500  138.0670 C   0  0  2  0  0  3  0  0  0  0  0  0
  182.0710  176.8430  137.1560 O   0  0  0  0  0  0  0  0  0  0  0  0
  181.1720  179.0240  137.5260 C   0  0  0  0  0  2  0  0  0  0  0  0
  180.7680  178.1300  138.6600 C   0  0  2  0  0  3  0  0  0  0  0  0
  181.2230  175.5920  139.0570 C   0  0  1  0  0  3  0  0  0  0  0  0
  182.4840  175.6580  139.6530 O   0  0  0  0  0  1  0  0  0  0  0  0
  180.1420  175.5400  140.1280 C   0  0  0  0  0  2  0  0  0  0  0  0
  179.3550  174.2460  140.0270 C   0  0  0  0  0  1  0  0  0  0  0  0
  1  3  1  6  0  0  0
  1  9  1  0  0  0  0
  1 10  1  0  0  0  0
  2 14  2  0  0  0  0
  3  4  2  0  0  0  0
  4  8  1  0  0  0  0
  5 13  1  0  0  0  0
  6  7  1  0  0  0  0
  6 12  2  0  0  0  0
  7  5  1  1  0  0  0
  7  2  1  0  0  0  0
  8 23  1  0  0  0  0
  8 11  2  0  0  0  0
  9  5  2  0  0  0  0
 10 11  1  0  0  0  0
 10 13  1  0  0  0  0
 11 15  1  0  0  0  0
 12 14  1  0  0  0  0
 15 16  2  0  0  0  0
 15 17  1  0  0  0  0
 17 18  1  0  0  0  0
 18 19  1  0  0  0  0
 19 20  1  0  0  0  0
 20 21  1  0  0  0  0
 20 22  1  0  0  0  0
 21 22  1  0  0  0  0
 24 25  1  0  0  0  0
 24 23  1  0  0  0  0
 25 26  1  0  0  0  0
 26 30  1  0  0  0  0
 27 30  1  0  0  0  0
 30 29  2  0  0  0  0
 30 28  2  0  0  0  0
 31 12  1  0  0  0  0
 31 32  1  0  0  0  0
 33 35  1  0  0  0  0
 33 36  1  0  0  0  0
 34 37  1  0  0  0  0
 34 38  1  1  0  0  0
 35 34  1  0  0  0  0
 36 37  1  0  0  0  0
 37 32  1  1  0  0  0
 38 39  1  1  0  0  0
 38 40  1  0  0  0  0
 41 40  1  0  0  0  0
M  END
>  <MODEL>
9

>  <REMARK>
 VINA RESULT:      -6.0      2.395      3.307
  Name = 
  15 active torsions:
  status: ('A' for Active; 'I' for Inactive)
    1  A    between atoms: C_1  and  O_27
    2  A    between atoms: C_1  and  C_28
    3  A    between atoms: N_5  and  O_30
    4  A    between atoms: N_5  and  S_36
    5  A    between atoms: N_6  and  C_11
    6  A    between atoms: C_10  and  C_11
    7  A    between atoms: C_10  and  O_27
    8  A    between atoms: C_16  and  C_38
    9  A    between atoms: C_21  and  N_23
   10  A    between atoms: N_22  and  N_23
   11  A    between atoms: N_22  and  O_30
   12  A    between atoms: C_31  and  C_38
   13  A    between atoms: N_32  and  C_35
   14  A    between atoms: N_32  and  C_37
   15  A    between atoms: C_33  and  C_35
                            x       y       z     vdW  Elec       q    Type
                         _______ _______ _______ _____ _____    ______ ____

>  <TORSDO>
F 15

$$$$
