=
 OpenBabel11032419103D

 42 49  0  0  1  0  0  0  0  0999 V2000
  192.3590  175.4400  137.1530 O   0  0  0  0  0  1  0  0  0  0  0  0
  188.5100  178.2260  142.5830 C   0  0  2  0  0  3  0  0  0  0  0  0
  190.2550  177.9620  140.6090 C   0  0  2  0  0  3  0  0  0  0  0  0
  190.0060  176.0230  142.3620 C   0  0  0  0  0  2  0  0  0  0  0  0
  190.5020  176.2430  135.7360 C   0  0  0  0  0  0  0  0  0  0  0  0
  189.4830  177.3300  141.7740 C   0  0  1  0  0  0  0  0  0  0  0  0
  189.8190  177.8780  137.7810 C   0  0  0  0  0  0  0  0  0  0  0  0
  190.1700  178.1380  144.5120 C   0  0  0  0  0  2  0  0  0  0  0  0
  188.9790  177.1790  140.3590 C   0  0  1  0  0  3  0  0  0  0  0  0
  189.3170  177.0260  135.4820 C   0  0  0  0  0  3  0  0  0  0  0  0
  187.9720  178.2480  139.9410 C   0  0  2  0  0  3  0  0  0  0  0  0
  191.5960  177.0160  139.7800 S   0  0  0  0  0  0  0  0  0  0  0  0
  189.0360  177.8070  136.5610 C   0  0  0  0  0  0  0  0  0  0  0  0
  186.3750  179.6860  141.0220 O   0  0  0  0  0  1  0  0  0  0  0  0
  190.6220  176.7550  144.6280 N   0  0  0  0  0  0  0  0  0  0  0  0
  186.8290  178.3670  140.9590 C   0  0  2  0  0  3  0  0  0  0  0  0
  188.7010  178.1540  144.0990 C   0  0  0  0  0  2  0  0  0  0  0  0
  188.6500  178.6580  137.6320 C   0  0  1  0  0  3  0  0  0  0  0  0
  187.5520  178.1560  138.5230 N   0  0  0  0  0  0  0  0  0  0  0  0
  191.2710  176.2930  136.9970 C   0  0  0  0  0  0  0  0  0  0  0  0
  187.1640  177.9020  142.2630 O   0  0  0  0  0  0  0  0  0  0  0  0
  190.9420  177.1780  138.0870 C   0  0  0  0  0  0  0  0  0  0  0  0
  191.1410  176.3220  143.3340 C   0  0  0  0  0  2  0  0  0  0  0  0
  190.9430  175.3100  134.6620 C   0  0  0  0  0  1  0  0  0  0  0  0
  191.7540  176.7440  145.5420 C   0  0  0  0  0  2  0  0  0  0  0  0
  191.3230  176.3220  146.9110 C   0  0  0  0  0  0  0  0  0  0  0  0
  192.1670  175.6800  147.7150 C   0  0  0  0  0  2  0  0  0  0  0  0
  189.9860  176.7360  147.4220 C   0  0  0  0  0  1  0  0  0  0  0  0
  187.0500  176.8000  138.2170 C   0  0  0  0  0  2  0  0  0  0  0  0
  182.5760  177.4610  138.1510 C   0  0  0  0  0  0  0  0  0  0  0  0
  180.3560  176.6300  138.0480 N   0  0  0  0  0  2  0  0  0  0  0  0
  182.3610  177.0420  136.8020 N   0  0  0  0  0  0  0  0  0  0  0  0
  185.6300  176.4950  136.1530 C   0  0  0  0  0  2  0  0  0  0  0  0
  184.9630  178.1660  137.9060 C   0  0  0  0  0  2  0  0  0  0  0  0
  183.2570  177.1210  135.6550 C   0  0  0  0  0  2  0  0  0  0  0  0
  183.6980  177.9630  138.6740 C   0  0  0  0  0  3  0  0  0  0  0  0
  181.0210  176.5500  136.7850 C   0  0  0  0  0  0  0  0  0  0  0  0
  184.2690  175.9870  135.7000 C   0  0  0  0  0  2  0  0  0  0  0  0
  181.1680  177.4490  140.1130 O   0  0  0  0  0  0  0  0  0  0  0  0
  181.3470  177.2100  138.8890 C   0  0  0  0  0  0  0  0  0  0  0  0
  185.6370  176.8270  137.6410 C   0  0  2  0  0  3  0  0  0  0  0  0
  180.4710  176.0830  135.7530 O   0  0  0  0  0  0  0  0  0  0  0  0
  2 17  1  1  0  0  0
  3 12  1  6  0  0  0
  3  6  1  0  0  0  0
  4 23  1  0  0  0  0
  5 20  1  0  0  0  0
  6  4  1  1  0  0  0
  6  2  1  0  0  0  0
  7 22  1  0  0  0  0
  8 15  1  0  0  0  0
  9  3  1  0  0  0  0
  9  6  1  0  0  0  0
 10  5  2  0  0  0  0
 10 13  1  0  0  0  0
 11  9  1  0  0  0  0
 11 16  1  0  0  0  0
 13 18  1  0  0  0  0
 13  7  2  0  0  0  0
 15 25  1  0  0  0  0
 16 14  1  0  0  0  0
 16 21  1  0  0  0  0
 17  8  1  0  0  0  0
 18  7  1  0  0  0  0
 18 19  1  0  0  0  0
 19 11  1  0  0  0  0
 20  1  1  0  0  0  0
 20 22  2  0  0  0  0
 21  2  1  0  0  0  0
 22 12  1  0  0  0  0
 23 15  1  0  0  0  0
 24  5  1  0  0  0  0
 25 26  1  0  0  0  0
 26 28  1  0  0  0  0
 26 27  2  0  0  0  0
 29 19  1  0  0  0  0
 30 36  2  0  0  0  0
 30 40  1  0  0  0  0
 31 40  1  0  0  0  0
 32 30  1  0  0  0  0
 33 41  1  0  0  0  0
 34 36  1  0  0  0  0
 35 38  1  0  0  0  0
 35 32  1  0  0  0  0
 37 32  1  0  0  0  0
 37 31  1  0  0  0  0
 38 33  1  0  0  0  0
 40 39  2  0  0  0  0
 41 34  1  0  0  0  0
 41 29  1  0  0  0  0
 42 37  2  0  0  0  0
M  END
>  <MODEL>
1

>  <REMARK>
 VINA RESULT:      -8.7      0.000      0.000
  Name = 
  4 active torsions:
  status: ('A' for Active; 'I' for Inactive)
    1  A    between atoms: C_18  and  C_22
    2  A    between atoms: N_21  and  C_22
    3  A    between atoms: C_29  and  N_34
    4  A    between atoms: C_29  and  C_39
                            x       y       z     vdW  Elec       q    Type
                         _______ _______ _______ _____ _____    ______ ____

>  <TORSDO>
F 4

$$$$
=
 OpenBabel11032419103D

 42 49  0  0  1  0  0  0  0  0999 V2000
  186.7940  177.9230  142.8400 O   0  0  0  0  0  1  0  0  0  0  0  0
  184.9130  177.3150  135.9010 C   0  0  2  0  0  3  0  0  0  0  0  0
  185.5630  178.3430  138.2530 C   0  0  2  0  0  3  0  0  0  0  0  0
  183.8630  176.3440  138.1570 C   0  0  0  0  0  2  0  0  0  0  0  0
  189.1060  177.7870  141.9820 C   0  0  0  0  0  0  0  0  0  0  0  0
  184.8850  177.2260  137.4480 C   0  0  1  0  0  0  0  0  0  0  0  0
  188.1090  178.4590  139.5570 C   0  0  0  0  0  0  0  0  0  0  0  0
  182.4270  177.8570  135.9740 C   0  0  0  0  0  2  0  0  0  0  0  0
  186.2890  177.0390  137.9730 C   0  0  1  0  0  3  0  0  0  0  0  0
  190.1000  177.8270  140.9360 C   0  0  0  0  0  3  0  0  0  0  0  0
  187.3810  177.4350  136.9820 C   0  0  2  0  0  3  0  0  0  0  0  0
  185.3470  178.4160  140.0770 S   0  0  0  0  0  0  0  0  0  0  0  0
  189.5150  178.1570  139.7520 C   0  0  0  0  0  0  0  0  0  0  0  0
  187.6230  177.5910  134.5940 O   0  0  0  0  0  1  0  0  0  0  0  0
  181.8150  176.9440  136.9350 N   0  0  0  0  0  0  0  0  0  0  0  0
  187.1700  176.7590  135.6190 C   0  0  2  0  0  3  0  0  0  0  0  0
  183.5470  177.1330  135.2350 C   0  0  0  0  0  2  0  0  0  0  0  0
  189.0070  178.4890  138.4670 C   0  0  1  0  0  3  0  0  0  0  0  0
  188.7540  177.3430  137.5310 N   0  0  0  0  0  0  0  0  0  0  0  0
  187.6690  178.0580  141.7670 C   0  0  0  0  0  0  0  0  0  0  0  0
  185.8250  176.3630  135.3710 O   0  0  0  0  0  0  0  0  0  0  0  0
  187.1220  178.4470  140.4900 C   0  0  0  0  0  0  0  0  0  0  0  0
  182.5200  177.0630  138.2070 C   0  0  0  0  0  2  0  0  0  0  0  0
  189.5720  177.4180  143.3470 C   0  0  0  0  0  1  0  0  0  0  0  0
  180.4590  177.4150  137.1780 C   0  0  0  0  0  2  0  0  0  0  0  0
  179.6200  176.3270  137.7680 C   0  0  0  0  0  0  0  0  0  0  0  0
  178.9470  176.5320  138.8970 C   0  0  0  0  0  2  0  0  0  0  0  0
  179.4360  175.0510  137.0200 C   0  0  0  0  0  1  0  0  0  0  0  0
  189.0000  175.9970  138.0870 C   0  0  0  0  0  2  0  0  0  0  0  0
  193.3010  175.7130  136.7150 C   0  0  0  0  0  0  0  0  0  0  0  0
  194.9220  175.5070  134.9950 N   0  0  0  0  0  2  0  0  0  0  0  0
  193.2490  174.3570  136.2680 N   0  0  0  0  0  0  0  0  0  0  0  0
  190.0470  173.8680  137.2250 C   0  0  0  0  0  2  0  0  0  0  0  0
  191.4590  175.5800  138.4010 C   0  0  0  0  0  2  0  0  0  0  0  0
  192.4290  173.2540  136.7520 C   0  0  0  0  0  2  0  0  0  0  0  0
  192.5390  176.2870  137.6500 C   0  0  0  0  0  3  0  0  0  0  0  0
  194.2330  174.2780  135.2370 C   0  0  0  0  0  0  0  0  0  0  0  0
  191.0240  173.3520  136.1780 C   0  0  0  0  0  2  0  0  0  0  0  0
  194.6460  177.6060  136.0510 O   0  0  0  0  0  0  0  0  0  0  0  0
  194.3260  176.3920  135.9370 C   0  0  0  0  0  0  0  0  0  0  0  0
  190.2540  175.3540  137.5000 C   0  0  2  0  0  3  0  0  0  0  0  0
  194.4750  173.2230  134.5940 O   0  0  0  0  0  0  0  0  0  0  0  0
  2 17  1  6  0  0  0
  2  6  1  0  0  0  0
  3 12  1  1  0  0  0
  4 23  1  0  0  0  0
  5 24  1  0  0  0  0
  6  9  1  0  0  0  0
  6  4  1  1  0  0  0
  6  3  1  0  0  0  0
  7 13  2  0  0  0  0
  7 22  1  0  0  0  0
  8 15  1  0  0  0  0
  9  3  1  0  0  0  0
 10  5  2  0  0  0  0
 11 19  1  0  0  0  0
 11  9  1  0  0  0  0
 12 22  1  0  0  0  0
 13 10  1  0  0  0  0
 14 16  1  0  0  0  0
 15 25  1  0  0  0  0
 15 23  1  0  0  0  0
 16 11  1  0  0  0  0
 17  8  1  0  0  0  0
 18  7  1  0  0  0  0
 18 13  1  0  0  0  0
 19 29  1  0  0  0  0
 19 18  1  0  0  0  0
 20  5  1  0  0  0  0
 20  1  1  0  0  0  0
 21 16  1  0  0  0  0
 21  2  1  0  0  0  0
 22 20  2  0  0  0  0
 25 26  1  0  0  0  0
 26 27  2  0  0  0  0
 28 26  1  0  0  0  0
 30 36  2  0  0  0  0
 31 37  1  0  0  0  0
 31 40  1  0  0  0  0
 32 30  1  0  0  0  0
 32 35  1  0  0  0  0
 33 41  1  0  0  0  0
 36 34  1  0  0  0  0
 37 32  1  0  0  0  0
 38 35  1  0  0  0  0
 38 33  1  0  0  0  0
 40 39  2  0  0  0  0
 40 30  1  0  0  0  0
 41 29  1  0  0  0  0
 41 34  1  0  0  0  0
 42 37  2  0  0  0  0
M  END
>  <MODEL>
2

>  <REMARK>
 VINA RESULT:      -6.7      2.916      9.292
  Name = 
  4 active torsions:
  status: ('A' for Active; 'I' for Inactive)
    1  A    between atoms: C_18  and  C_22
    2  A    between atoms: N_21  and  C_22
    3  A    between atoms: C_29  and  N_34
    4  A    between atoms: C_29  and  C_39
                            x       y       z     vdW  Elec       q    Type
                         _______ _______ _______ _____ _____    ______ ____

>  <TORSDO>
F 4

$$$$
=
 OpenBabel11032419103D

 42 49  0  0  1  0  0  0  0  0999 V2000
  187.7800  177.5420  142.7570 O   0  0  0  0  0  1  0  0  0  0  0  0
  184.1820  177.8440  136.5100 C   0  0  2  0  0  3  0  0  0  0  0  0
  185.4520  178.5560  138.7220 C   0  0  2  0  0  3  0  0  0  0  0  0
  183.6900  176.6120  138.8290 C   0  0  0  0  0  2  0  0  0  0  0  0
  189.7910  177.4810  141.3250 C   0  0  0  0  0  0  0  0  0  0  0  0
  184.5410  177.5610  137.9910 C   0  0  1  0  0  0  0  0  0  0  0  0
  188.2470  178.4680  139.3340 C   0  0  0  0  0  0  0  0  0  0  0  0
  181.8220  178.4100  137.2810 C   0  0  0  0  0  2  0  0  0  0  0  0
  186.0210  177.2870  138.1130 C   0  0  1  0  0  3  0  0  0  0  0  0
  190.4900  177.6370  140.0720 C   0  0  0  0  0  3  0  0  0  0  0  0
  186.8450  177.7890  136.9290 C   0  0  2  0  0  3  0  0  0  0  0  0
  185.7070  178.4020  140.5350 S   0  0  0  0  0  0  0  0  0  0  0  0
  189.6410  178.1220  139.1250 C   0  0  0  0  0  0  0  0  0  0  0  0
  186.4840  178.2410  134.5940 O   0  0  0  0  0  1  0  0  0  0  0  0
  181.4310  177.3930  138.2530 N   0  0  0  0  0  0  0  0  0  0  0  0
  186.2660  177.2930  135.5950 C   0  0  2  0  0  3  0  0  0  0  0  0
  182.6850  177.7670  136.2000 C   0  0  0  0  0  2  0  0  0  0  0  0
  188.8410  178.6210  138.0610 C   0  0  1  0  0  3  0  0  0  0  0  0
  188.3060  177.6070  137.0940 N   0  0  0  0  0  0  0  0  0  0  0  0
  188.3610  177.7980  141.5190 C   0  0  0  0  0  0  0  0  0  0  0  0
  184.8840  176.9520  135.6560 O   0  0  0  0  0  0  0  0  0  0  0  0
  187.5280  178.3530  140.4810 C   0  0  0  0  0  0  0  0  0  0  0  0
  182.4390  177.3390  139.3070 C   0  0  0  0  0  2  0  0  0  0  0  0
  190.5680  176.9350  142.4720 C   0  0  0  0  0  1  0  0  0  0  0  0
  180.2040  177.8490  138.8880 C   0  0  0  0  0  2  0  0  0  0  0  0
  179.6800  176.8130  139.8300 C   0  0  0  0  0  0  0  0  0  0  0  0
  179.4180  177.1240  141.0970 C   0  0  0  0  0  2  0  0  0  0  0  0
  179.3280  175.4600  139.3140 C   0  0  0  0  0  1  0  0  0  0  0  0
  188.6220  176.1980  137.4040 C   0  0  0  0  0  2  0  0  0  0  0  0
  192.9860  175.0100  137.4310 C   0  0  0  0  0  0  0  0  0  0  0  0
  195.2600  175.4500  136.9170 N   0  0  0  0  0  2  0  0  0  0  0  0
  193.1260  174.8370  136.0200 N   0  0  0  0  0  0  0  0  0  0  0  0
  189.8820  175.4900  135.3360 C   0  0  0  0  0  2  0  0  0  0  0  0
  190.5290  174.5700  137.5820 C   0  0  0  0  0  2  0  0  0  0  0  0
  192.1310  174.4280  135.0350 C   0  0  0  0  0  2  0  0  0  0  0  0
  191.8690  174.8980  138.1550 C   0  0  0  0  0  3  0  0  0  0  0  0
  194.5010  175.1120  135.7540 C   0  0  0  0  0  0  0  0  0  0  0  0
  191.2440  175.6050  134.6640 C   0  0  0  0  0  2  0  0  0  0  0  0
  194.5510  175.6140  139.1680 O   0  0  0  0  0  0  0  0  0  0  0  0
  194.2930  175.3740  137.9580 C   0  0  0  0  0  0  0  0  0  0  0  0
  189.9710  175.7710  136.8320 C   0  0  2  0  0  3  0  0  0  0  0  0
  195.0040  175.0650  134.6010 O   0  0  0  0  0  0  0  0  0  0  0  0
  2 17  1  1  0  0  0
  2  6  1  0  0  0  0
  3 12  1  1  0  0  0
  4 23  1  0  0  0  0
  5 20  1  0  0  0  0
  5 24  1  0  0  0  0
  6  9  1  0  0  0  0
  6  3  1  0  0  0  0
  6  4  1  1  0  0  0
  7 22  1  0  0  0  0
  8 15  1  0  0  0  0
  9  3  1  0  0  0  0
 10  5  2  0  0  0  0
 11 19  1  0  0  0  0
 11  9  1  0  0  0  0
 13  7  2  0  0  0  0
 13 10  1  0  0  0  0
 14 16  1  0  0  0  0
 15 25  1  0  0  0  0
 15 23  1  0  0  0  0
 16 21  1  0  0  0  0
 16 11  1  0  0  0  0
 17  8  1  0  0  0  0
 18 13  1  0  0  0  0
 18  7  1  0  0  0  0
 19 29  1  0  0  0  0
 19 18  1  0  0  0  0
 20  1  1  0  0  0  0
 21  2  1  0  0  0  0
 22 12  1  0  0  0  0
 22 20  2  0  0  0  0
 25 26  1  0  0  0  0
 26 27  2  0  0  0  0
 28 26  1  0  0  0  0
 30 40  1  0  0  0  0
 30 36  2  0  0  0  0
 31 40  1  0  0  0  0
 32 30  1  0  0  0  0
 33 41  1  0  0  0  0
 34 36  1  0  0  0  0
 35 32  1  0  0  0  0
 37 32  1  0  0  0  0
 37 31  1  0  0  0  0
 38 35  1  0  0  0  0
 38 33  1  0  0  0  0
 40 39  2  0  0  0  0
 41 29  1  0  0  0  0
 41 34  1  0  0  0  0
 42 37  2  0  0  0  0
M  END
>  <MODEL>
3

>  <REMARK>
 VINA RESULT:      -6.5      2.817      8.877
  Name = 
  4 active torsions:
  status: ('A' for Active; 'I' for Inactive)
    1  A    between atoms: C_18  and  C_22
    2  A    between atoms: N_21  and  C_22
    3  A    between atoms: C_29  and  N_34
    4  A    between atoms: C_29  and  C_39
                            x       y       z     vdW  Elec       q    Type
                         _______ _______ _______ _____ _____    ______ ____

>  <TORSDO>
F 4

$$$$
=
 OpenBabel11032419103D

 42 49  0  0  1  0  0  0  0  0999 V2000
  186.7940  177.9250  142.8420 O   0  0  0  0  0  1  0  0  0  0  0  0
  184.9240  177.3250  135.8990 C   0  0  2  0  0  3  0  0  0  0  0  0
  185.5610  178.3500  138.2560 C   0  0  2  0  0  3  0  0  0  0  0  0
  183.8840  176.3320  138.1500 C   0  0  0  0  0  2  0  0  0  0  0  0
  189.1070  177.8200  141.9840 C   0  0  0  0  0  0  0  0  0  0  0  0
  184.8960  177.2290  137.4460 C   0  0  1  0  0  0  0  0  0  0  0  0
  188.1040  178.4900  139.5620 C   0  0  0  0  0  0  0  0  0  0  0  0
  182.4310  177.8380  135.9720 C   0  0  0  0  0  2  0  0  0  0  0  0
  186.3010  177.0560  137.9700 C   0  0  1  0  0  3  0  0  0  0  0  0
  190.1010  177.8760  140.9400 C   0  0  0  0  0  3  0  0  0  0  0  0
  187.3890  177.4700  136.9820 C   0  0  2  0  0  3  0  0  0  0  0  0
  185.3430  178.4130  140.0800 S   0  0  0  0  0  0  0  0  0  0  0  0
  189.5140  178.2040  139.7560 C   0  0  0  0  0  0  0  0  0  0  0  0
  187.6310  177.6390  134.5940 O   0  0  0  0  0  1  0  0  0  0  0  0
  181.8290  176.9140  136.9300 N   0  0  0  0  0  0  0  0  0  0  0  0
  187.1880  176.7970  135.6150 C   0  0  2  0  0  3  0  0  0  0  0  0
  183.5610  177.1300  135.2310 C   0  0  0  0  0  2  0  0  0  0  0  0
  189.0020  178.5350  138.4720 C   0  0  1  0  0  3  0  0  0  0  0  0
  188.7630  177.3910  137.5320 N   0  0  0  0  0  0  0  0  0  0  0  0
  187.6680  178.0750  141.7700 C   0  0  0  0  0  0  0  0  0  0  0  0
  185.8470  176.3860  135.3650 O   0  0  0  0  0  0  0  0  0  0  0  0
  187.1170  178.4620  140.4950 C   0  0  0  0  0  0  0  0  0  0  0  0
  182.5320  177.0350  138.2030 C   0  0  0  0  0  2  0  0  0  0  0  0
  189.5770  177.4500  143.3480 C   0  0  0  0  0  1  0  0  0  0  0  0
  180.4680  177.3670  137.1730 C   0  0  0  0  0  2  0  0  0  0  0  0
  179.6420  176.2670  137.7590 C   0  0  0  0  0  0  0  0  0  0  0  0
  178.9670  176.4590  138.8890 C   0  0  0  0  0  2  0  0  0  0  0  0
  179.4720  174.9930  137.0050 C   0  0  0  0  0  1  0  0  0  0  0  0
  189.0250  176.0450  138.0820 C   0  0  0  0  0  2  0  0  0  0  0  0
  191.5280  173.3120  135.4900 C   0  0  0  0  0  0  0  0  0  0  0  0
  193.0210  171.4850  135.2350 N   0  0  0  0  0  2  0  0  0  0  0  0
  192.8040  173.7620  135.9480 N   0  0  0  0  0  0  0  0  0  0  0  0
  191.5450  176.1350  137.9960 C   0  0  0  0  0  2  0  0  0  0  0  0
  190.2410  175.4000  135.9790 C   0  0  0  0  0  2  0  0  0  0  0  0
  193.2000  175.0750  136.4420 C   0  0  0  0  0  2  0  0  0  0  0  0
  190.3830  173.9980  135.4810 C   0  0  0  0  0  3  0  0  0  0  0  0
  193.6670  172.6370  135.7810 C   0  0  0  0  0  0  0  0  0  0  0  0
  192.7740  175.2410  137.8920 C   0  0  0  0  0  2  0  0  0  0  0  0
  190.7610  171.2050  134.5940 O   0  0  0  0  0  0  0  0  0  0  0  0
  191.6810  171.9320  135.0540 C   0  0  0  0  0  0  0  0  0  0  0  0
  190.2920  175.4230  137.5000 C   0  0  2  0  0  3  0  0  0  0  0  0
  194.8880  172.6530  136.0870 O   0  0  0  0  0  0  0  0  0  0  0  0
  2 17  1  6  0  0  0
  2  6  1  0  0  0  0
  3 12  1  1  0  0  0
  4 23  1  0  0  0  0
  5 24  1  0  0  0  0
  6  9  1  0  0  0  0
  6  4  1  1  0  0  0
  6  3  1  0  0  0  0
  7 13  2  0  0  0  0
  7 22  1  0  0  0  0
  8 15  1  0  0  0  0
  9  3  1  0  0  0  0
 10  5  2  0  0  0  0
 11 19  1  0  0  0  0
 11  9  1  0  0  0  0
 12 22  1  0  0  0  0
 13 10  1  0  0  0  0
 14 16  1  0  0  0  0
 15 25  1  0  0  0  0
 15 23  1  0  0  0  0
 16 11  1  0  0  0  0
 17  8  1  0  0  0  0
 18  7  1  0  0  0  0
 18 13  1  0  0  0  0
 19 29  1  0  0  0  0
 19 18  1  0  0  0  0
 20  5  1  0  0  0  0
 20  1  1  0  0  0  0
 21 16  1  0  0  0  0
 21  2  1  0  0  0  0
 22 20  2  0  0  0  0
 25 26  1  0  0  0  0
 26 27  2  0  0  0  0
 28 26  1  0  0  0  0
 30 32  1  0  0  0  0
 31 37  1  0  0  0  0
 32 35  1  0  0  0  0
 34 41  1  0  0  0  0
 35 38  1  0  0  0  0
 36 30  2  0  0  0  0
 36 34  1  0  0  0  0
 37 32  1  0  0  0  0
 37 42  2  0  0  0  0
 38 33  1  0  0  0  0
 39 40  2  0  0  0  0
 40 31  1  0  0  0  0
 40 30  1  0  0  0  0
 41 33  1  0  0  0  0
 41 29  1  0  0  0  0
M  END
>  <MODEL>
4

>  <REMARK>
 VINA RESULT:      -5.9      2.995      9.176
  Name = 
  4 active torsions:
  status: ('A' for Active; 'I' for Inactive)
    1  A    between atoms: C_18  and  C_22
    2  A    between atoms: N_21  and  C_22
    3  A    between atoms: C_29  and  N_34
    4  A    between atoms: C_29  and  C_39
                            x       y       z     vdW  Elec       q    Type
                         _______ _______ _______ _____ _____    ______ ____

>  <TORSDO>
F 4

$$$$
=
 OpenBabel11032419103D

 42 49  0  0  1  0  0  0  0  0999 V2000
  179.0510  177.0840  141.8990 O   0  0  0  0  0  1  0  0  0  0  0  0
  184.4660  176.5030  137.1670 C   0  0  2  0  0  3  0  0  0  0  0  0
  182.2740  177.3380  138.3960 C   0  0  2  0  0  3  0  0  0  0  0  0
  182.6590  174.7600  138.0790 C   0  0  0  0  0  2  0  0  0  0  0  0
  180.6030  178.5510  143.1390 C   0  0  0  0  0  0  0  0  0  0  0  0
  183.2060  176.1820  138.0120 C   0  0  1  0  0  0  0  0  0  0  0  0
  181.9930  178.8140  140.8320 C   0  0  0  0  0  0  0  0  0  0  0  0
  183.3310  175.3580  135.1960 C   0  0  0  0  0  2  0  0  0  0  0  0
  183.3240  176.8320  139.3690 C   0  0  1  0  0  3  0  0  0  0  0  0
  181.7910  179.3600  143.2670 C   0  0  0  0  0  3  0  0  0  0  0  0
  184.3430  177.9680  139.4280 C   0  0  2  0  0  3  0  0  0  0  0  0
  180.6500  176.9810  139.1780 S   0  0  0  0  0  0  0  0  0  0  0  0
  182.4360  179.4290  142.0700 C   0  0  0  0  0  0  0  0  0  0  0  0
  186.3460  178.6020  138.2560 O   0  0  0  0  0  1  0  0  0  0  0  0
  182.7240  174.1300  135.7030 N   0  0  0  0  0  0  0  0  0  0  0  0
  185.7050  177.5260  138.8710 C   0  0  2  0  0  3  0  0  0  0  0  0
  184.6410  175.6130  135.9340 C   0  0  0  0  0  2  0  0  0  0  0  0
  183.1910  179.5630  140.8730 C   0  0  1  0  0  3  0  0  0  0  0  0
  184.3870  178.6690  140.7320 N   0  0  0  0  0  0  0  0  0  0  0  0
  180.1800  177.8960  141.8840 C   0  0  0  0  0  0  0  0  0  0  0  0
  185.6320  176.4210  137.9750 O   0  0  0  0  0  0  0  0  0  0  0  0
  180.8890  178.0480  140.6370 C   0  0  0  0  0  0  0  0  0  0  0  0
  181.8490  174.4670  136.8210 C   0  0  0  0  0  2  0  0  0  0  0  0
  179.7840  178.3490  144.3660 C   0  0  0  0  0  1  0  0  0  0  0  0
  181.8600  173.6100  134.6540 C   0  0  0  0  0  2  0  0  0  0  0  0
  181.5090  172.1810  134.9210 C   0  0  0  0  0  0  0  0  0  0  0  0
  182.4630  171.2890  135.1760 C   0  0  0  0  0  2  0  0  0  0  0  0
  180.0770  171.7820  135.0270 C   0  0  0  0  0  1  0  0  0  0  0  0
  184.5980  177.7050  141.8320 C   0  0  0  0  0  2  0  0  0  0  0  0
  189.0970  178.1610  141.9480 C   0  0  0  0  0  0  0  0  0  0  0  0
  191.2600  177.2980  142.4030 N   0  0  0  0  0  2  0  0  0  0  0  0
  189.2350  178.1380  143.3700 N   0  0  0  0  0  0  0  0  0  0  0  0
  185.9160  177.9440  143.9710 C   0  0  0  0  0  2  0  0  0  0  0  0
  186.7460  179.0100  141.8530 C   0  0  0  0  0  2  0  0  0  0  0  0
  188.3010  178.5820  144.3970 C   0  0  0  0  0  2  0  0  0  0  0  0
  188.0270  178.5400  141.2440 C   0  0  0  0  0  3  0  0  0  0  0  0
  190.5420  177.6130  143.5990 C   0  0  0  0  0  0  0  0  0  0  0  0
  187.2280  177.5290  144.6230 C   0  0  0  0  0  2  0  0  0  0  0  0
  190.5770  177.5240  140.1490 O   0  0  0  0  0  0  0  0  0  0  0  0
  190.3370  177.6550  141.3790 C   0  0  0  0  0  0  0  0  0  0  0  0
  185.9870  177.8340  142.4520 C   0  0  2  0  0  3  0  0  0  0  0  0
  191.0240  177.4390  144.7490 O   0  0  0  0  0  0  0  0  0  0  0  0
  2 17  1  6  0  0  0
  2 21  1  0  0  0  0
  2  6  1  0  0  0  0
  3 12  1  1  0  0  0
  3  9  1  0  0  0  0
  5 10  1  0  0  0  0
  5 24  1  0  0  0  0
  6  4  1  6  0  0  0
  6  3  1  0  0  0  0
  6  9  1  0  0  0  0
  7 18  1  0  0  0  0
  7 13  1  0  0  0  0
  8 15  1  0  0  0  0
  8 17  1  0  0  0  0
  9 11  1  0  0  0  0
 11 19  1  0  0  0  0
 12 22  1  0  0  0  0
 13 10  2  0  0  0  0
 14 16  1  0  0  0  0
 15 23  1  0  0  0  0
 16 11  1  0  0  0  0
 18 13  1  0  0  0  0
 19 18  1  0  0  0  0
 19 29  1  0  0  0  0
 20  1  1  0  0  0  0
 20  5  2  0  0  0  0
 21 16  1  0  0  0  0
 22  7  2  0  0  0  0
 22 20  1  0  0  0  0
 23  4  1  0  0  0  0
 25 26  1  0  0  0  0
 25 15  1  0  0  0  0
 26 28  1  0  0  0  0
 26 27  2  0  0  0  0
 29 41  1  0  0  0  0
 30 32  1  0  0  0  0
 31 37  1  0  0  0  0
 32 37  1  0  0  0  0
 32 35  1  0  0  0  0
 33 38  1  0  0  0  0
 34 41  1  0  0  0  0
 35 38  1  0  0  0  0
 36 34  1  0  0  0  0
 36 30  2  0  0  0  0
 37 42  2  0  0  0  0
 39 40  2  0  0  0  0
 40 30  1  0  0  0  0
 40 31  1  0  0  0  0
 41 33  1  0  0  0  0
M  END
>  <MODEL>
5

>  <REMARK>
 VINA RESULT:      -5.9      3.504     10.130
  Name = 
  4 active torsions:
  status: ('A' for Active; 'I' for Inactive)
    1  A    between atoms: C_18  and  C_22
    2  A    between atoms: N_21  and  C_22
    3  A    between atoms: C_29  and  N_34
    4  A    between atoms: C_29  and  C_39
                            x       y       z     vdW  Elec       q    Type
                         _______ _______ _______ _____ _____    ______ ____

>  <TORSDO>
F 4

$$$$
=
 OpenBabel11032419103D

 42 49  0  0  1  0  0  0  0  0999 V2000
  188.2850  177.7130  143.6250 O   0  0  0  0  0  1  0  0  0  0  0  0
  184.0640  178.4370  137.8180 C   0  0  2  0  0  3  0  0  0  0  0  0
  185.7090  178.9840  139.8200 C   0  0  2  0  0  3  0  0  0  0  0  0
  183.6410  177.4260  140.2540 C   0  0  0  0  0  2  0  0  0  0  0  0
  190.0560  177.1990  141.9830 C   0  0  0  0  0  0  0  0  0  0  0  0
  184.5440  178.1540  139.2640 C   0  0  1  0  0  0  0  0  0  0  0  0
  188.4920  178.3810  140.1180 C   0  0  0  0  0  0  0  0  0  0  0  0
  181.9670  179.4840  138.8110 C   0  0  0  0  0  2  0  0  0  0  0  0
  185.9500  177.6030  139.2360 C   0  0  1  0  0  3  0  0  0  0  0  0
  190.6120  177.1620  140.6520 C   0  0  0  0  0  3  0  0  0  0  0  0
  186.7010  177.8840  137.9370 C   0  0  2  0  0  3  0  0  0  0  0  0
  186.1520  178.8620  141.5990 S   0  0  0  0  0  0  0  0  0  0  0  0
  189.7590  177.7620  139.7760 C   0  0  0  0  0  0  0  0  0  0  0  0
  186.1460  178.2960  135.6330 O   0  0  0  0  0  1  0  0  0  0  0  0
  181.5140  178.6050  139.8860 N   0  0  0  0  0  0  0  0  0  0  0  0
  185.8790  177.4530  136.7120 C   0  0  2  0  0  3  0  0  0  0  0  0
  182.5540  178.6390  137.6840 C   0  0  0  0  0  2  0  0  0  0  0  0
  188.9420  178.3610  138.7790 C   0  0  1  0  0  3  0  0  0  0  0  0
  188.1110  177.4290  137.9470 N   0  0  0  0  0  0  0  0  0  0  0  0
  188.7460  177.7970  142.3160 C   0  0  0  0  0  0  0  0  0  0  0  0
  184.4760  177.3890  136.9510 O   0  0  0  0  0  0  0  0  0  0  0  0
  187.9110  178.4580  141.3440 C   0  0  0  0  0  0  0  0  0  0  0  0
  182.6160  178.4020  140.8200 C   0  0  0  0  0  2  0  0  0  0  0  0
  190.8530  176.5630  143.0690 C   0  0  0  0  0  1  0  0  0  0  0  0
  180.4830  179.3180  140.6240 C   0  0  0  0  0  2  0  0  0  0  0  0
  179.7100  178.3780  141.4930 C   0  0  0  0  0  0  0  0  0  0  0  0
  179.2460  177.2330  141.0000 C   0  0  0  0  0  2  0  0  0  0  0  0
  179.5690  178.6670  142.9480 C   0  0  0  0  0  1  0  0  0  0  0  0
  188.1920  176.0000  138.3130 C   0  0  0  0  0  2  0  0  0  0  0  0
  189.2960  172.8560  135.2540 C   0  0  0  0  0  0  0  0  0  0  0  0
  190.4400  170.8700  134.6380 N   0  0  0  0  0  2  0  0  0  0  0  0
  190.6790  173.1990  135.1460 N   0  0  0  0  0  0  0  0  0  0  0  0
  190.4820  175.8210  137.2680 C   0  0  0  0  0  2  0  0  0  0  0  0
  188.4510  175.0940  135.9820 C   0  0  0  0  0  2  0  0  0  0  0  0
  191.3270  174.4940  135.3180 C   0  0  0  0  0  2  0  0  0  0  0  0
  188.2880  173.6560  135.6120 C   0  0  0  0  0  3  0  0  0  0  0  0
  191.3270  171.9820  134.7780 C   0  0  0  0  0  0  0  0  0  0  0  0
  191.5080  174.7990  136.7960 C   0  0  0  0  0  2  0  0  0  0  0  0
  188.0940  170.7860  134.9340 O   0  0  0  0  0  0  0  0  0  0  0  0
  189.1700  171.4420  134.9350 C   0  0  0  0  0  0  0  0  0  0  0  0
  189.0870  175.2120  137.3600 C   0  0  2  0  0  3  0  0  0  0  0  0
  192.5690  171.8910  134.5940 O   0  0  0  0  0  0  0  0  0  0  0  0
  2 17  1  1  0  0  0
  2  6  1  0  0  0  0
  3 12  1  1  0  0  0
  4 23  1  0  0  0  0
  5 20  1  0  0  0  0
  5 24  1  0  0  0  0
  6  3  1  0  0  0  0
  6  4  1  1  0  0  0
  7 22  1  0  0  0  0
  8 15  1  0  0  0  0
  9  6  1  0  0  0  0
  9  3  1  0  0  0  0
 10  5  2  0  0  0  0
 11 19  1  0  0  0  0
 11  9  1  0  0  0  0
 13  7  2  0  0  0  0
 13 10  1  0  0  0  0
 14 16  1  0  0  0  0
 15 25  1  0  0  0  0
 15 23  1  0  0  0  0
 16 21  1  0  0  0  0
 16 11  1  0  0  0  0
 17  8  1  0  0  0  0
 18 13  1  0  0  0  0
 18  7  1  0  0  0  0
 19 29  1  0  0  0  0
 19 18  1  0  0  0  0
 20  1  1  0  0  0  0
 21  2  1  0  0  0  0
 22 12  1  0  0  0  0
 22 20  2  0  0  0  0
 25 26  1  0  0  0  0
 26 28  1  0  0  0  0
 27 26  2  0  0  0  0
 30 36  2  0  0  0  0
 31 37  1  0  0  0  0
 31 40  1  0  0  0  0
 32 30  1  0  0  0  0
 32 35  1  0  0  0  0
 33 41  1  0  0  0  0
 34 41  1  0  0  0  0
 35 38  1  0  0  0  0
 36 34  1  0  0  0  0
 37 32  1  0  0  0  0
 38 33  1  0  0  0  0
 39 40  2  0  0  0  0
 40 30  1  0  0  0  0
 41 29  1  0  0  0  0
 42 37  2  0  0  0  0
M  END
>  <MODEL>
6

>  <REMARK>
 VINA RESULT:      -5.8      3.211      8.002
  Name = 
  4 active torsions:
  status: ('A' for Active; 'I' for Inactive)
    1  A    between atoms: C_18  and  C_22
    2  A    between atoms: N_21  and  C_22
    3  A    between atoms: C_29  and  N_34
    4  A    between atoms: C_29  and  C_39
                            x       y       z     vdW  Elec       q    Type
                         _______ _______ _______ _____ _____    ______ ____

>  <TORSDO>
F 4

$$$$
