=
 OpenBabel11042412503D

 46 50  0  0  1  0  0  0  0  0999 V2000
  189.8710  177.1760  138.8520 C   0  0  0  0  0  0  0  0  0  0  0  0
  190.2740  177.0200  140.2960 C   0  0  0  0  0  2  0  0  0  0  0  0
  187.6920  178.2070  139.5120 C   0  0  0  0  0  2  0  0  0  0  0  0
  188.3080  178.4450  140.8850 C   0  0  2  0  0  3  0  0  0  0  0  0
  188.7270  177.7860  138.5070 C   0  0  0  0  0  3  0  0  0  0  0  0
  189.1120  177.2100  141.2730 C   0  0  0  0  0  2  0  0  0  0  0  0
  190.8060  176.7680  137.8460 N   0  0  0  0  0  2  0  0  0  0  0  0
  193.1780  176.5670  138.3090 C   0  0  0  0  0  2  0  0  0  0  0  0
  191.8810  175.8180  138.0900 C   0  0  2  0  0  3  0  0  0  0  0  0
  192.8960  175.9140  136.9710 C   0  0  2  0  0  3  0  0  0  0  0  0
  193.6210  174.6580  136.8840 N   0  0  0  0  0  2  0  0  0  0  0  0
  194.0090  174.4980  135.5440 N   0  0  0  0  0  0  0  0  0  0  0  0
  193.8400  175.7100  134.9560 O   0  0  0  0  0  1  0  0  0  0  0  0
  196.2550  175.4750  135.3780 C   0  0  0  0  0  2  0  0  0  0  0  0
  195.8860  173.6120  136.8610 C   0  0  0  0  0  2  0  0  0  0  0  0
  197.2820  174.1530  137.1410 C   0  0  1  0  0  0  0  0  0  0  0  0
  195.4420  174.2030  135.5320 C   0  0  1  0  0  3  0  0  0  0  0  0
  197.5740  175.1910  136.0610 C   0  0  0  0  0  2  0  0  0  0  0  0
  197.2970  174.7750  138.5130 C   0  0  0  0  0  0  0  0  0  0  0  0
  198.2930  175.4470  138.9000 O   0  0  0  0  0  0  0  0  0  0  0  0
  196.1740  174.6720  139.3330 O   0  0  0  0  0  0  0  0  0  0  0  0
  195.9200  175.5960  140.2700 O   0  0  0  0  0  1  0  0  0  0  0  0
  198.7120  172.7860  135.7500 O   0  0  0  0  0  1  0  0  0  0  0  0
  198.3170  173.0300  137.0690 C   0  0  0  0  0  2  0  0  0  0  0  0
  187.2010  178.6920  141.8910 C   0  0  0  0  0  2  0  0  0  0  0  0
  185.8840  178.9700  141.1760 C   0  0  0  0  0  2  0  0  0  0  0  0
  184.6710  178.7630  142.0910 C   0  0  1  0  0  3  0  0  0  0  0  0
  181.0120  178.0000  140.9600 C   0  0  0  0  0  2  0  0  0  0  0  0
  183.7870  177.9410  139.8790 C   0  0  0  0  0  2  0  0  0  0  0  0
  182.7350  177.0990  139.1770 C   0  0  0  0  0  2  0  0  0  0  0  0
  182.1580  178.7810  141.5920 C   0  0  2  0  0  3  0  0  0  0  0  0
  181.1550  177.9980  139.1450 S   0  0  0  0  0  0  0  0  0  0  0  0
  183.4990  178.0490  141.3800 C   0  0  2  0  0  3  0  0  0  0  0  0
  181.8760  178.9300  142.9370 F   0  0  0  0  0  0  0  0  0  0  0  0
  185.1100  178.0210  143.3520 C   0  0  0  0  0  2  0  0  0  0  0  0
  184.7040  178.7690  144.6210 C   0  0  0  0  0  2  0  0  0  0  0  0
  185.4940  178.3610  145.8690 C   0  0  2  0  0  3  0  0  0  0  0  0
  185.5590  179.4160  146.7770 O   0  0  0  0  0  1  0  0  0  0  0  0
  186.8970  177.8590  145.5450 C   0  0  0  0  0  2  0  0  0  0  0  0
  187.7810  177.7860  146.7920 C   0  0  0  0  0  2  0  0  0  0  0  0
  191.0610  177.6860  144.7370 C   0  0  0  0  0  2  0  0  0  0  0  0
  191.4830  176.6370  146.8250 C   0  0  0  0  0  2  0  0  0  0  0  0
  191.6290  176.5000  145.3770 N   0  0  0  0  0  2  0  0  0  0  0  0
  189.2790  177.7710  146.4830 C   0  0  0  0  0  3  0  0  0  0  0  0
  189.5550  177.7400  144.9800 C   0  0  0  0  0  2  0  0  0  0  0  0
  190.0030  176.6320  147.2070 C   0  0  0  0  0  2  0  0  0  0  0  0
  1  2  1  0  0  0  0
  2  6  1  0  0  0  0
  3  4  1  0  0  0  0
  4  6  1  0  0  0  0
  4 25  1  1  0  0  0
  5  1  2  0  0  0  0
  5  3  1  0  0  0  0
  7  1  1  0  0  0  0
  9  7  1  6  0  0  0
  9  8  1  0  0  0  0
 10 11  1  1  0  0  0
 10  9  1  0  0  0  0
 10  8  1  0  0  0  0
 12 11  1  0  0  0  0
 13 12  1  0  0  0  0
 14 17  1  0  0  0  0
 14 18  1  0  0  0  0
 15 16  1  0  0  0  0
 16 24  1  6  0  0  0
 16 19  1  0  0  0  0
 17 12  1  1  0  0  0
 17 15  1  0  0  0  0
 18 16  1  0  0  0  0
 19 20  2  0  0  0  0
 19 21  1  0  0  0  0
 21 22  1  0  0  0  0
 23 24  1  0  0  0  0
 26 25  1  0  0  0  0
 27 26  1  6  0  0  0
 27 35  1  0  0  0  0
 28 31  1  0  0  0  0
 29 33  1  0  0  0  0
 30 29  1  0  0  0  0
 31 34  1  1  0  0  0
 32 30  1  0  0  0  0
 32 28  1  0  0  0  0
 33 31  1  0  0  0  0
 33 27  1  1  0  0  0
 35 36  1  0  0  0  0
 36 37  1  0  0  0  0
 37 38  1  1  0  0  0
 39 37  1  0  0  0  0
 39 40  1  0  0  0  0
 41 45  1  0  0  0  0
 41 43  1  0  0  0  0
 42 46  1  0  0  0  0
 43 42  1  0  0  0  0
 44 40  1  0  0  0  0
 44 46  1  0  0  0  0
 45 44  1  0  0  0  0
M  END
>  <MODEL>
1

>  <REMARK>
 VINA RESULT:      -8.2      0.000      0.000
  Name = 
  18 active torsions:
  status: ('A' for Active; 'I' for Inactive)
    1  A    between atoms: N_1  and  N_11
    2  A    between atoms: N_1  and  C_33
    3  A    between atoms: C_3  and  N_44
    4  A    between atoms: N_11  and  C_20
    5  A    between atoms: C_12  and  C_21
    6  A    between atoms: C_12  and  C_30
    7  A    between atoms: C_14  and  C_23
    8  A    between atoms: C_14  and  C_29
    9  A    between atoms: C_14  and  C_32
   10  A    between atoms: O_17  and  C_21
   11  A    between atoms: C_18  and  N_44
   12  A    between atoms: C_19  and  C_23
   13  A    between atoms: C_19  and  C_27
   14  A    between atoms: C_27  and  C_28
   15  A    between atoms: C_28  and  C_42
   16  A    between atoms: C_29  and  C_37
   17  A    between atoms: C_31  and  C_37
   18  A    between atoms: C_40  and  C_42
                            x       y       z     vdW  Elec       q    Type
                         _______ _______ _______ _____ _____    ______ ____

>  <TORSDO>
F 18

$$$$
=
 OpenBabel11042412503D

 46 50  0  0  1  0  0  0  0  0999 V2000
  183.0670  178.9330  143.7970 C   0  0  0  0  0  0  0  0  0  0  0  0
  183.8650  178.9560  145.0760 C   0  0  0  0  0  2  0  0  0  0  0  0
  185.1210  178.4460  142.4580 C   0  0  0  0  0  2  0  0  0  0  0  0
  185.7840  178.0380  143.7670 C   0  0  2  0  0  3  0  0  0  0  0  0
  183.6380  178.6260  142.6220 C   0  0  0  0  0  3  0  0  0  0  0  0
  185.3750  179.0340  144.8460 C   0  0  0  0  0  2  0  0  0  0  0  0
  181.6500  179.1240  143.8860 N   0  0  0  0  0  2  0  0  0  0  0  0
  179.3940  179.6500  143.1660 C   0  0  0  0  0  2  0  0  0  0  0  0
  180.7840  179.2470  142.7220 C   0  0  2  0  0  3  0  0  0  0  0  0
  179.6860  178.2080  142.8030 C   0  0  2  0  0  3  0  0  0  0  0  0
  179.1940  177.9370  141.4640 N   0  0  0  0  0  2  0  0  0  0  0  0
  179.8510  176.7820  141.0090 N   0  0  0  0  0  0  0  0  0  0  0  0
  178.9310  175.7860  141.0490 O   0  0  0  0  0  1  0  0  0  0  0  0
  179.3190  178.0660  138.9860 C   0  0  0  0  0  2  0  0  0  0  0  0
  181.6180  177.5350  139.4740 C   0  0  0  0  0  2  0  0  0  0  0  0
  181.6110  178.5240  138.3160 C   0  0  1  0  0  0  0  0  0  0  0  0
  180.2010  176.9990  139.6050 C   0  0  1  0  0  3  0  0  0  0  0  0
  180.1550  178.6890  137.8900 C   0  0  0  0  0  2  0  0  0  0  0  0
  182.1910  179.8320  138.7890 C   0  0  0  0  0  0  0  0  0  0  0  0
  181.6020  180.9200  138.5400 O   0  0  0  0  0  0  0  0  0  0  0  0
  183.3460  179.8350  139.5710 O   0  0  0  0  0  0  0  0  0  0  0  0
  184.5530  180.0000  139.0120 O   0  0  0  0  0  1  0  0  0  0  0  0
  181.7880  178.2110  135.9240 O   0  0  0  0  0  1  0  0  0  0  0  0
  182.4320  177.9850  137.1450 C   0  0  0  0  0  2  0  0  0  0  0  0
  187.2890  178.0450  143.5860 C   0  0  0  0  0  2  0  0  0  0  0  0
  187.7320  176.8390  142.7650 C   0  0  0  0  0  2  0  0  0  0  0  0
  189.0220  177.1110  141.9810 C   0  0  1  0  0  3  0  0  0  0  0  0
  188.0840  178.1180  138.3280 C   0  0  0  0  0  2  0  0  0  0  0  0
  190.1510  176.5550  139.7980 C   0  0  0  0  0  2  0  0  0  0  0  0
  189.9580  176.2610  138.3200 C   0  0  0  0  0  2  0  0  0  0  0  0
  188.3520  178.3040  139.8170 C   0  0  2  0  0  3  0  0  0  0  0  0
  189.6360  177.8110  137.4260 S   0  0  0  0  0  0  0  0  0  0  0  0
  188.8340  176.9850  140.4530 C   0  0  2  0  0  3  0  0  0  0  0  0
  187.1810  178.7460  140.4040 F   0  0  0  0  0  0  0  0  0  0  0  0
  189.5750  178.4790  142.3780 C   0  0  0  0  0  2  0  0  0  0  0  0
  191.0410  178.3980  142.7990 C   0  0  0  0  0  2  0  0  0  0  0  0
  191.2690  178.5350  144.3090 C   0  0  2  0  0  3  0  0  0  0  0  0
  192.3470  179.3780  144.5700 O   0  0  0  0  0  1  0  0  0  0  0  0
  191.4740  177.1910  145.0020 C   0  0  0  0  0  2  0  0  0  0  0  0
  190.1560  176.6000  145.5050 C   0  0  0  0  0  2  0  0  0  0  0  0
  189.3390  178.4550  148.8040 C   0  0  0  0  0  2  0  0  0  0  0  0
  187.2840  177.9820  147.7120 C   0  0  0  0  0  2  0  0  0  0  0  0
  187.9970  177.9010  148.9860 N   0  0  0  0  0  2  0  0  0  0  0  0
  189.4180  177.4990  146.5000 C   0  0  0  0  0  3  0  0  0  0  0  0
  190.1400  177.5790  147.8450 C   0  0  0  0  0  2  0  0  0  0  0  0
  187.9560  177.0810  146.6760 C   0  0  0  0  0  2  0  0  0  0  0  0
  1  7  1  0  0  0  0
  1  2  1  0  0  0  0
  3  5  1  0  0  0  0
  3  4  1  0  0  0  0
  4 25  1  6  0  0  0
  4  6  1  0  0  0  0
  5  1  2  0  0  0  0
  6  2  1  0  0  0  0
  9 10  1  0  0  0  0
  9  8  1  0  0  0  0
  9  7  1  1  0  0  0
 10 11  1  6  0  0  0
 10  8  1  0  0  0  0
 12 13  1  0  0  0  0
 12 11  1  0  0  0  0
 14 17  1  0  0  0  0
 15 17  1  0  0  0  0
 16 24  1  6  0  0  0
 16 19  1  0  0  0  0
 16 15  1  0  0  0  0
 17 12  1  1  0  0  0
 18 16  1  0  0  0  0
 18 14  1  0  0  0  0
 19 21  1  0  0  0  0
 20 19  2  0  0  0  0
 22 21  1  0  0  0  0
 23 24  1  0  0  0  0
 26 25  1  0  0  0  0
 27 35  1  6  0  0  0
 27 26  1  0  0  0  0
 28 31  1  0  0  0  0
 29 33  1  0  0  0  0
 30 29  1  0  0  0  0
 31 34  1  1  0  0  0
 31 33  1  0  0  0  0
 32 30  1  0  0  0  0
 32 28  1  0  0  0  0
 33 27  1  1  0  0  0
 35 36  1  0  0  0  0
 36 37  1  0  0  0  0
 37 38  1  6  0  0  0
 37 39  1  0  0  0  0
 39 40  1  0  0  0  0
 40 44  1  0  0  0  0
 41 43  1  0  0  0  0
 42 43  1  0  0  0  0
 44 46  1  0  0  0  0
 44 45  1  0  0  0  0
 45 41  1  0  0  0  0
 46 42  1  0  0  0  0
M  END
>  <MODEL>
2

>  <REMARK>
 VINA RESULT:      -7.8      5.998     10.636
  Name = 
  18 active torsions:
  status: ('A' for Active; 'I' for Inactive)
    1  A    between atoms: N_1  and  N_11
    2  A    between atoms: N_1  and  C_33
    3  A    between atoms: C_3  and  N_44
    4  A    between atoms: N_11  and  C_20
    5  A    between atoms: C_12  and  C_21
    6  A    between atoms: C_12  and  C_30
    7  A    between atoms: C_14  and  C_23
    8  A    between atoms: C_14  and  C_29
    9  A    between atoms: C_14  and  C_32
   10  A    between atoms: O_17  and  C_21
   11  A    between atoms: C_18  and  N_44
   12  A    between atoms: C_19  and  C_23
   13  A    between atoms: C_19  and  C_27
   14  A    between atoms: C_27  and  C_28
   15  A    between atoms: C_28  and  C_42
   16  A    between atoms: C_29  and  C_37
   17  A    between atoms: C_31  and  C_37
   18  A    between atoms: C_40  and  C_42
                            x       y       z     vdW  Elec       q    Type
                         _______ _______ _______ _____ _____    ______ ____

>  <TORSDO>
F 18

$$$$
=
 OpenBabel11042412503D

 46 50  0  0  1  0  0  0  0  0999 V2000
  188.0730  177.6260  144.9280 C   0  0  0  0  0  0  0  0  0  0  0  0
  187.5920  177.2420  143.5520 C   0  0  0  0  0  2  0  0  0  0  0  0
  190.4440  177.7020  144.1400 C   0  0  0  0  0  2  0  0  0  0  0  0
  189.8900  177.7640  142.7220 C   0  0  2  0  0  3  0  0  0  0  0  0
  189.3640  177.9050  145.1650 C   0  0  0  0  0  3  0  0  0  0  0  0
  188.7190  176.7940  142.6200 C   0  0  0  0  0  2  0  0  0  0  0  0
  187.0920  177.8090  145.9560 N   0  0  0  0  0  2  0  0  0  0  0  0
  185.0960  178.6420  147.0520 C   0  0  0  0  0  2  0  0  0  0  0  0
  186.0680  178.8430  145.9100 C   0  0  2  0  0  3  0  0  0  0  0  0
  184.7210  178.2010  145.6520 C   0  0  2  0  0  3  0  0  0  0  0  0
  183.8370  179.1860  145.0550 N   0  0  0  0  0  2  0  0  0  0  0  0
  183.0790  178.5210  144.0780 N   0  0  0  0  0  0  0  0  0  0  0  0
  181.7980  178.9350  144.2480 O   0  0  0  0  0  1  0  0  0  0  0  0
  184.6730  178.1620  142.2460 C   0  0  0  0  0  2  0  0  0  0  0  0
  182.4240  178.8570  141.7320 C   0  0  0  0  0  2  0  0  0  0  0  0
  183.1000  178.4840  140.4200 C   0  0  1  0  0  0  0  0  0  0  0  0
  183.5250  179.0040  142.7710 C   0  0  1  0  0  3  0  0  0  0  0  0
  184.5740  178.2460  140.7390 C   0  0  0  0  0  2  0  0  0  0  0  0
  182.4530  177.2380  139.8750 C   0  0  0  0  0  0  0  0  0  0  0  0
  183.1380  176.3840  139.2470 O   0  0  0  0  0  0  0  0  0  0  0  0
  181.1050  176.9900  140.1300 O   0  0  0  0  0  0  0  0  0  0  0  0
  180.1530  177.4600  139.3120 O   0  0  0  0  0  1  0  0  0  0  0  0
  184.2060  180.2320  139.1650 O   0  0  0  0  0  1  0  0  0  0  0  0
  182.9710  179.6220  139.4070 C   0  0  0  0  0  2  0  0  0  0  0  0
  190.9820  177.3780  141.7440 C   0  0  0  0  0  2  0  0  0  0  0  0
  190.3940  176.6090  140.5670 C   0  0  0  0  0  2  0  0  0  0  0  0
  190.4760  177.4010  139.2550 C   0  0  1  0  0  3  0  0  0  0  0  0
  193.5330  175.7360  137.4870 C   0  0  0  0  0  2  0  0  0  0  0  0
  190.5910  175.3640  137.7770 C   0  0  0  0  0  2  0  0  0  0  0  0
  191.2760  174.7060  136.5910 C   0  0  0  0  0  2  0  0  0  0  0  0
  192.7310  176.3680  138.6200 C   0  0  2  0  0  3  0  0  0  0  0  0
  192.9030  174.0730  137.0990 S   0  0  0  0  0  0  0  0  0  0  0  0
  191.2900  176.6720  138.1640 C   0  0  2  0  0  3  0  0  0  0  0  0
  193.3880  177.5200  139.0100 F   0  0  0  0  0  0  0  0  0  0  0  0
  189.0640  177.7430  138.7820 C   0  0  0  0  0  2  0  0  0  0  0  0
  189.0760  178.4880  137.4500 C   0  0  0  0  0  2  0  0  0  0  0  0
  187.7070  178.5730  136.7650 C   0  0  2  0  0  3  0  0  0  0  0  0
  187.2950  179.8990  136.6520 O   0  0  0  0  0  1  0  0  0  0  0  0
  186.6370  177.7500  137.4750 C   0  0  0  0  0  2  0  0  0  0  0  0
  186.0800  176.6410  136.5800 C   0  0  0  0  0  2  0  0  0  0  0  0
  187.7690  173.1560  136.5780 C   0  0  0  0  0  2  0  0  0  0  0  0
  185.6700  172.9440  137.6700 C   0  0  0  0  0  2  0  0  0  0  0  0
  186.5380  172.3690  136.6420 N   0  0  0  0  0  2  0  0  0  0  0  0
  186.4600  175.2320  137.0390 C   0  0  0  0  0  3  0  0  0  0  0  0
  187.4590  174.5690  136.0910 C   0  0  0  0  0  2  0  0  0  0  0  0
  185.2300  174.3480  137.2590 C   0  0  0  0  0  2  0  0  0  0  0  0
  1  5  2  0  0  0  0
  1  7  1  0  0  0  0
  2  1  1  0  0  0  0
  3  5  1  0  0  0  0
  4 25  1  6  0  0  0
  4  3  1  0  0  0  0
  6  4  1  0  0  0  0
  6  2  1  0  0  0  0
  9  7  1  1  0  0  0
  9  8  1  0  0  0  0
 10 11  1  6  0  0  0
 10  9  1  0  0  0  0
 10  8  1  0  0  0  0
 12 13  1  0  0  0  0
 12 11  1  0  0  0  0
 14 17  1  0  0  0  0
 15 17  1  0  0  0  0
 16 24  1  6  0  0  0
 16 18  1  0  0  0  0
 16 15  1  0  0  0  0
 17 12  1  1  0  0  0
 18 14  1  0  0  0  0
 19 21  1  0  0  0  0
 19 16  1  0  0  0  0
 20 19  2  0  0  0  0
 22 21  1  0  0  0  0
 23 24  1  0  0  0  0
 26 25  1  0  0  0  0
 27 35  1  6  0  0  0
 27 26  1  0  0  0  0
 28 31  1  0  0  0  0
 29 33  1  0  0  0  0
 30 32  1  0  0  0  0
 30 29  1  0  0  0  0
 31 34  1  6  0  0  0
 32 28  1  0  0  0  0
 33 31  1  0  0  0  0
 33 27  1  1  0  0  0
 36 35  1  0  0  0  0
 37 38  1  1  0  0  0
 37 36  1  0  0  0  0
 37 39  1  0  0  0  0
 40 44  1  0  0  0  0
 40 39  1  0  0  0  0
 41 43  1  0  0  0  0
 43 42  1  0  0  0  0
 44 46  1  0  0  0  0
 45 41  1  0  0  0  0
 45 44  1  0  0  0  0
 46 42  1  0  0  0  0
M  END
>  <MODEL>
3

>  <REMARK>
 VINA RESULT:      -7.6      5.286     11.311
  Name = 
  18 active torsions:
  status: ('A' for Active; 'I' for Inactive)
    1  A    between atoms: N_1  and  N_11
    2  A    between atoms: N_1  and  C_33
    3  A    between atoms: C_3  and  N_44
    4  A    between atoms: N_11  and  C_20
    5  A    between atoms: C_12  and  C_21
    6  A    between atoms: C_12  and  C_30
    7  A    between atoms: C_14  and  C_23
    8  A    between atoms: C_14  and  C_29
    9  A    between atoms: C_14  and  C_32
   10  A    between atoms: O_17  and  C_21
   11  A    between atoms: C_18  and  N_44
   12  A    between atoms: C_19  and  C_23
   13  A    between atoms: C_19  and  C_27
   14  A    between atoms: C_27  and  C_28
   15  A    between atoms: C_28  and  C_42
   16  A    between atoms: C_29  and  C_37
   17  A    between atoms: C_31  and  C_37
   18  A    between atoms: C_40  and  C_42
                            x       y       z     vdW  Elec       q    Type
                         _______ _______ _______ _____ _____    ______ ____

>  <TORSDO>
F 18

$$$$
=
 OpenBabel11042412503D

 46 50  0  0  1  0  0  0  0  0999 V2000
  188.4500  177.7900  138.5890 C   0  0  0  0  0  0  0  0  0  0  0  0
  187.1020  178.1450  139.1630 C   0  0  0  0  0  2  0  0  0  0  0  0
  189.4710  177.7330  140.8700 C   0  0  0  0  0  2  0  0  0  0  0  0
  188.0520  177.6420  141.4180 C   0  0  2  0  0  3  0  0  0  0  0  0
  189.5010  177.5310  139.3810 C   0  0  0  0  0  2  0  0  0  0  0  0
  187.1660  178.5950  140.6240 C   0  0  0  0  0  2  0  0  0  0  0  0
  188.5500  177.6080  137.1720 N   0  0  0  0  0  0  0  0  0  0  0  0
  189.5090  177.0430  135.0170 C   0  0  0  0  0  2  0  0  0  0  0  0
  189.7530  177.1280  136.5080 C   0  0  2  0  0  3  0  0  0  0  0  0
  189.4680  175.7880  135.8640 C   0  0  2  0  0  3  0  0  0  0  0  0
  190.7170  175.0630  135.7130 N   0  0  0  0  0  2  0  0  0  0  0  0
  190.7030  174.0190  136.6530 N   0  0  0  0  0  0  0  0  0  0  0  0
  189.7680  173.1360  136.2200 O   0  0  0  0  0  1  0  0  0  0  0  0
  192.6060  173.4770  135.2000 C   0  0  0  0  0  2  0  0  0  0  0  0
  193.0050  174.0120  137.5150 C   0  0  0  0  0  2  0  0  0  0  0  0
  194.3570  173.9600  136.8170 C   0  0  1  0  0  0  0  0  0  0  0  0
  192.0010  173.3480  136.5850 C   0  0  1  0  0  3  0  0  0  0  0  0
  194.1030  173.4230  135.4110 C   0  0  0  0  0  2  0  0  0  0  0  0
  194.9360  175.3500  136.7720 C   0  0  0  0  0  0  0  0  0  0  0  0
  194.3540  176.3040  137.3600 O   0  0  0  0  0  0  0  0  0  0  0  0
  196.1590  175.5710  136.1420 O   0  0  0  0  0  0  0  0  0  0  0  0
  197.2850  175.7100  136.8560 O   0  0  0  0  0  1  0  0  0  0  0  0
  195.2850  173.2590  138.9380 O   0  0  0  0  0  1  0  0  0  0  0  0
  195.3100  173.0240  137.5600 C   0  0  0  0  0  2  0  0  0  0  0  0
  188.0600  178.0280  142.8850 C   0  0  0  0  0  2  0  0  0  0  0  0
  187.7660  176.8120  143.7550 C   0  0  0  0  0  2  0  0  0  0  0  0
  187.8560  177.1340  145.2530 C   0  0  1  0  0  3  0  0  0  0  0  0
  190.9050  176.9400  147.6840 C   0  0  0  0  0  2  0  0  0  0  0  0
  190.2540  176.5000  144.8100 C   0  0  0  0  0  2  0  0  0  0  0  0
  191.7080  176.7390  145.1800 C   0  0  0  0  0  2  0  0  0  0  0  0
  189.4810  176.7160  147.1880 C   0  0  2  0  0  3  0  0  0  0  0  0
  192.0830  175.9100  146.7540 S   0  0  0  0  0  0  0  0  0  0  0  0
  189.3120  177.2560  145.7540 C   0  0  2  0  0  3  0  0  0  0  0  0
  188.6230  177.3510  148.0670 F   0  0  0  0  0  0  0  0  0  0  0  0
  187.0420  178.3930  145.5480 C   0  0  0  0  0  2  0  0  0  0  0  0
  185.5520  178.0880  145.6790 C   0  0  0  0  0  2  0  0  0  0  0  0
  184.6400  179.1000  144.9760 C   0  0  2  0  0  3  0  0  0  0  0  0
  183.4000  179.1670  145.6080 O   0  0  0  0  0  1  0  0  0  0  0  0
  184.4580  178.8040  143.4910 C   0  0  0  0  0  2  0  0  0  0  0  0
  182.9820  178.7820  143.0880 C   0  0  0  0  0  2  0  0  0  0  0  0
  181.1230  178.5390  139.7010 C   0  0  0  0  0  2  0  0  0  0  0  0
  183.2940  177.6250  139.4020 C   0  0  0  0  0  2  0  0  0  0  0  0
  181.8680  177.3940  139.1770 N   0  0  0  0  0  2  0  0  0  0  0  0
  182.7590  178.7420  141.5750 C   0  0  0  0  0  3  0  0  0  0  0  0
  181.2780  178.6130  141.2170 C   0  0  0  0  0  2  0  0  0  0  0  0
  183.5920  177.6490  140.9010 C   0  0  0  0  0  2  0  0  0  0  0  0
  1  2  1  0  0  0  0
  1  5  1  0  0  0  0
  2  6  1  0  0  0  0
  3  4  1  0  0  0  0
  4 25  1  1  0  0  0
  5  3  1  0  0  0  0
  6  4  1  0  0  0  0
  7  1  2  0  0  0  0
  8 10  1  0  0  0  0
  8  9  1  0  0  0  0
  9  7  1  1  0  0  0
 10 11  1  6  0  0  0
 10  9  1  0  0  0  0
 11 12  1  0  0  0  0
 13 12  1  0  0  0  0
 14 18  1  0  0  0  0
 14 17  1  0  0  0  0
 16 15  1  0  0  0  0
 16 24  1  1  0  0  0
 17 12  1  6  0  0  0
 17 15  1  0  0  0  0
 18 16  1  0  0  0  0
 19 16  1  0  0  0  0
 19 20  2  0  0  0  0
 21 19  1  0  0  0  0
 21 22  1  0  0  0  0
 24 23  1  0  0  0  0
 25 26  1  0  0  0  0
 27 26  1  6  0  0  0
 27 35  1  0  0  0  0
 29 30  1  0  0  0  0
 29 33  1  0  0  0  0
 30 32  1  0  0  0  0
 31 28  1  0  0  0  0
 31 34  1  1  0  0  0
 32 28  1  0  0  0  0
 33 27  1  6  0  0  0
 33 31  1  0  0  0  0
 35 36  1  0  0  0  0
 37 38  1  1  0  0  0
 37 36  1  0  0  0  0
 39 37  1  0  0  0  0
 40 39  1  0  0  0  0
 41 45  1  0  0  0  0
 42 46  1  0  0  0  0
 43 42  1  0  0  0  0
 43 41  1  0  0  0  0
 44 40  1  0  0  0  0
 45 44  1  0  0  0  0
 46 44  1  0  0  0  0
M  END
>  <MODEL>
4

>  <REMARK>
 VINA RESULT:      -7.4      3.293      6.128
  Name = 
  18 active torsions:
  status: ('A' for Active; 'I' for Inactive)
    1  A    between atoms: N_1  and  N_11
    2  A    between atoms: N_1  and  C_33
    3  A    between atoms: C_3  and  N_44
    4  A    between atoms: N_11  and  C_20
    5  A    between atoms: C_12  and  C_21
    6  A    between atoms: C_12  and  C_30
    7  A    between atoms: C_14  and  C_23
    8  A    between atoms: C_14  and  C_29
    9  A    between atoms: C_14  and  C_32
   10  A    between atoms: O_17  and  C_21
   11  A    between atoms: C_18  and  N_44
   12  A    between atoms: C_19  and  C_23
   13  A    between atoms: C_19  and  C_27
   14  A    between atoms: C_27  and  C_28
   15  A    between atoms: C_28  and  C_42
   16  A    between atoms: C_29  and  C_37
   17  A    between atoms: C_31  and  C_37
   18  A    between atoms: C_40  and  C_42
                            x       y       z     vdW  Elec       q    Type
                         _______ _______ _______ _____ _____    ______ ____

>  <TORSDO>
F 18

$$$$
=
 OpenBabel11042412503D

 46 50  0  0  1  0  0  0  0  0999 V2000
  182.9230  178.8720  141.8720 C   0  0  0  0  0  0  0  0  0  0  0  0
  182.3540  178.6910  143.2570 C   0  0  0  0  0  2  0  0  0  0  0  0
  185.2520  178.9430  142.7780 C   0  0  0  0  0  2  0  0  0  0  0  0
  184.6930  178.3230  144.0530 C   0  0  2  0  0  3  0  0  0  0  0  0
  184.2480  178.9100  141.6610 C   0  0  0  0  0  2  0  0  0  0  0  0
  183.3600  178.9910  144.3690 C   0  0  0  0  0  2  0  0  0  0  0  0
  182.0130  178.8740  140.7670 N   0  0  0  0  0  0  0  0  0  0  0  0
  181.8020  179.9250  138.5910 C   0  0  0  0  0  2  0  0  0  0  0  0
  182.4410  178.8000  139.3770 C   0  0  2  0  0  3  0  0  0  0  0  0
  181.2400  178.5220  138.4980 C   0  0  2  0  0  3  0  0  0  0  0  0
  181.6920  177.9000  137.2660 N   0  0  0  0  0  2  0  0  0  0  0  0
  182.0850  176.5900  137.5860 N   0  0  0  0  0  0  0  0  0  0  0  0
  180.9840  175.8150  137.4180 O   0  0  0  0  0  1  0  0  0  0  0  0
  183.1980  177.2040  135.4860 C   0  0  0  0  0  2  0  0  0  0  0  0
  184.4600  176.0800  137.2040 C   0  0  0  0  0  2  0  0  0  0  0  0
  185.4450  176.5440  136.1400 C   0  0  1  0  0  0  0  0  0  0  0  0
  183.0710  176.1710  136.5900 C   0  0  1  0  0  3  0  0  0  0  0  0
  184.6140  177.0670  134.9710 C   0  0  0  0  0  2  0  0  0  0  0  0
  186.3130  177.6300  136.7200 C   0  0  0  0  0  0  0  0  0  0  0  0
  187.0320  178.3440  135.9670 O   0  0  0  0  0  0  0  0  0  0  0  0
  186.2650  177.8980  138.0870 O   0  0  0  0  0  0  0  0  0  0  0  0
  185.7640  179.0540  138.5440 O   0  0  0  0  0  1  0  0  0  0  0  0
  186.0780  174.2270  136.4260 O   0  0  0  0  0  1  0  0  0  0  0  0
  186.3160  175.3780  135.6700 C   0  0  0  0  0  2  0  0  0  0  0  0
  185.6760  178.5430  145.1860 C   0  0  0  0  0  2  0  0  0  0  0  0
  186.6850  177.4020  145.2440 C   0  0  0  0  0  2  0  0  0  0  0  0
  187.9870  177.7400  144.5070 C   0  0  1  0  0  3  0  0  0  0  0  0
  190.0640  177.5240  147.8060 C   0  0  0  0  0  2  0  0  0  0  0  0
  190.3300  176.9020  144.9050 C   0  0  0  0  0  2  0  0  0  0  0  0
  191.6050  177.0650  145.7150 C   0  0  0  0  0  2  0  0  0  0  0  0
  188.8600  177.3630  146.8850 C   0  0  2  0  0  3  0  0  0  0  0  0
  191.3760  176.3410  147.3670 S   0  0  0  0  0  0  0  0  0  0  0  0
  189.2110  177.7970  145.4480 C   0  0  2  0  0  3  0  0  0  0  0  0
  187.8290  178.1260  147.4020 F   0  0  0  0  0  0  0  0  0  0  0  0
  188.1920  176.7480  143.3640 C   0  0  0  0  0  2  0  0  0  0  0  0
  187.8810  177.3740  142.0060 C   0  0  0  0  0  2  0  0  0  0  0  0
  189.1170  177.8640  141.2430 C   0  0  2  0  0  3  0  0  0  0  0  0
  188.7470  178.4700  140.0440 O   0  0  0  0  0  1  0  0  0  0  0  0
  190.1300  176.7550  140.9790 C   0  0  0  0  0  2  0  0  0  0  0  0
  191.2270  177.2000  140.0100 C   0  0  0  0  0  2  0  0  0  0  0  0
  192.7690  175.5090  136.8860 C   0  0  0  0  0  2  0  0  0  0  0  0
  190.4450  175.7900  136.4840 C   0  0  0  0  0  2  0  0  0  0  0  0
  191.7800  175.9930  135.9230 N   0  0  0  0  0  2  0  0  0  0  0  0
  191.3350  176.3230  138.7600 C   0  0  0  0  0  3  0  0  0  0  0  0
  192.7340  176.3690  138.1460 C   0  0  0  0  0  2  0  0  0  0  0  0
  190.2600  176.6630  137.7250 C   0  0  0  0  0  2  0  0  0  0  0  0
  1  2  1  0  0  0  0
  2  6  1  0  0  0  0
  3  4  1  0  0  0  0
  4  6  1  0  0  0  0
  4 25  1  1  0  0  0
  5  1  1  0  0  0  0
  5  3  1  0  0  0  0
  7  1  2  0  0  0  0
  8  9  1  0  0  0  0
  9  7  1  1  0  0  0
 10 11  1  6  0  0  0
 10  8  1  0  0  0  0
 10  9  1  0  0  0  0
 11 12  1  0  0  0  0
 13 12  1  0  0  0  0
 14 17  1  0  0  0  0
 16 24  1  6  0  0  0
 16 19  1  0  0  0  0
 16 15  1  0  0  0  0
 17 15  1  0  0  0  0
 17 12  1  1  0  0  0
 18 14  1  0  0  0  0
 18 16  1  0  0  0  0
 19 21  1  0  0  0  0
 20 19  2  0  0  0  0
 21 22  1  0  0  0  0
 24 23  1  0  0  0  0
 25 26  1  0  0  0  0
 27 35  1  6  0  0  0
 27 26  1  0  0  0  0
 29 33  1  0  0  0  0
 29 30  1  0  0  0  0
 30 32  1  0  0  0  0
 31 34  1  1  0  0  0
 31 28  1  0  0  0  0
 32 28  1  0  0  0  0
 33 27  1  6  0  0  0
 33 31  1  0  0  0  0
 36 35  1  0  0  0  0
 37 38  1  6  0  0  0
 37 36  1  0  0  0  0
 39 37  1  0  0  0  0
 40 39  1  0  0  0  0
 41 45  1  0  0  0  0
 42 46  1  0  0  0  0
 43 42  1  0  0  0  0
 43 41  1  0  0  0  0
 44 40  1  0  0  0  0
 45 44  1  0  0  0  0
 46 44  1  0  0  0  0
M  END
>  <MODEL>
5

>  <REMARK>
 VINA RESULT:      -7.3      4.821      9.587
  Name = 
  18 active torsions:
  status: ('A' for Active; 'I' for Inactive)
    1  A    between atoms: N_1  and  N_11
    2  A    between atoms: N_1  and  C_33
    3  A    between atoms: C_3  and  N_44
    4  A    between atoms: N_11  and  C_20
    5  A    between atoms: C_12  and  C_21
    6  A    between atoms: C_12  and  C_30
    7  A    between atoms: C_14  and  C_23
    8  A    between atoms: C_14  and  C_29
    9  A    between atoms: C_14  and  C_32
   10  A    between atoms: O_17  and  C_21
   11  A    between atoms: C_18  and  N_44
   12  A    between atoms: C_19  and  C_23
   13  A    between atoms: C_19  and  C_27
   14  A    between atoms: C_27  and  C_28
   15  A    between atoms: C_28  and  C_42
   16  A    between atoms: C_29  and  C_37
   17  A    between atoms: C_31  and  C_37
   18  A    between atoms: C_40  and  C_42
                            x       y       z     vdW  Elec       q    Type
                         _______ _______ _______ _____ _____    ______ ____

>  <TORSDO>
F 18

$$$$
=
 OpenBabel11042412503D

 46 50  0  0  1  0  0  0  0  0999 V2000
  182.5250  178.8450  142.6910 C   0  0  0  0  0  0  0  0  0  0  0  0
  182.2040  178.6750  144.1540 C   0  0  0  0  0  2  0  0  0  0  0  0
  184.9720  178.9750  143.1850 C   0  0  0  0  0  2  0  0  0  0  0  0
  184.6520  178.3650  144.5440 C   0  0  2  0  0  3  0  0  0  0  0  0
  183.7930  178.9050  142.2560 C   0  0  0  0  0  3  0  0  0  0  0  0
  183.3790  179.0120  145.0750 C   0  0  0  0  0  2  0  0  0  0  0  0
  181.4400  178.8120  141.7570 N   0  0  0  0  0  2  0  0  0  0  0  0
  180.8190  179.1370  139.4350 C   0  0  0  0  0  2  0  0  0  0  0  0
  181.5520  178.2510  140.4180 C   0  0  2  0  0  3  0  0  0  0  0  0
  180.1760  177.8560  139.9250 C   0  0  2  0  0  3  0  0  0  0  0  0
  180.3170  176.8250  138.9110 N   0  0  0  0  0  2  0  0  0  0  0  0
  180.9010  175.7110  139.5350 N   0  0  0  0  0  0  0  0  0  0  0  0
  179.8720  174.9530  139.9900 O   0  0  0  0  0  1  0  0  0  0  0  0
  180.8000  174.9430  137.2060 C   0  0  0  0  0  2  0  0  0  0  0  0
  182.9260  175.5710  138.1480 C   0  0  0  0  0  2  0  0  0  0  0  0
  183.1270  175.3750  136.6520 C   0  0  1  0  0  0  0  0  0  0  0  0
  181.5890  174.9380  138.5010 C   0  0  1  0  0  3  0  0  0  0  0  0
  181.8290  174.7830  136.1090 C   0  0  0  0  0  2  0  0  0  0  0  0
  183.4220  176.7110  136.0210 C   0  0  0  0  0  0  0  0  0  0  0  0
  184.6060  177.1440  135.9650 O   0  0  0  0  0  0  0  0  0  0  0  0
  182.3910  177.4400  135.4290 O   0  0  0  0  0  0  0  0  0  0  0  0
  181.6120  178.2470  136.1610 O   0  0  0  0  0  1  0  0  0  0  0  0
  184.4650  173.5270  137.4560 O   0  0  0  0  0  1  0  0  0  0  0  0
  184.2830  174.4090  136.3870 C   0  0  0  0  0  2  0  0  0  0  0  0
  185.8090  178.6220  145.4900 C   0  0  0  0  0  2  0  0  0  0  0  0
  186.8240  177.4880  145.4080 C   0  0  0  0  0  2  0  0  0  0  0  0
  188.0780  177.8860  144.6190 C   0  0  1  0  0  3  0  0  0  0  0  0
  190.3790  177.3430  147.7260 C   0  0  0  0  0  2  0  0  0  0  0  0
  190.3220  176.7560  144.8060 C   0  0  0  0  0  2  0  0  0  0  0  0
  191.6700  176.7410  145.5060 C   0  0  0  0  0  2  0  0  0  0  0  0
  189.0920  177.3530  146.9100 C   0  0  2  0  0  3  0  0  0  0  0  0
  191.4900  176.0160  147.1640 S   0  0  0  0  0  0  0  0  0  0  0  0
  189.3740  177.7710  145.4530 C   0  0  2  0  0  3  0  0  0  0  0  0
  188.2120  178.2270  147.5210 F   0  0  0  0  0  0  0  0  0  0  0  0
  188.1500  177.0620  143.3350 C   0  0  0  0  0  2  0  0  0  0  0  0
  188.1540  177.9480  142.0910 C   0  0  0  0  0  2  0  0  0  0  0  0
  189.0310  177.4220  140.9490 C   0  0  2  0  0  3  0  0  0  0  0  0
  190.3670  177.3660  141.3420 O   0  0  0  0  0  1  0  0  0  0  0  0
  188.8940  178.2410  139.6700 C   0  0  0  0  0  2  0  0  0  0  0  0
  187.6110  177.9020  138.9080 C   0  0  0  0  0  2  0  0  0  0  0  0
  187.8620  175.4850  135.8940 C   0  0  0  0  0  2  0  0  0  0  0  0
  189.4670  177.2060  135.5770 C   0  0  0  0  0  2  0  0  0  0  0  0
  189.2620  175.7580  135.5700 N   0  0  0  0  0  2  0  0  0  0  0  0
  187.8560  177.4130  137.4790 C   0  0  0  0  0  3  0  0  0  0  0  0
  187.5630  175.9210  137.3250 C   0  0  0  0  0  2  0  0  0  0  0  0
  189.2650  177.7580  136.9870 C   0  0  0  0  0  2  0  0  0  0  0  0
  1  2  1  0  0  0  0
  2  6  1  0  0  0  0
  3  4  1  0  0  0  0
  4  6  1  0  0  0  0
  4 25  1  1  0  0  0
  5  1  2  0  0  0  0
  5  3  1  0  0  0  0
  7  1  1  0  0  0  0
  8 10  1  0  0  0  0
  8  9  1  0  0  0  0
  9  7  1  1  0  0  0
 10 11  1  6  0  0  0
 10  9  1  0  0  0  0
 11 12  1  0  0  0  0
 12 13  1  0  0  0  0
 14 17  1  0  0  0  0
 15 17  1  0  0  0  0
 16 24  1  6  0  0  0
 16 15  1  0  0  0  0
 17 12  1  1  0  0  0
 18 16  1  0  0  0  0
 18 14  1  0  0  0  0
 19 16  1  0  0  0  0
 20 19  2  0  0  0  0
 21 19  1  0  0  0  0
 21 22  1  0  0  0  0
 24 23  1  0  0  0  0
 26 25  1  0  0  0  0
 27 35  1  6  0  0  0
 27 26  1  0  0  0  0
 29 33  1  0  0  0  0
 29 30  1  0  0  0  0
 30 32  1  0  0  0  0
 31 34  1  1  0  0  0
 31 28  1  0  0  0  0
 32 28  1  0  0  0  0
 33 27  1  6  0  0  0
 33 31  1  0  0  0  0
 36 35  1  0  0  0  0
 37 38  1  1  0  0  0
 37 36  1  0  0  0  0
 39 37  1  0  0  0  0
 40 39  1  0  0  0  0
 41 45  1  0  0  0  0
 42 46  1  0  0  0  0
 43 42  1  0  0  0  0
 43 41  1  0  0  0  0
 44 40  1  0  0  0  0
 45 44  1  0  0  0  0
 46 44  1  0  0  0  0
M  END
>  <MODEL>
6

>  <REMARK>
 VINA RESULT:      -7.1      5.375     10.748
  Name = 
  18 active torsions:
  status: ('A' for Active; 'I' for Inactive)
    1  A    between atoms: N_1  and  N_11
    2  A    between atoms: N_1  and  C_33
    3  A    between atoms: C_3  and  N_44
    4  A    between atoms: N_11  and  C_20
    5  A    between atoms: C_12  and  C_21
    6  A    between atoms: C_12  and  C_30
    7  A    between atoms: C_14  and  C_23
    8  A    between atoms: C_14  and  C_29
    9  A    between atoms: C_14  and  C_32
   10  A    between atoms: O_17  and  C_21
   11  A    between atoms: C_18  and  N_44
   12  A    between atoms: C_19  and  C_23
   13  A    between atoms: C_19  and  C_27
   14  A    between atoms: C_27  and  C_28
   15  A    between atoms: C_28  and  C_42
   16  A    between atoms: C_29  and  C_37
   17  A    between atoms: C_31  and  C_37
   18  A    between atoms: C_40  and  C_42
                            x       y       z     vdW  Elec       q    Type
                         _______ _______ _______ _____ _____    ______ ____

>  <TORSDO>
F 18

$$$$
=
 OpenBabel11042412503D

 46 50  0  0  1  0  0  0  0  0999 V2000
  190.1860  177.2800  144.8170 C   0  0  0  0  0  0  0  0  0  0  0  0
  189.9590  178.5140  143.9810 C   0  0  0  0  0  2  0  0  0  0  0  0
  190.1680  175.8290  142.7810 C   0  0  0  0  0  2  0  0  0  0  0  0
  190.3930  177.0990  141.9690 C   0  0  2  0  0  3  0  0  0  0  0  0
  190.3540  176.0750  144.2520 C   0  0  0  0  0  3  0  0  0  0  0  0
  189.5180  178.2030  142.5490 C   0  0  0  0  0  2  0  0  0  0  0  0
  190.3450  177.4460  146.2300 N   0  0  0  0  0  2  0  0  0  0  0  0
  189.1200  177.4600  148.3240 C   0  0  0  0  0  2  0  0  0  0  0  0
  189.4300  178.2230  147.0540 C   0  0  2  0  0  3  0  0  0  0  0  0
  188.1190  177.4770  147.1860 C   0  0  2  0  0  3  0  0  0  0  0  0
  187.0640  178.4290  147.4850 N   0  0  0  0  0  2  0  0  0  0  0  0
  185.9700  178.1010  146.6680 N   0  0  0  0  0  0  0  0  0  0  0  0
  184.9850  178.9790  146.9860 O   0  0  0  0  0  1  0  0  0  0  0  0
  186.4300  177.0790  144.4830 C   0  0  0  0  0  2  0  0  0  0  0  0
  185.3140  179.2130  144.5750 C   0  0  0  0  0  2  0  0  0  0  0  0
  185.2470  178.7210  143.1350 C   0  0  1  0  0  0  0  0  0  0  0  0
  186.3610  178.3670  145.2830 C   0  0  1  0  0  3  0  0  0  0  0  0
  186.1300  177.4780  143.0560 C   0  0  0  0  0  2  0  0  0  0  0  0
  183.8160  178.3950  142.7980 C   0  0  0  0  0  0  0  0  0  0  0  0
  182.9010  178.5760  143.6490 O   0  0  0  0  0  0  0  0  0  0  0  0
  183.4880  177.9610  141.5140 O   0  0  0  0  0  0  0  0  0  0  0  0
  182.2180  177.9780  141.0860 O   0  0  0  0  0  1  0  0  0  0  0  0
  185.9980  179.2640  140.9010 O   0  0  0  0  0  1  0  0  0  0  0  0
  185.7760  179.7890  142.1780 C   0  0  0  0  0  2  0  0  0  0  0  0
  190.0210  176.8370  140.5230 C   0  0  0  0  0  2  0  0  0  0  0  0
  191.2480  176.9640  139.6270 C   0  0  0  0  0  2  0  0  0  0  0  0
  190.8720  177.1680  138.1530 C   0  0  1  0  0  3  0  0  0  0  0  0
  193.5500  174.9200  136.4150 C   0  0  0  0  0  2  0  0  0  0  0  0
  190.7820  174.7360  137.5010 C   0  0  0  0  0  2  0  0  0  0  0  0
  191.2210  173.6840  136.4960 C   0  0  0  0  0  2  0  0  0  0  0  0
  192.9870  175.9300  137.4080 C   0  0  2  0  0  3  0  0  0  0  0  0
  192.9580  173.2410  136.7950 S   0  0  0  0  0  0  0  0  0  0  0  0
  191.4630  176.0810  137.2280 C   0  0  2  0  0  3  0  0  0  0  0  0
  193.6380  177.1320  137.2020 F   0  0  0  0  0  0  0  0  0  0  0  0
  189.3530  177.2610  138.0270 C   0  0  0  0  0  2  0  0  0  0  0  0
  188.9150  178.5820  137.3980 C   0  0  0  0  0  2  0  0  0  0  0  0
  187.5040  178.5550  136.8000 C   0  0  2  0  0  3  0  0  0  0  0  0
  186.5430  178.6710  137.8020 O   0  0  0  0  0  1  0  0  0  0  0  0
  187.2390  177.3090  135.9600 C   0  0  0  0  0  2  0  0  0  0  0  0
  185.7580  176.9250  135.9580 C   0  0  0  0  0  2  0  0  0  0  0  0
  183.9220  173.6320  136.8410 C   0  0  0  0  0  2  0  0  0  0  0  0
  186.2390  173.2990  137.2420 C   0  0  0  0  0  2  0  0  0  0  0  0
  184.9010  173.1440  137.8120 N   0  0  0  0  0  2  0  0  0  0  0  0
  185.5120  175.4260  136.1450 C   0  0  0  0  0  3  0  0  0  0  0  0
  184.0940  175.1340  136.6370 C   0  0  0  0  0  2  0  0  0  0  0  0
  186.5610  174.7810  137.0540 C   0  0  0  0  0  2  0  0  0  0  0  0
  1  7  1  0  0  0  0
  2  1  1  0  0  0  0
  3  5  1  0  0  0  0
  4 25  1  6  0  0  0
  4  6  1  0  0  0  0
  4  3  1  0  0  0  0
  5  1  2  0  0  0  0
  6  2  1  0  0  0  0
  9  7  1  6  0  0  0
  9 10  1  0  0  0  0
  9  8  1  0  0  0  0
 10 11  1  1  0  0  0
 10  8  1  0  0  0  0
 12 13  1  0  0  0  0
 12 11  1  0  0  0  0
 14 17  1  0  0  0  0
 15 17  1  0  0  0  0
 16 24  1  6  0  0  0
 16 15  1  0  0  0  0
 17 12  1  1  0  0  0
 18 16  1  0  0  0  0
 18 14  1  0  0  0  0
 19 16  1  0  0  0  0
 19 20  2  0  0  0  0
 21 19  1  0  0  0  0
 22 21  1  0  0  0  0
 23 24  1  0  0  0  0
 26 25  1  0  0  0  0
 27 35  1  1  0  0  0
 27 26  1  0  0  0  0
 28 32  1  0  0  0  0
 28 31  1  0  0  0  0
 30 32  1  0  0  0  0
 30 29  1  0  0  0  0
 31 34  1  6  0  0  0
 33 31  1  0  0  0  0
 33 29  1  0  0  0  0
 33 27  1  1  0  0  0
 36 35  1  0  0  0  0
 37 36  1  0  0  0  0
 37 38  1  1  0  0  0
 39 37  1  0  0  0  0
 40 39  1  0  0  0  0
 40 44  1  0  0  0  0
 41 43  1  0  0  0  0
 42 43  1  0  0  0  0
 44 45  1  0  0  0  0
 44 46  1  0  0  0  0
 45 41  1  0  0  0  0
 46 42  1  0  0  0  0
M  END
>  <MODEL>
7

>  <REMARK>
 VINA RESULT:      -7.1      5.432     11.091
  Name = 
  18 active torsions:
  status: ('A' for Active; 'I' for Inactive)
    1  A    between atoms: N_1  and  N_11
    2  A    between atoms: N_1  and  C_33
    3  A    between atoms: C_3  and  N_44
    4  A    between atoms: N_11  and  C_20
    5  A    between atoms: C_12  and  C_21
    6  A    between atoms: C_12  and  C_30
    7  A    between atoms: C_14  and  C_23
    8  A    between atoms: C_14  and  C_29
    9  A    between atoms: C_14  and  C_32
   10  A    between atoms: O_17  and  C_21
   11  A    between atoms: C_18  and  N_44
   12  A    between atoms: C_19  and  C_23
   13  A    between atoms: C_19  and  C_27
   14  A    between atoms: C_27  and  C_28
   15  A    between atoms: C_28  and  C_42
   16  A    between atoms: C_29  and  C_37
   17  A    between atoms: C_31  and  C_37
   18  A    between atoms: C_40  and  C_42
                            x       y       z     vdW  Elec       q    Type
                         _______ _______ _______ _____ _____    ______ ____

>  <TORSDO>
F 18

$$$$
=
 OpenBabel11042412503D

 46 50  0  0  1  0  0  0  0  0999 V2000
  189.9630  176.7830  137.9950 C   0  0  0  0  0  0  0  0  0  0  0  0
  188.7640  177.6810  138.1610 C   0  0  0  0  0  2  0  0  0  0  0  0
  190.2690  176.6360  140.4710 C   0  0  0  0  0  2  0  0  0  0  0  0
  188.8390  177.1460  140.6000 C   0  0  2  0  0  3  0  0  0  0  0  0
  190.5930  176.2540  139.0550 C   0  0  0  0  0  3  0  0  0  0  0  0
  188.6270  178.2530  139.5740 C   0  0  0  0  0  2  0  0  0  0  0  0
  190.3390  176.4040  136.6660 N   0  0  0  0  0  2  0  0  0  0  0  0
  191.6900  176.2570  134.6570 C   0  0  0  0  0  2  0  0  0  0  0  0
  191.6890  176.5530  136.1410 C   0  0  2  0  0  3  0  0  0  0  0  0
  192.1820  175.2130  135.6390 C   0  0  2  0  0  3  0  0  0  0  0  0
  193.6340  175.2100  135.6540 N   0  0  0  0  0  2  0  0  0  0  0  0
  194.0360  174.0480  136.3320 N   0  0  0  0  0  0  0  0  0  0  0  0
  193.4500  173.0110  135.6820 O   0  0  0  0  0  1  0  0  0  0  0  0
  196.1180  175.2560  135.8480 C   0  0  0  0  0  2  0  0  0  0  0  0
  196.1470  173.4500  137.4420 C   0  0  0  0  0  2  0  0  0  0  0  0
  197.4930  174.1560  137.5240 C   0  0  1  0  0  0  0  0  0  0  0  0
  195.4820  173.9130  136.1550 C   0  0  1  0  0  3  0  0  0  0  0  0
  197.5320  175.1590  136.3740 C   0  0  0  0  0  2  0  0  0  0  0  0
  197.5980  174.8520  138.8560 C   0  0  0  0  0  0  0  0  0  0  0  0
  198.5600  175.6330  139.0960 O   0  0  0  0  0  0  0  0  0  0  0  0
  196.5870  174.6910  139.8030 O   0  0  0  0  0  0  0  0  0  0  0  0
  195.4410  175.3790  139.7080 O   0  0  0  0  0  1  0  0  0  0  0  0
  198.1540  171.8470  137.2390 O   0  0  0  0  0  1  0  0  0  0  0  0
  198.6360  173.1530  137.3700 C   0  0  0  0  0  2  0  0  0  0  0  0
  188.6250  177.6800  142.0030 C   0  0  0  0  0  2  0  0  0  0  0  0
  188.5070  176.5310  142.9970 C   0  0  0  0  0  2  0  0  0  0  0  0
  188.0320  177.0030  144.3780 C   0  0  1  0  0  3  0  0  0  0  0  0
  190.0440  177.3240  147.7090 C   0  0  0  0  0  2  0  0  0  0  0  0
  190.4870  176.6670  144.8370 C   0  0  0  0  0  2  0  0  0  0  0  0
  191.6870  177.1110  145.6570 C   0  0  0  0  0  2  0  0  0  0  0  0
  188.9150  176.8930  146.7800 C   0  0  2  0  0  3  0  0  0  0  0  0
  191.5740  176.4140  147.3320 S   0  0  0  0  0  0  0  0  0  0  0  0
  189.2010  177.3380  145.3320 C   0  0  2  0  0  3  0  0  0  0  0  0
  187.7420  177.4510  147.2540 F   0  0  0  0  0  0  0  0  0  0  0  0
  187.0780  178.1830  144.2080 C   0  0  0  0  0  2  0  0  0  0  0  0
  185.6590  177.8350  144.6530 C   0  0  0  0  0  2  0  0  0  0  0  0
  184.7020  179.0320  144.6920 C   0  0  2  0  0  3  0  0  0  0  0  0
  183.9230  179.0010  145.8470 O   0  0  0  0  0  1  0  0  0  0  0  0
  183.8100  179.1190  143.4590 C   0  0  0  0  0  2  0  0  0  0  0  0
  184.6170  179.3760  142.1850 C   0  0  0  0  0  2  0  0  0  0  0  0
  184.5330  177.8130  138.6430 C   0  0  0  0  0  2  0  0  0  0  0  0
  182.6490  177.0000  139.8380 C   0  0  0  0  0  2  0  0  0  0  0  0
  183.0870  177.6050  138.5810 N   0  0  0  0  0  2  0  0  0  0  0  0
  184.3460  178.3620  141.0710 C   0  0  0  0  0  3  0  0  0  0  0  0
  184.8660  178.8450  139.7170 C   0  0  0  0  0  2  0  0  0  0  0  0
  182.8670  177.9750  140.9940 C   0  0  0  0  0  2  0  0  0  0  0  0
  1  2  1  0  0  0  0
  1  5  2  0  0  0  0
  2  6  1  0  0  0  0
  3  4  1  0  0  0  0
  4 25  1  1  0  0  0
  5  3  1  0  0  0  0
  6  4  1  0  0  0  0
  7  1  1  0  0  0  0
  8 10  1  0  0  0  0
  8  9  1  0  0  0  0
  9  7  1  1  0  0  0
 10 11  1  6  0  0  0
 10  9  1  0  0  0  0
 11 12  1  0  0  0  0
 13 12  1  0  0  0  0
 14 17  1  0  0  0  0
 14 18  1  0  0  0  0
 15 16  1  0  0  0  0
 16 24  1  6  0  0  0
 16 19  1  0  0  0  0
 17 12  1  1  0  0  0
 17 15  1  0  0  0  0
 18 16  1  0  0  0  0
 19 20  2  0  0  0  0
 19 21  1  0  0  0  0
 22 21  1  0  0  0  0
 23 24  1  0  0  0  0
 25 26  1  0  0  0  0
 27 26  1  6  0  0  0
 29 33  1  0  0  0  0
 29 30  1  0  0  0  0
 30 32  1  0  0  0  0
 31 34  1  1  0  0  0
 31 28  1  0  0  0  0
 32 28  1  0  0  0  0
 33 27  1  6  0  0  0
 33 31  1  0  0  0  0
 35 27  1  0  0  0  0
 35 36  1  0  0  0  0
 36 37  1  0  0  0  0
 37 38  1  1  0  0  0
 39 37  1  0  0  0  0
 40 39  1  0  0  0  0
 41 45  1  0  0  0  0
 42 46  1  0  0  0  0
 43 41  1  0  0  0  0
 43 42  1  0  0  0  0
 44 40  1  0  0  0  0
 45 44  1  0  0  0  0
 46 44  1  0  0  0  0
M  END
>  <MODEL>
8

>  <REMARK>
 VINA RESULT:      -7.1      2.859      5.467
  Name = 
  18 active torsions:
  status: ('A' for Active; 'I' for Inactive)
    1  A    between atoms: N_1  and  N_11
    2  A    between atoms: N_1  and  C_33
    3  A    between atoms: C_3  and  N_44
    4  A    between atoms: N_11  and  C_20
    5  A    between atoms: C_12  and  C_21
    6  A    between atoms: C_12  and  C_30
    7  A    between atoms: C_14  and  C_23
    8  A    between atoms: C_14  and  C_29
    9  A    between atoms: C_14  and  C_32
   10  A    between atoms: O_17  and  C_21
   11  A    between atoms: C_18  and  N_44
   12  A    between atoms: C_19  and  C_23
   13  A    between atoms: C_19  and  C_27
   14  A    between atoms: C_27  and  C_28
   15  A    between atoms: C_28  and  C_42
   16  A    between atoms: C_29  and  C_37
   17  A    between atoms: C_31  and  C_37
   18  A    between atoms: C_40  and  C_42
                            x       y       z     vdW  Elec       q    Type
                         _______ _______ _______ _____ _____    ______ ____

>  <TORSDO>
F 18

$$$$
=
 OpenBabel11042412503D

 46 50  0  0  1  0  0  0  0  0999 V2000
  183.5620  178.8030  141.0850 C   0  0  0  0  0  0  0  0  0  0  0  0
  182.7710  178.4450  142.3180 C   0  0  0  0  0  2  0  0  0  0  0  0
  185.6540  179.0540  142.4300 C   0  0  0  0  0  2  0  0  0  0  0  0
  184.9480  178.2710  143.5310 C   0  0  2  0  0  3  0  0  0  0  0  0
  184.8880  179.0040  141.1390 C   0  0  0  0  0  3  0  0  0  0  0  0
  183.5080  178.7600  143.6210 C   0  0  0  0  0  2  0  0  0  0  0  0
  182.8810  178.7970  139.8250 N   0  0  0  0  0  2  0  0  0  0  0  0
  184.0370  177.9050  137.8880 C   0  0  0  0  0  2  0  0  0  0  0  0
  182.9280  177.6800  138.8940 C   0  0  2  0  0  3  0  0  0  0  0  0
  182.5980  178.1750  137.5010 C   0  0  2  0  0  3  0  0  0  0  0  0
  182.0930  177.0630  136.7140 N   0  0  0  0  0  2  0  0  0  0  0  0
  181.0640  176.4650  137.4590 N   0  0  0  0  0  0  0  0  0  0  0  0
  179.9380  177.1700  137.1800 O   0  0  0  0  0  1  0  0  0  0  0  0
  181.2560  175.0370  135.4720 C   0  0  0  0  0  2  0  0  0  0  0  0
  181.7960  174.1250  137.6360 C   0  0  0  0  0  2  0  0  0  0  0  0
  182.2320  173.1090  136.5880 C   0  0  1  0  0  0  0  0  0  0  0  0
  180.8730  175.1110  136.9380 C   0  0  1  0  0  3  0  0  0  0  0  0
  181.6990  173.6080  135.2470 C   0  0  0  0  0  2  0  0  0  0  0  0
  183.7360  173.0310  136.5820 C   0  0  0  0  0  0  0  0  0  0  0  0
  184.3490  172.5960  135.5670 O   0  0  0  0  0  0  0  0  0  0  0  0
  184.4590  173.5110  137.6730 O   0  0  0  0  0  0  0  0  0  0  0  0
  185.6630  173.0050  137.9750 O   0  0  0  0  0  1  0  0  0  0  0  0
  180.3930  171.8420  137.5170 O   0  0  0  0  0  1  0  0  0  0  0  0
  181.6410  171.7330  136.8950 C   0  0  0  0  0  2  0  0  0  0  0  0
  185.6670  178.5030  144.8450 C   0  0  0  0  0  2  0  0  0  0  0  0
  186.7240  177.4270  145.0700 C   0  0  0  0  0  2  0  0  0  0  0  0
  188.0540  177.7670  144.3850 C   0  0  1  0  0  3  0  0  0  0  0  0
  190.0110  177.4760  147.7520 C   0  0  0  0  0  2  0  0  0  0  0  0
  190.3650  176.8770  144.8550 C   0  0  0  0  0  2  0  0  0  0  0  0
  191.6140  177.0060  145.7100 C   0  0  0  0  0  2  0  0  0  0  0  0
  188.8370  177.3490  146.7880 C   0  0  2  0  0  3  0  0  0  0  0  0
  191.3130  176.2700  147.3450 S   0  0  0  0  0  0  0  0  0  0  0  0
  189.2460  177.7900  145.3690 C   0  0  2  0  0  3  0  0  0  0  0  0
  187.8040  178.1290  147.2770 F   0  0  0  0  0  0  0  0  0  0  0  0
  188.2890  176.8000  143.2270 C   0  0  0  0  0  2  0  0  0  0  0  0
  188.5630  177.5370  141.9180 C   0  0  0  0  0  2  0  0  0  0  0  0
  189.8000  177.0370  141.1640 C   0  0  2  0  0  3  0  0  0  0  0  0
  190.9640  177.5500  141.7320 O   0  0  0  0  0  1  0  0  0  0  0  0
  189.7580  177.3590  139.6730 C   0  0  0  0  0  2  0  0  0  0  0  0
  188.6030  178.3000  139.3240 C   0  0  0  0  0  2  0  0  0  0  0  0
  187.0580  176.0110  136.6090 C   0  0  0  0  0  2  0  0  0  0  0  0
  187.5560  178.1010  135.5970 C   0  0  0  0  0  2  0  0  0  0  0  0
  187.6970  176.6520  135.4600 N   0  0  0  0  0  2  0  0  0  0  0  0
  187.8260  177.8810  138.0740 C   0  0  0  0  0  3  0  0  0  0  0  0
  187.8110  176.3640  137.8890 C   0  0  0  0  0  2  0  0  0  0  0  0
  188.3350  178.5910  136.8170 C   0  0  0  0  0  2  0  0  0  0  0  0
  1  5  2  0  0  0  0
  1  2  1  0  0  0  0
  2  6  1  0  0  0  0
  3  4  1  0  0  0  0
  4  6  1  0  0  0  0
  4 25  1  1  0  0  0
  5  3  1  0  0  0  0
  7  1  1  0  0  0  0
  8  9  1  0  0  0  0
  9  7  1  1  0  0  0
 10 11  1  6  0  0  0
 10  8  1  0  0  0  0
 10  9  1  0  0  0  0
 11 12  1  0  0  0  0
 13 12  1  0  0  0  0
 14 17  1  0  0  0  0
 16 24  1  1  0  0  0
 16 15  1  0  0  0  0
 17 12  1  1  0  0  0
 17 15  1  0  0  0  0
 18 14  1  0  0  0  0
 18 16  1  0  0  0  0
 19 16  1  0  0  0  0
 19 21  1  0  0  0  0
 20 19  2  0  0  0  0
 21 22  1  0  0  0  0
 24 23  1  0  0  0  0
 25 26  1  0  0  0  0
 27 35  1  6  0  0  0
 27 26  1  0  0  0  0
 29 33  1  0  0  0  0
 29 30  1  0  0  0  0
 30 32  1  0  0  0  0
 31 34  1  1  0  0  0
 31 28  1  0  0  0  0
 32 28  1  0  0  0  0
 33 27  1  6  0  0  0
 33 31  1  0  0  0  0
 36 35  1  0  0  0  0
 37 38  1  1  0  0  0
 37 36  1  0  0  0  0
 39 37  1  0  0  0  0
 40 39  1  0  0  0  0
 41 45  1  0  0  0  0
 42 46  1  0  0  0  0
 43 42  1  0  0  0  0
 43 41  1  0  0  0  0
 44 40  1  0  0  0  0
 45 44  1  0  0  0  0
 46 44  1  0  0  0  0
M  END
>  <MODEL>
9

>  <REMARK>
 VINA RESULT:      -7.0      5.484     10.438
  Name = 
  18 active torsions:
  status: ('A' for Active; 'I' for Inactive)
    1  A    between atoms: N_1  and  N_11
    2  A    between atoms: N_1  and  C_33
    3  A    between atoms: C_3  and  N_44
    4  A    between atoms: N_11  and  C_20
    5  A    between atoms: C_12  and  C_21
    6  A    between atoms: C_12  and  C_30
    7  A    between atoms: C_14  and  C_23
    8  A    between atoms: C_14  and  C_29
    9  A    between atoms: C_14  and  C_32
   10  A    between atoms: O_17  and  C_21
   11  A    between atoms: C_18  and  N_44
   12  A    between atoms: C_19  and  C_23
   13  A    between atoms: C_19  and  C_27
   14  A    between atoms: C_27  and  C_28
   15  A    between atoms: C_28  and  C_42
   16  A    between atoms: C_29  and  C_37
   17  A    between atoms: C_31  and  C_37
   18  A    between atoms: C_40  and  C_42
                            x       y       z     vdW  Elec       q    Type
                         _______ _______ _______ _____ _____    ______ ____

>  <TORSDO>
F 18

$$$$
