=
 OpenBabel11042410593D

 29 32  0  0  1  0  0  0  0  0999 V2000
  186.7920  177.8390  145.7470 C   0  0  0  0  0  0  0  0  0  0  0  0
  183.9360  179.2910  142.5020 O   0  0  0  0  0  1  0  0  0  0  0  0
  184.7440  178.6520  145.5970 C   0  0  0  0  0  0  0  0  0  0  0  0
  189.1050  177.2460  146.3300 C   0  0  0  0  0  3  0  0  0  0  0  0
  190.7230  177.7140  144.5520 C   0  0  0  0  0  3  0  0  0  0  0  0
  183.5420  179.2610  145.1410 N   0  0  0  0  0  1  0  0  0  0  0  0
  188.0310  177.5080  145.3580 C   0  0  0  0  0  0  0  0  0  0  0  0
  188.3650  177.3970  143.8750 C   0  0  2  0  0  3  0  0  0  0  0  0
  189.7860  177.8090  143.6000 C   0  0  0  0  0  3  0  0  0  0  0  0
  185.9050  178.8690  141.1090 C   0  0  0  0  0  0  0  0  0  0  0  0
  186.2320  177.9870  147.0840 C   0  0  0  0  0  3  0  0  0  0  0  0
  187.4640  178.2660  141.3050 S   0  0  0  0  0  0  0  0  0  0  0  0
  186.0750  178.4410  143.3960 C   0  0  0  0  0  0  0  0  0  0  0  0
  185.0270  178.4560  146.9860 N   0  0  0  0  0  0  0  0  0  0  0  0
  190.3830  177.3070  145.9400 C   0  0  0  0  0  0  0  0  0  0  0  0
  185.2560  178.8920  142.3450 C   0  0  0  0  0  0  0  0  0  0  0  0
  187.3540  178.0760  142.9740 C   0  0  0  0  0  0  0  0  0  0  0  0
  185.7700  178.2980  144.8340 C   0  0  0  0  0  0  0  0  0  0  0  0
  185.3550  179.2370  139.8410 N   0  0  0  0  0  2  0  0  0  0  0  0
  184.7970  178.2890  138.8850 C   0  0  1  0  0  3  0  0  0  0  0  0
  182.9870  179.8600  139.1170 O   0  0  0  0  0  1  0  0  0  0  0  0
  183.3210  178.5920  138.6370 C   0  0  0  0  0  2  0  0  0  0  0  0
  185.5940  178.3430  137.5920 C   0  0  0  0  0  2  0  0  0  0  0  0
  186.7430  177.3890  137.6480 C   0  0  0  0  0  3  0  0  0  0  0  0
  188.0080  177.7960  137.5960 C   0  0  0  0  0  3  0  0  0  0  0  0
  188.3450  179.1760  137.4830 N   0  0  0  0  0  1  0  0  0  0  0  0
  191.4110  177.0600  146.9010 N   0  0  0  0  0  2  0  0  0  0  0  0
  192.1330  175.8000  146.9700 C   0  0  0  0  0  2  0  0  0  0  0  0
  192.8360  175.6930  148.3050 C   0  0  0  0  0  1  0  0  0  0  0  0
  1 11  1  0  0  0  0
  3 14  1  0  0  0  0
  5 15  1  0  0  0  0
  6  3  1  0  0  0  0
  7  1  2  0  0  0  0
  7  4  1  0  0  0  0
  8  9  1  1  0  0  0
  8  7  1  0  0  0  0
  9  5  2  0  0  0  0
 10 12  1  0  0  0  0
 10 16  2  0  0  0  0
 12 17  1  0  0  0  0
 13 18  1  0  0  0  0
 14 11  2  0  0  0  0
 15  4  2  0  0  0  0
 15 27  1  0  0  0  0
 16  2  1  0  0  0  0
 16 13  1  0  0  0  0
 17 13  2  0  0  0  0
 17  8  1  0  0  0  0
 18  3  2  0  0  0  0
 18  1  1  0  0  0  0
 19 10  1  0  0  0  0
 20 23  1  6  0  0  0
 20 19  1  0  0  0  0
 22 20  1  0  0  0  0
 22 21  1  0  0  0  0
 23 24  1  0  0  0  0
 25 24  2  0  0  0  0
 26 25  1  0  0  0  0
 27 28  1  0  0  0  0
 28 29  1  0  0  0  0
M  END
>  <MODEL>
1

>  <REMARK>
 VINA RESULT:      -9.2      0.000      0.000
  Name = 
  7 active torsions:
  status: ('A' for Active; 'I' for Inactive)
    1  A    between atoms: C_1  and  C_15
    2  A    between atoms: N_5  and  C_17
    3  A    between atoms: N_5  and  CA_23
    4  A    between atoms: C_9  and  N_13
    5  A    between atoms: N_13  and  C_25
    6  A    between atoms: C_15  and  CA_23
    7  A    between atoms: CA_23  and  C_27
                            x       y       z     vdW  Elec       q    Type
                         _______ _______ _______ _____ _____    ______ ____

>  <TORSDO>
F 7

$$$$
=
 OpenBabel11042410593D

 29 32  0  0  1  0  0  0  0  0999 V2000
  186.9140  177.8330  145.6920 C   0  0  0  0  0  0  0  0  0  0  0  0
  183.7370  179.3410  142.7890 O   0  0  0  0  0  1  0  0  0  0  0  0
  184.8480  178.6130  145.7680 C   0  0  0  0  0  0  0  0  0  0  0  0
  189.2810  177.2650  146.0300 C   0  0  0  0  0  3  0  0  0  0  0  0
  190.7130  177.8240  144.1230 C   0  0  0  0  0  3  0  0  0  0  0  0
  183.5990  179.2140  145.4510 N   0  0  0  0  0  1  0  0  0  0  0  0
  188.1140  177.5390  145.1760 C   0  0  0  0  0  0  0  0  0  0  0  0
  188.3060  177.4860  143.6640 C   0  0  2  0  0  3  0  0  0  0  0  0
  189.6880  177.9330  143.2690 C   0  0  0  0  0  3  0  0  0  0  0  0
  185.5690  179.0030  141.2000 C   0  0  0  0  0  0  0  0  0  0  0  0
  186.4830  177.9250  147.0810 C   0  0  0  0  0  3  0  0  0  0  0  0
  187.1480  178.4240  141.2240 S   0  0  0  0  0  0  0  0  0  0  0  0
  185.9640  178.5010  143.4430 C   0  0  0  0  0  0  0  0  0  0  0  0
  185.2660  178.3740  147.1150 N   0  0  0  0  0  0  0  0  0  0  0  0
  190.5140  177.3630  145.5220 C   0  0  0  0  0  0  0  0  0  0  0  0
  185.0410  178.9730  142.4920 C   0  0  0  0  0  0  0  0  0  0  0  0
  187.2030  178.1750  142.8880 C   0  0  0  0  0  0  0  0  0  0  0  0
  185.8020  178.3040  144.8980 C   0  0  0  0  0  0  0  0  0  0  0  0
  184.8940  179.4050  140.0040 N   0  0  0  0  0  2  0  0  0  0  0  0
  184.1920  178.4880  139.1160 C   0  0  1  0  0  3  0  0  0  0  0  0
  186.1700  178.8040  137.7790 O   0  0  0  0  0  1  0  0  0  0  0  0
  185.1590  177.8930  138.0940 C   0  0  0  0  0  2  0  0  0  0  0  0
  183.5200  177.3990  139.9360 C   0  0  0  0  0  2  0  0  0  0  0  0
  182.0440  177.4060  139.7030 C   0  0  0  0  0  3  0  0  0  0  0  0
  181.4290  176.4520  139.0120 C   0  0  0  0  0  3  0  0  0  0  0  0
  182.1460  175.3570  138.4480 N   0  0  0  0  0  1  0  0  0  0  0  0
  191.6330  177.1030  146.3710 N   0  0  0  0  0  2  0  0  0  0  0  0
  192.0780  175.7560  146.6900 C   0  0  0  0  0  2  0  0  0  0  0  0
  192.6630  175.7350  148.0860 C   0  0  0  0  0  1  0  0  0  0  0  0
  1 11  1  0  0  0  0
  3 14  1  0  0  0  0
  5 15  1  0  0  0  0
  6  3  1  0  0  0  0
  7  1  2  0  0  0  0
  7  4  1  0  0  0  0
  8  9  1  1  0  0  0
  8  7  1  0  0  0  0
  9  5  2  0  0  0  0
 10 12  1  0  0  0  0
 10 16  2  0  0  0  0
 11 14  2  0  0  0  0
 12 17  1  0  0  0  0
 13 18  1  0  0  0  0
 15  4  2  0  0  0  0
 15 27  1  0  0  0  0
 16  2  1  0  0  0  0
 16 13  1  0  0  0  0
 17 13  2  0  0  0  0
 17  8  1  0  0  0  0
 18  1  1  0  0  0  0
 18  3  2  0  0  0  0
 19 10  1  0  0  0  0
 20 22  1  6  0  0  0
 20 23  1  0  0  0  0
 20 19  1  0  0  0  0
 21 22  1  0  0  0  0
 24 23  1  0  0  0  0
 25 24  2  0  0  0  0
 26 25  1  0  0  0  0
 27 28  1  0  0  0  0
 28 29  1  0  0  0  0
M  END
>  <MODEL>
2

>  <REMARK>
 VINA RESULT:      -9.0      1.431      2.334
  Name = 
  7 active torsions:
  status: ('A' for Active; 'I' for Inactive)
    1  A    between atoms: C_1  and  C_15
    2  A    between atoms: N_5  and  C_17
    3  A    between atoms: N_5  and  CA_23
    4  A    between atoms: C_9  and  N_13
    5  A    between atoms: N_13  and  C_25
    6  A    between atoms: C_15  and  CA_23
    7  A    between atoms: CA_23  and  C_27
                            x       y       z     vdW  Elec       q    Type
                         _______ _______ _______ _____ _____    ______ ____

>  <TORSDO>
F 7

$$$$
=
 OpenBabel11042410593D

 29 32  0  0  1  0  0  0  0  0999 V2000
  187.4520  177.5900  145.0630 C   0  0  0  0  0  0  0  0  0  0  0  0
  185.7970  178.8220  140.9960 O   0  0  0  0  0  1  0  0  0  0  0  0
  185.5890  178.4330  144.2280 C   0  0  0  0  0  0  0  0  0  0  0  0
  189.4450  176.9990  146.3750 C   0  0  0  0  0  3  0  0  0  0  0  0
  191.5490  177.2780  145.1530 C   0  0  0  0  0  3  0  0  0  0  0  0
  184.6140  179.0260  143.3780 N   0  0  0  0  0  1  0  0  0  0  0  0
  188.7330  177.2000  145.1020 C   0  0  0  0  0  0  0  0  0  0  0  0
  189.5000  176.9560  143.8070 C   0  0  2  0  0  3  0  0  0  0  0  0
  190.9540  177.3110  143.9540 C   0  0  0  0  0  3  0  0  0  0  0  0
  188.0760  178.2390  140.3150 C   0  0  0  0  0  0  0  0  0  0  0  0
  186.5170  177.8640  146.1470 C   0  0  0  0  0  3  0  0  0  0  0  0
  189.4700  177.6220  141.0270 S   0  0  0  0  0  0  0  0  0  0  0  0
  187.5180  178.0050  142.5670 C   0  0  0  0  0  0  0  0  0  0  0  0
  185.4230  178.3490  145.6460 N   0  0  0  0  0  0  0  0  0  0  0  0
  190.7820  176.9990  146.3950 C   0  0  0  0  0  0  0  0  0  0  0  0
  187.0820  178.3820  141.2840 C   0  0  0  0  0  0  0  0  0  0  0  0
  188.8460  177.5770  142.5890 C   0  0  0  0  0  0  0  0  0  0  0  0
  186.7810  177.9920  143.8470 C   0  0  0  0  0  0  0  0  0  0  0  0
  187.9590  178.5100  138.9140 N   0  0  0  0  0  2  0  0  0  0  0  0
  187.3300  177.6080  137.9580 C   0  0  1  0  0  3  0  0  0  0  0  0
  186.4390  177.5030  135.7230 O   0  0  0  0  0  1  0  0  0  0  0  0
  186.8830  178.3790  136.7170 C   0  0  0  0  0  2  0  0  0  0  0  0
  188.3000  176.4960  137.5940 C   0  0  0  0  0  2  0  0  0  0  0  0
  189.6120  177.0690  137.1660 C   0  0  0  0  0  3  0  0  0  0  0  0
  190.7740  176.5450  137.5450 C   0  0  0  0  0  3  0  0  0  0  0  0
  190.8370  175.3980  138.3890 N   0  0  0  0  0  1  0  0  0  0  0  0
  191.4530  176.8120  147.6420 N   0  0  0  0  0  2  0  0  0  0  0  0
  192.4250  175.7530  147.8580 C   0  0  0  0  0  2  0  0  0  0  0  0
  193.2400  176.0600  149.0960 C   0  0  0  0  0  1  0  0  0  0  0  0
  1  7  2  0  0  0  0
  1 11  1  0  0  0  0
  2 16  1  0  0  0  0
  3 14  1  0  0  0  0
  4 15  2  0  0  0  0
  5 15  1  0  0  0  0
  6  3  1  0  0  0  0
  7  4  1  0  0  0  0
  8  9  1  1  0  0  0
  8  7  1  0  0  0  0
  9  5  2  0  0  0  0
 10 12  1  0  0  0  0
 10 16  2  0  0  0  0
 12 17  1  0  0  0  0
 13 17  2  0  0  0  0
 13 18  1  0  0  0  0
 14 11  2  0  0  0  0
 15 27  1  0  0  0  0
 16 13  1  0  0  0  0
 17  8  1  0  0  0  0
 18  3  2  0  0  0  0
 18  1  1  0  0  0  0
 19 10  1  0  0  0  0
 20 22  1  6  0  0  0
 20 19  1  0  0  0  0
 21 22  1  0  0  0  0
 23 20  1  0  0  0  0
 24 25  2  0  0  0  0
 24 23  1  0  0  0  0
 25 26  1  0  0  0  0
 27 28  1  0  0  0  0
 28 29  1  0  0  0  0
M  END
>  <MODEL>
3

>  <REMARK>
 VINA RESULT:      -8.5      1.891      2.340
  Name = 
  7 active torsions:
  status: ('A' for Active; 'I' for Inactive)
    1  A    between atoms: C_1  and  C_15
    2  A    between atoms: N_5  and  C_17
    3  A    between atoms: N_5  and  CA_23
    4  A    between atoms: C_9  and  N_13
    5  A    between atoms: N_13  and  C_25
    6  A    between atoms: C_15  and  CA_23
    7  A    between atoms: CA_23  and  C_27
                            x       y       z     vdW  Elec       q    Type
                         _______ _______ _______ _____ _____    ______ ____

>  <TORSDO>
F 7

$$$$
=
 OpenBabel11042410593D

 29 32  0  0  1  0  0  0  0  0999 V2000
  186.9860  177.9100  143.4160 C   0  0  0  0  0  0  0  0  0  0  0  0
  187.1210  178.6630  138.9210 O   0  0  0  0  0  1  0  0  0  0  0  0
  185.7110  178.8180  141.8580 C   0  0  0  0  0  0  0  0  0  0  0  0
  188.2520  177.3110  145.4360 C   0  0  0  0  0  3  0  0  0  0  0  0
  190.6690  177.1490  145.0740 C   0  0  0  0  0  3  0  0  0  0  0  0
  185.2160  179.3770  140.6470 N   0  0  0  0  0  1  0  0  0  0  0  0
  188.0860  177.3870  143.9750 C   0  0  0  0  0  0  0  0  0  0  0  0
  189.2120  176.8550  143.0970 C   0  0  2  0  0  3  0  0  0  0  0  0
  190.5560  177.0590  143.7430 C   0  0  0  0  0  3  0  0  0  0  0  0
  189.3630  177.7220  139.2130 C   0  0  0  0  0  0  0  0  0  0  0  0
  185.7850  178.4580  144.0340 C   0  0  0  0  0  3  0  0  0  0  0  0
  190.2880  177.0700  140.4570 S   0  0  0  0  0  0  0  0  0  0  0  0
  188.0060  177.9130  141.1000 C   0  0  0  0  0  0  0  0  0  0  0  0
  185.0390  178.9800  143.1100 N   0  0  0  0  0  0  0  0  0  0  0  0
  189.4750  177.1600  145.9580 C   0  0  0  0  0  0  0  0  0  0  0  0
  188.1260  178.1300  139.7150 C   0  0  0  0  0  0  0  0  0  0  0  0
  189.1490  177.3450  141.6660 C   0  0  0  0  0  0  0  0  0  0  0  0
  186.8700  178.1880  142.0030 C   0  0  0  0  0  0  0  0  0  0  0  0
  189.8000  177.7790  137.8510 N   0  0  0  0  0  2  0  0  0  0  0  0
  189.7000  176.6670  136.9140 C   0  0  1  0  0  3  0  0  0  0  0  0
  188.1420  178.2550  135.9890 O   0  0  0  0  0  1  0  0  0  0  0  0
  188.7760  177.0320  135.7530 C   0  0  0  0  0  2  0  0  0  0  0  0
  191.0870  176.2960  136.4160 C   0  0  0  0  0  2  0  0  0  0  0  0
  191.7070  175.2740  137.3130 C   0  0  0  0  0  3  0  0  0  0  0  0
  192.8440  175.4970  137.9660 C   0  0  0  0  0  3  0  0  0  0  0  0
  193.5430  176.7330  137.8480 N   0  0  0  0  0  1  0  0  0  0  0  0
  189.6150  177.0980  147.3780 N   0  0  0  0  0  2  0  0  0  0  0  0
  189.3000  178.2200  148.2460 C   0  0  0  0  0  2  0  0  0  0  0  0
  187.9230  178.0260  148.8430 C   0  0  0  0  0  1  0  0  0  0  0  0
  1  7  2  0  0  0  0
  1 11  1  0  0  0  0
  2 16  1  0  0  0  0
  3 18  2  0  0  0  0
  3 14  1  0  0  0  0
  4 15  2  0  0  0  0
  5 15  1  0  0  0  0
  6  3  1  0  0  0  0
  7  4  1  0  0  0  0
  8  9  1  1  0  0  0
  8  7  1  0  0  0  0
  9  5  2  0  0  0  0
 10 16  2  0  0  0  0
 10 12  1  0  0  0  0
 12 17  1  0  0  0  0
 13 17  2  0  0  0  0
 13 18  1  0  0  0  0
 14 11  2  0  0  0  0
 15 27  1  0  0  0  0
 16 13  1  0  0  0  0
 17  8  1  0  0  0  0
 18  1  1  0  0  0  0
 19 10  1  0  0  0  0
 20 22  1  6  0  0  0
 20 19  1  0  0  0  0
 22 21  1  0  0  0  0
 23 20  1  0  0  0  0
 23 24  1  0  0  0  0
 24 25  2  0  0  0  0
 26 25  1  0  0  0  0
 27 28  1  0  0  0  0
 28 29  1  0  0  0  0
M  END
>  <MODEL>
4

>  <REMARK>
 VINA RESULT:      -8.4      2.760      4.059
  Name = 
  7 active torsions:
  status: ('A' for Active; 'I' for Inactive)
    1  A    between atoms: C_1  and  C_15
    2  A    between atoms: N_5  and  C_17
    3  A    between atoms: N_5  and  CA_23
    4  A    between atoms: C_9  and  N_13
    5  A    between atoms: N_13  and  C_25
    6  A    between atoms: C_15  and  CA_23
    7  A    between atoms: CA_23  and  C_27
                            x       y       z     vdW  Elec       q    Type
                         _______ _______ _______ _____ _____    ______ ____

>  <TORSDO>
F 7

$$$$
=
 OpenBabel11042410593D

 29 32  0  0  1  0  0  0  0  0999 V2000
  186.9870  177.9050  143.2660 C   0  0  0  0  0  0  0  0  0  0  0  0
  187.2870  178.6300  138.7740 O   0  0  0  0  0  1  0  0  0  0  0  0
  185.7730  178.8110  141.6580 C   0  0  0  0  0  0  0  0  0  0  0  0
  188.1760  177.3090  145.3330 C   0  0  0  0  0  3  0  0  0  0  0  0
  190.6040  177.1320  145.0590 C   0  0  0  0  0  3  0  0  0  0  0  0
  185.3250  179.3660  140.4270 N   0  0  0  0  0  1  0  0  0  0  0  0
  188.0620  177.3790  143.8670 C   0  0  0  0  0  0  0  0  0  0  0  0
  189.2170  176.8340  143.0330 C   0  0  2  0  0  3  0  0  0  0  0  0
  190.5370  177.0350  143.7250 C   0  0  0  0  0  3  0  0  0  0  0  0
  189.5110  177.6780  139.1510 C   0  0  0  0  0  0  0  0  0  0  0  0
  185.7680  178.4630  143.8370 C   0  0  0  0  0  3  0  0  0  0  0  0
  190.3870  177.0280  140.4320 S   0  0  0  0  0  0  0  0  0  0  0  0
  188.0890  177.8880  140.9880 C   0  0  0  0  0  0  0  0  0  0  0  0
  185.0580  178.9840  142.8840 N   0  0  0  0  0  0  0  0  0  0  0  0
  189.3780  177.1540  145.8990 C   0  0  0  0  0  0  0  0  0  0  0  0
  188.2600  178.0960  139.6070 C   0  0  0  0  0  0  0  0  0  0  0  0
  189.2070  177.3170  141.5970 C   0  0  0  0  0  0  0  0  0  0  0  0
  186.9230  178.1750  141.8470 C   0  0  0  0  0  0  0  0  0  0  0  0
  189.9960  177.7250  137.8050 N   0  0  0  0  0  2  0  0  0  0  0  0
  190.1060  176.5610  136.9360 C   0  0  1  0  0  3  0  0  0  0  0  0
  191.1340  174.6190  137.9220 O   0  0  0  0  0  1  0  0  0  0  0  0
  191.3990  175.8010  137.2260 C   0  0  0  0  0  2  0  0  0  0  0  0
  188.8900  175.6680  137.1250 C   0  0  0  0  0  2  0  0  0  0  0  0
  187.7620  176.1350  136.2630 C   0  0  0  0  0  3  0  0  0  0  0  0
  186.5510  175.5910  136.3210 C   0  0  0  0  0  3  0  0  0  0  0  0
  186.2540  174.5220  137.2170 N   0  0  0  0  0  1  0  0  0  0  0  0
  189.4680  177.1000  147.3240 N   0  0  0  0  0  2  0  0  0  0  0  0
  188.3020  176.9350  148.1760 C   0  0  0  0  0  2  0  0  0  0  0  0
  187.9750  178.2530  148.8440 C   0  0  0  0  0  1  0  0  0  0  0  0
  1 11  1  0  0  0  0
  1  7  2  0  0  0  0
  2 16  1  0  0  0  0
  3 18  2  0  0  0  0
  3 14  1  0  0  0  0
  4 15  2  0  0  0  0
  5 15  1  0  0  0  0
  6  3  1  0  0  0  0
  7  4  1  0  0  0  0
  8  9  1  1  0  0  0
  8  7  1  0  0  0  0
  9  5  2  0  0  0  0
 10 16  2  0  0  0  0
 10 12  1  0  0  0  0
 12 17  1  0  0  0  0
 13 17  2  0  0  0  0
 13 18  1  0  0  0  0
 14 11  2  0  0  0  0
 15 27  1  0  0  0  0
 16 13  1  0  0  0  0
 17  8  1  0  0  0  0
 18  1  1  0  0  0  0
 19 10  1  0  0  0  0
 20 23  1  1  0  0  0
 20 22  1  0  0  0  0
 20 19  1  0  0  0  0
 22 21  1  0  0  0  0
 24 25  2  0  0  0  0
 24 23  1  0  0  0  0
 25 26  1  0  0  0  0
 27 28  1  0  0  0  0
 28 29  1  0  0  0  0
M  END
>  <MODEL>
5

>  <REMARK>
 VINA RESULT:      -8.2      2.877      4.258
  Name = 
  7 active torsions:
  status: ('A' for Active; 'I' for Inactive)
    1  A    between atoms: C_1  and  C_15
    2  A    between atoms: N_5  and  C_17
    3  A    between atoms: N_5  and  CA_23
    4  A    between atoms: C_9  and  N_13
    5  A    between atoms: N_13  and  C_25
    6  A    between atoms: C_15  and  CA_23
    7  A    between atoms: CA_23  and  C_27
                            x       y       z     vdW  Elec       q    Type
                         _______ _______ _______ _____ _____    ______ ____

>  <TORSDO>
F 7

$$$$
=
 OpenBabel11042410593D

 29 32  0  0  1  0  0  0  0  0999 V2000
  186.7190  178.2000  145.4450 C   0  0  0  0  0  0  0  0  0  0  0  0
  190.7120  176.5750  143.9600 O   0  0  0  0  0  1  0  0  0  0  0  0
  188.5800  177.3690  146.2970 C   0  0  0  0  0  0  0  0  0  0  0  0
  184.4160  178.8330  144.8640 C   0  0  0  0  0  3  0  0  0  0  0  0
  183.7940  178.2860  142.5590 C   0  0  0  0  0  3  0  0  0  0  0  0
  189.8400  176.7330  146.4760 N   0  0  0  0  0  1  0  0  0  0  0  0
  185.8110  178.5180  144.5130 C   0  0  0  0  0  0  0  0  0  0  0  0
  186.2050  178.5570  143.0410 C   0  0  2  0  0  3  0  0  0  0  0  0
  185.0620  178.1410  142.1550 C   0  0  0  0  0  3  0  0  0  0  0  0
  189.6250  176.9390  141.7960 C   0  0  0  0  0  0  0  0  0  0  0  0
  186.5920  178.1150  146.8950 C   0  0  0  0  0  3  0  0  0  0  0  0
  188.1700  177.5580  141.2210 S   0  0  0  0  0  0  0  0  0  0  0  0
  188.4270  177.4790  143.7230 C   0  0  0  0  0  0  0  0  0  0  0  0
  187.6920  177.6360  147.3860 N   0  0  0  0  0  0  0  0  0  0  0  0
  183.4630  178.7600  143.9280 C   0  0  0  0  0  0  0  0  0  0  0  0
  189.6270  176.9730  143.1910 C   0  0  0  0  0  0  0  0  0  0  0  0
  187.4990  177.8300  142.7410 C   0  0  0  0  0  0  0  0  0  0  0  0
  188.0350  177.6910  145.1310 C   0  0  0  0  0  0  0  0  0  0  0  0
  190.6900  176.5050  140.9440 N   0  0  0  0  0  2  0  0  0  0  0  0
  191.3910  177.3720  140.0060 C   0  0  1  0  0  3  0  0  0  0  0  0
  193.7800  177.1110  139.8560 O   0  0  0  0  0  1  0  0  0  0  0  0
  192.7620  177.7560  140.5610 C   0  0  0  0  0  2  0  0  0  0  0  0
  191.5180  176.6720  138.6630 C   0  0  0  0  0  2  0  0  0  0  0  0
  190.1670  176.4180  138.0780 C   0  0  0  0  0  3  0  0  0  0  0  0
  189.8160  175.2330  137.5850 C   0  0  0  0  0  3  0  0  0  0  0  0
  190.7160  174.1280  137.5880 N   0  0  0  0  0  1  0  0  0  0  0  0
  182.1150  179.0600  144.2920 N   0  0  0  0  0  2  0  0  0  0  0  0
  181.0180  179.0130  143.3390 C   0  0  0  0  0  2  0  0  0  0  0  0
  179.7400  178.6390  144.0590 C   0  0  0  0  0  1  0  0  0  0  0  0
  1 11  1  0  0  0  0
  3  6  1  0  0  0  0
  3 14  1  0  0  0  0
  5 15  1  0  0  0  0
  7  4  1  0  0  0  0
  7  1  2  0  0  0  0
  8  9  1  6  0  0  0
  8  7  1  0  0  0  0
  9  5  2  0  0  0  0
 10 16  2  0  0  0  0
 11 14  2  0  0  0  0
 12 10  1  0  0  0  0
 12 17  1  0  0  0  0
 13 18  1  0  0  0  0
 15 27  1  0  0  0  0
 15  4  2  0  0  0  0
 16 13  1  0  0  0  0
 16  2  1  0  0  0  0
 17  8  1  0  0  0  0
 17 13  2  0  0  0  0
 18  1  1  0  0  0  0
 18  3  2  0  0  0  0
 19 10  1  0  0  0  0
 20 23  1  6  0  0  0
 20 22  1  0  0  0  0
 20 19  1  0  0  0  0
 21 22  1  0  0  0  0
 24 23  1  0  0  0  0
 25 26  1  0  0  0  0
 25 24  2  0  0  0  0
 28 29  1  0  0  0  0
 28 27  1  0  0  0  0
M  END
>  <MODEL>
6

>  <REMARK>
 VINA RESULT:      -8.2      3.525      6.407
  Name = 
  7 active torsions:
  status: ('A' for Active; 'I' for Inactive)
    1  A    between atoms: C_1  and  C_15
    2  A    between atoms: N_5  and  C_17
    3  A    between atoms: N_5  and  CA_23
    4  A    between atoms: C_9  and  N_13
    5  A    between atoms: N_13  and  C_25
    6  A    between atoms: C_15  and  CA_23
    7  A    between atoms: CA_23  and  C_27
                            x       y       z     vdW  Elec       q    Type
                         _______ _______ _______ _____ _____    ______ ____

>  <TORSDO>
F 7

$$$$
=
 OpenBabel11042410593D

 29 32  0  0  1  0  0  0  0  0999 V2000
  187.6560  177.6440  144.8390 C   0  0  0  0  0  0  0  0  0  0  0  0
  183.4380  179.1230  145.7380 O   0  0  0  0  0  1  0  0  0  0  0  0
  186.4410  178.1900  146.6010 C   0  0  0  0  0  0  0  0  0  0  0  0
  189.3880  177.2920  143.1310 C   0  0  0  0  0  3  0  0  0  0  0  0
  188.8060  178.2060  140.9340 C   0  0  0  0  0  3  0  0  0  0  0  0
  185.4260  178.6880  147.4640 N   0  0  0  0  0  1  0  0  0  0  0  0
  187.9970  177.5360  143.5480 C   0  0  0  0  0  0  0  0  0  0  0  0
  186.9370  177.6710  142.4620 C   0  0  2  0  0  3  0  0  0  0  0  0
  187.5020  178.3010  141.2180 C   0  0  0  0  0  3  0  0  0  0  0  0
  183.3360  179.1580  143.2920 C   0  0  0  0  0  0  0  0  0  0  0  0
  188.4730  177.5350  146.0420 C   0  0  0  0  0  3  0  0  0  0  0  0
  184.3290  178.7480  141.9970 S   0  0  0  0  0  0  0  0  0  0  0  0
  185.3220  178.4540  144.2910 C   0  0  0  0  0  0  0  0  0  0  0  0
  187.7480  177.8480  147.0710 N   0  0  0  0  0  0  0  0  0  0  0  0
  189.7640  177.5740  141.8780 C   0  0  0  0  0  0  0  0  0  0  0  0
  184.0130  178.9290  144.4900 C   0  0  0  0  0  0  0  0  0  0  0  0
  185.6560  178.3230  142.9420 C   0  0  0  0  0  0  0  0  0  0  0  0
  186.3510  178.0800  145.2820 C   0  0  0  0  0  0  0  0  0  0  0  0
  181.9890  179.6170  143.1380 N   0  0  0  0  0  2  0  0  0  0  0  0
  180.8580  178.7470  142.8410 C   0  0  1  0  0  3  0  0  0  0  0  0
  179.6600  177.3020  144.3500 O   0  0  0  0  0  1  0  0  0  0  0  0
  179.9380  178.6390  144.0560 C   0  0  0  0  0  2  0  0  0  0  0  0
  180.1100  179.2810  141.6310 C   0  0  0  0  0  2  0  0  0  0  0  0
  180.7710  178.8300  140.3690 C   0  0  0  0  0  3  0  0  0  0  0  0
  181.0280  179.6620  139.3640 C   0  0  0  0  0  3  0  0  0  0  0  0
  180.6850  181.0440  139.4320 N   0  0  0  0  0  1  0  0  0  0  0  0
  191.1200  177.3400  141.4960 N   0  0  0  0  0  2  0  0  0  0  0  0
  191.5520  177.3250  140.1080 C   0  0  0  0  0  2  0  0  0  0  0  0
  193.0640  177.3450  140.0490 C   0  0  0  0  0  1  0  0  0  0  0  0
  1 18  1  0  0  0  0
  1 11  1  0  0  0  0
  3 14  1  0  0  0  0
  3  6  1  0  0  0  0
  4  7  1  0  0  0  0
  5  9  2  0  0  0  0
  5 15  1  0  0  0  0
  7  1  2  0  0  0  0
  8  9  1  6  0  0  0
  8 17  1  0  0  0  0
  8  7  1  0  0  0  0
 10 16  2  0  0  0  0
 11 14  2  0  0  0  0
 12 17  1  0  0  0  0
 12 10  1  0  0  0  0
 13 16  1  0  0  0  0
 13 18  1  0  0  0  0
 15  4  2  0  0  0  0
 16  2  1  0  0  0  0
 17 13  2  0  0  0  0
 18  3  2  0  0  0  0
 19 10  1  0  0  0  0
 20 23  1  6  0  0  0
 20 19  1  0  0  0  0
 20 22  1  0  0  0  0
 22 21  1  0  0  0  0
 24 23  1  0  0  0  0
 25 26  1  0  0  0  0
 25 24  2  0  0  0  0
 27 15  1  0  0  0  0
 28 27  1  0  0  0  0
 29 28  1  0  0  0  0
M  END
>  <MODEL>
7

>  <REMARK>
 VINA RESULT:      -8.1      3.002      4.694
  Name = 
  7 active torsions:
  status: ('A' for Active; 'I' for Inactive)
    1  A    between atoms: C_1  and  C_15
    2  A    between atoms: N_5  and  C_17
    3  A    between atoms: N_5  and  CA_23
    4  A    between atoms: C_9  and  N_13
    5  A    between atoms: N_13  and  C_25
    6  A    between atoms: C_15  and  CA_23
    7  A    between atoms: CA_23  and  C_27
                            x       y       z     vdW  Elec       q    Type
                         _______ _______ _______ _____ _____    ______ ____

>  <TORSDO>
F 7

$$$$
=
 OpenBabel11042410593D

 29 32  0  0  1  0  0  0  0  0999 V2000
  187.0580  178.0180  144.5040 C   0  0  0  0  0  0  0  0  0  0  0  0
  190.8290  176.9630  142.1670 O   0  0  0  0  0  1  0  0  0  0  0  0
  189.0490  177.1430  144.8940 C   0  0  0  0  0  0  0  0  0  0  0  0
  184.6780  178.6190  144.3970 C   0  0  0  0  0  3  0  0  0  0  0  0
  183.7340  178.5140  142.1390 C   0  0  0  0  0  3  0  0  0  0  0  0
  190.3380  176.5580  144.7580 N   0  0  0  0  0  1  0  0  0  0  0  0
  186.0120  178.4640  143.7960 C   0  0  0  0  0  0  0  0  0  0  0  0
  186.1810  178.8220  142.3240 C   0  0  2  0  0  3  0  0  0  0  0  0
  184.9310  178.5270  141.5400 C   0  0  0  0  0  3  0  0  0  0  0  0
  189.4200  177.6920  140.3010 C   0  0  0  0  0  0  0  0  0  0  0  0
  187.1510  177.6350  145.9080 C   0  0  0  0  0  3  0  0  0  0  0  0
  187.8790  178.3280  140.0780 S   0  0  0  0  0  0  0  0  0  0  0  0
  188.5090  177.7610  142.4470 C   0  0  0  0  0  0  0  0  0  0  0  0
  188.3260  177.1310  146.1290 N   0  0  0  0  0  0  0  0  0  0  0  0
  183.5980  178.6810  143.6100 C   0  0  0  0  0  0  0  0  0  0  0  0
  189.6300  177.4430  141.6580 C   0  0  0  0  0  0  0  0  0  0  0  0
  187.4360  178.2480  141.7000 C   0  0  0  0  0  0  0  0  0  0  0  0
  188.3260  177.6610  143.9090 C   0  0  0  0  0  0  0  0  0  0  0  0
  190.3580  177.5020  139.2360 N   0  0  0  0  0  2  0  0  0  0  0  0
  190.2790  176.4230  138.2610 C   0  0  1  0  0  3  0  0  0  0  0  0
  189.4340  178.2670  136.9630 O   0  0  0  0  0  1  0  0  0  0  0  0
  189.9780  176.9840  136.8720 C   0  0  0  0  0  2  0  0  0  0  0  0
  191.5800  175.6370  138.2660 C   0  0  0  0  0  2  0  0  0  0  0  0
  192.3170  175.8410  136.9820 C   0  0  0  0  0  3  0  0  0  0  0  0
  193.6440  175.8190  136.9120 C   0  0  0  0  0  3  0  0  0  0  0  0
  194.4490  175.5980  138.0680 N   0  0  0  0  0  1  0  0  0  0  0  0
  182.3110  178.8210  144.2130 N   0  0  0  0  0  2  0  0  0  0  0  0
  181.1070  179.0810  143.4410 C   0  0  0  0  0  2  0  0  0  0  0  0
  179.9750  178.2260  143.9680 C   0  0  0  0  0  1  0  0  0  0  0  0
  1 11  1  0  0  0  0
  3 14  1  0  0  0  0
  5 15  1  0  0  0  0
  6  3  1  0  0  0  0
  7  4  1  0  0  0  0
  7  1  2  0  0  0  0
  8  9  1  6  0  0  0
  8  7  1  0  0  0  0
  9  5  2  0  0  0  0
 10 16  2  0  0  0  0
 11 14  2  0  0  0  0
 12 10  1  0  0  0  0
 12 17  1  0  0  0  0
 13 18  1  0  0  0  0
 15 27  1  0  0  0  0
 15  4  2  0  0  0  0
 16  2  1  0  0  0  0
 16 13  1  0  0  0  0
 17  8  1  0  0  0  0
 17 13  2  0  0  0  0
 18  1  1  0  0  0  0
 18  3  2  0  0  0  0
 19 10  1  0  0  0  0
 20 22  1  6  0  0  0
 20 23  1  0  0  0  0
 20 19  1  0  0  0  0
 22 21  1  0  0  0  0
 24 23  1  0  0  0  0
 25 24  2  0  0  0  0
 25 26  1  0  0  0  0
 28 29  1  0  0  0  0
 28 27  1  0  0  0  0
M  END
>  <MODEL>
8

>  <REMARK>
 VINA RESULT:      -7.7      3.452      6.249
  Name = 
  7 active torsions:
  status: ('A' for Active; 'I' for Inactive)
    1  A    between atoms: C_1  and  C_15
    2  A    between atoms: N_5  and  C_17
    3  A    between atoms: N_5  and  CA_23
    4  A    between atoms: C_9  and  N_13
    5  A    between atoms: N_13  and  C_25
    6  A    between atoms: C_15  and  CA_23
    7  A    between atoms: CA_23  and  C_27
                            x       y       z     vdW  Elec       q    Type
                         _______ _______ _______ _____ _____    ______ ____

>  <TORSDO>
F 7

$$$$
=
 OpenBabel11042410593D

 29 32  0  0  1  0  0  0  0  0999 V2000
  187.6040  177.4370  144.3990 C   0  0  0  0  0  0  0  0  0  0  0  0
  186.3140  178.7530  140.2280 O   0  0  0  0  0  1  0  0  0  0  0  0
  185.8110  178.2730  143.4150 C   0  0  0  0  0  0  0  0  0  0  0  0
  189.4750  176.8410  145.8770 C   0  0  0  0  0  3  0  0  0  0  0  0
  191.6790  177.1860  144.8650 C   0  0  0  0  0  3  0  0  0  0  0  0
  184.9090  178.8740  142.4940 N   0  0  0  0  0  1  0  0  0  0  0  0
  188.8820  177.0660  144.5480 C   0  0  0  0  0  0  0  0  0  0  0  0
  189.7700  176.8690  143.3250 C   0  0  2  0  0  3  0  0  0  0  0  0
  191.1980  177.2430  143.6180 C   0  0  0  0  0  3  0  0  0  0  0  0
  188.6570  178.2250  139.7490 C   0  0  0  0  0  0  0  0  0  0  0  0
  186.5670  177.6660  145.3980 C   0  0  0  0  0  3  0  0  0  0  0  0
  189.9890  177.6100  140.5720 S   0  0  0  0  0  0  0  0  0  0  0  0
  187.8940  177.9200  141.9320 C   0  0  0  0  0  0  0  0  0  0  0  0
  185.5160  178.1480  144.8090 N   0  0  0  0  0  0  0  0  0  0  0  0
  190.8050  176.8610  146.0220 C   0  0  0  0  0  0  0  0  0  0  0  0
  187.5740  178.3260  140.6240 C   0  0  0  0  0  0  0  0  0  0  0  0
  189.2220  177.5130  142.0680 C   0  0  0  0  0  0  0  0  0  0  0  0
  187.0420  177.8610  143.1370 C   0  0  0  0  0  0  0  0  0  0  0  0
  188.6650  178.5320  138.3510 N   0  0  0  0  0  2  0  0  0  0  0  0
  188.7880  177.5350  137.2960 C   0  0  1  0  0  3  0  0  0  0  0  0
  189.6820  175.3090  137.5130 O   0  0  0  0  0  1  0  0  0  0  0  0
  188.6100  176.1300  137.8700 C   0  0  0  0  0  2  0  0  0  0  0  0
  187.7660  177.8170  136.2080 C   0  0  0  0  0  2  0  0  0  0  0  0
  186.3920  177.8970  136.7910 C   0  0  0  0  0  3  0  0  0  0  0  0
  185.4110  177.0830  136.4130 C   0  0  0  0  0  3  0  0  0  0  0  0
  185.6130  176.0800  135.4200 N   0  0  0  0  0  1  0  0  0  0  0  0
  191.3600  176.6510  147.3210 N   0  0  0  0  0  2  0  0  0  0  0  0
  192.3580  175.6290  147.5910 C   0  0  0  0  0  2  0  0  0  0  0  0
  193.1450  176.0060  148.8270 C   0  0  0  0  0  1  0  0  0  0  0  0
  1  7  2  0  0  0  0
  1 11  1  0  0  0  0
  2 16  1  0  0  0  0
  3 14  1  0  0  0  0
  4 15  2  0  0  0  0
  5 15  1  0  0  0  0
  6  3  1  0  0  0  0
  7  4  1  0  0  0  0
  8  9  1  1  0  0  0
  8  7  1  0  0  0  0
  9  5  2  0  0  0  0
 10 12  1  0  0  0  0
 10 16  2  0  0  0  0
 12 17  1  0  0  0  0
 13 17  2  0  0  0  0
 13 18  1  0  0  0  0
 14 11  2  0  0  0  0
 15 27  1  0  0  0  0
 16 13  1  0  0  0  0
 17  8  1  0  0  0  0
 18  3  2  0  0  0  0
 18  1  1  0  0  0  0
 19 10  1  0  0  0  0
 20 23  1  6  0  0  0
 20 22  1  0  0  0  0
 20 19  1  0  0  0  0
 21 22  1  0  0  0  0
 23 24  1  0  0  0  0
 25 24  2  0  0  0  0
 26 25  1  0  0  0  0
 27 28  1  0  0  0  0
 28 29  1  0  0  0  0
M  END
>  <MODEL>
9

>  <REMARK>
 VINA RESULT:      -7.7      2.292      3.001
  Name = 
  7 active torsions:
  status: ('A' for Active; 'I' for Inactive)
    1  A    between atoms: C_1  and  C_15
    2  A    between atoms: N_5  and  C_17
    3  A    between atoms: N_5  and  CA_23
    4  A    between atoms: C_9  and  N_13
    5  A    between atoms: N_13  and  C_25
    6  A    between atoms: C_15  and  CA_23
    7  A    between atoms: CA_23  and  C_27
                            x       y       z     vdW  Elec       q    Type
                         _______ _______ _______ _____ _____    ______ ____

>  <TORSDO>
F 7

$$$$
