=
 OpenBabel11032419483D

 27 29  0  0  1  0  0  0  0  0999 V2000
  184.6740  179.0990  142.5860 C   0  0  0  0  0  2  0  0  0  0  0  0
  188.6570  176.6570  137.6240 C   0  0  0  0  0  0  0  0  0  0  0  0
  187.2300  178.4250  139.8210 N   0  0  0  0  0  0  0  0  0  0  0  0
  185.2940  178.9210  141.2200 C   0  0  0  0  0  0  0  0  0  0  0  0
  184.4680  179.2740  140.0960 N   0  0  0  0  0  2  0  0  0  0  0  0
  188.5680  177.7140  142.1910 N   0  0  0  0  0  0  0  0  0  0  0  0
  184.9010  178.5900  145.1000 C   0  0  0  0  0  1  0  0  0  0  0  0
  184.7470  177.6280  138.3170 C   0  0  0  0  0  2  0  0  0  0  0  0
  188.8900  179.1580  137.5010 C   0  0  0  0  0  1  0  0  0  0  0  0
  186.7130  178.1600  143.5820 N   0  0  0  0  0  0  0  0  0  0  0  0
  186.5760  178.5120  141.0950 C   0  0  0  0  0  0  0  0  0  0  0  0
  185.4930  178.5720  143.7370 C   0  0  0  0  0  0  0  0  0  0  0  0
  189.2160  177.6410  140.9140 C   0  0  0  0  0  0  0  0  0  0  0  0
  187.4260  176.5200  137.1900 C   0  0  0  0  0  0  0  0  0  0  0  0
  187.3400  178.1250  142.3010 C   0  0  0  0  0  0  0  0  0  0  0  0
  189.0890  177.9070  138.3430 C   0  0  1  0  0  3  0  0  0  0  0  0
  188.4630  178.0280  139.7030 C   0  0  0  0  0  0  0  0  0  0  0  0
  190.4090  177.2460  140.8340 O   0  0  0  0  0  0  0  0  0  0  0  0
  185.1930  177.4560  136.8720 C   0  0  1  0  0  3  0  0  0  0  0  0
  184.7810  179.1000  138.6840 C   0  0  0  0  0  2  0  0  0  0  0  0
  186.2070  176.3660  136.7440 C   0  0  0  0  0  3  0  0  0  0  0  0
  190.3390  175.7250  136.2510 F   0  0  0  0  0  0  0  0  0  0  0  0
  188.9470  174.3320  137.3470 F   0  0  0  0  0  0  0  0  0  0  0  0
  190.5270  175.4630  138.4780 F   0  0  0  0  0  0  0  0  0  0  0  0
  189.6320  175.5310  137.4250 C   0  0  0  0  0  0  0  0  0  0  0  0
  183.9960  177.2000  135.9600 C   0  0  0  0  0  2  0  0  0  0  0  0
  182.8910  176.6030  136.6930 N   0  0  0  0  0  1  0  0  0  0  0  0
  1 12  1  0  0  0  0
  2 16  1  0  0  0  0
  3 11  1  0  0  0  0
  4  1  1  0  0  0  0
  5  4  1  0  0  0  0
  6 15  2  0  0  0  0
  8 20  1  0  0  0  0
 10 12  2  0  0  0  0
 11  4  2  0  0  0  0
 11 15  1  0  0  0  0
 12  7  1  0  0  0  0
 13  6  1  0  0  0  0
 14  2  2  0  0  0  0
 15 10  1  0  0  0  0
 16  9  1  6  0  0  0
 16 17  1  0  0  0  0
 17  3  2  0  0  0  0
 17 13  1  0  0  0  0
 18 13  2  0  0  0  0
 19 26  1  6  0  0  0
 19  8  1  0  0  0  0
 20  5  1  0  0  0  0
 21 19  1  0  0  0  0
 21 14  2  0  0  0  0
 22 25  1  0  0  0  0
 23 25  1  0  0  0  0
 25  2  1  0  0  0  0
 25 24  1  0  0  0  0
 26 27  1  0  0  0  0
M  END
>  <MODEL>
1

>  <REMARK>
 VINA RESULT:      -7.5      0.000      0.000
  Name = 
  2 active torsions:
  status: ('A' for Active; 'I' for Inactive)
    1  A    between atoms: C_2  and  C_26
    2  A    between atoms: C_18  and  C_24
                            x       y       z     vdW  Elec       q    Type
                         _______ _______ _______ _____ _____    ______ ____

>  <TORSDO>
F 2

$$$$
=
 OpenBabel11032419483D

 27 29  0  0  1  0  0  0  0  0999 V2000
  184.0050  178.8240  145.1400 C   0  0  0  0  0  2  0  0  0  0  0  0
  183.4280  177.8420  138.4200 C   0  0  0  0  0  0  0  0  0  0  0  0
  183.8270  179.0250  141.3240 N   0  0  0  0  0  0  0  0  0  0  0  0
  183.4620  178.9100  143.7330 C   0  0  0  0  0  0  0  0  0  0  0  0
  182.0440  179.1240  143.6110 N   0  0  0  0  0  2  0  0  0  0  0  0
  186.5380  178.5030  141.8650 N   0  0  0  0  0  0  0  0  0  0  0  0
  186.0400  178.2060  146.5920 C   0  0  0  0  0  1  0  0  0  0  0  0
  181.1510  177.7380  141.8130 C   0  0  0  0  0  2  0  0  0  0  0  0
  183.1890  180.3230  138.7580 C   0  0  0  0  0  1  0  0  0  0  0  0
  186.2280  178.3610  144.2020 N   0  0  0  0  0  0  0  0  0  0  0  0
  184.2930  178.8500  142.6700 C   0  0  0  0  0  0  0  0  0  0  0  0
  185.4600  178.4390  145.2440 C   0  0  0  0  0  0  0  0  0  0  0  0
  186.0650  178.6910  140.5250 C   0  0  0  0  0  0  0  0  0  0  0  0
  182.2940  177.4300  138.9370 C   0  0  0  0  0  0  0  0  0  0  0  0
  185.7330  178.5810  142.8820 C   0  0  0  0  0  0  0  0  0  0  0  0
  184.0880  179.1040  138.9080 C   0  0  1  0  0  3  0  0  0  0  0  0
  184.6300  178.9620  140.3020 C   0  0  0  0  0  0  0  0  0  0  0  0
  186.8670  178.6170  139.5570 O   0  0  0  0  0  0  0  0  0  0  0  0
  180.4310  177.7900  140.4740 C   0  0  1  0  0  3  0  0  0  0  0  0
  181.2580  179.1390  142.3850 C   0  0  0  0  0  2  0  0  0  0  0  0
  181.1630  177.0060  139.4340 C   0  0  0  0  0  3  0  0  0  0  0  0
  183.2610  176.9430  136.2420 F   0  0  0  0  0  0  0  0  0  0  0  0
  184.3200  175.7390  137.8270 F   0  0  0  0  0  0  0  0  0  0  0  0
  185.2940  177.5760  136.9700 F   0  0  0  0  0  0  0  0  0  0  0  0
  184.0870  177.0180  137.3500 C   0  0  0  0  0  0  0  0  0  0  0  0
  178.9890  177.3080  140.6110 C   0  0  0  0  0  2  0  0  0  0  0  0
  178.9310  175.9810  141.2050 N   0  0  0  0  0  1  0  0  0  0  0  0
  1 12  1  0  0  0  0
  2 16  1  0  0  0  0
  2 14  2  0  0  0  0
  3 11  1  0  0  0  0
  4  1  1  0  0  0  0
  5  4  1  0  0  0  0
  6 15  2  0  0  0  0
  8 20  1  0  0  0  0
 10 12  2  0  0  0  0
 11 15  1  0  0  0  0
 11  4  2  0  0  0  0
 12  7  1  0  0  0  0
 13  6  1  0  0  0  0
 14 21  2  0  0  0  0
 15 10  1  0  0  0  0
 16  9  1  1  0  0  0
 16 17  1  0  0  0  0
 17 13  1  0  0  0  0
 17  3  2  0  0  0  0
 18 13  2  0  0  0  0
 19 26  1  1  0  0  0
 19  8  1  0  0  0  0
 20  5  1  0  0  0  0
 21 19  1  0  0  0  0
 22 25  1  0  0  0  0
 24 25  1  0  0  0  0
 25 23  1  0  0  0  0
 25  2  1  0  0  0  0
 26 27  1  0  0  0  0
M  END
>  <MODEL>
2

>  <REMARK>
 VINA RESULT:      -7.2      3.291      4.643
  Name = 
  2 active torsions:
  status: ('A' for Active; 'I' for Inactive)
    1  A    between atoms: C_2  and  C_26
    2  A    between atoms: C_18  and  C_24
                            x       y       z     vdW  Elec       q    Type
                         _______ _______ _______ _____ _____    ______ ____

>  <TORSDO>
F 2

$$$$
=
 OpenBabel11032419483D

 27 29  0  0  1  0  0  0  0  0999 V2000
  185.4030  178.8670  143.0280 C   0  0  0  0  0  2  0  0  0  0  0  0
  188.4670  176.8160  137.2950 C   0  0  0  0  0  0  0  0  0  0  0  0
  187.4570  178.4060  139.8340 N   0  0  0  0  0  0  0  0  0  0  0  0
  185.7880  178.7990  141.5680 C   0  0  0  0  0  0  0  0  0  0  0  0
  184.7970  179.2530  140.6280 N   0  0  0  0  0  2  0  0  0  0  0  0
  189.1480  177.4860  141.8850 N   0  0  0  0  0  0  0  0  0  0  0  0
  186.0260  178.1460  145.4200 C   0  0  0  0  0  1  0  0  0  0  0  0
  184.7450  177.7610  138.6990 C   0  0  0  0  0  2  0  0  0  0  0  0
  188.7320  179.3170  137.3400 C   0  0  0  0  0  1  0  0  0  0  0  0
  187.5550  177.8290  143.5950 N   0  0  0  0  0  0  0  0  0  0  0  0
  187.0220  178.3910  141.2010 C   0  0  0  0  0  0  0  0  0  0  0  0
  186.3870  178.2380  143.9820 C   0  0  0  0  0  0  0  0  0  0  0  0
  189.5770  177.5150  140.5170 C   0  0  0  0  0  0  0  0  0  0  0  0
  187.1780  176.7270  137.0600 C   0  0  0  0  0  0  0  0  0  0  0  0
  187.9640  177.8970  142.2290 C   0  0  0  0  0  0  0  0  0  0  0  0
  189.0380  177.9970  138.0330 C   0  0  1  0  0  3  0  0  0  0  0  0
  188.6450  178.0090  139.4820 C   0  0  0  0  0  0  0  0  0  0  0  0
  190.7320  177.1170  140.2100 O   0  0  0  0  0  0  0  0  0  0  0  0
  184.9440  177.7060  137.1910 C   0  0  1  0  0  3  0  0  0  0  0  0
  184.8720  179.1950  139.1740 C   0  0  0  0  0  2  0  0  0  0  0  0
  185.9000  176.6220  136.8100 C   0  0  0  0  0  3  0  0  0  0  0  0
  189.6530  174.8710  137.9170 F   0  0  0  0  0  0  0  0  0  0  0  0
  190.5530  176.2310  136.3600 F   0  0  0  0  0  0  0  0  0  0  0  0
  188.7740  174.9560  135.8480 F   0  0  0  0  0  0  0  0  0  0  0  0
  189.3700  175.7030  136.8470 C   0  0  0  0  0  0  0  0  0  0  0  0
  183.6090  177.5390  136.4710 C   0  0  0  0  0  2  0  0  0  0  0  0
  182.5610  177.1240  137.3910 N   0  0  0  0  0  1  0  0  0  0  0  0
  1 12  1  0  0  0  0
  2 16  1  0  0  0  0
  3 11  1  0  0  0  0
  4  1  1  0  0  0  0
  5  4  1  0  0  0  0
  6 15  2  0  0  0  0
  8 20  1  0  0  0  0
 10 12  2  0  0  0  0
 11  4  2  0  0  0  0
 11 15  1  0  0  0  0
 12  7  1  0  0  0  0
 13  6  1  0  0  0  0
 14  2  2  0  0  0  0
 15 10  1  0  0  0  0
 16  9  1  6  0  0  0
 16 17  1  0  0  0  0
 17  3  2  0  0  0  0
 17 13  1  0  0  0  0
 18 13  2  0  0  0  0
 19 26  1  6  0  0  0
 19  8  1  0  0  0  0
 20  5  1  0  0  0  0
 21 14  2  0  0  0  0
 21 19  1  0  0  0  0
 23 25  1  0  0  0  0
 24 25  1  0  0  0  0
 25  2  1  0  0  0  0
 25 22  1  0  0  0  0
 26 27  1  0  0  0  0
M  END
>  <MODEL>
3

>  <REMARK>
 VINA RESULT:      -7.2      0.721      1.080
  Name = 
  2 active torsions:
  status: ('A' for Active; 'I' for Inactive)
    1  A    between atoms: C_2  and  C_26
    2  A    between atoms: C_18  and  C_24
                            x       y       z     vdW  Elec       q    Type
                         _______ _______ _______ _____ _____    ______ ____

>  <TORSDO>
F 2

$$$$
=
 OpenBabel11032419483D

 27 29  0  0  1  0  0  0  0  0999 V2000
  183.8070  178.8080  141.6050 C   0  0  0  0  0  2  0  0  0  0  0  0
  190.1750  177.7670  143.8030 C   0  0  0  0  0  0  0  0  0  0  0  0
  187.2810  177.5180  142.5560 N   0  0  0  0  0  0  0  0  0  0  0  0
  184.9600  178.2550  142.4100 C   0  0  0  0  0  0  0  0  0  0  0  0
  184.6510  177.8210  143.7470 N   0  0  0  0  0  2  0  0  0  0  0  0
  187.6090  178.5410  139.9560 N   0  0  0  0  0  0  0  0  0  0  0  0
  183.1290  180.0850  139.4750 C   0  0  0  0  0  1  0  0  0  0  0  0
  186.4300  178.5060  145.2690 C   0  0  0  0  0  2  0  0  0  0  0  0
  189.2020  175.4740  143.4550 C   0  0  0  0  0  1  0  0  0  0  0  0
  185.3760  179.2910  139.7790 N   0  0  0  0  0  0  0  0  0  0  0  0
  186.1860  178.1280  141.8570 C   0  0  0  0  0  0  0  0  0  0  0  0
  184.1820  179.4040  140.2720 C   0  0  0  0  0  0  0  0  0  0  0  0
  188.6930  177.9200  140.6590 C   0  0  0  0  0  0  0  0  0  0  0  0
  189.4920  178.1480  144.8590 C   0  0  0  0  0  0  0  0  0  0  0  0
  186.4290  178.6420  140.4910 C   0  0  0  0  0  0  0  0  0  0  0  0
  189.5880  176.7980  142.8120 C   0  0  1  0  0  3  0  0  0  0  0  0
  188.4610  177.4000  142.0230 C   0  0  0  0  0  0  0  0  0  0  0  0
  189.8250  177.8280  140.1160 O   0  0  0  0  0  0  0  0  0  0  0  0
  187.4820  177.9800  146.2350 C   0  0  1  0  0  3  0  0  0  0  0  0
  185.5890  177.3520  144.7590 C   0  0  0  0  0  2  0  0  0  0  0  0
  188.8330  178.5330  145.9190 C   0  0  0  0  0  3  0  0  0  0  0  0
  192.4040  177.9160  144.5710 F   0  0  0  0  0  0  0  0  0  0  0  0
  191.4780  179.7220  143.5900 F   0  0  0  0  0  0  0  0  0  0  0  0
  192.0470  177.9360  142.3490 F   0  0  0  0  0  0  0  0  0  0  0  0
  191.5440  178.3400  143.5730 C   0  0  0  0  0  0  0  0  0  0  0  0
  187.0910  178.2770  147.6800 C   0  0  0  0  0  2  0  0  0  0  0  0
  188.0780  177.7520  148.6120 N   0  0  0  0  0  1  0  0  0  0  0  0
  1  4  1  0  0  0  0
  2 14  2  0  0  0  0
  4  5  1  0  0  0  0
  5 20  1  0  0  0  0
  6 15  2  0  0  0  0
  6 13  1  0  0  0  0
  7 12  1  0  0  0  0
  8 19  1  0  0  0  0
 10 12  2  0  0  0  0
 10 15  1  0  0  0  0
 11  4  2  0  0  0  0
 11  3  1  0  0  0  0
 12  1  1  0  0  0  0
 13 17  1  0  0  0  0
 14 21  2  0  0  0  0
 15 11  1  0  0  0  0
 16  9  1  1  0  0  0
 16  2  1  0  0  0  0
 17  3  2  0  0  0  0
 17 16  1  0  0  0  0
 18 13  2  0  0  0  0
 19 26  1  1  0  0  0
 20  8  1  0  0  0  0
 21 19  1  0  0  0  0
 24 25  1  0  0  0  0
 25 23  1  0  0  0  0
 25  2  1  0  0  0  0
 25 22  1  0  0  0  0
 26 27  1  0  0  0  0
M  END
>  <MODEL>
4

>  <REMARK>
 VINA RESULT:      -7.2      3.235      6.438
  Name = 
  2 active torsions:
  status: ('A' for Active; 'I' for Inactive)
    1  A    between atoms: C_2  and  C_26
    2  A    between atoms: C_18  and  C_24
                            x       y       z     vdW  Elec       q    Type
                         _______ _______ _______ _____ _____    ______ ____

>  <TORSDO>
F 2

$$$$
=
 OpenBabel11032419483D

 27 29  0  0  1  0  0  0  0  0999 V2000
  184.7490  178.8410  142.9250 C   0  0  0  0  0  2  0  0  0  0  0  0
  191.0080  176.7810  144.6690 C   0  0  0  0  0  0  0  0  0  0  0  0
  188.3770  178.4260  144.0650 N   0  0  0  0  0  0  0  0  0  0  0  0
  186.2510  178.6780  142.8960 C   0  0  0  0  0  0  0  0  0  0  0  0
  186.8800  178.8060  141.6080 N   0  0  0  0  0  2  0  0  0  0  0  0
  186.8700  178.1200  146.4210 N   0  0  0  0  0  0  0  0  0  0  0  0
  182.6120  178.5530  144.3320 C   0  0  0  0  0  1  0  0  0  0  0  0
  188.6210  177.1140  141.3670 C   0  0  0  0  0  2  0  0  0  0  0  0
  191.1830  179.2710  144.3590 C   0  0  0  0  0  1  0  0  0  0  0  0
  184.7880  178.3360  145.3280 N   0  0  0  0  0  0  0  0  0  0  0  0
  186.9440  178.4880  144.0400 C   0  0  0  0  0  0  0  0  0  0  0  0
  184.0960  178.5440  144.2500 C   0  0  0  0  0  0  0  0  0  0  0  0
  188.3030  178.0710  146.4370 C   0  0  0  0  0  0  0  0  0  0  0  0
  190.8460  176.4060  143.4220 C   0  0  0  0  0  0  0  0  0  0  0  0
  186.2150  178.3210  145.3170 C   0  0  0  0  0  0  0  0  0  0  0  0
  190.5390  178.1330  145.1370 C   0  0  1  0  0  3  0  0  0  0  0  0
  189.0410  178.2390  145.1680 C   0  0  0  0  0  0  0  0  0  0  0  0
  188.9150  177.8810  147.5210 O   0  0  0  0  0  0  0  0  0  0  0  0
  190.1140  176.9210  141.1490 C   0  0  1  0  0  3  0  0  0  0  0  0
  188.2850  178.5910  141.2890 C   0  0  0  0  0  2  0  0  0  0  0  0
  190.7000  176.0150  142.1840 C   0  0  0  0  0  3  0  0  0  0  0  0
  190.6650  175.2760  146.4570 F   0  0  0  0  0  0  0  0  0  0  0  0
  192.5540  176.5060  146.4300 F   0  0  0  0  0  0  0  0  0  0  0  0
  192.2970  174.8080  144.9790 F   0  0  0  0  0  0  0  0  0  0  0  0
  191.6400  175.8280  145.6440 C   0  0  0  0  0  0  0  0  0  0  0  0
  190.3970  176.4020  139.7420 C   0  0  0  0  0  2  0  0  0  0  0  0
  191.6050  176.9970  139.1920 N   0  0  0  0  0  1  0  0  0  0  0  0
  1 12  1  0  0  0  0
  2 16  1  0  0  0  0
  2 25  1  0  0  0  0
  3 17  2  0  0  0  0
  4  1  1  0  0  0  0
  4 11  2  0  0  0  0
  5  4  1  0  0  0  0
  6 13  1  0  0  0  0
 11  3  1  0  0  0  0
 11 15  1  0  0  0  0
 12  7  1  0  0  0  0
 12 10  2  0  0  0  0
 13 18  2  0  0  0  0
 14  2  2  0  0  0  0
 15 10  1  0  0  0  0
 15  6  2  0  0  0  0
 16  9  1  6  0  0  0
 16 17  1  0  0  0  0
 17 13  1  0  0  0  0
 19 26  1  6  0  0  0
 19  8  1  0  0  0  0
 19 21  1  0  0  0  0
 20  8  1  0  0  0  0
 20  5  1  0  0  0  0
 21 14  2  0  0  0  0
 24 25  1  0  0  0  0
 25 23  1  0  0  0  0
 25 22  1  0  0  0  0
 27 26  1  0  0  0  0
M  END
>  <MODEL>
5

>  <REMARK>
 VINA RESULT:      -7.0      4.383      6.083
  Name = 
  2 active torsions:
  status: ('A' for Active; 'I' for Inactive)
    1  A    between atoms: C_2  and  C_26
    2  A    between atoms: C_18  and  C_24
                            x       y       z     vdW  Elec       q    Type
                         _______ _______ _______ _____ _____    ______ ____

>  <TORSDO>
F 2

$$$$
=
 OpenBabel11032419483D

 27 29  0  0  1  0  0  0  0  0999 V2000
  189.8880  177.6570  139.6760 C   0  0  0  0  0  2  0  0  0  0  0  0
  183.0750  177.8530  139.7470 C   0  0  0  0  0  0  0  0  0  0  0  0
  186.1550  178.3950  139.2850 N   0  0  0  0  0  0  0  0  0  0  0  0
  188.4830  178.1320  139.9640 C   0  0  0  0  0  0  0  0  0  0  0  0
  188.3090  178.9120  141.1600 N   0  0  0  0  0  2  0  0  0  0  0  0
  186.7730  176.7630  137.0800 N   0  0  0  0  0  0  0  0  0  0  0  0
  191.3440  176.0930  138.2380 C   0  0  0  0  0  1  0  0  0  0  0  0
  186.2520  178.2440  142.2900 C   0  0  0  0  0  2  0  0  0  0  0  0
  183.8060  180.1550  139.0450 C   0  0  0  0  0  1  0  0  0  0  0  0
  189.0300  176.4620  137.7090 N   0  0  0  0  0  0  0  0  0  0  0  0
  187.4800  177.8780  139.0960 C   0  0  0  0  0  0  0  0  0  0  0  0
  190.0190  176.7090  138.5100 C   0  0  0  0  0  0  0  0  0  0  0  0
  185.4560  177.2930  137.2720 C   0  0  0  0  0  0  0  0  0  0  0  0
  183.4440  177.8700  141.0070 C   0  0  0  0  0  0  0  0  0  0  0  0
  187.7350  177.0280  137.9120 C   0  0  0  0  0  0  0  0  0  0  0  0
  183.8070  178.6690  138.7160 C   0  0  1  0  0  3  0  0  0  0  0  0
  185.1900  178.1460  138.4500 C   0  0  0  0  0  0  0  0  0  0  0  0
  184.5420  177.0270  136.4470 O   0  0  0  0  0  0  0  0  0  0  0  0
  184.8970  178.7510  142.7610 C   0  0  1  0  0  3  0  0  0  0  0  0
  187.0540  179.3980  141.7200 C   0  0  0  0  0  2  0  0  0  0  0  0
  183.7900  177.8780  142.2670 C   0  0  0  0  0  3  0  0  0  0  0  0
  180.7600  177.4210  139.9280 F   0  0  0  0  0  0  0  0  0  0  0  0
  182.1700  175.6740  139.7310 F   0  0  0  0  0  0  0  0  0  0  0  0
  181.7630  176.9970  137.9590 F   0  0  0  0  0  0  0  0  0  0  0  0
  181.9270  176.9760  139.3330 C   0  0  0  0  0  0  0  0  0  0  0  0
  184.8600  178.8770  144.2810 C   0  0  0  0  0  2  0  0  0  0  0  0
  183.4950  179.0030  144.7680 N   0  0  0  0  0  1  0  0  0  0  0  0
  1  4  1  0  0  0  0
  2 14  2  0  0  0  0
  4  5  1  0  0  0  0
  5 20  1  0  0  0  0
  6 13  1  0  0  0  0
  6 15  2  0  0  0  0
  7 12  1  0  0  0  0
  8 19  1  0  0  0  0
 10 15  1  0  0  0  0
 10 12  2  0  0  0  0
 11  3  1  0  0  0  0
 11  4  2  0  0  0  0
 12  1  1  0  0  0  0
 13 17  1  0  0  0  0
 14 21  2  0  0  0  0
 15 11  1  0  0  0  0
 16  9  1  1  0  0  0
 16  2  1  0  0  0  0
 17 16  1  0  0  0  0
 17  3  2  0  0  0  0
 18 13  2  0  0  0  0
 19 26  1  1  0  0  0
 20  8  1  0  0  0  0
 21 19  1  0  0  0  0
 24 25  1  0  0  0  0
 25 23  1  0  0  0  0
 25  2  1  0  0  0  0
 25 22  1  0  0  0  0
 26 27  1  0  0  0  0
M  END
>  <MODEL>
6

>  <REMARK>
 VINA RESULT:      -6.4      3.482      6.358
  Name = 
  2 active torsions:
  status: ('A' for Active; 'I' for Inactive)
    1  A    between atoms: C_2  and  C_26
    2  A    between atoms: C_18  and  C_24
                            x       y       z     vdW  Elec       q    Type
                         _______ _______ _______ _____ _____    ______ ____

>  <TORSDO>
F 2

$$$$
=
 OpenBabel11032419483D

 27 29  0  0  1  0  0  0  0  0999 V2000
  188.0530  177.3390  138.5260 C   0  0  0  0  0  2  0  0  0  0  0  0
  194.1250  174.4140  137.5110 C   0  0  0  0  0  0  0  0  0  0  0  0
  191.6450  176.3700  137.6360 N   0  0  0  0  0  0  0  0  0  0  0  0
  189.2400  176.7430  137.8070 C   0  0  0  0  0  0  0  0  0  0  0  0
  188.9730  176.1460  136.5250 N   0  0  0  0  0  2  0  0  0  0  0  0
  191.8480  177.5040  140.2030 N   0  0  0  0  0  0  0  0  0  0  0  0
  187.1830  178.2910  140.7550 C   0  0  0  0  0  1  0  0  0  0  0  0
  190.2350  174.0700  136.3010 C   0  0  0  0  0  2  0  0  0  0  0  0
  194.0640  176.3910  135.9570 C   0  0  0  0  0  1  0  0  0  0  0  0
  189.5240  177.8640  140.4210 N   0  0  0  0  0  0  0  0  0  0  0  0
  190.4810  176.8370  138.3340 C   0  0  0  0  0  0  0  0  0  0  0  0
  188.3230  177.8110  139.9320 C   0  0  0  0  0  0  0  0  0  0  0  0
  193.0060  177.0450  139.4940 C   0  0  0  0  0  0  0  0  0  0  0  0
  193.2510  173.6320  136.9210 C   0  0  0  0  0  0  0  0  0  0  0  0
  190.6610  177.4250  139.6790 C   0  0  0  0  0  0  0  0  0  0  0  0
  194.0210  175.9110  137.4010 C   0  0  1  0  0  3  0  0  0  0  0  0
  192.8380  176.4580  138.1480 C   0  0  0  0  0  0  0  0  0  0  0  0
  194.1450  177.1390  140.0200 O   0  0  0  0  0  0  0  0  0  0  0  0
  191.3030  173.3730  135.4710 C   0  0  1  0  0  3  0  0  0  0  0  0
  189.9100  175.4160  135.6810 C   0  0  0  0  0  2  0  0  0  0  0  0
  192.3970  172.8360  136.3350 C   0  0  0  0  0  3  0  0  0  0  0  0
  194.8670  172.5070  138.6920 F   0  0  0  0  0  0  0  0  0  0  0  0
  195.4170  174.5460  139.4810 F   0  0  0  0  0  0  0  0  0  0  0  0
  196.4060  173.7540  137.6230 F   0  0  0  0  0  0  0  0  0  0  0  0
  195.2200  173.7970  138.3340 C   0  0  0  0  0  0  0  0  0  0  0  0
  190.6910  172.2710  134.6100 C   0  0  0  0  0  2  0  0  0  0  0  0
  191.5340  171.0850  134.5940 N   0  0  0  0  0  1  0  0  0  0  0  0
  1 12  1  0  0  0  0
  2 25  1  0  0  0  0
  3 17  2  0  0  0  0
  3 11  1  0  0  0  0
  4 11  2  0  0  0  0
  4  1  1  0  0  0  0
  5  4  1  0  0  0  0
 11 15  1  0  0  0  0
 12 10  2  0  0  0  0
 12  7  1  0  0  0  0
 13 18  2  0  0  0  0
 13  6  1  0  0  0  0
 14  2  2  0  0  0  0
 15  6  2  0  0  0  0
 15 10  1  0  0  0  0
 16  9  1  6  0  0  0
 16  2  1  0  0  0  0
 16 17  1  0  0  0  0
 17 13  1  0  0  0  0
 19 26  1  1  0  0  0
 19  8  1  0  0  0  0
 19 21  1  0  0  0  0
 20  8  1  0  0  0  0
 20  5  1  0  0  0  0
 21 14  2  0  0  0  0
 24 25  1  0  0  0  0
 25 22  1  0  0  0  0
 25 23  1  0  0  0  0
 27 26  1  0  0  0  0
M  END
>  <MODEL>
7

>  <REMARK>
 VINA RESULT:      -6.1      4.213      6.076
  Name = 
  2 active torsions:
  status: ('A' for Active; 'I' for Inactive)
    1  A    between atoms: C_2  and  C_26
    2  A    between atoms: C_18  and  C_24
                            x       y       z     vdW  Elec       q    Type
                         _______ _______ _______ _____ _____    ______ ____

>  <TORSDO>
F 2

$$$$
=
 OpenBabel11032419483D

 27 29  0  0  1  0  0  0  0  0999 V2000
  184.7400  178.6010  145.1770 C   0  0  0  0  0  2  0  0  0  0  0  0
  190.9740  177.1430  142.8400 C   0  0  0  0  0  0  0  0  0  0  0  0
  187.9210  177.1160  143.6580 N   0  0  0  0  0  0  0  0  0  0  0  0
  186.0870  177.9300  145.0450 C   0  0  0  0  0  0  0  0  0  0  0  0
  186.6320  177.3580  146.2470 N   0  0  0  0  0  2  0  0  0  0  0  0
  186.6640  178.4140  141.5020 N   0  0  0  0  0  0  0  0  0  0  0  0
  183.0110  180.1280  144.0310 C   0  0  0  0  0  1  0  0  0  0  0  0
  189.0250  177.8190  146.3690 C   0  0  0  0  0  2  0  0  0  0  0  0
  189.7890  174.9320  143.0150 C   0  0  0  0  0  1  0  0  0  0  0  0
  184.8800  179.2410  142.8100 N   0  0  0  0  0  0  0  0  0  0  0  0
  186.6900  177.8310  143.8400 C   0  0  0  0  0  0  0  0  0  0  0  0
  184.2630  179.3320  143.9470 C   0  0  0  0  0  0  0  0  0  0  0  0
  187.8880  177.6880  141.3290 C   0  0  0  0  0  0  0  0  0  0  0  0
  191.1290  177.4220  144.1130 C   0  0  0  0  0  0  0  0  0  0  0  0
  186.0830  178.4870  142.6620 C   0  0  0  0  0  0  0  0  0  0  0  0
  189.8150  176.3080  142.3660 C   0  0  1  0  0  3  0  0  0  0  0  0
  188.5020  177.0260  142.4980 C   0  0  0  0  0  0  0  0  0  0  0  0
  188.4280  177.6250  140.1930 O   0  0  0  0  0  0  0  0  0  0  0  0
  190.3940  177.1580  146.4270 C   0  0  1  0  0  3  0  0  0  0  0  0
  187.9470  176.7530  146.4170 C   0  0  0  0  0  2  0  0  0  0  0  0
  191.3050  177.7050  145.3760 C   0  0  0  0  0  3  0  0  0  0  0  0
  192.4310  178.9200  142.2910 F   0  0  0  0  0  0  0  0  0  0  0  0
  191.3250  177.8780  140.6250 F   0  0  0  0  0  0  0  0  0  0  0  0
  193.0220  176.8390  141.6720 F   0  0  0  0  0  0  0  0  0  0  0  0
  191.9530  177.6990  141.8450 C   0  0  0  0  0  0  0  0  0  0  0  0
  191.0100  177.3030  147.8160 C   0  0  0  0  0  2  0  0  0  0  0  0
  192.1910  176.4650  147.9610 N   0  0  0  0  0  1  0  0  0  0  0  0
  2 14  2  0  0  0  0
  3 11  1  0  0  0  0
  4  1  1  0  0  0  0
  4  5  1  0  0  0  0
  5 20  1  0  0  0  0
  6 15  2  0  0  0  0
  8 20  1  0  0  0  0
  8 19  1  0  0  0  0
 10 12  2  0  0  0  0
 11  4  2  0  0  0  0
 12  7  1  0  0  0  0
 12  1  1  0  0  0  0
 13  6  1  0  0  0  0
 13 17  1  0  0  0  0
 14 21  2  0  0  0  0
 15 10  1  0  0  0  0
 15 11  1  0  0  0  0
 16 17  1  0  0  0  0
 16  2  1  0  0  0  0
 16  9  1  1  0  0  0
 17  3  2  0  0  0  0
 18 13  2  0  0  0  0
 19 26  1  1  0  0  0
 21 19  1  0  0  0  0
 23 25  1  0  0  0  0
 24 25  1  0  0  0  0
 25 22  1  0  0  0  0
 25  2  1  0  0  0  0
 26 27  1  0  0  0  0
M  END
>  <MODEL>
8

>  <REMARK>
 VINA RESULT:      -6.0      3.654      6.679
  Name = 
  2 active torsions:
  status: ('A' for Active; 'I' for Inactive)
    1  A    between atoms: C_2  and  C_26
    2  A    between atoms: C_18  and  C_24
                            x       y       z     vdW  Elec       q    Type
                         _______ _______ _______ _____ _____    ______ ____

>  <TORSDO>
F 2

$$$$
=
 OpenBabel11032419483D

 27 29  0  0  1  0  0  0  0  0999 V2000
  186.6360  178.2200  145.3080 C   0  0  0  0  0  2  0  0  0  0  0  0
  183.2720  179.0910  139.4450 C   0  0  0  0  0  0  0  0  0  0  0  0
  184.4320  178.0310  142.1870 N   0  0  0  0  0  0  0  0  0  0  0  0
  186.1850  178.0020  143.8830 C   0  0  0  0  0  0  0  0  0  0  0  0
  187.1440  177.3930  142.9990 N   0  0  0  0  0  2  0  0  0  0  0  0
  182.8110  179.2990  144.1060 N   0  0  0  0  0  0  0  0  0  0  0  0
  186.1020  179.3740  147.5470 C   0  0  0  0  0  1  0  0  0  0  0  0
  187.0740  178.4910  140.8210 C   0  0  0  0  0  2  0  0  0  0  0  0
  183.0700  176.6410  139.9770 C   0  0  0  0  0  1  0  0  0  0  0  0
  184.4860  179.3120  145.7710 N   0  0  0  0  0  0  0  0  0  0  0  0
  184.9260  178.3130  143.5050 C   0  0  0  0  0  0  0  0  0  0  0  0
  185.6800  179.0030  146.1720 C   0  0  0  0  0  0  0  0  0  0  0  0
  182.3230  179.0030  142.7910 C   0  0  0  0  0  0  0  0  0  0  0  0
  184.5470  179.1550  139.1350 C   0  0  0  0  0  0  0  0  0  0  0  0
  184.0190  178.9790  144.4640 C   0  0  0  0  0  0  0  0  0  0  0  0
  182.7630  178.0640  140.4200 C   0  0  1  0  0  3  0  0  0  0  0  0
  183.2200  178.3350  141.8250 C   0  0  0  0  0  0  0  0  0  0  0  0
  181.1460  179.3160  142.4700 O   0  0  0  0  0  0  0  0  0  0  0  0
  186.8070  178.2540  139.3420 C   0  0  1  0  0  3  0  0  0  0  0  0
  187.0040  177.1710  141.5660 C   0  0  0  0  0  2  0  0  0  0  0  0
  185.8090  179.2300  138.8090 C   0  0  0  0  0  3  0  0  0  0  0  0
  181.9300  179.6530  137.5830 F   0  0  0  0  0  0  0  0  0  0  0  0
  182.9490  181.3130  138.7180 F   0  0  0  0  0  0  0  0  0  0  0  0
  181.1970  180.2370  139.6290 F   0  0  0  0  0  0  0  0  0  0  0  0
  182.3220  180.0850  138.8380 C   0  0  0  0  0  0  0  0  0  0  0  0
  188.1040  178.3020  138.5400 C   0  0  0  0  0  2  0  0  0  0  0  0
  187.9190  179.0020  137.2780 N   0  0  0  0  0  1  0  0  0  0  0  0
  1 12  1  0  0  0  0
  2 16  1  0  0  0  0
  3 11  1  0  0  0  0
  4  1  1  0  0  0  0
  5  4  1  0  0  0  0
  6 15  2  0  0  0  0
  8 20  1  0  0  0  0
 10 12  2  0  0  0  0
 11  4  2  0  0  0  0
 11 15  1  0  0  0  0
 12  7  1  0  0  0  0
 13  6  1  0  0  0  0
 14  2  2  0  0  0  0
 15 10  1  0  0  0  0
 16  9  1  6  0  0  0
 16 17  1  0  0  0  0
 17  3  2  0  0  0  0
 17 13  1  0  0  0  0
 18 13  2  0  0  0  0
 19 26  1  6  0  0  0
 19  8  1  0  0  0  0
 20  5  1  0  0  0  0
 21 14  2  0  0  0  0
 21 19  1  0  0  0  0
 22 25  1  0  0  0  0
 23 25  1  0  0  0  0
 25  2  1  0  0  0  0
 25 24  1  0  0  0  0
 27 26  1  0  0  0  0
M  END
>  <MODEL>
9

>  <REMARK>
 VINA RESULT:      -5.6      4.188      5.894
  Name = 
  2 active torsions:
  status: ('A' for Active; 'I' for Inactive)
    1  A    between atoms: C_2  and  C_26
    2  A    between atoms: C_18  and  C_24
                            x       y       z     vdW  Elec       q    Type
                         _______ _______ _______ _____ _____    ______ ____

>  <TORSDO>
F 2

$$$$
