=
 OpenBabel11042412283D

 27 31  0  0  1  0  0  0  0  0999 V2000
  187.9630  177.1730  143.2270 N   0  0  0  0  0  0  0  0  0  0  0  0
  184.9180  178.8980  143.8160 C   0  0  0  0  0  0  0  0  0  0  0  0
  188.3060  178.0250  148.1920 C   0  0  0  0  0  0  0  0  0  0  0  0
  185.7770  178.2570  142.7610 C   0  0  0  0  0  2  0  0  0  0  0  0
  187.2590  178.0680  147.3630 C   0  0  0  0  0  3  0  0  0  0  0  0
  187.4280  177.6300  145.9680 C   0  0  0  0  0  0  0  0  0  0  0  0
  183.8640  179.5310  143.5490 O   0  0  0  0  0  0  0  0  0  0  0  0
  188.1630  178.4440  149.4730 F   0  0  0  0  0  0  0  0  0  0  0  0
  189.6440  177.6260  147.7010 C   0  0  0  0  0  3  0  0  0  0  0  0
  188.6180  176.7580  145.6170 C   0  0  1  0  0  3  0  0  0  0  0  0
  186.5710  177.9670  145.0080 C   0  0  0  0  0  0  0  0  0  0  0  0
  186.8400  177.6840  143.6230 C   0  0  0  0  0  0  0  0  0  0  0  0
  188.9380  176.7870  144.1720 N   0  0  0  0  0  0  0  0  0  0  0  0
  189.8070  177.0840  146.4870 C   0  0  0  0  0  3  0  0  0  0  0  0
  185.3930  178.7410  145.1560 N   0  0  0  0  0  2  0  0  0  0  0  0
  190.1310  176.1080  143.6830 C   0  0  0  0  0  2  0  0  0  0  0  0
  190.5430  176.6740  142.3680 C   0  0  0  0  0  0  0  0  0  0  0  0
  190.4680  177.3220  140.2680 N   0  0  0  0  0  0  0  0  0  0  0  0
  191.6390  177.7390  140.7940 C   0  0  0  0  0  3  0  0  0  0  0  0
  189.7780  176.6720  141.2240 C   0  0  0  0  0  3  0  0  0  0  0  0
  191.7200  177.3540  142.1200 C   0  0  0  0  0  3  0  0  0  0  0  0
  189.2090  178.6430  138.6070 C   0  0  0  0  0  3  0  0  0  0  0  0
  189.1620  177.9770  136.2800 C   0  0  0  0  0  3  0  0  0  0  0  0
  190.4060  176.6640  137.8900 C   0  0  0  0  0  3  0  0  0  0  0  0
  189.9750  176.8800  136.5780 C   0  0  0  0  0  3  0  0  0  0  0  0
  188.7800  178.8580  137.2950 C   0  0  0  0  0  3  0  0  0  0  0  0
  190.0260  177.5440  138.9180 C   0  0  0  0  0  0  0  0  0  0  0  0
  1 12  2  0  0  0  0
  1 13  1  0  0  0  0
  2 15  1  0  0  0  0
  3  8  1  0  0  0  0
  4 12  1  0  0  0  0
  4  2  1  0  0  0  0
  5  3  2  0  0  0  0
  6  5  1  0  0  0  0
  7  2  2  0  0  0  0
  9  3  1  0  0  0  0
 10  6  1  0  0  0  0
 10 14  1  1  0  0  0
 11 15  1  0  0  0  0
 11  6  2  0  0  0  0
 12 11  1  0  0  0  0
 13 10  1  0  0  0  0
 14  9  2  0  0  0  0
 16 13  1  0  0  0  0
 17 16  1  0  0  0  0
 18 19  1  0  0  0  0
 18 20  1  0  0  0  0
 19 21  2  0  0  0  0
 20 17  2  0  0  0  0
 21 17  1  0  0  0  0
 22 27  1  0  0  0  0
 23 25  2  0  0  0  0
 23 26  1  0  0  0  0
 24 27  2  0  0  0  0
 25 24  1  0  0  0  0
 26 22  2  0  0  0  0
 27 18  1  0  0  0  0
M  END
>  <MODEL>
1

>  <REMARK>
 VINA RESULT:      -9.5      0.000      0.000
  Name = 
  3 active torsions:
  status: ('A' for Active; 'I' for Inactive)
    1  A    between atoms: C_13  and  C_17
    2  A    between atoms: C_17  and  N_20
    3  A    between atoms: N_21  and  C_24
                            x       y       z     vdW  Elec       q    Type
                         _______ _______ _______ _____ _____    ______ ____

>  <TORSDO>
F 3

$$$$
=
 OpenBabel11042412283D

 27 31  0  0  0  0  0  0  0  0999 V2000
  187.8400  177.6780  143.6090 N   0  0  0  0  0  0  0  0  0  0  0  0
  190.5470  177.2110  141.3630 C   0  0  0  0  0  0  0  0  0  0  0  0
  191.5450  176.4950  146.8290 C   0  0  0  0  0  0  0  0  0  0  0  0
  189.0820  177.5330  141.4630 C   0  0  0  0  0  2  0  0  0  0  0  0
  191.5820  176.8980  145.5560 C   0  0  0  0  0  2  0  0  0  0  0  0
  190.3330  177.3120  144.8950 C   0  0  0  0  0  0  0  0  0  0  0  0
  191.1380  177.0410  140.2650 O   0  0  0  0  0  0  0  0  0  0  0  0
  192.6870  176.0940  147.4380 F   0  0  0  0  0  0  0  0  0  0  0  0
  190.2560  176.3810  147.5490 C   0  0  0  0  0  3  0  0  0  0  0  0
  189.1420  177.6840  145.7580 C   0  0  0  0  0  0  0  0  0  0  0  0
  190.2160  177.3780  143.5720 C   0  0  0  0  0  0  0  0  0  0  0  0
  188.9460  177.6120  142.9380 C   0  0  0  0  0  0  0  0  0  0  0  0
  187.8610  177.6130  145.0190 N   0  0  0  0  0  0  0  0  0  0  0  0
  189.1260  176.8850  147.0380 C   0  0  0  0  0  3  0  0  0  0  0  0
  191.2260  177.1030  142.6170 N   0  0  0  0  0  2  0  0  0  0  0  0
  186.6060  177.8120  145.7310 C   0  0  0  0  0  2  0  0  0  0  0  0
  185.5720  178.3590  144.8080 C   0  0  0  0  0  0  0  0  0  0  0  0
  184.4080  178.7420  142.9820 N   0  0  0  0  0  0  0  0  0  0  0  0
  183.7760  179.3370  144.0150 C   0  0  0  0  0  3  0  0  0  0  0  0
  185.5110  178.1290  143.4530 C   0  0  0  0  0  3  0  0  0  0  0  0
  184.4780  179.1120  145.1860 C   0  0  0  0  0  3  0  0  0  0  0  0
  184.8960  178.9580  140.5730 C   0  0  0  0  0  3  0  0  0  0  0  0
  183.1240  178.7690  138.9340 C   0  0  0  0  0  3  0  0  0  0  0  0
  182.6200  178.5520  141.2920 C   0  0  0  0  0  3  0  0  0  0  0  0
  182.1980  178.5620  139.9590 C   0  0  0  0  0  3  0  0  0  0  0  0
  184.4730  178.9670  139.2410 C   0  0  0  0  0  3  0  0  0  0  0  0
  183.9740  178.7510  141.6120 C   0  0  0  0  0  0  0  0  0  0  0  0
  1 13  1  0  0  0  0
  2  4  1  0  0  0  0
  2 15  1  0  0  0  0
  3  8  1  0  0  0  0
  3  9  2  0  0  0  0
  4 12  1  0  0  0  0
  5  3  1  0  0  0  0
  6  5  1  0  0  0  0
  6 10  1  0  0  0  0
  7  2  2  0  0  0  0
 10 14  2  0  0  0  0
 11  6  2  0  0  0  0
 12 11  1  0  0  0  0
 12  1  2  0  0  0  0
 13 16  1  0  0  0  0
 13 10  1  0  0  0  0
 14  9  1  0  0  0  0
 15 11  1  0  0  0  0
 17 21  1  0  0  0  0
 17 16  1  0  0  0  0
 18 20  1  0  0  0  0
 18 19  1  0  0  0  0
 19 21  2  0  0  0  0
 20 17  2  0  0  0  0
 22 27  1  0  0  0  0
 23 26  1  0  0  0  0
 23 25  2  0  0  0  0
 24 27  2  0  0  0  0
 25 24  1  0  0  0  0
 26 22  2  0  0  0  0
 27 18  1  0  0  0  0
M  END
>  <MODEL>
2

>  <REMARK>
 VINA RESULT:      -9.3      2.948      5.514
  Name = 
  3 active torsions:
  status: ('A' for Active; 'I' for Inactive)
    1  A    between atoms: C_13  and  C_17
    2  A    between atoms: C_17  and  N_20
    3  A    between atoms: N_21  and  C_24
                            x       y       z     vdW  Elec       q    Type
                         _______ _______ _______ _____ _____    ______ ____

>  <TORSDO>
F 3

$$$$
=
 OpenBabel11042412283D

 27 31  0  0  1  0  0  0  0  0999 V2000
  190.3040  176.5410  143.8920 N   0  0  0  0  0  0  0  0  0  0  0  0
  191.6420  176.2950  147.1700 C   0  0  0  0  0  0  0  0  0  0  0  0
  186.3860  178.1620  146.6350 C   0  0  0  0  0  0  0  0  0  0  0  0
  191.9240  176.0580  145.7120 C   0  0  0  0  0  2  0  0  0  0  0  0
  187.6790  178.0270  146.9430 C   0  0  0  0  0  3  0  0  0  0  0  0
  188.6360  177.6580  145.8870 C   0  0  0  0  0  0  0  0  0  0  0  0
  192.4320  175.9500  148.0850 O   0  0  0  0  0  0  0  0  0  0  0  0
  185.4970  178.4840  147.6060 F   0  0  0  0  0  0  0  0  0  0  0  0
  185.8980  177.8610  145.2700 C   0  0  0  0  0  3  0  0  0  0  0  0
  188.2340  177.8580  144.4380 C   0  0  1  0  0  3  0  0  0  0  0  0
  189.8390  177.1610  146.1580 C   0  0  0  0  0  0  0  0  0  0  0  0
  190.6920  176.6410  145.1240 C   0  0  0  0  0  0  0  0  0  0  0  0
  189.0390  177.0360  143.5060 N   0  0  0  0  0  0  0  0  0  0  0  0
  186.7490  177.6680  144.2530 C   0  0  0  0  0  3  0  0  0  0  0  0
  190.3940  176.9400  147.4440 N   0  0  0  0  0  2  0  0  0  0  0  0
  188.6980  177.0090  142.0900 C   0  0  0  0  0  2  0  0  0  0  0  0
  189.9360  177.0540  141.2620 C   0  0  0  0  0  0  0  0  0  0  0  0
  191.3030  176.8470  139.5520 N   0  0  0  0  0  0  0  0  0  0  0  0
  191.9560  177.5030  140.5340 C   0  0  0  0  0  3  0  0  0  0  0  0
  190.0570  176.5700  139.9800 C   0  0  0  0  0  3  0  0  0  0  0  0
  191.1230  177.6580  141.6280 C   0  0  0  0  0  3  0  0  0  0  0  0
  190.9900  176.3120  137.1640 C   0  0  0  0  0  3  0  0  0  0  0  0
  192.8950  175.8520  135.7430 C   0  0  0  0  0  3  0  0  0  0  0  0
  193.2290  176.3760  138.0830 C   0  0  0  0  0  3  0  0  0  0  0  0
  193.7530  176.0480  136.8290 C   0  0  0  0  0  3  0  0  0  0  0  0
  191.5150  175.9850  135.9110 C   0  0  0  0  0  3  0  0  0  0  0  0
  191.8420  176.5110  138.2630 C   0  0  0  0  0  0  0  0  0  0  0  0
  1 12  2  0  0  0  0
  2 15  1  0  0  0  0
  2  7  2  0  0  0  0
  3  5  2  0  0  0  0
  3  8  1  0  0  0  0
  4  2  1  0  0  0  0
  6 11  2  0  0  0  0
  6  5  1  0  0  0  0
  9  3  1  0  0  0  0
 10 14  1  1  0  0  0
 10  6  1  0  0  0  0
 11 15  1  0  0  0  0
 12  4  1  0  0  0  0
 12 11  1  0  0  0  0
 13  1  1  0  0  0  0
 13 10  1  0  0  0  0
 14  9  2  0  0  0  0
 16 13  1  0  0  0  0
 17 21  1  0  0  0  0
 17 16  1  0  0  0  0
 18 20  1  0  0  0  0
 18 19  1  0  0  0  0
 19 21  2  0  0  0  0
 20 17  2  0  0  0  0
 22 27  1  0  0  0  0
 23 26  1  0  0  0  0
 23 25  2  0  0  0  0
 24 27  2  0  0  0  0
 25 24  1  0  0  0  0
 26 22  2  0  0  0  0
 27 18  1  0  0  0  0
M  END
>  <MODEL>
3

>  <REMARK>
 VINA RESULT:      -9.2      2.697      4.012
  Name = 
  3 active torsions:
  status: ('A' for Active; 'I' for Inactive)
    1  A    between atoms: C_13  and  C_17
    2  A    between atoms: C_17  and  N_20
    3  A    between atoms: N_21  and  C_24
                            x       y       z     vdW  Elec       q    Type
                         _______ _______ _______ _____ _____    ______ ____

>  <TORSDO>
F 3

$$$$
=
 OpenBabel11042412283D

 27 31  0  0  1  0  0  0  0  0999 V2000
  187.0510  177.6510  143.1160 N   0  0  0  0  0  0  0  0  0  0  0  0
  183.9590  178.8330  144.3960 C   0  0  0  0  0  0  0  0  0  0  0  0
  188.1520  178.0490  148.0280 C   0  0  0  0  0  0  0  0  0  0  0  0
  184.6950  178.4350  143.1460 C   0  0  0  0  0  2  0  0  0  0  0  0
  186.9790  178.0160  147.3900 C   0  0  0  0  0  3  0  0  0  0  0  0
  186.9540  177.7490  145.9430 C   0  0  0  0  0  0  0  0  0  0  0  0
  182.8020  179.3250  144.3820 O   0  0  0  0  0  0  0  0  0  0  0  0
  188.1840  178.3130  149.3570 F   0  0  0  0  0  0  0  0  0  0  0  0
  189.4230  177.9060  147.2830 C   0  0  0  0  0  3  0  0  0  0  0  0
  188.1670  177.1040  145.3000 C   0  0  1  0  0  3  0  0  0  0  0  0
  185.9050  178.0470  145.1820 C   0  0  0  0  0  0  0  0  0  0  0  0
  185.9590  177.9460  143.7480 C   0  0  0  0  0  0  0  0  0  0  0  0
  188.2210  177.3230  143.8370 N   0  0  0  0  0  0  0  0  0  0  0  0
  189.4380  177.5160  146.0010 C   0  0  0  0  0  3  0  0  0  0  0  0
  184.6810  178.6170  145.6120 N   0  0  0  0  0  2  0  0  0  0  0  0
  189.3870  176.8830  143.0830 C   0  0  0  0  0  2  0  0  0  0  0  0
  189.2940  177.3520  141.6720 C   0  0  0  0  0  0  0  0  0  0  0  0
  189.4810  177.4040  139.4810 N   0  0  0  0  0  0  0  0  0  0  0  0
  188.7460  178.4690  139.8660 C   0  0  0  0  0  3  0  0  0  0  0  0
  189.8210  176.7030  140.5790 C   0  0  0  0  0  3  0  0  0  0  0  0
  188.6010  178.4660  141.2420 C   0  0  0  0  0  3  0  0  0  0  0  0
  190.9290  176.2330  137.8650 C   0  0  0  0  0  3  0  0  0  0  0  0
  190.5220  176.4150  135.4850 C   0  0  0  0  0  3  0  0  0  0  0  0
  189.0850  177.5740  137.0520 C   0  0  0  0  0  3  0  0  0  0  0  0
  189.4290  177.2480  135.7360 C   0  0  0  0  0  3  0  0  0  0  0  0
  191.2720  175.9070  136.5490 C   0  0  0  0  0  3  0  0  0  0  0  0
  189.8330  177.0700  138.1290 C   0  0  0  0  0  0  0  0  0  0  0  0
  1 12  2  0  0  0  0
  1 13  1  0  0  0  0
  2 15  1  0  0  0  0
  3  8  1  0  0  0  0
  4 12  1  0  0  0  0
  4  2  1  0  0  0  0
  5  3  2  0  0  0  0
  6  5  1  0  0  0  0
  7  2  2  0  0  0  0
  9  3  1  0  0  0  0
 10  6  1  0  0  0  0
 10 14  1  1  0  0  0
 11 15  1  0  0  0  0
 11  6  2  0  0  0  0
 12 11  1  0  0  0  0
 13 10  1  0  0  0  0
 14  9  2  0  0  0  0
 16 13  1  0  0  0  0
 17 16  1  0  0  0  0
 18 19  1  0  0  0  0
 18 20  1  0  0  0  0
 19 21  2  0  0  0  0
 20 17  2  0  0  0  0
 21 17  1  0  0  0  0
 22 27  1  0  0  0  0
 23 25  2  0  0  0  0
 23 26  1  0  0  0  0
 24 27  2  0  0  0  0
 25 24  1  0  0  0  0
 26 22  2  0  0  0  0
 27 18  1  0  0  0  0
M  END
>  <MODEL>
4

>  <REMARK>
 VINA RESULT:      -9.0      1.082      1.642
  Name = 
  3 active torsions:
  status: ('A' for Active; 'I' for Inactive)
    1  A    between atoms: C_13  and  C_17
    2  A    between atoms: C_17  and  N_20
    3  A    between atoms: N_21  and  C_24
                            x       y       z     vdW  Elec       q    Type
                         _______ _______ _______ _____ _____    ______ ____

>  <TORSDO>
F 3

$$$$
=
 OpenBabel11042412283D

 27 31  0  0  0  0  0  0  0  0999 V2000
  185.8140  178.5660  143.5030 N   0  0  0  0  0  0  0  0  0  0  0  0
  186.8620  178.6220  140.1130 C   0  0  0  0  0  0  0  0  0  0  0  0
  181.3740  179.0660  141.1510 C   0  0  0  0  0  0  0  0  0  0  0  0
  187.3340  178.5430  141.5390 C   0  0  0  0  0  2  0  0  0  0  0  0
  182.5720  178.6860  140.6970 C   0  0  0  0  0  2  0  0  0  0  0  0
  183.6760  178.4940  141.6510 C   0  0  0  0  0  0  0  0  0  0  0  0
  187.6480  178.7130  139.1350 O   0  0  0  0  0  0  0  0  0  0  0  0
  180.3580  179.2630  140.2760 F   0  0  0  0  0  0  0  0  0  0  0  0
  181.1720  179.3780  142.5840 C   0  0  0  0  0  3  0  0  0  0  0  0
  183.3440  178.3070  143.1200 C   0  0  0  0  0  0  0  0  0  0  0  0
  184.9500  178.4710  141.2710 C   0  0  0  0  0  0  0  0  0  0  0  0
  186.0230  178.4610  142.2290 C   0  0  0  0  0  0  0  0  0  0  0  0
  184.4940  178.6010  144.0040 N   0  0  0  0  0  0  0  0  0  0  0  0
  182.1020  179.0750  143.5000 C   0  0  0  0  0  3  0  0  0  0  0  0
  185.4410  178.5940  139.9470 N   0  0  0  0  0  2  0  0  0  0  0  0
  184.3120  178.5980  145.4500 C   0  0  0  0  0  2  0  0  0  0  0  0
  185.6230  178.4080  146.1330 C   0  0  0  0  0  0  0  0  0  0  0  0
  187.7330  177.8920  146.4780 N   0  0  0  0  0  0  0  0  0  0  0  0
  187.2650  178.5080  147.5840 C   0  0  0  0  0  3  0  0  0  0  0  0
  186.7380  177.8280  145.5730 C   0  0  0  0  0  3  0  0  0  0  0  0
  185.9380  178.8540  147.4010 C   0  0  0  0  0  3  0  0  0  0  0  0
  189.8170  176.9360  147.3890 C   0  0  0  0  0  3  0  0  0  0  0  0
  191.6820  176.4300  145.9310 C   0  0  0  0  0  3  0  0  0  0  0  0
  189.6470  177.3660  145.0130 C   0  0  0  0  0  3  0  0  0  0  0  0
  190.9480  176.8850  144.8330 C   0  0  0  0  0  3  0  0  0  0  0  0
  191.1160  176.4550  147.2090 C   0  0  0  0  0  3  0  0  0  0  0  0
  189.0690  177.3970  146.2930 C   0  0  0  0  0  0  0  0  0  0  0  0
  1 13  1  0  0  0  0
  2  4  1  0  0  0  0
  3  9  2  0  0  0  0
  4 12  1  0  0  0  0
  5  3  1  0  0  0  0
  5  6  1  0  0  0  0
  6 10  1  0  0  0  0
  7  2  2  0  0  0  0
  8  3  1  0  0  0  0
  9 14  1  0  0  0  0
 10 14  2  0  0  0  0
 10 13  1  0  0  0  0
 11  6  2  0  0  0  0
 11 12  1  0  0  0  0
 12  1  2  0  0  0  0
 13 16  1  0  0  0  0
 15  2  1  0  0  0  0
 15 11  1  0  0  0  0
 16 17  1  0  0  0  0
 17 21  1  0  0  0  0
 18 19  1  0  0  0  0
 20 17  2  0  0  0  0
 20 18  1  0  0  0  0
 21 19  2  0  0  0  0
 23 26  2  0  0  0  0
 24 27  1  0  0  0  0
 25 24  2  0  0  0  0
 25 23  1  0  0  0  0
 26 22  1  0  0  0  0
 27 18  1  0  0  0  0
 27 22  2  0  0  0  0
M  END
>  <MODEL>
5

>  <REMARK>
 VINA RESULT:      -8.9      3.750      7.317
  Name = 
  3 active torsions:
  status: ('A' for Active; 'I' for Inactive)
    1  A    between atoms: C_13  and  C_17
    2  A    between atoms: C_17  and  N_20
    3  A    between atoms: N_21  and  C_24
                            x       y       z     vdW  Elec       q    Type
                         _______ _______ _______ _____ _____    ______ ____

>  <TORSDO>
F 3

$$$$
=
 OpenBabel11042412283D

 27 31  0  0  0  0  0  0  0  0999 V2000
  188.4460  177.7920  141.3440 N   0  0  0  0  0  0  0  0  0  0  0  0
  185.3660  179.0280  140.0850 C   0  0  0  0  0  0  0  0  0  0  0  0
  188.8670  176.5780  136.4600 C   0  0  0  0  0  0  0  0  0  0  0  0
  186.1990  178.8500  141.3250 C   0  0  0  0  0  2  0  0  0  0  0  0
  188.0530  177.4330  137.0870 C   0  0  0  0  0  2  0  0  0  0  0  0
  188.2490  177.6920  138.5230 C   0  0  0  0  0  0  0  0  0  0  0  0
  184.1900  179.4720  140.1080 O   0  0  0  0  0  0  0  0  0  0  0  0
  188.6800  176.3200  135.1430 F   0  0  0  0  0  0  0  0  0  0  0  0
  189.9000  175.8290  137.2100 C   0  0  0  0  0  3  0  0  0  0  0  0
  189.5860  177.3430  139.1500 C   0  0  0  0  0  0  0  0  0  0  0  0
  187.3000  178.2270  139.2850 C   0  0  0  0  0  0  0  0  0  0  0  0
  187.4390  178.3110  140.7150 C   0  0  0  0  0  0  0  0  0  0  0  0
  189.5030  177.1970  140.6200 N   0  0  0  0  0  0  0  0  0  0  0  0
  190.2060  176.1440  138.4760 C   0  0  0  0  0  3  0  0  0  0  0  0
  186.0120  178.6450  138.8680 N   0  0  0  0  0  2  0  0  0  0  0  0
  190.6660  176.7360  141.3660 C   0  0  0  0  0  2  0  0  0  0  0  0
  190.6280  177.2650  142.7590 C   0  0  0  0  0  0  0  0  0  0  0  0
  189.9400  177.6900  144.8040 N   0  0  0  0  0  0  0  0  0  0  0  0
  191.2010  178.1540  144.6800 C   0  0  0  0  0  3  0  0  0  0  0  0
  189.5740  177.1340  143.6340 C   0  0  0  0  0  3  0  0  0  0  0  0
  191.6720  177.8980  143.4040 C   0  0  0  0  0  3  0  0  0  0  0  0
  189.7200  177.7390  147.2610 C   0  0  0  0  0  3  0  0  0  0  0  0
  187.5410  177.9150  148.3000 C   0  0  0  0  0  3  0  0  0  0  0  0
  187.7310  177.8710  145.8870 C   0  0  0  0  0  3  0  0  0  0  0  0
  186.9410  177.9450  147.0390 C   0  0  0  0  0  3  0  0  0  0  0  0
  188.9300  177.8130  148.4110 C   0  0  0  0  0  3  0  0  0  0  0  0
  189.1280  177.7670  145.9870 C   0  0  0  0  0  0  0  0  0  0  0  0
  2  7  2  0  0  0  0
  2  4  1  0  0  0  0
  3  5  1  0  0  0  0
  3  9  2  0  0  0  0
  5  6  1  0  0  0  0
  6 10  1  0  0  0  0
  6 11  2  0  0  0  0
  8  3  1  0  0  0  0
  9 14  1  0  0  0  0
 10 13  1  0  0  0  0
 11 12  1  0  0  0  0
 12  4  1  0  0  0  0
 12  1  2  0  0  0  0
 13  1  1  0  0  0  0
 13 16  1  0  0  0  0
 14 10  2  0  0  0  0
 15 11  1  0  0  0  0
 15  2  1  0  0  0  0
 16 17  1  0  0  0  0
 17 21  1  0  0  0  0
 17 20  2  0  0  0  0
 18 27  1  0  0  0  0
 19 18  1  0  0  0  0
 20 18  1  0  0  0  0
 21 19  2  0  0  0  0
 22 26  1  0  0  0  0
 23 26  2  0  0  0  0
 24 27  1  0  0  0  0
 24 25  2  0  0  0  0
 25 23  1  0  0  0  0
 27 22  2  0  0  0  0
M  END
>  <MODEL>
6

>  <REMARK>
 VINA RESULT:      -8.8      3.313      7.466
  Name = 
  3 active torsions:
  status: ('A' for Active; 'I' for Inactive)
    1  A    between atoms: C_13  and  C_17
    2  A    between atoms: C_17  and  N_20
    3  A    between atoms: N_21  and  C_24
                            x       y       z     vdW  Elec       q    Type
                         _______ _______ _______ _____ _____    ______ ____

>  <TORSDO>
F 3

$$$$
=
 OpenBabel11042412283D

 27 31  0  0  1  0  0  0  0  0999 V2000
  187.4430  178.3690  142.0650 N   0  0  0  0  0  0  0  0  0  0  0  0
  184.0380  178.6930  143.0110 C   0  0  0  0  0  0  0  0  0  0  0  0
  187.7610  177.5360  147.0350 C   0  0  0  0  0  0  0  0  0  0  0  0
  185.0010  178.7690  141.8580 C   0  0  0  0  0  2  0  0  0  0  0  0
  186.7140  177.5150  146.2050 C   0  0  0  0  0  3  0  0  0  0  0  0
  186.9400  177.6610  144.7580 C   0  0  0  0  0  0  0  0  0  0  0  0
  182.8220  178.9980  142.9090 O   0  0  0  0  0  0  0  0  0  0  0  0
  187.5590  177.4210  148.3700 F   0  0  0  0  0  0  0  0  0  0  0  0
  189.1270  177.7900  146.5230 C   0  0  0  0  0  3  0  0  0  0  0  0
  188.3300  177.4010  144.2080 C   0  0  1  0  0  3  0  0  0  0  0  0
  185.9690  178.0060  143.9170 C   0  0  0  0  0  0  0  0  0  0  0  0
  186.2390  178.3170  142.5390 C   0  0  0  0  0  0  0  0  0  0  0  0
  188.5420  178.0250  142.8820 N   0  0  0  0  0  0  0  0  0  0  0  0
  189.3910  177.7790  145.2110 C   0  0  0  0  0  3  0  0  0  0  0  0
  184.6120  178.2520  144.2450 N   0  0  0  0  0  2  0  0  0  0  0  0
  189.8630  177.9840  142.2690 C   0  0  0  0  0  2  0  0  0  0  0  0
  189.7670  177.4650  140.8750 C   0  0  0  0  0  0  0  0  0  0  0  0
  189.1580  177.2500  138.7730 N   0  0  0  0  0  0  0  0  0  0  0  0
  190.1670  176.3850  139.0080 C   0  0  0  0  0  3  0  0  0  0  0  0
  188.9040  177.9270  139.9090 C   0  0  0  0  0  3  0  0  0  0  0  0
  190.5820  176.4960  140.3230 C   0  0  0  0  0  3  0  0  0  0  0  0
  187.1000  177.7060  137.4910 C   0  0  0  0  0  3  0  0  0  0  0  0
  187.1430  177.7730  135.0720 C   0  0  0  0  0  3  0  0  0  0  0  0
  189.1770  177.3260  136.3070 C   0  0  0  0  0  3  0  0  0  0  0  0
  188.5130  177.4970  135.0890 C   0  0  0  0  0  3  0  0  0  0  0  0
  186.4370  177.8780  136.2730 C   0  0  0  0  0  3  0  0  0  0  0  0
  188.4760  177.4280  137.5210 C   0  0  0  0  0  0  0  0  0  0  0  0
  1 12  2  0  0  0  0
  1 13  1  0  0  0  0
  2 15  1  0  0  0  0
  3  8  1  0  0  0  0
  4 12  1  0  0  0  0
  4  2  1  0  0  0  0
  5  3  2  0  0  0  0
  6  5  1  0  0  0  0
  7  2  2  0  0  0  0
  9  3  1  0  0  0  0
 10  6  1  0  0  0  0
 10 14  1  1  0  0  0
 11 15  1  0  0  0  0
 11  6  2  0  0  0  0
 12 11  1  0  0  0  0
 13 10  1  0  0  0  0
 14  9  2  0  0  0  0
 16 13  1  0  0  0  0
 17 16  1  0  0  0  0
 18 19  1  0  0  0  0
 18 20  1  0  0  0  0
 19 21  2  0  0  0  0
 20 17  2  0  0  0  0
 21 17  1  0  0  0  0
 22 27  1  0  0  0  0
 23 25  2  0  0  0  0
 23 26  1  0  0  0  0
 24 27  2  0  0  0  0
 25 24  1  0  0  0  0
 26 22  2  0  0  0  0
 27 18  1  0  0  0  0
M  END
>  <MODEL>
7

>  <REMARK>
 VINA RESULT:      -8.7      1.432      1.864
  Name = 
  3 active torsions:
  status: ('A' for Active; 'I' for Inactive)
    1  A    between atoms: C_13  and  C_17
    2  A    between atoms: C_17  and  N_20
    3  A    between atoms: N_21  and  C_24
                            x       y       z     vdW  Elec       q    Type
                         _______ _______ _______ _____ _____    ______ ____

>  <TORSDO>
F 3

$$$$
=
 OpenBabel11042412283D

 27 31  0  0  0  0  0  0  0  0999 V2000
  186.6120  178.6120  138.9730 N   0  0  0  0  0  0  0  0  0  0  0  0
  183.3470  177.7910  137.8500 C   0  0  0  0  0  0  0  0  0  0  0  0
  187.6020  174.6460  136.0080 C   0  0  0  0  0  0  0  0  0  0  0  0
  184.1430  178.7180  138.7280 C   0  0  0  0  0  2  0  0  0  0  0  0
  186.5250  175.4330  136.0930 C   0  0  0  0  0  2  0  0  0  0  0  0
  186.5680  176.6190  136.9640 C   0  0  0  0  0  0  0  0  0  0  0  0
  182.0890  177.7920  137.8160 O   0  0  0  0  0  0  0  0  0  0  0  0
  187.5630  173.5420  135.2220 F   0  0  0  0  0  0  0  0  0  0  0  0
  188.7970  174.9060  136.8410 C   0  0  0  0  0  3  0  0  0  0  0  0
  187.9200  177.1590  137.3930 C   0  0  0  0  0  0  0  0  0  0  0  0
  185.4670  177.2360  137.3820 C   0  0  0  0  0  0  0  0  0  0  0  0
  185.5150  178.2790  138.3700 C   0  0  0  0  0  0  0  0  0  0  0  0
  187.8340  178.0090  138.6020 N   0  0  0  0  0  0  0  0  0  0  0  0
  188.9320  176.0480  137.5290 C   0  0  0  0  0  3  0  0  0  0  0  0
  184.1300  176.8950  137.0560 N   0  0  0  0  0  2  0  0  0  0  0  0
  189.0550  178.5020  139.2250 C   0  0  0  0  0  2  0  0  0  0  0  0
  189.2370  177.8790  140.5670 C   0  0  0  0  0  0  0  0  0  0  0  0
  188.9580  177.4130  142.6980 N   0  0  0  0  0  0  0  0  0  0  0  0
  189.8500  176.5370  142.1890 C   0  0  0  0  0  3  0  0  0  0  0  0
  188.5650  178.2410  141.7120 C   0  0  0  0  0  3  0  0  0  0  0  0
  190.0470  176.7960  140.8440 C   0  0  0  0  0  3  0  0  0  0  0  0
  187.1230  177.4680  144.3450 C   0  0  0  0  0  3  0  0  0  0  0  0
  187.5960  177.5220  146.7180 C   0  0  0  0  0  3  0  0  0  0  0  0
  189.4150  177.4660  145.1220 C   0  0  0  0  0  3  0  0  0  0  0  0
  188.9660  177.5030  146.4450 C   0  0  0  0  0  3  0  0  0  0  0  0
  186.6750  177.5040  145.6680 C   0  0  0  0  0  3  0  0  0  0  0  0
  188.4980  177.4490  144.0580 C   0  0  0  0  0  0  0  0  0  0  0  0
  2  4  1  0  0  0  0
  3  5  1  0  0  0  0
  3  9  2  0  0  0  0
  5  6  1  0  0  0  0
  6 11  2  0  0  0  0
  6 10  1  0  0  0  0
  7  2  2  0  0  0  0
  8  3  1  0  0  0  0
  9 14  1  0  0  0  0
 10 14  2  0  0  0  0
 10 13  1  0  0  0  0
 11 12  1  0  0  0  0
 12  4  1  0  0  0  0
 12  1  2  0  0  0  0
 13  1  1  0  0  0  0
 13 16  1  0  0  0  0
 15 11  1  0  0  0  0
 15  2  1  0  0  0  0
 16 17  1  0  0  0  0
 17 21  1  0  0  0  0
 17 20  2  0  0  0  0
 18 27  1  0  0  0  0
 19 18  1  0  0  0  0
 20 18  1  0  0  0  0
 21 19  2  0  0  0  0
 22 26  1  0  0  0  0
 24 25  2  0  0  0  0
 25 23  1  0  0  0  0
 26 23  2  0  0  0  0
 27 22  2  0  0  0  0
 27 24  1  0  0  0  0
M  END
>  <MODEL>
8

>  <REMARK>
 VINA RESULT:      -8.7      4.224      7.841
  Name = 
  3 active torsions:
  status: ('A' for Active; 'I' for Inactive)
    1  A    between atoms: C_13  and  C_17
    2  A    between atoms: C_17  and  N_20
    3  A    between atoms: N_21  and  C_24
                            x       y       z     vdW  Elec       q    Type
                         _______ _______ _______ _____ _____    ______ ____

>  <TORSDO>
F 3

$$$$
=
 OpenBabel11042412283D

 27 31  0  0  0  0  0  0  0  0999 V2000
  186.5590  178.7790  140.3190 N   0  0  0  0  0  0  0  0  0  0  0  0
  183.2520  178.5610  139.0480 C   0  0  0  0  0  0  0  0  0  0  0  0
  187.3280  176.0350  136.1500 C   0  0  0  0  0  0  0  0  0  0  0  0
  184.0980  179.0880  140.1740 C   0  0  0  0  0  2  0  0  0  0  0  0
  186.2960  176.7970  136.5230 C   0  0  0  0  0  2  0  0  0  0  0  0
  186.4040  177.6060  137.7480 C   0  0  0  0  0  0  0  0  0  0  0  0
  181.9970  178.6370  139.0410 O   0  0  0  0  0  0  0  0  0  0  0  0
  187.2290  175.2730  135.0340 F   0  0  0  0  0  0  0  0  0  0  0  0
  188.5370  175.9310  136.9980 C   0  0  0  0  0  3  0  0  0  0  0  0
  187.7830  177.8960  138.3090 C   0  0  0  0  0  0  0  0  0  0  0  0
  185.3380  178.0960  138.3740 C   0  0  0  0  0  0  0  0  0  0  0  0
  185.4440  178.7310  139.6600 C   0  0  0  0  0  0  0  0  0  0  0  0
  187.7460  178.2810  139.7390 N   0  0  0  0  0  0  0  0  0  0  0  0
  188.7340  176.7580  138.0340 C   0  0  0  0  0  3  0  0  0  0  0  0
  183.9840  177.9560  137.9780 N   0  0  0  0  0  2  0  0  0  0  0  0
  188.9930  178.4670  140.4680 C   0  0  0  0  0  2  0  0  0  0  0  0
  188.9450  177.7330  141.7650 C   0  0  0  0  0  0  0  0  0  0  0  0
  188.7080  177.3170  143.9110 N   0  0  0  0  0  0  0  0  0  0  0  0
  188.8700  176.1400  143.2700 C   0  0  0  0  0  3  0  0  0  0  0  0
  188.7450  178.3070  142.9990 C   0  0  0  0  0  3  0  0  0  0  0  0
  189.0160  176.3620  141.9120 C   0  0  0  0  0  3  0  0  0  0  0  0
  189.5800  177.2600  146.2180 C   0  0  0  0  0  3  0  0  0  0  0  0
  188.1490  177.8140  148.0910 C   0  0  0  0  0  3  0  0  0  0  0  0
  187.2710  177.8780  145.8360 C   0  0  0  0  0  3  0  0  0  0  0  0
  187.0870  178.0410  147.2120 C   0  0  0  0  0  3  0  0  0  0  0  0
  189.3950  177.4240  147.5940 C   0  0  0  0  0  3  0  0  0  0  0  0
  188.5190  177.4850  145.3250 C   0  0  0  0  0  0  0  0  0  0  0  0
  2  4  1  0  0  0  0
  3  5  1  0  0  0  0
  3  9  2  0  0  0  0
  5  6  1  0  0  0  0
  6 10  1  0  0  0  0
  6 11  2  0  0  0  0
  7  2  2  0  0  0  0
  8  3  1  0  0  0  0
  9 14  1  0  0  0  0
 10 13  1  0  0  0  0
 11 12  1  0  0  0  0
 12  4  1  0  0  0  0
 12  1  2  0  0  0  0
 13  1  1  0  0  0  0
 13 16  1  0  0  0  0
 14 10  2  0  0  0  0
 15 11  1  0  0  0  0
 15  2  1  0  0  0  0
 16 17  1  0  0  0  0
 17 21  1  0  0  0  0
 17 20  2  0  0  0  0
 18 27  1  0  0  0  0
 19 18  1  0  0  0  0
 20 18  1  0  0  0  0
 21 19  2  0  0  0  0
 22 26  1  0  0  0  0
 24 25  2  0  0  0  0
 25 23  1  0  0  0  0
 26 23  2  0  0  0  0
 27 24  1  0  0  0  0
 27 22  2  0  0  0  0
M  END
>  <MODEL>
9

>  <REMARK>
 VINA RESULT:      -8.6      3.902      7.791
  Name = 
  3 active torsions:
  status: ('A' for Active; 'I' for Inactive)
    1  A    between atoms: C_13  and  C_17
    2  A    between atoms: C_17  and  N_20
    3  A    between atoms: N_21  and  C_24
                            x       y       z     vdW  Elec       q    Type
                         _______ _______ _______ _____ _____    ______ ____

>  <TORSDO>
F 3

$$$$
