=
 OpenBabel11032420023D

 46 51  0  0  1  0  0  0  0  0999 V2000
  189.2240  177.7710  140.1760 C   0  0  1  0  0  3  0  0  0  0  0  0
  183.4840  178.3110  140.5170 C   0  0  0  0  0  3  0  0  0  0  0  0
  186.8790  177.6880  144.1940 S   0  0  0  0  0  0  0  0  0  0  0  0
  182.0770  178.8120  142.5290 C   0  0  0  0  0  0  0  0  0  0  0  0
  184.4310  178.5420  143.4150 C   0  0  0  0  0  0  0  0  0  0  0  0
  185.1600  178.5710  142.3080 C   0  0  0  0  0  0  0  0  0  0  0  0
  183.0020  178.9090  143.4980 C   0  0  0  0  0  3  0  0  0  0  0  0
  187.5090  178.5230  141.7140 C   0  0  0  0  0  0  0  0  0  0  0  0
  185.1820  178.1950  144.6650 C   0  0  2  0  0  3  0  0  0  0  0  0
  185.2380  179.2890  145.5040 F   0  0  0  0  0  0  0  0  0  0  0  0
  186.5420  178.1790  142.5200 C   0  0  0  0  0  0  0  0  0  0  0  0
  188.4920  178.8460  140.9180 C   0  0  0  0  0  3  0  0  0  0  0  0
  182.3390  178.2260  141.1920 C   0  0  0  0  0  3  0  0  0  0  0  0
  184.6570  179.0950  140.9980 C   0  0  0  0  0  2  0  0  0  0  0  0
  179.8250  178.3130  143.0780 O   0  0  0  0  0  1  0  0  0  0  0  0
  180.3290  180.5380  142.9140 O   0  0  0  0  0  0  0  0  0  0  0  0
  180.6940  179.1950  142.8600 C   0  0  0  0  0  0  0  0  0  0  0  0
  189.8780  176.7510  141.1180 C   0  0  0  0  0  2  0  0  0  0  0  0
  192.0830  177.6530  140.7810 N   0  0  0  0  0  2  0  0  0  0  0  0
  191.2410  177.1610  141.6170 C   0  0  0  0  0  0  0  0  0  0  0  0
  190.5750  176.4080  143.9100 C   0  0  0  0  0  1  0  0  0  0  0  0
  191.4730  177.3170  143.0950 C   0  0  0  0  0  3  0  0  0  0  0  0
  191.2550  178.7500  143.5440 C   0  0  0  0  0  1  0  0  0  0  0  0
  188.3120  177.1140  139.1440 C   0  0  0  0  0  2  0  0  0  0  0  0
  187.5160  177.3080  135.9560 C   0  0  0  0  0  2  0  0  0  0  0  0
  186.2110  177.8150  137.9580 C   0  0  0  0  0  2  0  0  0  0  0  0
  188.3500  178.1740  136.8850 C   0  0  0  0  0  2  0  0  0  0  0  0
  186.0660  175.5590  136.9550 C   0  0  0  0  0  1  0  0  0  0  0  0
  187.6640  178.1650  138.2410 C   0  0  2  0  0  3  0  0  0  0  0  0
  186.1900  177.0390  136.6590 C   0  0  2  0  0  0  0  0  0  0  0  0
  185.0300  177.4560  135.8130 C   0  0  0  0  0  3  0  0  0  0  0  0
  183.8220  177.1750  136.1500 N   0  0  0  0  0  0  0  0  0  0  0  0
  182.7220  177.5870  135.3200 C   0  0  0  0  0  2  0  0  0  0  0  0
  181.4780  177.8140  136.1640 C   0  0  1  0  0  3  0  0  0  0  0  0
  181.8410  178.4610  137.3600 O   0  0  0  0  0  0  0  0  0  0  0  0
  181.2600  179.2600  136.3600 C   0  0  2  0  0  3  0  0  0  0  0  0
  179.8030  179.5120  136.6980 C   0  0  0  0  0  2  0  0  0  0  0  0
  179.6850  180.7160  137.5110 N   0  0  0  0  0  2  0  0  0  0  0  0
  180.6510  185.0330  136.1340 C   0  0  0  0  0  2  0  0  0  0  0  0
  180.6160  182.9740  137.5590 C   0  0  2  0  0  0  0  0  0  0  0  0
  180.8470  181.5450  137.2140 C   0  0  1  0  0  3  0  0  0  0  0  0
  181.3370  182.1260  138.4130 O   0  0  0  0  0  0  0  0  0  0  0  0
  179.3220  183.3490  138.1320 N   0  0  0  0  0  2  0  0  0  0  0  0
  179.3760  185.4610  136.8720 C   0  0  0  0  0  2  0  0  0  0  0  0
  179.2260  184.7990  138.2410 C   0  0  0  0  0  2  0  0  0  0  0  0
  181.5020  184.0370  136.9140 C   0  0  0  0  0  2  0  0  0  0  0  0
  1 24  1  6  0  0  0
  1 12  1  0  0  0  0
  1 18  1  0  0  0  0
  2 14  1  0  0  0  0
  2 13  2  0  0  0  0
  3  9  1  0  0  0  0
  4 17  1  0  0  0  0
  4  7  2  0  0  0  0
  5  7  1  0  0  0  0
  5  9  1  0  0  0  0
  6 11  1  0  0  0  0
  6  5  2  0  0  0  0
  8 11  2  0  0  0  0
  9 10  1  1  0  0  0
 11  3  1  0  0  0  0
 12  8  2  0  0  0  0
 13  4  1  0  0  0  0
 14  6  1  0  0  0  0
 17 16  2  0  0  0  0
 17 15  1  0  0  0  0
 18 20  1  0  0  0  0
 19 20  2  0  0  0  0
 20 22  1  0  0  0  0
 22 23  1  0  0  0  0
 22 21  1  0  0  0  0
 25 30  1  0  0  0  0
 25 27  1  0  0  0  0
 26 29  1  0  0  0  0
 27 29  1  0  0  0  0
 29 24  1  1  0  0  0
 30 28  1  1  0  0  0
 30 26  1  0  0  0  0
 31 32  2  0  0  0  0
 31 30  1  0  0  0  0
 33 32  1  0  0  0  0
 34 33  1  6  0  0  0
 34 36  1  0  0  0  0
 34 35  1  0  0  0  0
 36 37  1  1  0  0  0
 36 35  1  0  0  0  0
 37 38  1  0  0  0  0
 39 44  1  0  0  0  0
 39 46  1  0  0  0  0
 40 46  1  6  0  0  0
 40 43  1  0  0  0  0
 40 42  1  0  0  0  0
 41 38  1  1  0  0  0
 41 40  1  0  0  0  0
 41 42  1  0  0  0  0
 43 45  1  0  0  0  0
 44 45  1  0  0  0  0
M  END
>  <MODEL>
1

>  <REMARK>
 VINA RESULT:      -8.3      0.000      0.000
  Name = 
  13 active torsions:
  status: ('A' for Active; 'I' for Inactive)
    1  A    between atoms: C_2  and  C_17
    2  A    between atoms: C_2  and  C_35
    3  A    between atoms: C_2  and  C_44
    4  A    between atoms: C_6  and  C_42
    5  A    between atoms: N_9  and  C_10
    6  A    between atoms: N_9  and  C_46
    7  A    between atoms: C_11  and  C_39
    8  A    between atoms: C_17  and  C_23
    9  A    between atoms: C_20  and  C_22
   10  A    between atoms: C_20  and  N_36
   11  A    between atoms: C_23  and  C_30
   12  A    between atoms: C_37  and  C_44
   13  A    between atoms: C_41  and  C_46
                            x       y       z     vdW  Elec       q    Type
                         _______ _______ _______ _____ _____    ______ ____

>  <TORSDO>
F 13

$$$$
=
 OpenBabel11032420023D

 46 51  0  0  1  0  0  0  0  0999 V2000
  188.9050  177.3110  137.8880 C   0  0  1  0  0  3  0  0  0  0  0  0
  186.9900  177.0860  143.3320 C   0  0  0  0  0  3  0  0  0  0  0  0
  191.7190  177.3140  141.5930 S   0  0  0  0  0  0  0  0  0  0  0  0
  188.2330  177.5900  145.4500 C   0  0  0  0  0  0  0  0  0  0  0  0
  189.9640  177.7390  143.6110 C   0  0  0  0  0  0  0  0  0  0  0  0
  189.2190  177.7550  142.5150 C   0  0  0  0  0  0  0  0  0  0  0  0
  189.4520  177.9120  144.9860 C   0  0  0  0  0  3  0  0  0  0  0  0
  189.5610  177.9720  140.1250 C   0  0  0  0  0  0  0  0  0  0  0  0
  191.4410  177.6270  143.3770 C   0  0  2  0  0  3  0  0  0  0  0  0
  192.0700  178.7980  143.7490 F   0  0  0  0  0  0  0  0  0  0  0  0
  189.9880  177.5810  141.2960 C   0  0  0  0  0  0  0  0  0  0  0  0
  189.1530  178.3440  138.9430 C   0  0  0  0  0  3  0  0  0  0  0  0
  187.1930  176.9140  144.6370 C   0  0  0  0  0  3  0  0  0  0  0  0
  187.7550  178.0690  142.5130 C   0  0  0  0  0  2  0  0  0  0  0  0
  188.8960  177.7530  147.7200 O   0  0  0  0  0  1  0  0  0  0  0  0
  186.6660  178.0650  147.3210 O   0  0  0  0  0  0  0  0  0  0  0  0
  187.9620  177.8110  146.8800 C   0  0  0  0  0  0  0  0  0  0  0  0
  189.9410  176.1790  137.9220 C   0  0  0  0  0  2  0  0  0  0  0  0
  190.2230  176.3330  135.5380 N   0  0  0  0  0  2  0  0  0  0  0  0
  190.7720  176.0700  136.6680 C   0  0  0  0  0  0  0  0  0  0  0  0
  192.7940  174.5990  136.5420 C   0  0  0  0  0  1  0  0  0  0  0  0
  192.2710  176.0010  136.7770 C   0  0  0  0  0  3  0  0  0  0  0  0
  192.7520  176.4820  138.1330 C   0  0  0  0  0  1  0  0  0  0  0  0
  187.4710  176.7930  137.9690 C   0  0  0  0  0  2  0  0  0  0  0  0
  185.0390  176.9570  135.7560 C   0  0  0  0  0  2  0  0  0  0  0  0
  185.1020  177.6170  138.1080 C   0  0  0  0  0  2  0  0  0  0  0  0
  186.2890  177.7840  136.0060 C   0  0  0  0  0  2  0  0  0  0  0  0
  184.3160  175.3500  137.5040 C   0  0  0  0  0  1  0  0  0  0  0  0
  186.4790  177.8650  137.5110 C   0  0  2  0  0  3  0  0  0  0  0  0
  184.3220  176.8080  137.0940 C   0  0  2  0  0  0  0  0  0  0  0  0
  182.9080  177.2870  137.0100 C   0  0  0  0  0  3  0  0  0  0  0  0
  182.4870  177.9530  135.9950 N   0  0  0  0  0  0  0  0  0  0  0  0
  181.1230  178.4050  135.9360 C   0  0  0  0  0  2  0  0  0  0  0  0
  180.9660  179.7160  136.6880 C   0  0  1  0  0  3  0  0  0  0  0  0
  179.6080  180.0890  136.6890 O   0  0  0  0  0  0  0  0  0  0  0  0
  180.1070  179.5170  137.8720 C   0  0  2  0  0  3  0  0  0  0  0  0
  180.3800  180.6110  138.8860 C   0  0  0  0  0  2  0  0  0  0  0  0
  180.5560  180.0260  140.2090 N   0  0  0  0  0  2  0  0  0  0  0  0
  184.2860  179.1190  142.8040 C   0  0  0  0  0  2  0  0  0  0  0  0
  182.1790  178.7400  141.5070 C   0  0  2  0  0  0  0  0  0  0  0  0
  181.7650  179.2120  140.1580 C   0  0  1  0  0  3  0  0  0  0  0  0
  181.4780  177.9020  140.6240 O   0  0  0  0  0  0  0  0  0  0  0  0
  181.3580  179.1220  142.6570 N   0  0  0  0  0  2  0  0  0  0  0  0
  183.3890  179.3620  144.0240 C   0  0  0  0  0  2  0  0  0  0  0  0
  182.0120  178.7130  143.8940 C   0  0  0  0  0  2  0  0  0  0  0  0
  183.6210  178.2850  141.7140 C   0  0  0  0  0  2  0  0  0  0  0  0
  1 18  1  1  0  0  0
  1 24  1  0  0  0  0
  1 12  1  0  0  0  0
  2 13  2  0  0  0  0
  3  9  1  0  0  0  0
  4 17  1  0  0  0  0
  5  7  1  0  0  0  0
  6  5  2  0  0  0  0
  7  4  2  0  0  0  0
  8 11  2  0  0  0  0
  9  5  1  0  0  0  0
  9 10  1  6  0  0  0
 11  3  1  0  0  0  0
 11  6  1  0  0  0  0
 12  8  2  0  0  0  0
 13  4  1  0  0  0  0
 14  6  1  0  0  0  0
 14  2  1  0  0  0  0
 17 16  2  0  0  0  0
 17 15  1  0  0  0  0
 19 20  2  0  0  0  0
 20 22  1  0  0  0  0
 20 18  1  0  0  0  0
 21 22  1  0  0  0  0
 22 23  1  0  0  0  0
 25 27  1  0  0  0  0
 25 30  1  0  0  0  0
 27 29  1  0  0  0  0
 29 24  1  1  0  0  0
 29 26  1  0  0  0  0
 30 28  1  1  0  0  0
 30 26  1  0  0  0  0
 31 30  1  0  0  0  0
 32 31  2  0  0  0  0
 33 32  1  0  0  0  0
 34 33  1  6  0  0  0
 34 35  1  0  0  0  0
 34 36  1  0  0  0  0
 35 36  1  0  0  0  0
 36 37  1  1  0  0  0
 37 38  1  0  0  0  0
 39 44  1  0  0  0  0
 40 46  1  1  0  0  0
 40 43  1  0  0  0  0
 41 38  1  1  0  0  0
 41 42  1  0  0  0  0
 41 40  1  0  0  0  0
 42 40  1  0  0  0  0
 43 45  1  0  0  0  0
 45 44  1  0  0  0  0
 46 39  1  0  0  0  0
M  END
>  <MODEL>
2

>  <REMARK>
 VINA RESULT:      -8.1      3.289      5.386
  Name = 
  13 active torsions:
  status: ('A' for Active; 'I' for Inactive)
    1  A    between atoms: C_2  and  C_17
    2  A    between atoms: C_2  and  C_35
    3  A    between atoms: C_2  and  C_44
    4  A    between atoms: C_6  and  C_42
    5  A    between atoms: N_9  and  C_10
    6  A    between atoms: N_9  and  C_46
    7  A    between atoms: C_11  and  C_39
    8  A    between atoms: C_17  and  C_23
    9  A    between atoms: C_20  and  C_22
   10  A    between atoms: C_20  and  N_36
   11  A    between atoms: C_23  and  C_30
   12  A    between atoms: C_37  and  C_44
   13  A    between atoms: C_41  and  C_46
                            x       y       z     vdW  Elec       q    Type
                         _______ _______ _______ _____ _____    ______ ____

>  <TORSDO>
F 13

$$$$
=
 OpenBabel11032420023D

 46 51  0  0  1  0  0  0  0  0999 V2000
  189.3630  177.3080  138.1640 C   0  0  1  0  0  3  0  0  0  0  0  0
  185.2470  178.4070  142.0640 C   0  0  0  0  0  3  0  0  0  0  0  0
  189.7330  176.1810  142.6630 S   0  0  0  0  0  0  0  0  0  0  0  0
  185.4130  178.3780  144.5640 C   0  0  0  0  0  0  0  0  0  0  0  0
  187.6530  177.5410  143.7390 C   0  0  0  0  0  0  0  0  0  0  0  0
  187.6180  177.8470  142.4500 C   0  0  0  0  0  0  0  0  0  0  0  0
  186.6970  178.0320  144.7530 C   0  0  0  0  0  3  0  0  0  0  0  0
  189.1030  177.7110  140.5390 C   0  0  0  0  0  0  0  0  0  0  0  0
  188.8240  176.7070  144.1650 C   0  0  2  0  0  3  0  0  0  0  0  0
  189.6580  177.4440  144.9810 F   0  0  0  0  0  0  0  0  0  0  0  0
  188.6920  177.2390  141.6860 C   0  0  0  0  0  0  0  0  0  0  0  0
  189.5250  178.1560  139.3870 C   0  0  0  0  0  3  0  0  0  0  0  0
  184.7030  178.2440  143.2690 C   0  0  0  0  0  3  0  0  0  0  0  0
  186.6590  178.8340  141.8590 C   0  0  0  0  0  2  0  0  0  0  0  0
  183.4140  179.0770  145.6310 O   0  0  0  0  0  0  0  0  0  0  0  0
  185.2470  178.9060  146.9880 O   0  0  0  0  0  1  0  0  0  0  0  0
  184.6350  178.7970  145.7420 C   0  0  0  0  0  0  0  0  0  0  0  0
  190.4130  176.1920  138.0810 C   0  0  0  0  0  2  0  0  0  0  0  0
  190.5240  175.8840  135.6980 N   0  0  0  0  0  2  0  0  0  0  0  0
  190.3080  175.3410  136.8410 C   0  0  0  0  0  0  0  0  0  0  0  0
  191.2800  173.1850  136.0200 C   0  0  0  0  0  1  0  0  0  0  0  0
  190.3000  173.8420  136.9700 C   0  0  0  0  0  3  0  0  0  0  0  0
  188.9170  173.2700  136.7190 C   0  0  0  0  0  1  0  0  0  0  0  0
  187.9360  176.7760  138.0640 C   0  0  0  0  0  2  0  0  0  0  0  0
  186.3460  177.3510  135.2390 C   0  0  0  0  0  2  0  0  0  0  0  0
  185.5480  177.3630  137.5480 C   0  0  0  0  0  2  0  0  0  0  0  0
  187.3040  178.1670  136.0900 C   0  0  0  0  0  2  0  0  0  0  0  0
  185.3640  175.2890  136.2120 C   0  0  0  0  0  1  0  0  0  0  0  0
  186.9860  177.8580  137.5430 C   0  0  2  0  0  3  0  0  0  0  0  0
  185.2720  176.8000  136.1700 C   0  0  2  0  0  0  0  0  0  0  0  0
  183.9020  177.1830  135.7090 C   0  0  0  0  0  3  0  0  0  0  0  0
  182.8540  176.8370  136.3660 N   0  0  0  0  0  0  0  0  0  0  0  0
  181.5460  177.2160  135.9030 C   0  0  0  0  0  2  0  0  0  0  0  0
  180.6830  177.6750  137.0670 C   0  0  1  0  0  3  0  0  0  0  0  0
  181.4970  178.3050  138.0270 O   0  0  0  0  0  0  0  0  0  0  0  0
  180.7420  179.1440  137.1890 C   0  0  2  0  0  3  0  0  0  0  0  0
  179.5210  179.6400  137.9390 C   0  0  0  0  0  2  0  0  0  0  0  0
  179.7050  181.0360  138.3160 N   0  0  0  0  0  2  0  0  0  0  0  0
  179.8180  184.6170  135.3780 C   0  0  0  0  0  2  0  0  0  0  0  0
  180.4660  183.1080  137.2680 C   0  0  2  0  0  0  0  0  0  0  0  0
  180.6040  181.6280  137.3310 C   0  0  1  0  0  3  0  0  0  0  0  0
  181.5130  182.5020  137.9800 O   0  0  0  0  0  0  0  0  0  0  0  0
  179.5050  183.7540  138.1620 N   0  0  0  0  0  2  0  0  0  0  0  0
  178.9380  185.3630  136.3900 C   0  0  0  0  0  2  0  0  0  0  0  0
  179.3930  185.1700  137.8360 C   0  0  0  0  0  2  0  0  0  0  0  0
  180.9600  183.8380  136.0210 C   0  0  0  0  0  2  0  0  0  0  0  0
  1 24  1  1  0  0  0
  1 12  1  0  0  0  0
  2 13  2  0  0  0  0
  3  9  1  0  0  0  0
  4  7  2  0  0  0  0
  4 17  1  0  0  0  0
  5  9  1  0  0  0  0
  5  7  1  0  0  0  0
  6  5  2  0  0  0  0
  8 11  2  0  0  0  0
  9 10  1  1  0  0  0
 11  6  1  0  0  0  0
 11  3  1  0  0  0  0
 12  8  2  0  0  0  0
 13  4  1  0  0  0  0
 14  2  1  0  0  0  0
 14  6  1  0  0  0  0
 15 17  2  0  0  0  0
 17 16  1  0  0  0  0
 18  1  1  0  0  0  0
 19 20  2  0  0  0  0
 20 22  1  0  0  0  0
 20 18  1  0  0  0  0
 21 22  1  0  0  0  0
 23 22  1  0  0  0  0
 25 27  1  0  0  0  0
 25 30  1  0  0  0  0
 27 29  1  0  0  0  0
 29 26  1  0  0  0  0
 29 24  1  6  0  0  0
 30 28  1  1  0  0  0
 30 26  1  0  0  0  0
 31 30  1  0  0  0  0
 31 32  2  0  0  0  0
 33 32  1  0  0  0  0
 34 33  1  6  0  0  0
 34 36  1  0  0  0  0
 34 35  1  0  0  0  0
 36 37  1  1  0  0  0
 36 35  1  0  0  0  0
 37 38  1  0  0  0  0
 39 46  1  0  0  0  0
 39 44  1  0  0  0  0
 40 46  1  6  0  0  0
 40 41  1  0  0  0  0
 40 42  1  0  0  0  0
 40 43  1  0  0  0  0
 41 42  1  0  0  0  0
 41 38  1  1  0  0  0
 44 45  1  0  0  0  0
 45 43  1  0  0  0  0
M  END
>  <MODEL>
3

>  <REMARK>
 VINA RESULT:      -8.0      2.330      3.379
  Name = 
  13 active torsions:
  status: ('A' for Active; 'I' for Inactive)
    1  A    between atoms: C_2  and  C_17
    2  A    between atoms: C_2  and  C_35
    3  A    between atoms: C_2  and  C_44
    4  A    between atoms: C_6  and  C_42
    5  A    between atoms: N_9  and  C_10
    6  A    between atoms: N_9  and  C_46
    7  A    between atoms: C_11  and  C_39
    8  A    between atoms: C_17  and  C_23
    9  A    between atoms: C_20  and  C_22
   10  A    between atoms: C_20  and  N_36
   11  A    between atoms: C_23  and  C_30
   12  A    between atoms: C_37  and  C_44
   13  A    between atoms: C_41  and  C_46
                            x       y       z     vdW  Elec       q    Type
                         _______ _______ _______ _____ _____    ______ ____

>  <TORSDO>
F 13

$$$$
=
 OpenBabel11032420023D

 46 51  0  0  1  0  0  0  0  0999 V2000
  188.8110  177.9060  137.7090 C   0  0  1  0  0  3  0  0  0  0  0  0
  184.9250  178.5770  141.9280 C   0  0  0  0  0  3  0  0  0  0  0  0
  189.5460  176.5630  142.1020 S   0  0  0  0  0  0  0  0  0  0  0  0
  185.2650  178.4250  144.4060 C   0  0  0  0  0  0  0  0  0  0  0  0
  187.4810  177.7520  143.3890 C   0  0  0  0  0  0  0  0  0  0  0  0
  187.3420  178.1230  142.1240 C   0  0  0  0  0  0  0  0  0  0  0  0
  186.5750  178.1380  144.4900 C   0  0  0  0  0  3  0  0  0  0  0  0
  188.6960  178.1670  140.1140 C   0  0  0  0  0  0  0  0  0  0  0  0
  188.7180  176.9600  143.6880 C   0  0  2  0  0  3  0  0  0  0  0  0
  189.5700  177.6950  144.4870 F   0  0  0  0  0  0  0  0  0  0  0  0
  188.3890  177.6140  141.2570 C   0  0  0  0  0  0  0  0  0  0  0  0
  189.0150  178.6950  138.9640 C   0  0  0  0  0  3  0  0  0  0  0  0
  184.4750  178.3220  143.1550 C   0  0  0  0  0  3  0  0  0  0  0  0
  186.2980  179.0890  141.6540 C   0  0  0  0  0  2  0  0  0  0  0  0
  183.3410  179.0820  145.6260 O   0  0  0  0  0  0  0  0  0  0  0  0
  185.2120  178.6790  146.8790 O   0  0  0  0  0  1  0  0  0  0  0  0
  184.5500  178.7390  145.6550 C   0  0  0  0  0  0  0  0  0  0  0  0
  189.1650  176.4220  137.8850 C   0  0  0  0  0  2  0  0  0  0  0  0
  190.6480  176.3340  135.9920 N   0  0  0  0  0  2  0  0  0  0  0  0
  190.4580  176.0170  137.2220 C   0  0  0  0  0  0  0  0  0  0  0  0
  192.2260  176.7240  138.8480 C   0  0  0  0  0  1  0  0  0  0  0  0
  191.6180  175.5740  138.0710 C   0  0  0  0  0  3  0  0  0  0  0  0
  192.7020  174.9220  137.2330 C   0  0  0  0  0  1  0  0  0  0  0  0
  187.3970  178.1090  137.1700 C   0  0  0  0  0  2  0  0  0  0  0  0
  184.1560  177.5560  137.0080 C   0  0  0  0  0  2  0  0  0  0  0  0
  186.0470  176.0240  136.7880 C   0  0  0  0  0  2  0  0  0  0  0  0
  185.1250  177.7960  138.1540 C   0  0  0  0  0  2  0  0  0  0  0  0
  185.0840  177.0630  134.7590 C   0  0  0  0  0  1  0  0  0  0  0  0
  186.4270  177.1020  137.7920 C   0  0  2  0  0  3  0  0  0  0  0  0
  184.7670  176.4770  136.1190 C   0  0  2  0  0  0  0  0  0  0  0  0
  183.8300  175.3260  135.9380 C   0  0  0  0  0  3  0  0  0  0  0  0
  183.5280  174.5500  136.9170 N   0  0  0  0  0  0  0  0  0  0  0  0
  182.6250  173.4490  136.7190 C   0  0  0  0  0  2  0  0  0  0  0  0
  181.2500  173.9560  136.3130 C   0  0  1  0  0  3  0  0  0  0  0  0
  180.2860  172.9780  136.6210 O   0  0  0  0  0  0  0  0  0  0  0  0
  180.3840  174.0700  137.5020 C   0  0  2  0  0  3  0  0  0  0  0  0
  179.2610  175.0490  137.2190 C   0  0  0  0  0  2  0  0  0  0  0  0
  178.9840  175.8410  138.4110 N   0  0  0  0  0  2  0  0  0  0  0  0
  181.9670  179.1020  139.8010 C   0  0  0  0  0  2  0  0  0  0  0  0
  180.3220  177.2180  139.9210 C   0  0  2  0  0  0  0  0  0  0  0  0
  180.2360  175.9480  139.1510 C   0  0  1  0  0  3  0  0  0  0  0  0
  179.9630  176.0120  140.5420 O   0  0  0  0  0  0  0  0  0  0  0  0
  179.1950  178.1490  139.8520 N   0  0  0  0  0  2  0  0  0  0  0  0
  180.7600  180.0460  139.8860 C   0  0  0  0  0  2  0  0  0  0  0  0
  179.5350  179.3960  140.5270 C   0  0  0  0  0  2  0  0  0  0  0  0
  181.6960  177.7140  140.3680 C   0  0  0  0  0  2  0  0  0  0  0  0
  1 24  1  1  0  0  0
  1 18  1  0  0  0  0
  1 12  1  0  0  0  0
  2 13  2  0  0  0  0
  3  9  1  0  0  0  0
  4  7  2  0  0  0  0
  4 17  1  0  0  0  0
  5  9  1  0  0  0  0
  5  7  1  0  0  0  0
  6  5  2  0  0  0  0
  8 11  2  0  0  0  0
  9 10  1  1  0  0  0
 11  3  1  0  0  0  0
 11  6  1  0  0  0  0
 12  8  2  0  0  0  0
 13  4  1  0  0  0  0
 14  2  1  0  0  0  0
 14  6  1  0  0  0  0
 15 17  2  0  0  0  0
 17 16  1  0  0  0  0
 19 20  2  0  0  0  0
 20 18  1  0  0  0  0
 20 22  1  0  0  0  0
 22 21  1  0  0  0  0
 23 22  1  0  0  0  0
 25 27  1  0  0  0  0
 26 29  1  0  0  0  0
 29 24  1  6  0  0  0
 29 27  1  0  0  0  0
 30 28  1  6  0  0  0
 30 26  1  0  0  0  0
 30 25  1  0  0  0  0
 31 30  1  0  0  0  0
 31 32  2  0  0  0  0
 33 32  1  0  0  0  0
 34 35  1  0  0  0  0
 34 33  1  1  0  0  0
 34 36  1  0  0  0  0
 35 36  1  0  0  0  0
 36 37  1  6  0  0  0
 37 38  1  0  0  0  0
 39 44  1  0  0  0  0
 39 46  1  0  0  0  0
 40 46  1  1  0  0  0
 40 42  1  0  0  0  0
 41 38  1  6  0  0  0
 41 40  1  0  0  0  0
 41 42  1  0  0  0  0
 43 40  1  0  0  0  0
 43 45  1  0  0  0  0
 44 45  1  0  0  0  0
M  END
>  <MODEL>
4

>  <REMARK>
 VINA RESULT:      -7.8      3.177      4.461
  Name = 
  13 active torsions:
  status: ('A' for Active; 'I' for Inactive)
    1  A    between atoms: C_2  and  C_17
    2  A    between atoms: C_2  and  C_35
    3  A    between atoms: C_2  and  C_44
    4  A    between atoms: C_6  and  C_42
    5  A    between atoms: N_9  and  C_10
    6  A    between atoms: N_9  and  C_46
    7  A    between atoms: C_11  and  C_39
    8  A    between atoms: C_17  and  C_23
    9  A    between atoms: C_20  and  C_22
   10  A    between atoms: C_20  and  N_36
   11  A    between atoms: C_23  and  C_30
   12  A    between atoms: C_37  and  C_44
   13  A    between atoms: C_41  and  C_46
                            x       y       z     vdW  Elec       q    Type
                         _______ _______ _______ _____ _____    ______ ____

>  <TORSDO>
F 13

$$$$
=
 OpenBabel11032420023D

 46 51  0  0  1  0  0  0  0  0999 V2000
  185.5470  177.1520  136.1260 C   0  0  1  0  0  3  0  0  0  0  0  0
  187.8890  177.7640  141.3700 C   0  0  0  0  0  3  0  0  0  0  0  0
  189.8070  175.6330  137.2200 S   0  0  0  0  0  0  0  0  0  0  0  0
  190.2880  177.5140  142.0510 C   0  0  0  0  0  0  0  0  0  0  0  0
  190.2120  176.8240  139.6180 C   0  0  0  0  0  0  0  0  0  0  0  0
  189.0130  177.2450  139.2370 C   0  0  0  0  0  0  0  0  0  0  0  0
  190.8750  177.1920  140.8860 C   0  0  0  0  0  3  0  0  0  0  0  0
  187.7160  177.3290  137.1910 C   0  0  0  0  0  0  0  0  0  0  0  0
  190.9460  175.9930  138.6100 C   0  0  2  0  0  3  0  0  0  0  0  0
  192.0490  176.6770  138.1430 F   0  0  0  0  0  0  0  0  0  0  0  0
  188.6160  176.7430  137.9340 C   0  0  0  0  0  0  0  0  0  0  0  0
  186.8130  177.8900  136.4350 C   0  0  0  0  0  3  0  0  0  0  0  0
  188.8220  177.4760  142.2750 C   0  0  0  0  0  3  0  0  0  0  0  0
  188.2080  178.2520  139.9980 C   0  0  0  0  0  2  0  0  0  0  0  0
  191.7100  176.8600  143.8310 O   0  0  0  0  0  1  0  0  0  0  0  0
  191.3660  179.1120  143.6210 O   0  0  0  0  0  0  0  0  0  0  0  0
  191.1590  177.8000  143.2030 C   0  0  0  0  0  0  0  0  0  0  0  0
  185.7780  175.9590  135.1870 C   0  0  0  0  0  2  0  0  0  0  0  0
  184.3030  174.0590  135.2110 N   0  0  0  0  0  2  0  0  0  0  0  0
  185.3160  174.6380  135.7480 C   0  0  0  0  0  0  0  0  0  0  0  0
  187.3180  173.1440  135.9100 C   0  0  0  0  0  1  0  0  0  0  0  0
  186.2220  173.8650  136.6670 C   0  0  0  0  0  3  0  0  0  0  0  0
  185.4470  172.8530  137.4900 C   0  0  0  0  0  1  0  0  0  0  0  0
  184.8300  176.7530  137.4130 C   0  0  0  0  0  2  0  0  0  0  0  0
  181.8030  177.8330  138.1280 C   0  0  0  0  0  2  0  0  0  0  0  0
  183.7980  177.6360  139.5260 C   0  0  0  0  0  2  0  0  0  0  0  0
  182.9880  178.4360  137.3910 C   0  0  0  0  0  2  0  0  0  0  0  0
  182.1690  175.7750  139.4670 C   0  0  0  0  0  1  0  0  0  0  0  0
  184.2440  177.9800  138.1130 C   0  0  2  0  0  3  0  0  0  0  0  0
  182.3280  177.2810  139.4490 C   0  0  2  0  0  0  0  0  0  0  0  0
  181.5850  177.8540  140.6130 C   0  0  0  0  0  3  0  0  0  0  0  0
  182.2020  178.2680  141.6620 N   0  0  0  0  0  0  0  0  0  0  0  0
  181.4660  178.8160  142.7690 C   0  0  0  0  0  2  0  0  0  0  0  0
  182.3970  179.5740  143.7010 C   0  0  1  0  0  3  0  0  0  0  0  0
  182.6510  178.7880  144.8420 O   0  0  0  0  0  0  0  0  0  0  0  0
  183.6610  178.8300  143.8640 C   0  0  2  0  0  3  0  0  0  0  0  0
  184.7560  179.7810  144.3100 C   0  0  0  0  0  2  0  0  0  0  0  0
  185.4050  179.2610  145.5070 N   0  0  0  0  0  2  0  0  0  0  0  0
  189.6810  177.8750  146.6300 C   0  0  0  0  0  2  0  0  0  0  0  0
  187.2170  177.7740  146.1960 C   0  0  2  0  0  0  0  0  0  0  0  0
  186.4040  178.2950  145.0640 C   0  0  1  0  0  3  0  0  0  0  0  0
  186.1480  177.0350  145.6660 O   0  0  0  0  0  0  0  0  0  0  0  0
  186.9220  178.2620  147.5440 N   0  0  0  0  0  2  0  0  0  0  0  0
  189.3230  178.2350  148.0780 C   0  0  0  0  0  2  0  0  0  0  0  0
  187.9240  177.7720  148.4820 C   0  0  0  0  0  2  0  0  0  0  0  0
  188.5700  177.1340  145.8940 C   0  0  0  0  0  2  0  0  0  0  0  0
  1 18  1  1  0  0  0
  1 12  1  0  0  0  0
  1 24  1  0  0  0  0
  2 13  2  0  0  0  0
  3 11  1  0  0  0  0
  3  9  1  0  0  0  0
  4 13  1  0  0  0  0
  4 17  1  0  0  0  0
  5  7  1  0  0  0  0
  6  5  2  0  0  0  0
  6 14  1  0  0  0  0
  7  4  2  0  0  0  0
  8 11  2  0  0  0  0
  9 10  1  6  0  0  0
  9  5  1  0  0  0  0
 11  6  1  0  0  0  0
 12  8  2  0  0  0  0
 14  2  1  0  0  0  0
 17 16  2  0  0  0  0
 17 15  1  0  0  0  0
 18 20  1  0  0  0  0
 19 20  2  0  0  0  0
 20 22  1  0  0  0  0
 21 22  1  0  0  0  0
 22 23  1  0  0  0  0
 25 30  1  0  0  0  0
 27 29  1  0  0  0  0
 27 25  1  0  0  0  0
 29 24  1  6  0  0  0
 29 26  1  0  0  0  0
 30 28  1  1  0  0  0
 30 26  1  0  0  0  0
 30 31  1  0  0  0  0
 31 32  2  0  0  0  0
 32 33  1  0  0  0  0
 34 33  1  6  0  0  0
 34 36  1  0  0  0  0
 34 35  1  0  0  0  0
 36 37  1  1  0  0  0
 36 35  1  0  0  0  0
 37 38  1  0  0  0  0
 39 44  1  0  0  0  0
 40 46  1  6  0  0  0
 40 43  1  0  0  0  0
 41 38  1  1  0  0  0
 41 42  1  0  0  0  0
 41 40  1  0  0  0  0
 42 40  1  0  0  0  0
 43 45  1  0  0  0  0
 44 45  1  0  0  0  0
 46 39  1  0  0  0  0
M  END
>  <MODEL>
5

>  <REMARK>
 VINA RESULT:      -7.8      4.250      8.862
  Name = 
  13 active torsions:
  status: ('A' for Active; 'I' for Inactive)
    1  A    between atoms: C_2  and  C_17
    2  A    between atoms: C_2  and  C_35
    3  A    between atoms: C_2  and  C_44
    4  A    between atoms: C_6  and  C_42
    5  A    between atoms: N_9  and  C_10
    6  A    between atoms: N_9  and  C_46
    7  A    between atoms: C_11  and  C_39
    8  A    between atoms: C_17  and  C_23
    9  A    between atoms: C_20  and  C_22
   10  A    between atoms: C_20  and  N_36
   11  A    between atoms: C_23  and  C_30
   12  A    between atoms: C_37  and  C_44
   13  A    between atoms: C_41  and  C_46
                            x       y       z     vdW  Elec       q    Type
                         _______ _______ _______ _____ _____    ______ ____

>  <TORSDO>
F 13

$$$$
=
 OpenBabel11032420023D

 46 51  0  0  1  0  0  0  0  0999 V2000
  188.8220  177.1360  144.5410 C   0  0  1  0  0  3  0  0  0  0  0  0
  187.4480  178.2650  139.0460 C   0  0  0  0  0  3  0  0  0  0  0  0
  191.9340  177.1870  141.0830 S   0  0  0  0  0  0  0  0  0  0  0  0
  188.8020  177.8510  136.9780 C   0  0  0  0  0  0  0  0  0  0  0  0
  190.3280  177.2490  138.9040 C   0  0  0  0  0  0  0  0  0  0  0  0
  189.4910  177.2050  139.9310 C   0  0  0  0  0  0  0  0  0  0  0  0
  189.9240  177.3120  137.4840 C   0  0  0  0  0  3  0  0  0  0  0  0
  189.5870  176.6610  142.2920 C   0  0  0  0  0  0  0  0  0  0  0  0
  191.7800  177.1290  139.2580 C   0  0  2  0  0  3  0  0  0  0  0  0
  192.2860  175.9350  138.7850 F   0  0  0  0  0  0  0  0  0  0  0  0
  190.1630  177.1270  141.2160 C   0  0  0  0  0  0  0  0  0  0  0  0
  189.0300  176.2110  143.3830 C   0  0  0  0  0  3  0  0  0  0  0  0
  187.7870  178.5620  137.7930 C   0  0  0  0  0  3  0  0  0  0  0  0
  188.0050  177.0970  139.7850 C   0  0  0  0  0  2  0  0  0  0  0  0
  189.5810  177.4800  134.7700 O   0  0  0  0  0  0  0  0  0  0  0  0
  187.4350  178.2510  134.9400 O   0  0  0  0  0  1  0  0  0  0  0  0
  188.6350  177.8410  135.5150 C   0  0  0  0  0  0  0  0  0  0  0  0
  190.1390  177.7250  145.0650 C   0  0  0  0  0  2  0  0  0  0  0  0
  189.7750  176.9720  147.3200 N   0  0  0  0  0  2  0  0  0  0  0  0
  190.6140  177.1130  146.3590 C   0  0  0  0  0  0  0  0  0  0  0  0
  192.0490  175.3860  145.2510 C   0  0  0  0  0  1  0  0  0  0  0  0
  191.9240  176.3760  146.3920 C   0  0  0  0  0  3  0  0  0  0  0  0
  192.1130  175.6370  147.7040 C   0  0  0  0  0  1  0  0  0  0  0  0
  187.7970  178.2120  144.1920 C   0  0  0  0  0  2  0  0  0  0  0  0
  184.7870  179.5440  144.1380 C   0  0  0  0  0  2  0  0  0  0  0  0
  185.6450  177.5020  143.1060 C   0  0  0  0  0  2  0  0  0  0  0  0
  185.5680  178.7550  145.1750 C   0  0  0  0  0  2  0  0  0  0  0  0
  185.6450  179.6090  141.8100 C   0  0  0  0  0  1  0  0  0  0  0  0
  186.3730  177.7050  144.4270 C   0  0  2  0  0  3  0  0  0  0  0  0
  184.8840  178.7790  142.8220 C   0  0  2  0  0  0  0  0  0  0  0  0
  183.5290  178.4730  142.2690 C   0  0  0  0  0  3  0  0  0  0  0  0
  183.3400  178.3280  141.0060 N   0  0  0  0  0  0  0  0  0  0  0  0
  182.0280  178.0350  140.4960 C   0  0  0  0  0  2  0  0  0  0  0  0
  182.1260  177.3500  139.1420 C   0  0  1  0  0  3  0  0  0  0  0  0
  183.0430  176.2850  139.2270 O   0  0  0  0  0  0  0  0  0  0  0  0
  181.6790  175.9480  139.2540 C   0  0  2  0  0  3  0  0  0  0  0  0
  181.2570  175.4400  137.8890 C   0  0  0  0  0  2  0  0  0  0  0  0
  181.9560  174.1970  137.5870 N   0  0  0  0  0  2  0  0  0  0  0  0
  186.1870  175.1880  135.9800 C   0  0  0  0  0  2  0  0  0  0  0  0
  184.0510  173.9370  136.3580 C   0  0  2  0  0  0  0  0  0  0  0  0
  182.6340  174.3890  136.3110 C   0  0  1  0  0  3  0  0  0  0  0  0
  183.0470  173.1330  135.7960 O   0  0  0  0  0  0  0  0  0  0  0  0
  184.5580  173.3750  137.6100 N   0  0  0  0  0  2  0  0  0  0  0  0
  186.7320  174.4570  137.2140 C   0  0  0  0  0  2  0  0  0  0  0  0
  185.9950  173.1510  137.5100 C   0  0  0  0  0  2  0  0  0  0  0  0
  185.0250  174.4650  135.3070 C   0  0  0  0  0  2  0  0  0  0  0  0
  1 12  1  6  0  0  0
  1 18  1  0  0  0  0
  2 14  1  0  0  0  0
  3 11  1  0  0  0  0
  4  7  2  0  0  0  0
  4 13  1  0  0  0  0
  5  9  1  0  0  0  0
  5  6  2  0  0  0  0
  6 11  1  0  0  0  0
  7  5  1  0  0  0  0
  8 12  2  0  0  0  0
  9 10  1  1  0  0  0
  9  3  1  0  0  0  0
 11  8  2  0  0  0  0
 13  2  2  0  0  0  0
 14  6  1  0  0  0  0
 15 17  2  0  0  0  0
 16 17  1  0  0  0  0
 17  4  1  0  0  0  0
 18 20  1  0  0  0  0
 20 22  1  0  0  0  0
 20 19  2  0  0  0  0
 21 22  1  0  0  0  0
 22 23  1  0  0  0  0
 24  1  1  0  0  0  0
 25 27  1  0  0  0  0
 26 29  1  0  0  0  0
 29 24  1  6  0  0  0
 29 27  1  0  0  0  0
 30 28  1  6  0  0  0
 30 26  1  0  0  0  0
 30 25  1  0  0  0  0
 31 30  1  0  0  0  0
 32 31  2  0  0  0  0
 33 32  1  0  0  0  0
 34 35  1  0  0  0  0
 34 36  1  0  0  0  0
 34 33  1  1  0  0  0
 35 36  1  0  0  0  0
 36 37  1  6  0  0  0
 38 37  1  0  0  0  0
 39 44  1  0  0  0  0
 40 46  1  6  0  0  0
 40 43  1  0  0  0  0
 41 40  1  0  0  0  0
 41 38  1  1  0  0  0
 42 41  1  0  0  0  0
 42 40  1  0  0  0  0
 44 45  1  0  0  0  0
 45 43  1  0  0  0  0
 46 39  1  0  0  0  0
M  END
>  <MODEL>
6

>  <REMARK>
 VINA RESULT:      -7.7      4.227      7.558
  Name = 
  13 active torsions:
  status: ('A' for Active; 'I' for Inactive)
    1  A    between atoms: C_2  and  C_17
    2  A    between atoms: C_2  and  C_35
    3  A    between atoms: C_2  and  C_44
    4  A    between atoms: C_6  and  C_42
    5  A    between atoms: N_9  and  C_10
    6  A    between atoms: N_9  and  C_46
    7  A    between atoms: C_11  and  C_39
    8  A    between atoms: C_17  and  C_23
    9  A    between atoms: C_20  and  C_22
   10  A    between atoms: C_20  and  N_36
   11  A    between atoms: C_23  and  C_30
   12  A    between atoms: C_37  and  C_44
   13  A    between atoms: C_41  and  C_46
                            x       y       z     vdW  Elec       q    Type
                         _______ _______ _______ _____ _____    ______ ____

>  <TORSDO>
F 13

$$$$
=
 OpenBabel11032420023D

 46 51  0  0  1  0  0  0  0  0999 V2000
  189.4470  176.9790  138.2290 C   0  0  1  0  0  3  0  0  0  0  0  0
  185.4700  178.3140  142.1980 C   0  0  0  0  0  3  0  0  0  0  0  0
  189.9820  176.1350  142.7730 S   0  0  0  0  0  0  0  0  0  0  0  0
  185.7260  178.4410  144.6870 C   0  0  0  0  0  0  0  0  0  0  0  0
  187.9380  177.5560  143.8360 C   0  0  0  0  0  0  0  0  0  0  0  0
  187.8550  177.7810  142.5320 C   0  0  0  0  0  0  0  0  0  0  0  0
  187.0170  178.1090  144.8510 C   0  0  0  0  0  3  0  0  0  0  0  0
  189.2710  177.5290  140.5820 C   0  0  0  0  0  0  0  0  0  0  0  0
  189.1260  176.7530  144.2710 C   0  0  2  0  0  3  0  0  0  0  0  0
  189.9860  177.5390  145.0080 F   0  0  0  0  0  0  0  0  0  0  0  0
  188.9030  177.1290  141.7690 C   0  0  0  0  0  0  0  0  0  0  0  0
  189.6500  177.9020  139.3900 C   0  0  0  0  0  3  0  0  0  0  0  0
  184.9700  178.2250  143.4290 C   0  0  0  0  0  3  0  0  0  0  0  0
  186.8730  178.7290  141.9160 C   0  0  0  0  0  2  0  0  0  0  0  0
  183.7330  179.0030  145.8440 O   0  0  0  0  0  0  0  0  0  0  0  0
  185.6750  179.3390  147.0060 O   0  0  0  0  0  1  0  0  0  0  0  0
  184.9880  178.9310  145.8640 C   0  0  0  0  0  0  0  0  0  0  0  0
  190.3760  175.7580  138.2810 C   0  0  0  0  0  2  0  0  0  0  0  0
  191.1200  176.0540  136.0120 N   0  0  0  0  0  2  0  0  0  0  0  0
  191.4460  175.7550  137.2170 C   0  0  0  0  0  0  0  0  0  0  0  0
  193.1810  176.7520  138.7220 C   0  0  0  0  0  1  0  0  0  0  0  0
  192.8940  175.7480  137.6240 C   0  0  0  0  0  3  0  0  0  0  0  0
  193.8030  176.0390  136.4440 C   0  0  0  0  0  1  0  0  0  0  0  0
  187.9770  176.5900  138.1010 C   0  0  0  0  0  2  0  0  0  0  0  0
  186.5010  177.4880  135.2990 C   0  0  0  0  0  2  0  0  0  0  0  0
  185.6590  177.4170  137.5920 C   0  0  0  0  0  2  0  0  0  0  0  0
  187.5080  178.1590  136.2180 C   0  0  0  0  0  2  0  0  0  0  0  0
  185.3240  175.4610  136.1150 C   0  0  0  0  0  1  0  0  0  0  0  0
  187.1350  177.7830  137.6420 C   0  0  2  0  0  3  0  0  0  0  0  0
  185.3640  176.9730  136.1750 C   0  0  2  0  0  0  0  0  0  0  0  0
  184.0420  177.5050  135.7210 C   0  0  0  0  0  3  0  0  0  0  0  0
  183.1030  176.7180  135.3330 N   0  0  0  0  0  0  0  0  0  0  0  0
  181.8400  177.2520  134.9000 C   0  0  0  0  0  2  0  0  0  0  0  0
  181.2860  178.2130  135.9390 C   0  0  1  0  0  3  0  0  0  0  0  0
  181.3930  179.5300  135.4550 O   0  0  0  0  0  0  0  0  0  0  0  0
  180.1220  178.9340  135.3880 C   0  0  2  0  0  3  0  0  0  0  0  0
  179.2600  179.4500  136.5250 C   0  0  0  0  0  2  0  0  0  0  0  0
  179.9070  180.5950  137.1530 N   0  0  0  0  0  2  0  0  0  0  0  0
  181.0390  178.2370  140.9770 C   0  0  0  0  0  2  0  0  0  0  0  0
  180.7180  180.1700  139.4180 C   0  0  2  0  0  0  0  0  0  0  0  0
  179.5590  180.5560  138.5690 C   0  0  1  0  0  3  0  0  0  0  0  0
  180.3330  181.5120  139.2770 O   0  0  0  0  0  0  0  0  0  0  0  0
  181.9990  179.9010  138.7630 N   0  0  0  0  0  2  0  0  0  0  0  0
  182.4380  178.0880  140.3660 C   0  0  0  0  0  2  0  0  0  0  0  0
  182.9550  179.3780  139.7310 C   0  0  0  0  0  2  0  0  0  0  0  0
  180.4520  179.6360  140.8240 C   0  0  0  0  0  2  0  0  0  0  0  0
  1 24  1  1  0  0  0
  1 18  1  0  0  0  0
  1 12  1  0  0  0  0
  2 13  2  0  0  0  0
  3  9  1  0  0  0  0
  4  7  2  0  0  0  0
  4 17  1  0  0  0  0
  5  9  1  0  0  0  0
  5  7  1  0  0  0  0
  6  5  2  0  0  0  0
  8 11  2  0  0  0  0
  9 10  1  6  0  0  0
 11  6  1  0  0  0  0
 11  3  1  0  0  0  0
 12  8  2  0  0  0  0
 13  4  1  0  0  0  0
 14  2  1  0  0  0  0
 14  6  1  0  0  0  0
 15 17  2  0  0  0  0
 17 16  1  0  0  0  0
 19 20  2  0  0  0  0
 20 22  1  0  0  0  0
 20 18  1  0  0  0  0
 22 21  1  0  0  0  0
 23 22  1  0  0  0  0
 25 30  1  0  0  0  0
 25 27  1  0  0  0  0
 26 29  1  0  0  0  0
 27 29  1  0  0  0  0
 29 24  1  6  0  0  0
 30 28  1  6  0  0  0
 30 26  1  0  0  0  0
 31 30  1  0  0  0  0
 32 31  2  0  0  0  0
 33 32  1  0  0  0  0
 34 33  1  6  0  0  0
 35 34  1  0  0  0  0
 36 35  1  0  0  0  0
 36 34  1  0  0  0  0
 36 37  1  1  0  0  0
 37 38  1  0  0  0  0
 40 46  1  1  0  0  0
 41 38  1  6  0  0  0
 41 42  1  0  0  0  0
 41 40  1  0  0  0  0
 42 40  1  0  0  0  0
 43 40  1  0  0  0  0
 43 45  1  0  0  0  0
 44 39  1  0  0  0  0
 45 44  1  0  0  0  0
 46 39  1  0  0  0  0
M  END
>  <MODEL>
7

>  <REMARK>
 VINA RESULT:      -7.4      2.522      3.991
  Name = 
  13 active torsions:
  status: ('A' for Active; 'I' for Inactive)
    1  A    between atoms: C_2  and  C_17
    2  A    between atoms: C_2  and  C_35
    3  A    between atoms: C_2  and  C_44
    4  A    between atoms: C_6  and  C_42
    5  A    between atoms: N_9  and  C_10
    6  A    between atoms: N_9  and  C_46
    7  A    between atoms: C_11  and  C_39
    8  A    between atoms: C_17  and  C_23
    9  A    between atoms: C_20  and  C_22
   10  A    between atoms: C_20  and  N_36
   11  A    between atoms: C_23  and  C_30
   12  A    between atoms: C_37  and  C_44
   13  A    between atoms: C_41  and  C_46
                            x       y       z     vdW  Elec       q    Type
                         _______ _______ _______ _____ _____    ______ ____

>  <TORSDO>
F 13

$$$$
=
 OpenBabel11032420023D

 46 51  0  0  1  0  0  0  0  0999 V2000
  184.8310  178.1600  139.7570 C   0  0  1  0  0  3  0  0  0  0  0  0
  186.0560  177.5000  145.3620 C   0  0  0  0  0  3  0  0  0  0  0  0
  189.1260  177.3690  141.3620 S   0  0  0  0  0  0  0  0  0  0  0  0
  188.2890  177.5870  146.4960 C   0  0  0  0  0  0  0  0  0  0  0  0
  188.7930  177.7500  144.0220 C   0  0  0  0  0  0  0  0  0  0  0  0
  187.5980  177.9910  143.5000 C   0  0  0  0  0  0  0  0  0  0  0  0
  189.1170  177.8140  145.4620 C   0  0  0  0  0  3  0  0  0  0  0  0
  186.6640  178.4570  141.3130 C   0  0  0  0  0  0  0  0  0  0  0  0
  189.8830  177.4920  143.0260 C   0  0  2  0  0  3  0  0  0  0  0  0
  190.7990  178.5240  143.0460 F   0  0  0  0  0  0  0  0  0  0  0  0
  187.5690  177.8760  142.0530 C   0  0  0  0  0  0  0  0  0  0  0  0
  185.7640  179.0180  140.5520 C   0  0  0  0  0  3  0  0  0  0  0  0
  186.8810  177.1450  146.3450 C   0  0  0  0  0  3  0  0  0  0  0  0
  186.4280  178.4760  144.2990 C   0  0  0  0  0  2  0  0  0  0  0  0
  188.1090  177.9090  148.8380 O   0  0  0  0  0  1  0  0  0  0  0  0
  190.2170  177.4770  148.0620 O   0  0  0  0  0  0  0  0  0  0  0  0
  188.8520  177.6610  147.8540 C   0  0  0  0  0  0  0  0  0  0  0  0
  183.3720  178.3040  140.2120 C   0  0  0  0  0  2  0  0  0  0  0  0
  182.0850  176.5470  139.1890 N   0  0  0  0  0  2  0  0  0  0  0  0
  182.3630  177.8010  139.2090 C   0  0  0  0  0  0  0  0  0  0  0  0
  181.4740  178.5870  137.0050 C   0  0  0  0  0  1  0  0  0  0  0  0
  181.4640  178.7810  138.5080 C   0  0  0  0  0  3  0  0  0  0  0  0
  181.8540  180.2140  138.8190 C   0  0  0  0  0  1  0  0  0  0  0  0
  185.0050  178.4160  138.2620 C   0  0  0  0  0  2  0  0  0  0  0  0
  186.8610  177.8600  135.6010 C   0  0  0  0  0  2  0  0  0  0  0  0
  187.0420  176.9950  137.8790 C   0  0  0  0  0  2  0  0  0  0  0  0
  185.4980  177.3640  136.0530 C   0  0  0  0  0  2  0  0  0  0  0  0
  188.3000  179.0300  137.2510 C   0  0  0  0  0  1  0  0  0  0  0  0
  185.5660  177.1780  137.5590 C   0  0  2  0  0  3  0  0  0  0  0  0
  187.8190  177.6760  136.7730 C   0  0  2  0  0  0  0  0  0  0  0  0
  189.0070  176.8570  136.3830 C   0  0  0  0  0  3  0  0  0  0  0  0
  189.5670  176.9960  135.2340 N   0  0  0  0  0  0  0  0  0  0  0  0
  190.7090  176.1980  134.8800 C   0  0  0  0  0  2  0  0  0  0  0  0
  191.1920  175.4010  136.0810 C   0  0  1  0  0  3  0  0  0  0  0  0
  192.2470  174.5580  135.6830 O   0  0  0  0  0  0  0  0  0  0  0  0
  192.6010  175.7320  136.3700 C   0  0  2  0  0  3  0  0  0  0  0  0
  192.9140  175.3970  137.8160 C   0  0  0  0  0  2  0  0  0  0  0  0
  194.3570  175.3160  138.0030 N   0  0  0  0  0  2  0  0  0  0  0  0
  197.8230  172.7000  136.3880 C   0  0  0  0  0  2  0  0  0  0  0  0
  196.1930  173.7040  138.0010 C   0  0  2  0  0  0  0  0  0  0  0  0
  194.7220  173.9080  137.9020 C   0  0  1  0  0  3  0  0  0  0  0  0
  195.3510  173.4910  139.1040 O   0  0  0  0  0  0  0  0  0  0  0  0
  197.0450  174.8790  138.1890 N   0  0  0  0  0  2  0  0  0  0  0  0
  198.7520  173.8720  136.7320 C   0  0  0  0  0  2  0  0  0  0  0  0
  198.4490  174.4970  138.0930 C   0  0  0  0  0  2  0  0  0  0  0  0
  196.7900  172.4030  137.4690 C   0  0  0  0  0  2  0  0  0  0  0  0
  1 24  1  6  0  0  0
  1 18  1  0  0  0  0
  1 12  1  0  0  0  0
  2 13  2  0  0  0  0
  3 11  1  0  0  0  0
  3  9  1  0  0  0  0
  4 17  1  0  0  0  0
  5  7  1  0  0  0  0
  6  5  2  0  0  0  0
  6 14  1  0  0  0  0
  7  4  2  0  0  0  0
  8 11  2  0  0  0  0
  9 10  1  6  0  0  0
  9  5  1  0  0  0  0
 11  6  1  0  0  0  0
 12  8  2  0  0  0  0
 13  4  1  0  0  0  0
 14  2  1  0  0  0  0
 17 16  2  0  0  0  0
 17 15  1  0  0  0  0
 19 20  2  0  0  0  0
 20 18  1  0  0  0  0
 21 22  1  0  0  0  0
 22 23  1  0  0  0  0
 22 20  1  0  0  0  0
 25 27  1  0  0  0  0
 25 30  1  0  0  0  0
 27 29  1  0  0  0  0
 29 26  1  0  0  0  0
 29 24  1  1  0  0  0
 30 28  1  1  0  0  0
 30 26  1  0  0  0  0
 31 30  1  0  0  0  0
 32 31  2  0  0  0  0
 33 32  1  0  0  0  0
 34 33  1  6  0  0  0
 34 36  1  0  0  0  0
 35 34  1  0  0  0  0
 35 36  1  0  0  0  0
 36 37  1  1  0  0  0
 37 38  1  0  0  0  0
 39 44  1  0  0  0  0
 39 46  1  0  0  0  0
 40 46  1  6  0  0  0
 40 43  1  0  0  0  0
 40 42  1  0  0  0  0
 41 40  1  0  0  0  0
 41 38  1  1  0  0  0
 41 42  1  0  0  0  0
 44 45  1  0  0  0  0
 45 43  1  0  0  0  0
M  END
>  <MODEL>
8

>  <REMARK>
 VINA RESULT:      -7.4      5.314     10.703
  Name = 
  13 active torsions:
  status: ('A' for Active; 'I' for Inactive)
    1  A    between atoms: C_2  and  C_17
    2  A    between atoms: C_2  and  C_35
    3  A    between atoms: C_2  and  C_44
    4  A    between atoms: C_6  and  C_42
    5  A    between atoms: N_9  and  C_10
    6  A    between atoms: N_9  and  C_46
    7  A    between atoms: C_11  and  C_39
    8  A    between atoms: C_17  and  C_23
    9  A    between atoms: C_20  and  C_22
   10  A    between atoms: C_20  and  N_36
   11  A    between atoms: C_23  and  C_30
   12  A    between atoms: C_37  and  C_44
   13  A    between atoms: C_41  and  C_46
                            x       y       z     vdW  Elec       q    Type
                         _______ _______ _______ _____ _____    ______ ____

>  <TORSDO>
F 13

$$$$
=
 OpenBabel11032420023D

 46 51  0  0  1  0  0  0  0  0999 V2000
  185.6390  177.3550  137.1490 C   0  0  1  0  0  3  0  0  0  0  0  0
  180.8940  177.6970  140.4230 C   0  0  0  0  0  3  0  0  0  0  0  0
  185.7380  178.2490  141.7140 S   0  0  0  0  0  0  0  0  0  0  0  0
  180.6480  178.6560  142.7260 C   0  0  0  0  0  0  0  0  0  0  0  0
  183.1270  178.7460  142.2300 C   0  0  0  0  0  0  0  0  0  0  0  0
  183.1680  178.5090  140.9260 C   0  0  0  0  0  0  0  0  0  0  0  0
  181.9020  179.0540  142.9960 C   0  0  0  0  0  3  0  0  0  0  0  0
  184.8460  178.4130  139.1790 C   0  0  0  0  0  0  0  0  0  0  0  0
  184.4600  178.7840  142.9130 C   0  0  2  0  0  3  0  0  0  0  0  0
  184.7340  180.0650  143.3460 F   0  0  0  0  0  0  0  0  0  0  0  0
  184.5090  178.2540  140.4310 C   0  0  0  0  0  0  0  0  0  0  0  0
  185.2050  178.5550  137.9330 C   0  0  0  0  0  3  0  0  0  0  0  0
  180.2930  177.7440  141.6110 C   0  0  0  0  0  3  0  0  0  0  0  0
  181.9800  178.6350  140.0230 C   0  0  0  0  0  2  0  0  0  0  0  0
  179.1740  178.2380  144.5350 O   0  0  0  0  0  1  0  0  0  0  0  0
  179.0100  180.3150  143.5910 O   0  0  0  0  0  0  0  0  0  0  0  0
  179.5850  179.0480  143.6660 C   0  0  0  0  0  0  0  0  0  0  0  0
  184.6470  176.9940  136.0340 C   0  0  0  0  0  2  0  0  0  0  0  0
  183.0490  175.3000  135.4310 N   0  0  0  0  0  2  0  0  0  0  0  0
  183.7390  175.8380  136.3700 C   0  0  0  0  0  0  0  0  0  0  0  0
  184.2960  173.6700  137.4920 C   0  0  0  0  0  1  0  0  0  0  0  0
  183.9080  175.1220  137.6820 C   0  0  0  0  0  3  0  0  0  0  0  0
  182.6410  175.1850  138.5160 C   0  0  0  0  0  1  0  0  0  0  0  0
  187.0620  177.5380  136.6290 C   0  0  0  0  0  2  0  0  0  0  0  0
  190.1930  177.4390  137.6400 C   0  0  0  0  0  2  0  0  0  0  0  0
  188.1480  176.6320  138.7050 C   0  0  0  0  0  2  0  0  0  0  0  0
  189.3900  176.6380  136.6290 C   0  0  0  0  0  2  0  0  0  0  0  0
  188.9700  178.9070  139.2250 C   0  0  0  0  0  1  0  0  0  0  0  0
  187.9930  176.4670  137.2010 C   0  0  2  0  0  3  0  0  0  0  0  0
  189.3820  177.4790  138.9300 C   0  0  2  0  0  0  0  0  0  0  0  0
  190.1730  176.9610  140.0880 C   0  0  0  0  0  3  0  0  0  0  0  0
  191.0180  177.7060  140.7070 N   0  0  0  0  0  0  0  0  0  0  0  0
  191.7690  177.1860  141.8180 C   0  0  0  0  0  2  0  0  0  0  0  0
  190.8350  176.7920  142.9510 C   0  0  1  0  0  3  0  0  0  0  0  0
  190.9090  175.4000  143.1490 O   0  0  0  0  0  0  0  0  0  0  0  0
  191.6110  176.2070  144.0620 C   0  0  2  0  0  3  0  0  0  0  0  0
  190.8180  176.3210  145.3490 C   0  0  0  0  0  2  0  0  0  0  0  0
  190.3840  177.6990  145.5420 N   0  0  0  0  0  2  0  0  0  0  0  0
  186.4980  179.2010  147.5680 C   0  0  0  0  0  2  0  0  0  0  0  0
  188.3120  177.6390  146.8340 C   0  0  2  0  0  0  0  0  0  0  0  0
  189.7930  177.7770  146.8730 C   0  0  1  0  0  3  0  0  0  0  0  0
  189.1360  176.5560  147.1750 O   0  0  0  0  0  0  0  0  0  0  0  0
  187.6670  177.4420  145.5350 N   0  0  0  0  0  2  0  0  0  0  0  0
  185.7810  178.8460  146.2580 C   0  0  0  0  0  2  0  0  0  0  0  0
  186.2180  177.4990  145.6830 C   0  0  0  0  0  2  0  0  0  0  0  0
  187.4960  178.1430  148.0230 C   0  0  0  0  0  2  0  0  0  0  0  0
  1 18  1  6  0  0  0
  1 12  1  0  0  0  0
  2 13  2  0  0  0  0
  3  9  1  0  0  0  0
  4  7  2  0  0  0  0
  4 17  1  0  0  0  0
  5  9  1  0  0  0  0
  5  7  1  0  0  0  0
  6  5  2  0  0  0  0
  8 11  2  0  0  0  0
  9 10  1  6  0  0  0
 11  6  1  0  0  0  0
 11  3  1  0  0  0  0
 12  8  2  0  0  0  0
 13  4  1  0  0  0  0
 14  2  1  0  0  0  0
 14  6  1  0  0  0  0
 16 17  2  0  0  0  0
 17 15  1  0  0  0  0
 18 20  1  0  0  0  0
 19 20  2  0  0  0  0
 20 22  1  0  0  0  0
 21 22  1  0  0  0  0
 22 23  1  0  0  0  0
 24  1  1  0  0  0  0
 25 30  1  0  0  0  0
 26 30  1  0  0  0  0
 27 29  1  0  0  0  0
 27 25  1  0  0  0  0
 29 24  1  6  0  0  0
 29 26  1  0  0  0  0
 30 28  1  1  0  0  0
 30 31  1  0  0  0  0
 31 32  2  0  0  0  0
 32 33  1  0  0  0  0
 34 33  1  6  0  0  0
 34 35  1  0  0  0  0
 34 36  1  0  0  0  0
 35 36  1  0  0  0  0
 36 37  1  1  0  0  0
 37 38  1  0  0  0  0
 39 46  1  0  0  0  0
 40 41  1  0  0  0  0
 40 42  1  0  0  0  0
 40 46  1  1  0  0  0
 41 38  1  6  0  0  0
 41 42  1  0  0  0  0
 43 45  1  0  0  0  0
 43 40  1  0  0  0  0
 44 39  1  0  0  0  0
 45 44  1  0  0  0  0
M  END
>  <MODEL>
9

>  <REMARK>
 VINA RESULT:      -7.3      3.563      8.371
  Name = 
  13 active torsions:
  status: ('A' for Active; 'I' for Inactive)
    1  A    between atoms: C_2  and  C_17
    2  A    between atoms: C_2  and  C_35
    3  A    between atoms: C_2  and  C_44
    4  A    between atoms: C_6  and  C_42
    5  A    between atoms: N_9  and  C_10
    6  A    between atoms: N_9  and  C_46
    7  A    between atoms: C_11  and  C_39
    8  A    between atoms: C_17  and  C_23
    9  A    between atoms: C_20  and  C_22
   10  A    between atoms: C_20  and  N_36
   11  A    between atoms: C_23  and  C_30
   12  A    between atoms: C_37  and  C_44
   13  A    between atoms: C_41  and  C_46
                            x       y       z     vdW  Elec       q    Type
                         _______ _______ _______ _____ _____    ______ ____

>  <TORSDO>
F 13

$$$$
