=
 OpenBabel11042410333D

 67 73  0  0  1  0  0  0  0  0999 V2000
  190.9090  177.3860  144.9990 C   0  0  1  0  0  3  0  0  0  0  0  0
  192.3700  175.4300  145.7420 N   0  0  0  0  0  1  0  0  0  0  0  0
  191.7050  176.6600  146.0400 C   0  0  0  0  0  0  0  0  0  0  0  0
  191.8130  177.1530  147.1890 O   0  0  0  0  0  0  0  0  0  0  0  0
  191.7450  177.8490  143.8510 C   0  0  0  0  0  3  0  0  0  0  0  0
  191.3360  177.6840  142.6240 C   0  0  0  0  0  0  0  0  0  0  0  0
  190.9420  177.5370  141.3900 C   0  0  0  0  0  3  0  0  0  0  0  0
  191.7540  176.7300  140.4370 C   0  0  2  0  0  3  0  0  0  0  0  0
  192.8350  177.5480  139.9170 N   0  0  0  0  0  1  0  0  0  0  0  0
  190.8720  176.2500  139.2990 C   0  0  0  0  0  2  0  0  0  0  0  0
  190.9180  177.2380  138.1440 C   0  0  0  0  0  2  0  0  0  0  0  0
  191.3590  176.5440  136.8630 C   0  0  0  0  0  2  0  0  0  0  0  0
  190.1700  176.3110  135.9470 C   0  0  0  0  0  2  0  0  0  0  0  0
  184.4780  173.2750  134.5950 C   0  0  0  0  0  2  0  0  0  0  0  0
  183.0810  173.2850  136.3420 C   0  0  2  0  0  0  0  0  0  0  0  0
  183.7980  172.6790  137.4000 O   0  0  0  0  0  0  0  0  0  0  0  0
  184.1170  175.0320  137.6540 O   0  0  0  0  0  1  0  0  0  0  0  0
  183.3070  172.6720  135.0990 O   0  0  0  0  0  0  0  0  0  0  0  0
  188.2690  171.9390  135.3660 O   0  0  0  0  0  1  0  0  0  0  0  0
  186.3230  172.8880  136.1070 O   0  0  0  0  0  0  0  0  0  0  0  0
  185.3090  173.8170  135.7520 C   0  0  1  0  0  0  0  0  0  0  0  0
  186.7730  177.5300  136.6510 O   0  0  0  0  0  0  0  0  0  0  0  0
  188.1700  174.3030  135.6320 C   0  0  0  0  0  2  0  0  0  0  0  0
  187.6480  176.6920  136.3070 C   0  0  0  0  0  0  0  0  0  0  0  0
  185.8280  175.2330  135.4090 C   0  0  0  0  0  2  0  0  0  0  0  0
  187.4240  173.0400  135.2440 C   0  0  1  0  0  3  0  0  0  0  0  0
  184.3050  173.8880  136.8710 C   0  0  2  0  0  0  0  0  0  0  0  0
  187.2320  175.4140  135.7930 N   0  0  0  0  0  0  0  0  0  0  0  0
  189.0260  177.0800  136.4150 N   0  0  0  0  0  2  0  0  0  0  0  0
  181.6650  173.7890  136.6880 C   0  0  1  0  0  3  0  0  0  0  0  0
  181.2830  174.7960  135.8010 O   0  0  0  0  0  1  0  0  0  0  0  0
  180.5240  171.8180  137.8080 N   0  0  0  0  0  1  0  0  0  0  0  0
  180.6110  172.7230  136.7150 C   0  0  0  0  0  0  0  0  0  0  0  0
  179.8130  172.5900  135.7080 N   0  0  0  0  0  2  0  0  0  0  0  0
  189.8250  176.5370  144.5200 N   0  0  0  0  0  2  0  0  0  0  0  0
  187.9600  178.1080  145.2910 C   0  0  2  0  0  3  0  0  0  0  0  0
  187.6300  175.1180  143.1940 O   0  0  0  0  0  1  0  0  0  0  0  0
  188.4910  178.1830  146.7220 C   0  0  0  0  0  2  0  0  0  0  0  0
  188.0250  179.4580  147.4000 C   0  0  0  0  0  2  0  0  0  0  0  0
  185.6590  177.7470  146.4440 C   0  0  0  0  0  2  0  0  0  0  0  0
  185.5360  179.0130  147.2750 C   0  0  0  0  0  2  0  0  0  0  0  0
  186.4200  178.0370  145.1480 C   0  0  2  0  0  3  0  0  0  0  0  0
  188.4370  176.8830  144.6050 C   0  0  0  0  0  0  0  0  0  0  0  0
  186.7420  179.2060  148.1830 C   0  0  0  0  0  2  0  0  0  0  0  0
  186.1400  176.9160  144.1440 C   0  0  2  0  0  3  0  0  0  0  0  0
  187.4550  176.2510  143.9820 C   0  0  0  0  0  0  0  0  0  0  0  0
  183.6430  178.1960  143.6300 O   0  0  0  0  0  0  0  0  0  0  0  0
  184.5020  178.2120  142.7070 C   0  0  0  0  0  0  0  0  0  0  0  0
  185.7350  177.5030  142.8720 N   0  0  0  0  0  2  0  0  0  0  0  0
  184.2870  178.9830  141.4680 C   0  0  0  0  0  3  0  0  0  0  0  0
  181.7720  177.2780  138.6000 C   0  0  0  0  0  3  0  0  0  0  0  0
  183.1970  178.9810  140.6940 C   0  0  0  0  0  0  0  0  0  0  0  0
  183.2220  179.8840  139.4990 C   0  0  0  0  0  2  0  0  0  0  0  0
  181.9380  178.4230  137.9200 C   0  0  0  0  0  0  0  0  0  0  0  0
  181.7040  177.1240  139.9980 O   0  0  0  0  0  0  0  0  0  0  0  0
  182.0030  178.0990  141.0000 C   0  0  2  0  0  3  0  0  0  0  0  0
  181.9760  179.7430  138.6460 C   0  0  2  0  0  3  0  0  0  0  0  0
  181.8470  180.8390  137.7950 O   0  0  0  0  0  1  0  0  0  0  0  0
  179.4870  180.6200  141.7510 C   0  0  0  0  0  2  0  0  0  0  0  0
  180.7940  180.1610  141.5050 O   0  0  0  0  0  0  0  0  0  0  0  0
  180.7550  178.7590  141.5990 C   0  0  2  0  0  3  0  0  0  0  0  0
  180.5220  178.3270  143.0530 C   0  0  0  0  0  2  0  0  0  0  0  0
  179.1240  180.4020  143.2200 C   0  0  0  0  0  2  0  0  0  0  0  0
  179.1920  178.9080  143.5290 C   0  0  0  0  0  2  0  0  0  0  0  0
  183.1410  177.8910  135.9310 O   0  0  0  0  0  1  0  0  0  0  0  0
  182.0800  178.3330  136.4420 C   0  0  0  0  0  0  0  0  0  0  0  0
  181.0600  178.7470  135.5970 O   0  0  0  0  0  0  0  0  0  0  0  0
  1  5  1  6  0  0  0
  1  3  1  0  0  0  0
  2  3  1  0  0  0  0
  3  4  2  0  0  0  0
  6  5  2  0  0  0  0
  7  6  2  0  0  0  0
  8  9  1  6  0  0  0
  8  7  1  0  0  0  0
 10  8  1  0  0  0  0
 11 10  1  0  0  0  0
 12 11  1  0  0  0  0
 13 29  1  0  0  0  0
 13 12  1  0  0  0  0
 14 18  1  0  0  0  0
 15 30  1  1  0  0  0
 15 27  1  0  0  0  0
 15 16  1  0  0  0  0
 18 15  1  0  0  0  0
 21 14  1  6  0  0  0
 21 20  1  0  0  0  0
 21 27  1  0  0  0  0
 23 28  1  0  0  0  0
 24 29  1  0  0  0  0
 24 22  2  0  0  0  0
 25 21  1  0  0  0  0
 25 28  1  0  0  0  0
 26 19  1  1  0  0  0
 26 23  1  0  0  0  0
 26 20  1  0  0  0  0
 27 16  1  0  0  0  0
 27 17  1  1  0  0  0
 28 24  1  0  0  0  0
 30 31  1  6  0  0  0
 30 33  1  0  0  0  0
 33 32  1  0  0  0  0
 34 33  2  0  0  0  0
 35 43  1  0  0  0  0
 35  1  1  0  0  0  0
 36 38  1  1  0  0  0
 37 46  1  0  0  0  0
 38 39  1  0  0  0  0
 39 44  1  0  0  0  0
 40 41  1  0  0  0  0
 41 44  1  0  0  0  0
 42 36  1  0  0  0  0
 42 40  1  1  0  0  0
 43 36  1  0  0  0  0
 45 49  1  6  0  0  0
 45 42  1  0  0  0  0
 46 45  1  0  0  0  0
 46 43  2  0  0  0  0
 48 49  1  0  0  0  0
 48 47  2  0  0  0  0
 50 48  1  0  0  0  0
 51 55  1  0  0  0  0
 52 56  1  0  0  0  0
 52 50  2  0  0  0  0
 53 52  1  0  0  0  0
 54 51  2  0  0  0  0
 54 57  1  0  0  0  0
 56 55  1  6  0  0  0
 56 61  1  0  0  0  0
 57 58  1  6  0  0  0
 57 53  1  0  0  0  0
 59 63  1  0  0  0  0
 60 61  1  0  0  0  0
 60 59  1  0  0  0  0
 61 62  1  1  0  0  0
 62 64  1  0  0  0  0
 63 64  1  0  0  0  0
 65 66  1  0  0  0  0
 66 54  1  0  0  0  0
 67 66  2  0  0  0  0
M  END
>  <MODEL>
1

>  <REMARK>
 VINA RESULT:      -5.8      0.000      0.000
  Name = 
  16 active torsions:
  status: ('A' for Active; 'I' for Inactive)
    1  A    between atoms: C_2  and  C_13
    2  A    between atoms: C_4  and  C_15
    3  A    between atoms: C_4  and  C_51
    4  A    between atoms: C_5  and  C_9
    5  A    between atoms: C_9  and  C_42
    6  A    between atoms: N_12  and  C_23
    7  A    between atoms: N_12  and  C_46
    8  A    between atoms: C_15  and  N_67
    9  A    between atoms: C_18  and  C_23
   10  A    between atoms: C_19  and  C_23
   11  A    between atoms: N_22  and  C_61
   12  A    between atoms: C_31  and  C_36
   13  A    between atoms: C_41  and  C_49
   14  A    between atoms: C_41  and  C_54
   15  A    between atoms: C_49  and  C_51
   16  A    between atoms: C_52  and  C_63
                            x       y       z     vdW  Elec       q    Type
                         _______ _______ _______ _____ _____    ______ ____

>  <TORSDO>
F 16

$$$$
=
 OpenBabel11042410333D

 67 73  0  0  1  0  0  0  0  0999 V2000
  186.8590  177.6580  135.7450 C   0  0  1  0  0  3  0  0  0  0  0  0
  185.5510  178.4440  137.7900 N   0  0  0  0  0  1  0  0  0  0  0  0
  186.5170  177.5700  137.2000 C   0  0  0  0  0  0  0  0  0  0  0  0
  187.0680  176.6960  137.9120 O   0  0  0  0  0  0  0  0  0  0  0  0
  188.3280  177.7660  135.5020 C   0  0  0  0  0  3  0  0  0  0  0  0
  189.0380  176.7040  135.2400 C   0  0  0  0  0  0  0  0  0  0  0  0
  189.7630  175.6550  134.9670 C   0  0  0  0  0  3  0  0  0  0  0  0
  190.8910  175.2740  135.8630 C   0  0  2  0  0  3  0  0  0  0  0  0
  190.8770  173.8370  136.0660 N   0  0  0  0  0  1  0  0  0  0  0  0
  190.7430  175.9890  137.1940 C   0  0  0  0  0  2  0  0  0  0  0  0
  192.0810  176.5580  137.6380 C   0  0  0  0  0  2  0  0  0  0  0  0
  192.2550  176.4070  139.1430 C   0  0  0  0  0  2  0  0  0  0  0  0
  191.5320  177.5240  139.8760 C   0  0  0  0  0  2  0  0  0  0  0  0
  190.1190  176.7620  146.2690 C   0  0  0  0  0  2  0  0  0  0  0  0
  188.2040  177.7690  146.8350 C   0  0  2  0  0  0  0  0  0  0  0  0
  188.3650  179.1230  146.4580 O   0  0  0  0  0  0  0  0  0  0  0  0
  187.2540  178.0600  144.6300 O   0  0  0  0  0  1  0  0  0  0  0  0
  189.3690  177.2050  147.3780 O   0  0  0  0  0  0  0  0  0  0  0  0
  192.8080  179.0830  144.2360 O   0  0  0  0  0  1  0  0  0  0  0  0
  190.6440  178.6300  144.8290 O   0  0  0  0  0  0  0  0  0  0  0  0
  189.7260  177.5670  145.0360 C   0  0  1  0  0  0  0  0  0  0  0  0
  188.3120  176.5230  141.3410 O   0  0  0  0  0  0  0  0  0  0  0  0
  191.4140  177.9180  142.6980 C   0  0  0  0  0  2  0  0  0  0  0  0
  189.4960  176.9520  141.3460 C   0  0  0  0  0  0  0  0  0  0  0  0
  189.5550  176.6230  143.8230 C   0  0  0  0  0  2  0  0  0  0  0  0
  191.7790  178.1470  144.1520 C   0  0  1  0  0  3  0  0  0  0  0  0
  188.3960  178.1480  145.4340 C   0  0  2  0  0  0  0  0  0  0  0  0
  190.1570  177.1740  142.6050 N   0  0  0  0  0  0  0  0  0  0  0  0
  190.1370  177.1630  140.0790 N   0  0  0  0  0  2  0  0  0  0  0  0
  186.8330  177.3950  147.4350 C   0  0  1  0  0  3  0  0  0  0  0  0
  186.9840  176.9880  148.7620 O   0  0  0  0  0  1  0  0  0  0  0  0
  186.0650  179.7680  147.9060 N   0  0  0  0  0  1  0  0  0  0  0  0
  185.8010  178.4810  147.3620 C   0  0  0  0  0  0  0  0  0  0  0  0
  184.6420  178.2260  146.8520 N   0  0  0  0  0  2  0  0  0  0  0  0
  186.3170  176.5040  135.0360 N   0  0  0  0  0  2  0  0  0  0  0  0
  185.3580  174.4300  136.1820 C   0  0  2  0  0  3  0  0  0  0  0  0
  183.5160  177.3620  134.9780 O   0  0  0  0  0  1  0  0  0  0  0  0
  186.2110  173.4680  135.3580 C   0  0  0  0  0  2  0  0  0  0  0  0
  186.3950  172.1510  136.0900 C   0  0  0  0  0  2  0  0  0  0  0  0
  183.4260  172.7860  135.6170 C   0  0  0  0  0  2  0  0  0  0  0  0
  183.9550  171.4860  136.2010 C   0  0  0  0  0  2  0  0  0  0  0  0
  183.9030  173.9750  136.4540 C   0  0  2  0  0  3  0  0  0  0  0  0
  185.2000  175.7330  135.4930 C   0  0  0  0  0  0  0  0  0  0  0  0
  185.3340  171.1470  135.6550 C   0  0  0  0  0  2  0  0  0  0  0  0
  183.0180  175.1860  136.1500 C   0  0  2  0  0  3  0  0  0  0  0  0
  183.9400  176.1390  135.4870 C   0  0  0  0  0  0  0  0  0  0  0  0
  180.3060  175.8220  136.7670 O   0  0  0  0  0  0  0  0  0  0  0  0
  181.1590  175.9730  137.6830 C   0  0  0  0  0  0  0  0  0  0  0  0
  182.5470  175.7620  137.4050 N   0  0  0  0  0  2  0  0  0  0  0  0
  180.7560  176.3210  139.0590 C   0  0  0  0  0  3  0  0  0  0  0  0
  183.2180  178.9930  141.1230 C   0  0  0  0  0  3  0  0  0  0  0  0
  180.9870  177.4710  139.7020 C   0  0  0  0  0  0  0  0  0  0  0  0
  180.4420  177.5810  141.0930 C   0  0  0  0  0  2  0  0  0  0  0  0
  182.2980  178.9300  142.0990 C   0  0  0  0  0  0  0  0  0  0  0  0
  182.9890  178.9380  139.7360 O   0  0  0  0  0  0  0  0  0  0  0  0
  181.7730  178.5980  139.0630 C   0  0  2  0  0  3  0  0  0  0  0  0
  180.8300  178.8870  141.7600 C   0  0  2  0  0  3  0  0  0  0  0  0
  180.0080  179.1320  142.8580 O   0  0  0  0  0  1  0  0  0  0  0  0
  179.3560  180.5900  137.2090 C   0  0  0  0  0  2  0  0  0  0  0  0
  180.2790  179.5410  137.3760 O   0  0  0  0  0  0  0  0  0  0  0  0
  180.9980  179.8180  138.5520 C   0  0  2  0  0  3  0  0  0  0  0  0
  181.9130  181.0330  138.3470 C   0  0  0  0  0  2  0  0  0  0  0  0
  180.0920  181.8800  136.8450 C   0  0  0  0  0  2  0  0  0  0  0  0
  181.0510  182.2380  137.9790 C   0  0  0  0  0  2  0  0  0  0  0  0
  183.9530  179.2790  143.7790 O   0  0  0  0  0  0  0  0  0  0  0  0
  182.7830  178.9080  143.5050 C   0  0  0  0  0  0  0  0  0  0  0  0
  181.9680  178.4640  144.5370 O   0  0  0  0  0  1  0  0  0  0  0  0
  1  5  1  1  0  0  0
  1  3  1  0  0  0  0
  3  2  1  0  0  0  0
  3  4  2  0  0  0  0
  6  5  2  0  0  0  0
  7  6  2  0  0  0  0
  7  8  1  0  0  0  0
  8  9  1  1  0  0  0
  8 10  1  0  0  0  0
 10 11  1  0  0  0  0
 11 12  1  0  0  0  0
 12 13  1  0  0  0  0
 13 29  1  0  0  0  0
 14 18  1  0  0  0  0
 15 18  1  0  0  0  0
 15 30  1  1  0  0  0
 16 15  1  0  0  0  0
 20 21  1  0  0  0  0
 21 25  1  6  0  0  0
 21 27  1  0  0  0  0
 21 14  1  0  0  0  0
 22 24  2  0  0  0  0
 23 26  1  0  0  0  0
 24 28  1  0  0  0  0
 26 19  1  6  0  0  0
 26 20  1  0  0  0  0
 27 17  1  6  0  0  0
 27 16  1  0  0  0  0
 27 15  1  0  0  0  0
 28 23  1  0  0  0  0
 28 25  1  0  0  0  0
 29 24  1  0  0  0  0
 30 31  1  1  0  0  0
 33 30  1  0  0  0  0
 33 32  1  0  0  0  0
 34 33  2  0  0  0  0
 35 43  1  0  0  0  0
 35  1  1  0  0  0  0
 36 38  1  6  0  0  0
 36 42  1  0  0  0  0
 37 46  1  0  0  0  0
 38 39  1  0  0  0  0
 40 41  1  0  0  0  0
 42 40  1  6  0  0  0
 43 36  1  0  0  0  0
 44 39  1  0  0  0  0
 44 41  1  0  0  0  0
 45 42  1  0  0  0  0
 45 49  1  1  0  0  0
 46 43  2  0  0  0  0
 46 45  1  0  0  0  0
 47 48  2  0  0  0  0
 48 50  1  0  0  0  0
 49 48  1  0  0  0  0
 50 52  2  0  0  0  0
 51 54  2  0  0  0  0
 52 53  1  0  0  0  0
 53 57  1  0  0  0  0
 54 66  1  0  0  0  0
 55 51  1  0  0  0  0
 56 52  1  1  0  0  0
 56 55  1  0  0  0  0
 57 54  1  0  0  0  0
 57 58  1  1  0  0  0
 59 60  1  0  0  0  0
 60 61  1  0  0  0  0
 61 62  1  6  0  0  0
 61 56  1  0  0  0  0
 63 59  1  0  0  0  0
 63 64  1  0  0  0  0
 64 62  1  0  0  0  0
 66 65  2  0  0  0  0
 66 67  1  0  0  0  0
M  END
>  <MODEL>
2

>  <REMARK>
 VINA RESULT:      -5.7      2.284      9.046
  Name = 
  16 active torsions:
  status: ('A' for Active; 'I' for Inactive)
    1  A    between atoms: C_2  and  C_13
    2  A    between atoms: C_4  and  C_15
    3  A    between atoms: C_4  and  C_51
    4  A    between atoms: C_5  and  C_9
    5  A    between atoms: C_9  and  C_42
    6  A    between atoms: N_12  and  C_23
    7  A    between atoms: N_12  and  C_46
    8  A    between atoms: C_15  and  N_67
    9  A    between atoms: C_18  and  C_23
   10  A    between atoms: C_19  and  C_23
   11  A    between atoms: N_22  and  C_61
   12  A    between atoms: C_31  and  C_36
   13  A    between atoms: C_41  and  C_49
   14  A    between atoms: C_41  and  C_54
   15  A    between atoms: C_49  and  C_51
   16  A    between atoms: C_52  and  C_63
                            x       y       z     vdW  Elec       q    Type
                         _______ _______ _______ _____ _____    ______ ____

>  <TORSDO>
F 16

$$$$
=
 OpenBabel11042410333D

 67 73  0  0  1  0  0  0  0  0999 V2000
  191.2520  175.9100  146.6070 C   0  0  1  0  0  3  0  0  0  0  0  0
  193.5730  175.7540  147.6560 N   0  0  0  0  0  1  0  0  0  0  0  0
  192.1830  175.4210  147.6740 C   0  0  0  0  0  0  0  0  0  0  0  0
  191.7300  174.7270  148.6170 O   0  0  0  0  0  0  0  0  0  0  0  0
  190.6610  177.2440  146.9220 C   0  0  0  0  0  3  0  0  0  0  0  0
  189.4330  177.3410  147.3530 C   0  0  0  0  0  0  0  0  0  0  0  0
  188.2110  177.4590  147.7930 C   0  0  0  0  0  3  0  0  0  0  0  0
  187.2130  178.2470  147.0190 C   0  0  2  0  0  3  0  0  0  0  0  0
  185.8770  177.7760  147.3400 N   0  0  0  0  0  1  0  0  0  0  0  0
  187.4780  178.0820  145.5330 C   0  0  0  0  0  2  0  0  0  0  0  0
  186.2370  177.5520  144.8320 C   0  0  0  0  0  2  0  0  0  0  0  0
  185.6490  178.6100  143.9100 C   0  0  0  0  0  2  0  0  0  0  0  0
  185.0280  177.9620  142.6840 C   0  0  0  0  0  2  0  0  0  0  0  0
  179.9740  179.2560  138.6560 C   0  0  0  0  0  2  0  0  0  0  0  0
  180.0340  181.3510  137.8740 C   0  0  2  0  0  0  0  0  0  0  0  0
  180.0590  182.1790  139.0200 O   0  0  0  0  0  0  0  0  0  0  0  0
  182.3390  181.8830  138.3740 O   0  0  0  0  0  1  0  0  0  0  0  0
  179.1900  180.2370  138.0160 O   0  0  0  0  0  0  0  0  0  0  0  0
  180.3130  178.8700  142.7170 O   0  0  0  0  0  1  0  0  0  0  0  0
  180.7160  180.0670  140.8080 O   0  0  0  0  0  0  0  0  0  0  0  0
  181.0890  179.9320  139.4440 C   0  0  1  0  0  0  0  0  0  0  0  0
  185.1660  179.5860  139.3880 O   0  0  0  0  0  0  0  0  0  0  0  0
  182.4630  178.7300  141.7050 C   0  0  0  0  0  2  0  0  0  0  0  0
  184.6150  179.1110  140.4160 C   0  0  0  0  0  0  0  0  0  0  0  0
  182.4230  179.1830  139.2160 C   0  0  0  0  0  2  0  0  0  0  0  0
  180.9670  178.8600  141.4860 C   0  0  1  0  0  3  0  0  0  0  0  0
  181.1480  181.3000  138.8210 C   0  0  2  0  0  0  0  0  0  0  0  0
  183.1800  179.0110  140.4610 N   0  0  0  0  0  0  0  0  0  0  0  0
  185.4630  178.6580  141.4820 N   0  0  0  0  0  2  0  0  0  0  0  0
  180.1030  182.0770  136.5150 C   0  0  1  0  0  3  0  0  0  0  0  0
  179.3020  181.4230  135.5780 O   0  0  0  0  0  1  0  0  0  0  0  0
  180.1960  184.3620  137.6160 N   0  0  0  0  0  1  0  0  0  0  0  0
  179.7310  183.5280  136.5620 C   0  0  0  0  0  0  0  0  0  0  0  0
  178.9320  184.0110  135.6690 N   0  0  0  0  0  2  0  0  0  0  0  0
  191.9460  175.9590  145.3250 N   0  0  0  0  0  2  0  0  0  0  0  0
  191.5230  177.8350  143.6400 C   0  0  2  0  0  3  0  0  0  0  0  0
  190.5110  174.3220  143.3630 O   0  0  0  0  0  1  0  0  0  0  0  0
  191.1140  178.8360  144.7190 C   0  0  0  0  0  2  0  0  0  0  0  0
  191.3240  180.2600  144.2370 C   0  0  0  0  0  2  0  0  0  0  0  0
  189.4120  178.7060  142.4000 C   0  0  0  0  0  2  0  0  0  0  0  0
  189.7250  180.1880  142.2760 C   0  0  0  0  0  2  0  0  0  0  0  0
  190.7010  177.8860  142.3290 C   0  0  2  0  0  3  0  0  0  0  0  0
  191.3570  176.4390  144.1110 C   0  0  0  0  0  0  0  0  0  0  0  0
  190.0390  180.8100  143.6290 C   0  0  0  0  0  2  0  0  0  0  0  0
  190.3500  176.4330  141.9950 C   0  0  2  0  0  3  0  0  0  0  0  0
  190.7320  175.6880  143.2170 C   0  0  0  0  0  0  0  0  0  0  0  0
  190.4870  177.6810  139.4330 O   0  0  0  0  0  0  0  0  0  0  0  0
  191.2650  176.7120  139.6470 C   0  0  0  0  0  0  0  0  0  0  0  0
  191.1740  175.9860  140.8780 N   0  0  0  0  0  2  0  0  0  0  0  0
  192.3050  176.3300  138.6730 C   0  0  0  0  0  3  0  0  0  0  0  0
  191.7720  172.7000  136.6750 C   0  0  0  0  0  3  0  0  0  0  0  0
  192.1460  175.5930  137.5680 C   0  0  0  0  0  0  0  0  0  0  0  0
  193.3670  175.3740  136.7280 C   0  0  0  0  0  2  0  0  0  0  0  0
  192.8720  173.0340  135.9830 C   0  0  0  0  0  0  0  0  0  0  0  0
  190.7730  173.5690  137.1510 O   0  0  0  0  0  0  0  0  0  0  0  0
  190.8040  174.9980  137.1940 C   0  0  2  0  0  3  0  0  0  0  0  0
  193.0950  174.4600  135.5490 C   0  0  2  0  0  3  0  0  0  0  0  0
  194.1040  174.5900  134.5950 O   0  0  0  0  0  1  0  0  0  0  0  0
  189.6860  177.5110  134.8090 C   0  0  0  0  0  2  0  0  0  0  0  0
  190.1400  177.0590  136.0620 O   0  0  0  0  0  0  0  0  0  0  0  0
  190.0150  175.6580  136.0560 C   0  0  2  0  0  3  0  0  0  0  0  0
  188.5350  175.2530  136.0760 C   0  0  0  0  0  2  0  0  0  0  0  0
  188.1720  177.3180  134.7020 C   0  0  0  0  0  2  0  0  0  0  0  0
  187.8530  175.8310  134.8390 C   0  0  0  0  0  2  0  0  0  0  0  0
  193.7290  171.2840  134.6090 O   0  0  0  0  0  0  0  0  0  0  0  0
  193.8450  171.9540  135.6670 C   0  0  0  0  0  0  0  0  0  0  0  0
  194.8850  171.6490  136.5340 O   0  0  0  0  0  1  0  0  0  0  0  0
  1  5  1  1  0  0  0
  1  3  1  0  0  0  0
  2  3  1  0  0  0  0
  3  4  2  0  0  0  0
  5  6  2  0  0  0  0
  6  7  2  0  0  0  0
  8  9  1  6  0  0  0
  8  7  1  0  0  0  0
 10  8  1  0  0  0  0
 11 10  1  0  0  0  0
 12 11  1  0  0  0  0
 13 12  1  0  0  0  0
 15 30  1  6  0  0  0
 15 18  1  0  0  0  0
 15 27  1  0  0  0  0
 15 16  1  0  0  0  0
 18 14  1  0  0  0  0
 20 26  1  0  0  0  0
 21 14  1  6  0  0  0
 21 20  1  0  0  0  0
 22 24  2  0  0  0  0
 24 28  1  0  0  0  0
 24 29  1  0  0  0  0
 25 21  1  0  0  0  0
 25 28  1  0  0  0  0
 26 23  1  0  0  0  0
 26 19  1  1  0  0  0
 27 17  1  6  0  0  0
 27 16  1  0  0  0  0
 27 21  1  0  0  0  0
 28 23  1  0  0  0  0
 29 13  1  0  0  0  0
 30 31  1  6  0  0  0
 30 33  1  0  0  0  0
 33 32  1  0  0  0  0
 34 33  2  0  0  0  0
 35  1  1  0  0  0  0
 36 43  1  0  0  0  0
 36 38  1  1  0  0  0
 39 38  1  0  0  0  0
 41 40  1  0  0  0  0
 41 44  1  0  0  0  0
 42 40  1  1  0  0  0
 42 36  1  0  0  0  0
 43 35  1  0  0  0  0
 44 39  1  0  0  0  0
 45 49  1  6  0  0  0
 45 42  1  0  0  0  0
 45 46  1  0  0  0  0
 46 37  1  0  0  0  0
 46 43  2  0  0  0  0
 47 48  2  0  0  0  0
 48 49  1  0  0  0  0
 50 48  1  0  0  0  0
 51 55  1  0  0  0  0
 52 50  2  0  0  0  0
 53 52  1  0  0  0  0
 54 51  2  0  0  0  0
 56 55  1  6  0  0  0
 56 52  1  0  0  0  0
 57 58  1  6  0  0  0
 57 54  1  0  0  0  0
 57 53  1  0  0  0  0
 59 60  1  0  0  0  0
 61 60  1  0  0  0  0
 61 62  1  1  0  0  0
 61 56  1  0  0  0  0
 63 59  1  0  0  0  0
 63 64  1  0  0  0  0
 64 62  1  0  0  0  0
 65 66  2  0  0  0  0
 66 54  1  0  0  0  0
 66 67  1  0  0  0  0
M  END
>  <MODEL>
3

>  <REMARK>
 VINA RESULT:      -2.9      3.397      8.860
  Name = 
  16 active torsions:
  status: ('A' for Active; 'I' for Inactive)
    1  A    between atoms: C_2  and  C_13
    2  A    between atoms: C_4  and  C_15
    3  A    between atoms: C_4  and  C_51
    4  A    between atoms: C_5  and  C_9
    5  A    between atoms: C_9  and  C_42
    6  A    between atoms: N_12  and  C_23
    7  A    between atoms: N_12  and  C_46
    8  A    between atoms: C_15  and  N_67
    9  A    between atoms: C_18  and  C_23
   10  A    between atoms: C_19  and  C_23
   11  A    between atoms: N_22  and  C_61
   12  A    between atoms: C_31  and  C_36
   13  A    between atoms: C_41  and  C_49
   14  A    between atoms: C_41  and  C_54
   15  A    between atoms: C_49  and  C_51
   16  A    between atoms: C_52  and  C_63
                            x       y       z     vdW  Elec       q    Type
                         _______ _______ _______ _____ _____    ______ ____

>  <TORSDO>
F 16

$$$$
=
 OpenBabel11042410333D

 67 73  0  0  1  0  0  0  0  0999 V2000
  190.7740  177.4450  139.9750 C   0  0  1  0  0  3  0  0  0  0  0  0
  188.2510  177.5220  140.3510 N   0  0  0  0  0  1  0  0  0  0  0  0
  189.5720  177.8980  140.7470 C   0  0  0  0  0  0  0  0  0  0  0  0
  189.7280  178.5980  141.7770 O   0  0  0  0  0  0  0  0  0  0  0  0
  191.9390  177.1290  140.8540 C   0  0  0  0  0  3  0  0  0  0  0  0
  191.7660  176.8790  142.1220 C   0  0  0  0  0  0  0  0  0  0  0  0
  191.6130  176.6170  143.3900 C   0  0  0  0  0  3  0  0  0  0  0  0
  192.2730  177.4730  144.4140 C   0  0  2  0  0  3  0  0  0  0  0  0
  192.0650  176.8940  145.7300 N   0  0  0  0  0  1  0  0  0  0  0  0
  191.6810  178.8710  144.3630 C   0  0  0  0  0  2  0  0  0  0  0  0
  190.2140  178.8370  144.7600 C   0  0  0  0  0  2  0  0  0  0  0  0
  190.0550  178.3240  146.1840 C   0  0  0  0  0  2  0  0  0  0  0  0
  189.2020  177.0670  146.2050 C   0  0  0  0  0  2  0  0  0  0  0  0
  182.7740  178.2480  145.3500 C   0  0  0  0  0  2  0  0  0  0  0  0
  182.3610  179.3160  143.4290 C   0  0  2  0  0  0  0  0  0  0  0  0
  183.1420  180.4940  143.4780 O   0  0  0  0  0  0  0  0  0  0  0  0
  184.4510  178.8870  142.2920 O   0  0  0  0  0  1  0  0  0  0  0  0
  181.7850  178.9830  144.6650 O   0  0  0  0  0  0  0  0  0  0  0  0
  185.6550  179.9250  147.7250 O   0  0  0  0  0  1  0  0  0  0  0  0
  184.7520  179.6030  145.6470 O   0  0  0  0  0  0  0  0  0  0  0  0
  184.1490  178.6240  144.8130 C   0  0  1  0  0  0  0  0  0  0  0  0
  187.2080  176.4540  143.1770 O   0  0  0  0  0  0  0  0  0  0  0  0
  186.6320  178.3000  146.2860 C   0  0  0  0  0  2  0  0  0  0  0  0
  187.4440  176.9040  144.3290 C   0  0  0  0  0  0  0  0  0  0  0  0
  185.0000  177.3490  144.6040 C   0  0  0  0  0  2  0  0  0  0  0  0
  185.3550  178.9750  146.7510 C   0  0  1  0  0  3  0  0  0  0  0  0
  183.8220  179.2540  143.4860 C   0  0  2  0  0  0  0  0  0  0  0  0
  186.3790  177.5220  145.0740 N   0  0  0  0  0  0  0  0  0  0  0  0
  188.7700  176.7390  144.8540 N   0  0  0  0  0  2  0  0  0  0  0  0
  181.5500  179.0980  142.1350 C   0  0  1  0  0  3  0  0  0  0  0  0
  182.1280  178.0840  141.3700 O   0  0  0  0  0  1  0  0  0  0  0  0
  179.2060  179.8000  142.8090 N   0  0  0  0  0  1  0  0  0  0  0  0
  180.0990  178.7920  142.3510 C   0  0  0  0  0  0  0  0  0  0  0  0
  179.6670  177.5870  142.1740 N   0  0  0  0  0  2  0  0  0  0  0  0
  190.4330  176.2870  139.1580 N   0  0  0  0  0  2  0  0  0  0  0  0
  191.3590  175.0840  137.0990 C   0  0  2  0  0  3  0  0  0  0  0  0
  189.3340  178.1400  137.1720 O   0  0  0  0  0  1  0  0  0  0  0  0
  192.7320  174.8660  137.7320 C   0  0  0  0  0  2  0  0  0  0  0  0
  193.4380  173.6860  137.0890 C   0  0  0  0  0  2  0  0  0  0  0  0
  192.7240  175.8480  135.0240 C   0  0  0  0  0  2  0  0  0  0  0  0
  193.5500  174.6060  134.7330 C   0  0  0  0  0  2  0  0  0  0  0  0
  191.3610  175.4540  135.5960 C   0  0  2  0  0  3  0  0  0  0  0  0
  190.6440  176.2130  137.7430 C   0  0  0  0  0  0  0  0  0  0  0  0
  194.3400  174.1580  135.9550 C   0  0  0  0  0  2  0  0  0  0  0  0
  190.3990  176.6360  135.4510 C   0  0  2  0  0  3  0  0  0  0  0  0
  190.1220  177.0400  136.8500 C   0  0  0  0  0  0  0  0  0  0  0  0
  189.2750  174.0280  135.7310 O   0  0  0  0  0  0  0  0  0  0  0  0
  188.6080  174.8800  135.0830 C   0  0  0  0  0  0  0  0  0  0  0  0
  189.1640  176.1740  134.8280 N   0  0  0  0  0  2  0  0  0  0  0  0
  187.2390  174.5900  134.6150 C   0  0  0  0  0  3  0  0  0  0  0  0
  184.7880  172.4010  137.1950 C   0  0  0  0  0  3  0  0  0  0  0  0
  186.1440  174.4330  135.3660 C   0  0  0  0  0  0  0  0  0  0  0  0
  184.8620  174.1730  134.6350 C   0  0  0  0  0  2  0  0  0  0  0  0
  183.8220  172.6010  136.2850 C   0  0  0  0  0  0  0  0  0  0  0  0
  185.8210  173.2900  137.5450 O   0  0  0  0  0  0  0  0  0  0  0  0
  186.1990  174.4980  136.8790 C   0  0  2  0  0  3  0  0  0  0  0  0
  183.7020  173.9280  135.5800 C   0  0  2  0  0  3  0  0  0  0  0  0
  182.4910  174.0830  134.9080 O   0  0  0  0  0  1  0  0  0  0  0  0
  183.9060  176.8040  138.5150 C   0  0  0  0  0  2  0  0  0  0  0  0
  184.2650  175.8170  137.5790 O   0  0  0  0  0  0  0  0  0  0  0  0
  185.6700  175.7630  137.5650 C   0  0  2  0  0  3  0  0  0  0  0  0
  186.2470  177.0380  136.9370 C   0  0  0  0  0  2  0  0  0  0  0  0
  184.2800  178.1880  137.9830 C   0  0  0  0  0  2  0  0  0  0  0  0
  185.7900  178.2400  137.7600 C   0  0  0  0  0  2  0  0  0  0  0  0
  181.9640  171.2040  136.8150 O   0  0  0  0  0  1  0  0  0  0  0  0
  182.8900  171.4750  136.0080 C   0  0  0  0  0  0  0  0  0  0  0  0
  183.0290  170.6920  134.8700 O   0  0  0  0  0  0  0  0  0  0  0  0
  1  3  1  0  0  0  0
  1  5  1  1  0  0  0
  2  3  1  0  0  0  0
  3  4  2  0  0  0  0
  5  6  2  0  0  0  0
  6  7  2  0  0  0  0
  7  8  1  0  0  0  0
  8  9  1  1  0  0  0
 10  8  1  0  0  0  0
 10 11  1  0  0  0  0
 11 12  1  0  0  0  0
 12 13  1  0  0  0  0
 15 30  1  6  0  0  0
 15 16  1  0  0  0  0
 15 27  1  0  0  0  0
 15 18  1  0  0  0  0
 16 27  1  0  0  0  0
 18 14  1  0  0  0  0
 20 26  1  0  0  0  0
 21 25  1  6  0  0  0
 21 14  1  0  0  0  0
 21 20  1  0  0  0  0
 22 24  2  0  0  0  0
 23 26  1  0  0  0  0
 24 29  1  0  0  0  0
 24 28  1  0  0  0  0
 25 28  1  0  0  0  0
 26 19  1  1  0  0  0
 27 17  1  6  0  0  0
 27 21  1  0  0  0  0
 28 23  1  0  0  0  0
 29 13  1  0  0  0  0
 30 31  1  1  0  0  0
 30 33  1  0  0  0  0
 33 32  1  0  0  0  0
 34 33  2  0  0  0  0
 35  1  1  0  0  0  0
 36 38  1  1  0  0  0
 36 43  1  0  0  0  0
 39 38  1  0  0  0  0
 41 40  1  0  0  0  0
 41 44  1  0  0  0  0
 42 40  1  1  0  0  0
 42 36  1  0  0  0  0
 43 35  1  0  0  0  0
 44 39  1  0  0  0  0
 45 49  1  1  0  0  0
 45 42  1  0  0  0  0
 45 46  1  0  0  0  0
 46 37  1  0  0  0  0
 46 43  2  0  0  0  0
 48 47  2  0  0  0  0
 49 48  1  0  0  0  0
 50 48  1  0  0  0  0
 50 52  2  0  0  0  0
 51 55  1  0  0  0  0
 53 52  1  0  0  0  0
 53 57  1  0  0  0  0
 54 51  2  0  0  0  0
 56 52  1  6  0  0  0
 56 55  1  0  0  0  0
 56 61  1  0  0  0  0
 57 58  1  6  0  0  0
 57 54  1  0  0  0  0
 60 59  1  0  0  0  0
 61 62  1  6  0  0  0
 61 60  1  0  0  0  0
 62 64  1  0  0  0  0
 63 59  1  0  0  0  0
 64 63  1  0  0  0  0
 66 54  1  0  0  0  0
 66 65  1  0  0  0  0
 67 66  2  0  0  0  0
M  END
>  <MODEL>
4

>  <REMARK>
 VINA RESULT:      -2.8      2.410      8.803
  Name = 
  16 active torsions:
  status: ('A' for Active; 'I' for Inactive)
    1  A    between atoms: C_2  and  C_13
    2  A    between atoms: C_4  and  C_15
    3  A    between atoms: C_4  and  C_51
    4  A    between atoms: C_5  and  C_9
    5  A    between atoms: C_9  and  C_42
    6  A    between atoms: N_12  and  C_23
    7  A    between atoms: N_12  and  C_46
    8  A    between atoms: C_15  and  N_67
    9  A    between atoms: C_18  and  C_23
   10  A    between atoms: C_19  and  C_23
   11  A    between atoms: N_22  and  C_61
   12  A    between atoms: C_31  and  C_36
   13  A    between atoms: C_41  and  C_49
   14  A    between atoms: C_41  and  C_54
   15  A    between atoms: C_49  and  C_51
   16  A    between atoms: C_52  and  C_63
                            x       y       z     vdW  Elec       q    Type
                         _______ _______ _______ _____ _____    ______ ____

>  <TORSDO>
F 16

$$$$
