=
 OpenBabel11032420173D

 28 30  0  0  1  0  0  0  0  0999 V2000
  186.7450  177.6320  144.2040 C   0  0  1  0  0  3  0  0  0  0  0  0
  184.6580  178.4710  143.0310 C   0  0  0  0  0  0  0  0  0  0  0  0
  182.6900  179.2430  141.8880 N   0  0  0  0  0  0  0  0  0  0  0  0
  186.0870  178.8340  140.6870 N   0  0  0  0  0  0  0  0  0  0  0  0
  184.0190  178.9550  141.8700 C   0  0  0  0  0  0  0  0  0  0  0  0
  186.7280  178.3660  141.7910 C   0  0  0  0  0  3  0  0  0  0  0  0
  182.5310  178.6010  144.1840 C   0  0  0  0  0  3  0  0  0  0  0  0
  184.7600  179.1300  140.7020 C   0  0  0  0  0  3  0  0  0  0  0  0
  180.5550  179.3920  142.9920 N   0  0  0  0  0  1  0  0  0  0  0  0
  181.9410  179.0770  143.0110 C   0  0  0  0  0  0  0  0  0  0  0  0
  186.0330  178.1770  142.9950 C   0  0  0  0  0  0  0  0  0  0  0  0
  183.8930  178.2960  144.1910 C   0  0  0  0  0  3  0  0  0  0  0  0
  188.4010  175.9720  143.2590 C   0  0  0  0  0  3  0  0  0  0  0  0
  189.7170  175.5840  142.9900 C   0  0  0  0  0  3  0  0  0  0  0  0
  190.5260  177.6500  143.9630 C   0  0  0  0  0  0  0  0  0  0  0  0
  188.1430  177.2020  143.8840 C   0  0  0  0  0  0  0  0  0  0  0  0
  190.7790  176.4220  143.3430 C   0  0  0  0  0  3  0  0  0  0  0  0
  189.2100  178.0340  144.2400 C   0  0  0  0  0  3  0  0  0  0  0  0
  191.3050  179.9200  144.1250 N   0  0  0  0  0  1  0  0  0  0  0  0
  191.6580  178.5300  144.3590 C   0  0  0  0  0  2  0  0  0  0  0  0
  186.7280  178.5870  145.3060 N   0  0  0  0  0  2  0  0  0  0  0  0
  186.3940  177.8530  146.5190 C   0  0  0  0  0  2  0  0  0  0  0  0
  187.1950  178.3840  147.7010 C   0  0  0  0  0  2  0  0  0  0  0  0
  188.0960  177.3600  148.2040 N   0  0  0  0  0  2  0  0  0  0  0  0
  189.4510  177.7960  147.9100 C   0  0  0  0  0  2  0  0  0  0  0  0
  190.2750  176.6230  147.4140 C   0  0  0  0  0  2  0  0  0  0  0  0
  192.2820  175.7730  147.0750 C   0  0  0  0  0  1  0  0  0  0  0  0
  191.6280  176.8490  147.6710 O   0  0  0  0  0  0  0  0  0  0  0  0
  1 21  1  1  0  0  0
  2 12  2  0  0  0  0
  3 10  1  0  0  0  0
  4  8  2  0  0  0  0
  4  6  1  0  0  0  0
  5  3  2  0  0  0  0
  5  2  1  0  0  0  0
  6 11  2  0  0  0  0
  7 12  1  0  0  0  0
  8  5  1  0  0  0  0
  9 10  1  0  0  0  0
 10  7  2  0  0  0  0
 11  2  1  0  0  0  0
 11  1  1  0  0  0  0
 13 16  1  0  0  0  0
 14 13  2  0  0  0  0
 14 17  1  0  0  0  0
 15 18  1  0  0  0  0
 15 20  1  0  0  0  0
 16  1  1  0  0  0  0
 16 18  2  0  0  0  0
 17 15  2  0  0  0  0
 19 20  1  0  0  0  0
 21 22  1  0  0  0  0
 22 23  1  0  0  0  0
 23 24  1  0  0  0  0
 25 24  1  0  0  0  0
 26 28  1  0  0  0  0
 26 25  1  0  0  0  0
 27 28  1  0  0  0  0
M  END
>  <MODEL>
1

>  <REMARK>
 VINA RESULT:      -7.4      0.000      0.000
  Name = 
  10 active torsions:
  status: ('A' for Active; 'I' for Inactive)
    1  A    between atoms: C_5  and  N_8
    2  A    between atoms: C_5  and  C_19
    3  A    between atoms: C_6  and  N_8
    4  A    between atoms: C_6  and  C_25
    5  A    between atoms: C_11  and  C_16
    6  A    between atoms: C_11  and  C_23
    7  A    between atoms: C_11  and  N_24
    8  A    between atoms: C_14  and  C_27
    9  A    between atoms: C_19  and  N_24
   10  A    between atoms: O_20  and  C_25
                            x       y       z     vdW  Elec       q    Type
                         _______ _______ _______ _____ _____    ______ ____

>  <TORSDO>
F 10

$$$$
=
 OpenBabel11032420173D

 28 30  0  0  1  0  0  0  0  0999 V2000
  187.4040  177.4410  144.2100 C   0  0  1  0  0  3  0  0  0  0  0  0
  189.0730  177.2720  146.1130 C   0  0  0  0  0  0  0  0  0  0  0  0
  190.6260  177.0970  147.9390 N   0  0  0  0  0  0  0  0  0  0  0  0
  187.2540  178.4280  147.8500 N   0  0  0  0  0  0  0  0  0  0  0  0
  189.4070  177.4740  147.4680 C   0  0  0  0  0  0  0  0  0  0  0  0
  186.9060  178.2430  146.5480 C   0  0  0  0  0  3  0  0  0  0  0  0
  191.2680  176.3000  145.7790 C   0  0  0  0  0  3  0  0  0  0  0  0
  188.4730  178.0590  148.3240 C   0  0  0  0  0  3  0  0  0  0  0  0
  192.8180  176.1430  147.6550 N   0  0  0  0  0  1  0  0  0  0  0  0
  191.5530  176.5210  147.1290 C   0  0  0  0  0  0  0  0  0  0  0  0
  187.8070  177.6660  145.6420 C   0  0  0  0  0  0  0  0  0  0  0  0
  190.0230  176.6770  145.2720 C   0  0  0  0  0  3  0  0  0  0  0  0
  185.1450  178.2950  144.9580 C   0  0  0  0  0  3  0  0  0  0  0  0
  183.8670  178.7790  144.6620 C   0  0  0  0  0  3  0  0  0  0  0  0
  184.3640  178.6440  142.2950 C   0  0  0  0  0  0  0  0  0  0  0  0
  186.0380  177.9820  143.9220 C   0  0  0  0  0  0  0  0  0  0  0  0
  183.4760  178.9520  143.3310 C   0  0  0  0  0  3  0  0  0  0  0  0
  185.6390  178.1520  142.5910 C   0  0  0  0  0  3  0  0  0  0  0  0
  184.9640  179.5220  140.1370 N   0  0  0  0  0  1  0  0  0  0  0  0
  183.9390  178.8070  140.8790 C   0  0  0  0  0  2  0  0  0  0  0  0
  188.3910  177.9880  143.2860 N   0  0  0  0  0  2  0  0  0  0  0  0
  188.6830  176.9620  142.2960 C   0  0  0  0  0  2  0  0  0  0  0  0
  189.7700  177.4370  141.3400 C   0  0  0  0  0  2  0  0  0  0  0  0
  189.3770  177.1890  139.9620 N   0  0  0  0  0  2  0  0  0  0  0  0
  188.7020  178.3850  139.4850 C   0  0  0  0  0  2  0  0  0  0  0  0
  189.0720  178.6430  138.0360 C   0  0  0  0  0  2  0  0  0  0  0  0
  187.0500  178.2120  137.2650 C   0  0  0  0  0  1  0  0  0  0  0  0
  187.9970  179.2300  137.3690 O   0  0  0  0  0  0  0  0  0  0  0  0
  1 21  1  6  0  0  0
  1 11  1  0  0  0  0
  2  5  1  0  0  0  0
  4  8  1  0  0  0  0
  5  3  1  0  0  0  0
  5  8  2  0  0  0  0
  6  4  2  0  0  0  0
  7 10  1  0  0  0  0
 10  9  1  0  0  0  0
 10  3  2  0  0  0  0
 11  2  2  0  0  0  0
 11  6  1  0  0  0  0
 12  7  2  0  0  0  0
 12  2  1  0  0  0  0
 14 13  1  0  0  0  0
 15 18  2  0  0  0  0
 15 17  1  0  0  0  0
 16  1  1  0  0  0  0
 16 13  2  0  0  0  0
 17 14  2  0  0  0  0
 18 16  1  0  0  0  0
 19 20  1  0  0  0  0
 20 15  1  0  0  0  0
 22 21  1  0  0  0  0
 23 22  1  0  0  0  0
 24 23  1  0  0  0  0
 25 24  1  0  0  0  0
 26 25  1  0  0  0  0
 27 28  1  0  0  0  0
 28 26  1  0  0  0  0
M  END
>  <MODEL>
2

>  <REMARK>
 VINA RESULT:      -7.0      3.033      7.712
  Name = 
  10 active torsions:
  status: ('A' for Active; 'I' for Inactive)
    1  A    between atoms: C_5  and  N_8
    2  A    between atoms: C_5  and  C_19
    3  A    between atoms: C_6  and  N_8
    4  A    between atoms: C_6  and  C_25
    5  A    between atoms: C_11  and  C_16
    6  A    between atoms: C_11  and  C_23
    7  A    between atoms: C_11  and  N_24
    8  A    between atoms: C_14  and  C_27
    9  A    between atoms: C_19  and  N_24
   10  A    between atoms: O_20  and  C_25
                            x       y       z     vdW  Elec       q    Type
                         _______ _______ _______ _____ _____    ______ ____

>  <TORSDO>
F 10

$$$$
=
 OpenBabel11032420173D

 28 30  0  0  1  0  0  0  0  0999 V2000
  188.1000  177.2890  143.6230 C   0  0  1  0  0  3  0  0  0  0  0  0
  189.3840  177.1690  145.8080 C   0  0  0  0  0  0  0  0  0  0  0  0
  190.5680  177.0390  147.8950 N   0  0  0  0  0  0  0  0  0  0  0  0
  187.2240  178.2390  147.1690 N   0  0  0  0  0  0  0  0  0  0  0  0
  189.4460  177.3720  147.2020 C   0  0  0  0  0  0  0  0  0  0  0  0
  187.1370  178.0520  145.8250 C   0  0  0  0  0  3  0  0  0  0  0  0
  191.6390  176.2850  145.8960 C   0  0  0  0  0  3  0  0  0  0  0  0
  188.3450  177.9140  147.8650 C   0  0  0  0  0  3  0  0  0  0  0  0
  192.8100  176.1720  148.0320 N   0  0  0  0  0  1  0  0  0  0  0  0
  191.6540  176.5050  147.2750 C   0  0  0  0  0  0  0  0  0  0  0  0
  188.2160  177.5180  145.1060 C   0  0  0  0  0  0  0  0  0  0  0  0
  190.4990  176.6170  145.1620 C   0  0  0  0  0  3  0  0  0  0  0  0
  186.8500  178.4490  141.7570 C   0  0  0  0  0  3  0  0  0  0  0  0
  185.6890  179.0460  141.2570 C   0  0  0  0  0  3  0  0  0  0  0  0
  184.5480  178.5770  143.3410 C   0  0  0  0  0  0  0  0  0  0  0  0
  186.8640  177.9140  143.0550 C   0  0  0  0  0  0  0  0  0  0  0  0
  184.5390  179.1110  142.0490 C   0  0  0  0  0  3  0  0  0  0  0  0
  185.7120  177.9860  143.8450 C   0  0  0  0  0  3  0  0  0  0  0  0
  183.7010  179.0570  145.5420 N   0  0  0  0  0  1  0  0  0  0  0  0
  183.3310  178.6660  144.1920 C   0  0  0  0  0  2  0  0  0  0  0  0
  189.2920  177.7470  142.9190 N   0  0  0  0  0  2  0  0  0  0  0  0
  189.7040  176.6850  142.0120 C   0  0  0  0  0  2  0  0  0  0  0  0
  190.4600  177.2630  140.8230 C   0  0  0  0  0  2  0  0  0  0  0  0
  190.4570  176.3220  139.7140 N   0  0  0  0  0  2  0  0  0  0  0  0
  189.4900  176.8060  138.7410 C   0  0  0  0  0  2  0  0  0  0  0  0
  189.3930  178.3180  138.8190 C   0  0  0  0  0  2  0  0  0  0  0  0
  188.2210  178.7480  137.0000 C   0  0  0  0  0  1  0  0  0  0  0  0
  188.1320  178.7350  138.3910 O   0  0  0  0  0  0  0  0  0  0  0  0
  1 21  1  6  0  0  0
  1 11  1  0  0  0  0
  2  5  1  0  0  0  0
  4  8  2  0  0  0  0
  5  8  1  0  0  0  0
  5  3  2  0  0  0  0
  6  4  1  0  0  0  0
  7 10  2  0  0  0  0
 10  3  1  0  0  0  0
 10  9  1  0  0  0  0
 11  2  1  0  0  0  0
 11  6  2  0  0  0  0
 12  2  2  0  0  0  0
 12  7  1  0  0  0  0
 13 16  1  0  0  0  0
 14 13  2  0  0  0  0
 14 17  1  0  0  0  0
 15 18  1  0  0  0  0
 15 20  1  0  0  0  0
 16  1  1  0  0  0  0
 16 18  2  0  0  0  0
 17 15  2  0  0  0  0
 20 19  1  0  0  0  0
 22 21  1  0  0  0  0
 23 22  1  0  0  0  0
 24 23  1  0  0  0  0
 25 26  1  0  0  0  0
 25 24  1  0  0  0  0
 27 28  1  0  0  0  0
 28 26  1  0  0  0  0
M  END
>  <MODEL>
3

>  <REMARK>
 VINA RESULT:      -7.0      3.092      7.615
  Name = 
  10 active torsions:
  status: ('A' for Active; 'I' for Inactive)
    1  A    between atoms: C_5  and  N_8
    2  A    between atoms: C_5  and  C_19
    3  A    between atoms: C_6  and  N_8
    4  A    between atoms: C_6  and  C_25
    5  A    between atoms: C_11  and  C_16
    6  A    between atoms: C_11  and  C_23
    7  A    between atoms: C_11  and  N_24
    8  A    between atoms: C_14  and  C_27
    9  A    between atoms: C_19  and  N_24
   10  A    between atoms: O_20  and  C_25
                            x       y       z     vdW  Elec       q    Type
                         _______ _______ _______ _____ _____    ______ ____

>  <TORSDO>
F 10

$$$$
=
 OpenBabel11032420173D

 28 30  0  0  1  0  0  0  0  0999 V2000
  187.3340  177.7640  144.4900 C   0  0  1  0  0  3  0  0  0  0  0  0
  185.1690  178.4150  143.3380 C   0  0  0  0  0  0  0  0  0  0  0  0
  183.1150  179.0620  142.2720 N   0  0  0  0  0  0  0  0  0  0  0  0
  183.9390  178.7750  145.7920 N   0  0  0  0  0  0  0  0  0  0  0  0
  183.8230  178.8290  143.4100 C   0  0  0  0  0  0  0  0  0  0  0  0
  185.2380  178.3750  145.7520 C   0  0  0  0  0  3  0  0  0  0  0  0
  185.0040  178.4980  140.9220 C   0  0  0  0  0  3  0  0  0  0  0  0
  183.2250  179.0030  144.6580 C   0  0  0  0  0  3  0  0  0  0  0  0
  182.9020  179.1560  139.8760 N   0  0  0  0  0  1  0  0  0  0  0  0
  183.6740  178.9060  141.0430 C   0  0  0  0  0  0  0  0  0  0  0  0
  185.8880  178.1790  144.5250 C   0  0  0  0  0  0  0  0  0  0  0  0
  185.7530  178.2530  142.0750 C   0  0  0  0  0  3  0  0  0  0  0  0
  187.2440  178.2310  146.9730 C   0  0  0  0  0  3  0  0  0  0  0  0
  187.8450  178.2270  148.2350 C   0  0  0  0  0  3  0  0  0  0  0  0
  189.8500  177.2620  147.2780 C   0  0  0  0  0  0  0  0  0  0  0  0
  187.9460  177.7510  145.8570 C   0  0  0  0  0  0  0  0  0  0  0  0
  189.1480  177.7440  148.3880 C   0  0  0  0  0  3  0  0  0  0  0  0
  189.2510  177.2730  146.0140 C   0  0  0  0  0  3  0  0  0  0  0  0
  191.8890  176.6880  146.1380 N   0  0  0  0  0  1  0  0  0  0  0  0
  191.2450  176.7690  147.4370 C   0  0  0  0  0  2  0  0  0  0  0  0
  187.5030  176.4760  143.8270 N   0  0  0  0  0  2  0  0  0  0  0  0
  188.8660  176.4180  143.3180 C   0  0  0  0  0  2  0  0  0  0  0  0
  188.9700  177.1520  141.9870 C   0  0  0  0  0  2  0  0  0  0  0  0
  190.1360  176.6980  141.2480 N   0  0  0  0  0  2  0  0  0  0  0  0
  190.1670  177.4360  139.9960 C   0  0  0  0  0  2  0  0  0  0  0  0
  188.7840  177.9740  139.6800 C   0  0  0  0  0  2  0  0  0  0  0  0
  189.1290  178.5340  137.5740 C   0  0  0  0  0  1  0  0  0  0  0  0
  188.8860  179.0790  138.8330 O   0  0  0  0  0  0  0  0  0  0  0  0
  1 21  1  1  0  0  0
  1 11  1  0  0  0  0
  1 16  1  0  0  0  0
  2  5  2  0  0  0  0
  2 11  1  0  0  0  0
  3  5  1  0  0  0  0
  5  8  1  0  0  0  0
  6  4  1  0  0  0  0
  7 10  1  0  0  0  0
  7 12  2  0  0  0  0
  8  4  2  0  0  0  0
  9 10  1  0  0  0  0
 10  3  2  0  0  0  0
 11  6  2  0  0  0  0
 12  2  1  0  0  0  0
 13 14  1  0  0  0  0
 14 17  2  0  0  0  0
 15 20  1  0  0  0  0
 15 17  1  0  0  0  0
 16 18  1  0  0  0  0
 16 13  2  0  0  0  0
 18 15  2  0  0  0  0
 19 20  1  0  0  0  0
 22 21  1  0  0  0  0
 23 22  1  0  0  0  0
 24 23  1  0  0  0  0
 25 24  1  0  0  0  0
 26 25  1  0  0  0  0
 27 28  1  0  0  0  0
 28 26  1  0  0  0  0
M  END
>  <MODEL>
4

>  <REMARK>
 VINA RESULT:      -7.0      2.749      4.986
  Name = 
  10 active torsions:
  status: ('A' for Active; 'I' for Inactive)
    1  A    between atoms: C_5  and  N_8
    2  A    between atoms: C_5  and  C_19
    3  A    between atoms: C_6  and  N_8
    4  A    between atoms: C_6  and  C_25
    5  A    between atoms: C_11  and  C_16
    6  A    between atoms: C_11  and  C_23
    7  A    between atoms: C_11  and  N_24
    8  A    between atoms: C_14  and  C_27
    9  A    between atoms: C_19  and  N_24
   10  A    between atoms: O_20  and  C_25
                            x       y       z     vdW  Elec       q    Type
                         _______ _______ _______ _____ _____    ______ ____

>  <TORSDO>
F 10

$$$$
=
 OpenBabel11032420173D

 28 30  0  0  1  0  0  0  0  0999 V2000
  185.1960  178.2570  142.5840 C   0  0  1  0  0  3  0  0  0  0  0  0
  186.3860  177.9560  144.8040 C   0  0  0  0  0  0  0  0  0  0  0  0
  187.4800  177.6540  146.9220 N   0  0  0  0  0  0  0  0  0  0  0  0
  184.1670  178.9130  146.1560 N   0  0  0  0  0  0  0  0  0  0  0  0
  186.3880  178.0440  146.2120 C   0  0  0  0  0  0  0  0  0  0  0  0
  184.1380  178.8380  144.7980 C   0  0  0  0  0  3  0  0  0  0  0  0
  188.6370  177.0660  144.9150 C   0  0  0  0  0  3  0  0  0  0  0  0
  185.2590  178.5300  146.8700 C   0  0  0  0  0  3  0  0  0  0  0  0
  189.7170  176.7770  147.0830 N   0  0  0  0  0  1  0  0  0  0  0  0
  188.5930  177.1720  146.3080 C   0  0  0  0  0  0  0  0  0  0  0  0
  185.2480  178.3630  144.0840 C   0  0  0  0  0  0  0  0  0  0  0  0
  187.5280  177.4590  144.1640 C   0  0  0  0  0  3  0  0  0  0  0  0
  183.4560  177.6340  140.8580 C   0  0  0  0  0  3  0  0  0  0  0  0
  182.1390  177.6660  140.3910 C   0  0  0  0  0  3  0  0  0  0  0  0
  181.4770  178.9420  142.3410 C   0  0  0  0  0  0  0  0  0  0  0  0
  183.7890  178.2580  142.0710 C   0  0  0  0  0  0  0  0  0  0  0  0
  181.1510  178.3210  141.1310 C   0  0  0  0  0  3  0  0  0  0  0  0
  182.7970  178.9160  142.8050 C   0  0  0  0  0  3  0  0  0  0  0  0
  179.8150  180.6800  142.2880 N   0  0  0  0  0  1  0  0  0  0  0  0
  180.4290  179.6570  143.1170 C   0  0  0  0  0  2  0  0  0  0  0  0
  185.9870  179.3050  141.9490 N   0  0  0  0  0  2  0  0  0  0  0  0
  186.6060  178.7300  140.7630 C   0  0  0  0  0  2  0  0  0  0  0  0
  188.1120  178.6020  140.9560 C   0  0  0  0  0  2  0  0  0  0  0  0
  188.7900  178.6030  139.6690 N   0  0  0  0  0  2  0  0  0  0  0  0
  189.4800  177.3290  139.5450 C   0  0  0  0  0  2  0  0  0  0  0  0
  190.0550  176.9210  140.8880 C   0  0  0  0  0  2  0  0  0  0  0  0
  191.6090  177.3600  142.3910 C   0  0  0  0  0  1  0  0  0  0  0  0
  191.3510  177.4220  141.0230 O   0  0  0  0  0  0  0  0  0  0  0  0
  1 21  1  6  0  0  0
  1 11  1  0  0  0  0
  2  5  1  0  0  0  0
  4  8  2  0  0  0  0
  5  8  1  0  0  0  0
  5  3  2  0  0  0  0
  6  4  1  0  0  0  0
  7 10  2  0  0  0  0
 10  3  1  0  0  0  0
 10  9  1  0  0  0  0
 11  6  2  0  0  0  0
 11  2  1  0  0  0  0
 12  2  2  0  0  0  0
 12  7  1  0  0  0  0
 13 16  1  0  0  0  0
 14 13  2  0  0  0  0
 14 17  1  0  0  0  0
 15 18  1  0  0  0  0
 15 20  1  0  0  0  0
 16  1  1  0  0  0  0
 16 18  2  0  0  0  0
 17 15  2  0  0  0  0
 19 20  1  0  0  0  0
 22 23  1  0  0  0  0
 22 21  1  0  0  0  0
 24 23  1  0  0  0  0
 25 24  1  0  0  0  0
 25 26  1  0  0  0  0
 26 28  1  0  0  0  0
 28 27  1  0  0  0  0
M  END
>  <MODEL>
5

>  <REMARK>
 VINA RESULT:      -7.0      2.306      6.993
  Name = 
  10 active torsions:
  status: ('A' for Active; 'I' for Inactive)
    1  A    between atoms: C_5  and  N_8
    2  A    between atoms: C_5  and  C_19
    3  A    between atoms: C_6  and  N_8
    4  A    between atoms: C_6  and  C_25
    5  A    between atoms: C_11  and  C_16
    6  A    between atoms: C_11  and  C_23
    7  A    between atoms: C_11  and  N_24
    8  A    between atoms: C_14  and  C_27
    9  A    between atoms: C_19  and  N_24
   10  A    between atoms: O_20  and  C_25
                            x       y       z     vdW  Elec       q    Type
                         _______ _______ _______ _____ _____    ______ ____

>  <TORSDO>
F 10

$$$$
=
 OpenBabel11032420173D

 28 30  0  0  1  0  0  0  0  0999 V2000
  187.2260  177.8810  144.4550 C   0  0  1  0  0  3  0  0  0  0  0  0
  185.0080  178.4410  143.3590 C   0  0  0  0  0  0  0  0  0  0  0  0
  182.9020  179.0020  142.3470 N   0  0  0  0  0  0  0  0  0  0  0  0
  183.8370  178.7940  145.8440 N   0  0  0  0  0  0  0  0  0  0  0  0
  183.6510  178.8100  143.4660 C   0  0  0  0  0  0  0  0  0  0  0  0
  185.1480  178.4390  145.7700 C   0  0  0  0  0  3  0  0  0  0  0  0
  184.7690  178.4830  140.9490 C   0  0  0  0  0  3  0  0  0  0  0  0
  183.0830  178.9810  144.7280 C   0  0  0  0  0  3  0  0  0  0  0  0
  182.6150  179.0540  139.9560 N   0  0  0  0  0  1  0  0  0  0  0  0
  183.4290  178.8470  141.1030 C   0  0  0  0  0  0  0  0  0  0  0  0
  185.7680  178.2470  144.5270 C   0  0  0  0  0  0  0  0  0  0  0  0
  185.5590  178.2810  142.0820 C   0  0  0  0  0  3  0  0  0  0  0  0
  187.3300  178.5960  146.8780 C   0  0  0  0  0  3  0  0  0  0  0  0
  187.9570  178.5780  148.1270 C   0  0  0  0  0  3  0  0  0  0  0  0
  189.6600  177.0950  147.2500 C   0  0  0  0  0  0  0  0  0  0  0  0
  187.8660  177.8630  145.8080 C   0  0  0  0  0  0  0  0  0  0  0  0
  189.1230  177.8290  148.3120 C   0  0  0  0  0  3  0  0  0  0  0  0
  189.0360  177.1190  145.9980 C   0  0  0  0  0  3  0  0  0  0  0  0
  191.9130  177.1450  148.0940 N   0  0  0  0  0  1  0  0  0  0  0  0
  190.9130  176.3160  147.4420 C   0  0  0  0  0  2  0  0  0  0  0  0
  187.4230  176.6130  143.7630 N   0  0  0  0  0  2  0  0  0  0  0  0
  188.2950  176.8630  142.6240 C   0  0  0  0  0  2  0  0  0  0  0  0
  189.5510  176.0060  142.7140 C   0  0  0  0  0  2  0  0  0  0  0  0
  190.5330  176.4420  141.7340 N   0  0  0  0  0  2  0  0  0  0  0  0
  191.2090  177.6040  142.2880 C   0  0  0  0  0  2  0  0  0  0  0  0
  191.6820  177.3030  143.6970 C   0  0  0  0  0  2  0  0  0  0  0  0
  190.9850  179.3780  143.9680 C   0  0  0  0  0  1  0  0  0  0  0  0
  191.9870  178.4920  144.3600 O   0  0  0  0  0  0  0  0  0  0  0  0
  1 21  1  1  0  0  0
  1 11  1  0  0  0  0
  1 16  1  0  0  0  0
  2  5  2  0  0  0  0
  2 11  1  0  0  0  0
  3  5  1  0  0  0  0
  5  8  1  0  0  0  0
  6  4  1  0  0  0  0
  7 10  1  0  0  0  0
  7 12  2  0  0  0  0
  8  4  2  0  0  0  0
  9 10  1  0  0  0  0
 10  3  2  0  0  0  0
 11  6  2  0  0  0  0
 12  2  1  0  0  0  0
 13 14  1  0  0  0  0
 14 17  2  0  0  0  0
 15 20  1  0  0  0  0
 15 17  1  0  0  0  0
 16 18  1  0  0  0  0
 16 13  2  0  0  0  0
 18 15  2  0  0  0  0
 20 19  1  0  0  0  0
 22 23  1  0  0  0  0
 22 21  1  0  0  0  0
 24 25  1  0  0  0  0
 24 23  1  0  0  0  0
 25 26  1  0  0  0  0
 26 28  1  0  0  0  0
 27 28  1  0  0  0  0
M  END
>  <MODEL>
6

>  <REMARK>
 VINA RESULT:      -6.9      1.880      4.077
  Name = 
  10 active torsions:
  status: ('A' for Active; 'I' for Inactive)
    1  A    between atoms: C_5  and  N_8
    2  A    between atoms: C_5  and  C_19
    3  A    between atoms: C_6  and  N_8
    4  A    between atoms: C_6  and  C_25
    5  A    between atoms: C_11  and  C_16
    6  A    between atoms: C_11  and  C_23
    7  A    between atoms: C_11  and  N_24
    8  A    between atoms: C_14  and  C_27
    9  A    between atoms: C_19  and  N_24
   10  A    between atoms: O_20  and  C_25
                            x       y       z     vdW  Elec       q    Type
                         _______ _______ _______ _____ _____    ______ ____

>  <TORSDO>
F 10

$$$$
=
 OpenBabel11032420173D

 28 30  0  0  1  0  0  0  0  0999 V2000
  185.0020  178.2520  142.3130 C   0  0  1  0  0  3  0  0  0  0  0  0
  186.2240  177.9760  144.5190 C   0  0  0  0  0  0  0  0  0  0  0  0
  187.3480  177.6980  146.6240 N   0  0  0  0  0  0  0  0  0  0  0  0
  184.0460  179.0030  145.8860 N   0  0  0  0  0  0  0  0  0  0  0  0
  186.2520  178.0940  145.9240 C   0  0  0  0  0  0  0  0  0  0  0  0
  183.9930  178.9000  144.5310 C   0  0  0  0  0  3  0  0  0  0  0  0
  188.4590  177.0460  144.6120 C   0  0  0  0  0  3  0  0  0  0  0  0
  185.1430  178.6150  146.5900 C   0  0  0  0  0  3  0  0  0  0  0  0
  189.5700  176.7820  146.7670 N   0  0  0  0  0  1  0  0  0  0  0  0
  188.4410  177.1820  146.0020 C   0  0  0  0  0  0  0  0  0  0  0  0
  185.0810  178.3890  143.8090 C   0  0  0  0  0  0  0  0  0  0  0  0
  187.3460  177.4430  143.8700 C   0  0  0  0  0  3  0  0  0  0  0  0
  183.2160  177.5130  140.6830 C   0  0  0  0  0  3  0  0  0  0  0  0
  181.8910  177.5330  140.2370 C   0  0  0  0  0  3  0  0  0  0  0  0
  181.2960  179.0030  142.0690 C   0  0  0  0  0  0  0  0  0  0  0  0
  183.5860  178.2400  141.8260 C   0  0  0  0  0  0  0  0  0  0  0  0
  180.9320  178.2790  140.9290 C   0  0  0  0  0  3  0  0  0  0  0  0
  182.6230  178.9880  142.5110 C   0  0  0  0  0  3  0  0  0  0  0  0
  179.7100  180.8030  141.8920 N   0  0  0  0  0  1  0  0  0  0  0  0
  180.2800  179.8140  142.7910 C   0  0  0  0  0  2  0  0  0  0  0  0
  185.7790  179.2880  141.6410 N   0  0  0  0  0  2  0  0  0  0  0  0
  186.3740  178.6920  140.4540 C   0  0  0  0  0  2  0  0  0  0  0  0
  187.8460  178.3780  140.6950 C   0  0  0  0  0  2  0  0  0  0  0  0
  188.6700  178.9920  139.6680 N   0  0  0  0  0  2  0  0  0  0  0  0
  188.7110  178.0740  138.5410 C   0  0  0  0  0  2  0  0  0  0  0  0
  188.8460  178.8520  137.2460 C   0  0  0  0  0  2  0  0  0  0  0  0
  186.8020  178.2460  136.6790 C   0  0  0  0  0  1  0  0  0  0  0  0
  187.6060  179.3690  136.8700 O   0  0  0  0  0  0  0  0  0  0  0  0
  1 21  1  6  0  0  0
  1 11  1  0  0  0  0
  2  5  1  0  0  0  0
  4  8  2  0  0  0  0
  5  8  1  0  0  0  0
  5  3  2  0  0  0  0
  6  4  1  0  0  0  0
  7 10  2  0  0  0  0
 10  3  1  0  0  0  0
 10  9  1  0  0  0  0
 11  2  1  0  0  0  0
 11  6  2  0  0  0  0
 12  2  2  0  0  0  0
 12  7  1  0  0  0  0
 13 16  1  0  0  0  0
 14 13  2  0  0  0  0
 14 17  1  0  0  0  0
 15 18  1  0  0  0  0
 15 20  1  0  0  0  0
 16  1  1  0  0  0  0
 16 18  2  0  0  0  0
 17 15  2  0  0  0  0
 19 20  1  0  0  0  0
 22 23  1  0  0  0  0
 22 21  1  0  0  0  0
 24 23  1  0  0  0  0
 25 24  1  0  0  0  0
 26 25  1  0  0  0  0
 27 28  1  0  0  0  0
 28 26  1  0  0  0  0
M  END
>  <MODEL>
7

>  <REMARK>
 VINA RESULT:      -6.7      3.099      7.755
  Name = 
  10 active torsions:
  status: ('A' for Active; 'I' for Inactive)
    1  A    between atoms: C_5  and  N_8
    2  A    between atoms: C_5  and  C_19
    3  A    between atoms: C_6  and  N_8
    4  A    between atoms: C_6  and  C_25
    5  A    between atoms: C_11  and  C_16
    6  A    between atoms: C_11  and  C_23
    7  A    between atoms: C_11  and  N_24
    8  A    between atoms: C_14  and  C_27
    9  A    between atoms: C_19  and  N_24
   10  A    between atoms: O_20  and  C_25
                            x       y       z     vdW  Elec       q    Type
                         _______ _______ _______ _____ _____    ______ ____

>  <TORSDO>
F 10

$$$$
=
 OpenBabel11032420173D

 28 30  0  0  1  0  0  0  0  0999 V2000
  188.0580  177.8230  143.5410 C   0  0  1  0  0  3  0  0  0  0  0  0
  185.6900  178.3380  144.2900 C   0  0  0  0  0  0  0  0  0  0  0  0
  183.4610  178.8510  145.0280 N   0  0  0  0  0  0  0  0  0  0  0  0
  186.4360  178.0530  146.9420 N   0  0  0  0  0  0  0  0  0  0  0  0
  184.7470  178.5240  145.3230 C   0  0  0  0  0  0  0  0  0  0  0  0
  187.3650  177.8700  145.9660 C   0  0  0  0  0  3  0  0  0  0  0  0
  183.9420  178.8350  142.6870 C   0  0  0  0  0  3  0  0  0  0  0  0
  185.1470  178.3740  146.6510 C   0  0  0  0  0  3  0  0  0  0  0  0
  181.6910  179.3480  143.4730 N   0  0  0  0  0  1  0  0  0  0  0  0
  183.0440  179.0080  143.7430 C   0  0  0  0  0  0  0  0  0  0  0  0
  187.0170  178.0010  144.6130 C   0  0  0  0  0  0  0  0  0  0  0  0
  185.2690  178.5000  142.9640 C   0  0  0  0  0  3  0  0  0  0  0  0
  190.2900  179.0050  143.6690 C   0  0  0  0  0  3  0  0  0  0  0  0
  191.5900  179.1000  144.1730 C   0  0  0  0  0  3  0  0  0  0  0  0
  191.2180  177.1130  145.5080 C   0  0  0  0  0  0  0  0  0  0  0  0
  189.4470  177.9610  144.0820 C   0  0  0  0  0  0  0  0  0  0  0  0
  192.0540  178.1530  145.0910 C   0  0  0  0  0  3  0  0  0  0  0  0
  189.9200  177.0130  144.9970 C   0  0  0  0  0  3  0  0  0  0  0  0
  192.0660  176.7300  147.7260 N   0  0  0  0  0  1  0  0  0  0  0  0
  191.7210  176.0930  146.4670 C   0  0  0  0  0  2  0  0  0  0  0  0
  187.8900  176.5550  142.8410 N   0  0  0  0  0  2  0  0  0  0  0  0
  188.8800  176.5060  141.7750 C   0  0  0  0  0  2  0  0  0  0  0  0
  188.5040  177.4680  140.6550 C   0  0  0  0  0  2  0  0  0  0  0  0
  189.6670  177.7730  139.8370 N   0  0  0  0  0  2  0  0  0  0  0  0
  189.2620  177.6440  138.4460 C   0  0  0  0  0  2  0  0  0  0  0  0
  189.0540  179.0190  137.8400 C   0  0  0  0  0  2  0  0  0  0  0  0
  187.8300  178.0510  136.2810 C   0  0  0  0  0  1  0  0  0  0  0  0
  187.8060  179.0810  137.2200 O   0  0  0  0  0  0  0  0  0  0  0  0
  1 21  1  1  0  0  0
  1 16  1  0  0  0  0
  1 11  1  0  0  0  0
  2 11  2  0  0  0  0
  2  5  1  0  0  0  0
  3  5  1  0  0  0  0
  5  8  2  0  0  0  0
  6  4  2  0  0  0  0
  7 12  2  0  0  0  0
  7 10  1  0  0  0  0
  8  4  1  0  0  0  0
  9 10  1  0  0  0  0
 10  3  2  0  0  0  0
 11  6  1  0  0  0  0
 12  2  1  0  0  0  0
 13 16  2  0  0  0  0
 13 14  1  0  0  0  0
 14 17  2  0  0  0  0
 15 20  1  0  0  0  0
 16 18  1  0  0  0  0
 17 15  1  0  0  0  0
 18 15  2  0  0  0  0
 20 19  1  0  0  0  0
 22 21  1  0  0  0  0
 23 22  1  0  0  0  0
 24 23  1  0  0  0  0
 25 24  1  0  0  0  0
 26 25  1  0  0  0  0
 27 28  1  0  0  0  0
 28 26  1  0  0  0  0
M  END
>  <MODEL>
8

>  <REMARK>
 VINA RESULT:      -6.7      3.177      5.484
  Name = 
  10 active torsions:
  status: ('A' for Active; 'I' for Inactive)
    1  A    between atoms: C_5  and  N_8
    2  A    between atoms: C_5  and  C_19
    3  A    between atoms: C_6  and  N_8
    4  A    between atoms: C_6  and  C_25
    5  A    between atoms: C_11  and  C_16
    6  A    between atoms: C_11  and  C_23
    7  A    between atoms: C_11  and  N_24
    8  A    between atoms: C_14  and  C_27
    9  A    between atoms: C_19  and  N_24
   10  A    between atoms: O_20  and  C_25
                            x       y       z     vdW  Elec       q    Type
                         _______ _______ _______ _____ _____    ______ ____

>  <TORSDO>
F 10

$$$$
=
 OpenBabel11032420173D

 28 30  0  0  1  0  0  0  0  0999 V2000
  185.1800  178.2680  142.6390 C   0  0  1  0  0  3  0  0  0  0  0  0
  186.4030  177.9860  144.8430 C   0  0  0  0  0  0  0  0  0  0  0  0
  187.5290  177.7020  146.9470 N   0  0  0  0  0  0  0  0  0  0  0  0
  184.2220  178.9980  146.2160 N   0  0  0  0  0  0  0  0  0  0  0  0
  186.4300  178.0970  146.2490 C   0  0  0  0  0  0  0  0  0  0  0  0
  184.1680  178.9010  144.8610 C   0  0  0  0  0  3  0  0  0  0  0  0
  188.6420  177.0640  144.9320 C   0  0  0  0  0  3  0  0  0  0  0  0
  185.3190  178.6100  146.9180 C   0  0  0  0  0  3  0  0  0  0  0  0
  189.7540  176.7940  147.0850 N   0  0  0  0  0  1  0  0  0  0  0  0
  188.6240  177.1930  146.3220 C   0  0  0  0  0  0  0  0  0  0  0  0
  185.2590  178.3980  144.1360 C   0  0  0  0  0  0  0  0  0  0  0  0
  187.5260  177.4610  144.1920 C   0  0  0  0  0  3  0  0  0  0  0  0
  182.7690  178.9990  142.8550 C   0  0  0  0  0  3  0  0  0  0  0  0
  181.4520  179.0070  142.3850 C   0  0  0  0  0  3  0  0  0  0  0  0
  182.1170  177.6430  140.4970 C   0  0  0  0  0  0  0  0  0  0  0  0
  183.7660  178.3110  142.1470 C   0  0  0  0  0  0  0  0  0  0  0  0
  181.1260  178.3280  141.2080 C   0  0  0  0  0  3  0  0  0  0  0  0
  183.4330  177.6290  140.9720 C   0  0  0  0  0  3  0  0  0  0  0  0
  180.3630  177.1130  138.9380 N   0  0  0  0  0  1  0  0  0  0  0  0
  181.7650  176.9010  139.2570 C   0  0  0  0  0  2  0  0  0  0  0  0
  185.9980  179.2760  141.9730 N   0  0  0  0  0  2  0  0  0  0  0  0
  186.6570  178.6320  140.8460 C   0  0  0  0  0  2  0  0  0  0  0  0
  188.1640  178.5850  141.0660 C   0  0  0  0  0  2  0  0  0  0  0  0
  188.7600  177.5260  140.2670 N   0  0  0  0  0  2  0  0  0  0  0  0
  188.3050  177.7100  138.8990 C   0  0  0  0  0  2  0  0  0  0  0  0
  189.2590  178.6280  138.1570 C   0  0  0  0  0  2  0  0  0  0  0  0
  187.4790  178.5860  136.8560 C   0  0  0  0  0  1  0  0  0  0  0  0
  188.5570  179.3890  137.2220 O   0  0  0  0  0  0  0  0  0  0  0  0
  1 21  1  6  0  0  0
  1 11  1  0  0  0  0
  2  5  1  0  0  0  0
  4  8  2  0  0  0  0
  5  8  1  0  0  0  0
  5  3  2  0  0  0  0
  6  4  1  0  0  0  0
  7 10  2  0  0  0  0
 10  3  1  0  0  0  0
 10  9  1  0  0  0  0
 11  2  1  0  0  0  0
 11  6  2  0  0  0  0
 12  2  2  0  0  0  0
 12  7  1  0  0  0  0
 14 13  1  0  0  0  0
 15 18  2  0  0  0  0
 15 17  1  0  0  0  0
 16  1  1  0  0  0  0
 16 13  2  0  0  0  0
 17 14  2  0  0  0  0
 18 16  1  0  0  0  0
 19 20  1  0  0  0  0
 20 15  1  0  0  0  0
 22 23  1  0  0  0  0
 22 21  1  0  0  0  0
 24 23  1  0  0  0  0
 25 24  1  0  0  0  0
 26 25  1  0  0  0  0
 27 28  1  0  0  0  0
 28 26  1  0  0  0  0
M  END
>  <MODEL>
9

>  <REMARK>
 VINA RESULT:      -6.6      3.099      7.661
  Name = 
  10 active torsions:
  status: ('A' for Active; 'I' for Inactive)
    1  A    between atoms: C_5  and  N_8
    2  A    between atoms: C_5  and  C_19
    3  A    between atoms: C_6  and  N_8
    4  A    between atoms: C_6  and  C_25
    5  A    between atoms: C_11  and  C_16
    6  A    between atoms: C_11  and  C_23
    7  A    between atoms: C_11  and  N_24
    8  A    between atoms: C_14  and  C_27
    9  A    between atoms: C_19  and  N_24
   10  A    between atoms: O_20  and  C_25
                            x       y       z     vdW  Elec       q    Type
                         _______ _______ _______ _____ _____    ______ ____

>  <TORSDO>
F 10

$$$$
