=
 OpenBabel11042412283D

 27 31  0  0  1  0  0  0  0  0999 V2000
  191.5960  176.7510  146.7890 C   0  0  0  0  0  3  0  0  0  0  0  0
  190.3770  177.0440  147.4320 C   0  0  0  0  0  3  0  0  0  0  0  0
  188.2690  177.7740  144.2970 C   0  0  1  0  0  3  0  0  0  0  0  0
  190.5480  177.1400  144.6710 C   0  0  0  0  0  0  0  0  0  0  0  0
  188.6220  177.8950  141.7140 C   0  0  0  0  0  3  0  0  0  0  0  0
  192.6300  176.4880  137.6810 N   0  0  0  0  0  1  0  0  0  0  0  0
  191.6590  176.4110  138.7160 C   0  0  0  0  0  0  0  0  0  0  0  0
  190.6550  175.6620  138.5740 O   0  0  0  0  0  0  0  0  0  0  0  0
  190.8730  177.3150  140.9560 C   0  0  0  0  0  0  0  0  0  0  0  0
  189.1000  178.0750  139.2850 C   0  0  0  0  0  1  0  0  0  0  0  0
  189.2380  177.3870  146.6840 C   0  0  0  0  0  3  0  0  0  0  0  0
  191.6920  176.8000  145.3880 C   0  0  0  0  0  3  0  0  0  0  0  0
  191.8570  177.1460  139.9270 N   0  0  0  0  0  2  0  0  0  0  0  0
  189.3450  177.4260  145.2930 C   0  0  0  0  0  0  0  0  0  0  0  0
  191.2540  177.1240  142.2530 N   0  0  0  0  0  0  0  0  0  0  0  0
  189.5410  177.7280  140.6660 C   0  0  0  0  0  0  0  0  0  0  0  0
  190.3510  177.2810  143.2520 C   0  0  0  0  0  0  0  0  0  0  0  0
  189.0480  177.6480  143.0150 C   0  0  0  0  0  0  0  0  0  0  0  0
  187.2180  176.7670  144.3420 N   0  0  0  0  0  2  0  0  0  0  0  0
  184.9180  178.2110  144.4210 C   0  0  0  0  0  0  0  0  0  0  0  0
  183.2190  178.8880  142.4400 C   0  0  0  0  0  0  0  0  0  0  0  0
  184.2970  178.0960  142.0470 N   0  0  0  0  0  0  0  0  0  0  0  0
  183.0190  179.3280  143.8360 C   0  0  0  0  0  3  0  0  0  0  0  0
  182.2710  179.2930  141.4590 N   0  0  0  0  0  1  0  0  0  0  0  0
  185.0520  177.8330  143.1100 C   0  0  0  0  0  0  0  0  0  0  0  0
  186.0110  177.4110  144.0430 N   0  0  0  0  0  0  0  0  0  0  0  0
  183.9120  178.9830  144.9220 C   0  0  0  0  0  3  0  0  0  0  0  0
  1  2  1  0  0  0  0
  3 19  1  6  0  0  0
  3 14  1  0  0  0  0
  4 14  2  0  0  0  0
  4 12  1  0  0  0  0
  5 18  1  0  0  0  0
  6  7  1  0  0  0  0
  7 13  1  0  0  0  0
  8  7  2  0  0  0  0
  9 15  2  0  0  0  0
 10 16  1  0  0  0  0
 11  2  2  0  0  0  0
 12  1  2  0  0  0  0
 13  9  1  0  0  0  0
 14 11  1  0  0  0  0
 15 17  1  0  0  0  0
 16  9  1  0  0  0  0
 16  5  2  0  0  0  0
 17  4  1  0  0  0  0
 18 17  2  0  0  0  0
 18  3  1  0  0  0  0
 20 27  1  0  0  0  0
 21 23  1  0  0  0  0
 22 21  2  0  0  0  0
 22 25  1  0  0  0  0
 23 27  2  0  0  0  0
 24 21  1  0  0  0  0
 25 26  1  0  0  0  0
 25 20  2  0  0  0  0
 26 19  1  0  0  0  0
 26 20  1  0  0  0  0
M  END
>  <MODEL>
1

>  <REMARK>
 VINA RESULT:     -10.0      0.000      0.000
  Name = 
  2 active torsions:
  status: ('A' for Active; 'I' for Inactive)
    1  A    between atoms: C_3  and  N_12
    2  A    between atoms: N_12  and  N_23
                            x       y       z     vdW  Elec       q    Type
                         _______ _______ _______ _____ _____    ______ ____

>  <TORSDO>
F 2

$$$$
=
 OpenBabel11042412283D

 27 31  0  0  1  0  0  0  0  0999 V2000
  191.2930  176.7700  146.8700 C   0  0  0  0  0  3  0  0  0  0  0  0
  190.0820  177.1160  147.5030 C   0  0  0  0  0  3  0  0  0  0  0  0
  188.0360  177.9420  144.3510 C   0  0  1  0  0  3  0  0  0  0  0  0
  190.2810  177.2070  144.7440 C   0  0  0  0  0  0  0  0  0  0  0  0
  188.4160  178.0480  141.7710 C   0  0  0  0  0  3  0  0  0  0  0  0
  192.3910  176.4650  137.7710 N   0  0  0  0  0  1  0  0  0  0  0  0
  191.4090  176.4310  138.7980 C   0  0  0  0  0  0  0  0  0  0  0  0
  190.3740  175.7280  138.6470 O   0  0  0  0  0  0  0  0  0  0  0  0
  190.6460  177.3680  141.0320 C   0  0  0  0  0  0  0  0  0  0  0  0
  188.9230  178.2080  139.3470 C   0  0  0  0  0  1  0  0  0  0  0  0
  188.9670  177.5100  146.7460 C   0  0  0  0  0  3  0  0  0  0  0  0
  191.4030  176.8150  145.4700 C   0  0  0  0  0  3  0  0  0  0  0  0
  191.6290  177.1560  140.0110 N   0  0  0  0  0  2  0  0  0  0  0  0
  189.0870  177.5460  145.3550 C   0  0  0  0  0  0  0  0  0  0  0  0
  191.0060  177.1600  142.3320 N   0  0  0  0  0  0  0  0  0  0  0  0
  189.3360  177.8410  140.7310 C   0  0  0  0  0  0  0  0  0  0  0  0
  190.1030  177.3570  143.3230 C   0  0  0  0  0  0  0  0  0  0  0  0
  188.8190  177.7820  143.0750 C   0  0  0  0  0  0  0  0  0  0  0  0
  186.9410  176.9830  144.3860 N   0  0  0  0  0  2  0  0  0  0  0  0
  185.0790  177.9750  142.6730 C   0  0  0  0  0  0  0  0  0  0  0  0
  182.6940  179.1280  143.1730 C   0  0  0  0  0  0  0  0  0  0  0  0
  183.4220  178.7650  144.3050 N   0  0  0  0  0  0  0  0  0  0  0  0
  183.1870  178.8990  141.8000 C   0  0  0  0  0  3  0  0  0  0  0  0
  181.4230  179.7450  143.3420 N   0  0  0  0  0  1  0  0  0  0  0  0
  184.5700  178.2130  143.9240 C   0  0  0  0  0  0  0  0  0  0  0  0
  185.8270  177.6020  143.8050 N   0  0  0  0  0  0  0  0  0  0  0  0
  184.4620  178.2820  141.4970 C   0  0  0  0  0  3  0  0  0  0  0  0
  1  2  1  0  0  0  0
  3 19  1  6  0  0  0
  3 14  1  0  0  0  0
  4 14  2  0  0  0  0
  4 12  1  0  0  0  0
  5 18  1  0  0  0  0
  6  7  1  0  0  0  0
  7 13  1  0  0  0  0
  8  7  2  0  0  0  0
  9 15  2  0  0  0  0
 10 16  1  0  0  0  0
 11  2  2  0  0  0  0
 12  1  2  0  0  0  0
 13  9  1  0  0  0  0
 14 11  1  0  0  0  0
 15 17  1  0  0  0  0
 16  9  1  0  0  0  0
 16  5  2  0  0  0  0
 17  4  1  0  0  0  0
 18 17  2  0  0  0  0
 18  3  1  0  0  0  0
 20 26  1  0  0  0  0
 20 25  1  0  0  0  0
 21 24  1  0  0  0  0
 21 22  1  0  0  0  0
 23 21  2  0  0  0  0
 25 22  2  0  0  0  0
 26 25  1  0  0  0  0
 26 19  1  0  0  0  0
 27 23  1  0  0  0  0
 27 20  2  0  0  0  0
M  END
>  <MODEL>
2

>  <REMARK>
 VINA RESULT:      -9.9      0.788      1.128
  Name = 
  2 active torsions:
  status: ('A' for Active; 'I' for Inactive)
    1  A    between atoms: C_3  and  N_12
    2  A    between atoms: N_12  and  N_23
                            x       y       z     vdW  Elec       q    Type
                         _______ _______ _______ _____ _____    ______ ____

>  <TORSDO>
F 2

$$$$
=
 OpenBabel11042412283D

 27 31  0  0  1  0  0  0  0  0999 V2000
  191.0020  176.6020  147.6880 C   0  0  0  0  0  3  0  0  0  0  0  0
  192.0670  176.3140  146.8110 C   0  0  0  0  0  3  0  0  0  0  0  0
  190.2070  176.8780  143.4910 C   0  0  1  0  0  3  0  0  0  0  0  0
  189.5910  177.0260  145.8000 C   0  0  0  0  0  0  0  0  0  0  0  0
  187.7930  177.4860  142.7050 C   0  0  0  0  0  3  0  0  0  0  0  0
  182.7300  179.4300  144.9170 N   0  0  0  0  0  1  0  0  0  0  0  0
  184.0910  179.3350  144.5160 C   0  0  0  0  0  0  0  0  0  0  0  0
  184.5880  180.2310  143.7830 O   0  0  0  0  0  0  0  0  0  0  0  0
  186.2050  177.9270  144.5100 C   0  0  0  0  0  0  0  0  0  0  0  0
  185.4430  177.9740  142.0760 C   0  0  0  0  0  1  0  0  0  0  0  0
  191.8860  176.3840  145.4190 C   0  0  0  0  0  3  0  0  0  0  0  0
  189.7420  176.9620  147.1830 C   0  0  0  0  0  3  0  0  0  0  0  0
  184.8930  178.2500  144.9900 N   0  0  0  0  0  2  0  0  0  0  0  0
  190.6310  176.7480  144.9310 C   0  0  0  0  0  0  0  0  0  0  0  0
  187.1820  177.6620  145.4260 N   0  0  0  0  0  0  0  0  0  0  0  0
  186.4950  177.8220  143.1200 C   0  0  0  0  0  0  0  0  0  0  0  0
  188.4320  177.3480  145.0080 C   0  0  0  0  0  0  0  0  0  0  0  0
  188.7640  177.2660  143.6760 C   0  0  0  0  0  0  0  0  0  0  0  0
  190.9390  177.9680  142.8620 N   0  0  0  0  0  2  0  0  0  0  0  0
  190.8950  177.1520  140.2710 C   0  0  0  0  0  0  0  0  0  0  0  0
  192.9160  176.8170  138.5170 C   0  0  0  0  0  0  0  0  0  0  0  0
  193.3050  177.2170  139.7950 N   0  0  0  0  0  0  0  0  0  0  0  0
  191.5040  176.5940  138.1460 C   0  0  0  0  0  3  0  0  0  0  0  0
  193.9170  176.6160  137.5270 N   0  0  0  0  0  1  0  0  0  0  0  0
  192.2230  177.3440  140.5580 C   0  0  0  0  0  0  0  0  0  0  0  0
  191.2700  177.5550  141.5650 N   0  0  0  0  0  0  0  0  0  0  0  0
  190.3960  176.7670  139.0620 C   0  0  0  0  0  3  0  0  0  0  0  0
  2  1  2  0  0  0  0
  3 19  1  1  0  0  0
  3 18  1  0  0  0  0
  3 14  1  0  0  0  0
  4 12  2  0  0  0  0
  5 16  2  0  0  0  0
  5 18  1  0  0  0  0
  7  6  1  0  0  0  0
  7 13  1  0  0  0  0
  8  7  2  0  0  0  0
  9 13  1  0  0  0  0
  9 15  2  0  0  0  0
 10 16  1  0  0  0  0
 11  2  1  0  0  0  0
 12  1  1  0  0  0  0
 14 11  2  0  0  0  0
 14  4  1  0  0  0  0
 16  9  1  0  0  0  0
 17 15  1  0  0  0  0
 17  4  1  0  0  0  0
 18 17  2  0  0  0  0
 20 25  1  0  0  0  0
 20 26  1  0  0  0  0
 21 22  1  0  0  0  0
 22 25  2  0  0  0  0
 23 21  2  0  0  0  0
 23 27  1  0  0  0  0
 24 21  1  0  0  0  0
 25 26  1  0  0  0  0
 26 19  1  0  0  0  0
 27 20  2  0  0  0  0
M  END
>  <MODEL>
3

>  <REMARK>
 VINA RESULT:      -9.9      2.262      6.866
  Name = 
  2 active torsions:
  status: ('A' for Active; 'I' for Inactive)
    1  A    between atoms: C_3  and  N_12
    2  A    between atoms: N_12  and  N_23
                            x       y       z     vdW  Elec       q    Type
                         _______ _______ _______ _____ _____    ______ ____

>  <TORSDO>
F 2

$$$$
=
 OpenBabel11042412283D

 27 31  0  0  1  0  0  0  0  0999 V2000
  190.5560  177.0740  137.2630 C   0  0  0  0  0  3  0  0  0  0  0  0
  191.5800  176.7530  138.1750 C   0  0  0  0  0  3  0  0  0  0  0  0
  189.6700  177.5110  141.4280 C   0  0  1  0  0  3  0  0  0  0  0  0
  189.1200  177.6210  139.1000 C   0  0  0  0  0  0  0  0  0  0  0  0
  187.3240  178.4160  142.1270 C   0  0  0  0  0  3  0  0  0  0  0  0
  182.0930  179.5710  139.7600 N   0  0  0  0  0  1  0  0  0  0  0  0
  183.2590  178.8990  140.2160 C   0  0  0  0  0  0  0  0  0  0  0  0
  183.1470  177.9170  140.9980 O   0  0  0  0  0  0  0  0  0  0  0  0
  185.7990  178.8610  140.2690 C   0  0  0  0  0  0  0  0  0  0  0  0
  185.1010  179.3780  142.6690 C   0  0  0  0  0  1  0  0  0  0  0  0
  191.3680  176.8690  139.5590 C   0  0  0  0  0  3  0  0  0  0  0  0
  189.3050  177.5170  137.7240 C   0  0  0  0  0  3  0  0  0  0  0  0
  184.5440  179.3140  139.7440 N   0  0  0  0  0  2  0  0  0  0  0  0
  190.1190  177.3050  140.0040 C   0  0  0  0  0  0  0  0  0  0  0  0
  186.7700  178.4790  139.3890 N   0  0  0  0  0  0  0  0  0  0  0  0
  186.0730  178.8540  141.6670 C   0  0  0  0  0  0  0  0  0  0  0  0
  187.9700  178.0510  139.8510 C   0  0  0  0  0  0  0  0  0  0  0  0
  188.2660  177.9990  141.1930 C   0  0  0  0  0  0  0  0  0  0  0  0
  189.6430  176.2310  142.1220 N   0  0  0  0  0  2  0  0  0  0  0  0
  189.3750  176.8310  144.7590 C   0  0  0  0  0  0  0  0  0  0  0  0
  191.1860  176.7540  146.7540 C   0  0  0  0  0  0  0  0  0  0  0  0
  191.6800  176.4130  145.4960 N   0  0  0  0  0  0  0  0  0  0  0  0
  189.7760  177.1290  146.9830 C   0  0  0  0  0  3  0  0  0  0  0  0
  192.0730  176.7410  147.8670 N   0  0  0  0  0  1  0  0  0  0  0  0
  190.6950  176.4920  144.6070 C   0  0  0  0  0  0  0  0  0  0  0  0
  189.8570  176.4900  143.4820 N   0  0  0  0  0  0  0  0  0  0  0  0
  188.7780  177.1780  145.9340 C   0  0  0  0  0  3  0  0  0  0  0  0
  1 12  2  0  0  0  0
  1  2  1  0  0  0  0
  2 11  2  0  0  0  0
  3 19  1  1  0  0  0
  4 17  1  0  0  0  0
  4 14  2  0  0  0  0
  6  7  1  0  0  0  0
  7  8  2  0  0  0  0
  9 16  1  0  0  0  0
 11 14  1  0  0  0  0
 12  4  1  0  0  0  0
 13  7  1  0  0  0  0
 13  9  1  0  0  0  0
 14  3  1  0  0  0  0
 15 17  1  0  0  0  0
 15  9  2  0  0  0  0
 16  5  2  0  0  0  0
 16 10  1  0  0  0  0
 17 18  2  0  0  0  0
 18  3  1  0  0  0  0
 18  5  1  0  0  0  0
 19 26  1  0  0  0  0
 20 27  1  0  0  0  0
 21 23  1  0  0  0  0
 21 24  1  0  0  0  0
 22 21  2  0  0  0  0
 25 20  2  0  0  0  0
 25 22  1  0  0  0  0
 26 25  1  0  0  0  0
 26 20  1  0  0  0  0
 27 23  2  0  0  0  0
M  END
>  <MODEL>
4

>  <REMARK>
 VINA RESULT:      -9.6      2.595      6.939
  Name = 
  2 active torsions:
  status: ('A' for Active; 'I' for Inactive)
    1  A    between atoms: C_3  and  N_12
    2  A    between atoms: N_12  and  N_23
                            x       y       z     vdW  Elec       q    Type
                         _______ _______ _______ _____ _____    ______ ____

>  <TORSDO>
F 2

$$$$
=
 OpenBabel11042412283D

 27 31  0  0  1  0  0  0  0  0999 V2000
  184.3550  178.4100  146.6110 C   0  0  0  0  0  3  0  0  0  0  0  0
  183.8980  178.7110  145.3130 C   0  0  0  0  0  3  0  0  0  0  0  0
  187.2490  178.3530  143.4580 C   0  0  1  0  0  3  0  0  0  0  0  0
  186.5660  178.1130  145.7400 C   0  0  0  0  0  0  0  0  0  0  0  0
  189.7410  177.8450  144.0460 C   0  0  0  0  0  3  0  0  0  0  0  0
  192.9700  175.9330  148.5430 N   0  0  0  0  0  1  0  0  0  0  0  0
  192.0210  176.0100  147.4880 C   0  0  0  0  0  0  0  0  0  0  0  0
  192.0260  175.1370  146.5800 O   0  0  0  0  0  0  0  0  0  0  0  0
  190.1620  177.3610  146.4050 C   0  0  0  0  0  0  0  0  0  0  0  0
  192.0920  177.4490  144.7380 C   0  0  0  0  0  1  0  0  0  0  0  0
  184.7860  178.7120  144.2240 C   0  0  0  0  0  3  0  0  0  0  0  0
  185.7080  178.1070  146.8370 C   0  0  0  0  0  3  0  0  0  0  0  0
  191.0400  177.0510  147.4960 N   0  0  0  0  0  2  0  0  0  0  0  0
  186.1270  178.4040  144.4610 C   0  0  0  0  0  0  0  0  0  0  0  0
  188.8380  177.5570  146.6750 N   0  0  0  0  0  0  0  0  0  0  0  0
  190.6410  177.5240  145.0740 C   0  0  0  0  0  0  0  0  0  0  0  0
  187.9820  177.8580  145.6690 C   0  0  0  0  0  0  0  0  0  0  0  0
  188.3960  177.9940  144.3650 C   0  0  0  0  0  0  0  0  0  0  0  0
  187.0090  177.2740  142.5100 N   0  0  0  0  0  2  0  0  0  0  0  0
  188.9890  177.3370  140.6500 C   0  0  0  0  0  0  0  0  0  0  0  0
  189.0420  178.4630  138.2010 C   0  0  0  0  0  0  0  0  0  0  0  0
  187.8600  178.6590  138.9140 N   0  0  0  0  0  0  0  0  0  0  0  0
  190.1820  177.6950  138.7410 C   0  0  0  0  0  3  0  0  0  0  0  0
  189.1580  179.0240  136.8980 N   0  0  0  0  0  1  0  0  0  0  0  0
  187.9630  178.0590  140.0970 C   0  0  0  0  0  0  0  0  0  0  0  0
  187.8040  177.5240  141.3840 N   0  0  0  0  0  0  0  0  0  0  0  0
  190.1850  177.0770  140.0500 C   0  0  0  0  0  3  0  0  0  0  0  0
  1 12  1  0  0  0  0
  2  1  2  0  0  0  0
  3 19  1  6  0  0  0
  3 18  1  0  0  0  0
  3 14  1  0  0  0  0
  4 12  2  0  0  0  0
  5 18  1  0  0  0  0
  5 16  2  0  0  0  0
  7 13  1  0  0  0  0
  7  6  1  0  0  0  0
  8  7  2  0  0  0  0
  9 15  2  0  0  0  0
  9 13  1  0  0  0  0
 10 16  1  0  0  0  0
 11 14  2  0  0  0  0
 11  2  1  0  0  0  0
 14  4  1  0  0  0  0
 16  9  1  0  0  0  0
 17  4  1  0  0  0  0
 17 15  1  0  0  0  0
 18 17  2  0  0  0  0
 20 26  1  0  0  0  0
 21 23  2  0  0  0  0
 21 22  1  0  0  0  0
 22 25  2  0  0  0  0
 23 27  1  0  0  0  0
 24 21  1  0  0  0  0
 25 20  1  0  0  0  0
 25 26  1  0  0  0  0
 26 19  1  0  0  0  0
 27 20  2  0  0  0  0
M  END
>  <MODEL>
5

>  <REMARK>
 VINA RESULT:      -9.6      2.898      6.125
  Name = 
  2 active torsions:
  status: ('A' for Active; 'I' for Inactive)
    1  A    between atoms: C_3  and  N_12
    2  A    between atoms: N_12  and  N_23
                            x       y       z     vdW  Elec       q    Type
                         _______ _______ _______ _____ _____    ______ ____

>  <TORSDO>
F 2

$$$$
=
 OpenBabel11042412283D

 27 31  0  0  1  0  0  0  0  0999 V2000
  187.3250  177.9880  146.7560 C   0  0  0  0  0  3  0  0  0  0  0  0
  188.4440  177.7310  145.9400 C   0  0  0  0  0  3  0  0  0  0  0  0
  186.6640  177.8190  142.5310 C   0  0  1  0  0  3  0  0  0  0  0  0
  185.9510  178.1060  144.7980 C   0  0  0  0  0  0  0  0  0  0  0  0
  184.2350  178.1180  141.6240 C   0  0  0  0  0  3  0  0  0  0  0  0
  178.9310  179.7430  143.5050 N   0  0  0  0  0  1  0  0  0  0  0  0
  180.3090  179.7480  143.1540 C   0  0  0  0  0  0  0  0  0  0  0  0
  180.7460  180.6210  142.3580 O   0  0  0  0  0  0  0  0  0  0  0  0
  182.5450  178.5580  143.3350 C   0  0  0  0  0  0  0  0  0  0  0  0
  181.8740  178.3170  140.8860 C   0  0  0  0  0  1  0  0  0  0  0  0
  188.3100  177.6610  144.5430 C   0  0  0  0  0  3  0  0  0  0  0  0
  186.0550  178.1780  146.1850 C   0  0  0  0  0  3  0  0  0  0  0  0
  181.1920  178.7910  143.7460 N   0  0  0  0  0  2  0  0  0  0  0  0
  187.0440  177.8570  143.9880 C   0  0  0  0  0  0  0  0  0  0  0  0
  183.5090  178.4700  144.3000 N   0  0  0  0  0  0  0  0  0  0  0  0
  182.8960  178.3610  141.9690 C   0  0  0  0  0  0  0  0  0  0  0  0
  184.7980  178.2440  143.9470 C   0  0  0  0  0  0  0  0  0  0  0  0
  185.1850  178.0790  142.6380 C   0  0  0  0  0  0  0  0  0  0  0  0
  187.3120  178.9170  141.8280 N   0  0  0  0  0  2  0  0  0  0  0  0
  188.5770  178.3640  139.4870 C   0  0  0  0  0  0  0  0  0  0  0  0
  190.4240  176.4870  138.9080 C   0  0  0  0  0  0  0  0  0  0  0  0
  189.9530  176.4660  140.2200 N   0  0  0  0  0  0  0  0  0  0  0  0
  189.9510  177.4650  137.9060 C   0  0  0  0  0  3  0  0  0  0  0  0
  191.4010  175.5320  138.5130 N   0  0  0  0  0  1  0  0  0  0  0  0
  189.0530  177.4320  140.3740 C   0  0  0  0  0  0  0  0  0  0  0  0
  188.0900  178.3560  140.8070 N   0  0  0  0  0  0  0  0  0  0  0  0
  188.9630  178.4850  138.1850 C   0  0  0  0  0  3  0  0  0  0  0  0
  2  1  2  0  0  0  0
  3 19  1  6  0  0  0
  3 18  1  0  0  0  0
  3 14  1  0  0  0  0
  4 12  2  0  0  0  0
  5 16  2  0  0  0  0
  5 18  1  0  0  0  0
  7  6  1  0  0  0  0
  7 13  1  0  0  0  0
  8  7  2  0  0  0  0
  9 13  1  0  0  0  0
  9 15  2  0  0  0  0
 10 16  1  0  0  0  0
 11  2  1  0  0  0  0
 12  1  1  0  0  0  0
 14 11  2  0  0  0  0
 14  4  1  0  0  0  0
 16  9  1  0  0  0  0
 17 15  1  0  0  0  0
 17  4  1  0  0  0  0
 18 17  2  0  0  0  0
 20 25  1  0  0  0  0
 20 26  1  0  0  0  0
 21 22  1  0  0  0  0
 22 25  2  0  0  0  0
 23 27  1  0  0  0  0
 23 21  2  0  0  0  0
 24 21  1  0  0  0  0
 25 26  1  0  0  0  0
 26 19  1  0  0  0  0
 27 20  2  0  0  0  0
M  END
>  <MODEL>
6

>  <REMARK>
 VINA RESULT:      -9.5      2.987      7.532
  Name = 
  2 active torsions:
  status: ('A' for Active; 'I' for Inactive)
    1  A    between atoms: C_3  and  N_12
    2  A    between atoms: N_12  and  N_23
                            x       y       z     vdW  Elec       q    Type
                         _______ _______ _______ _____ _____    ______ ____

>  <TORSDO>
F 2

$$$$
=
 OpenBabel11042412283D

 27 31  0  0  1  0  0  0  0  0999 V2000
  190.9830  176.5530  147.7430 C   0  0  0  0  0  3  0  0  0  0  0  0
  192.0440  176.2970  146.8520 C   0  0  0  0  0  3  0  0  0  0  0  0
  190.1560  176.9270  143.5600 C   0  0  1  0  0  3  0  0  0  0  0  0
  189.5550  177.0110  145.8760 C   0  0  0  0  0  0  0  0  0  0  0  0
  187.7320  177.5330  142.8060 C   0  0  0  0  0  3  0  0  0  0  0  0
  182.6670  179.3740  145.1010 N   0  0  0  0  0  1  0  0  0  0  0  0
  184.0260  179.3030  144.6890 C   0  0  0  0  0  0  0  0  0  0  0  0
  184.5100  180.2210  143.9750 O   0  0  0  0  0  0  0  0  0  0  0  0
  186.1520  177.9140  144.6330 C   0  0  0  0  0  0  0  0  0  0  0  0
  185.3730  178.0150  142.2050 C   0  0  0  0  0  1  0  0  0  0  0  0
  191.8530  176.3990  145.4640 C   0  0  0  0  0  3  0  0  0  0  0  0
  189.7160  176.9140  147.2560 C   0  0  0  0  0  3  0  0  0  0  0  0
  184.8410  178.2130  145.1290 N   0  0  0  0  0  2  0  0  0  0  0  0
  190.5910  176.7640  144.9930 C   0  0  0  0  0  0  0  0  0  0  0  0
  187.1380  177.6350  145.5350 N   0  0  0  0  0  0  0  0  0  0  0  0
  186.4340  177.8470  143.2380 C   0  0  0  0  0  0  0  0  0  0  0  0
  188.3880  177.3430  145.1000 C   0  0  0  0  0  0  0  0  0  0  0  0
  188.7110  177.2970  143.7650 C   0  0  0  0  0  0  0  0  0  0  0  0
  190.8740  178.0390  142.9550 N   0  0  0  0  0  2  0  0  0  0  0  0
  192.1240  177.4910  140.6050 C   0  0  0  0  0  0  0  0  0  0  0  0
  191.1790  176.3380  138.3580 C   0  0  0  0  0  0  0  0  0  0  0  0
  190.2410  176.5030  139.3760 N   0  0  0  0  0  0  0  0  0  0  0  0
  192.5880  176.7610  138.4960 C   0  0  0  0  0  3  0  0  0  0  0  0
  190.7680  175.7380  137.1360 N   0  0  0  0  0  1  0  0  0  0  0  0
  190.8290  177.0800  140.4190 C   0  0  0  0  0  0  0  0  0  0  0  0
  191.1900  177.6660  141.6420 N   0  0  0  0  0  0  0  0  0  0  0  0
  193.1270  177.3810  139.6890 C   0  0  0  0  0  3  0  0  0  0  0  0
  2  1  2  0  0  0  0
  3 19  1  1  0  0  0
  3 18  1  0  0  0  0
  3 14  1  0  0  0  0
  4 12  2  0  0  0  0
  5 16  2  0  0  0  0
  5 18  1  0  0  0  0
  7  6  1  0  0  0  0
  7 13  1  0  0  0  0
  8  7  2  0  0  0  0
  9 13  1  0  0  0  0
  9 15  2  0  0  0  0
 10 16  1  0  0  0  0
 11  2  1  0  0  0  0
 12  1  1  0  0  0  0
 14 11  2  0  0  0  0
 14  4  1  0  0  0  0
 16  9  1  0  0  0  0
 17 15  1  0  0  0  0
 17  4  1  0  0  0  0
 18 17  2  0  0  0  0
 20 26  1  0  0  0  0
 21 23  2  0  0  0  0
 21 22  1  0  0  0  0
 22 25  2  0  0  0  0
 23 27  1  0  0  0  0
 24 21  1  0  0  0  0
 25 20  1  0  0  0  0
 25 26  1  0  0  0  0
 26 19  1  0  0  0  0
 27 20  2  0  0  0  0
M  END
>  <MODEL>
7

>  <REMARK>
 VINA RESULT:      -9.5      2.351      6.690
  Name = 
  2 active torsions:
  status: ('A' for Active; 'I' for Inactive)
    1  A    between atoms: C_3  and  N_12
    2  A    between atoms: N_12  and  N_23
                            x       y       z     vdW  Elec       q    Type
                         _______ _______ _______ _____ _____    ______ ____

>  <TORSDO>
F 2

$$$$
=
 OpenBabel11042412283D

 27 31  0  0  1  0  0  0  0  0999 V2000
  185.4940  178.5040  146.5540 C   0  0  0  0  0  3  0  0  0  0  0  0
  186.8140  178.1420  146.2210 C   0  0  0  0  0  3  0  0  0  0  0  0
  186.3790  177.9480  142.4030 C   0  0  1  0  0  3  0  0  0  0  0  0
  184.9200  178.4680  144.2290 C   0  0  0  0  0  0  0  0  0  0  0  0
  184.4560  178.2190  140.6590 C   0  0  0  0  0  3  0  0  0  0  0  0
  178.9320  180.1450  140.3610 N   0  0  0  0  0  1  0  0  0  0  0  0
  180.3420  180.0830  140.5320 C   0  0  0  0  0  0  0  0  0  0  0  0
  181.0840  180.8650  139.8800 O   0  0  0  0  0  0  0  0  0  0  0  0
  182.2940  178.8610  141.6040 C   0  0  0  0  0  0  0  0  0  0  0  0
  182.5300  178.4040  139.1050 C   0  0  0  0  0  1  0  0  0  0  0  0
  187.1840  177.9420  144.8800 C   0  0  0  0  0  3  0  0  0  0  0  0
  184.5250  178.6690  145.5500 C   0  0  0  0  0  3  0  0  0  0  0  0
  180.8990  179.1650  141.4780 N   0  0  0  0  0  2  0  0  0  0  0  0
  186.2140  178.1150  143.8910 C   0  0  0  0  0  0  0  0  0  0  0  0
  182.8420  178.8420  142.8550 N   0  0  0  0  0  0  0  0  0  0  0  0
  183.0990  178.5260  140.4770 C   0  0  0  0  0  0  0  0  0  0  0  0
  184.1570  178.5520  143.0110 C   0  0  0  0  0  0  0  0  0  0  0  0
  184.9760  178.2530  141.9480 C   0  0  0  0  0  0  0  0  0  0  0  0
  187.2970  178.9580  141.8960 N   0  0  0  0  0  2  0  0  0  0  0  0
  188.3900  178.2090  139.5230 C   0  0  0  0  0  0  0  0  0  0  0  0
  190.4850  176.5940  139.0050 C   0  0  0  0  0  0  0  0  0  0  0  0
  190.1680  176.7320  140.3550 N   0  0  0  0  0  0  0  0  0  0  0  0
  189.7340  177.2810  137.9340 C   0  0  0  0  0  3  0  0  0  0  0  0
  191.5780  175.7600  138.6380 N   0  0  0  0  0  1  0  0  0  0  0  0
  189.1230  177.5460  140.4740 C   0  0  0  0  0  0  0  0  0  0  0  0
  188.0550  178.3590  140.8810 N   0  0  0  0  0  0  0  0  0  0  0  0
  188.6060  178.1560  138.1790 C   0  0  0  0  0  3  0  0  0  0  0  0
  2  1  1  0  0  0  0
  3 19  1  6  0  0  0
  3 14  1  0  0  0  0
  4 12  1  0  0  0  0
  5 18  1  0  0  0  0
  6  7  1  0  0  0  0
  7 13  1  0  0  0  0
  8  7  2  0  0  0  0
  9 15  2  0  0  0  0
 10 16  1  0  0  0  0
 11  2  2  0  0  0  0
 12  1  2  0  0  0  0
 13  9  1  0  0  0  0
 14  4  2  0  0  0  0
 14 11  1  0  0  0  0
 15 17  1  0  0  0  0
 16  5  2  0  0  0  0
 16  9  1  0  0  0  0
 17  4  1  0  0  0  0
 18  3  1  0  0  0  0
 18 17  2  0  0  0  0
 20 25  1  0  0  0  0
 20 26  1  0  0  0  0
 21 22  1  0  0  0  0
 22 25  2  0  0  0  0
 23 27  1  0  0  0  0
 23 21  2  0  0  0  0
 24 21  1  0  0  0  0
 25 26  1  0  0  0  0
 26 19  1  0  0  0  0
 27 20  2  0  0  0  0
M  END
>  <MODEL>
8

>  <REMARK>
 VINA RESULT:      -8.8      3.176      7.547
  Name = 
  2 active torsions:
  status: ('A' for Active; 'I' for Inactive)
    1  A    between atoms: C_3  and  N_12
    2  A    between atoms: N_12  and  N_23
                            x       y       z     vdW  Elec       q    Type
                         _______ _______ _______ _____ _____    ______ ____

>  <TORSDO>
F 2

$$$$
=
 OpenBabel11042412283D

 27 31  0  0  1  0  0  0  0  0999 V2000
  188.2280  178.2050  139.3480 C   0  0  0  0  0  3  0  0  0  0  0  0
  189.0820  178.0840  140.4620 C   0  0  0  0  0  3  0  0  0  0  0  0
  186.4150  178.3370  143.2230 C   0  0  1  0  0  3  0  0  0  0  0  0
  186.3550  178.3880  140.8300 C   0  0  0  0  0  0  0  0  0  0  0  0
  183.8360  178.7070  143.3940 C   0  0  0  0  0  3  0  0  0  0  0  0
  179.0960  178.7890  139.9540 N   0  0  0  0  0  1  0  0  0  0  0  0
  180.2560  178.3670  140.6600 C   0  0  0  0  0  0  0  0  0  0  0  0
  180.1930  177.3650  141.4200 O   0  0  0  0  0  0  0  0  0  0  0  0
  182.6760  178.8660  141.2480 C   0  0  0  0  0  0  0  0  0  0  0  0
  181.3970  179.1630  143.4360 C   0  0  0  0  0  1  0  0  0  0  0  0
  188.5630  178.1170  141.7670 C   0  0  0  0  0  3  0  0  0  0  0  0
  186.8430  178.3610  139.5260 C   0  0  0  0  0  3  0  0  0  0  0  0
  181.4930  179.0570  140.4610 N   0  0  0  0  0  2  0  0  0  0  0  0
  187.1850  178.2670  141.9300 C   0  0  0  0  0  0  0  0  0  0  0  0
  183.8690  178.7210  140.5990 N   0  0  0  0  0  0  0  0  0  0  0  0
  182.6460  178.8820  142.6720 C   0  0  0  0  0  0  0  0  0  0  0  0
  185.0080  178.5460  141.3130 C   0  0  0  0  0  0  0  0  0  0  0  0
  185.0200  178.5230  142.6870 C   0  0  0  0  0  0  0  0  0  0  0  0
  186.5140  177.0630  143.9210 N   0  0  0  0  0  2  0  0  0  0  0  0
  187.6860  177.5690  146.3200 C   0  0  0  0  0  0  0  0  0  0  0  0
  190.2370  177.2180  147.1200 C   0  0  0  0  0  0  0  0  0  0  0  0
  189.9850  176.8860  145.7890 N   0  0  0  0  0  0  0  0  0  0  0  0
  189.1870  177.7240  148.0280 C   0  0  0  0  0  3  0  0  0  0  0  0
  191.5570  177.0650  147.6270 N   0  0  0  0  0  1  0  0  0  0  0  0
  188.7010  177.1040  145.5230 C   0  0  0  0  0  0  0  0  0  0  0  0
  187.4140  177.2380  144.9800 N   0  0  0  0  0  0  0  0  0  0  0  0
  187.8090  177.9220  147.6310 C   0  0  0  0  0  3  0  0  0  0  0  0
  1 12  2  0  0  0  0
  1  2  1  0  0  0  0
  2 11  2  0  0  0  0
  3 19  1  6  0  0  0
  4 17  1  0  0  0  0
  4 14  2  0  0  0  0
  6  7  1  0  0  0  0
  7  8  2  0  0  0  0
  9 16  1  0  0  0  0
 11 14  1  0  0  0  0
 12  4  1  0  0  0  0
 13  7  1  0  0  0  0
 13  9  1  0  0  0  0
 14  3  1  0  0  0  0
 15  9  2  0  0  0  0
 15 17  1  0  0  0  0
 16  5  2  0  0  0  0
 16 10  1  0  0  0  0
 17 18  2  0  0  0  0
 18  3  1  0  0  0  0
 18  5  1  0  0  0  0
 19 26  1  0  0  0  0
 20 27  1  0  0  0  0
 21 24  1  0  0  0  0
 21 23  1  0  0  0  0
 22 21  2  0  0  0  0
 25 22  1  0  0  0  0
 25 20  2  0  0  0  0
 26 25  1  0  0  0  0
 26 20  1  0  0  0  0
 27 23  2  0  0  0  0
M  END
>  <MODEL>
9

>  <REMARK>
 VINA RESULT:      -8.8      3.331      7.527
  Name = 
  2 active torsions:
  status: ('A' for Active; 'I' for Inactive)
    1  A    between atoms: C_3  and  N_12
    2  A    between atoms: N_12  and  N_23
                            x       y       z     vdW  Elec       q    Type
                         _______ _______ _______ _____ _____    ______ ____

>  <TORSDO>
F 2

$$$$
