=
 OpenBabel11042413183D

 61 66  0  0  1  0  0  0  0  0999 V2000
  190.3410  175.8570  137.5510 C   0  0  1  0  0  3  0  0  0  0  0  0
  190.4540  177.2490  136.9280 C   0  0  0  0  0  1  0  0  0  0  0  0
  189.9800  173.5490  136.2660 C   0  0  2  0  0  3  0  0  0  0  0  0
  190.9140  173.4720  137.3160 O   0  0  0  0  0  0  0  0  0  0  0  0
  190.8480  174.7120  136.6380 C   0  0  2  0  0  0  0  0  0  0  0  0
  192.8130  172.6780  136.3890 O   0  0  0  0  0  1  0  0  0  0  0  0
  193.1410  173.8120  135.6320 C   0  0  2  0  0  3  0  0  0  0  0  0
  193.3870  174.6660  137.8900 O   0  0  0  0  0  1  0  0  0  0  0  0
  193.4850  175.0060  136.5300 C   0  0  2  0  0  3  0  0  0  0  0  0
  192.1380  174.9470  135.8140 C   0  0  2  0  0  0  0  0  0  0  0  0
  192.0630  175.8600  134.6090 C   0  0  0  0  0  1  0  0  0  0  0  0
  188.5730  173.6040  136.8480 C   0  0  0  0  0  2  0  0  0  0  0  0
  187.5740  173.3260  135.8200 N   0  0  0  0  0  0  0  0  0  0  0  0
  186.8790  174.5810  135.5900 C   0  0  0  0  0  2  0  0  0  0  0  0
  186.8710  175.4000  136.8690 C   0  0  0  0  0  2  0  0  0  0  0  0
  185.6890  177.5430  137.3420 C   0  0  0  0  0  1  0  0  0  0  0  0
  185.5230  176.0580  137.0610 C   0  0  0  0  0  2  0  0  0  0  0  0
  186.5960  172.4060  136.3960 C   0  0  0  0  0  2  0  0  0  0  0  0
  185.7610  171.8010  135.2780 C   0  0  0  0  0  2  0  0  0  0  0  0
  184.3300  171.6310  135.7560 C   0  0  0  0  0  2  0  0  0  0  0  0
  183.7330  172.9970  136.0220 C   0  0  0  0  0  2  0  0  0  0  0  0
  182.6830  172.8970  137.1080 C   0  0  0  0  0  2  0  0  0  0  0  0
  181.5120  173.5290  136.6780 O   0  0  0  0  0  0  0  0  0  0  0  0
  181.0420  174.2310  137.7910 C   0  0  2  0  0  3  0  0  0  0  0  0
  179.7690  174.7390  137.5060 O   0  0  0  0  0  0  0  0  0  0  0  0
  178.9320  173.6250  137.5010 C   0  0  0  0  0  1  0  0  0  0  0  0
  181.9970  175.3750  138.1280 C   0  0  2  0  0  3  0  0  0  0  0  0
  181.8620  175.7270  139.4680 O   0  0  0  0  0  1  0  0  0  0  0  0
  180.9990  177.6550  137.7860 O   0  0  0  0  0  1  0  0  0  0  0  0
  182.1640  176.6160  136.0850 O   0  0  0  0  0  0  0  0  0  0  0  0
  181.7290  176.5780  137.2750 C   0  0  0  0  0  0  0  0  0  0  0  0
  191.0040  175.7990  138.8080 O   0  0  0  0  0  0  0  0  0  0  0  0
  192.4000  177.6040  139.1900 O   0  0  0  0  0  0  0  0  0  0  0  0
  191.3840  176.9370  139.5240 C   0  0  0  0  0  0  0  0  0  0  0  0
  188.2030  178.0540  141.3790 C   0  0  2  0  0  3  0  0  0  0  0  0
  190.5790  176.3640  141.7910 C   0  0  0  0  0  2  0  0  0  0  0  0
  189.0890  178.6620  139.2320 O   0  0  0  0  0  1  0  0  0  0  0  0
  190.5440  177.4030  140.6660 C   0  0  2  0  0  3  0  0  0  0  0  0
  189.6990  176.8110  142.9540 C   0  0  2  0  0  3  0  0  0  0  0  0
  189.1010  177.6520  140.1980 C   0  0  1  0  0  3  0  0  0  0  0  0
  189.7370  175.8470  143.9610 O   0  0  0  0  0  1  0  0  0  0  0  0
  188.2620  176.9950  142.4770 C   0  0  0  0  0  2  0  0  0  0  0  0
  186.8250  178.2100  140.9330 N   0  0  0  0  0  0  0  0  0  0  0  0
  181.4410  178.5100  144.0370 C   0  0  0  0  0  2  0  0  0  0  0  0
  183.6470  178.4980  143.5680 C   0  0  1  0  0  3  0  0  0  0  0  0
  185.8340  178.3400  141.7640 C   0  0  0  0  0  0  0  0  0  0  0  0
  186.0530  178.2590  143.1530 O   0  0  0  0  0  0  0  0  0  0  0  0
  185.0670  178.5780  144.1440 C   0  0  2  0  0  3  0  0  0  0  0  0
  182.1600  179.5760  141.8220 C   0  0  1  0  0  3  0  0  0  0  0  0
  182.6880  179.0480  144.4310 O   0  0  0  0  0  0  0  0  0  0  0  0
  183.6110  179.2660  142.2500 C   0  0  2  0  0  3  0  0  0  0  0  0
  181.9860  179.5000  140.4380 O   0  0  0  0  0  1  0  0  0  0  0  0
  184.4500  178.5250  141.2200 C   0  0  0  0  0  2  0  0  0  0  0  0
  181.1210  178.7060  142.5370 C   0  0  0  0  0  2  0  0  0  0  0  0
  186.1480  179.0510  147.3240 C   0  0  0  0  0  2  0  0  0  0  0  0
  187.3620  178.1370  147.4020 C   0  0  2  0  0  3  0  0  0  0  0  0
  186.6270  176.9090  145.3450 C   0  0  0  0  0  2  0  0  0  0  0  0
  184.9570  178.3040  146.7210 C   0  0  0  0  0  2  0  0  0  0  0  0
  188.7170  179.0120  148.1480 Cl  0  0  0  0  0  0  0  0  0  0  0  0
  187.7610  177.6910  146.0020 C   0  0  0  0  0  2  0  0  0  0  0  0
  185.3030  177.6790  145.3640 C   0  0  1  0  0  3  0  0  0  0  0  0
  1  2  1  6  0  0  0
  1 32  1  0  0  0  0
  3  5  1  0  0  0  0
  3 12  1  1  0  0  0
  3  4  1  0  0  0  0
  5  4  1  0  0  0  0
  5  1  1  1  0  0  0
  7 10  1  0  0  0  0
  7  6  1  1  0  0  0
  7  9  1  0  0  0  0
  9  8  1  1  0  0  0
 10 11  1  6  0  0  0
 10  9  1  0  0  0  0
 10  5  1  0  0  0  0
 13 18  1  0  0  0  0
 13 12  1  0  0  0  0
 14 13  1  0  0  0  0
 14 15  1  0  0  0  0
 15 17  1  0  0  0  0
 17 16  1  0  0  0  0
 19 20  1  0  0  0  0
 19 18  1  0  0  0  0
 20 21  1  0  0  0  0
 21 22  1  0  0  0  0
 23 22  1  0  0  0  0
 24 23  1  6  0  0  0
 24 27  1  0  0  0  0
 25 24  1  0  0  0  0
 26 25  1  0  0  0  0
 27 28  1  1  0  0  0
 30 31  2  0  0  0  0
 31 29  1  0  0  0  0
 31 27  1  0  0  0  0
 32 34  1  0  0  0  0
 33 34  2  0  0  0  0
 35 43  1  6  0  0  0
 35 42  1  0  0  0  0
 36 39  1  0  0  0  0
 38 34  1  6  0  0  0
 38 36  1  0  0  0  0
 39 41  1  1  0  0  0
 40 37  1  6  0  0  0
 40 38  1  0  0  0  0
 40 35  1  0  0  0  0
 42 39  1  0  0  0  0
 43 46  2  0  0  0  0
 44 50  1  0  0  0  0
 45 48  1  0  0  0  0
 45 50  1  1  0  0  0
 46 47  1  0  0  0  0
 48 47  1  6  0  0  0
 48 61  1  0  0  0  0
 49 52  1  6  0  0  0
 49 51  1  0  0  0  0
 49 54  1  0  0  0  0
 51 53  1  6  0  0  0
 51 45  1  0  0  0  0
 53 46  1  0  0  0  0
 54 44  1  0  0  0  0
 55 56  1  0  0  0  0
 56 59  1  6  0  0  0
 57 60  1  0  0  0  0
 58 55  1  0  0  0  0
 60 56  1  0  0  0  0
 61 57  1  1  0  0  0
 61 58  1  0  0  0  0
M  END
>  <MODEL>
1

>  <REMARK>
 VINA RESULT:      -6.0      0.000      0.000
  Name = 
  22 active torsions:
  status: ('A' for Active; 'I' for Inactive)
    1  A    between atoms: C_3  and  N_7
    2  A    between atoms: C_3  and  C_16
    3  A    between atoms: C_4  and  N_7
    4  A    between atoms: C_4  and  C_61
    5  A    between atoms: N_5  and  C_15
    6  A    between atoms: N_7  and  C_25
    7  A    between atoms: C_9  and  C_10
    8  A    between atoms: C_9  and  C_18
    9  A    between atoms: C_10  and  C_16
   10  A    between atoms: C_11  and  C_32
   11  A    between atoms: C_11  and  C_42
   12  A    between atoms: C_18  and  O_22
   13  A    between atoms: C_19  and  C_57
   14  A    between atoms: C_20  and  C_25
   15  A    between atoms: O_22  and  C_42
   16  A    between atoms: O_26  and  C_45
   17  A    between atoms: O_26  and  C_60
   18  A    between atoms: C_33  and  C_55
   19  A    between atoms: C_36  and  C_61
   20  A    between atoms: C_37  and  C_60
   21  A    between atoms: C_42  and  O_47
   22  A    between atoms: C_45  and  C_57
                            x       y       z     vdW  Elec       q    Type
                         _______ _______ _______ _____ _____    ______ ____

>  <TORSDO>
F 22

$$$$
=
 OpenBabel11042413183D

 61 66  0  0  1  0  0  0  0  0999 V2000
  182.3570  174.7340  137.4490 C   0  0  1  0  0  3  0  0  0  0  0  0
  182.9330  175.0690  138.8250 C   0  0  0  0  0  1  0  0  0  0  0  0
  179.9430  175.8640  137.4170 C   0  0  2  0  0  3  0  0  0  0  0  0
  180.2160  175.1470  138.5960 O   0  0  0  0  0  0  0  0  0  0  0  0
  180.8100  174.6430  137.4150 C   0  0  2  0  0  0  0  0  0  0  0  0
  182.1200  172.8630  135.6330 O   0  0  0  0  0  1  0  0  0  0  0  0
  180.9220  172.3210  136.1190 C   0  0  2  0  0  3  0  0  0  0  0  0
  180.0910  174.1270  134.7260 O   0  0  0  0  0  1  0  0  0  0  0  0
  179.7030  173.0780  135.5770 C   0  0  2  0  0  3  0  0  0  0  0  0
  180.1620  173.2940  137.0170 C   0  0  2  0  0  0  0  0  0  0  0  0
  179.2880  172.5900  138.0330 C   0  0  0  0  0  1  0  0  0  0  0  0
  180.7110  177.1800  137.4410 C   0  0  0  0  0  2  0  0  0  0  0  0
  179.8410  178.2830  137.8380 N   0  0  0  0  0  0  0  0  0  0  0  0
  180.0030  179.3050  136.8190 C   0  0  0  0  0  2  0  0  0  0  0  0
  181.1970  180.1800  137.1590 C   0  0  0  0  0  2  0  0  0  0  0  0
  180.4150  181.9560  135.5940 C   0  0  0  0  0  1  0  0  0  0  0  0
  180.8320  181.6410  137.0230 C   0  0  0  0  0  2  0  0  0  0  0  0
  180.3760  178.8400  139.0780 C   0  0  0  0  0  2  0  0  0  0  0  0
  179.9890  177.9370  140.2380 C   0  0  0  0  0  2  0  0  0  0  0  0
  181.0930  177.9560  141.2800 C   0  0  0  0  0  2  0  0  0  0  0  0
  182.2570  178.7680  140.7500 C   0  0  0  0  0  2  0  0  0  0  0  0
  183.5450  178.3030  141.3960 C   0  0  0  0  0  2  0  0  0  0  0  0
  184.1650  179.3890  142.0220 O   0  0  0  0  0  0  0  0  0  0  0  0
  184.9080  178.8360  143.0680 C   0  0  2  0  0  3  0  0  0  0  0  0
  185.4310  177.6050  142.6560 O   0  0  0  0  0  0  0  0  0  0  0  0
  186.7200  177.5660  143.1860 C   0  0  0  0  0  1  0  0  0  0  0  0
  184.0190  178.6410  144.2940 C   0  0  2  0  0  3  0  0  0  0  0  0
  182.9140  179.4850  144.2180 O   0  0  0  0  0  1  0  0  0  0  0  0
  184.4320  178.2600  146.7430 O   0  0  0  0  0  1  0  0  0  0  0  0
  185.7050  179.7810  145.5600 O   0  0  0  0  0  0  0  0  0  0  0  0
  184.7670  178.9280  145.5610 C   0  0  0  0  0  0  0  0  0  0  0  0
  182.8070  175.6550  136.4630 O   0  0  0  0  0  0  0  0  0  0  0  0
  184.1380  175.2520  134.6140 O   0  0  0  0  0  0  0  0  0  0  0  0
  184.0510  175.5540  135.8350 C   0  0  0  0  0  0  0  0  0  0  0  0
  187.7990  175.5260  136.7040 C   0  0  2  0  0  3  0  0  0  0  0  0
  185.5100  177.3780  136.6440 C   0  0  0  0  0  2  0  0  0  0  0  0
  186.3110  173.7690  136.0250 O   0  0  0  0  0  1  0  0  0  0  0  0
  185.2910  175.8640  136.6050 C   0  0  2  0  0  3  0  0  0  0  0  0
  186.7930  177.7100  137.4000 C   0  0  2  0  0  3  0  0  0  0  0  0
  186.5000  175.1530  135.9730 C   0  0  1  0  0  3  0  0  0  0  0  0
  186.9790  179.0920  137.4140 O   0  0  0  0  0  1  0  0  0  0  0  0
  187.9840  177.0420  136.7210 C   0  0  0  0  0  2  0  0  0  0  0  0
  188.9420  174.9080  136.0480 N   0  0  0  0  0  0  0  0  0  0  0  0
  195.0280  174.9500  137.3410 C   0  0  0  0  0  2  0  0  0  0  0  0
  192.7950  175.1990  137.5300 C   0  0  1  0  0  3  0  0  0  0  0  0
  190.1450  174.9680  136.5380 C   0  0  0  0  0  0  0  0  0  0  0  0
  190.4020  175.7100  137.7060 O   0  0  0  0  0  0  0  0  0  0  0  0
  191.6430  175.6790  138.4230 C   0  0  2  0  0  3  0  0  0  0  0  0
  193.5650  173.1700  136.2210 C   0  0  1  0  0  3  0  0  0  0  0  0
  193.9570  174.9140  138.2630 O   0  0  0  0  0  0  0  0  0  0  0  0
  192.3550  173.9290  136.8070 C   0  0  2  0  0  3  0  0  0  0  0  0
  193.2750  172.5750  134.9910 O   0  0  0  0  0  1  0  0  0  0  0  0
  191.2600  174.2790  135.8110 C   0  0  0  0  0  2  0  0  0  0  0  0
  194.8240  174.0370  136.1100 C   0  0  0  0  0  2  0  0  0  0  0  0
  192.3780  176.8290  141.5290 C   0  0  0  0  0  2  0  0  0  0  0  0
  191.2080  177.7580  141.8240 C   0  0  2  0  0  3  0  0  0  0  0  0
  190.5870  177.8230  139.3980 C   0  0  0  0  0  2  0  0  0  0  0  0
  192.9500  177.1200  140.1410 C   0  0  0  0  0  2  0  0  0  0  0  0
  190.5920  177.4340  143.4590 Cl  0  0  0  0  0  0  0  0  0  0  0  0
  190.0960  177.5230  140.8120 C   0  0  0  0  0  2  0  0  0  0  0  0
  191.8690  177.0590  139.0530 C   0  0  1  0  0  3  0  0  0  0  0  0
  1  2  1  1  0  0  0
  3 12  1  1  0  0  0
  3  4  1  0  0  0  0
  5  3  1  0  0  0  0
  5  1  1  6  0  0  0
  5  4  1  0  0  0  0
  7  6  1  6  0  0  0
  7 10  1  0  0  0  0
  9  8  1  6  0  0  0
  9  7  1  0  0  0  0
  9 10  1  0  0  0  0
 10  5  1  0  0  0  0
 10 11  1  1  0  0  0
 12 13  1  0  0  0  0
 13 18  1  0  0  0  0
 14 15  1  0  0  0  0
 14 13  1  0  0  0  0
 16 17  1  0  0  0  0
 17 15  1  0  0  0  0
 18 19  1  0  0  0  0
 19 20  1  0  0  0  0
 21 20  1  0  0  0  0
 21 22  1  0  0  0  0
 22 23  1  0  0  0  0
 24 23  1  6  0  0  0
 24 27  1  0  0  0  0
 25 24  1  0  0  0  0
 25 26  1  0  0  0  0
 27 28  1  6  0  0  0
 27 31  1  0  0  0  0
 30 31  2  0  0  0  0
 31 29  1  0  0  0  0
 32  1  1  0  0  0  0
 33 34  2  0  0  0  0
 34 32  1  0  0  0  0
 35 43  1  6  0  0  0
 35 42  1  0  0  0  0
 36 39  1  0  0  0  0
 38 34  1  6  0  0  0
 38 36  1  0  0  0  0
 39 41  1  6  0  0  0
 40 37  1  1  0  0  0
 40 38  1  0  0  0  0
 40 35  1  0  0  0  0
 42 39  1  0  0  0  0
 43 46  2  0  0  0  0
 44 50  1  0  0  0  0
 45 50  1  1  0  0  0
 45 48  1  0  0  0  0
 46 47  1  0  0  0  0
 48 47  1  6  0  0  0
 48 61  1  0  0  0  0
 49 52  1  6  0  0  0
 49 51  1  0  0  0  0
 51 53  1  6  0  0  0
 51 45  1  0  0  0  0
 53 46  1  0  0  0  0
 54 49  1  0  0  0  0
 54 44  1  0  0  0  0
 55 56  1  0  0  0  0
 56 59  1  1  0  0  0
 57 60  1  0  0  0  0
 58 55  1  0  0  0  0
 60 56  1  0  0  0  0
 61 57  1  1  0  0  0
 61 58  1  0  0  0  0
M  END
>  <MODEL>
2

>  <REMARK>
 VINA RESULT:      -5.0      2.359      9.554
  Name = 
  22 active torsions:
  status: ('A' for Active; 'I' for Inactive)
    1  A    between atoms: C_3  and  N_7
    2  A    between atoms: C_3  and  C_16
    3  A    between atoms: C_4  and  N_7
    4  A    between atoms: C_4  and  C_61
    5  A    between atoms: N_5  and  C_15
    6  A    between atoms: N_7  and  C_25
    7  A    between atoms: C_9  and  C_10
    8  A    between atoms: C_9  and  C_18
    9  A    between atoms: C_10  and  C_16
   10  A    between atoms: C_11  and  C_32
   11  A    between atoms: C_11  and  C_42
   12  A    between atoms: C_18  and  O_22
   13  A    between atoms: C_19  and  C_57
   14  A    between atoms: C_20  and  C_25
   15  A    between atoms: O_22  and  C_42
   16  A    between atoms: O_26  and  C_45
   17  A    between atoms: O_26  and  C_60
   18  A    between atoms: C_33  and  C_55
   19  A    between atoms: C_36  and  C_61
   20  A    between atoms: C_37  and  C_60
   21  A    between atoms: C_42  and  O_47
   22  A    between atoms: C_45  and  C_57
                            x       y       z     vdW  Elec       q    Type
                         _______ _______ _______ _____ _____    ______ ____

>  <TORSDO>
F 22

$$$$
=
 OpenBabel11042413183D

 61 66  0  0  1  0  0  0  0  0999 V2000
  183.0020  176.0510  138.7120 C   0  0  1  0  0  3  0  0  0  0  0  0
  182.7660  176.1320  140.2210 C   0  0  0  0  0  1  0  0  0  0  0  0
  181.0200  177.8120  138.4360 C   0  0  2  0  0  3  0  0  0  0  0  0
  180.6060  176.4730  138.3220 O   0  0  0  0  0  0  0  0  0  0  0  0
  181.9140  176.7560  137.8630 C   0  0  2  0  0  0  0  0  0  0  0  0
  180.1420  175.0410  136.4560 O   0  0  0  0  0  1  0  0  0  0  0  0
  180.9730  175.7560  135.5830 C   0  0  2  0  0  3  0  0  0  0  0  0
  182.5750  174.2820  136.6550 O   0  0  0  0  0  1  0  0  0  0  0  0
  182.4330  175.3040  135.7010 C   0  0  2  0  0  3  0  0  0  0  0  0
  181.9870  176.6250  136.3220 C   0  0  2  0  0  0  0  0  0  0  0  0
  182.4140  177.8360  135.5190 C   0  0  0  0  0  1  0  0  0  0  0  0
  181.2850  178.1330  139.9020 C   0  0  0  0  0  2  0  0  0  0  0  0
  180.0360  178.3950  140.6120 N   0  0  0  0  0  0  0  0  0  0  0  0
  179.3760  179.4580  139.8760 C   0  0  0  0  0  2  0  0  0  0  0  0
  179.7260  180.8000  140.4940 C   0  0  0  0  0  2  0  0  0  0  0  0
  180.3590  182.1540  138.4990 C   0  0  0  0  0  1  0  0  0  0  0  0
  179.3080  181.9250  139.5750 C   0  0  0  0  0  2  0  0  0  0  0  0
  180.3820  178.9440  141.9200 C   0  0  0  0  0  2  0  0  0  0  0  0
  181.8630  179.2900  141.9400 C   0  0  0  0  0  2  0  0  0  0  0  0
  182.4590  178.8700  143.2720 C   0  0  0  0  0  2  0  0  0  0  0  0
  183.8840  178.4080  143.0480 C   0  0  0  0  0  2  0  0  0  0  0  0
  184.6890  178.5900  144.3180 C   0  0  0  0  0  2  0  0  0  0  0  0
  185.5800  177.5220  144.4580 O   0  0  0  0  0  0  0  0  0  0  0  0
  186.4790  177.9190  145.4520 C   0  0  2  0  0  3  0  0  0  0  0  0
  186.0870  179.1680  145.9480 O   0  0  0  0  0  0  0  0  0  0  0  0
  185.9350  178.9770  147.3200 C   0  0  0  0  0  1  0  0  0  0  0  0
  187.8900  178.0070  144.8740 C   0  0  2  0  0  3  0  0  0  0  0  0
  187.9600  177.2900  143.6820 O   0  0  0  0  0  1  0  0  0  0  0  0
  190.2700  177.5600  145.5440 O   0  0  0  0  0  0  0  0  0  0  0  0
  188.5240  176.9110  146.9090 O   0  0  0  0  0  1  0  0  0  0  0  0
  188.9060  177.4630  145.8330 C   0  0  0  0  0  0  0  0  0  0  0  0
  184.2850  176.5530  138.3630 O   0  0  0  0  0  0  0  0  0  0  0  0
  184.3060  178.3000  139.8800 O   0  0  0  0  0  0  0  0  0  0  0  0
  184.7900  177.7620  138.8470 C   0  0  0  0  0  0  0  0  0  0  0  0
  188.4840  178.4690  138.0330 C   0  0  2  0  0  3  0  0  0  0  0  0
  185.9010  178.1070  136.6660 C   0  0  0  0  0  2  0  0  0  0  0  0
  187.3330  178.2380  140.1270 O   0  0  0  0  0  1  0  0  0  0  0  0
  185.9560  178.3990  138.1680 C   0  0  2  0  0  3  0  0  0  0  0  0
  187.1040  178.7240  135.9600 C   0  0  2  0  0  3  0  0  0  0  0  0
  187.2720  177.8860  138.7760 C   0  0  1  0  0  3  0  0  0  0  0  0
  187.0400  178.4360  134.5970 O   0  0  0  0  0  1  0  0  0  0  0  0
  188.3950  178.1550  136.5410 C   0  0  0  0  0  2  0  0  0  0  0  0
  189.7180  177.9140  138.5690 N   0  0  0  0  0  0  0  0  0  0  0  0
  193.4750  173.3790  136.5620 C   0  0  0  0  0  2  0  0  0  0  0  0
  191.8590  174.9490  136.6310 C   0  0  1  0  0  3  0  0  0  0  0  0
  190.4090  177.0110  137.9380 C   0  0  0  0  0  0  0  0  0  0  0  0
  189.9400  176.4740  136.7240 O   0  0  0  0  0  0  0  0  0  0  0  0
  190.7140  175.6250  135.8660 C   0  0  2  0  0  3  0  0  0  0  0  0
  193.9800  175.5010  137.9040 C   0  0  1  0  0  3  0  0  0  0  0  0
  192.7770  174.3230  135.7750 O   0  0  0  0  0  0  0  0  0  0  0  0
  192.5970  176.0110  137.4420 C   0  0  2  0  0  3  0  0  0  0  0  0
  194.3180  175.9630  139.1780 O   0  0  0  0  0  1  0  0  0  0  0  0
  191.6840  176.5140  138.5480 C   0  0  0  0  0  2  0  0  0  0  0  0
  194.1140  173.9760  137.8370 C   0  0  0  0  0  2  0  0  0  0  0  0
  187.3750  175.0290  135.9530 C   0  0  0  0  0  2  0  0  0  0  0  0
  187.3100  173.5660  136.3680 C   0  0  2  0  0  3  0  0  0  0  0  0
  189.7230  173.2420  135.7790 C   0  0  0  0  0  2  0  0  0  0  0  0
  188.3780  175.2140  134.8130 C   0  0  0  0  0  2  0  0  0  0  0  0
  186.1050  173.3680  137.6590 Cl  0  0  0  0  0  0  0  0  0  0  0  0
  188.6710  173.1140  136.8770 C   0  0  0  0  0  2  0  0  0  0  0  0
  189.7590  174.6470  135.1700 C   0  0  1  0  0  3  0  0  0  0  0  0
  1  2  1  1  0  0  0
  3 12  1  1  0  0  0
  4  3  1  0  0  0  0
  5  4  1  0  0  0  0
  5  3  1  0  0  0  0
  5  1  1  1  0  0  0
  7  9  1  0  0  0  0
  7 10  1  0  0  0  0
  7  6  1  1  0  0  0
  9 10  1  0  0  0  0
  9  8  1  1  0  0  0
 10 11  1  6  0  0  0
 10  5  1  0  0  0  0
 12 13  1  0  0  0  0
 13 18  1  0  0  0  0
 14 15  1  0  0  0  0
 14 13  1  0  0  0  0
 16 17  1  0  0  0  0
 17 15  1  0  0  0  0
 18 19  1  0  0  0  0
 19 20  1  0  0  0  0
 21 20  1  0  0  0  0
 21 22  1  0  0  0  0
 22 23  1  0  0  0  0
 24 23  1  6  0  0  0
 24 25  1  0  0  0  0
 25 26  1  0  0  0  0
 27 28  1  6  0  0  0
 27 24  1  0  0  0  0
 27 31  1  0  0  0  0
 29 31  2  0  0  0  0
 31 30  1  0  0  0  0
 32  1  1  0  0  0  0
 32 34  1  0  0  0  0
 34 33  2  0  0  0  0
 35 43  1  1  0  0  0
 35 40  1  0  0  0  0
 36 38  1  0  0  0  0
 38 40  1  0  0  0  0
 38 34  1  1  0  0  0
 39 41  1  6  0  0  0
 39 42  1  0  0  0  0
 39 36  1  0  0  0  0
 40 37  1  1  0  0  0
 42 35  1  0  0  0  0
 44 54  1  0  0  0  0
 45 50  1  6  0  0  0
 45 51  1  0  0  0  0
 46 53  1  0  0  0  0
 46 43  2  0  0  0  0
 47 46  1  0  0  0  0
 48 45  1  0  0  0  0
 48 47  1  1  0  0  0
 49 52  1  1  0  0  0
 50 44  1  0  0  0  0
 51 49  1  0  0  0  0
 51 53  1  1  0  0  0
 54 49  1  0  0  0  0
 55 56  1  0  0  0  0
 56 60  1  0  0  0  0
 56 59  1  1  0  0  0
 57 60  1  0  0  0  0
 58 55  1  0  0  0  0
 61 58  1  1  0  0  0
 61 57  1  0  0  0  0
 61 48  1  0  0  0  0
M  END
>  <MODEL>
3

>  <REMARK>
 VINA RESULT:      -4.4      2.725     10.081
  Name = 
  22 active torsions:
  status: ('A' for Active; 'I' for Inactive)
    1  A    between atoms: C_3  and  N_7
    2  A    between atoms: C_3  and  C_16
    3  A    between atoms: C_4  and  N_7
    4  A    between atoms: C_4  and  C_61
    5  A    between atoms: N_5  and  C_15
    6  A    between atoms: N_7  and  C_25
    7  A    between atoms: C_9  and  C_10
    8  A    between atoms: C_9  and  C_18
    9  A    between atoms: C_10  and  C_16
   10  A    between atoms: C_11  and  C_32
   11  A    between atoms: C_11  and  C_42
   12  A    between atoms: C_18  and  O_22
   13  A    between atoms: C_19  and  C_57
   14  A    between atoms: C_20  and  C_25
   15  A    between atoms: O_22  and  C_42
   16  A    between atoms: O_26  and  C_45
   17  A    between atoms: O_26  and  C_60
   18  A    between atoms: C_33  and  C_55
   19  A    between atoms: C_36  and  C_61
   20  A    between atoms: C_37  and  C_60
   21  A    between atoms: C_42  and  O_47
   22  A    between atoms: C_45  and  C_57
                            x       y       z     vdW  Elec       q    Type
                         _______ _______ _______ _____ _____    ______ ____

>  <TORSDO>
F 22

$$$$
=
 OpenBabel11042413183D

 61 66  0  0  1  0  0  0  0  0999 V2000
  183.8970  178.0530  138.9670 C   0  0  1  0  0  3  0  0  0  0  0  0
  183.9330  179.5800  138.8790 C   0  0  0  0  0  1  0  0  0  0  0  0
  181.7440  177.6340  140.4840 C   0  0  2  0  0  3  0  0  0  0  0  0
  182.4640  176.4620  140.1870 O   0  0  0  0  0  0  0  0  0  0  0  0
  182.4800  177.4660  139.1900 C   0  0  2  0  0  0  0  0  0  0  0  0
  181.5300  179.3510  137.2910 O   0  0  0  0  0  1  0  0  0  0  0  0
  181.2400  178.0350  136.9050 C   0  0  2  0  0  3  0  0  0  0  0  0
  179.7930  178.2890  138.8370 O   0  0  0  0  0  1  0  0  0  0  0  0
  180.1990  177.3950  137.8310 C   0  0  2  0  0  3  0  0  0  0  0  0
  181.6710  177.0100  137.9500 C   0  0  2  0  0  0  0  0  0  0  0  0
  181.9840  175.6570  137.3470 C   0  0  0  0  0  1  0  0  0  0  0  0
  182.5010  178.4340  141.5370 C   0  0  0  0  0  2  0  0  0  0  0  0
  181.7120  178.5610  142.7590 N   0  0  0  0  0  0  0  0  0  0  0  0
  181.0380  179.8440  142.6670 C   0  0  0  0  0  2  0  0  0  0  0  0
  179.5350  179.6350  142.7090 C   0  0  0  0  0  2  0  0  0  0  0  0
  179.3090  181.2890  140.8590 C   0  0  0  0  0  1  0  0  0  0  0  0
  178.9310  179.9000  141.3480 C   0  0  0  0  0  2  0  0  0  0  0  0
  182.6480  178.6600  143.8770 C   0  0  0  0  0  2  0  0  0  0  0  0
  183.9970  179.1320  143.3570 C   0  0  0  0  0  2  0  0  0  0  0  0
  185.0400  178.9780  144.4500 C   0  0  0  0  0  2  0  0  0  0  0  0
  185.5980  177.5710  144.4040 C   0  0  0  0  0  2  0  0  0  0  0  0
  186.8160  177.5310  143.5050 C   0  0  0  0  0  2  0  0  0  0  0  0
  187.8370  178.2970  144.0750 O   0  0  0  0  0  0  0  0  0  0  0  0
  188.6740  177.3780  144.7130 C   0  0  2  0  0  3  0  0  0  0  0  0
  188.6240  177.5970  146.0950 O   0  0  0  0  0  0  0  0  0  0  0  0
  189.9410  177.4550  146.5280 C   0  0  0  0  0  1  0  0  0  0  0  0
  190.1070  177.5410  144.2100 C   0  0  2  0  0  3  0  0  0  0  0  0
  190.1560  178.5250  143.2270 O   0  0  0  0  0  1  0  0  0  0  0  0
  189.8320  175.4700  142.8120 O   0  0  0  0  0  0  0  0  0  0  0  0
  191.8140  175.8830  143.9230 O   0  0  0  0  0  1  0  0  0  0  0  0
  190.6350  176.2570  143.6440 C   0  0  0  0  0  0  0  0  0  0  0  0
  184.4900  177.4560  137.8210 O   0  0  0  0  0  0  0  0  0  0  0  0
  185.9150  175.6360  137.9340 O   0  0  0  0  0  0  0  0  0  0  0  0
  185.7650  176.8840  137.8320 C   0  0  0  0  0  0  0  0  0  0  0  0
  189.4310  178.0010  138.1870 C   0  0  2  0  0  3  0  0  0  0  0  0
  187.2820  177.9160  136.1750 C   0  0  0  0  0  2  0  0  0  0  0  0
  187.8800  177.1000  139.7840 O   0  0  0  0  0  1  0  0  0  0  0  0
  186.9650  177.7550  137.6640 C   0  0  2  0  0  3  0  0  0  0  0  0
  188.5260  178.7790  135.9870 C   0  0  2  0  0  3  0  0  0  0  0  0
  188.1660  177.1590  138.4170 C   0  0  1  0  0  3  0  0  0  0  0  0
  188.8030  178.9020  134.6250 O   0  0  0  0  0  1  0  0  0  0  0  0
  189.7160  178.1360  136.6930 C   0  0  0  0  0  2  0  0  0  0  0  0
  190.5740  177.3810  138.8420 N   0  0  0  0  0  0  0  0  0  0  0  0
  194.6750  173.1130  136.9230 C   0  0  0  0  0  2  0  0  0  0  0  0
  193.0420  174.6680  136.9240 C   0  0  1  0  0  3  0  0  0  0  0  0
  191.3710  176.5590  138.2240 C   0  0  0  0  0  0  0  0  0  0  0  0
  191.1080  176.1760  136.8950 O   0  0  0  0  0  0  0  0  0  0  0  0
  192.0210  175.4350  136.0750 C   0  0  2  0  0  3  0  0  0  0  0  0
  194.9260  175.0540  138.5750 C   0  0  1  0  0  3  0  0  0  0  0  0
  194.0940  174.1480  136.1550 O   0  0  0  0  0  0  0  0  0  0  0  0
  193.6260  175.6210  137.9640 C   0  0  2  0  0  3  0  0  0  0  0  0
  195.0510  175.3570  139.9330 O   0  0  0  0  0  1  0  0  0  0  0  0
  192.5410  175.9880  138.9640 C   0  0  0  0  0  2  0  0  0  0  0  0
  195.0940  173.5490  138.3470 C   0  0  0  0  0  2  0  0  0  0  0  0
  188.7250  174.7800  135.6130 C   0  0  0  0  0  2  0  0  0  0  0  0
  188.6560  173.2710  135.8060 C   0  0  2  0  0  3  0  0  0  0  0  0
  191.1370  173.0740  135.5180 C   0  0  0  0  0  2  0  0  0  0  0  0
  189.8650  175.1420  134.6610 C   0  0  0  0  0  2  0  0  0  0  0  0
  187.2950  172.8710  136.8770 Cl  0  0  0  0  0  0  0  0  0  0  0  0
  189.9510  172.7730  136.4310 C   0  0  0  0  0  2  0  0  0  0  0  0
  191.2040  174.5520  135.1220 C   0  0  1  0  0  3  0  0  0  0  0  0
  1  2  1  6  0  0  0
  3 12  1  1  0  0  0
  4  3  1  0  0  0  0
  5  1  1  6  0  0  0
  5  4  1  0  0  0  0
  5  3  1  0  0  0  0
  7  6  1  1  0  0  0
  7  9  1  0  0  0  0
  7 10  1  0  0  0  0
  9 10  1  0  0  0  0
  9  8  1  1  0  0  0
 10 11  1  6  0  0  0
 10  5  1  0  0  0  0
 12 13  1  0  0  0  0
 13 18  1  0  0  0  0
 14 15  1  0  0  0  0
 14 13  1  0  0  0  0
 16 17  1  0  0  0  0
 17 15  1  0  0  0  0
 19 18  1  0  0  0  0
 19 20  1  0  0  0  0
 21 20  1  0  0  0  0
 22 23  1  0  0  0  0
 22 21  1  0  0  0  0
 24 23  1  6  0  0  0
 24 25  1  0  0  0  0
 25 26  1  0  0  0  0
 27 28  1  6  0  0  0
 27 24  1  0  0  0  0
 29 31  2  0  0  0  0
 31 30  1  0  0  0  0
 31 27  1  0  0  0  0
 32 34  1  0  0  0  0
 32  1  1  0  0  0  0
 34 33  2  0  0  0  0
 35 40  1  0  0  0  0
 35 43  1  1  0  0  0
 36 38  1  0  0  0  0
 38 34  1  6  0  0  0
 38 40  1  0  0  0  0
 39 41  1  6  0  0  0
 39 36  1  0  0  0  0
 39 42  1  0  0  0  0
 40 37  1  1  0  0  0
 42 35  1  0  0  0  0
 44 54  1  0  0  0  0
 45 50  1  6  0  0  0
 45 51  1  0  0  0  0
 46 43  2  0  0  0  0
 46 53  1  0  0  0  0
 47 46  1  0  0  0  0
 48 47  1  1  0  0  0
 48 45  1  0  0  0  0
 49 52  1  1  0  0  0
 50 44  1  0  0  0  0
 51 49  1  0  0  0  0
 51 53  1  1  0  0  0
 54 49  1  0  0  0  0
 55 56  1  0  0  0  0
 56 60  1  0  0  0  0
 56 59  1  1  0  0  0
 57 60  1  0  0  0  0
 58 55  1  0  0  0  0
 61 58  1  1  0  0  0
 61 57  1  0  0  0  0
 61 48  1  0  0  0  0
M  END
>  <MODEL>
4

>  <REMARK>
 VINA RESULT:      -4.3      2.899     10.549
  Name = 
  22 active torsions:
  status: ('A' for Active; 'I' for Inactive)
    1  A    between atoms: C_3  and  N_7
    2  A    between atoms: C_3  and  C_16
    3  A    between atoms: C_4  and  N_7
    4  A    between atoms: C_4  and  C_61
    5  A    between atoms: N_5  and  C_15
    6  A    between atoms: N_7  and  C_25
    7  A    between atoms: C_9  and  C_10
    8  A    between atoms: C_9  and  C_18
    9  A    between atoms: C_10  and  C_16
   10  A    between atoms: C_11  and  C_32
   11  A    between atoms: C_11  and  C_42
   12  A    between atoms: C_18  and  O_22
   13  A    between atoms: C_19  and  C_57
   14  A    between atoms: C_20  and  C_25
   15  A    between atoms: O_22  and  C_42
   16  A    between atoms: O_26  and  C_45
   17  A    between atoms: O_26  and  C_60
   18  A    between atoms: C_33  and  C_55
   19  A    between atoms: C_36  and  C_61
   20  A    between atoms: C_37  and  C_60
   21  A    between atoms: C_42  and  O_47
   22  A    between atoms: C_45  and  C_57
                            x       y       z     vdW  Elec       q    Type
                         _______ _______ _______ _____ _____    ______ ____

>  <TORSDO>
F 22

$$$$
=
 OpenBabel11042413183D

 61 66  0  0  1  0  0  0  0  0999 V2000
  186.6020  177.5240  142.3900 C   0  0  1  0  0  3  0  0  0  0  0  0
  187.2620  176.6260  143.4360 C   0  0  0  0  0  1  0  0  0  0  0  0
  184.1950  178.6180  142.0420 C   0  0  2  0  0  3  0  0  0  0  0  0
  185.2170  179.5590  142.2680 O   0  0  0  0  0  0  0  0  0  0  0  0
  185.3730  178.3100  142.9140 C   0  0  2  0  0  0  0  0  0  0  0  0
  182.8110  178.7240  144.0650 O   0  0  0  0  0  1  0  0  0  0  0  0
  183.8070  178.6130  145.0450 C   0  0  2  0  0  3  0  0  0  0  0  0
  184.3960  180.7300  144.0140 O   0  0  0  0  0  1  0  0  0  0  0  0
  184.7600  179.8140  145.0160 C   0  0  2  0  0  3  0  0  0  0  0  0
  185.2030  178.4690  144.4450 C   0  0  2  0  0  0  0  0  0  0  0  0
  186.1550  177.7210  145.3550 C   0  0  0  0  0  1  0  0  0  0  0  0
  184.3100  178.0830  140.6200 C   0  0  0  0  0  2  0  0  0  0  0  0
  183.8320  179.0680  139.6540 N   0  0  0  0  0  0  0  0  0  0  0  0
  182.4090  179.2130  139.9040 C   0  0  0  0  0  2  0  0  0  0  0  0
  181.6630  179.2830  138.5830 C   0  0  0  0  0  2  0  0  0  0  0  0
  181.1890  181.6450  137.9460 C   0  0  0  0  0  1  0  0  0  0  0  0
  180.6400  180.3950  138.6170 C   0  0  0  0  0  2  0  0  0  0  0  0
  183.9650  178.4780  138.3240 C   0  0  0  0  0  2  0  0  0  0  0  0
  184.8060  177.2150  138.4200 C   0  0  0  0  0  2  0  0  0  0  0  0
  184.2820  176.1860  137.4340 C   0  0  0  0  0  2  0  0  0  0  0  0
  185.2990  175.0720  137.2990 C   0  0  0  0  0  2  0  0  0  0  0  0
  186.7000  175.6410  137.3910 C   0  0  0  0  0  2  0  0  0  0  0  0
  187.2510  175.7190  136.1080 O   0  0  0  0  0  0  0  0  0  0  0  0
  188.6090  175.4310  136.2730 C   0  0  2  0  0  3  0  0  0  0  0  0
  189.2550  175.5540  135.0370 O   0  0  0  0  0  0  0  0  0  0  0  0
  190.5670  175.9040  135.3520 C   0  0  0  0  0  1  0  0  0  0  0  0
  188.7800  174.0130  136.8130 C   0  0  2  0  0  3  0  0  0  0  0  0
  190.0480  173.8660  137.3690 O   0  0  0  0  0  1  0  0  0  0  0  0
  189.7120  172.4470  135.0820 O   0  0  0  0  0  0  0  0  0  0  0  0
  187.4310  172.6250  135.3990 O   0  0  0  0  0  1  0  0  0  0  0  0
  188.5990  172.9930  135.7300 C   0  0  0  0  0  0  0  0  0  0  0  0
  187.5410  178.4260  141.8180 O   0  0  0  0  0  0  0  0  0  0  0  0
  187.9050  178.6110  139.5400 O   0  0  0  0  0  0  0  0  0  0  0  0
  188.2620  178.1420  140.6550 C   0  0  0  0  0  0  0  0  0  0  0  0
  191.8370  176.9950  139.8100 C   0  0  2  0  0  3  0  0  0  0  0  0
  190.0970  177.4240  142.1470 C   0  0  0  0  0  2  0  0  0  0  0  0
  189.9840  177.5940  138.4050 O   0  0  0  0  0  1  0  0  0  0  0  0
  189.5030  177.3190  140.7400 C   0  0  2  0  0  3  0  0  0  0  0  0
  191.3860  176.6130  142.2430 C   0  0  2  0  0  3  0  0  0  0  0  0
  190.5210  177.7780  139.6820 C   0  0  1  0  0  3  0  0  0  0  0  0
  191.9150  176.7320  143.5270 O   0  0  0  0  0  1  0  0  0  0  0  0
  192.3990  177.1260  141.2240 C   0  0  0  0  0  2  0  0  0  0  0  0
  192.8150  177.4950  138.8540 N   0  0  0  0  0  0  0  0  0  0  0  0
  196.5160  174.6080  134.7700 C   0  0  0  0  0  2  0  0  0  0  0  0
  194.8750  175.0100  136.2640 C   0  0  1  0  0  3  0  0  0  0  0  0
  193.4310  176.7160  138.0140 C   0  0  0  0  0  0  0  0  0  0  0  0
  193.2240  175.3240  138.0500 O   0  0  0  0  0  0  0  0  0  0  0  0
  193.7040  174.4120  137.0530 C   0  0  2  0  0  3  0  0  0  0  0  0
  195.4290  176.9250  134.6990 C   0  0  1  0  0  3  0  0  0  0  0  0
  195.1930  174.2560  135.1250 O   0  0  0  0  0  0  0  0  0  0  0  0
  194.4950  176.4210  135.8200 C   0  0  2  0  0  3  0  0  0  0  0  0
  195.7010  178.2910  134.8090 O   0  0  0  0  0  1  0  0  0  0  0  0
  194.4010  177.3180  137.0450 C   0  0  0  0  0  2  0  0  0  0  0  0
  196.7330  176.1290  134.5950 C   0  0  0  0  0  2  0  0  0  0  0  0
  196.5270  172.6720  137.7650 C   0  0  0  0  0  2  0  0  0  0  0  0
  196.2910  171.3490  137.0510 C   0  0  2  0  0  3  0  0  0  0  0  0
  193.8430  171.8420  136.8470 C   0  0  0  0  0  2  0  0  0  0  0  0
  195.2980  173.0590  138.5880 C   0  0  0  0  0  2  0  0  0  0  0  0
  197.7480  170.8970  136.1400 Cl  0  0  0  0  0  0  0  0  0  0  0  0
  195.1190  171.4850  136.0890 C   0  0  0  0  0  2  0  0  0  0  0  0
  194.0220  173.0760  137.7370 C   0  0  1  0  0  3  0  0  0  0  0  0
  1  2  1  1  0  0  0
  3 12  1  6  0  0  0
  3  4  1  0  0  0  0
  3  5  1  0  0  0  0
  4  5  1  0  0  0  0
  5  1  1  6  0  0  0
  5 10  1  0  0  0  0
  7  6  1  6  0  0  0
  9  8  1  6  0  0  0
  9  7  1  0  0  0  0
 10  9  1  0  0  0  0
 10  7  1  0  0  0  0
 10 11  1  1  0  0  0
 13 14  1  0  0  0  0
 13 12  1  0  0  0  0
 15 17  1  0  0  0  0
 15 14  1  0  0  0  0
 16 17  1  0  0  0  0
 18 19  1  0  0  0  0
 18 13  1  0  0  0  0
 20 19  1  0  0  0  0
 21 22  1  0  0  0  0
 21 20  1  0  0  0  0
 23 24  1  0  0  0  0
 23 22  1  0  0  0  0
 24 25  1  6  0  0  0
 24 27  1  0  0  0  0
 25 26  1  0  0  0  0
 27 28  1  6  0  0  0
 29 31  2  0  0  0  0
 30 31  1  0  0  0  0
 31 27  1  0  0  0  0
 32  1  1  0  0  0  0
 33 34  2  0  0  0  0
 34 32  1  0  0  0  0
 35 43  1  6  0  0  0
 35 42  1  0  0  0  0
 36 39  1  0  0  0  0
 38 34  1  1  0  0  0
 38 36  1  0  0  0  0
 39 41  1  1  0  0  0
 40 37  1  6  0  0  0
 40 35  1  0  0  0  0
 40 38  1  0  0  0  0
 42 39  1  0  0  0  0
 44 50  1  0  0  0  0
 45 50  1  6  0  0  0
 45 48  1  0  0  0  0
 46 47  1  0  0  0  0
 46 43  2  0  0  0  0
 48 61  1  0  0  0  0
 48 47  1  1  0  0  0
 49 52  1  1  0  0  0
 49 51  1  0  0  0  0
 51 45  1  0  0  0  0
 51 53  1  1  0  0  0
 53 46  1  0  0  0  0
 54 49  1  0  0  0  0
 54 44  1  0  0  0  0
 55 58  1  0  0  0  0
 56 59  1  6  0  0  0
 56 55  1  0  0  0  0
 60 57  1  0  0  0  0
 60 56  1  0  0  0  0
 61 57  1  6  0  0  0
 61 58  1  0  0  0  0
M  END
>  <MODEL>
5

>  <REMARK>
 VINA RESULT:      -3.8      3.608     10.128
  Name = 
  22 active torsions:
  status: ('A' for Active; 'I' for Inactive)
    1  A    between atoms: C_3  and  N_7
    2  A    between atoms: C_3  and  C_16
    3  A    between atoms: C_4  and  N_7
    4  A    between atoms: C_4  and  C_61
    5  A    between atoms: N_5  and  C_15
    6  A    between atoms: N_7  and  C_25
    7  A    between atoms: C_9  and  C_10
    8  A    between atoms: C_9  and  C_18
    9  A    between atoms: C_10  and  C_16
   10  A    between atoms: C_11  and  C_32
   11  A    between atoms: C_11  and  C_42
   12  A    between atoms: C_18  and  O_22
   13  A    between atoms: C_19  and  C_57
   14  A    between atoms: C_20  and  C_25
   15  A    between atoms: O_22  and  C_42
   16  A    between atoms: O_26  and  C_45
   17  A    between atoms: O_26  and  C_60
   18  A    between atoms: C_33  and  C_55
   19  A    between atoms: C_36  and  C_61
   20  A    between atoms: C_37  and  C_60
   21  A    between atoms: C_42  and  O_47
   22  A    between atoms: C_45  and  C_57
                            x       y       z     vdW  Elec       q    Type
                         _______ _______ _______ _____ _____    ______ ____

>  <TORSDO>
F 22

$$$$
=
 OpenBabel11042413183D

 61 66  0  0  1  0  0  0  0  0999 V2000
  190.0090  178.3150  142.6560 C   0  0  1  0  0  3  0  0  0  0  0  0
  189.8530  179.8340  142.5790 C   0  0  0  0  0  1  0  0  0  0  0  0
  187.8430  177.1800  143.7180 C   0  0  2  0  0  3  0  0  0  0  0  0
  188.1530  178.4350  144.2720 O   0  0  0  0  0  0  0  0  0  0  0  0
  189.2560  177.6600  143.8420 C   0  0  2  0  0  0  0  0  0  0  0  0
  192.0750  177.9860  143.9150 O   0  0  0  0  0  1  0  0  0  0  0  0
  191.5860  177.4320  145.1070 C   0  0  2  0  0  3  0  0  0  0  0  0
  191.1920  175.6160  143.5460 O   0  0  0  0  0  1  0  0  0  0  0  0
  191.0550  176.0100  144.8870 C   0  0  2  0  0  3  0  0  0  0  0  0
  190.0830  177.1750  145.0580 C   0  0  2  0  0  0  0  0  0  0  0  0
  189.4380  177.2170  146.4270 C   0  0  0  0  0  1  0  0  0  0  0  0
  187.2310  177.3780  142.3360 C   0  0  0  0  0  2  0  0  0  0  0  0
  186.0370  178.2150  142.4120 N   0  0  0  0  0  0  0  0  0  0  0  0
  185.2540  177.6940  143.5190 C   0  0  0  0  0  2  0  0  0  0  0  0
  184.6280  178.8440  144.2870 C   0  0  0  0  0  2  0  0  0  0  0  0
  182.3460  179.0950  143.3160 C   0  0  0  0  0  1  0  0  0  0  0  0
  183.1530  178.5890  144.5020 C   0  0  0  0  0  2  0  0  0  0  0  0
  185.2570  177.9770  141.2000 C   0  0  0  0  0  2  0  0  0  0  0  0
  185.4640  179.1360  140.2380 C   0  0  0  0  0  2  0  0  0  0  0  0
  184.3970  179.0900  139.1570 C   0  0  0  0  0  2  0  0  0  0  0  0
  183.1150  178.5490  139.7550 C   0  0  0  0  0  2  0  0  0  0  0  0
  182.2370  177.9810  138.6600 C   0  0  0  0  0  2  0  0  0  0  0  0
  181.5470  179.0230  138.0330 O   0  0  0  0  0  0  0  0  0  0  0  0
  180.5690  179.4210  138.9490 C   0  0  2  0  0  3  0  0  0  0  0  0
  179.3820  178.7310  138.6770 O   0  0  0  0  0  0  0  0  0  0  0  0
  179.1860  178.8810  137.3050 C   0  0  0  0  0  1  0  0  0  0  0  0
  180.3350  180.9260  138.8420 C   0  0  2  0  0  3  0  0  0  0  0  0
  181.5400  181.5780  138.5970 O   0  0  0  0  0  1  0  0  0  0  0  0
  179.3790  182.8250  140.1820 O   0  0  0  0  0  0  0  0  0  0  0  0
  179.5330  180.7070  141.0900 O   0  0  0  0  0  1  0  0  0  0  0  0
  179.7280  181.4740  140.0990 C   0  0  0  0  0  0  0  0  0  0  0  0
  189.6190  177.6940  141.4370 O   0  0  0  0  0  0  0  0  0  0  0  0
  191.6840  177.1500  140.5460 O   0  0  0  0  0  0  0  0  0  0  0  0
  190.4900  177.5110  140.3600 C   0  0  0  0  0  0  0  0  0  0  0  0
  188.3670  176.8200  137.2260 C   0  0  2  0  0  3  0  0  0  0  0  0
  189.3730  179.0860  138.8160 C   0  0  0  0  0  2  0  0  0  0  0  0
  189.5650  175.3440  138.6940 O   0  0  0  0  0  1  0  0  0  0  0  0
  189.9870  177.6910  138.9670 C   0  0  2  0  0  3  0  0  0  0  0  0
  188.8240  179.2750  137.4050 C   0  0  2  0  0  3  0  0  0  0  0  0
  188.9570  176.6010  138.6280 C   0  0  1  0  0  3  0  0  0  0  0  0
  188.2600  180.5450  137.2940 O   0  0  0  0  0  1  0  0  0  0  0  0
  187.7620  178.2170  137.1150 C   0  0  0  0  0  2  0  0  0  0  0  0
  187.3380  175.8270  136.9520 N   0  0  0  0  0  0  0  0  0  0  0  0
  187.6080  170.0760  134.5940 C   0  0  0  0  0  2  0  0  0  0  0  0
  188.2110  172.0530  135.4930 C   0  0  1  0  0  3  0  0  0  0  0  0
  187.6190  174.6290  136.5320 C   0  0  0  0  0  0  0  0  0  0  0  0
  188.9510  174.2660  136.2510 O   0  0  0  0  0  0  0  0  0  0  0  0
  189.3780  172.9270  135.9700 C   0  0  2  0  0  3  0  0  0  0  0  0
  185.9920  171.1190  136.2840 C   0  0  1  0  0  3  0  0  0  0  0  0
  188.5420  170.6900  135.4590 O   0  0  0  0  0  0  0  0  0  0  0  0
  187.0370  172.2440  136.4500 C   0  0  2  0  0  3  0  0  0  0  0  0
  184.6830  171.5820  136.4390 O   0  0  0  0  0  1  0  0  0  0  0  0
  186.5010  173.6590  136.3020 C   0  0  0  0  0  2  0  0  0  0  0  0
  186.1330  170.3540  134.9640 C   0  0  0  0  0  2  0  0  0  0  0  0
  192.7520  172.6720  136.2190 C   0  0  0  0  0  2  0  0  0  0  0  0
  193.2280  174.0030  135.6540 C   0  0  2  0  0  3  0  0  0  0  0  0
  190.9900  174.4120  134.6050 C   0  0  0  0  0  2  0  0  0  0  0  0
  191.7190  172.0390  135.2870 C   0  0  0  0  0  2  0  0  0  0  0  0
  194.4620  174.6970  136.7290 Cl  0  0  0  0  0  0  0  0  0  0  0  0
  192.0550  174.9670  135.5480 C   0  0  0  0  0  2  0  0  0  0  0  0
  190.5560  172.9940  134.9890 C   0  0  1  0  0  3  0  0  0  0  0  0
  1  2  1  6  0  0  0
  3 12  1  6  0  0  0
  3  5  1  0  0  0  0
  3  4  1  0  0  0  0
  5  1  1  6  0  0  0
  5  4  1  0  0  0  0
  5 10  1  0  0  0  0
  7  6  1  6  0  0  0
  9  8  1  6  0  0  0
  9 10  1  0  0  0  0
  9  7  1  0  0  0  0
 10  7  1  0  0  0  0
 10 11  1  1  0  0  0
 12 13  1  0  0  0  0
 13 14  1  0  0  0  0
 14 15  1  0  0  0  0
 15 17  1  0  0  0  0
 16 17  1  0  0  0  0
 18 13  1  0  0  0  0
 19 18  1  0  0  0  0
 20 21  1  0  0  0  0
 20 19  1  0  0  0  0
 22 21  1  0  0  0  0
 23 22  1  0  0  0  0
 24 23  1  6  0  0  0
 25 24  1  0  0  0  0
 26 25  1  0  0  0  0
 27 28  1  1  0  0  0
 27 24  1  0  0  0  0
 27 31  1  0  0  0  0
 31 29  2  0  0  0  0
 31 30  1  0  0  0  0
 32  1  1  0  0  0  0
 34 33  2  0  0  0  0
 34 32  1  0  0  0  0
 35 43  1  1  0  0  0
 35 40  1  0  0  0  0
 36 38  1  0  0  0  0
 38 34  1  1  0  0  0
 39 41  1  1  0  0  0
 39 36  1  0  0  0  0
 40 37  1  6  0  0  0
 40 38  1  0  0  0  0
 42 35  1  0  0  0  0
 42 39  1  0  0  0  0
 44 54  1  0  0  0  0
 44 50  1  0  0  0  0
 45 50  1  1  0  0  0
 45 48  1  0  0  0  0
 45 51  1  0  0  0  0
 46 43  2  0  0  0  0
 47 46  1  0  0  0  0
 48 47  1  6  0  0  0
 49 52  1  6  0  0  0
 49 51  1  0  0  0  0
 51 53  1  6  0  0  0
 53 46  1  0  0  0  0
 54 49  1  0  0  0  0
 56 55  1  0  0  0  0
 56 59  1  1  0  0  0
 57 60  1  0  0  0  0
 58 55  1  0  0  0  0
 60 56  1  0  0  0  0
 61 57  1  1  0  0  0
 61 58  1  0  0  0  0
 61 48  1  0  0  0  0
M  END
>  <MODEL>
6

>  <REMARK>
 VINA RESULT:      -3.6      2.894      8.579
  Name = 
  22 active torsions:
  status: ('A' for Active; 'I' for Inactive)
    1  A    between atoms: C_3  and  N_7
    2  A    between atoms: C_3  and  C_16
    3  A    between atoms: C_4  and  N_7
    4  A    between atoms: C_4  and  C_61
    5  A    between atoms: N_5  and  C_15
    6  A    between atoms: N_7  and  C_25
    7  A    between atoms: C_9  and  C_10
    8  A    between atoms: C_9  and  C_18
    9  A    between atoms: C_10  and  C_16
   10  A    between atoms: C_11  and  C_32
   11  A    between atoms: C_11  and  C_42
   12  A    between atoms: C_18  and  O_22
   13  A    between atoms: C_19  and  C_57
   14  A    between atoms: C_20  and  C_25
   15  A    between atoms: O_22  and  C_42
   16  A    between atoms: O_26  and  C_45
   17  A    between atoms: O_26  and  C_60
   18  A    between atoms: C_33  and  C_55
   19  A    between atoms: C_36  and  C_61
   20  A    between atoms: C_37  and  C_60
   21  A    between atoms: C_42  and  O_47
   22  A    between atoms: C_45  and  C_57
                            x       y       z     vdW  Elec       q    Type
                         _______ _______ _______ _____ _____    ______ ____

>  <TORSDO>
F 22

$$$$
=
 OpenBabel11042413183D

 61 66  0  0  1  0  0  0  0  0999 V2000
  190.0130  178.3130  142.6590 C   0  0  1  0  0  3  0  0  0  0  0  0
  189.8580  179.8320  142.5720 C   0  0  0  0  0  1  0  0  0  0  0  0
  187.8540  177.1930  143.7520 C   0  0  2  0  0  3  0  0  0  0  0  0
  188.1760  178.4500  144.2960 O   0  0  0  0  0  0  0  0  0  0  0  0
  189.2710  177.6680  143.8570 C   0  0  2  0  0  0  0  0  0  0  0  0
  192.0920  177.9810  143.8960 O   0  0  0  0  0  1  0  0  0  0  0  0
  191.6150  177.4360  145.0960 C   0  0  2  0  0  3  0  0  0  0  0  0
  191.1940  175.6130  143.5500 O   0  0  0  0  0  1  0  0  0  0  0  0
  191.0740  176.0150  144.8910 C   0  0  2  0  0  3  0  0  0  0  0  0
  190.1090  177.1860  145.0660 C   0  0  2  0  0  0  0  0  0  0  0  0
  189.4810  177.2390  146.4430 C   0  0  0  0  0  1  0  0  0  0  0  0
  187.2270  177.3870  142.3760 C   0  0  0  0  0  2  0  0  0  0  0  0
  186.0460  178.2410  142.4590 N   0  0  0  0  0  0  0  0  0  0  0  0
  185.3350  177.8230  143.6540 C   0  0  0  0  0  2  0  0  0  0  0  0
  184.6370  179.0190  144.2770 C   0  0  0  0  0  2  0  0  0  0  0  0
  185.6080  177.8780  146.2690 C   0  0  0  0  0  1  0  0  0  0  0  0
  185.0730  179.1900  145.7150 C   0  0  0  0  0  2  0  0  0  0  0  0
  185.1860  177.9100  141.3240 C   0  0  0  0  0  2  0  0  0  0  0  0
  184.7970  179.1920  140.6040 C   0  0  0  0  0  2  0  0  0  0  0  0
  185.0380  179.0230  139.1140 C   0  0  0  0  0  2  0  0  0  0  0  0
  183.8760  178.2620  138.5100 C   0  0  0  0  0  2  0  0  0  0  0  0
  182.5760  178.7420  139.1200 C   0  0  0  0  0  2  0  0  0  0  0  0
  182.1360  177.8080  140.0640 O   0  0  0  0  0  0  0  0  0  0  0  0
  180.7500  177.9770  140.1300 C   0  0  2  0  0  3  0  0  0  0  0  0
  180.3910  178.2890  141.4460 O   0  0  0  0  0  0  0  0  0  0  0  0
  180.3140  179.6810  141.4760 C   0  0  0  0  0  1  0  0  0  0  0  0
  180.0470  176.6950  139.6870 C   0  0  2  0  0  3  0  0  0  0  0  0
  178.9520  176.4460  140.5100 O   0  0  0  0  0  1  0  0  0  0  0  0
  181.9830  175.3750  138.7800 O   0  0  0  0  0  0  0  0  0  0  0  0
  180.8430  174.6510  140.6530 O   0  0  0  0  0  1  0  0  0  0  0  0
  180.9750  175.5190  139.7380 C   0  0  0  0  0  0  0  0  0  0  0  0
  189.6110  177.6830  141.4490 O   0  0  0  0  0  0  0  0  0  0  0  0
  191.6710  177.1670  140.5310 O   0  0  0  0  0  0  0  0  0  0  0  0
  190.4680  177.5030  140.3600 C   0  0  0  0  0  0  0  0  0  0  0  0
  188.3050  176.7310  137.2720 C   0  0  2  0  0  3  0  0  0  0  0  0
  189.2980  179.0360  138.8130 C   0  0  0  0  0  2  0  0  0  0  0  0
  189.5530  175.2970  138.7390 O   0  0  0  0  0  1  0  0  0  0  0  0
  189.9390  177.6550  138.9730 C   0  0  2  0  0  3  0  0  0  0  0  0
  188.7220  179.1960  137.4090 C   0  0  2  0  0  3  0  0  0  0  0  0
  188.9220  176.5420  138.6670 C   0  0  1  0  0  3  0  0  0  0  0  0
  188.1350  180.4550  137.2900 O   0  0  0  0  0  1  0  0  0  0  0  0
  187.6750  178.1170  137.1520 C   0  0  0  0  0  2  0  0  0  0  0  0
  187.2900  175.7170  137.0290 N   0  0  0  0  0  0  0  0  0  0  0  0
  187.5960  169.9990  134.5970 C   0  0  0  0  0  2  0  0  0  0  0  0
  188.1890  171.9810  135.4940 C   0  0  1  0  0  3  0  0  0  0  0  0
  187.5810  174.5310  136.5840 C   0  0  0  0  0  0  0  0  0  0  0  0
  188.9070  174.2020  136.2450 O   0  0  0  0  0  0  0  0  0  0  0  0
  189.3540  172.8770  135.9320 C   0  0  2  0  0  3  0  0  0  0  0  0
  186.0260  170.9860  136.3630 C   0  0  1  0  0  3  0  0  0  0  0  0
  188.5490  170.6270  135.4310 O   0  0  0  0  0  0  0  0  0  0  0  0
  187.0510  172.1340  136.4990 C   0  0  2  0  0  3  0  0  0  0  0  0
  184.7150  171.4170  136.5770 O   0  0  0  0  0  1  0  0  0  0  0  0
  186.4760  173.5380  136.3890 C   0  0  0  0  0  2  0  0  0  0  0  0
  186.1310  170.2380  135.0300 C   0  0  0  0  0  2  0  0  0  0  0  0
  192.7170  172.4360  135.9890 C   0  0  0  0  0  2  0  0  0  0  0  0
  193.2380  173.7910  135.5300 C   0  0  2  0  0  3  0  0  0  0  0  0
  190.9800  174.4080  134.6360 C   0  0  0  0  0  2  0  0  0  0  0  0
  191.6110  171.9470  135.0530 C   0  0  0  0  0  2  0  0  0  0  0  0
  194.5530  174.3160  136.6030 Cl  0  0  0  0  0  0  0  0  0  0  0  0
  192.1130  174.8160  135.5740 C   0  0  0  0  0  2  0  0  0  0  0  0
  190.4890  172.9820  134.9050 C   0  0  1  0  0  3  0  0  0  0  0  0
  1  2  1  6  0  0  0
  3 12  1  6  0  0  0
  3  5  1  0  0  0  0
  3  4  1  0  0  0  0
  5  1  1  6  0  0  0
  5  4  1  0  0  0  0
  5 10  1  0  0  0  0
  7  6  1  6  0  0  0
  9  8  1  6  0  0  0
  9 10  1  0  0  0  0
  9  7  1  0  0  0  0
 10  7  1  0  0  0  0
 10 11  1  1  0  0  0
 12 13  1  0  0  0  0
 13 14  1  0  0  0  0
 14 15  1  0  0  0  0
 15 17  1  0  0  0  0
 17 16  1  0  0  0  0
 18 13  1  0  0  0  0
 19 18  1  0  0  0  0
 20 19  1  0  0  0  0
 21 20  1  0  0  0  0
 21 22  1  0  0  0  0
 22 23  1  0  0  0  0
 24 23  1  1  0  0  0
 24 25  1  0  0  0  0
 25 26  1  0  0  0  0
 27 31  1  0  0  0  0
 27 24  1  0  0  0  0
 27 28  1  1  0  0  0
 29 31  2  0  0  0  0
 31 30  1  0  0  0  0
 32  1  1  0  0  0  0
 34 33  2  0  0  0  0
 34 32  1  0  0  0  0
 35 43  1  1  0  0  0
 35 40  1  0  0  0  0
 36 38  1  0  0  0  0
 38 34  1  1  0  0  0
 39 41  1  1  0  0  0
 39 36  1  0  0  0  0
 40 37  1  6  0  0  0
 40 38  1  0  0  0  0
 42 35  1  0  0  0  0
 42 39  1  0  0  0  0
 44 54  1  0  0  0  0
 44 50  1  0  0  0  0
 45 50  1  1  0  0  0
 45 48  1  0  0  0  0
 45 51  1  0  0  0  0
 46 43  2  0  0  0  0
 47 46  1  0  0  0  0
 48 47  1  6  0  0  0
 49 51  1  0  0  0  0
 49 52  1  6  0  0  0
 51 53  1  6  0  0  0
 53 46  1  0  0  0  0
 54 49  1  0  0  0  0
 56 60  1  0  0  0  0
 56 55  1  0  0  0  0
 56 59  1  1  0  0  0
 57 60  1  0  0  0  0
 58 55  1  0  0  0  0
 61 57  1  1  0  0  0
 61 58  1  0  0  0  0
 61 48  1  0  0  0  0
M  END
>  <MODEL>
7

>  <REMARK>
 VINA RESULT:      -3.5      2.714      8.571
  Name = 
  22 active torsions:
  status: ('A' for Active; 'I' for Inactive)
    1  A    between atoms: C_3  and  N_7
    2  A    between atoms: C_3  and  C_16
    3  A    between atoms: C_4  and  N_7
    4  A    between atoms: C_4  and  C_61
    5  A    between atoms: N_5  and  C_15
    6  A    between atoms: N_7  and  C_25
    7  A    between atoms: C_9  and  C_10
    8  A    between atoms: C_9  and  C_18
    9  A    between atoms: C_10  and  C_16
   10  A    between atoms: C_11  and  C_32
   11  A    between atoms: C_11  and  C_42
   12  A    between atoms: C_18  and  O_22
   13  A    between atoms: C_19  and  C_57
   14  A    between atoms: C_20  and  C_25
   15  A    between atoms: O_22  and  C_42
   16  A    between atoms: O_26  and  C_45
   17  A    between atoms: O_26  and  C_60
   18  A    between atoms: C_33  and  C_55
   19  A    between atoms: C_36  and  C_61
   20  A    between atoms: C_37  and  C_60
   21  A    between atoms: C_42  and  O_47
   22  A    between atoms: C_45  and  C_57
                            x       y       z     vdW  Elec       q    Type
                         _______ _______ _______ _____ _____    ______ ____

>  <TORSDO>
F 22

$$$$
