=
 OpenBabel11042411443D

 40 45  0  0  1  0  0  0  0  0999 V2000
  187.4020  177.3980  144.1250 N   0  0  0  0  0  0  0  0  0  0  0  0
  186.6240  178.2090  146.3030 C   0  0  0  0  0  0  0  0  0  0  0  0
  189.5380  177.4950  143.0170 N   0  0  1  0  0  0  0  0  0  0  0  0
  189.4990  176.8730  140.6000 C   0  0  1  0  0  3  0  0  0  0  0  0
  188.4190  178.3930  149.6150 C   0  0  0  0  0  1  0  0  0  0  0  0
  188.1130  177.3840  142.8350 C   0  0  2  0  0  0  0  0  0  0  0  0
  188.1380  178.1460  148.1770 C   0  0  0  0  0  0  0  0  0  0  0  0
  190.1050  176.4400  143.8730 C   0  0  2  0  0  3  0  0  0  0  0  0
  190.0670  177.7320  141.6580 C   0  0  1  0  0  3  0  0  0  0  0  0
  189.1090  177.6330  147.3750 N   0  0  0  0  0  0  0  0  0  0  0  0
  190.0170  176.8410  145.2900 N   0  0  0  0  0  2  0  0  0  0  0  0
  186.8780  178.4410  147.6550 C   0  0  0  0  0  3  0  0  0  0  0  0
  187.7030  178.1230  141.6100 C   0  0  0  0  0  2  0  0  0  0  0  0
  188.9070  177.3840  146.0520 C   0  0  0  0  0  0  0  0  0  0  0  0
  188.9420  178.2290  140.8110 N   0  0  2  0  0  0  0  0  0  0  0  0
  187.4040  176.2560  143.1380 C   0  0  0  0  0  2  0  0  0  0  0  0
  187.6380  177.6770  145.4920 C   0  0  0  0  0  0  0  0  0  0  0  0
  190.5560  176.8720  139.1610 S   0  0  0  0  0  0  0  0  0  0  0  0
  191.8770  177.5280  139.4580 O   0  0  0  0  0  0  0  0  0  0  0  0
  190.7950  175.4520  138.7320 O   0  0  0  0  0  0  0  0  0  0  0  0
  189.7360  177.7490  137.8460 C   0  0  2  0  0  3  0  0  0  0  0  0
  189.4550  179.0380  138.2600 F   0  0  0  0  0  0  0  0  0  0  0  0
  188.4480  177.0320  137.4740 C   0  0  0  0  0  2  0  0  0  0  0  0
  186.2270  178.1100  137.5610 C   0  0  0  0  0  0  0  0  0  0  0  0
  186.1360  178.7760  138.6240 O   0  0  0  0  0  0  0  0  0  0  0  0
  187.4760  177.9730  136.7790 C   0  0  2  0  0  3  0  0  0  0  0  0
  185.5430  176.8400  135.7430 C   0  0  0  0  0  2  0  0  0  0  0  0
  186.9840  177.3060  135.4950 C   0  0  0  0  0  2  0  0  0  0  0  0
  185.1160  177.4670  136.9780 N   0  0  0  0  0  2  0  0  0  0  0  0
  192.0870  174.9420  144.3620 C   0  0  0  0  0  1  0  0  0  0  0  0
  191.5560  176.0930  143.5230 C   0  0  0  0  0  2  0  0  0  0  0  0
  185.2710  178.5190  145.7530 C   0  0  0  0  0  2  0  0  0  0  0  0
  185.3710  179.5880  144.6840 C   0  0  0  0  0  2  0  0  0  0  0  0
  184.0490  179.8600  144.1470 N   0  0  0  0  0  2  0  0  0  0  0  0
  183.5750  178.6300  143.5330 C   0  0  2  0  0  3  0  0  0  0  0  0
  183.7630  177.5640  141.4100 O   0  0  0  0  0  0  0  0  0  0  0  0
  184.7250  179.6410  141.5500 O   0  0  0  0  0  1  0  0  0  0  0  0
  184.0240  178.5780  142.1090 C   0  0  0  0  0  0  0  0  0  0  0  0
  182.0570  178.5600  143.6230 C   0  0  0  0  0  2  0  0  0  0  0  0
  181.4640  179.6890  142.9260 N   0  0  0  0  0  1  0  0  0  0  0  0
  1 17  1  0  0  0  0
  2 12  1  0  0  0  0
  3  8  1  0  0  0  0
  4 15  1  0  0  0  0
  4  9  1  0  0  0  0
  6  3  1  0  0  0  0
  6 16  1  0  0  0  0
  6  1  1  0  0  0  0
  7  5  1  0  0  0  0
  8 11  1  0  0  0  0
  9  3  1  0  0  0  0
 10  7  1  0  0  0  0
 11 14  1  0  0  0  0
 12  7  2  0  0  0  0
 13  6  1  0  0  0  0
 14 10  2  0  0  0  0
 15 13  1  0  0  0  0
 15  9  1  0  0  0  0
 16  1  1  0  0  0  0
 17 14  1  0  0  0  0
 17  2  2  0  0  0  0
 18 19  2  0  0  0  0
 18  4  1  0  0  0  0
 20 18  2  0  0  0  0
 21 22  1  0  0  0  0
 21 18  1  0  0  0  0
 23 21  1  0  0  0  0
 24 25  2  0  0  0  0
 26 23  1  0  0  0  0
 26 24  1  0  0  0  0
 27 29  1  0  0  0  0
 28 27  1  0  0  0  0
 28 26  1  0  0  0  0
 29 24  1  0  0  0  0
 31  8  1  0  0  0  0
 31 30  1  0  0  0  0
 32  2  1  0  0  0  0
 33 32  1  0  0  0  0
 34 33  1  0  0  0  0
 35 39  1  0  0  0  0
 35 34  1  0  0  0  0
 36 38  2  0  0  0  0
 37 38  1  0  0  0  0
 38 35  1  0  0  0  0
 40 39  1  0  0  0  0
M  END
>  <MODEL>
1

>  <REMARK>
 VINA RESULT:      -7.7      0.000      0.000
  Name = 
  11 active torsions:
  status: ('A' for Active; 'I' for Inactive)
    1  A    between atoms: C_1  and  S_7
    2  A    between atoms: C_1  and  C_14
    3  A    between atoms: C_3  and  C_26
    4  A    between atoms: N_4  and  C_25
    5  A    between atoms: N_4  and  CA_30
    6  A    between atoms: C_6  and  S_7
    7  A    between atoms: C_14  and  C_23
    8  A    between atoms: C_17  and  C_34
    9  A    between atoms: C_18  and  CA_30
   10  A    between atoms: C_25  and  C_26
   11  A    between atoms: CA_30  and  C_31
                            x       y       z     vdW  Elec       q    Type
                         _______ _______ _______ _____ _____    ______ ____

>  <TORSDO>
F 11

$$$$
=
 OpenBabel11042411443D

 40 45  0  0  1  0  0  0  0  0999 V2000
  189.5980  177.2760  140.9430 N   0  0  0  0  0  0  0  0  0  0  0  0
  187.8830  177.4660  142.6840 C   0  0  0  0  0  0  0  0  0  0  0  0
  189.4730  176.9950  138.5550 N   0  0  1  0  0  0  0  0  0  0  0  0
  191.6320  176.4070  137.4490 C   0  0  1  0  0  3  0  0  0  0  0  0
  184.4920  179.1140  142.5920 C   0  0  0  0  0  1  0  0  0  0  0  0
  190.2810  176.7950  139.7310 C   0  0  2  0  0  0  0  0  0  0  0  0
  185.8290  178.6190  142.1740 C   0  0  0  0  0  0  0  0  0  0  0  0
  189.0810  178.3980  138.3420 C   0  0  2  0  0  3  0  0  0  0  0  0
  190.1670  176.2350  137.4950 C   0  0  1  0  0  3  0  0  0  0  0  0
  186.2680  178.8380  140.9050 N   0  0  0  0  0  0  0  0  0  0  0  0
  187.8450  178.6940  139.0920 N   0  0  0  0  0  2  0  0  0  0  0  0
  186.6300  177.9310  143.0850 C   0  0  0  0  0  3  0  0  0  0  0  0
  191.0380  175.5190  139.6100 C   0  0  0  0  0  2  0  0  0  0  0  0
  187.4840  178.4100  140.4690 C   0  0  0  0  0  0  0  0  0  0  0  0
  191.0600  175.2390  138.1590 N   0  0  2  0  0  0  0  0  0  0  0  0
  190.8990  177.8150  140.3980 C   0  0  0  0  0  2  0  0  0  0  0  0
  188.3190  177.7050  141.3720 C   0  0  0  0  0  0  0  0  0  0  0  0
  192.2730  175.8970  135.8640 S   0  0  0  0  0  0  0  0  0  0  0  0
  192.0640  174.4230  135.6440 O   0  0  0  0  0  0  0  0  0  0  0  0
  191.5670  176.6630  134.7810 O   0  0  0  0  0  0  0  0  0  0  0  0
  194.0140  176.2680  135.8020 C   0  0  2  0  0  3  0  0  0  0  0  0
  194.3120  176.8720  134.5940 F   0  0  0  0  0  0  0  0  0  0  0  0
  194.8190  174.9870  135.9530 C   0  0  0  0  0  2  0  0  0  0  0  0
  196.7160  174.4800  137.4520 C   0  0  0  0  0  0  0  0  0  0  0  0
  197.6230  175.3330  137.2690 O   0  0  0  0  0  0  0  0  0  0  0  0
  195.2700  174.7880  137.3930 C   0  0  2  0  0  3  0  0  0  0  0  0
  195.7450  172.4400  137.9840 C   0  0  0  0  0  2  0  0  0  0  0  0
  194.6410  173.5040  137.9290 C   0  0  0  0  0  2  0  0  0  0  0  0
  197.0000  173.1410  137.7900 N   0  0  0  0  0  2  0  0  0  0  0  0
  187.4340  178.6360  136.4350 C   0  0  0  0  0  1  0  0  0  0  0  0
  188.8880  178.7540  136.8650 C   0  0  0  0  0  2  0  0  0  0  0  0
  188.7390  176.7390  143.6670 C   0  0  0  0  0  2  0  0  0  0  0  0
  188.5270  177.2950  145.0610 C   0  0  0  0  0  2  0  0  0  0  0  0
  189.7280  177.9890  145.4920 N   0  0  0  0  0  2  0  0  0  0  0  0
  190.8600  177.2830  144.9130 C   0  0  2  0  0  3  0  0  0  0  0  0
  191.7090  177.0960  147.1320 O   0  0  0  0  0  1  0  0  0  0  0  0
  192.1980  175.3350  145.7460 O   0  0  0  0  0  0  0  0  0  0  0  0
  191.6100  176.5720  145.9920 C   0  0  0  0  0  0  0  0  0  0  0  0
  191.7660  178.2700  144.1870 C   0  0  0  0  0  2  0  0  0  0  0  0
  191.0540  179.5140  143.9470 N   0  0  0  0  0  1  0  0  0  0  0  0
  1 17  1  0  0  0  0
  2 12  1  0  0  0  0
  2 32  1  0  0  0  0
  3  6  1  0  0  0  0
  4  9  1  0  0  0  0
  4 15  1  0  0  0  0
  6 16  1  0  0  0  0
  6  1  1  0  0  0  0
  7  5  1  0  0  0  0
  7 12  2  0  0  0  0
  8  3  1  0  0  0  0
  8 11  1  0  0  0  0
  9 15  1  0  0  0  0
  9  3  1  0  0  0  0
 10  7  1  0  0  0  0
 11 14  1  0  0  0  0
 13  6  1  0  0  0  0
 14 10  2  0  0  0  0
 14 17  1  0  0  0  0
 15 13  1  0  0  0  0
 16  1  1  0  0  0  0
 17  2  2  0  0  0  0
 18  4  1  0  0  0  0
 19 18  2  0  0  0  0
 20 18  2  0  0  0  0
 21 18  1  0  0  0  0
 21 23  1  0  0  0  0
 22 21  1  0  0  0  0
 23 26  1  0  0  0  0
 24 29  1  0  0  0  0
 25 24  2  0  0  0  0
 26 24  1  0  0  0  0
 26 28  1  0  0  0  0
 28 27  1  0  0  0  0
 29 27  1  0  0  0  0
 30 31  1  0  0  0  0
 31  8  1  0  0  0  0
 32 33  1  0  0  0  0
 33 34  1  0  0  0  0
 35 34  1  0  0  0  0
 35 38  1  0  0  0  0
 37 38  2  0  0  0  0
 38 36  1  0  0  0  0
 39 35  1  0  0  0  0
 40 39  1  0  0  0  0
M  END
>  <MODEL>
2

>  <REMARK>
 VINA RESULT:      -7.5      4.156      7.235
  Name = 
  11 active torsions:
  status: ('A' for Active; 'I' for Inactive)
    1  A    between atoms: C_1  and  S_7
    2  A    between atoms: C_1  and  C_14
    3  A    between atoms: C_3  and  C_26
    4  A    between atoms: N_4  and  C_25
    5  A    between atoms: N_4  and  CA_30
    6  A    between atoms: C_6  and  S_7
    7  A    between atoms: C_14  and  C_23
    8  A    between atoms: C_17  and  C_34
    9  A    between atoms: C_18  and  CA_30
   10  A    between atoms: C_25  and  C_26
   11  A    between atoms: CA_30  and  C_31
                            x       y       z     vdW  Elec       q    Type
                         _______ _______ _______ _____ _____    ______ ____

>  <TORSDO>
F 11

$$$$
=
 OpenBabel11042411443D

 40 45  0  0  1  0  0  0  0  0999 V2000
  188.0040  177.7460  140.0810 N   0  0  0  0  0  0  0  0  0  0  0  0
  186.9800  177.2770  137.9030 C   0  0  0  0  0  0  0  0  0  0  0  0
  189.9480  176.8620  141.1920 N   0  0  1  0  0  0  0  0  0  0  0  0
  190.1440  177.4620  143.6070 C   0  0  1  0  0  3  0  0  0  0  0  0
  188.5770  176.4240  134.5950 C   0  0  0  0  0  1  0  0  0  0  0  0
  188.6680  177.4980  141.3710 C   0  0  2  0  0  0  0  0  0  0  0  0
  188.4090  176.7630  136.0320 C   0  0  0  0  0  0  0  0  0  0  0  0
  190.8690  177.6260  140.3340 C   0  0  2  0  0  3  0  0  0  0  0  0
  190.3500  176.4500  142.5530 C   0  0  1  0  0  3  0  0  0  0  0  0
  189.5010  176.8790  136.8340 N   0  0  0  0  0  0  0  0  0  0  0  0
  190.6380  177.2810  138.9180 N   0  0  0  0  0  2  0  0  0  0  0  0
  187.1300  176.9620  136.5520 C   0  0  0  0  0  3  0  0  0  0  0  0
  188.0110  176.9700  142.5980 C   0  0  0  0  0  2  0  0  0  0  0  0
  189.4060  177.1900  138.1560 C   0  0  0  0  0  0  0  0  0  0  0  0
  189.1200  176.4120  143.3990 N   0  0  2  0  0  0  0  0  0  0  0  0
  188.4320  178.8090  141.0630 C   0  0  0  0  0  2  0  0  0  0  0  0
  188.1190  177.3950  138.7140 C   0  0  0  0  0  0  0  0  0  0  0  0
  191.1240  177.0730  145.0480 S   0  0  0  0  0  0  0  0  0  0  0  0
  191.6660  175.6720  144.9720 O   0  0  0  0  0  0  0  0  0  0  0  0
  192.2690  178.0420  145.1360 O   0  0  0  0  0  0  0  0  0  0  0  0
  190.1030  177.2410  146.4980 C   0  0  2  0  0  3  0  0  0  0  0  0
  189.6940  175.9890  146.9180 F   0  0  0  0  0  0  0  0  0  0  0  0
  188.8930  178.1020  146.1780 C   0  0  0  0  0  2  0  0  0  0  0  0
  186.4310  177.8930  146.1230 C   0  0  0  0  0  0  0  0  0  0  0  0
  186.0960  177.2670  145.0850 O   0  0  0  0  0  0  0  0  0  0  0  0
  187.6530  177.6000  146.9040 C   0  0  2  0  0  3  0  0  0  0  0  0
  186.2690  179.3890  147.8900 C   0  0  0  0  0  2  0  0  0  0  0  0
  187.4470  178.4450  148.1600 C   0  0  0  0  0  2  0  0  0  0  0  0
  185.6320  178.9140  146.6770 N   0  0  0  0  0  2  0  0  0  0  0  0
  193.1730  177.0320  139.4670 C   0  0  0  0  0  1  0  0  0  0  0  0
  192.3450  177.4070  140.6850 C   0  0  0  0  0  2  0  0  0  0  0  0
  185.6090  177.4980  138.4520 C   0  0  0  0  0  2  0  0  0  0  0  0
  185.1800  178.9340  138.2310 C   0  0  0  0  0  2  0  0  0  0  0  0
  184.8080  179.5280  139.5040 N   0  0  0  0  0  2  0  0  0  0  0  0
  184.0710  178.5190  140.2470 C   0  0  2  0  0  3  0  0  0  0  0  0
  182.0540  178.7250  141.4990 O   0  0  0  0  0  1  0  0  0  0  0  0
  181.9930  179.6240  139.3900 O   0  0  0  0  0  0  0  0  0  0  0  0
  182.6540  178.9580  140.4170 C   0  0  0  0  0  0  0  0  0  0  0  0
  184.7320  178.2920  141.6010 C   0  0  0  0  0  2  0  0  0  0  0  0
  185.1900  179.5570  142.1490 N   0  0  0  0  0  1  0  0  0  0  0  0
  1 16  1  0  0  0  0
  1  6  1  0  0  0  0
  2 32  1  0  0  0  0
  2 17  2  0  0  0  0
  3  6  1  0  0  0  0
  3  9  1  0  0  0  0
  4 18  1  0  0  0  0
  5  7  1  0  0  0  0
  6 13  1  0  0  0  0
  7 12  2  0  0  0  0
  7 10  1  0  0  0  0
  8 31  1  0  0  0  0
  8  3  1  0  0  0  0
  9 15  1  0  0  0  0
  9  4  1  0  0  0  0
 10 14  2  0  0  0  0
 11  8  1  0  0  0  0
 12  2  1  0  0  0  0
 13 15  1  0  0  0  0
 14 17  1  0  0  0  0
 14 11  1  0  0  0  0
 15  4  1  0  0  0  0
 16  6  1  0  0  0  0
 17  1  1  0  0  0  0
 18 20  2  0  0  0  0
 18 21  1  0  0  0  0
 19 18  2  0  0  0  0
 21 22  1  0  0  0  0
 23 21  1  0  0  0  0
 23 26  1  0  0  0  0
 24 29  1  0  0  0  0
 24 26  1  0  0  0  0
 25 24  2  0  0  0  0
 26 28  1  0  0  0  0
 27 28  1  0  0  0  0
 29 27  1  0  0  0  0
 30 31  1  0  0  0  0
 33 32  1  0  0  0  0
 33 34  1  0  0  0  0
 34 35  1  0  0  0  0
 35 38  1  0  0  0  0
 35 39  1  0  0  0  0
 37 38  2  0  0  0  0
 38 36  1  0  0  0  0
 39 40  1  0  0  0  0
M  END
>  <MODEL>
3

>  <REMARK>
 VINA RESULT:      -7.4      2.910      7.276
  Name = 
  11 active torsions:
  status: ('A' for Active; 'I' for Inactive)
    1  A    between atoms: C_1  and  S_7
    2  A    between atoms: C_1  and  C_14
    3  A    between atoms: C_3  and  C_26
    4  A    between atoms: N_4  and  C_25
    5  A    between atoms: N_4  and  CA_30
    6  A    between atoms: C_6  and  S_7
    7  A    between atoms: C_14  and  C_23
    8  A    between atoms: C_17  and  C_34
    9  A    between atoms: C_18  and  CA_30
   10  A    between atoms: C_25  and  C_26
   11  A    between atoms: CA_30  and  C_31
                            x       y       z     vdW  Elec       q    Type
                         _______ _______ _______ _____ _____    ______ ____

>  <TORSDO>
F 11

$$$$
=
 OpenBabel11042411443D

 40 45  0  0  1  0  0  0  0  0999 V2000
  184.4970  178.4430  141.2680 N   0  0  0  0  0  0  0  0  0  0  0  0
  185.8950  178.2190  143.2690 C   0  0  0  0  0  0  0  0  0  0  0  0
  182.2020  177.8760  140.8100 N   0  0  1  0  0  0  0  0  0  0  0  0
  181.5590  177.9530  138.4000 C   0  0  1  0  0  3  0  0  0  0  0  0
  185.0020  178.5720  146.9150 C   0  0  0  0  0  1  0  0  0  0  0  0
  183.5050  178.0970  140.2370 C   0  0  2  0  0  0  0  0  0  0  0  0
  184.8860  178.5270  145.4350 C   0  0  0  0  0  0  0  0  0  0  0  0
  181.6950  179.0250  141.5780 C   0  0  2  0  0  3  0  0  0  0  0  0
  181.4080  177.2910  139.7100 C   0  0  1  0  0  3  0  0  0  0  0  0
  183.6810  178.7430  144.8420 N   0  0  0  0  0  0  0  0  0  0  0  0
  182.1830  178.9550  142.9680 N   0  0  0  0  0  2  0  0  0  0  0  0
  186.0140  178.2630  144.6580 C   0  0  0  0  0  3  0  0  0  0  0  0
  183.7230  177.1570  139.1040 C   0  0  0  0  0  2  0  0  0  0  0  0
  183.5160  178.7170  143.4910 C   0  0  0  0  0  0  0  0  0  0  0  0
  182.3620  176.7450  138.7000 N   0  0  2  0  0  0  0  0  0  0  0  0
  184.0750  179.3350  140.1260 C   0  0  0  0  0  2  0  0  0  0  0  0
  184.6440  178.4470  142.6760 C   0  0  0  0  0  0  0  0  0  0  0  0
  180.2020  177.5250  137.3220 S   0  0  0  0  0  0  0  0  0  0  0  0
  180.4140  176.1740  136.6950 O   0  0  0  0  0  0  0  0  0  0  0  0
  178.9310  177.5030  138.1220 O   0  0  0  0  0  0  0  0  0  0  0  0
  180.0690  178.7610  136.0470 C   0  0  2  0  0  3  0  0  0  0  0  0
  181.2860  178.8860  135.4010 F   0  0  0  0  0  0  0  0  0  0  0  0
  179.6690  180.0920  136.6620 C   0  0  0  0  0  2  0  0  0  0  0  0
  180.9310  181.8850  137.8020 C   0  0  0  0  0  0  0  0  0  0  0  0
  181.4330  181.4250  138.8590 O   0  0  0  0  0  0  0  0  0  0  0  0
  180.7940  181.1110  136.5480 C   0  0  2  0  0  3  0  0  0  0  0  0
  180.0240  183.4460  136.3420 C   0  0  0  0  0  2  0  0  0  0  0  0
  180.3820  182.1850  135.5440 C   0  0  0  0  0  2  0  0  0  0  0  0
  180.4940  183.2210  137.6960 N   0  0  0  0  0  2  0  0  0  0  0  0
  179.6830  180.4980  142.0210 C   0  0  0  0  0  1  0  0  0  0  0  0
  180.1660  179.1280  141.5720 C   0  0  0  0  0  2  0  0  0  0  0  0
  187.1080  177.9440  142.4430 C   0  0  0  0  0  2  0  0  0  0  0  0
  187.9310  176.8370  143.0700 C   0  0  0  0  0  2  0  0  0  0  0  0
  189.2080  177.3730  143.5080 N   0  0  0  0  0  2  0  0  0  0  0  0
  190.2460  176.5550  142.9020 C   0  0  2  0  0  3  0  0  0  0  0  0
  191.9030  175.2270  143.9840 O   0  0  0  0  0  0  0  0  0  0  0  0
  191.8050  177.4150  144.6640 O   0  0  0  0  0  1  0  0  0  0  0  0
  191.3610  176.3580  143.8770 C   0  0  0  0  0  0  0  0  0  0  0  0
  190.7530  177.2230  141.6300 C   0  0  0  0  0  2  0  0  0  0  0  0
  190.4210  176.4090  140.4730 N   0  0  0  0  0  1  0  0  0  0  0  0
  1 17  1  0  0  0  0
  2 12  1  0  0  0  0
  3  8  1  0  0  0  0
  4 15  1  0  0  0  0
  4  9  1  0  0  0  0
  6  3  1  0  0  0  0
  6  1  1  0  0  0  0
  7  5  1  0  0  0  0
  8 11  1  0  0  0  0
  9  3  1  0  0  0  0
 10  7  1  0  0  0  0
 11 14  1  0  0  0  0
 12  7  2  0  0  0  0
 13  6  1  0  0  0  0
 14 10  2  0  0  0  0
 15 13  1  0  0  0  0
 15  9  1  0  0  0  0
 16  6  1  0  0  0  0
 16  1  1  0  0  0  0
 17  2  2  0  0  0  0
 17 14  1  0  0  0  0
 18 20  2  0  0  0  0
 18  4  1  0  0  0  0
 19 18  2  0  0  0  0
 21 23  1  0  0  0  0
 21 18  1  0  0  0  0
 22 21  1  0  0  0  0
 24 25  2  0  0  0  0
 26 23  1  0  0  0  0
 26 24  1  0  0  0  0
 27 29  1  0  0  0  0
 28 27  1  0  0  0  0
 28 26  1  0  0  0  0
 29 24  1  0  0  0  0
 31  8  1  0  0  0  0
 31 30  1  0  0  0  0
 32 33  1  0  0  0  0
 32  2  1  0  0  0  0
 33 34  1  0  0  0  0
 35 34  1  0  0  0  0
 35 38  1  0  0  0  0
 38 36  2  0  0  0  0
 38 37  1  0  0  0  0
 39 35  1  0  0  0  0
 40 39  1  0  0  0  0
M  END
>  <MODEL>
4

>  <REMARK>
 VINA RESULT:      -7.4      4.415      7.856
  Name = 
  11 active torsions:
  status: ('A' for Active; 'I' for Inactive)
    1  A    between atoms: C_1  and  S_7
    2  A    between atoms: C_1  and  C_14
    3  A    between atoms: C_3  and  C_26
    4  A    between atoms: N_4  and  C_25
    5  A    between atoms: N_4  and  CA_30
    6  A    between atoms: C_6  and  S_7
    7  A    between atoms: C_14  and  C_23
    8  A    between atoms: C_17  and  C_34
    9  A    between atoms: C_18  and  CA_30
   10  A    between atoms: C_25  and  C_26
   11  A    between atoms: CA_30  and  C_31
                            x       y       z     vdW  Elec       q    Type
                         _______ _______ _______ _____ _____    ______ ____

>  <TORSDO>
F 11

$$$$
=
 OpenBabel11042411443D

 40 45  0  0  1  0  0  0  0  0999 V2000
  188.0760  178.1550  139.7450 N   0  0  0  0  0  0  0  0  0  0  0  0
  185.9480  178.6270  140.8650 C   0  0  0  0  0  0  0  0  0  0  0  0
  188.6560  176.7710  137.8620 N   0  0  1  0  0  0  0  0  0  0  0  0
  191.1030  176.3910  137.5480 C   0  0  1  0  0  3  0  0  0  0  0  0
  182.4720  178.9760  139.4430 C   0  0  0  0  0  1  0  0  0  0  0  0
  189.1360  177.3860  139.0730 C   0  0  2  0  0  0  0  0  0  0  0  0
  183.9390  178.7560  139.5410 C   0  0  0  0  0  0  0  0  0  0  0  0
  188.0940  177.7310  136.8980 C   0  0  2  0  0  3  0  0  0  0  0  0
  189.7350  175.8430  137.4650 C   0  0  1  0  0  3  0  0  0  0  0  0
  184.6590  178.4750  138.4220 N   0  0  0  0  0  0  0  0  0  0  0  0
  186.6690  177.9680  137.1970 N   0  0  0  0  0  2  0  0  0  0  0  0
  184.5710  178.8380  140.7810 C   0  0  0  0  0  3  0  0  0  0  0  0
  190.1120  176.4830  139.7430 C   0  0  0  0  0  2  0  0  0  0  0  0
  186.0040  178.2670  138.4520 C   0  0  0  0  0  0  0  0  0  0  0  0
  190.5760  175.5800  138.6700 N   0  0  2  0  0  0  0  0  0  0  0  0
  189.3590  178.7290  139.1940 C   0  0  0  0  0  2  0  0  0  0  0  0
  186.6740  178.3410  139.6990 C   0  0  0  0  0  0  0  0  0  0  0  0
  192.2310  175.4120  136.5700 S   0  0  0  0  0  0  0  0  0  0  0  0
  192.1070  173.9500  136.9040 O   0  0  0  0  0  0  0  0  0  0  0  0
  191.9180  175.6150  135.1150 O   0  0  0  0  0  0  0  0  0  0  0  0
  193.8940  175.9600  136.8930 C   0  0  2  0  0  3  0  0  0  0  0  0
  194.1620  177.0840  136.1330 F   0  0  0  0  0  0  0  0  0  0  0  0
  194.8760  174.8530  136.5450 C   0  0  0  0  0  2  0  0  0  0  0  0
  197.1430  174.4600  137.4460 C   0  0  0  0  0  0  0  0  0  0  0  0
  197.8220  175.5120  137.3220 O   0  0  0  0  0  0  0  0  0  0  0  0
  195.6970  174.4440  137.7590 C   0  0  2  0  0  3  0  0  0  0  0  0
  196.6860  172.1900  137.5950 C   0  0  0  0  0  2  0  0  0  0  0  0
  195.4420  172.9660  138.0460 C   0  0  0  0  0  2  0  0  0  0  0  0
  197.7190  173.1770  137.3500 N   0  0  0  0  0  2  0  0  0  0  0  0
  186.9120  177.2080  134.7210 C   0  0  0  0  0  1  0  0  0  0  0  0
  188.2490  177.2830  135.4400 C   0  0  0  0  0  2  0  0  0  0  0  0
  186.6200  178.7260  142.1950 C   0  0  0  0  0  2  0  0  0  0  0  0
  185.6140  178.5170  143.3090 C   0  0  0  0  0  2  0  0  0  0  0  0
  186.1080  177.5030  144.2230 N   0  0  0  0  0  2  0  0  0  0  0  0
  186.8180  178.1950  145.2870 C   0  0  2  0  0  3  0  0  0  0  0  0
  188.6830  176.9570  144.4720 O   0  0  0  0  0  0  0  0  0  0  0  0
  188.9500  177.8660  146.5600 O   0  0  0  0  0  1  0  0  0  0  0  0
  188.1980  177.6370  145.4130 C   0  0  0  0  0  0  0  0  0  0  0  0
  186.0540  178.0480  146.5960 C   0  0  0  0  0  2  0  0  0  0  0  0
  184.9470  178.9890  146.6360 N   0  0  0  0  0  1  0  0  0  0  0  0
  2 32  1  0  0  0  0
  3  6  1  0  0  0  0
  4 15  1  0  0  0  0
  5  7  1  0  0  0  0
  6 16  1  0  0  0  0
  6 13  1  0  0  0  0
  6  1  1  0  0  0  0
  7 12  2  0  0  0  0
  8 11  1  0  0  0  0
  8  3  1  0  0  0  0
  9  4  1  0  0  0  0
  9  3  1  0  0  0  0
  9 15  1  0  0  0  0
 10 14  2  0  0  0  0
 10  7  1  0  0  0  0
 11 14  1  0  0  0  0
 12  2  1  0  0  0  0
 14 17  1  0  0  0  0
 15 13  1  0  0  0  0
 16  1  1  0  0  0  0
 17  1  1  0  0  0  0
 17  2  2  0  0  0  0
 18 21  1  0  0  0  0
 18 19  2  0  0  0  0
 18  4  1  0  0  0  0
 20 18  2  0  0  0  0
 22 21  1  0  0  0  0
 23 21  1  0  0  0  0
 23 26  1  0  0  0  0
 24 26  1  0  0  0  0
 25 24  2  0  0  0  0
 26 28  1  0  0  0  0
 27 28  1  0  0  0  0
 29 24  1  0  0  0  0
 29 27  1  0  0  0  0
 30 31  1  0  0  0  0
 31  8  1  0  0  0  0
 32 33  1  0  0  0  0
 33 34  1  0  0  0  0
 34 35  1  0  0  0  0
 35 38  1  0  0  0  0
 35 39  1  0  0  0  0
 36 38  2  0  0  0  0
 38 37  1  0  0  0  0
 39 40  1  0  0  0  0
M  END
>  <MODEL>
5

>  <REMARK>
 VINA RESULT:      -7.1      4.161      7.302
  Name = 
  11 active torsions:
  status: ('A' for Active; 'I' for Inactive)
    1  A    between atoms: C_1  and  S_7
    2  A    between atoms: C_1  and  C_14
    3  A    between atoms: C_3  and  C_26
    4  A    between atoms: N_4  and  C_25
    5  A    between atoms: N_4  and  CA_30
    6  A    between atoms: C_6  and  S_7
    7  A    between atoms: C_14  and  C_23
    8  A    between atoms: C_17  and  C_34
    9  A    between atoms: C_18  and  CA_30
   10  A    between atoms: C_25  and  C_26
   11  A    between atoms: CA_30  and  C_31
                            x       y       z     vdW  Elec       q    Type
                         _______ _______ _______ _____ _____    ______ ____

>  <TORSDO>
F 11

$$$$
=
 OpenBabel11042411443D

 40 45  0  0  1  0  0  0  0  0999 V2000
  186.3660  178.1200  143.7920 N   0  0  0  0  0  0  0  0  0  0  0  0
  186.0100  178.7760  146.1270 C   0  0  0  0  0  0  0  0  0  0  0  0
  188.3550  177.8270  142.4670 N   0  0  1  0  0  0  0  0  0  0  0  0
  187.9610  177.5970  140.0130 C   0  0  1  0  0  3  0  0  0  0  0  0
  188.0410  178.0070  149.2090 C   0  0  0  0  0  1  0  0  0  0  0  0
  186.9440  178.1140  142.4380 C   0  0  2  0  0  0  0  0  0  0  0  0
  187.5920  178.0530  147.7940 C   0  0  0  0  0  0  0  0  0  0  0  0
  188.6830  176.5480  143.1190 C   0  0  2  0  0  3  0  0  0  0  0  0
  188.8200  178.1170  141.0940 C   0  0  1  0  0  3  0  0  0  0  0  0
  188.3230  177.4320  146.8300 N   0  0  0  0  0  0  0  0  0  0  0  0
  188.8180  176.7470  144.5740 N   0  0  0  0  0  2  0  0  0  0  0  0
  186.4220  178.7340  147.4590 C   0  0  0  0  0  3  0  0  0  0  0  0
  186.6530  179.1040  141.3650 C   0  0  0  0  0  2  0  0  0  0  0  0
  187.9580  177.4380  145.5180 C   0  0  0  0  0  0  0  0  0  0  0  0
  187.8080  179.0050  140.4480 N   0  0  2  0  0  0  0  0  0  0  0  0
  185.9830  177.1730  142.6820 C   0  0  0  0  0  2  0  0  0  0  0  0
  186.7750  178.1260  145.1470 C   0  0  0  0  0  0  0  0  0  0  0  0
  188.8620  177.5350  138.4730 S   0  0  0  0  0  0  0  0  0  0  0  0
  187.9360  177.2790  137.3140 O   0  0  0  0  0  0  0  0  0  0  0  0
  189.5630  178.8470  138.2640 O   0  0  0  0  0  0  0  0  0  0  0  0
  190.0730  176.2330  138.5680 C   0  0  2  0  0  3  0  0  0  0  0  0
  190.8440  176.4060  139.7040 F   0  0  0  0  0  0  0  0  0  0  0  0
  190.9570  176.2620  137.3330 C   0  0  0  0  0  2  0  0  0  0  0  0
  193.3900  176.3850  137.7490 C   0  0  0  0  0  0  0  0  0  0  0  0
  193.5930  177.0430  138.8020 O   0  0  0  0  0  0  0  0  0  0  0  0
  192.2400  175.4740  137.5550 C   0  0  2  0  0  3  0  0  0  0  0  0
  193.7910  175.5110  135.6370 C   0  0  0  0  0  2  0  0  0  0  0  0
  192.6060  174.7590  136.2560 C   0  0  0  0  0  2  0  0  0  0  0  0
  194.2830  176.4140  136.6590 N   0  0  0  0  0  2  0  0  0  0  0  0
  191.1490  176.1090  143.4810 C   0  0  0  0  0  1  0  0  0  0  0  0
  189.9540  175.8960  142.5660 C   0  0  0  0  0  2  0  0  0  0  0  0
  184.7510  179.4990  145.7770 C   0  0  0  0  0  2  0  0  0  0  0  0
  183.8400  178.6030  144.9620 C   0  0  0  0  0  2  0  0  0  0  0  0
  183.1240  179.4040  143.9840 N   0  0  0  0  0  2  0  0  0  0  0  0
  182.1090  178.5480  143.3910 C   0  0  2  0  0  3  0  0  0  0  0  0
  181.3400  179.3710  141.2920 O   0  0  0  0  0  1  0  0  0  0  0  0
  183.1490  177.9660  141.1880 O   0  0  0  0  0  0  0  0  0  0  0  0
  182.1740  178.6530  141.9020 C   0  0  0  0  0  0  0  0  0  0  0  0
  180.7320  178.9520  143.9020 C   0  0  0  0  0  2  0  0  0  0  0  0
  179.8710  177.7840  143.9880 N   0  0  0  0  0  1  0  0  0  0  0  0
  1 17  1  0  0  0  0
  2 12  1  0  0  0  0
  3  8  1  0  0  0  0
  4 15  1  0  0  0  0
  4  9  1  0  0  0  0
  6  3  1  0  0  0  0
  6 16  1  0  0  0  0
  6  1  1  0  0  0  0
  7  5  1  0  0  0  0
  8 11  1  0  0  0  0
  9  3  1  0  0  0  0
 10  7  1  0  0  0  0
 11 14  1  0  0  0  0
 12  7  2  0  0  0  0
 13  6  1  0  0  0  0
 14 10  2  0  0  0  0
 15  9  1  0  0  0  0
 15 13  1  0  0  0  0
 16  1  1  0  0  0  0
 17 14  1  0  0  0  0
 17  2  2  0  0  0  0
 18 21  1  0  0  0  0
 18  4  1  0  0  0  0
 19 18  2  0  0  0  0
 20 18  2  0  0  0  0
 21 22  1  0  0  0  0
 23 26  1  0  0  0  0
 23 21  1  0  0  0  0
 24 25  2  0  0  0  0
 26 24  1  0  0  0  0
 27 28  1  0  0  0  0
 27 29  1  0  0  0  0
 28 26  1  0  0  0  0
 29 24  1  0  0  0  0
 31  8  1  0  0  0  0
 31 30  1  0  0  0  0
 32  2  1  0  0  0  0
 33 32  1  0  0  0  0
 34 33  1  0  0  0  0
 35 39  1  0  0  0  0
 35 34  1  0  0  0  0
 36 38  1  0  0  0  0
 37 38  2  0  0  0  0
 38 35  1  0  0  0  0
 39 40  1  0  0  0  0
M  END
>  <MODEL>
6

>  <REMARK>
 VINA RESULT:      -7.0      2.319      3.405
  Name = 
  11 active torsions:
  status: ('A' for Active; 'I' for Inactive)
    1  A    between atoms: C_1  and  S_7
    2  A    between atoms: C_1  and  C_14
    3  A    between atoms: C_3  and  C_26
    4  A    between atoms: N_4  and  C_25
    5  A    between atoms: N_4  and  CA_30
    6  A    between atoms: C_6  and  S_7
    7  A    between atoms: C_14  and  C_23
    8  A    between atoms: C_17  and  C_34
    9  A    between atoms: C_18  and  CA_30
   10  A    between atoms: C_25  and  C_26
   11  A    between atoms: CA_30  and  C_31
                            x       y       z     vdW  Elec       q    Type
                         _______ _______ _______ _____ _____    ______ ____

>  <TORSDO>
F 11

$$$$
=
 OpenBabel11042411443D

 40 45  0  0  1  0  0  0  0  0999 V2000
  185.5410  178.3780  140.7030 N   0  0  0  0  0  0  0  0  0  0  0  0
  183.5710  177.9000  139.3240 C   0  0  0  0  0  0  0  0  0  0  0  0
  187.8150  177.5920  140.6250 N   0  0  1  0  0  0  0  0  0  0  0  0
  189.1890  178.1410  142.6350 C   0  0  1  0  0  3  0  0  0  0  0  0
  183.2930  177.2340  135.6230 C   0  0  0  0  0  1  0  0  0  0  0  0
  186.7790  178.1400  141.4620 C   0  0  2  0  0  0  0  0  0  0  0  0
  183.8660  177.5250  136.9620 C   0  0  0  0  0  0  0  0  0  0  0  0
  188.1370  178.4330  139.4600 C   0  0  2  0  0  3  0  0  0  0  0  0
  188.8710  177.1710  141.5690 C   0  0  1  0  0  3  0  0  0  0  0  0
  185.2080  177.6900  137.1050 N   0  0  0  0  0  0  0  0  0  0  0  0
  187.2320  178.1100  138.3410 N   0  0  0  0  0  2  0  0  0  0  0  0
  183.0240  177.6300  138.0700 C   0  0  0  0  0  3  0  0  0  0  0  0
  186.8620  177.5410  142.8220 C   0  0  0  0  0  2  0  0  0  0  0  0
  185.7880  177.9610  138.3060 C   0  0  0  0  0  0  0  0  0  0  0  0
  188.2460  177.0340  142.9190 N   0  0  2  0  0  0  0  0  0  0  0  0
  186.3650  179.4410  141.3880 C   0  0  0  0  0  2  0  0  0  0  0  0
  184.9580  178.0700  139.4500 C   0  0  0  0  0  0  0  0  0  0  0  0
  190.7820  177.7790  143.3560 S   0  0  0  0  0  0  0  0  0  0  0  0
  191.4300  176.6050  142.6740 O   0  0  0  0  0  0  0  0  0  0  0  0
  191.6670  178.9850  143.2130 O   0  0  0  0  0  0  0  0  0  0  0  0
  190.5600  177.4180  145.0860 C   0  0  2  0  0  3  0  0  0  0  0  0
  190.3930  176.0560  145.2520 F   0  0  0  0  0  0  0  0  0  0  0  0
  189.3410  178.1580  145.6130 C   0  0  0  0  0  2  0  0  0  0  0  0
  187.2070  177.8710  146.8250 C   0  0  0  0  0  0  0  0  0  0  0  0
  186.2640  177.8380  145.9920 O   0  0  0  0  0  0  0  0  0  0  0  0
  188.5460  177.2900  146.5770 C   0  0  2  0  0  3  0  0  0  0  0  0
  188.3010  178.2550  148.8350 C   0  0  0  0  0  2  0  0  0  0  0  0
  189.1960  177.3700  147.9570 C   0  0  0  0  0  2  0  0  0  0  0  0
  187.0560  178.4250  148.1120 N   0  0  0  0  0  2  0  0  0  0  0  0
  189.7180  177.4810  137.7270 C   0  0  0  0  0  1  0  0  0  0  0  0
  189.5930  178.2990  139.0020 C   0  0  0  0  0  2  0  0  0  0  0  0
  182.6630  178.0200  140.5040 C   0  0  0  0  0  2  0  0  0  0  0  0
  181.4760  178.8980  140.1650 C   0  0  0  0  0  2  0  0  0  0  0  0
  180.9970  179.5500  141.3720 N   0  0  0  0  0  2  0  0  0  0  0  0
  181.2430  178.6370  142.4770 C   0  0  2  0  0  3  0  0  0  0  0  0
  179.0700  177.7270  142.1200 O   0  0  0  0  0  0  0  0  0  0  0  0
  179.7010  177.9190  144.3160 O   0  0  0  0  0  1  0  0  0  0  0  0
  179.9460  178.0710  142.9560 C   0  0  0  0  0  0  0  0  0  0  0  0
  181.9590  179.3720  143.6030 C   0  0  0  0  0  2  0  0  0  0  0  0
  183.1580  178.6460  143.9880 N   0  0  0  0  0  1  0  0  0  0  0  0
  1 16  1  0  0  0  0
  1  6  1  0  0  0  0
  2 17  2  0  0  0  0
  2 32  1  0  0  0  0
  3  6  1  0  0  0  0
  3  9  1  0  0  0  0
  4 15  1  0  0  0  0
  4 18  1  0  0  0  0
  5  7  1  0  0  0  0
  6 13  1  0  0  0  0
  7 10  1  0  0  0  0
  7 12  2  0  0  0  0
  8  3  1  0  0  0  0
  9  4  1  0  0  0  0
  9 15  1  0  0  0  0
 10 14  2  0  0  0  0
 11  8  1  0  0  0  0
 12  2  1  0  0  0  0
 13 15  1  0  0  0  0
 14 11  1  0  0  0  0
 14 17  1  0  0  0  0
 16  6  1  0  0  0  0
 17  1  1  0  0  0  0
 18 21  1  0  0  0  0
 19 18  2  0  0  0  0
 20 18  2  0  0  0  0
 21 22  1  0  0  0  0
 21 23  1  0  0  0  0
 23 26  1  0  0  0  0
 24 29  1  0  0  0  0
 25 24  2  0  0  0  0
 26 24  1  0  0  0  0
 26 28  1  0  0  0  0
 28 27  1  0  0  0  0
 29 27  1  0  0  0  0
 30 31  1  0  0  0  0
 31  8  1  0  0  0  0
 33 32  1  0  0  0  0
 33 34  1  0  0  0  0
 34 35  1  0  0  0  0
 35 38  1  0  0  0  0
 35 39  1  0  0  0  0
 36 38  2  0  0  0  0
 38 37  1  0  0  0  0
 39 40  1  0  0  0  0
M  END
>  <MODEL>
7

>  <REMARK>
 VINA RESULT:      -7.0      2.757      7.292
  Name = 
  11 active torsions:
  status: ('A' for Active; 'I' for Inactive)
    1  A    between atoms: C_1  and  S_7
    2  A    between atoms: C_1  and  C_14
    3  A    between atoms: C_3  and  C_26
    4  A    between atoms: N_4  and  C_25
    5  A    between atoms: N_4  and  CA_30
    6  A    between atoms: C_6  and  S_7
    7  A    between atoms: C_14  and  C_23
    8  A    between atoms: C_17  and  C_34
    9  A    between atoms: C_18  and  CA_30
   10  A    between atoms: C_25  and  C_26
   11  A    between atoms: CA_30  and  C_31
                            x       y       z     vdW  Elec       q    Type
                         _______ _______ _______ _____ _____    ______ ____

>  <TORSDO>
F 11

$$$$
=
 OpenBabel11042411443D

 40 45  0  0  1  0  0  0  0  0999 V2000
  187.7070  178.2370  139.3070 N   0  0  0  0  0  0  0  0  0  0  0  0
  185.4980  178.7260  140.2510 C   0  0  0  0  0  0  0  0  0  0  0  0
  188.4940  176.5350  137.7970 N   0  0  1  0  0  0  0  0  0  0  0  0
  190.9770  176.3480  137.6230 C   0  0  1  0  0  3  0  0  0  0  0  0
  182.0680  178.3910  138.7210 C   0  0  0  0  0  1  0  0  0  0  0  0
  188.8630  177.4500  138.8460 C   0  0  2  0  0  0  0  0  0  0  0  0
  183.5430  178.3500  138.8940 C   0  0  0  0  0  0  0  0  0  0  0  0
  187.8830  177.1930  136.6300 C   0  0  2  0  0  3  0  0  0  0  0  0
  189.6720  175.6570  137.6400 C   0  0  1  0  0  3  0  0  0  0  0  0
  184.3320  177.9020  137.8810 N   0  0  0  0  0  0  0  0  0  0  0  0
  186.4310  177.3430  136.8410 N   0  0  0  0  0  2  0  0  0  0  0  0
  184.1120  178.7710  140.0950 C   0  0  0  0  0  3  0  0  0  0  0  0
  189.8910  176.8240  139.7220 C   0  0  0  0  0  2  0  0  0  0  0  0
  185.6890  177.8450  137.9830 C   0  0  0  0  0  0  0  0  0  0  0  0
  190.4840  175.7570  138.8890 N   0  0  2  0  0  0  0  0  0  0  0  0
  188.9500  178.8020  138.6650 C   0  0  0  0  0  2  0  0  0  0  0  0
  186.2960  178.2640  139.1940 C   0  0  0  0  0  0  0  0  0  0  0  0
  192.2320  175.2960  136.9130 S   0  0  0  0  0  0  0  0  0  0  0  0
  191.6980  173.9140  136.6530 O   0  0  0  0  0  0  0  0  0  0  0  0
  192.6980  175.8970  135.6170 O   0  0  0  0  0  0  0  0  0  0  0  0
  193.6070  175.2020  138.0420 C   0  0  2  0  0  3  0  0  0  0  0  0
  193.7470  176.4120  138.6960 F   0  0  0  0  0  0  0  0  0  0  0  0
  194.8790  174.8780  137.2760 C   0  0  0  0  0  2  0  0  0  0  0  0
  196.5320  174.6970  139.1040 C   0  0  0  0  0  0  0  0  0  0  0  0
  196.0200  175.1370  140.1650 O   0  0  0  0  0  0  0  0  0  0  0  0
  195.7800  173.9460  138.0740 C   0  0  2  0  0  3  0  0  0  0  0  0
  198.1810  174.1760  137.5560 C   0  0  0  0  0  2  0  0  0  0  0  0
  196.8940  173.4410  137.1600 C   0  0  0  0  0  2  0  0  0  0  0  0
  197.9060  174.8350  138.8180 N   0  0  0  0  0  2  0  0  0  0  0  0
  186.8960  175.7390  134.8070 C   0  0  0  0  0  1  0  0  0  0  0  0
  188.1400  176.4500  135.3140 C   0  0  0  0  0  2  0  0  0  0  0  0
  186.1020  179.1870  141.5360 C   0  0  0  0  0  2  0  0  0  0  0  0
  185.7730  178.2130  142.6500 C   0  0  0  0  0  2  0  0  0  0  0  0
  186.2650  178.7390  143.9120 N   0  0  0  0  0  2  0  0  0  0  0  0
  185.6990  177.9150  144.9680 C   0  0  2  0  0  3  0  0  0  0  0  0
  185.3040  179.1290  146.9800 O   0  0  0  0  0  1  0  0  0  0  0  0
  183.5770  179.1480  145.4710 O   0  0  0  0  0  0  0  0  0  0  0  0
  184.8540  178.7610  145.8630 C   0  0  0  0  0  0  0  0  0  0  0  0
  186.8180  177.2460  145.7550 C   0  0  0  0  0  2  0  0  0  0  0  0
  188.0950  177.8540  145.4190 N   0  0  0  0  0  1  0  0  0  0  0  0
  2 32  1  0  0  0  0
  3  6  1  0  0  0  0
  4  9  1  0  0  0  0
  4 15  1  0  0  0  0
  5  7  1  0  0  0  0
  6  1  1  0  0  0  0
  6 13  1  0  0  0  0
  7 12  2  0  0  0  0
  8 11  1  0  0  0  0
  8  3  1  0  0  0  0
  9  3  1  0  0  0  0
  9 15  1  0  0  0  0
 10 14  2  0  0  0  0
 10  7  1  0  0  0  0
 11 14  1  0  0  0  0
 12  2  1  0  0  0  0
 14 17  1  0  0  0  0
 15 13  1  0  0  0  0
 16  6  1  0  0  0  0
 16  1  1  0  0  0  0
 17  1  1  0  0  0  0
 17  2  2  0  0  0  0
 18  4  1  0  0  0  0
 18 21  1  0  0  0  0
 19 18  2  0  0  0  0
 20 18  2  0  0  0  0
 21 22  1  0  0  0  0
 23 21  1  0  0  0  0
 23 26  1  0  0  0  0
 24 25  2  0  0  0  0
 26 24  1  0  0  0  0
 27 29  1  0  0  0  0
 28 27  1  0  0  0  0
 28 26  1  0  0  0  0
 29 24  1  0  0  0  0
 30 31  1  0  0  0  0
 31  8  1  0  0  0  0
 32 33  1  0  0  0  0
 33 34  1  0  0  0  0
 34 35  1  0  0  0  0
 35 39  1  0  0  0  0
 35 38  1  0  0  0  0
 37 38  2  0  0  0  0
 38 36  1  0  0  0  0
 40 39  1  0  0  0  0
M  END
>  <MODEL>
8

>  <REMARK>
 VINA RESULT:      -6.8      3.972      7.416
  Name = 
  11 active torsions:
  status: ('A' for Active; 'I' for Inactive)
    1  A    between atoms: C_1  and  S_7
    2  A    between atoms: C_1  and  C_14
    3  A    between atoms: C_3  and  C_26
    4  A    between atoms: N_4  and  C_25
    5  A    between atoms: N_4  and  CA_30
    6  A    between atoms: C_6  and  S_7
    7  A    between atoms: C_14  and  C_23
    8  A    between atoms: C_17  and  C_34
    9  A    between atoms: C_18  and  CA_30
   10  A    between atoms: C_25  and  C_26
   11  A    between atoms: CA_30  and  C_31
                            x       y       z     vdW  Elec       q    Type
                         _______ _______ _______ _____ _____    ______ ____

>  <TORSDO>
F 11

$$$$
=
 OpenBabel11042411443D

 40 45  0  0  1  0  0  0  0  0999 V2000
  188.0730  178.0580  140.4790 N   0  0  0  0  0  0  0  0  0  0  0  0
  186.4180  178.3290  142.2670 C   0  0  0  0  0  0  0  0  0  0  0  0
  187.9990  176.9460  138.3450 N   0  0  1  0  0  0  0  0  0  0  0  0
  190.2130  176.6700  137.2250 C   0  0  1  0  0  3  0  0  0  0  0  0
  182.6780  178.7770  142.0770 C   0  0  0  0  0  1  0  0  0  0  0  0
  188.8500  177.4090  139.4110 C   0  0  2  0  0  0  0  0  0  0  0  0
  184.0950  178.5820  141.6760 C   0  0  0  0  0  0  0  0  0  0  0  0
  187.1790  178.0100  137.7430 C   0  0  2  0  0  3  0  0  0  0  0  0
  188.8790  176.1040  137.5080 C   0  0  1  0  0  3  0  0  0  0  0  0
  184.4190  178.4670  140.3600 N   0  0  0  0  0  0  0  0  0  0  0  0
  185.9270  178.1720  138.5060 N   0  0  0  0  0  2  0  0  0  0  0  0
  185.0900  178.5170  142.6520 C   0  0  0  0  0  3  0  0  0  0  0  0
  189.9700  176.4500  139.6130 C   0  0  0  0  0  2  0  0  0  0  0  0
  185.7000  178.2890  139.9350 C   0  0  0  0  0  0  0  0  0  0  0  0
  190.0540  175.7060  138.3390 N   0  0  2  0  0  0  0  0  0  0  0  0
  189.1250  178.7300  139.6310 C   0  0  0  0  0  2  0  0  0  0  0  0
  186.7310  178.2150  140.9040 C   0  0  0  0  0  0  0  0  0  0  0  0
  190.9540  175.8530  135.8210 S   0  0  0  0  0  0  0  0  0  0  0  0
  190.3540  174.4900  135.6080 O   0  0  0  0  0  0  0  0  0  0  0  0
  190.7260  176.6900  134.5940 O   0  0  0  0  0  0  0  0  0  0  0  0
  192.7050  175.6980  136.1060 C   0  0  2  0  0  3  0  0  0  0  0  0
  193.3760  175.7850  134.9000 F   0  0  0  0  0  0  0  0  0  0  0  0
  193.0010  174.3620  136.7680 C   0  0  0  0  0  2  0  0  0  0  0  0
  194.7640  172.7310  137.3470 C   0  0  0  0  0  0  0  0  0  0  0  0
  194.4810  171.6190  136.8310 O   0  0  0  0  0  0  0  0  0  0  0  0
  194.4860  174.0340  136.7040 C   0  0  2  0  0  3  0  0  0  0  0  0
  195.6580  174.2420  138.8650 C   0  0  0  0  0  2  0  0  0  0  0  0
  195.2410  175.0100  137.6040 C   0  0  0  0  0  2  0  0  0  0  0  0
  195.4340  172.8380  138.5830 N   0  0  0  0  0  2  0  0  0  0  0  0
  185.5080  177.0810  136.0830 C   0  0  0  0  0  1  0  0  0  0  0  0
  186.8550  177.7610  136.2660 C   0  0  0  0  0  2  0  0  0  0  0  0
  187.4780  178.2690  143.3160 C   0  0  0  0  0  2  0  0  0  0  0  0
  187.0300  177.3910  144.4670 C   0  0  0  0  0  2  0  0  0  0  0  0
  187.6760  177.8310  145.6910 N   0  0  0  0  0  2  0  0  0  0  0  0
  186.7760  177.5140  146.7880 C   0  0  2  0  0  3  0  0  0  0  0  0
  186.0800  179.7270  147.3290 O   0  0  0  0  0  1  0  0  0  0  0  0
  184.4200  178.3360  146.5750 O   0  0  0  0  0  0  0  0  0  0  0  0
  185.7450  178.5870  146.9150 C   0  0  0  0  0  0  0  0  0  0  0  0
  187.5700  177.3720  148.0810 C   0  0  0  0  0  2  0  0  0  0  0  0
  188.7680  178.1930  148.0220 N   0  0  0  0  0  1  0  0  0  0  0  0
  1 17  1  0  0  0  0
  2 12  1  0  0  0  0
  2 32  1  0  0  0  0
  3  6  1  0  0  0  0
  4  9  1  0  0  0  0
  4 15  1  0  0  0  0
  6 13  1  0  0  0  0
  6 16  1  0  0  0  0
  6  1  1  0  0  0  0
  7  5  1  0  0  0  0
  7 12  2  0  0  0  0
  8  3  1  0  0  0  0
  8 11  1  0  0  0  0
  9 15  1  0  0  0  0
  9  3  1  0  0  0  0
 10  7  1  0  0  0  0
 11 14  1  0  0  0  0
 14 10  2  0  0  0  0
 14 17  1  0  0  0  0
 15 13  1  0  0  0  0
 16  1  1  0  0  0  0
 17  2  2  0  0  0  0
 18 21  1  0  0  0  0
 18  4  1  0  0  0  0
 19 18  2  0  0  0  0
 20 18  2  0  0  0  0
 21 23  1  0  0  0  0
 22 21  1  0  0  0  0
 24 29  1  0  0  0  0
 25 24  2  0  0  0  0
 26 23  1  0  0  0  0
 26 24  1  0  0  0  0
 26 28  1  0  0  0  0
 28 27  1  0  0  0  0
 29 27  1  0  0  0  0
 30 31  1  0  0  0  0
 31  8  1  0  0  0  0
 32 33  1  0  0  0  0
 33 34  1  0  0  0  0
 34 35  1  0  0  0  0
 35 38  1  0  0  0  0
 35 39  1  0  0  0  0
 37 38  2  0  0  0  0
 38 36  1  0  0  0  0
 40 39  1  0  0  0  0
M  END
>  <MODEL>
9

>  <REMARK>
 VINA RESULT:      -6.7      3.646      6.750
  Name = 
  11 active torsions:
  status: ('A' for Active; 'I' for Inactive)
    1  A    between atoms: C_1  and  S_7
    2  A    between atoms: C_1  and  C_14
    3  A    between atoms: C_3  and  C_26
    4  A    between atoms: N_4  and  C_25
    5  A    between atoms: N_4  and  CA_30
    6  A    between atoms: C_6  and  S_7
    7  A    between atoms: C_14  and  C_23
    8  A    between atoms: C_17  and  C_34
    9  A    between atoms: C_18  and  CA_30
   10  A    between atoms: C_25  and  C_26
   11  A    between atoms: CA_30  and  C_31
                            x       y       z     vdW  Elec       q    Type
                         _______ _______ _______ _____ _____    ______ ____

>  <TORSDO>
F 11

$$$$
