=
 OpenBabel11032419073D

 42 46  0  0  1  0  0  0  0  0999 V2000
  185.2570  178.3720  145.7220 C   0  0  0  0  0  0  0  0  0  0  0  0
  190.0240  177.4920  146.4130 C   0  0  0  0  0  2  0  0  0  0  0  0
  184.4210  178.4870  144.6130 C   0  0  0  0  0  0  0  0  0  0  0  0
  186.7920  178.0090  144.0030 C   0  0  0  0  0  0  0  0  0  0  0  0
  187.6480  177.9450  146.2790 C   0  0  0  0  0  3  0  0  0  0  0  0
  189.1170  177.5790  144.3660 C   0  0  0  0  0  0  0  0  0  0  0  0
  188.9100  177.6800  145.7330 C   0  0  0  0  0  0  0  0  0  0  0  0
  185.3280  178.2470  143.2050 S   0  0  0  0  0  0  0  0  0  0  0  0
  184.8110  178.5030  147.0320 O   0  0  0  0  0  1  0  0  0  0  0  0
  191.1190  177.2360  145.4170 C   0  0  2  0  0  3  0  0  0  0  0  0
  186.5860  178.1090  145.3810 C   0  0  0  0  0  0  0  0  0  0  0  0
  188.0540  177.7440  143.4480 C   0  0  0  0  0  0  0  0  0  0  0  0
  190.3880  177.3170  144.1090 C   0  0  0  0  0  2  0  0  0  0  0  0
  191.7200  175.8720  145.6050 C   0  0  0  0  0  0  0  0  0  0  0  0
  192.0760  175.1930  144.6050 O   0  0  0  0  0  0  0  0  0  0  0  0
  193.0410  175.6750  147.6180 N   0  0  0  0  0  1  0  0  0  0  0  0
  191.9220  175.3530  146.8830 O   0  0  0  0  0  0  0  0  0  0  0  0
  188.1990  177.6470  142.0230 N   0  0  0  0  0  2  0  0  0  0  0  0
  188.2560  178.7810  141.1100 C   0  0  0  0  0  2  0  0  0  0  0  0
  189.1550  178.4540  139.9320 C   0  0  0  0  0  2  0  0  0  0  0  0
  189.8330  177.1080  140.1400 C   0  0  0  0  0  2  0  0  0  0  0  0
  189.8700  176.3310  138.8350 C   0  0  0  0  0  2  0  0  0  0  0  0
  189.8420  177.2830  137.6530 C   0  0  0  0  0  2  0  0  0  0  0  0
  188.7610  176.8500  136.6810 C   0  0  0  0  0  2  0  0  0  0  0  0
  186.6830  177.9830  137.4350 C   0  0  0  0  0  0  0  0  0  0  0  0
  187.1540  179.1790  136.8970 O   0  0  0  0  0  1  0  0  0  0  0  0
  187.4250  176.8760  137.3500 C   0  0  0  0  0  3  0  0  0  0  0  0
  185.3630  177.9530  138.0980 C   0  0  0  0  0  0  0  0  0  0  0  0
  183.1070  177.4390  139.7660 C   0  0  0  0  0  2  0  0  0  0  0  0
  183.7540  178.8250  139.7670 C   0  0  0  0  0  2  0  0  0  0  0  0
  183.2170  176.8060  138.4050 C   0  0  0  0  0  3  0  0  0  0  0  0
  184.2990  177.0210  137.6470 C   0  0  0  0  0  3  0  0  0  0  0  0
  185.1170  178.7740  139.1290 C   0  0  0  0  0  3  0  0  0  0  0  0
  182.9500  178.7310  144.6550 C   0  0  0  0  0  2  0  0  0  0  0  0
  182.4020  178.9620  143.2570 C   0  0  0  0  0  2  0  0  0  0  0  0
  180.8950  178.7580  143.2460 C   0  0  0  0  0  2  0  0  0  0  0  0
  180.2040  179.9020  142.5200 C   0  0  0  0  0  2  0  0  0  0  0  0
  180.3470  179.7790  141.0070 C   0  0  0  0  0  2  0  0  0  0  0  0
  179.1760  180.6780  139.1620 O   0  0  0  0  0  0  0  0  0  0  0  0
  180.5620  181.2470  139.1690 C   0  0  0  0  0  0  0  0  0  0  0  0
  181.6030  181.6220  138.5740 O   0  0  0  0  0  0  0  0  0  0  0  0
  179.8280  181.0280  140.3140 C   0  0  2  0  0  3  0  0  0  0  0  0
  1  9  1  0  0  0  0
  3 34  1  0  0  0  0
  3  1  2  0  0  0  0
  4 11  1  0  0  0  0
  6  7  2  0  0  0  0
  7  5  1  0  0  0  0
  7  2  1  0  0  0  0
  8  4  1  0  0  0  0
  8  3  1  0  0  0  0
 10 14  1  1  0  0  0
 10  2  1  0  0  0  0
 11  1  1  0  0  0  0
 11  5  2  0  0  0  0
 12  4  2  0  0  0  0
 12  6  1  0  0  0  0
 13  6  1  0  0  0  0
 13 10  1  0  0  0  0
 14 17  1  0  0  0  0
 15 14  2  0  0  0  0
 17 16  1  0  0  0  0
 18 12  1  0  0  0  0
 19 18  1  0  0  0  0
 20 21  1  0  0  0  0
 20 19  1  0  0  0  0
 22 21  1  0  0  0  0
 23 22  1  0  0  0  0
 24 27  1  0  0  0  0
 24 23  1  0  0  0  0
 25 28  1  0  0  0  0
 26 25  1  0  0  0  0
 27 25  2  0  0  0  0
 28 33  2  0  0  0  0
 29 30  1  0  0  0  0
 31 29  1  0  0  0  0
 32 28  1  0  0  0  0
 32 31  2  0  0  0  0
 33 30  1  0  0  0  0
 35 34  1  0  0  0  0
 36 35  1  0  0  0  0
 37 36  1  0  0  0  0
 38 37  1  0  0  0  0
 39 40  1  0  0  0  0
 39 42  1  0  0  0  0
 40 42  1  0  0  0  0
 41 40  2  0  0  0  0
 42 38  1  1  0  0  0
M  END
>  <MODEL>
1

>  <REMARK>
 VINA RESULT:      -8.0      0.000      0.000
  Name = 
  17 active torsions:
  status: ('A' for Active; 'I' for Inactive)
    1  A    between atoms: C_1  and  C_5
    2  A    between atoms: C_1  and  C_33
    3  A    between atoms: C_4  and  C_7
    4  A    between atoms: C_5  and  C_6
    5  A    between atoms: C_6  and  C_21
    6  A    between atoms: C_8  and  C_33
    7  A    between atoms: C_8  and  C_41
    8  A    between atoms: C_14  and  C_24
    9  A    between atoms: C_16  and  C_36
   10  A    between atoms: C_16  and  O_37
   11  A    between atoms: C_17  and  C_24
   12  A    between atoms: C_17  and  C_38
   13  A    between atoms: C_21  and  N_28
   14  A    between atoms: C_22  and  C_27
   15  A    between atoms: C_27  and  C_31
   16  A    between atoms: N_28  and  C_40
   17  A    between atoms: C_31  and  C_38
                            x       y       z     vdW  Elec       q    Type
                         _______ _______ _______ _____ _____    ______ ____

>  <TORSDO>
F 17

$$$$
=
 OpenBabel11032419073D

 42 46  0  0  1  0  0  0  0  0999 V2000
  185.5770  176.6330  136.2640 C   0  0  0  0  0  0  0  0  0  0  0  0
  181.1110  177.8730  137.8430 C   0  0  0  0  0  2  0  0  0  0  0  0
  186.8820  176.9420  136.6420 C   0  0  0  0  0  0  0  0  0  0  0  0
  185.1650  178.0640  138.0600 C   0  0  0  0  0  0  0  0  0  0  0  0
  183.2260  177.1470  136.9120 C   0  0  0  0  0  3  0  0  0  0  0  0
  182.9730  178.6530  138.8130 C   0  0  0  0  0  0  0  0  0  0  0  0
  182.4290  177.8610  137.8140 C   0  0  0  0  0  0  0  0  0  0  0  0
  186.8450  177.9890  137.9700 S   0  0  0  0  0  0  0  0  0  0  0  0
  185.2670  175.7810  135.2100 O   0  0  0  0  0  1  0  0  0  0  0  0
  180.6940  178.7670  138.9750 C   0  0  2  0  0  3  0  0  0  0  0  0
  184.6140  177.2650  137.0550 C   0  0  0  0  0  0  0  0  0  0  0  0
  184.3730  178.7830  138.9680 C   0  0  0  0  0  0  0  0  0  0  0  0
  182.0140  179.2120  139.5340 C   0  0  0  0  0  2  0  0  0  0  0  0
  179.9090  178.0100  140.0080 C   0  0  0  0  0  0  0  0  0  0  0  0
  179.2060  177.0200  139.6710 O   0  0  0  0  0  0  0  0  0  0  0  0
  179.2640  177.6800  142.3120 N   0  0  0  0  0  1  0  0  0  0  0  0
  179.9710  178.3700  141.3530 O   0  0  0  0  0  0  0  0  0  0  0  0
  184.9990  179.5830  139.9830 N   0  0  0  0  0  2  0  0  0  0  0  0
  185.5400  179.0710  141.2350 C   0  0  0  0  0  2  0  0  0  0  0  0
  184.5280  178.1570  141.9010 C   0  0  0  0  0  2  0  0  0  0  0  0
  184.0130  178.7830  143.1880 C   0  0  0  0  0  2  0  0  0  0  0  0
  184.9790  178.5090  144.3280 C   0  0  0  0  0  2  0  0  0  0  0  0
  184.3120  178.7850  145.6630 C   0  0  0  0  0  2  0  0  0  0  0  0
  185.2620  178.4210  146.7880 C   0  0  0  0  0  2  0  0  0  0  0  0
  187.6470  177.7620  147.0060 C   0  0  0  0  0  0  0  0  0  0  0  0
  187.5390  177.8770  148.3900 O   0  0  0  0  0  1  0  0  0  0  0  0
  186.5890  178.0180  146.2330 C   0  0  0  0  0  3  0  0  0  0  0  0
  188.9350  177.3560  146.4060 C   0  0  0  0  0  0  0  0  0  0  0  0
  191.5380  177.2290  145.2480 C   0  0  0  0  0  2  0  0  0  0  0  0
  191.2840  176.6030  146.6210 C   0  0  0  0  0  2  0  0  0  0  0  0
  190.3080  177.1300  144.3880 C   0  0  0  0  0  3  0  0  0  0  0  0
  189.0920  177.2310  144.9360 C   0  0  0  0  0  3  0  0  0  0  0  0
  189.9860  177.1020  147.1990 C   0  0  0  0  0  3  0  0  0  0  0  0
  188.1210  176.3970  136.0130 C   0  0  0  0  0  2  0  0  0  0  0  0
  189.3260  177.2530  136.3650 C   0  0  0  0  0  2  0  0  0  0  0  0
  190.5540  176.3760  136.5470 C   0  0  0  0  0  2  0  0  0  0  0  0
  191.1600  176.5820  137.9270 C   0  0  0  0  0  2  0  0  0  0  0  0
  190.3500  177.5700  138.7590 C   0  0  0  0  0  2  0  0  0  0  0  0
  190.5570  176.1050  140.6000 O   0  0  0  0  0  0  0  0  0  0  0  0
  189.5120  177.1280  140.9230 C   0  0  0  0  0  0  0  0  0  0  0  0
  188.4090  177.4590  141.4260 O   0  0  0  0  0  0  0  0  0  0  0  0
  190.6710  177.4200  140.2370 C   0  0  2  0  0  3  0  0  0  0  0  0
  1  3  2  0  0  0  0
  1 11  1  0  0  0  0
  2 10  1  0  0  0  0
  3  8  1  0  0  0  0
  4 12  1  0  0  0  0
  5 11  1  0  0  0  0
  5  7  2  0  0  0  0
  6 12  2  0  0  0  0
  6 13  1  0  0  0  0
  7  2  1  0  0  0  0
  7  6  1  0  0  0  0
  8  4  1  0  0  0  0
  9  1  1  0  0  0  0
 10 13  1  0  0  0  0
 10 14  1  1  0  0  0
 11  4  2  0  0  0  0
 12 18  1  0  0  0  0
 14 17  1  0  0  0  0
 15 14  2  0  0  0  0
 17 16  1  0  0  0  0
 18 19  1  0  0  0  0
 19 20  1  0  0  0  0
 20 21  1  0  0  0  0
 21 22  1  0  0  0  0
 22 23  1  0  0  0  0
 23 24  1  0  0  0  0
 25 26  1  0  0  0  0
 27 24  1  0  0  0  0
 27 25  2  0  0  0  0
 28 25  1  0  0  0  0
 28 33  2  0  0  0  0
 29 30  1  0  0  0  0
 30 33  1  0  0  0  0
 31 32  2  0  0  0  0
 31 29  1  0  0  0  0
 32 28  1  0  0  0  0
 34 35  1  0  0  0  0
 34  3  1  0  0  0  0
 35 36  1  0  0  0  0
 36 37  1  0  0  0  0
 37 38  1  0  0  0  0
 39 40  1  0  0  0  0
 40 41  2  0  0  0  0
 42 38  1  6  0  0  0
 42 39  1  0  0  0  0
 42 40  1  0  0  0  0
M  END
>  <MODEL>
2

>  <REMARK>
 VINA RESULT:      -7.7      2.971     10.040
  Name = 
  17 active torsions:
  status: ('A' for Active; 'I' for Inactive)
    1  A    between atoms: C_1  and  C_5
    2  A    between atoms: C_1  and  C_33
    3  A    between atoms: C_4  and  C_7
    4  A    between atoms: C_5  and  C_6
    5  A    between atoms: C_6  and  C_21
    6  A    between atoms: C_8  and  C_33
    7  A    between atoms: C_8  and  C_41
    8  A    between atoms: C_14  and  C_24
    9  A    between atoms: C_16  and  C_36
   10  A    between atoms: C_16  and  O_37
   11  A    between atoms: C_17  and  C_24
   12  A    between atoms: C_17  and  C_38
   13  A    between atoms: C_21  and  N_28
   14  A    between atoms: C_22  and  C_27
   15  A    between atoms: C_27  and  C_31
   16  A    between atoms: N_28  and  C_40
   17  A    between atoms: C_31  and  C_38
                            x       y       z     vdW  Elec       q    Type
                         _______ _______ _______ _____ _____    ______ ____

>  <TORSDO>
F 17

$$$$
=
 OpenBabel11032419073D

 42 46  0  0  1  0  0  0  0  0999 V2000
  185.8470  178.4310  145.9700 C   0  0  0  0  0  0  0  0  0  0  0  0
  190.4830  177.3630  147.1280 C   0  0  0  0  0  2  0  0  0  0  0  0
  185.0960  178.4410  144.7970 C   0  0  0  0  0  0  0  0  0  0  0  0
  187.4620  177.7360  144.4360 C   0  0  0  0  0  0  0  0  0  0  0  0
  188.1600  177.9390  146.7580 C   0  0  0  0  0  3  0  0  0  0  0  0
  189.7210  177.2190  145.0270 C   0  0  0  0  0  0  0  0  0  0  0  0
  189.4320  177.5230  146.3480 C   0  0  0  0  0  0  0  0  0  0  0  0
  186.0740  177.9500  143.5060 S   0  0  0  0  0  0  0  0  0  0  0  0
  185.3270  178.7710  147.2140 O   0  0  0  0  0  1  0  0  0  0  0  0
  191.6200  176.9030  146.2620 C   0  0  2  0  0  3  0  0  0  0  0  0
  187.1740  178.0410  145.7690 C   0  0  0  0  0  0  0  0  0  0  0  0
  188.7350  177.3190  144.0180 C   0  0  0  0  0  0  0  0  0  0  0  0
  190.9840  176.8450  144.9030 C   0  0  0  0  0  2  0  0  0  0  0  0
  192.1090  175.5450  146.6760 C   0  0  0  0  0  0  0  0  0  0  0  0
  192.2980  174.6470  145.8120 O   0  0  0  0  0  0  0  0  0  0  0  0
  193.1320  176.1320  148.7840 N   0  0  0  0  0  1  0  0  0  0  0  0
  192.3880  175.2670  148.0140 O   0  0  0  0  0  0  0  0  0  0  0  0
  188.9660  177.0150  142.6340 N   0  0  0  0  0  2  0  0  0  0  0  0
  190.0340  177.5810  141.8210 C   0  0  0  0  0  2  0  0  0  0  0  0
  189.6220  177.5940  140.3610 C   0  0  0  0  0  2  0  0  0  0  0  0
  188.3030  178.3310  140.1880 C   0  0  0  0  0  2  0  0  0  0  0  0
  187.7720  178.1350  138.7780 C   0  0  0  0  0  2  0  0  0  0  0  0
  188.8450  178.4730  137.7590 C   0  0  0  0  0  2  0  0  0  0  0  0
  188.7520  177.5110  136.5900 C   0  0  0  0  0  2  0  0  0  0  0  0
  187.5070  175.4200  136.0950 C   0  0  0  0  0  0  0  0  0  0  0  0
  188.4320  175.1200  135.0970 O   0  0  0  0  0  1  0  0  0  0  0  0
  187.6350  176.5420  136.8060 C   0  0  0  0  0  3  0  0  0  0  0  0
  186.3900  174.4890  136.3570 C   0  0  0  0  0  0  0  0  0  0  0  0
  184.5950  172.5310  137.3970 C   0  0  0  0  0  2  0  0  0  0  0  0
  184.1570  173.9950  137.3080 C   0  0  0  0  0  2  0  0  0  0  0  0
  185.5350  172.1920  136.2710 C   0  0  0  0  0  3  0  0  0  0  0  0
  186.4010  173.1060  135.8180 C   0  0  0  0  0  3  0  0  0  0  0  0
  185.3480  174.8920  137.0990 C   0  0  0  0  0  3  0  0  0  0  0  0
  183.6470  178.7790  144.6950 C   0  0  0  0  0  2  0  0  0  0  0  0
  183.2610  179.0720  143.2550 C   0  0  0  0  0  2  0  0  0  0  0  0
  181.7700  178.8490  143.0580 C   0  0  0  0  0  2  0  0  0  0  0  0
  181.4060  178.9320  141.5830 C   0  0  0  0  0  2  0  0  0  0  0  0
  182.1850  177.9200  140.7500 C   0  0  0  0  0  2  0  0  0  0  0  0
  183.6090  177.7260  138.8760 O   0  0  0  0  0  0  0  0  0  0  0  0
  184.0050  178.9470  139.6490 C   0  0  0  0  0  0  0  0  0  0  0  0
  184.8760  179.7230  140.1170 O   0  0  0  0  0  0  0  0  0  0  0  0
  182.6960  178.5570  139.4680 C   0  0  2  0  0  3  0  0  0  0  0  0
  1  9  1  0  0  0  0
  3  1  2  0  0  0  0
  4 11  1  0  0  0  0
  6  7  2  0  0  0  0
  7  5  1  0  0  0  0
  7  2  1  0  0  0  0
  8  4  1  0  0  0  0
  8  3  1  0  0  0  0
 10 14  1  1  0  0  0
 10  2  1  0  0  0  0
 11  1  1  0  0  0  0
 11  5  2  0  0  0  0
 12  4  2  0  0  0  0
 12  6  1  0  0  0  0
 13  6  1  0  0  0  0
 13 10  1  0  0  0  0
 14 17  1  0  0  0  0
 15 14  2  0  0  0  0
 17 16  1  0  0  0  0
 18 12  1  0  0  0  0
 19 18  1  0  0  0  0
 20 19  1  0  0  0  0
 21 20  1  0  0  0  0
 22 21  1  0  0  0  0
 23 22  1  0  0  0  0
 24 27  1  0  0  0  0
 24 23  1  0  0  0  0
 25 28  1  0  0  0  0
 25 27  2  0  0  0  0
 26 25  1  0  0  0  0
 28 33  2  0  0  0  0
 30 29  1  0  0  0  0
 31 29  1  0  0  0  0
 32 31  2  0  0  0  0
 32 28  1  0  0  0  0
 33 30  1  0  0  0  0
 34  3  1  0  0  0  0
 35 34  1  0  0  0  0
 36 35  1  0  0  0  0
 37 36  1  0  0  0  0
 38 37  1  0  0  0  0
 39 42  1  0  0  0  0
 39 40  1  0  0  0  0
 40 41  2  0  0  0  0
 42 40  1  0  0  0  0
 42 38  1  1  0  0  0
M  END
>  <MODEL>
3

>  <REMARK>
 VINA RESULT:      -7.7      2.071      2.714
  Name = 
  17 active torsions:
  status: ('A' for Active; 'I' for Inactive)
    1  A    between atoms: C_1  and  C_5
    2  A    between atoms: C_1  and  C_33
    3  A    between atoms: C_4  and  C_7
    4  A    between atoms: C_5  and  C_6
    5  A    between atoms: C_6  and  C_21
    6  A    between atoms: C_8  and  C_33
    7  A    between atoms: C_8  and  C_41
    8  A    between atoms: C_14  and  C_24
    9  A    between atoms: C_16  and  C_36
   10  A    between atoms: C_16  and  O_37
   11  A    between atoms: C_17  and  C_24
   12  A    between atoms: C_17  and  C_38
   13  A    between atoms: C_21  and  N_28
   14  A    between atoms: C_22  and  C_27
   15  A    between atoms: C_27  and  C_31
   16  A    between atoms: N_28  and  C_40
   17  A    between atoms: C_31  and  C_38
                            x       y       z     vdW  Elec       q    Type
                         _______ _______ _______ _____ _____    ______ ____

>  <TORSDO>
F 17

$$$$
=
 OpenBabel11032419073D

 42 46  0  0  1  0  0  0  0  0999 V2000
  185.7180  178.4730  146.0640 C   0  0  0  0  0  0  0  0  0  0  0  0
  190.4240  177.4040  146.8950 C   0  0  0  0  0  2  0  0  0  0  0  0
  184.8860  178.4780  144.9460 C   0  0  0  0  0  0  0  0  0  0  0  0
  187.2190  177.7670  144.4230 C   0  0  0  0  0  0  0  0  0  0  0  0
  188.0810  177.9820  146.6880 C   0  0  0  0  0  3  0  0  0  0  0  0
  189.5140  177.2490  144.8550 C   0  0  0  0  0  0  0  0  0  0  0  0
  189.3200  177.5620  146.1910 C   0  0  0  0  0  0  0  0  0  0  0  0
  185.7690  177.9780  143.5920 S   0  0  0  0  0  0  0  0  0  0  0  0
  185.2880  178.8220  147.3390 O   0  0  0  0  0  1  0  0  0  0  0  0
  191.4960  176.9380  145.9530 C   0  0  2  0  0  3  0  0  0  0  0  0
  187.0270  178.0800  145.7710 C   0  0  0  0  0  0  0  0  0  0  0  0
  188.4590  177.3450  143.9170 C   0  0  0  0  0  0  0  0  0  0  0  0
  190.7640  176.8720  144.6430 C   0  0  0  0  0  2  0  0  0  0  0  0
  192.0110  175.5810  146.3400 C   0  0  0  0  0  0  0  0  0  0  0  0
  192.3250  174.7440  145.4510 O   0  0  0  0  0  0  0  0  0  0  0  0
  193.0950  175.8910  148.4760 N   0  0  0  0  0  1  0  0  0  0  0  0
  192.1790  175.2400  147.6810 O   0  0  0  0  0  0  0  0  0  0  0  0
  188.5910  177.0320  142.5230 N   0  0  0  0  0  2  0  0  0  0  0  0
  188.7690  178.0120  141.4600 C   0  0  0  0  0  2  0  0  0  0  0  0
  189.3340  177.3380  140.2230 C   0  0  0  0  0  2  0  0  0  0  0  0
  190.8180  177.0590  140.4020 C   0  0  0  0  0  2  0  0  0  0  0  0
  191.4680  176.7920  139.0550 C   0  0  0  0  0  2  0  0  0  0  0  0
  190.5140  177.1430  137.9290 C   0  0  0  0  0  2  0  0  0  0  0  0
  190.8260  176.2870  136.7170 C   0  0  0  0  0  2  0  0  0  0  0  0
  192.2550  174.2680  136.9430 C   0  0  0  0  0  0  0  0  0  0  0  0
  191.1200  173.4670  136.8330 O   0  0  0  0  0  1  0  0  0  0  0  0
  192.1390  175.5970  136.8960 C   0  0  0  0  0  3  0  0  0  0  0  0
  193.5790  173.6350  137.1110 C   0  0  0  0  0  0  0  0  0  0  0  0
  195.8120  172.0340  137.8770 C   0  0  0  0  0  2  0  0  0  0  0  0
  195.2890  171.9730  136.4400 C   0  0  0  0  0  2  0  0  0  0  0  0
  195.6210  173.4120  138.4500 C   0  0  0  0  0  3  0  0  0  0  0  0
  194.5490  174.1390  138.1160 C   0  0  0  0  0  3  0  0  0  0  0  0
  193.9150  172.5830  136.3500 C   0  0  0  0  0  3  0  0  0  0  0  0
  183.4330  178.8170  144.9460 C   0  0  0  0  0  2  0  0  0  0  0  0
  183.0190  179.4140  143.6120 C   0  0  0  0  0  2  0  0  0  0  0  0
  181.5580  179.1040  143.3320 C   0  0  0  0  0  2  0  0  0  0  0  0
  181.3840  178.5750  141.9150 C   0  0  0  0  0  2  0  0  0  0  0  0
  182.7210  178.4360  141.1960 C   0  0  0  0  0  2  0  0  0  0  0  0
  183.4460  177.8570  139.0240 O   0  0  0  0  0  0  0  0  0  0  0  0
  183.6400  179.3300  139.2120 C   0  0  0  0  0  0  0  0  0  0  0  0
  184.3040  180.3860  139.0530 O   0  0  0  0  0  0  0  0  0  0  0  0
  182.5510  178.6410  139.7000 C   0  0  2  0  0  3  0  0  0  0  0  0
  1  9  1  0  0  0  0
  3  1  2  0  0  0  0
  4 11  1  0  0  0  0
  6  7  2  0  0  0  0
  7  5  1  0  0  0  0
  7  2  1  0  0  0  0
  8  4  1  0  0  0  0
  8  3  1  0  0  0  0
 10 14  1  1  0  0  0
 10  2  1  0  0  0  0
 11  1  1  0  0  0  0
 11  5  2  0  0  0  0
 12  4  2  0  0  0  0
 12  6  1  0  0  0  0
 13  6  1  0  0  0  0
 13 10  1  0  0  0  0
 14 17  1  0  0  0  0
 15 14  2  0  0  0  0
 17 16  1  0  0  0  0
 18 12  1  0  0  0  0
 19 18  1  0  0  0  0
 20 21  1  0  0  0  0
 20 19  1  0  0  0  0
 22 21  1  0  0  0  0
 23 22  1  0  0  0  0
 24 27  1  0  0  0  0
 24 23  1  0  0  0  0
 25 28  1  0  0  0  0
 26 25  1  0  0  0  0
 27 25  2  0  0  0  0
 28 32  1  0  0  0  0
 29 31  1  0  0  0  0
 30 29  1  0  0  0  0
 32 31  2  0  0  0  0
 33 30  1  0  0  0  0
 33 28  2  0  0  0  0
 34  3  1  0  0  0  0
 35 34  1  0  0  0  0
 36 35  1  0  0  0  0
 37 36  1  0  0  0  0
 38 37  1  0  0  0  0
 39 40  1  0  0  0  0
 39 42  1  0  0  0  0
 40 42  1  0  0  0  0
 41 40  2  0  0  0  0
 42 38  1  1  0  0  0
M  END
>  <MODEL>
4

>  <REMARK>
 VINA RESULT:      -7.7      2.939      5.089
  Name = 
  17 active torsions:
  status: ('A' for Active; 'I' for Inactive)
    1  A    between atoms: C_1  and  C_5
    2  A    between atoms: C_1  and  C_33
    3  A    between atoms: C_4  and  C_7
    4  A    between atoms: C_5  and  C_6
    5  A    between atoms: C_6  and  C_21
    6  A    between atoms: C_8  and  C_33
    7  A    between atoms: C_8  and  C_41
    8  A    between atoms: C_14  and  C_24
    9  A    between atoms: C_16  and  C_36
   10  A    between atoms: C_16  and  O_37
   11  A    between atoms: C_17  and  C_24
   12  A    between atoms: C_17  and  C_38
   13  A    between atoms: C_21  and  N_28
   14  A    between atoms: C_22  and  C_27
   15  A    between atoms: C_27  and  C_31
   16  A    between atoms: N_28  and  C_40
   17  A    between atoms: C_31  and  C_38
                            x       y       z     vdW  Elec       q    Type
                         _______ _______ _______ _____ _____    ______ ____

>  <TORSDO>
F 17

$$$$
=
 OpenBabel11032419073D

 42 46  0  0  1  0  0  0  0  0999 V2000
  190.9730  177.7260  142.3940 C   0  0  0  0  0  0  0  0  0  0  0  0
  193.3960  176.5390  138.3080 C   0  0  0  0  0  2  0  0  0  0  0  0
  189.6330  177.8840  142.7410 C   0  0  0  0  0  0  0  0  0  0  0  0
  189.9540  177.2430  140.3520 C   0  0  0  0  0  0  0  0  0  0  0  0
  192.3840  177.1480  140.4220 C   0  0  0  0  0  3  0  0  0  0  0  0
  191.1600  176.6640  138.3690 C   0  0  0  0  0  0  0  0  0  0  0  0
  192.3490  176.7940  139.0690 C   0  0  0  0  0  0  0  0  0  0  0  0
  188.6670  177.5690  141.3880 S   0  0  0  0  0  0  0  0  0  0  0  0
  192.0210  177.9010  143.2910 O   0  0  0  0  0  1  0  0  0  0  0  0
  192.8820  176.2000  136.9380 C   0  0  2  0  0  3  0  0  0  0  0  0
  191.1540  177.3720  141.0550 C   0  0  0  0  0  0  0  0  0  0  0  0
  189.9110  176.8880  138.9940 C   0  0  0  0  0  0  0  0  0  0  0  0
  191.3960  176.3150  137.1150 C   0  0  0  0  0  2  0  0  0  0  0  0
  193.2630  174.8020  136.5420 C   0  0  0  0  0  0  0  0  0  0  0  0
  194.1530  174.1820  137.1830 O   0  0  0  0  0  0  0  0  0  0  0  0
  193.2290  173.1460  134.7840 N   0  0  0  0  0  1  0  0  0  0  0  0
  192.6180  174.1610  135.4850 O   0  0  0  0  0  0  0  0  0  0  0  0
  188.6450  176.7660  138.3290 N   0  0  0  0  0  2  0  0  0  0  0  0
  187.9990  177.8220  137.5610 C   0  0  0  0  0  2  0  0  0  0  0  0
  186.8840  177.2380  136.7130 C   0  0  0  0  0  2  0  0  0  0  0  0
  185.5390  177.8000  137.1440 C   0  0  0  0  0  2  0  0  0  0  0  0
  184.4340  176.7990  136.8550 C   0  0  0  0  0  2  0  0  0  0  0  0
  183.3820  176.8450  137.9470 C   0  0  0  0  0  2  0  0  0  0  0  0
  183.3190  178.2430  138.5310 C   0  0  0  0  0  2  0  0  0  0  0  0
  184.1530  178.7390  140.8170 C   0  0  0  0  0  0  0  0  0  0  0  0
  185.2410  179.4090  140.2620 O   0  0  0  0  0  1  0  0  0  0  0  0
  183.2390  178.1780  140.0210 C   0  0  0  0  0  3  0  0  0  0  0  0
  184.0210  178.6540  142.2870 C   0  0  0  0  0  0  0  0  0  0  0  0
  183.9000  179.1440  145.0940 C   0  0  0  0  0  2  0  0  0  0  0  0
  182.6450  178.6890  144.3450 C   0  0  0  0  0  2  0  0  0  0  0  0
  185.1320  178.5470  144.4700 C   0  0  0  0  0  3  0  0  0  0  0  0
  185.1940  178.3590  143.1460 C   0  0  0  0  0  3  0  0  0  0  0  0
  182.8250  178.8540  142.8590 C   0  0  0  0  0  3  0  0  0  0  0  0
  189.1220  178.2260  144.1000 C   0  0  0  0  0  2  0  0  0  0  0  0
  188.4640  177.0180  144.7470 C   0  0  0  0  0  2  0  0  0  0  0  0
  188.0690  177.3440  146.1790 C   0  0  0  0  0  2  0  0  0  0  0  0
  189.2970  177.6960  147.0070 C   0  0  0  0  0  2  0  0  0  0  0  0
  190.1520  176.4680  147.3010 C   0  0  0  0  0  2  0  0  0  0  0  0
  192.0380  175.4490  146.3080 O   0  0  0  0  0  0  0  0  0  0  0  0
  192.4550  176.0490  147.6150 C   0  0  0  0  0  0  0  0  0  0  0  0
  193.1140  176.0150  148.6860 O   0  0  0  0  0  0  0  0  0  0  0  0
  191.5600  176.6510  146.7580 C   0  0  2  0  0  3  0  0  0  0  0  0
  1  3  2  0  0  0  0
  1  9  1  0  0  0  0
  2  7  1  0  0  0  0
  3 34  1  0  0  0  0
  4 11  1  0  0  0  0
  4  8  1  0  0  0  0
  5 11  2  0  0  0  0
  6 12  1  0  0  0  0
  6  7  2  0  0  0  0
  7  5  1  0  0  0  0
  8  3  1  0  0  0  0
 10 14  1  1  0  0  0
 10 13  1  0  0  0  0
 10  2  1  0  0  0  0
 11  1  1  0  0  0  0
 12  4  2  0  0  0  0
 13  6  1  0  0  0  0
 14 15  2  0  0  0  0
 16 17  1  0  0  0  0
 17 14  1  0  0  0  0
 18 12  1  0  0  0  0
 19 18  1  0  0  0  0
 20 21  1  0  0  0  0
 20 19  1  0  0  0  0
 22 21  1  0  0  0  0
 22 23  1  0  0  0  0
 23 24  1  0  0  0  0
 24 27  1  0  0  0  0
 25 28  1  0  0  0  0
 26 25  1  0  0  0  0
 27 25  2  0  0  0  0
 28 33  2  0  0  0  0
 28 32  1  0  0  0  0
 30 29  1  0  0  0  0
 31 29  1  0  0  0  0
 32 31  2  0  0  0  0
 33 30  1  0  0  0  0
 34 35  1  0  0  0  0
 35 36  1  0  0  0  0
 36 37  1  0  0  0  0
 37 38  1  0  0  0  0
 39 42  1  0  0  0  0
 39 40  1  0  0  0  0
 40 41  2  0  0  0  0
 42 38  1  1  0  0  0
 42 40  1  0  0  0  0
M  END
>  <MODEL>
5

>  <REMARK>
 VINA RESULT:      -7.6      2.980      8.184
  Name = 
  17 active torsions:
  status: ('A' for Active; 'I' for Inactive)
    1  A    between atoms: C_1  and  C_5
    2  A    between atoms: C_1  and  C_33
    3  A    between atoms: C_4  and  C_7
    4  A    between atoms: C_5  and  C_6
    5  A    between atoms: C_6  and  C_21
    6  A    between atoms: C_8  and  C_33
    7  A    between atoms: C_8  and  C_41
    8  A    between atoms: C_14  and  C_24
    9  A    between atoms: C_16  and  C_36
   10  A    between atoms: C_16  and  O_37
   11  A    between atoms: C_17  and  C_24
   12  A    between atoms: C_17  and  C_38
   13  A    between atoms: C_21  and  N_28
   14  A    between atoms: C_22  and  C_27
   15  A    between atoms: C_27  and  C_31
   16  A    between atoms: N_28  and  C_40
   17  A    between atoms: C_31  and  C_38
                            x       y       z     vdW  Elec       q    Type
                         _______ _______ _______ _____ _____    ______ ____

>  <TORSDO>
F 17

$$$$
=
 OpenBabel11032419073D

 42 46  0  0  1  0  0  0  0  0999 V2000
  184.6350  178.6210  145.3110 C   0  0  0  0  0  0  0  0  0  0  0  0
  180.4820  179.2250  142.7880 C   0  0  0  0  0  2  0  0  0  0  0  0
  185.9580  178.3280  144.9860 C   0  0  0  0  0  0  0  0  0  0  0  0
  184.4670  178.4510  142.9900 C   0  0  0  0  0  0  0  0  0  0  0  0
  182.4240  178.9580  144.2110 C   0  0  0  0  0  3  0  0  0  0  0  0
  182.4260  178.7530  141.7800 C   0  0  0  0  0  0  0  0  0  0  0  0
  181.7640  178.9830  142.9770 C   0  0  0  0  0  0  0  0  0  0  0  0
  186.0960  178.1640  143.3080 S   0  0  0  0  0  0  0  0  0  0  0  0
  184.1960  178.8300  146.6140 O   0  0  0  0  0  1  0  0  0  0  0  0
  180.2230  179.1540  141.3110 C   0  0  2  0  0  3  0  0  0  0  0  0
  183.7980  178.6860  144.1940 C   0  0  0  0  0  0  0  0  0  0  0  0
  183.8120  178.4750  141.7490 C   0  0  0  0  0  0  0  0  0  0  0  0
  181.5850  178.8400  140.7620 C   0  0  0  0  0  2  0  0  0  0  0  0
  179.7270  180.4680  140.7780 C   0  0  0  0  0  0  0  0  0  0  0  0
  179.4320  181.4020  141.5700 O   0  0  0  0  0  0  0  0  0  0  0  0
  179.9810  181.8820  138.8370 N   0  0  0  0  0  1  0  0  0  0  0  0
  179.6150  180.6830  139.4060 O   0  0  0  0  0  0  0  0  0  0  0  0
  184.5570  178.2320  140.5460 N   0  0  0  0  0  2  0  0  0  0  0  0
  184.6400  179.1470  139.4150 C   0  0  0  0  0  2  0  0  0  0  0  0
  183.9940  178.5200  138.1930 C   0  0  0  0  0  2  0  0  0  0  0  0
  184.8010  177.3200  137.7230 C   0  0  0  0  0  2  0  0  0  0  0  0
  186.1380  177.7730  137.1640 C   0  0  0  0  0  2  0  0  0  0  0  0
  187.2670  176.9640  137.7750 C   0  0  0  0  0  2  0  0  0  0  0  0
  188.4360  177.8810  138.0830 C   0  0  0  0  0  2  0  0  0  0  0  0
  189.1220  177.9950  140.4670 C   0  0  0  0  0  0  0  0  0  0  0  0
  188.3540  179.1470  140.6200 O   0  0  0  0  0  1  0  0  0  0  0  0
  189.1790  177.3860  139.2810 C   0  0  0  0  0  3  0  0  0  0  0  0
  189.8680  177.4580  141.6240 C   0  0  0  0  0  0  0  0  0  0  0  0
  191.6780  176.1320  143.3850 C   0  0  0  0  0  2  0  0  0  0  0  0
  191.6330  177.6610  143.3490 C   0  0  0  0  0  2  0  0  0  0  0  0
  190.3150  175.5580  143.1080 C   0  0  0  0  0  3  0  0  0  0  0  0
  189.4890  176.1660  142.2490 C   0  0  0  0  0  3  0  0  0  0  0  0
  190.9100  178.1410  142.1180 C   0  0  0  0  0  3  0  0  0  0  0  0
  187.0880  178.2270  145.9540 C   0  0  0  0  0  2  0  0  0  0  0  0
  188.2390  177.4340  145.3580 C   0  0  0  0  0  2  0  0  0  0  0  0
  189.5350  177.7730  146.0770 C   0  0  0  0  0  2  0  0  0  0  0  0
  190.2360  176.5060  146.5440 C   0  0  0  0  0  2  0  0  0  0  0  0
  191.0660  176.7480  147.7990 C   0  0  0  0  0  2  0  0  0  0  0  0
  192.5080  175.0170  148.5090 O   0  0  0  0  0  0  0  0  0  0  0  0
  193.1520  176.3320  148.8260 C   0  0  0  0  0  0  0  0  0  0  0  0
  193.8250  177.0780  149.5820 O   0  0  0  0  0  0  0  0  0  0  0  0
  192.4350  176.0990  147.6730 C   0  0  2  0  0  3  0  0  0  0  0  0
  1  9  1  0  0  0  0
  2  7  1  0  0  0  0
  3  1  2  0  0  0  0
  3 34  1  0  0  0  0
  4  8  1  0  0  0  0
  4 11  1  0  0  0  0
  6  7  2  0  0  0  0
  7  5  1  0  0  0  0
  8  3  1  0  0  0  0
 10 14  1  6  0  0  0
 10  2  1  0  0  0  0
 11  5  2  0  0  0  0
 11  1  1  0  0  0  0
 12  6  1  0  0  0  0
 12  4  2  0  0  0  0
 13 10  1  0  0  0  0
 13  6  1  0  0  0  0
 14 15  2  0  0  0  0
 16 17  1  0  0  0  0
 17 14  1  0  0  0  0
 18 12  1  0  0  0  0
 19 18  1  0  0  0  0
 20 19  1  0  0  0  0
 21 20  1  0  0  0  0
 22 21  1  0  0  0  0
 22 23  1  0  0  0  0
 23 24  1  0  0  0  0
 24 27  1  0  0  0  0
 25 26  1  0  0  0  0
 25 28  1  0  0  0  0
 27 25  2  0  0  0  0
 28 33  2  0  0  0  0
 28 32  1  0  0  0  0
 30 29  1  0  0  0  0
 31 29  1  0  0  0  0
 32 31  2  0  0  0  0
 33 30  1  0  0  0  0
 35 34  1  0  0  0  0
 35 36  1  0  0  0  0
 36 37  1  0  0  0  0
 37 38  1  0  0  0  0
 39 40  1  0  0  0  0
 40 41  2  0  0  0  0
 42 38  1  1  0  0  0
 42 39  1  0  0  0  0
 42 40  1  0  0  0  0
M  END
>  <MODEL>
6

>  <REMARK>
 VINA RESULT:      -7.4      2.356      9.141
  Name = 
  17 active torsions:
  status: ('A' for Active; 'I' for Inactive)
    1  A    between atoms: C_1  and  C_5
    2  A    between atoms: C_1  and  C_33
    3  A    between atoms: C_4  and  C_7
    4  A    between atoms: C_5  and  C_6
    5  A    between atoms: C_6  and  C_21
    6  A    between atoms: C_8  and  C_33
    7  A    between atoms: C_8  and  C_41
    8  A    between atoms: C_14  and  C_24
    9  A    between atoms: C_16  and  C_36
   10  A    between atoms: C_16  and  O_37
   11  A    between atoms: C_17  and  C_24
   12  A    between atoms: C_17  and  C_38
   13  A    between atoms: C_21  and  N_28
   14  A    between atoms: C_22  and  C_27
   15  A    between atoms: C_27  and  C_31
   16  A    between atoms: N_28  and  C_40
   17  A    between atoms: C_31  and  C_38
                            x       y       z     vdW  Elec       q    Type
                         _______ _______ _______ _____ _____    ______ ____

>  <TORSDO>
F 17

$$$$
=
 OpenBabel11032419073D

 42 46  0  0  1  0  0  0  0  0999 V2000
  183.2350  178.7620  143.5330 C   0  0  0  0  0  0  0  0  0  0  0  0
  180.2020  179.0560  139.7000 C   0  0  0  0  0  2  0  0  0  0  0  0
  184.6170  178.7770  143.7050 C   0  0  0  0  0  0  0  0  0  0  0  0
  183.9300  178.9900  141.3170 C   0  0  0  0  0  0  0  0  0  0  0  0
  181.5320  178.8890  141.7170 C   0  0  0  0  0  3  0  0  0  0  0  0
  182.4280  179.1330  139.4610 C   0  0  0  0  0  0  0  0  0  0  0  0
  181.3570  179.0180  140.3340 C   0  0  0  0  0  0  0  0  0  0  0  0
  185.3650  178.9480  142.1980 S   0  0  0  0  0  0  0  0  0  0  0  0
  182.3340  178.6480  144.5850 O   0  0  0  0  0  1  0  0  0  0  0  0
  180.4990  179.2090  138.2350 C   0  0  2  0  0  3  0  0  0  0  0  0
  182.8490  178.8760  142.1950 C   0  0  0  0  0  0  0  0  0  0  0  0
  183.7630  179.1200  139.9300 C   0  0  0  0  0  0  0  0  0  0  0  0
  181.9990  179.2510  138.2150 C   0  0  0  0  0  2  0  0  0  0  0  0
  179.9250  180.4860  137.6920 C   0  0  0  0  0  0  0  0  0  0  0  0
  178.9550  181.0430  138.2730 O   0  0  0  0  0  0  0  0  0  0  0  0
  180.6870  182.4460  136.5040 N   0  0  0  0  0  1  0  0  0  0  0  0
  180.4730  181.0870  136.5600 O   0  0  0  0  0  0  0  0  0  0  0  0
  184.9140  179.2380  139.0810 N   0  0  0  0  0  2  0  0  0  0  0  0
  185.7170  178.1220  138.6010 C   0  0  0  0  0  2  0  0  0  0  0  0
  185.3980  177.8430  137.1430 C   0  0  0  0  0  2  0  0  0  0  0  0
  185.7450  176.4060  136.7890 C   0  0  0  0  0  2  0  0  0  0  0  0
  187.2450  176.2600  136.5980 C   0  0  0  0  0  2  0  0  0  0  0  0
  187.7800  177.3880  135.7360 C   0  0  0  0  0  2  0  0  0  0  0  0
  189.2380  177.6340  136.0730 C   0  0  0  0  0  2  0  0  0  0  0  0
  189.4060  178.1550  138.4950 C   0  0  0  0  0  0  0  0  0  0  0  0
  189.0480  179.4740  138.2240 O   0  0  0  0  0  1  0  0  0  0  0  0
  189.5070  177.2740  137.4980 C   0  0  0  0  0  3  0  0  0  0  0  0
  189.6720  177.7440  139.8900 C   0  0  0  0  0  0  0  0  0  0  0  0
  189.9360  176.3700  142.3740 C   0  0  0  0  0  2  0  0  0  0  0  0
  191.1850  176.8550  141.6360 C   0  0  0  0  0  2  0  0  0  0  0  0
  188.7830  177.3060  142.1320 C   0  0  0  0  0  3  0  0  0  0  0  0
  188.6460  177.9140  140.9490 C   0  0  0  0  0  3  0  0  0  0  0  0
  190.8560  177.2020  140.2090 C   0  0  0  0  0  3  0  0  0  0  0  0
  185.3300  178.7070  145.0140 C   0  0  0  0  0  2  0  0  0  0  0  0
  186.5360  177.7870  144.9220 C   0  0  0  0  0  2  0  0  0  0  0  0
  187.1990  177.6570  146.2850 C   0  0  0  0  0  2  0  0  0  0  0  0
  188.6680  177.2900  146.1340 C   0  0  0  0  0  2  0  0  0  0  0  0
  189.3530  177.1340  147.4860 C   0  0  0  0  0  2  0  0  0  0  0  0
  191.6920  177.1150  147.8230 O   0  0  0  0  0  0  0  0  0  0  0  0
  191.4210  176.9460  146.3600 C   0  0  0  0  0  0  0  0  0  0  0  0
  191.6890  177.1780  145.1530 O   0  0  0  0  0  0  0  0  0  0  0  0
  190.6540  176.3610  147.3440 C   0  0  2  0  0  3  0  0  0  0  0  0
  1  3  2  0  0  0  0
  1  9  1  0  0  0  0
  2  7  1  0  0  0  0
  3 34  1  0  0  0  0
  4 11  1  0  0  0  0
  4  8  1  0  0  0  0
  5 11  2  0  0  0  0
  6 12  1  0  0  0  0
  6  7  2  0  0  0  0
  7  5  1  0  0  0  0
  8  3  1  0  0  0  0
 10 14  1  1  0  0  0
 10  2  1  0  0  0  0
 11  1  1  0  0  0  0
 12  4  2  0  0  0  0
 13 10  1  0  0  0  0
 13  6  1  0  0  0  0
 14 15  2  0  0  0  0
 16 17  1  0  0  0  0
 17 14  1  0  0  0  0
 18 12  1  0  0  0  0
 19 18  1  0  0  0  0
 20 19  1  0  0  0  0
 21 20  1  0  0  0  0
 22 21  1  0  0  0  0
 23 24  1  0  0  0  0
 23 22  1  0  0  0  0
 24 27  1  0  0  0  0
 25 28  1  0  0  0  0
 26 25  1  0  0  0  0
 27 25  2  0  0  0  0
 28 33  2  0  0  0  0
 28 32  1  0  0  0  0
 30 29  1  0  0  0  0
 31 29  1  0  0  0  0
 32 31  2  0  0  0  0
 33 30  1  0  0  0  0
 35 34  1  0  0  0  0
 35 36  1  0  0  0  0
 37 36  1  0  0  0  0
 37 38  1  0  0  0  0
 40 42  1  0  0  0  0
 40 39  1  0  0  0  0
 41 40  2  0  0  0  0
 42 38  1  1  0  0  0
 42 39  1  0  0  0  0
M  END
>  <MODEL>
7

>  <REMARK>
 VINA RESULT:      -7.4      2.521      8.810
  Name = 
  17 active torsions:
  status: ('A' for Active; 'I' for Inactive)
    1  A    between atoms: C_1  and  C_5
    2  A    between atoms: C_1  and  C_33
    3  A    between atoms: C_4  and  C_7
    4  A    between atoms: C_5  and  C_6
    5  A    between atoms: C_6  and  C_21
    6  A    between atoms: C_8  and  C_33
    7  A    between atoms: C_8  and  C_41
    8  A    between atoms: C_14  and  C_24
    9  A    between atoms: C_16  and  C_36
   10  A    between atoms: C_16  and  O_37
   11  A    between atoms: C_17  and  C_24
   12  A    between atoms: C_17  and  C_38
   13  A    between atoms: C_21  and  N_28
   14  A    between atoms: C_22  and  C_27
   15  A    between atoms: C_27  and  C_31
   16  A    between atoms: N_28  and  C_40
   17  A    between atoms: C_31  and  C_38
                            x       y       z     vdW  Elec       q    Type
                         _______ _______ _______ _____ _____    ______ ____

>  <TORSDO>
F 17

$$$$
=
 OpenBabel11032419073D

 42 46  0  0  1  0  0  0  0  0999 V2000
  182.2230  178.0940  137.1920 C   0  0  0  0  0  0  0  0  0  0  0  0
  186.9850  176.9560  137.2070 C   0  0  0  0  0  2  0  0  0  0  0  0
  181.3630  178.7700  138.0550 C   0  0  0  0  0  0  0  0  0  0  0  0
  183.7090  178.6670  138.8970 C   0  0  0  0  0  0  0  0  0  0  0  0
  184.6150  177.4160  137.0170 C   0  0  0  0  0  3  0  0  0  0  0  0
  186.0320  178.1000  138.8800 C   0  0  0  0  0  0  0  0  0  0  0  0
  185.8580  177.4690  137.6580 C   0  0  0  0  0  0  0  0  0  0  0  0
  182.2350  179.3060  139.4020 S   0  0  0  0  0  0  0  0  0  0  0  0
  181.8140  177.5410  135.9830 O   0  0  0  0  0  1  0  0  0  0  0  0
  188.0530  177.2580  138.2180 C   0  0  2  0  0  3  0  0  0  0  0  0
  183.5360  178.0310  137.6650 C   0  0  0  0  0  0  0  0  0  0  0  0
  184.9520  178.7240  139.5460 C   0  0  0  0  0  0  0  0  0  0  0  0
  187.2950  178.0190  139.2670 C   0  0  0  0  0  2  0  0  0  0  0  0
  189.1400  178.1100  137.6280 C   0  0  0  0  0  0  0  0  0  0  0  0
  189.0310  179.3650  137.6250 O   0  0  0  0  0  0  0  0  0  0  0  0
  191.0370  176.6280  137.8330 N   0  0  0  0  0  1  0  0  0  0  0  0
  190.2940  177.5290  137.1030 O   0  0  0  0  0  0  0  0  0  0  0  0
  185.0660  179.3980  140.8090 N   0  0  0  0  0  2  0  0  0  0  0  0
  185.1990  178.7360  142.1000 C   0  0  0  0  0  2  0  0  0  0  0  0
  183.8380  178.6050  142.7580 C   0  0  0  0  0  2  0  0  0  0  0  0
  183.8760  179.1610  144.1720 C   0  0  0  0  0  2  0  0  0  0  0  0
  185.1820  178.7850  144.8500 C   0  0  0  0  0  2  0  0  0  0  0  0
  184.9130  178.1760  146.2130 C   0  0  0  0  0  2  0  0  0  0  0  0
  186.1780  178.2280  147.0490 C   0  0  0  0  0  2  0  0  0  0  0  0
  188.6170  177.9400  146.6770 C   0  0  0  0  0  0  0  0  0  0  0  0
  188.8450  178.2500  148.0160 O   0  0  0  0  0  1  0  0  0  0  0  0
  187.3700  177.9300  146.1990 C   0  0  0  0  0  3  0  0  0  0  0  0
  189.7610  177.6270  145.7960 C   0  0  0  0  0  0  0  0  0  0  0  0
  191.5620  176.5500  143.8650 C   0  0  0  0  0  2  0  0  0  0  0  0
  191.0610  177.9880  143.7190 C   0  0  0  0  0  2  0  0  0  0  0  0
  191.6790  176.1760  145.3170 C   0  0  0  0  0  3  0  0  0  0  0  0
  190.8040  176.6540  146.2090 C   0  0  0  0  0  3  0  0  0  0  0  0
  189.8620  178.2230  144.6000 C   0  0  0  0  0  3  0  0  0  0  0  0
  179.9150  179.0300  137.8110 C   0  0  0  0  0  2  0  0  0  0  0  0
  179.7220  180.3160  137.0260 C   0  0  0  0  0  2  0  0  0  0  0  0
  179.7960  181.5140  137.9590 C   0  0  0  0  0  2  0  0  0  0  0  0
  180.9650  182.4140  137.5850 C   0  0  0  0  0  2  0  0  0  0  0  0
  180.7950  183.0100  136.1920 C   0  0  0  0  0  2  0  0  0  0  0  0
  181.9480  184.7830  137.2440 O   0  0  0  0  0  0  0  0  0  0  0  0
  180.4810  185.0830  137.2790 C   0  0  0  0  0  0  0  0  0  0  0  0
  179.4570  185.5230  137.8610 O   0  0  0  0  0  0  0  0  0  0  0  0
  181.1080  184.4970  136.2010 C   0  0  2  0  0  3  0  0  0  0  0  0
  1 11  1  0  0  0  0
  1  3  2  0  0  0  0
  2  7  1  0  0  0  0
  2 10  1  0  0  0  0
  3  8  1  0  0  0  0
  4  8  1  0  0  0  0
  4 12  1  0  0  0  0
  5  7  2  0  0  0  0
  5 11  1  0  0  0  0
  6 13  1  0  0  0  0
  6 12  2  0  0  0  0
  7  6  1  0  0  0  0
  9  1  1  0  0  0  0
 10 14  1  6  0  0  0
 10 13  1  0  0  0  0
 11  4  2  0  0  0  0
 12 18  1  0  0  0  0
 15 14  2  0  0  0  0
 17 14  1  0  0  0  0
 17 16  1  0  0  0  0
 18 19  1  0  0  0  0
 19 20  1  0  0  0  0
 20 21  1  0  0  0  0
 21 22  1  0  0  0  0
 22 23  1  0  0  0  0
 23 24  1  0  0  0  0
 25 26  1  0  0  0  0
 27 25  2  0  0  0  0
 27 24  1  0  0  0  0
 28 32  1  0  0  0  0
 28 25  1  0  0  0  0
 29 31  1  0  0  0  0
 30 29  1  0  0  0  0
 30 33  1  0  0  0  0
 31 32  2  0  0  0  0
 33 28  2  0  0  0  0
 34  3  1  0  0  0  0
 35 34  1  0  0  0  0
 35 36  1  0  0  0  0
 37 36  1  0  0  0  0
 38 37  1  0  0  0  0
 39 40  1  0  0  0  0
 40 41  2  0  0  0  0
 42 38  1  1  0  0  0
 42 39  1  0  0  0  0
 42 40  1  0  0  0  0
M  END
>  <MODEL>
8

>  <REMARK>
 VINA RESULT:      -7.3      2.861      8.012
  Name = 
  17 active torsions:
  status: ('A' for Active; 'I' for Inactive)
    1  A    between atoms: C_1  and  C_5
    2  A    between atoms: C_1  and  C_33
    3  A    between atoms: C_4  and  C_7
    4  A    between atoms: C_5  and  C_6
    5  A    between atoms: C_6  and  C_21
    6  A    between atoms: C_8  and  C_33
    7  A    between atoms: C_8  and  C_41
    8  A    between atoms: C_14  and  C_24
    9  A    between atoms: C_16  and  C_36
   10  A    between atoms: C_16  and  O_37
   11  A    between atoms: C_17  and  C_24
   12  A    between atoms: C_17  and  C_38
   13  A    between atoms: C_21  and  N_28
   14  A    between atoms: C_22  and  C_27
   15  A    between atoms: C_27  and  C_31
   16  A    between atoms: N_28  and  C_40
   17  A    between atoms: C_31  and  C_38
                            x       y       z     vdW  Elec       q    Type
                         _______ _______ _______ _____ _____    ______ ____

>  <TORSDO>
F 17

$$$$
=
 OpenBabel11032419073D

 42 46  0  0  1  0  0  0  0  0999 V2000
  183.5090  178.6280  143.2350 C   0  0  0  0  0  0  0  0  0  0  0  0
  180.2380  179.4940  139.6950 C   0  0  0  0  0  2  0  0  0  0  0  0
  184.8970  178.5220  143.2970 C   0  0  0  0  0  0  0  0  0  0  0  0
  184.0560  179.0000  140.9980 C   0  0  0  0  0  0  0  0  0  0  0  0
  181.6940  179.0460  141.5790 C   0  0  0  0  0  3  0  0  0  0  0  0
  182.4400  179.4230  139.2870 C   0  0  0  0  0  0  0  0  0  0  0  0
  181.4300  179.3120  140.2300 C   0  0  0  0  0  0  0  0  0  0  0  0
  185.5440  178.7710  141.7540 S   0  0  0  0  0  0  0  0  0  0  0  0
  182.6810  178.4880  144.3430 O   0  0  0  0  0  1  0  0  0  0  0  0
  180.4380  179.7550  138.2300 C   0  0  2  0  0  3  0  0  0  0  0  0
  183.0370  178.8910  141.9470 C   0  0  0  0  0  0  0  0  0  0  0  0
  183.7990  179.2670  139.6440 C   0  0  0  0  0  0  0  0  0  0  0  0
  181.9320  179.6850  138.0930 C   0  0  0  0  0  2  0  0  0  0  0  0
  179.9340  181.1160  137.8440 C   0  0  0  0  0  0  0  0  0  0  0  0
  179.6470  181.9620  138.7320 O   0  0  0  0  0  0  0  0  0  0  0  0
  180.3320  182.6490  136.0200 N   0  0  0  0  0  1  0  0  0  0  0  0
  179.8050  181.4720  136.5020 O   0  0  0  0  0  0  0  0  0  0  0  0
  184.8910  179.3740  138.7190 N   0  0  0  0  0  2  0  0  0  0  0  0
  185.3650  178.2990  137.8580 C   0  0  0  0  0  2  0  0  0  0  0  0
  186.7360  177.8350  138.3150 C   0  0  0  0  0  2  0  0  0  0  0  0
  187.7990  178.2480  137.3100 C   0  0  0  0  0  2  0  0  0  0  0  0
  189.0560  178.7050  138.0310 C   0  0  0  0  0  2  0  0  0  0  0  0
  190.1640  177.6830  137.8590 C   0  0  0  0  0  2  0  0  0  0  0  0
  189.8700  176.4690  138.7190 C   0  0  0  0  0  2  0  0  0  0  0  0
  189.9590  176.8880  141.1660 C   0  0  0  0  0  0  0  0  0  0  0  0
  188.5870  177.1370  141.1600 O   0  0  0  0  0  1  0  0  0  0  0  0
  190.5830  176.5780  140.0270 C   0  0  0  0  0  3  0  0  0  0  0  0
  190.7090  176.9730  142.4360 C   0  0  0  0  0  0  0  0  0  0  0  0
  191.5590  177.2760  145.1410 C   0  0  0  0  0  2  0  0  0  0  0  0
  191.6840  175.9150  144.4520 C   0  0  0  0  0  2  0  0  0  0  0  0
  191.7460  178.3900  144.1470 C   0  0  0  0  0  3  0  0  0  0  0  0
  191.3070  178.2530  142.8910 C   0  0  0  0  0  3  0  0  0  0  0  0
  190.8510  175.8790  143.1980 C   0  0  0  0  0  3  0  0  0  0  0  0
  185.6960  178.2810  144.5340 C   0  0  0  0  0  2  0  0  0  0  0  0
  186.7950  177.2640  144.2760 C   0  0  0  0  0  2  0  0  0  0  0  0
  188.0890  177.7150  144.9350 C   0  0  0  0  0  2  0  0  0  0  0  0
  188.2470  177.0700  146.3040 C   0  0  0  0  0  2  0  0  0  0  0  0
  189.1730  177.8780  147.2060 C   0  0  0  0  0  2  0  0  0  0  0  0
  187.5550  177.3190  148.8340 O   0  0  0  0  0  0  0  0  0  0  0  0
  187.1520  178.6090  148.1860 C   0  0  0  0  0  0  0  0  0  0  0  0
  186.2800  179.3830  147.7180 O   0  0  0  0  0  0  0  0  0  0  0  0
  188.4590  178.2860  148.4830 C   0  0  2  0  0  3  0  0  0  0  0  0
  1  3  2  0  0  0  0
  1  9  1  0  0  0  0
  2  7  1  0  0  0  0
  3 34  1  0  0  0  0
  4  8  1  0  0  0  0
  4 11  1  0  0  0  0
  5 11  2  0  0  0  0
  6 12  1  0  0  0  0
  6  7  2  0  0  0  0
  7  5  1  0  0  0  0
  8  3  1  0  0  0  0
 10 14  1  1  0  0  0
 10  2  1  0  0  0  0
 11  1  1  0  0  0  0
 12  4  2  0  0  0  0
 13 10  1  0  0  0  0
 13  6  1  0  0  0  0
 14 15  2  0  0  0  0
 16 17  1  0  0  0  0
 17 14  1  0  0  0  0
 18 12  1  0  0  0  0
 19 20  1  0  0  0  0
 19 18  1  0  0  0  0
 21 22  1  0  0  0  0
 21 20  1  0  0  0  0
 23 22  1  0  0  0  0
 23 24  1  0  0  0  0
 24 27  1  0  0  0  0
 25 28  1  0  0  0  0
 26 25  1  0  0  0  0
 27 25  2  0  0  0  0
 28 32  1  0  0  0  0
 28 33  2  0  0  0  0
 30 29  1  0  0  0  0
 31 29  1  0  0  0  0
 32 31  2  0  0  0  0
 33 30  1  0  0  0  0
 35 34  1  0  0  0  0
 35 36  1  0  0  0  0
 36 37  1  0  0  0  0
 37 38  1  0  0  0  0
 40 42  1  0  0  0  0
 40 39  1  0  0  0  0
 41 40  2  0  0  0  0
 42 38  1  6  0  0  0
 42 39  1  0  0  0  0
M  END
>  <MODEL>
9

>  <REMARK>
 VINA RESULT:      -7.3      2.859      8.924
  Name = 
  17 active torsions:
  status: ('A' for Active; 'I' for Inactive)
    1  A    between atoms: C_1  and  C_5
    2  A    between atoms: C_1  and  C_33
    3  A    between atoms: C_4  and  C_7
    4  A    between atoms: C_5  and  C_6
    5  A    between atoms: C_6  and  C_21
    6  A    between atoms: C_8  and  C_33
    7  A    between atoms: C_8  and  C_41
    8  A    between atoms: C_14  and  C_24
    9  A    between atoms: C_16  and  C_36
   10  A    between atoms: C_16  and  O_37
   11  A    between atoms: C_17  and  C_24
   12  A    between atoms: C_17  and  C_38
   13  A    between atoms: C_21  and  N_28
   14  A    between atoms: C_22  and  C_27
   15  A    between atoms: C_27  and  C_31
   16  A    between atoms: N_28  and  C_40
   17  A    between atoms: C_31  and  C_38
                            x       y       z     vdW  Elec       q    Type
                         _______ _______ _______ _____ _____    ______ ____

>  <TORSDO>
F 17

$$$$
