=
 OpenBabel11042412233D

 44 47  0  0  1  0  0  0  0  0999 V2000
  190.4740  177.1350  141.4950 C   0  0  0  0  0  0  0  0  0  0  0  0
  190.5830  177.0330  140.1070 O   0  0  0  0  0  0  0  0  0  0  0  0
  186.2950  178.1150  139.0100 N   0  0  0  0  0  0  0  0  0  0  0  0
  188.4940  177.3020  138.2030 C   0  0  0  0  0  0  0  0  0  0  0  0
  191.5790  177.2460  143.6540 C   0  0  0  0  0  3  0  0  0  0  0  0
  190.4930  178.1030  139.2940 O   0  0  0  0  0  0  0  0  0  0  0  0
  189.1660  177.1420  143.5440 C   0  0  0  0  0  3  0  0  0  0  0  0
  187.1450  177.2260  138.2510 C   0  0  0  0  0  0  0  0  0  0  0  0
  186.4250  178.7180  140.1630 C   0  0  0  0  0  0  0  0  0  0  0  0
  191.6450  177.2020  142.2580 C   0  0  0  0  0  3  0  0  0  0  0  0
  187.9410  177.1140  141.3890 C   0  0  0  0  0  2  0  0  0  0  0  0
  190.3380  177.2110  144.3100 C   0  0  0  0  0  0  0  0  0  0  0  0
  189.2240  177.1010  142.1480 C   0  0  0  0  0  0  0  0  0  0  0  0
  187.6150  178.5620  141.0610 C   0  0  0  0  0  2  0  0  0  0  0  0
  189.1830  178.2320  138.9950 O   0  0  0  0  0  0  0  0  0  0  0  0
  186.4260  176.2780  137.3400 C   0  0  0  0  0  1  0  0  0  0  0  0
  190.2680  177.2250  145.7870 C   0  0  0  0  0  0  0  0  0  0  0  0
  189.2990  177.8340  146.3950 N   0  0  0  0  0  2  0  0  0  0  0  0
  192.0810  176.5960  147.7020 N   0  0  0  0  0  0  0  0  0  0  0  0
  192.2880  175.6330  146.7390 N   0  0  0  0  0  2  0  0  0  0  0  0
  191.3320  176.6150  146.5870 C   0  0  0  0  0  0  0  0  0  0  0  0
  189.8310  175.1980  137.9790 C   0  0  0  0  0  1  0  0  0  0  0  0
  189.2580  176.4050  137.2550 C   0  0  2  0  0  3  0  0  0  0  0  0
  189.8050  177.5460  135.2110 O   0  0  0  0  0  1  0  0  0  0  0  0
  190.3170  177.1770  136.4570 C   0  0  2  0  0  3  0  0  0  0  0  0
  194.4630  175.3700  138.1670 O   0  0  0  0  0  0  0  0  0  0  0  0
  191.7390  175.7220  135.1900 O   0  0  0  0  0  0  0  0  0  0  0  0
  193.9050  175.8820  137.1550 C   0  0  0  0  0  0  0  0  0  0  0  0
  192.5620  176.3680  137.2830 N   0  0  0  0  0  2  0  0  0  0  0  0
  191.5670  176.3780  136.2540 C   0  0  0  0  0  0  0  0  0  0  0  0
  194.6790  176.0160  135.9010 C   0  0  0  0  0  0  0  0  0  0  0  0
  194.9870  177.1610  135.4800 O   0  0  0  0  0  0  0  0  0  0  0  0
  195.0410  174.8300  135.0770 C   0  0  0  0  0  1  0  0  0  0  0  0
  185.3970  179.5860  140.5540 O   0  0  0  0  0  0  0  0  0  0  0  0
  184.4180  179.2460  141.5340 C   0  0  1  0  0  3  0  0  0  0  0  0
  182.1540  178.4460  141.0420 C   0  0  0  0  0  2  0  0  0  0  0  0
  182.9260  178.3800  139.8640 O   0  0  0  0  0  0  0  0  0  0  0  0
  183.5850  178.0610  141.0720 C   0  0  1  0  0  3  0  0  0  0  0  0
  185.0970  178.8870  142.8470 C   0  0  0  0  0  2  0  0  0  0  0  0
  184.5100  179.6320  143.9020 O   0  0  0  0  0  0  0  0  0  0  0  0
  183.7060  179.0260  144.8640 C   0  0  0  0  0  0  0  0  0  0  0  0
  182.5040  178.7710  144.5850 O   0  0  0  0  0  0  0  0  0  0  0  0
  184.2280  178.6990  146.1180 O   0  0  0  0  0  0  0  0  0  0  0  0
  185.5450  179.0520  146.4920 C   0  0  0  0  0  1  0  0  0  0  0  0
  1 13  2  0  0  0  0
  1 10  1  0  0  0  0
  2  1  1  0  0  0  0
  3  9  2  0  0  0  0
  4  8  2  0  0  0  0
  4 15  1  0  0  0  0
  5 12  1  0  0  0  0
  6  2  1  0  0  0  0
  7 12  2  0  0  0  0
  8  3  1  0  0  0  0
  9 34  1  0  0  0  0
  9 14  1  0  0  0  0
 10  5  2  0  0  0  0
 11 13  1  0  0  0  0
 12 17  1  0  0  0  0
 13  7  1  0  0  0  0
 14 11  1  0  0  0  0
 15  6  1  0  0  0  0
 16  8  1  0  0  0  0
 17 18  2  0  0  0  0
 17 21  1  0  0  0  0
 20 19  1  0  0  0  0
 21 20  1  0  0  0  0
 21 19  2  0  0  0  0
 23 22  1  1  0  0  0
 23  4  1  0  0  0  0
 25 24  1  6  0  0  0
 25 23  1  0  0  0  0
 27 30  2  0  0  0  0
 28 29  1  0  0  0  0
 28 26  2  0  0  0  0
 30 25  1  0  0  0  0
 30 29  1  0  0  0  0
 31 28  1  0  0  0  0
 32 31  2  0  0  0  0
 33 31  1  0  0  0  0
 34 35  1  0  0  0  0
 35 39  1  1  0  0  0
 36 38  1  0  0  0  0
 37 36  1  0  0  0  0
 37 38  1  0  0  0  0
 38 35  1  1  0  0  0
 39 40  1  0  0  0  0
 40 41  1  0  0  0  0
 41 43  1  0  0  0  0
 42 41  2  0  0  0  0
 43 44  1  0  0  0  0
M  END
>  <MODEL>
1

>  <REMARK>
 VINA RESULT:      -7.7      0.000      0.000
  Name = 
  13 active torsions:
  status: ('A' for Active; 'I' for Inactive)
    1  A    between atoms: C_7  and  C_37
    2  A    between atoms: C_9  and  O_12
    3  A    between atoms: C_9  and  O_19
    4  A    between atoms: C_11  and  C_20
    5  A    between atoms: O_12  and  C_34
    6  A    between atoms: C_17  and  C_29
    7  A    between atoms: C_17  and  C_44
    8  A    between atoms: C_21  and  O_41
    9  A    between atoms: C_23  and  C_32
   10  A    between atoms: C_23  and  C_34
   11  A    between atoms: C_23  and  O_41
   12  A    between atoms: C_31  and  C_40
   13  A    between atoms: C_37  and  C_40
                            x       y       z     vdW  Elec       q    Type
                         _______ _______ _______ _____ _____    ______ ____

>  <TORSDO>
F 13

$$$$
=
 OpenBabel11042412233D

 44 47  0  0  1  0  0  0  0  0999 V2000
  188.6610  177.7060  142.1320 C   0  0  0  0  0  0  0  0  0  0  0  0
  189.1050  177.6010  140.8130 O   0  0  0  0  0  0  0  0  0  0  0  0
  185.1780  178.5370  138.7000 N   0  0  0  0  0  0  0  0  0  0  0  0
  187.5310  177.7930  138.4580 C   0  0  0  0  0  0  0  0  0  0  0  0
  189.2080  177.8630  144.4920 C   0  0  0  0  0  3  0  0  0  0  0  0
  189.1820  178.6640  139.9890 O   0  0  0  0  0  0  0  0  0  0  0  0
  186.8980  177.6800  143.8050 C   0  0  0  0  0  3  0  0  0  0  0  0
  186.2130  177.6730  138.1800 C   0  0  0  0  0  0  0  0  0  0  0  0
  185.0070  179.1500  139.8430 C   0  0  0  0  0  0  0  0  0  0  0  0
  189.6100  177.8150  143.1540 C   0  0  0  0  0  3  0  0  0  0  0  0
  186.2310  177.6020  141.4180 C   0  0  0  0  0  2  0  0  0  0  0  0
  187.8470  177.7910  144.8300 C   0  0  0  0  0  0  0  0  0  0  0  0
  187.2920  177.6350  142.4640 C   0  0  0  0  0  0  0  0  0  0  0  0
  185.9490  179.0370  141.0040 C   0  0  0  0  0  2  0  0  0  0  0  0
  187.9790  178.7480  139.3810 O   0  0  0  0  0  0  0  0  0  0  0  0
  185.7650  176.6970  137.1350 C   0  0  0  0  0  1  0  0  0  0  0  0
  187.4220  177.8100  146.2460 C   0  0  0  0  0  0  0  0  0  0  0  0
  188.1160  177.1930  147.1500 N   0  0  0  0  0  2  0  0  0  0  0  0
  185.5330  179.5000  147.2090 N   0  0  0  0  0  0  0  0  0  0  0  0
  184.7950  178.4630  146.6810 N   0  0  0  0  0  2  0  0  0  0  0  0
  186.1720  178.4650  146.6390 C   0  0  0  0  0  0  0  0  0  0  0  0
  188.8850  175.6900  138.5570 C   0  0  0  0  0  1  0  0  0  0  0  0
  188.5280  176.9160  137.7330 C   0  0  2  0  0  3  0  0  0  0  0  0
  189.4630  178.4420  136.1290 O   0  0  0  0  0  1  0  0  0  0  0  0
  189.7630  177.7040  137.2760 C   0  0  2  0  0  3  0  0  0  0  0  0
  193.9540  175.7190  138.6420 O   0  0  0  0  0  0  0  0  0  0  0  0
  190.9420  176.0860  135.9590 O   0  0  0  0  0  0  0  0  0  0  0  0
  193.3190  176.2090  137.6650 C   0  0  0  0  0  0  0  0  0  0  0  0
  192.0310  176.7920  137.9050 N   0  0  0  0  0  2  0  0  0  0  0  0
  190.9310  176.8120  136.9910 C   0  0  0  0  0  0  0  0  0  0  0  0
  193.9560  176.2180  136.3300 C   0  0  0  0  0  0  0  0  0  0  0  0
  194.5140  177.2670  135.9140 O   0  0  0  0  0  0  0  0  0  0  0  0
  193.8880  175.0380  135.4250 C   0  0  0  0  0  1  0  0  0  0  0  0
  183.8890  179.9860  139.9630 O   0  0  0  0  0  0  0  0  0  0  0  0
  182.7250  179.8540  139.1500 C   0  0  1  0  0  3  0  0  0  0  0  0
  181.2950  177.8940  139.4980 C   0  0  0  0  0  2  0  0  0  0  0  0
  182.0120  178.1510  140.6850 O   0  0  0  0  0  0  0  0  0  0  0  0
  181.5710  179.2770  139.9550 C   0  0  1  0  0  3  0  0  0  0  0  0
  182.3120  181.2130  138.6050 C   0  0  0  0  0  2  0  0  0  0  0  0
  181.0580  181.0990  137.9500 O   0  0  0  0  0  0  0  0  0  0  0  0
  180.7230  181.9120  136.8710 C   0  0  0  0  0  0  0  0  0  0  0  0
  180.7410  181.4250  135.7090 O   0  0  0  0  0  0  0  0  0  0  0  0
  180.3640  183.2470  137.0750 O   0  0  0  0  0  0  0  0  0  0  0  0
  181.2510  184.3090  136.7860 C   0  0  0  0  0  1  0  0  0  0  0  0
  1 13  2  0  0  0  0
  1 10  1  0  0  0  0
  2  1  1  0  0  0  0
  3  9  2  0  0  0  0
  4 15  1  0  0  0  0
  5 12  1  0  0  0  0
  6  2  1  0  0  0  0
  7 12  2  0  0  0  0
  8  4  2  0  0  0  0
  8  3  1  0  0  0  0
  9 34  1  0  0  0  0
  9 14  1  0  0  0  0
 10  5  2  0  0  0  0
 11 13  1  0  0  0  0
 12 17  1  0  0  0  0
 13  7  1  0  0  0  0
 14 11  1  0  0  0  0
 15  6  1  0  0  0  0
 16  8  1  0  0  0  0
 17 21  1  0  0  0  0
 17 18  2  0  0  0  0
 20 19  1  0  0  0  0
 21 20  1  0  0  0  0
 21 19  2  0  0  0  0
 23  4  1  0  0  0  0
 23 22  1  1  0  0  0
 25 24  1  6  0  0  0
 25 23  1  0  0  0  0
 27 30  2  0  0  0  0
 28 29  1  0  0  0  0
 28 26  2  0  0  0  0
 30 25  1  0  0  0  0
 30 29  1  0  0  0  0
 31 28  1  0  0  0  0
 32 31  2  0  0  0  0
 33 31  1  0  0  0  0
 35 39  1  1  0  0  0
 35 34  1  0  0  0  0
 36 38  1  0  0  0  0
 36 37  1  0  0  0  0
 38 35  1  6  0  0  0
 38 37  1  0  0  0  0
 40 39  1  0  0  0  0
 41 43  1  0  0  0  0
 41 40  1  0  0  0  0
 42 41  2  0  0  0  0
 44 43  1  0  0  0  0
M  END
>  <MODEL>
2

>  <REMARK>
 VINA RESULT:      -7.0      2.553      4.140
  Name = 
  13 active torsions:
  status: ('A' for Active; 'I' for Inactive)
    1  A    between atoms: C_7  and  C_37
    2  A    between atoms: C_9  and  O_12
    3  A    between atoms: C_9  and  O_19
    4  A    between atoms: C_11  and  C_20
    5  A    between atoms: O_12  and  C_34
    6  A    between atoms: C_17  and  C_29
    7  A    between atoms: C_17  and  C_44
    8  A    between atoms: C_21  and  O_41
    9  A    between atoms: C_23  and  C_32
   10  A    between atoms: C_23  and  C_34
   11  A    between atoms: C_23  and  O_41
   12  A    between atoms: C_31  and  C_40
   13  A    between atoms: C_37  and  C_40
                            x       y       z     vdW  Elec       q    Type
                         _______ _______ _______ _____ _____    ______ ____

>  <TORSDO>
F 13

$$$$
=
 OpenBabel11042412233D

 44 47  0  0  1  0  0  0  0  0999 V2000
  187.8670  177.0990  137.6020 C   0  0  0  0  0  0  0  0  0  0  0  0
  189.0690  176.5390  137.1640 O   0  0  0  0  0  0  0  0  0  0  0  0
  191.4100  176.8230  141.0630 N   0  0  0  0  0  0  0  0  0  0  0  0
  191.4800  176.2950  138.6410 C   0  0  0  0  0  0  0  0  0  0  0  0
  185.5110  177.5210  137.1930 C   0  0  0  0  0  3  0  0  0  0  0  0
  189.5160  175.3480  137.6070 O   0  0  0  0  0  0  0  0  0  0  0  0
  186.5840  178.4820  139.1350 C   0  0  0  0  0  3  0  0  0  0  0  0
  191.9900  176.8940  139.7410 C   0  0  0  0  0  0  0  0  0  0  0  0
  190.1800  176.7810  141.5040 C   0  0  0  0  0  0  0  0  0  0  0  0
  186.7210  176.9260  136.8190 C   0  0  0  0  0  3  0  0  0  0  0  0
  188.9610  178.0400  139.6860 C   0  0  0  0  0  2  0  0  0  0  0  0
  185.4340  178.3090  138.3540 C   0  0  0  0  0  0  0  0  0  0  0  0
  187.7960  177.8880  138.7690 C   0  0  0  0  0  0  0  0  0  0  0  0
  188.9690  176.8420  140.6220 C   0  0  0  0  0  2  0  0  0  0  0  0
  190.2560  175.6150  138.7030 O   0  0  0  0  0  0  0  0  0  0  0  0
  193.3360  177.5480  139.6690 C   0  0  0  0  0  1  0  0  0  0  0  0
  184.1640  178.9630  138.7330 C   0  0  0  0  0  0  0  0  0  0  0  0
  184.1530  180.1940  139.1380 N   0  0  0  0  0  2  0  0  0  0  0  0
  181.8680  177.6830  139.3940 N   0  0  0  0  0  0  0  0  0  0  0  0
  181.9350  177.5300  138.0270 N   0  0  0  0  0  2  0  0  0  0  0  0
  182.9090  178.2090  138.7280 C   0  0  0  0  0  0  0  0  0  0  0  0
  191.4020  176.8100  136.1930 C   0  0  0  0  0  1  0  0  0  0  0  0
  192.2630  176.3230  137.3470 C   0  0  2  0  0  3  0  0  0  0  0  0
  192.3510  173.9670  137.8110 O   0  0  0  0  0  1  0  0  0  0  0  0
  192.9440  174.9790  137.0540 C   0  0  2  0  0  3  0  0  0  0  0  0
  197.4270  176.3350  135.8570 O   0  0  0  0  0  0  0  0  0  0  0  0
  194.8530  174.5860  138.4490 O   0  0  0  0  0  0  0  0  0  0  0  0
  196.7350  175.4050  136.3600 C   0  0  0  0  0  0  0  0  0  0  0  0
  195.3060  175.5330  136.3580 N   0  0  0  0  0  2  0  0  0  0  0  0
  194.4120  175.0120  137.3460 C   0  0  0  0  0  0  0  0  0  0  0  0
  197.4200  174.1970  136.8700 C   0  0  0  0  0  0  0  0  0  0  0  0
  197.2140  173.0850  136.3170 O   0  0  0  0  0  0  0  0  0  0  0  0
  198.2920  174.2450  138.0760 C   0  0  0  0  0  1  0  0  0  0  0  0
  189.9970  176.6360  142.8860 O   0  0  0  0  0  0  0  0  0  0  0  0
  189.5330  177.6900  143.7270 C   0  0  1  0  0  3  0  0  0  0  0  0
  187.0850  177.6670  143.6110 C   0  0  0  0  0  2  0  0  0  0  0  0
  187.5500  176.3370  143.6600 O   0  0  0  0  0  0  0  0  0  0  0  0
  188.2530  177.2840  144.4400 C   0  0  1  0  0  3  0  0  0  0  0  0
  190.5880  178.0300  144.7690 C   0  0  0  0  0  2  0  0  0  0  0  0
  190.9320  176.8590  145.4940 O   0  0  0  0  0  0  0  0  0  0  0  0
  190.9260  176.8350  146.8850 C   0  0  0  0  0  0  0  0  0  0  0  0
  192.0230  176.8810  147.5040 O   0  0  0  0  0  0  0  0  0  0  0  0
  189.7190  176.7690  147.5870 O   0  0  0  0  0  0  0  0  0  0  0  0
  189.0930  177.9270  148.1020 C   0  0  0  0  0  1  0  0  0  0  0  0
  1 13  1  0  0  0  0
  2  1  1  0  0  0  0
  2  6  1  0  0  0  0
  3  9  2  0  0  0  0
  4 15  1  0  0  0  0
  4  8  2  0  0  0  0
  5 12  2  0  0  0  0
  6 15  1  0  0  0  0
  8  3  1  0  0  0  0
  9 34  1  0  0  0  0
 10  5  1  0  0  0  0
 10  1  2  0  0  0  0
 11 14  1  0  0  0  0
 12 17  1  0  0  0  0
 12  7  1  0  0  0  0
 13  7  2  0  0  0  0
 13 11  1  0  0  0  0
 14  9  1  0  0  0  0
 16  8  1  0  0  0  0
 17 18  2  0  0  0  0
 20 21  1  0  0  0  0
 20 19  1  0  0  0  0
 21 17  1  0  0  0  0
 21 19  2  0  0  0  0
 23 22  1  6  0  0  0
 23  4  1  0  0  0  0
 25 30  1  0  0  0  0
 25 23  1  0  0  0  0
 25 24  1  1  0  0  0
 26 28  2  0  0  0  0
 28 31  1  0  0  0  0
 29 28  1  0  0  0  0
 29 30  1  0  0  0  0
 30 27  2  0  0  0  0
 31 33  1  0  0  0  0
 32 31  2  0  0  0  0
 34 35  1  0  0  0  0
 35 39  1  1  0  0  0
 36 37  1  0  0  0  0
 36 38  1  0  0  0  0
 37 38  1  0  0  0  0
 38 35  1  6  0  0  0
 39 40  1  0  0  0  0
 40 41  1  0  0  0  0
 41 42  2  0  0  0  0
 41 43  1  0  0  0  0
 43 44  1  0  0  0  0
M  END
>  <MODEL>
3

>  <REMARK>
 VINA RESULT:      -6.9      3.023      6.329
  Name = 
  13 active torsions:
  status: ('A' for Active; 'I' for Inactive)
    1  A    between atoms: C_7  and  C_37
    2  A    between atoms: C_9  and  O_12
    3  A    between atoms: C_9  and  O_19
    4  A    between atoms: C_11  and  C_20
    5  A    between atoms: O_12  and  C_34
    6  A    between atoms: C_17  and  C_29
    7  A    between atoms: C_17  and  C_44
    8  A    between atoms: C_21  and  O_41
    9  A    between atoms: C_23  and  C_32
   10  A    between atoms: C_23  and  C_34
   11  A    between atoms: C_23  and  O_41
   12  A    between atoms: C_31  and  C_40
   13  A    between atoms: C_37  and  C_40
                            x       y       z     vdW  Elec       q    Type
                         _______ _______ _______ _____ _____    ______ ____

>  <TORSDO>
F 13

$$$$
=
 OpenBabel11042412233D

 44 47  0  0  1  0  0  0  0  0999 V2000
  190.1360  177.5760  140.7530 C   0  0  0  0  0  0  0  0  0  0  0  0
  189.9460  177.8000  139.3880 O   0  0  0  0  0  0  0  0  0  0  0  0
  185.4400  178.4760  139.4340 N   0  0  0  0  0  0  0  0  0  0  0  0
  187.4740  178.1840  138.0460 C   0  0  0  0  0  0  0  0  0  0  0  0
  191.6740  177.3630  142.6200 C   0  0  0  0  0  3  0  0  0  0  0  0
  189.5810  179.0000  138.8970 O   0  0  0  0  0  0  0  0  0  0  0  0
  189.3170  176.9430  142.9520 C   0  0  0  0  0  3  0  0  0  0  0  0
  186.1820  177.9070  138.3310 C   0  0  0  0  0  0  0  0  0  0  0  0
  185.7640  178.8210  140.6530 C   0  0  0  0  0  0  0  0  0  0  0  0
  191.4350  177.6390  141.2700 C   0  0  0  0  0  3  0  0  0  0  0  0
  187.6560  177.2190  141.1320 C   0  0  0  0  0  2  0  0  0  0  0  0
  190.6160  177.0070  143.4720 C   0  0  0  0  0  0  0  0  0  0  0  0
  189.0690  177.2210  141.6040 C   0  0  0  0  0  0  0  0  0  0  0  0
  187.1320  178.6410  141.2400 C   0  0  0  0  0  2  0  0  0  0  0  0
  188.2310  179.0030  138.8950 O   0  0  0  0  0  0  0  0  0  0  0  0
  185.3710  177.0920  137.3700 C   0  0  0  0  0  1  0  0  0  0  0  0
  190.8720  176.6840  144.8920 C   0  0  0  0  0  0  0  0  0  0  0  0
  191.9220  176.0060  145.2340 N   0  0  0  0  0  2  0  0  0  0  0  0
  189.2110  176.7540  147.0330 N   0  0  0  0  0  0  0  0  0  0  0  0
  189.0580  178.0020  146.4700 N   0  0  0  0  0  2  0  0  0  0  0  0
  189.9070  177.0620  145.9260 C   0  0  0  0  0  0  0  0  0  0  0  0
  187.2440  177.9780  135.5630 C   0  0  0  0  0  1  0  0  0  0  0  0
  188.0910  177.6360  136.7780 C   0  0  2  0  0  3  0  0  0  0  0  0
  188.2760  175.7160  138.2120 O   0  0  0  0  0  1  0  0  0  0  0  0
  188.3960  176.1360  136.8850 C   0  0  2  0  0  3  0  0  0  0  0  0
  192.0530  173.0020  136.4690 O   0  0  0  0  0  0  0  0  0  0  0  0
  190.3760  176.5880  135.6120 O   0  0  0  0  0  0  0  0  0  0  0  0
  191.7570  174.2180  136.6400 C   0  0  0  0  0  0  0  0  0  0  0  0
  190.3770  174.5740  136.8040 N   0  0  0  0  0  2  0  0  0  0  0  0
  189.7670  175.8000  136.3880 C   0  0  0  0  0  0  0  0  0  0  0  0
  192.8470  175.2150  136.7290 C   0  0  0  0  0  0  0  0  0  0  0  0
  193.6390  175.3580  135.7610 O   0  0  0  0  0  0  0  0  0  0  0  0
  193.0810  176.0060  137.9670 C   0  0  0  0  0  1  0  0  0  0  0  0
  184.7710  179.4260  141.4350 O   0  0  0  0  0  0  0  0  0  0  0  0
  183.7930  178.6860  142.1640 C   0  0  1  0  0  3  0  0  0  0  0  0
  184.2960  178.6280  144.5620 C   0  0  0  0  0  2  0  0  0  0  0  0
  184.7240  179.8650  144.0370 O   0  0  0  0  0  0  0  0  0  0  0  0
  183.5240  179.3350  143.5120 C   0  0  1  0  0  3  0  0  0  0  0  0
  182.4910  178.6270  141.3790 C   0  0  0  0  0  2  0  0  0  0  0  0
  181.4050  178.9280  142.2410 O   0  0  0  0  0  0  0  0  0  0  0  0
  180.2010  178.2350  142.1650 C   0  0  0  0  0  0  0  0  0  0  0  0
  179.8230  177.7810  141.0520 O   0  0  0  0  0  0  0  0  0  0  0  0
  179.4250  178.0380  143.3110 O   0  0  0  0  0  0  0  0  0  0  0  0
  179.3630  179.0020  144.3430 C   0  0  0  0  0  1  0  0  0  0  0  0
  1 10  2  0  0  0  0
  1 13  1  0  0  0  0
  2  1  1  0  0  0  0
  3  9  2  0  0  0  0
  4  8  2  0  0  0  0
  4 15  1  0  0  0  0
  5 12  2  0  0  0  0
  6  2  1  0  0  0  0
  7 12  1  0  0  0  0
  8  3  1  0  0  0  0
  9 14  1  0  0  0  0
  9 34  1  0  0  0  0
 10  5  1  0  0  0  0
 11 14  1  0  0  0  0
 11 13  1  0  0  0  0
 12 17  1  0  0  0  0
 13  7  2  0  0  0  0
 15  6  1  0  0  0  0
 16  8  1  0  0  0  0
 17 18  2  0  0  0  0
 17 21  1  0  0  0  0
 20 19  1  0  0  0  0
 21 20  1  0  0  0  0
 21 19  2  0  0  0  0
 23 22  1  6  0  0  0
 23 25  1  0  0  0  0
 23  4  1  0  0  0  0
 25 24  1  1  0  0  0
 26 28  2  0  0  0  0
 27 30  2  0  0  0  0
 28 31  1  0  0  0  0
 28 29  1  0  0  0  0
 30 29  1  0  0  0  0
 30 25  1  0  0  0  0
 31 33  1  0  0  0  0
 32 31  2  0  0  0  0
 34 35  1  0  0  0  0
 35 39  1  6  0  0  0
 37 36  1  0  0  0  0
 38 35  1  6  0  0  0
 38 37  1  0  0  0  0
 38 36  1  0  0  0  0
 39 40  1  0  0  0  0
 41 40  1  0  0  0  0
 41 43  1  0  0  0  0
 42 41  2  0  0  0  0
 43 44  1  0  0  0  0
M  END
>  <MODEL>
4

>  <REMARK>
 VINA RESULT:      -6.8      1.700      2.808
  Name = 
  13 active torsions:
  status: ('A' for Active; 'I' for Inactive)
    1  A    between atoms: C_7  and  C_37
    2  A    between atoms: C_9  and  O_12
    3  A    between atoms: C_9  and  O_19
    4  A    between atoms: C_11  and  C_20
    5  A    between atoms: O_12  and  C_34
    6  A    between atoms: C_17  and  C_29
    7  A    between atoms: C_17  and  C_44
    8  A    between atoms: C_21  and  O_41
    9  A    between atoms: C_23  and  C_32
   10  A    between atoms: C_23  and  C_34
   11  A    between atoms: C_23  and  O_41
   12  A    between atoms: C_31  and  C_40
   13  A    between atoms: C_37  and  C_40
                            x       y       z     vdW  Elec       q    Type
                         _______ _______ _______ _____ _____    ______ ____

>  <TORSDO>
F 13

$$$$
=
 OpenBabel11042412233D

 44 47  0  0  1  0  0  0  0  0999 V2000
  190.1820  177.4960  139.9750 C   0  0  0  0  0  0  0  0  0  0  0  0
  189.9920  177.6920  138.6060 O   0  0  0  0  0  0  0  0  0  0  0  0
  185.5250  178.5910  138.6640 N   0  0  0  0  0  0  0  0  0  0  0  0
  187.5310  178.1620  137.2710 C   0  0  0  0  0  0  0  0  0  0  0  0
  191.7220  177.2550  141.8360 C   0  0  0  0  0  3  0  0  0  0  0  0
  189.6820  178.8950  138.0840 O   0  0  0  0  0  0  0  0  0  0  0  0
  189.3500  176.9620  142.1960 C   0  0  0  0  0  3  0  0  0  0  0  0
  186.2280  177.9580  137.5720 C   0  0  0  0  0  0  0  0  0  0  0  0
  185.8750  178.9520  139.8710 C   0  0  0  0  0  0  0  0  0  0  0  0
  191.4860  177.5070  140.4810 C   0  0  0  0  0  3  0  0  0  0  0  0
  187.6890  177.2720  140.3800 C   0  0  0  0  0  2  0  0  0  0  0  0
  190.6550  176.9750  142.7050 C   0  0  0  0  0  0  0  0  0  0  0  0
  189.1050  177.2160  140.8430 C   0  0  0  0  0  0  0  0  0  0  0  0
  187.2380  178.7210  140.4540 C   0  0  0  0  0  2  0  0  0  0  0  0
  188.3330  178.9650  138.0920 O   0  0  0  0  0  0  0  0  0  0  0  0
  185.3710  177.1580  136.6390 C   0  0  0  0  0  1  0  0  0  0  0  0
  190.9060  176.6780  144.1310 C   0  0  0  0  0  0  0  0  0  0  0  0
  191.8500  175.8600  144.4770 N   0  0  0  0  0  2  0  0  0  0  0  0
  188.9120  177.8710  145.5270 N   0  0  0  0  0  0  0  0  0  0  0  0
  189.8170  177.5170  146.5030 N   0  0  0  0  0  2  0  0  0  0  0  0
  190.0470  177.2460  145.1720 C   0  0  0  0  0  0  0  0  0  0  0  0
  187.2460  177.8660  134.8020 C   0  0  0  0  0  1  0  0  0  0  0  0
  188.1090  177.5520  136.0130 C   0  0  2  0  0  3  0  0  0  0  0  0
  188.1590  175.6610  137.4960 O   0  0  0  0  0  1  0  0  0  0  0  0
  188.3820  176.0500  136.1740 C   0  0  2  0  0  3  0  0  0  0  0  0
  192.1520  173.0360  136.4380 O   0  0  0  0  0  0  0  0  0  0  0  0
  190.3890  176.3420  134.8980 O   0  0  0  0  0  0  0  0  0  0  0  0
  191.8100  174.2510  136.3770 C   0  0  0  0  0  0  0  0  0  0  0  0
  190.4150  174.5770  136.4330 N   0  0  0  0  0  2  0  0  0  0  0  0
  189.7800  175.6830  135.7860 C   0  0  0  0  0  0  0  0  0  0  0  0
  192.8630  175.2890  136.3150 C   0  0  0  0  0  0  0  0  0  0  0  0
  193.6480  175.3200  135.3330 O   0  0  0  0  0  0  0  0  0  0  0  0
  193.0690  176.2570  137.4270 C   0  0  0  0  0  1  0  0  0  0  0  0
  184.9200  179.6260  140.6440 O   0  0  0  0  0  0  0  0  0  0  0  0
  184.0530  178.9650  141.5630 C   0  0  1  0  0  3  0  0  0  0  0  0
  181.8230  178.0950  141.0330 C   0  0  0  0  0  2  0  0  0  0  0  0
  182.4900  178.4020  139.8290 O   0  0  0  0  0  0  0  0  0  0  0  0
  183.2770  177.8570  140.8690 C   0  0  1  0  0  3  0  0  0  0  0  0
  184.8610  178.3600  142.7010 C   0  0  0  0  0  2  0  0  0  0  0  0
  184.7550  179.1860  143.8490 O   0  0  0  0  0  0  0  0  0  0  0  0
  183.8290  178.9230  144.8540 C   0  0  0  0  0  0  0  0  0  0  0  0
  182.6000  178.9500  144.5780 O   0  0  0  0  0  0  0  0  0  0  0  0
  184.2580  178.6240  146.1500 O   0  0  0  0  0  0  0  0  0  0  0  0
  185.5860  178.8690  146.5700 C   0  0  0  0  0  1  0  0  0  0  0  0
  1 10  2  0  0  0  0
  1 13  1  0  0  0  0
  2  1  1  0  0  0  0
  3  9  2  0  0  0  0
  4  8  2  0  0  0  0
  4 15  1  0  0  0  0
  5 12  2  0  0  0  0
  6 15  1  0  0  0  0
  6  2  1  0  0  0  0
  7 12  1  0  0  0  0
  8  3  1  0  0  0  0
  9 14  1  0  0  0  0
  9 34  1  0  0  0  0
 10  5  1  0  0  0  0
 11 14  1  0  0  0  0
 11 13  1  0  0  0  0
 12 17  1  0  0  0  0
 13  7  2  0  0  0  0
 16  8  1  0  0  0  0
 17 18  2  0  0  0  0
 17 21  1  0  0  0  0
 19 20  1  0  0  0  0
 21 19  2  0  0  0  0
 21 20  1  0  0  0  0
 23 22  1  6  0  0  0
 23 25  1  0  0  0  0
 23  4  1  0  0  0  0
 25 24  1  1  0  0  0
 27 30  2  0  0  0  0
 28 29  1  0  0  0  0
 28 26  2  0  0  0  0
 30 25  1  0  0  0  0
 30 29  1  0  0  0  0
 31 28  1  0  0  0  0
 31 33  1  0  0  0  0
 32 31  2  0  0  0  0
 34 35  1  0  0  0  0
 35 39  1  1  0  0  0
 37 38  1  0  0  0  0
 37 36  1  0  0  0  0
 38 36  1  0  0  0  0
 38 35  1  1  0  0  0
 39 40  1  0  0  0  0
 40 41  1  0  0  0  0
 41 43  1  0  0  0  0
 42 41  2  0  0  0  0
 43 44  1  0  0  0  0
M  END
>  <MODEL>
5

>  <REMARK>
 VINA RESULT:      -6.8      1.435      2.045
  Name = 
  13 active torsions:
  status: ('A' for Active; 'I' for Inactive)
    1  A    between atoms: C_7  and  C_37
    2  A    between atoms: C_9  and  O_12
    3  A    between atoms: C_9  and  O_19
    4  A    between atoms: C_11  and  C_20
    5  A    between atoms: O_12  and  C_34
    6  A    between atoms: C_17  and  C_29
    7  A    between atoms: C_17  and  C_44
    8  A    between atoms: C_21  and  O_41
    9  A    between atoms: C_23  and  C_32
   10  A    between atoms: C_23  and  C_34
   11  A    between atoms: C_23  and  O_41
   12  A    between atoms: C_31  and  C_40
   13  A    between atoms: C_37  and  C_40
                            x       y       z     vdW  Elec       q    Type
                         _______ _______ _______ _____ _____    ______ ____

>  <TORSDO>
F 13

$$$$
=
 OpenBabel11042412233D

 44 47  0  0  1  0  0  0  0  0999 V2000
  188.7010  177.6410  141.8710 C   0  0  0  0  0  0  0  0  0  0  0  0
  189.1240  177.4920  140.5490 O   0  0  0  0  0  0  0  0  0  0  0  0
  185.1880  178.4590  138.4660 N   0  0  0  0  0  0  0  0  0  0  0  0
  187.5210  177.6580  138.2110 C   0  0  0  0  0  0  0  0  0  0  0  0
  189.2850  177.8460  144.2180 C   0  0  0  0  0  3  0  0  0  0  0  0
  189.2110  178.5330  139.6960 O   0  0  0  0  0  0  0  0  0  0  0  0
  186.9610  177.6960  143.5680 C   0  0  0  0  0  3  0  0  0  0  0  0
  186.1970  177.5600  137.9540 C   0  0  0  0  0  0  0  0  0  0  0  0
  185.0460  179.1040  139.5950 C   0  0  0  0  0  0  0  0  0  0  0  0
  189.6670  177.7550  142.8760 C   0  0  0  0  0  3  0  0  0  0  0  0
  186.2600  177.5710  141.1930 C   0  0  0  0  0  2  0  0  0  0  0  0
  187.9270  177.8120  144.5760 C   0  0  0  0  0  0  0  0  0  0  0  0
  187.3350  177.6080  142.2230 C   0  0  0  0  0  0  0  0  0  0  0  0
  186.0020  179.0010  140.7450 C   0  0  0  0  0  2  0  0  0  0  0  0
  188.0030  178.6270  139.1030 O   0  0  0  0  0  0  0  0  0  0  0  0
  185.7140  176.5680  136.9400 C   0  0  0  0  0  1  0  0  0  0  0  0
  187.5230  177.8760  145.9970 C   0  0  0  0  0  0  0  0  0  0  0  0
  188.1920  177.2330  146.9010 N   0  0  0  0  0  2  0  0  0  0  0  0
  185.6710  179.3860  147.2780 N   0  0  0  0  0  0  0  0  0  0  0  0
  185.0250  178.9990  146.1240 N   0  0  0  0  0  2  0  0  0  0  0  0
  186.3180  178.6070  146.3950 C   0  0  0  0  0  0  0  0  0  0  0  0
  188.8590  175.5480  138.3600 C   0  0  0  0  0  1  0  0  0  0  0  0
  188.4890  176.7420  137.4960 C   0  0  2  0  0  3  0  0  0  0  0  0
  189.4280  178.0850  135.7360 O   0  0  0  0  0  1  0  0  0  0  0  0
  189.7170  177.4980  136.9700 C   0  0  2  0  0  3  0  0  0  0  0  0
  193.9630  175.8630  138.6040 O   0  0  0  0  0  0  0  0  0  0  0  0
  190.9420  175.7320  135.9100 O   0  0  0  0  0  0  0  0  0  0  0  0
  193.3150  176.1800  137.5670 C   0  0  0  0  0  0  0  0  0  0  0  0
  192.0110  176.7570  137.7210 N   0  0  0  0  0  2  0  0  0  0  0  0
  190.9090  176.6060  136.8190 C   0  0  0  0  0  0  0  0  0  0  0  0
  193.9500  176.0030  136.2420 C   0  0  0  0  0  0  0  0  0  0  0  0
  194.2890  177.0160  135.5760 O   0  0  0  0  0  0  0  0  0  0  0  0
  194.1310  174.6560  135.6370 C   0  0  0  0  0  1  0  0  0  0  0  0
  183.9480  179.9660  139.7090 O   0  0  0  0  0  0  0  0  0  0  0  0
  182.6140  179.5080  139.9150 C   0  0  1  0  0  3  0  0  0  0  0  0
  180.6480  179.9310  138.5130 C   0  0  0  0  0  2  0  0  0  0  0  0
  181.7960  180.3970  137.8400 O   0  0  0  0  0  0  0  0  0  0  0  0
  181.9380  179.2050  138.5870 C   0  0  1  0  0  3  0  0  0  0  0  0
  182.6200  178.2430  140.7610 C   0  0  0  0  0  2  0  0  0  0  0  0
  181.5470  178.2890  141.6890 O   0  0  0  0  0  0  0  0  0  0  0  0
  181.5740  179.1340  142.7930 C   0  0  0  0  0  0  0  0  0  0  0  0
  182.4900  178.9970  143.6480 O   0  0  0  0  0  0  0  0  0  0  0  0
  180.6030  180.1270  142.9490 O   0  0  0  0  0  0  0  0  0  0  0  0
  179.5090  180.2430  142.0610 C   0  0  0  0  0  1  0  0  0  0  0  0
  1 13  2  0  0  0  0
  1 10  1  0  0  0  0
  2  1  1  0  0  0  0
  3  9  2  0  0  0  0
  4 15  1  0  0  0  0
  5 12  1  0  0  0  0
  6  2  1  0  0  0  0
  7 12  2  0  0  0  0
  8  4  2  0  0  0  0
  8  3  1  0  0  0  0
  9 34  1  0  0  0  0
  9 14  1  0  0  0  0
 10  5  2  0  0  0  0
 11 13  1  0  0  0  0
 12 17  1  0  0  0  0
 13  7  1  0  0  0  0
 14 11  1  0  0  0  0
 15  6  1  0  0  0  0
 16  8  1  0  0  0  0
 17 21  1  0  0  0  0
 17 18  2  0  0  0  0
 20 21  1  0  0  0  0
 20 19  1  0  0  0  0
 21 19  2  0  0  0  0
 23  4  1  0  0  0  0
 23 22  1  1  0  0  0
 25 24  1  6  0  0  0
 25 23  1  0  0  0  0
 27 30  2  0  0  0  0
 28 29  1  0  0  0  0
 28 26  2  0  0  0  0
 30 25  1  0  0  0  0
 30 29  1  0  0  0  0
 31 28  1  0  0  0  0
 32 31  2  0  0  0  0
 33 31  1  0  0  0  0
 34 35  1  0  0  0  0
 35 39  1  1  0  0  0
 36 38  1  0  0  0  0
 37 36  1  0  0  0  0
 37 38  1  0  0  0  0
 38 35  1  1  0  0  0
 39 40  1  0  0  0  0
 40 41  1  0  0  0  0
 41 43  1  0  0  0  0
 41 42  2  0  0  0  0
 44 43  1  0  0  0  0
M  END
>  <MODEL>
6

>  <REMARK>
 VINA RESULT:      -6.8      1.798      2.895
  Name = 
  13 active torsions:
  status: ('A' for Active; 'I' for Inactive)
    1  A    between atoms: C_7  and  C_37
    2  A    between atoms: C_9  and  O_12
    3  A    between atoms: C_9  and  O_19
    4  A    between atoms: C_11  and  C_20
    5  A    between atoms: O_12  and  C_34
    6  A    between atoms: C_17  and  C_29
    7  A    between atoms: C_17  and  C_44
    8  A    between atoms: C_21  and  O_41
    9  A    between atoms: C_23  and  C_32
   10  A    between atoms: C_23  and  C_34
   11  A    between atoms: C_23  and  O_41
   12  A    between atoms: C_31  and  C_40
   13  A    between atoms: C_37  and  C_40
                            x       y       z     vdW  Elec       q    Type
                         _______ _______ _______ _____ _____    ______ ____

>  <TORSDO>
F 13

$$$$
=
 OpenBabel11042412233D

 44 47  0  0  1  0  0  0  0  0999 V2000
  191.0250  176.9440  141.7720 C   0  0  0  0  0  0  0  0  0  0  0  0
  191.4130  176.7890  140.4400 O   0  0  0  0  0  0  0  0  0  0  0  0
  187.3770  177.5510  138.4670 N   0  0  0  0  0  0  0  0  0  0  0  0
  189.7330  176.8450  138.1520 C   0  0  0  0  0  0  0  0  0  0  0  0
  191.6710  177.2160  144.0960 C   0  0  0  0  0  3  0  0  0  0  0  0
  191.4290  177.8160  139.5680 O   0  0  0  0  0  0  0  0  0  0  0  0
  189.3370  176.9560  143.5220 C   0  0  0  0  0  3  0  0  0  0  0  0
  188.4070  176.6860  137.9380 C   0  0  0  0  0  0  0  0  0  0  0  0
  187.2420  178.2100  139.5880 C   0  0  0  0  0  0  0  0  0  0  0  0
  192.0150  177.1170  142.7450 C   0  0  0  0  0  3  0  0  0  0  0  0
  188.5690  176.7590  141.1730 C   0  0  0  0  0  2  0  0  0  0  0  0
  190.3270  177.1300  144.4970 C   0  0  0  0  0  0  0  0  0  0  0  0
  189.6730  176.8590  142.1680 C   0  0  0  0  0  0  0  0  0  0  0  0
  188.2370  178.1680  140.7100 C   0  0  0  0  0  2  0  0  0  0  0  0
  190.2000  177.8490  139.0110 O   0  0  0  0  0  0  0  0  0  0  0  0
  187.9350  175.6560  136.9570 C   0  0  0  0  0  1  0  0  0  0  0  0
  189.9650  177.2030  145.9290 C   0  0  0  0  0  0  0  0  0  0  0  0
  188.8260  177.7000  146.2960 N   0  0  0  0  0  2  0  0  0  0  0  0
  191.8350  177.0980  147.8900 N   0  0  0  0  0  0  0  0  0  0  0  0
  191.5170  175.7740  147.6800 N   0  0  0  0  0  2  0  0  0  0  0  0
  190.9180  176.7840  146.9590 C   0  0  0  0  0  0  0  0  0  0  0  0
  191.5300  175.1210  138.3940 C   0  0  0  0  0  1  0  0  0  0  0  0
  190.7160  175.9580  137.4220 C   0  0  2  0  0  3  0  0  0  0  0  0
  191.1460  176.5590  135.1340 O   0  0  0  0  0  1  0  0  0  0  0  0
  191.5930  176.7510  136.4430 C   0  0  2  0  0  3  0  0  0  0  0  0
  195.3010  174.0480  134.9220 O   0  0  0  0  0  0  0  0  0  0  0  0
  193.8330  177.0160  137.2540 O   0  0  0  0  0  0  0  0  0  0  0  0
  194.7580  174.5700  135.9370 C   0  0  0  0  0  0  0  0  0  0  0  0
  193.4960  175.2330  135.7780 N   0  0  0  0  0  2  0  0  0  0  0  0
  193.0350  176.3600  136.5290 C   0  0  0  0  0  0  0  0  0  0  0  0
  195.4120  174.4200  137.2560 C   0  0  0  0  0  0  0  0  0  0  0  0
  196.4510  175.0840  137.5130 O   0  0  0  0  0  0  0  0  0  0  0  0
  194.9190  173.4450  138.2650 C   0  0  0  0  0  1  0  0  0  0  0  0
  186.1130  179.0270  139.7230 O   0  0  0  0  0  0  0  0  0  0  0  0
  184.8230  178.5260  140.0670 C   0  0  1  0  0  3  0  0  0  0  0  0
  184.6460  178.3740  142.5070 C   0  0  0  0  0  2  0  0  0  0  0  0
  185.3830  179.5300  142.1750 O   0  0  0  0  0  0  0  0  0  0  0  0
  184.3020  179.2010  141.3260 C   0  0  1  0  0  3  0  0  0  0  0  0
  183.8420  178.7820  138.9320 C   0  0  0  0  0  2  0  0  0  0  0  0
  183.3600  180.1140  139.0140 O   0  0  0  0  0  0  0  0  0  0  0  0
  182.1440  180.4850  138.4490 C   0  0  0  0  0  0  0  0  0  0  0  0
  181.5450  179.6730  137.6940 O   0  0  0  0  0  0  0  0  0  0  0  0
  181.5910  181.7390  138.7210 O   0  0  0  0  0  0  0  0  0  0  0  0
  181.0340  182.5450  137.7010 C   0  0  0  0  0  1  0  0  0  0  0  0
  1 13  2  0  0  0  0
  1 10  1  0  0  0  0
  2  1  1  0  0  0  0
  3  9  2  0  0  0  0
  4 15  1  0  0  0  0
  5 12  1  0  0  0  0
  6  2  1  0  0  0  0
  7 12  2  0  0  0  0
  8  4  2  0  0  0  0
  8  3  1  0  0  0  0
  9 34  1  0  0  0  0
  9 14  1  0  0  0  0
 10  5  2  0  0  0  0
 11 13  1  0  0  0  0
 12 17  1  0  0  0  0
 13  7  1  0  0  0  0
 14 11  1  0  0  0  0
 15  6  1  0  0  0  0
 16  8  1  0  0  0  0
 17 18  2  0  0  0  0
 17 21  1  0  0  0  0
 20 19  1  0  0  0  0
 21 20  1  0  0  0  0
 21 19  2  0  0  0  0
 23  4  1  0  0  0  0
 23 22  1  1  0  0  0
 25 24  1  6  0  0  0
 25 30  1  0  0  0  0
 25 23  1  0  0  0  0
 26 28  2  0  0  0  0
 28 31  1  0  0  0  0
 29 28  1  0  0  0  0
 29 30  1  0  0  0  0
 30 27  2  0  0  0  0
 31 32  2  0  0  0  0
 31 33  1  0  0  0  0
 34 35  1  0  0  0  0
 35 39  1  6  0  0  0
 37 36  1  0  0  0  0
 38 35  1  6  0  0  0
 38 37  1  0  0  0  0
 38 36  1  0  0  0  0
 39 40  1  0  0  0  0
 41 43  1  0  0  0  0
 41 40  1  0  0  0  0
 42 41  2  0  0  0  0
 44 43  1  0  0  0  0
M  END
>  <MODEL>
7

>  <REMARK>
 VINA RESULT:      -6.7      1.764      3.143
  Name = 
  13 active torsions:
  status: ('A' for Active; 'I' for Inactive)
    1  A    between atoms: C_7  and  C_37
    2  A    between atoms: C_9  and  O_12
    3  A    between atoms: C_9  and  O_19
    4  A    between atoms: C_11  and  C_20
    5  A    between atoms: O_12  and  C_34
    6  A    between atoms: C_17  and  C_29
    7  A    between atoms: C_17  and  C_44
    8  A    between atoms: C_21  and  O_41
    9  A    between atoms: C_23  and  C_32
   10  A    between atoms: C_23  and  C_34
   11  A    between atoms: C_23  and  O_41
   12  A    between atoms: C_31  and  C_40
   13  A    between atoms: C_37  and  C_40
                            x       y       z     vdW  Elec       q    Type
                         _______ _______ _______ _____ _____    ______ ____

>  <TORSDO>
F 13

$$$$
=
 OpenBabel11042412233D

 44 47  0  0  1  0  0  0  0  0999 V2000
  191.1550  176.8780  140.8660 C   0  0  0  0  0  0  0  0  0  0  0  0
  191.6660  176.5760  139.6020 O   0  0  0  0  0  0  0  0  0  0  0  0
  187.8280  177.0410  137.1900 N   0  0  0  0  0  0  0  0  0  0  0  0
  190.2070  176.3400  137.1790 C   0  0  0  0  0  0  0  0  0  0  0  0
  191.5800  177.4280  143.1920 C   0  0  0  0  0  3  0  0  0  0  0  0
  191.7590  177.4950  138.6210 O   0  0  0  0  0  0  0  0  0  0  0  0
  189.3110  177.0670  142.4390 C   0  0  0  0  0  3  0  0  0  0  0  0
  188.9070  176.1370  136.8640 C   0  0  0  0  0  0  0  0  0  0  0  0
  187.5870  177.8230  138.2100 C   0  0  0  0  0  0  0  0  0  0  0  0
  192.0490  177.1790  141.8980 C   0  0  0  0  0  3  0  0  0  0  0  0
  188.7660  176.5870  140.0690 C   0  0  0  0  0  2  0  0  0  0  0  0
  190.2050  177.3690  143.4740 C   0  0  0  0  0  0  0  0  0  0  0  0
  189.7730  176.8190  141.1420 C   0  0  0  0  0  0  0  0  0  0  0  0
  188.4720  177.9270  139.4150 C   0  0  0  0  0  2  0  0  0  0  0  0
  190.5870  177.4440  137.9540 O   0  0  0  0  0  0  0  0  0  0  0  0
  188.5340  174.9930  135.9710 C   0  0  0  0  0  1  0  0  0  0  0  0
  189.7110  177.6020  144.8480 C   0  0  0  0  0  0  0  0  0  0  0  0
  188.6020  178.2420  145.0490 N   0  0  0  0  0  2  0  0  0  0  0  0
  191.6800  177.1280  146.6500 N   0  0  0  0  0  0  0  0  0  0  0  0
  190.5720  176.5480  147.2280 N   0  0  0  0  0  2  0  0  0  0  0  0
  190.5030  177.1790  146.0050 C   0  0  0  0  0  0  0  0  0  0  0  0
  191.3730  174.1530  137.5270 C   0  0  0  0  0  1  0  0  0  0  0  0
  191.2580  175.3890  136.6510 C   0  0  2  0  0  3  0  0  0  0  0  0
  192.6840  176.5780  135.1240 O   0  0  0  0  0  1  0  0  0  0  0  0
  192.6070  176.0870  136.4290 C   0  0  2  0  0  3  0  0  0  0  0  0
  195.8220  174.1150  139.4540 O   0  0  0  0  0  0  0  0  0  0  0  0
  194.1790  174.4050  135.7630 O   0  0  0  0  0  0  0  0  0  0  0  0
  195.6540  174.5720  138.2870 C   0  0  0  0  0  0  0  0  0  0  0  0
  194.3960  175.1780  137.9600 N   0  0  0  0  0  2  0  0  0  0  0  0
  193.7660  175.1720  136.6760 C   0  0  0  0  0  0  0  0  0  0  0  0
  196.7810  174.5200  137.3290 C   0  0  0  0  0  0  0  0  0  0  0  0
  197.2880  175.5930  136.9080 O   0  0  0  0  0  0  0  0  0  0  0  0
  197.2840  173.2300  136.7850 C   0  0  0  0  0  1  0  0  0  0  0  0
  186.4450  178.6330  138.1430 O   0  0  0  0  0  0  0  0  0  0  0  0
  185.1550  178.2000  138.5690 C   0  0  1  0  0  3  0  0  0  0  0  0
  184.2480  178.7640  140.7750 C   0  0  0  0  0  2  0  0  0  0  0  0
  185.3100  179.6440  140.4800 O   0  0  0  0  0  0  0  0  0  0  0  0
  184.4750  179.2750  139.4020 C   0  0  1  0  0  3  0  0  0  0  0  0
  184.2820  177.8900  137.3610 C   0  0  0  0  0  2  0  0  0  0  0  0
  183.0650  177.3050  137.7950 O   0  0  0  0  0  0  0  0  0  0  0  0
  183.0120  175.9970  138.2670 C   0  0  0  0  0  0  0  0  0  0  0  0
  182.6790  175.7910  139.4650 O   0  0  0  0  0  0  0  0  0  0  0  0
  183.3180  174.9270  137.4230 O   0  0  0  0  0  0  0  0  0  0  0  0
  184.5040  174.1720  137.5760 C   0  0  0  0  0  1  0  0  0  0  0  0
  1 13  2  0  0  0  0
  1 10  1  0  0  0  0
  2  1  1  0  0  0  0
  3  9  2  0  0  0  0
  4 15  1  0  0  0  0
  5 12  1  0  0  0  0
  6  2  1  0  0  0  0
  7 12  2  0  0  0  0
  8  4  2  0  0  0  0
  8  3  1  0  0  0  0
  9 14  1  0  0  0  0
 10  5  2  0  0  0  0
 11 13  1  0  0  0  0
 12 17  1  0  0  0  0
 13  7  1  0  0  0  0
 14 11  1  0  0  0  0
 15  6  1  0  0  0  0
 16  8  1  0  0  0  0
 17 18  2  0  0  0  0
 17 21  1  0  0  0  0
 19 20  1  0  0  0  0
 21 19  2  0  0  0  0
 21 20  1  0  0  0  0
 23  4  1  0  0  0  0
 23 22  1  1  0  0  0
 25 24  1  6  0  0  0
 25 23  1  0  0  0  0
 25 30  1  0  0  0  0
 27 30  2  0  0  0  0
 28 26  2  0  0  0  0
 29 28  1  0  0  0  0
 30 29  1  0  0  0  0
 31 28  1  0  0  0  0
 32 31  2  0  0  0  0
 33 31  1  0  0  0  0
 34  9  1  0  0  0  0
 34 35  1  0  0  0  0
 35 39  1  6  0  0  0
 37 36  1  0  0  0  0
 38 35  1  6  0  0  0
 38 37  1  0  0  0  0
 38 36  1  0  0  0  0
 39 40  1  0  0  0  0
 40 41  1  0  0  0  0
 41 42  2  0  0  0  0
 43 44  1  0  0  0  0
 43 41  1  0  0  0  0
M  END
>  <MODEL>
8

>  <REMARK>
 VINA RESULT:      -6.7      2.177      3.509
  Name = 
  13 active torsions:
  status: ('A' for Active; 'I' for Inactive)
    1  A    between atoms: C_7  and  C_37
    2  A    between atoms: C_9  and  O_12
    3  A    between atoms: C_9  and  O_19
    4  A    between atoms: C_11  and  C_20
    5  A    between atoms: O_12  and  C_34
    6  A    between atoms: C_17  and  C_29
    7  A    between atoms: C_17  and  C_44
    8  A    between atoms: C_21  and  O_41
    9  A    between atoms: C_23  and  C_32
   10  A    between atoms: C_23  and  C_34
   11  A    between atoms: C_23  and  O_41
   12  A    between atoms: C_31  and  C_40
   13  A    between atoms: C_37  and  C_40
                            x       y       z     vdW  Elec       q    Type
                         _______ _______ _______ _____ _____    ______ ____

>  <TORSDO>
F 13

$$$$
=
 OpenBabel11042412233D

 44 47  0  0  1  0  0  0  0  0999 V2000
  190.9380  176.8520  140.8120 C   0  0  0  0  0  0  0  0  0  0  0  0
  191.6320  176.5580  139.6360 O   0  0  0  0  0  0  0  0  0  0  0  0
  188.2200  177.1340  136.6720 N   0  0  0  0  0  0  0  0  0  0  0  0
  190.5600  176.3870  137.0140 C   0  0  0  0  0  0  0  0  0  0  0  0
  191.0090  177.3580  143.1850 C   0  0  0  0  0  3  0  0  0  0  0  0
  191.8910  177.4900  138.6980 O   0  0  0  0  0  0  0  0  0  0  0  0
  188.8780  177.0520  142.0860 C   0  0  0  0  0  3  0  0  0  0  0  0
  189.3210  176.2140  136.4990 C   0  0  0  0  0  0  0  0  0  0  0  0
  187.8380  177.9060  137.6560 C   0  0  0  0  0  0  0  0  0  0  0  0
  191.6680  177.1190  141.9740 C   0  0  0  0  0  3  0  0  0  0  0  0
  188.6960  176.6190  139.6520 C   0  0  0  0  0  2  0  0  0  0  0  0
  189.6070  177.3220  143.2520 C   0  0  0  0  0  0  0  0  0  0  0  0
  189.5290  176.8150  140.8710 C   0  0  0  0  0  0  0  0  0  0  0  0
  188.5290  177.9740  138.9850 C   0  0  0  0  0  2  0  0  0  0  0  0
  190.8340  177.4720  137.8570 O   0  0  0  0  0  0  0  0  0  0  0  0
  189.0700  175.0910  135.5390 C   0  0  0  0  0  1  0  0  0  0  0  0
  188.9110  177.5440  144.5370 C   0  0  0  0  0  0  0  0  0  0  0  0
  187.7020  178.0100  144.5600 N   0  0  0  0  0  2  0  0  0  0  0  0
  189.5560  177.1130  147.1350 N   0  0  0  0  0  0  0  0  0  0  0  0
  190.7790  177.1240  146.5000 N   0  0  0  0  0  2  0  0  0  0  0  0
  189.6020  177.3100  145.8070 C   0  0  0  0  0  0  0  0  0  0  0  0
  191.7160  174.2450  137.5930 C   0  0  0  0  0  1  0  0  0  0  0  0
  191.6640  175.4240  136.6360 C   0  0  2  0  0  3  0  0  0  0  0  0
  193.1300  176.6950  135.2170 O   0  0  0  0  0  1  0  0  0  0  0  0
  193.0190  176.1290  136.4900 C   0  0  2  0  0  3  0  0  0  0  0  0
  196.1850  174.0140  139.4690 O   0  0  0  0  0  0  0  0  0  0  0  0
  194.5900  174.4680  135.7730 O   0  0  0  0  0  0  0  0  0  0  0  0
  196.0340  174.5200  138.3200 C   0  0  0  0  0  0  0  0  0  0  0  0
  194.7840  175.1470  138.0040 N   0  0  0  0  0  2  0  0  0  0  0  0
  194.1690  175.1980  136.7120 C   0  0  0  0  0  0  0  0  0  0  0  0
  197.1720  174.5030  137.3750 C   0  0  0  0  0  0  0  0  0  0  0  0
  197.6710  175.5900  136.9830 O   0  0  0  0  0  0  0  0  0  0  0  0
  197.6980  173.2300  136.8110 C   0  0  0  0  0  1  0  0  0  0  0  0
  186.7340  178.7390  137.4290 O   0  0  0  0  0  0  0  0  0  0  0  0
  185.3840  178.2950  137.5470 C   0  0  1  0  0  3  0  0  0  0  0  0
  183.9470  177.2730  135.8450 C   0  0  0  0  0  2  0  0  0  0  0  0
  185.2510  177.4020  135.3220 O   0  0  0  0  0  0  0  0  0  0  0  0
  185.1470  177.0620  136.6900 C   0  0  1  0  0  3  0  0  0  0  0  0
  185.0710  177.9520  138.9960 C   0  0  0  0  0  2  0  0  0  0  0  0
  185.2600  179.1030  139.8060 O   0  0  0  0  0  0  0  0  0  0  0  0
  185.4480  179.0040  141.1810 C   0  0  0  0  0  0  0  0  0  0  0  0
  186.4070  179.6220  141.7140 O   0  0  0  0  0  0  0  0  0  0  0  0
  184.5800  178.2340  141.9600 O   0  0  0  0  0  0  0  0  0  0  0  0
  184.1640  178.6530  143.2450 C   0  0  0  0  0  1  0  0  0  0  0  0
  1 13  2  0  0  0  0
  1 10  1  0  0  0  0
  2  1  1  0  0  0  0
  3  9  2  0  0  0  0
  4 15  1  0  0  0  0
  5 12  1  0  0  0  0
  6  2  1  0  0  0  0
  7 12  2  0  0  0  0
  8  3  1  0  0  0  0
  8  4  2  0  0  0  0
  9 14  1  0  0  0  0
 10  5  2  0  0  0  0
 11 13  1  0  0  0  0
 12 17  1  0  0  0  0
 13  7  1  0  0  0  0
 14 11  1  0  0  0  0
 15  6  1  0  0  0  0
 16  8  1  0  0  0  0
 17 18  2  0  0  0  0
 17 21  1  0  0  0  0
 20 19  1  0  0  0  0
 21 20  1  0  0  0  0
 21 19  2  0  0  0  0
 23  4  1  0  0  0  0
 23 22  1  1  0  0  0
 25 24  1  6  0  0  0
 25 23  1  0  0  0  0
 25 30  1  0  0  0  0
 27 30  2  0  0  0  0
 28 26  2  0  0  0  0
 29 28  1  0  0  0  0
 30 29  1  0  0  0  0
 31 28  1  0  0  0  0
 32 31  2  0  0  0  0
 33 31  1  0  0  0  0
 34 35  1  0  0  0  0
 34  9  1  0  0  0  0
 35 39  1  1  0  0  0
 36 38  1  0  0  0  0
 37 36  1  0  0  0  0
 37 38  1  0  0  0  0
 38 35  1  1  0  0  0
 39 40  1  0  0  0  0
 40 41  1  0  0  0  0
 41 42  2  0  0  0  0
 41 43  1  0  0  0  0
 43 44  1  0  0  0  0
M  END
>  <MODEL>
9

>  <REMARK>
 VINA RESULT:      -6.5      1.996      3.085
  Name = 
  13 active torsions:
  status: ('A' for Active; 'I' for Inactive)
    1  A    between atoms: C_7  and  C_37
    2  A    between atoms: C_9  and  O_12
    3  A    between atoms: C_9  and  O_19
    4  A    between atoms: C_11  and  C_20
    5  A    between atoms: O_12  and  C_34
    6  A    between atoms: C_17  and  C_29
    7  A    between atoms: C_17  and  C_44
    8  A    between atoms: C_21  and  O_41
    9  A    between atoms: C_23  and  C_32
   10  A    between atoms: C_23  and  C_34
   11  A    between atoms: C_23  and  O_41
   12  A    between atoms: C_31  and  C_40
   13  A    between atoms: C_37  and  C_40
                            x       y       z     vdW  Elec       q    Type
                         _______ _______ _______ _____ _____    ______ ____

>  <TORSDO>
F 13

$$$$
