=
 OpenBabel11042412223D

 44 49  0  0  1  0  0  0  0  0999 V2000
  189.2530  177.2170  138.2730 N   0  0  0  0  0  0  0  0  0  0  0  0
  192.5580  175.9800  138.0450 C   0  0  0  0  0  3  0  0  0  0  0  0
  190.4780  174.5740  136.2780 C   0  0  0  0  0  3  0  0  0  0  0  0
  190.4110  175.8460  136.7480 C   0  0  0  0  0  0  0  0  0  0  0  0
  190.2250  177.1740  137.1770 C   0  0  2  0  0  3  0  0  0  0  0  0
  191.9270  172.6740  136.3540 F   0  0  0  0  0  0  0  0  0  0  0  0
  191.6990  173.9560  136.7270 C   0  0  0  0  0  0  0  0  0  0  0  0
  192.7070  174.6250  137.5630 C   0  0  0  0  0  0  0  0  0  0  0  0
  191.3970  176.5120  137.5860 C   0  0  0  0  0  0  0  0  0  0  0  0
  193.8350  173.8750  137.9290 O   0  0  0  0  0  0  0  0  0  0  0  0
  197.6420  174.5550  138.1730 C   0  0  0  0  0  2  0  0  0  0  0  0
  195.8670  174.8560  139.7420 O   0  0  0  0  0  0  0  0  0  0  0  0
  196.1900  174.5470  138.5630 C   0  0  0  0  0  0  0  0  0  0  0  0
  196.8410  174.5000  135.8160 C   0  0  0  0  0  3  0  0  0  0  0  0
  197.8330  174.7080  136.6860 C   0  0  0  0  0  3  0  0  0  0  0  0
  195.4790  174.1680  136.2730 C   0  0  0  0  0  3  0  0  0  0  0  0
  195.1570  174.1690  137.5690 C   0  0  0  0  0  0  0  0  0  0  0  0
  189.9260  177.5300  139.5430 C   0  0  0  0  0  2  0  0  0  0  0  0
  188.9590  177.7850  140.6970 C   0  0  0  0  0  2  0  0  0  0  0  0
  189.2110  176.7720  141.7970 C   0  0  0  0  0  2  0  0  0  0  0  0
  188.8090  177.8970  145.4430 C   0  0  1  0  0  3  0  0  0  0  0  0
  190.9130  176.8720  143.6610 C   0  0  1  0  0  3  0  0  0  0  0  0
  190.0840  177.2610  145.9930 C   0  0  0  0  0  2  0  0  0  0  0  0
  191.2350  177.4850  145.0230 C   0  0  0  0  0  2  0  0  0  0  0  0
  188.4670  177.2730  144.0940 C   0  0  0  0  0  2  0  0  0  0  0  0
  189.6090  177.4620  143.0940 C   0  0  2  0  0  3  0  0  0  0  0  0
  191.9800  177.1190  142.7970 O   0  0  0  0  0  1  0  0  0  0  0  0
  187.6600  177.6570  146.4050 C   0  0  0  0  0  2  0  0  0  0  0  0
  186.4040  177.6090  145.6790 N   0  0  0  0  0  2  0  0  0  0  0  0
  185.6710  178.8150  146.0290 C   0  0  0  0  0  2  0  0  0  0  0  0
  183.4130  178.8780  144.9970 C   0  0  0  0  0  2  0  0  0  0  0  0
  182.9190  178.4260  143.7010 N   0  0  0  0  0  0  0  0  0  0  0  0
  184.0400  178.4890  142.7690 C   0  0  0  0  0  2  0  0  0  0  0  0
  181.9430  179.4040  143.2530 C   0  0  0  0  0  1  0  0  0  0  0  0
  185.3080  178.6090  143.5780 C   0  0  0  0  0  2  0  0  0  0  0  0
  184.8600  179.2890  144.8390 C   0  0  2  0  0  3  0  0  0  0  0  0
  188.2770  178.2650  137.9840 C   0  0  0  0  0  2  0  0  0  0  0  0
  183.1050  176.0840  136.8520 C   0  0  0  0  0  1  0  0  0  0  0  0
  185.8580  178.2530  138.3420 C   0  0  0  0  0  3  0  0  0  0  0  0
  184.4780  177.6590  138.2390 C   0  0  0  0  0  2  0  0  0  0  0  0
  186.9250  177.6670  137.7940 C   0  0  0  0  0  0  0  0  0  0  0  0
  185.5770  175.9320  136.7480 C   0  0  0  0  0  3  0  0  0  0  0  0
  184.4050  176.6020  137.2260 N   0  0  0  0  0  0  0  0  0  0  0  0
  186.7850  176.4250  137.0130 C   0  0  0  0  0  3  0  0  0  0  0  0
  1 18  1  0  0  0  0
  3  7  2  0  0  0  0
  3  4  1  0  0  0  0
  4  5  1  0  0  0  0
  4  9  2  0  0  0  0
  5  9  1  0  0  0  0
  5  1  1  1  0  0  0
  6  7  1  0  0  0  0
  7  8  1  0  0  0  0
  8 10  1  0  0  0  0
  8  2  2  0  0  0  0
  9  2  1  0  0  0  0
 11 13  1  0  0  0  0
 13 12  2  0  0  0  0
 14 16  1  0  0  0  0
 14 15  2  0  0  0  0
 15 11  1  0  0  0  0
 16 17  2  0  0  0  0
 17 10  1  0  0  0  0
 17 13  1  0  0  0  0
 18 19  1  0  0  0  0
 19 20  1  0  0  0  0
 21 23  1  0  0  0  0
 21 28  1  1  0  0  0
 22 27  1  6  0  0  0
 22 24  1  0  0  0  0
 24 23  1  0  0  0  0
 25 21  1  0  0  0  0
 26 20  1  6  0  0  0
 26 22  1  0  0  0  0
 26 25  1  0  0  0  0
 29 30  1  0  0  0  0
 29 28  1  0  0  0  0
 32 31  1  0  0  0  0
 33 35  1  0  0  0  0
 33 32  1  0  0  0  0
 34 32  1  0  0  0  0
 35 36  1  0  0  0  0
 36 31  1  0  0  0  0
 36 30  1  1  0  0  0
 37  1  1  0  0  0  0
 38 43  1  0  0  0  0
 40 39  1  0  0  0  0
 41 37  1  0  0  0  0
 41 39  2  0  0  0  0
 42 44  2  0  0  0  0
 42 43  1  0  0  0  0
 43 40  1  0  0  0  0
 44 41  1  0  0  0  0
M  END
>  <MODEL>
1

>  <REMARK>
 VINA RESULT:      -8.3      0.000      0.000
  Name = 
  13 active torsions:
  status: ('A' for Active; 'I' for Inactive)
    1  A    between atoms: C_6  and  C_9
    2  A    between atoms: O_7  and  C_38
    3  A    between atoms: O_7  and  C_39
    4  A    between atoms: N_8  and  C_9
    5  A    between atoms: N_8  and  C_27
    6  A    between atoms: C_15  and  C_33
    7  A    between atoms: C_16  and  C_30
    8  A    between atoms: C_16  and  N_41
    9  A    between atoms: C_21  and  N_41
   10  A    between atoms: C_24  and  C_30
   11  A    between atoms: C_24  and  C_37
   12  A    between atoms: C_27  and  C_43
   13  A    between atoms: C_33  and  N_41
                            x       y       z     vdW  Elec       q    Type
                         _______ _______ _______ _____ _____    ______ ____

>  <TORSDO>
F 13

$$$$
=
 OpenBabel11042412223D

 44 49  0  0  1  0  0  0  0  0999 V2000
  189.0600  177.2260  139.1760 N   0  0  0  0  0  0  0  0  0  0  0  0
  188.2980  177.1890  142.6290 C   0  0  0  0  0  3  0  0  0  0  0  0
  191.2570  177.5900  141.9160 C   0  0  0  0  0  3  0  0  0  0  0  0
  190.1900  177.8910  141.1330 C   0  0  0  0  0  0  0  0  0  0  0  0
  189.1690  178.2400  140.2290 C   0  0  2  0  0  3  0  0  0  0  0  0
  191.7390  176.6830  144.0750 F   0  0  0  0  0  0  0  0  0  0  0  0
  190.8000  177.0480  143.1700 C   0  0  0  0  0  0  0  0  0  0  0  0
  189.3850  176.8640  143.5260 C   0  0  0  0  0  0  0  0  0  0  0  0
  188.7880  177.7010  141.4710 C   0  0  0  0  0  0  0  0  0  0  0  0
  189.1080  176.3050  144.7830 O   0  0  0  0  0  0  0  0  0  0  0  0
  189.2030  178.1730  148.1770 C   0  0  0  0  0  2  0  0  0  0  0  0
  190.5750  176.4390  147.2750 O   0  0  0  0  0  0  0  0  0  0  0  0
  189.5520  177.1590  147.1230 C   0  0  0  0  0  0  0  0  0  0  0  0
  186.9600  178.2800  147.1020 C   0  0  0  0  0  3  0  0  0  0  0  0
  187.7440  178.5470  148.1500 C   0  0  0  0  0  3  0  0  0  0  0  0
  187.4710  177.5440  145.9310 C   0  0  0  0  0  3  0  0  0  0  0  0
  188.7010  177.0210  145.9170 C   0  0  0  0  0  0  0  0  0  0  0  0
  187.7010  177.2160  138.6130 C   0  0  0  0  0  2  0  0  0  0  0  0
  187.5630  178.0590  137.3460 C   0  0  0  0  0  2  0  0  0  0  0  0
  186.3720  177.5700  136.5450 C   0  0  0  0  0  2  0  0  0  0  0  0
  183.2310  176.6430  138.5450 C   0  0  1  0  0  3  0  0  0  0  0  0
  185.0910  175.3940  136.6380 C   0  0  1  0  0  3  0  0  0  0  0  0
  182.8470  175.3960  137.7510 C   0  0  0  0  0  2  0  0  0  0  0  0
  184.0890  174.5720  137.4460 C   0  0  0  0  0  2  0  0  0  0  0  0
  184.2140  177.4820  137.7330 C   0  0  0  0  0  2  0  0  0  0  0  0
  185.4710  176.6820  137.3920 C   0  0  2  0  0  3  0  0  0  0  0  0
  186.2220  174.6120  136.4010 O   0  0  0  0  0  1  0  0  0  0  0  0
  181.9930  177.4700  138.8320 C   0  0  0  0  0  2  0  0  0  0  0  0
  181.7450  177.5180  140.2620 N   0  0  0  0  0  2  0  0  0  0  0  0
  182.4030  178.7150  140.7610 C   0  0  0  0  0  2  0  0  0  0  0  0
  182.6950  179.1030  143.1970 C   0  0  0  0  0  2  0  0  0  0  0  0
  183.8260  179.5910  143.9800 N   0  0  0  0  0  0  0  0  0  0  0  0
  185.0370  179.2370  143.2470 C   0  0  0  0  0  2  0  0  0  0  0  0
  183.8450  178.8320  145.2180 C   0  0  0  0  0  1  0  0  0  0  0  0
  184.6380  178.8790  141.8380 C   0  0  0  0  0  2  0  0  0  0  0  0
  183.2320  178.3760  141.9850 C   0  0  2  0  0  3  0  0  0  0  0  0
  190.0100  177.5570  138.1170 C   0  0  0  0  0  2  0  0  0  0  0  0
  193.6230  173.3170  136.7900 C   0  0  0  0  0  1  0  0  0  0  0  0
  190.4010  175.2720  137.3390 C   0  0  0  0  0  3  0  0  0  0  0  0
  191.2440  174.0450  137.1130 C   0  0  0  0  0  2  0  0  0  0  0  0
  190.9060  176.3950  137.8520 C   0  0  0  0  0  0  0  0  0  0  0  0
  193.1730  175.5100  137.8540 C   0  0  0  0  0  3  0  0  0  0  0  0
  192.6790  174.3370  137.1980 N   0  0  0  0  0  0  0  0  0  0  0  0
  192.3400  176.4980  138.1750 C   0  0  0  0  0  3  0  0  0  0  0  0
  2  8  1  0  0  0  0
  3  7  1  0  0  0  0
  4  9  1  0  0  0  0
  4  3  2  0  0  0  0
  5  1  1  6  0  0  0
  5  4  1  0  0  0  0
  5  9  1  0  0  0  0
  7  8  2  0  0  0  0
  7  6  1  0  0  0  0
  8 10  1  0  0  0  0
  9  2  2  0  0  0  0
 10 17  1  0  0  0  0
 13 12  2  0  0  0  0
 13 11  1  0  0  0  0
 14 15  2  0  0  0  0
 15 11  1  0  0  0  0
 16 14  1  0  0  0  0
 17 16  2  0  0  0  0
 17 13  1  0  0  0  0
 18  1  1  0  0  0  0
 19 18  1  0  0  0  0
 20 19  1  0  0  0  0
 21 28  1  6  0  0  0
 22 27  1  1  0  0  0
 22 26  1  0  0  0  0
 22 24  1  0  0  0  0
 23 21  1  0  0  0  0
 24 23  1  0  0  0  0
 25 21  1  0  0  0  0
 26 20  1  6  0  0  0
 26 25  1  0  0  0  0
 28 29  1  0  0  0  0
 29 30  1  0  0  0  0
 31 32  1  0  0  0  0
 32 34  1  0  0  0  0
 33 32  1  0  0  0  0
 35 36  1  0  0  0  0
 35 33  1  0  0  0  0
 36 30  1  6  0  0  0
 36 31  1  0  0  0  0
 37  1  1  0  0  0  0
 38 43  1  0  0  0  0
 39 41  2  0  0  0  0
 40 43  1  0  0  0  0
 40 39  1  0  0  0  0
 41 37  1  0  0  0  0
 41 44  1  0  0  0  0
 42 44  2  0  0  0  0
 43 42  1  0  0  0  0
M  END
>  <MODEL>
2

>  <REMARK>
 VINA RESULT:      -8.3      2.864      8.010
  Name = 
  13 active torsions:
  status: ('A' for Active; 'I' for Inactive)
    1  A    between atoms: C_6  and  C_9
    2  A    between atoms: O_7  and  C_38
    3  A    between atoms: O_7  and  C_39
    4  A    between atoms: N_8  and  C_9
    5  A    between atoms: N_8  and  C_27
    6  A    between atoms: C_15  and  C_33
    7  A    between atoms: C_16  and  C_30
    8  A    between atoms: C_16  and  N_41
    9  A    between atoms: C_21  and  N_41
   10  A    between atoms: C_24  and  C_30
   11  A    between atoms: C_24  and  C_37
   12  A    between atoms: C_27  and  C_43
   13  A    between atoms: C_33  and  N_41
                            x       y       z     vdW  Elec       q    Type
                         _______ _______ _______ _____ _____    ______ ____

>  <TORSDO>
F 13

$$$$
=
 OpenBabel11042412223D

 44 49  0  0  1  0  0  0  0  0999 V2000
  185.4640  178.5310  139.7240 N   0  0  0  0  0  0  0  0  0  0  0  0
  188.4270  177.0530  138.4820 C   0  0  0  0  0  3  0  0  0  0  0  0
  185.8860  176.5450  136.8350 C   0  0  0  0  0  3  0  0  0  0  0  0
  186.1150  177.5970  137.6630 C   0  0  0  0  0  0  0  0  0  0  0  0
  186.2320  178.7290  138.4910 C   0  0  2  0  0  3  0  0  0  0  0  0
  186.9750  174.5640  136.0560 F   0  0  0  0  0  0  0  0  0  0  0  0
  187.0350  175.6760  136.8280 C   0  0  0  0  0  0  0  0  0  0  0  0
  188.2610  175.9170  137.6030 C   0  0  0  0  0  0  0  0  0  0  0  0
  187.3190  177.8380  138.4430 C   0  0  0  0  0  0  0  0  0  0  0  0
  189.2830  174.9630  137.4970 O   0  0  0  0  0  0  0  0  0  0  0  0
  192.0940  175.8950  134.9980 C   0  0  0  0  0  2  0  0  0  0  0  0
  189.8820  175.0580  134.6660 O   0  0  0  0  0  0  0  0  0  0  0  0
  190.7820  175.3570  135.4960 C   0  0  0  0  0  0  0  0  0  0  0  0
  192.9790  175.3970  137.2710 C   0  0  0  0  0  3  0  0  0  0  0  0
  193.2110  175.6900  135.9880 C   0  0  0  0  0  3  0  0  0  0  0  0
  191.6080  175.1970  137.7750 C   0  0  0  0  0  3  0  0  0  0  0  0
  190.5550  175.1910  136.9530 C   0  0  0  0  0  0  0  0  0  0  0  0
  186.2510  178.9550  140.8920 C   0  0  0  0  0  2  0  0  0  0  0  0
  186.1450  177.9960  142.0760 C   0  0  0  0  0  2  0  0  0  0  0  0
  185.1940  178.5730  143.1070 C   0  0  0  0  0  2  0  0  0  0  0  0
  187.4930  177.6690  146.0430 C   0  0  1  0  0  3  0  0  0  0  0  0
  184.8960  178.9720  145.5840 C   0  0  1  0  0  3  0  0  0  0  0  0
  186.8670  178.5970  147.0830 C   0  0  0  0  0  2  0  0  0  0  0  0
  185.3500  178.5450  146.9780 C   0  0  0  0  0  2  0  0  0  0  0  0
  187.0630  178.1050  144.6450 C   0  0  0  0  0  2  0  0  0  0  0  0
  185.5400  178.0820  144.5050 C   0  0  2  0  0  3  0  0  0  0  0  0
  183.5040  178.8870  145.5220 O   0  0  0  0  0  1  0  0  0  0  0  0
  189.0050  177.7370  146.1390 C   0  0  0  0  0  2  0  0  0  0  0  0
  189.5970  176.5570  145.5350 N   0  0  0  0  0  2  0  0  0  0  0  0
  190.9680  176.9030  145.1960 C   0  0  0  0  0  2  0  0  0  0  0  0
  191.5250  177.7920  142.9440 C   0  0  0  0  0  2  0  0  0  0  0  0
  190.8600  177.6650  141.6520 N   0  0  0  0  0  0  0  0  0  0  0  0
  190.1310  176.4010  141.6680 C   0  0  0  0  0  2  0  0  0  0  0  0
  191.9020  177.5370  140.6480 C   0  0  0  0  0  1  0  0  0  0  0  0
  190.0340  175.9410  143.1010 C   0  0  0  0  0  2  0  0  0  0  0  0
  191.2470  176.5420  143.7500 C   0  0  2  0  0  3  0  0  0  0  0  0
  184.2520  179.3440  139.6490 C   0  0  0  0  0  2  0  0  0  0  0  0
  179.5910  176.1400  140.5380 C   0  0  0  0  0  1  0  0  0  0  0  0
  183.1790  177.1500  139.7550 C   0  0  0  0  0  3  0  0  0  0  0  0
  181.9910  176.2270  139.8140 C   0  0  0  0  0  2  0  0  0  0  0  0
  183.0460  178.4780  139.7770 C   0  0  0  0  0  0  0  0  0  0  0  0
  180.6410  178.3470  140.1270 C   0  0  0  0  0  3  0  0  0  0  0  0
  180.7680  176.9240  140.2230 N   0  0  0  0  0  0  0  0  0  0  0  0
  181.7170  179.1010  139.9110 C   0  0  0  0  0  3  0  0  0  0  0  0
  1 18  1  0  0  0  0
  3  4  1  0  0  0  0
  4  9  2  0  0  0  0
  4  5  1  0  0  0  0
  5  1  1  1  0  0  0
  6  7  1  0  0  0  0
  7  3  2  0  0  0  0
  7  8  1  0  0  0  0
  8  2  2  0  0  0  0
  9  2  1  0  0  0  0
  9  5  1  0  0  0  0
 10  8  1  0  0  0  0
 11 13  1  0  0  0  0
 11 15  1  0  0  0  0
 12 13  2  0  0  0  0
 13 17  1  0  0  0  0
 14 16  1  0  0  0  0
 15 14  2  0  0  0  0
 17 10  1  0  0  0  0
 17 16  2  0  0  0  0
 18 19  1  0  0  0  0
 19 20  1  0  0  0  0
 21 28  1  6  0  0  0
 21 23  1  0  0  0  0
 22 27  1  1  0  0  0
 22 24  1  0  0  0  0
 24 23  1  0  0  0  0
 25 21  1  0  0  0  0
 26 20  1  6  0  0  0
 26 25  1  0  0  0  0
 26 22  1  0  0  0  0
 29 28  1  0  0  0  0
 30 29  1  0  0  0  0
 31 36  1  0  0  0  0
 32 33  1  0  0  0  0
 32 31  1  0  0  0  0
 33 35  1  0  0  0  0
 34 32  1  0  0  0  0
 35 36  1  0  0  0  0
 36 30  1  1  0  0  0
 37  1  1  0  0  0  0
 37 41  1  0  0  0  0
 39 41  2  0  0  0  0
 39 40  1  0  0  0  0
 40 43  1  0  0  0  0
 41 44  1  0  0  0  0
 42 43  1  0  0  0  0
 43 38  1  0  0  0  0
 44 42  2  0  0  0  0
M  END
>  <MODEL>
3

>  <REMARK>
 VINA RESULT:      -8.3      2.787      5.446
  Name = 
  13 active torsions:
  status: ('A' for Active; 'I' for Inactive)
    1  A    between atoms: C_6  and  C_9
    2  A    between atoms: O_7  and  C_38
    3  A    between atoms: O_7  and  C_39
    4  A    between atoms: N_8  and  C_9
    5  A    between atoms: N_8  and  C_27
    6  A    between atoms: C_15  and  C_33
    7  A    between atoms: C_16  and  C_30
    8  A    between atoms: C_16  and  N_41
    9  A    between atoms: C_21  and  N_41
   10  A    between atoms: C_24  and  C_30
   11  A    between atoms: C_24  and  C_37
   12  A    between atoms: C_27  and  C_43
   13  A    between atoms: C_33  and  N_41
                            x       y       z     vdW  Elec       q    Type
                         _______ _______ _______ _____ _____    ______ ____

>  <TORSDO>
F 13

$$$$
=
 OpenBabel11042412223D

 44 49  0  0  1  0  0  0  0  0999 V2000
  188.6460  177.5190  138.5380 N   0  0  0  0  0  0  0  0  0  0  0  0
  187.4940  177.6640  141.8780 C   0  0  0  0  0  3  0  0  0  0  0  0
  190.4530  176.9260  141.5130 C   0  0  0  0  0  3  0  0  0  0  0  0
  189.6850  177.6380  140.6480 C   0  0  0  0  0  0  0  0  0  0  0  0
  188.9930  178.3800  139.6720 C   0  0  2  0  0  3  0  0  0  0  0  0
  190.2810  175.8340  143.6330 F   0  0  0  0  0  0  0  0  0  0  0  0
  189.6700  176.5590  142.6650 C   0  0  0  0  0  0  0  0  0  0  0  0
  188.2560  176.9190  142.8550 C   0  0  0  0  0  0  0  0  0  0  0  0
  188.2830  177.9870  140.8210 C   0  0  0  0  0  0  0  0  0  0  0  0
  187.6340  176.4680  144.0280 O   0  0  0  0  0  0  0  0  0  0  0  0
  186.2550  178.5130  147.0180 C   0  0  0  0  0  2  0  0  0  0  0  0
  185.5480  178.3440  144.7430 O   0  0  0  0  0  0  0  0  0  0  0  0
  186.4120  178.0260  145.6040 C   0  0  0  0  0  0  0  0  0  0  0  0
  188.6400  177.8700  147.3320 C   0  0  0  0  0  3  0  0  0  0  0  0
  187.5640  178.5340  147.7640 C   0  0  0  0  0  3  0  0  0  0  0  0
  188.6210  177.1260  146.0600 C   0  0  0  0  0  3  0  0  0  0  0  0
  187.5690  177.1740  145.2370 C   0  0  0  0  0  0  0  0  0  0  0  0
  187.2200  177.6600  138.2050 C   0  0  0  0  0  2  0  0  0  0  0  0
  186.9710  178.0070  136.7380 C   0  0  0  0  0  2  0  0  0  0  0  0
  186.4870  176.7710  136.0050 C   0  0  0  0  0  2  0  0  0  0  0  0
  183.8540  174.6260  137.7910 C   0  0  1  0  0  3  0  0  0  0  0  0
  186.5550  174.3330  136.6630 C   0  0  1  0  0  3  0  0  0  0  0  0
  184.4230  173.2580  137.4210 C   0  0  0  0  0  2  0  0  0  0  0  0
  185.9370  173.2690  137.5690 C   0  0  0  0  0  2  0  0  0  0  0  0
  184.4480  175.6910  136.8730 C   0  0  0  0  0  2  0  0  0  0  0  0
  185.9730  175.7220  136.9810 C   0  0  2  0  0  3  0  0  0  0  0  0
  187.9380  174.3260  136.8460 O   0  0  0  0  0  1  0  0  0  0  0  0
  182.3460  174.6160  137.6250 C   0  0  0  0  0  2  0  0  0  0  0  0
  181.7880  175.8850  138.0570 N   0  0  0  0  0  2  0  0  0  0  0  0
  182.0930  176.0170  139.4720 C   0  0  0  0  0  2  0  0  0  0  0  0
  182.2790  178.3230  138.5690 C   0  0  0  0  0  2  0  0  0  0  0  0
  183.3220  179.3360  138.6840 N   0  0  0  0  0  0  0  0  0  0  0  0
  184.0130  179.0960  139.9470 C   0  0  0  0  0  2  0  0  0  0  0  0
  182.6550  180.6210  138.8070 C   0  0  0  0  0  1  0  0  0  0  0  0
  183.6500  177.7100  140.4170 C   0  0  0  0  0  2  0  0  0  0  0  0
  182.2910  177.4790  139.8230 C   0  0  2  0  0  3  0  0  0  0  0  0
  189.4440  177.9300  137.3850 C   0  0  0  0  0  2  0  0  0  0  0  0
  192.8710  173.7160  135.5720 C   0  0  0  0  0  1  0  0  0  0  0  0
  190.3340  176.5570  135.5680 C   0  0  0  0  0  3  0  0  0  0  0  0
  191.0750  175.3730  135.0060 C   0  0  0  0  0  2  0  0  0  0  0  0
  190.2470  176.7800  136.8820 C   0  0  0  0  0  0  0  0  0  0  0  0
  191.7260  174.9210  137.4110 C   0  0  0  0  0  3  0  0  0  0  0  0
  191.9310  174.7290  136.0060 N   0  0  0  0  0  0  0  0  0  0  0  0
  190.9240  175.8920  137.8430 C   0  0  0  0  0  3  0  0  0  0  0  0
  2  8  1  0  0  0  0
  3  7  1  0  0  0  0
  4  9  1  0  0  0  0
  4  3  2  0  0  0  0
  5  1  1  6  0  0  0
  5  4  1  0  0  0  0
  5  9  1  0  0  0  0
  7  8  2  0  0  0  0
  7  6  1  0  0  0  0
  8 10  1  0  0  0  0
  9  2  2  0  0  0  0
 10 17  1  0  0  0  0
 11 15  1  0  0  0  0
 12 13  2  0  0  0  0
 13 11  1  0  0  0  0
 14 15  2  0  0  0  0
 16 14  1  0  0  0  0
 17 13  1  0  0  0  0
 17 16  2  0  0  0  0
 18  1  1  0  0  0  0
 19 18  1  0  0  0  0
 20 19  1  0  0  0  0
 21 28  1  6  0  0  0
 22 27  1  1  0  0  0
 22 26  1  0  0  0  0
 22 24  1  0  0  0  0
 23 24  1  0  0  0  0
 23 21  1  0  0  0  0
 25 26  1  0  0  0  0
 25 21  1  0  0  0  0
 26 20  1  6  0  0  0
 28 29  1  0  0  0  0
 29 30  1  0  0  0  0
 31 32  1  0  0  0  0
 31 36  1  0  0  0  0
 32 34  1  0  0  0  0
 32 33  1  0  0  0  0
 33 35  1  0  0  0  0
 36 30  1  6  0  0  0
 36 35  1  0  0  0  0
 37  1  1  0  0  0  0
 38 43  1  0  0  0  0
 39 41  2  0  0  0  0
 40 39  1  0  0  0  0
 40 43  1  0  0  0  0
 41 37  1  0  0  0  0
 41 44  1  0  0  0  0
 42 44  2  0  0  0  0
 43 42  1  0  0  0  0
M  END
>  <MODEL>
4

>  <REMARK>
 VINA RESULT:      -8.1      3.304      8.270
  Name = 
  13 active torsions:
  status: ('A' for Active; 'I' for Inactive)
    1  A    between atoms: C_6  and  C_9
    2  A    between atoms: O_7  and  C_38
    3  A    between atoms: O_7  and  C_39
    4  A    between atoms: N_8  and  C_9
    5  A    between atoms: N_8  and  C_27
    6  A    between atoms: C_15  and  C_33
    7  A    between atoms: C_16  and  C_30
    8  A    between atoms: C_16  and  N_41
    9  A    between atoms: C_21  and  N_41
   10  A    between atoms: C_24  and  C_30
   11  A    between atoms: C_24  and  C_37
   12  A    between atoms: C_27  and  C_43
   13  A    between atoms: C_33  and  N_41
                            x       y       z     vdW  Elec       q    Type
                         _______ _______ _______ _____ _____    ______ ____

>  <TORSDO>
F 13

$$$$
=
 OpenBabel11042412223D

 44 49  0  0  1  0  0  0  0  0999 V2000
  185.3370  179.2770  141.3200 N   0  0  0  0  0  0  0  0  0  0  0  0
  186.3120  177.1860  144.0000 C   0  0  0  0  0  3  0  0  0  0  0  0
  184.7850  179.7340  144.7770 C   0  0  0  0  0  3  0  0  0  0  0  0
  184.7230  179.0870  143.5850 C   0  0  0  0  0  0  0  0  0  0  0  0
  184.5760  178.5100  142.3100 C   0  0  2  0  0  3  0  0  0  0  0  0
  185.8760  179.5540  146.8970 F   0  0  0  0  0  0  0  0  0  0  0  0
  185.6870  179.0380  145.6590 C   0  0  0  0  0  0  0  0  0  0  0  0
  186.4130  177.8110  145.3000 C   0  0  0  0  0  0  0  0  0  0  0  0
  185.4460  177.8790  143.2170 C   0  0  0  0  0  0  0  0  0  0  0  0
  187.2680  177.2670  146.2710 O   0  0  0  0  0  0  0  0  0  0  0  0
  190.9980  176.7750  147.2000 C   0  0  0  0  0  2  0  0  0  0  0  0
  189.1230  177.5170  148.4790 O   0  0  0  0  0  0  0  0  0  0  0  0
  189.5580  177.1800  147.3450 C   0  0  0  0  0  0  0  0  0  0  0  0
  190.6650  177.0670  144.7500 C   0  0  0  0  0  3  0  0  0  0  0  0
  191.4960  176.9320  145.7870 C   0  0  0  0  0  3  0  0  0  0  0  0
  189.2050  177.1330  144.9430 C   0  0  0  0  0  3  0  0  0  0  0  0
  188.6620  177.1710  146.1630 C   0  0  0  0  0  0  0  0  0  0  0  0
  186.7640  179.2970  141.6740 C   0  0  0  0  0  2  0  0  0  0  0  0
  187.6610  178.6460  140.6230 C   0  0  0  0  0  2  0  0  0  0  0  0
  188.8720  178.0370  141.3030 C   0  0  0  0  0  2  0  0  0  0  0  0
  189.6820  176.3400  137.9580 C   0  0  1  0  0  3  0  0  0  0  0  0
  191.1070  177.4900  140.2600 C   0  0  1  0  0  3  0  0  0  0  0  0
  191.1430  176.7740  137.8600 C   0  0  0  0  0  2  0  0  0  0  0  0
  191.8180  176.6310  139.2160 C   0  0  0  0  0  2  0  0  0  0  0  0
  188.9580  177.2100  138.9820 C   0  0  0  0  0  2  0  0  0  0  0  0
  189.6190  177.1070  140.3570 C   0  0  2  0  0  3  0  0  0  0  0  0
  191.7410  177.3130  141.4900 O   0  0  0  0  0  1  0  0  0  0  0  0
  189.0070  176.4990  136.6090 C   0  0  0  0  0  2  0  0  0  0  0  0
  187.6500  175.9870  136.6660 N   0  0  0  0  0  2  0  0  0  0  0  0
  186.7650  177.1390  136.5970 C   0  0  0  0  0  2  0  0  0  0  0  0
  185.2470  175.1960  136.9040 C   0  0  0  0  0  2  0  0  0  0  0  0
  184.0390  174.7800  136.2000 N   0  0  0  0  0  0  0  0  0  0  0  0
  183.4170  175.9880  135.6670 C   0  0  0  0  0  2  0  0  0  0  0  0
  183.1300  174.2440  137.1980 C   0  0  0  0  0  1  0  0  0  0  0  0
  184.4420  177.0940  135.7100 C   0  0  0  0  0  2  0  0  0  0  0  0
  185.3340  176.7050  136.8530 C   0  0  2  0  0  3  0  0  0  0  0  0
  185.1820  178.6330  140.0170 C   0  0  0  0  0  2  0  0  0  0  0  0
  179.5780  178.7730  138.8510 C   0  0  0  0  0  1  0  0  0  0  0  0
  183.0460  177.4750  139.7420 C   0  0  0  0  0  3  0  0  0  0  0  0
  181.6100  177.3730  139.3010 C   0  0  0  0  0  2  0  0  0  0  0  0
  183.7430  178.6080  139.6270 C   0  0  0  0  0  0  0  0  0  0  0  0
  181.8070  179.8560  138.8440 C   0  0  0  0  0  3  0  0  0  0  0  0
  181.0070  178.6890  139.0670 N   0  0  0  0  0  0  0  0  0  0  0  0
  183.1130  179.8320  139.1030 C   0  0  0  0  0  3  0  0  0  0  0  0
  1 18  1  0  0  0  0
  2  8  1  0  0  0  0
  3  7  1  0  0  0  0
  4  3  2  0  0  0  0
  5  1  1  6  0  0  0
  5  9  1  0  0  0  0
  5  4  1  0  0  0  0
  7  6  1  0  0  0  0
  8  7  2  0  0  0  0
  8 10  1  0  0  0  0
  9  4  1  0  0  0  0
  9  2  2  0  0  0  0
 11 13  1  0  0  0  0
 13 12  2  0  0  0  0
 14 16  1  0  0  0  0
 14 15  2  0  0  0  0
 15 11  1  0  0  0  0
 16 17  2  0  0  0  0
 17 10  1  0  0  0  0
 17 13  1  0  0  0  0
 19 20  1  0  0  0  0
 19 18  1  0  0  0  0
 21 28  1  6  0  0  0
 21 25  1  0  0  0  0
 22 26  1  0  0  0  0
 22 27  1  1  0  0  0
 23 21  1  0  0  0  0
 23 24  1  0  0  0  0
 24 22  1  0  0  0  0
 25 26  1  0  0  0  0
 26 20  1  1  0  0  0
 28 29  1  0  0  0  0
 30 29  1  0  0  0  0
 32 31  1  0  0  0  0
 32 34  1  0  0  0  0
 33 35  1  0  0  0  0
 33 32  1  0  0  0  0
 35 36  1  0  0  0  0
 36 30  1  6  0  0  0
 36 31  1  0  0  0  0
 37  1  1  0  0  0  0
 38 43  1  0  0  0  0
 40 39  1  0  0  0  0
 41 39  2  0  0  0  0
 41 37  1  0  0  0  0
 42 43  1  0  0  0  0
 42 44  2  0  0  0  0
 43 40  1  0  0  0  0
 44 41  1  0  0  0  0
M  END
>  <MODEL>
5

>  <REMARK>
 VINA RESULT:      -8.0      3.588      8.240
  Name = 
  13 active torsions:
  status: ('A' for Active; 'I' for Inactive)
    1  A    between atoms: C_6  and  C_9
    2  A    between atoms: O_7  and  C_38
    3  A    between atoms: O_7  and  C_39
    4  A    between atoms: N_8  and  C_9
    5  A    between atoms: N_8  and  C_27
    6  A    between atoms: C_15  and  C_33
    7  A    between atoms: C_16  and  C_30
    8  A    between atoms: C_16  and  N_41
    9  A    between atoms: C_21  and  N_41
   10  A    between atoms: C_24  and  C_30
   11  A    between atoms: C_24  and  C_37
   12  A    between atoms: C_27  and  C_43
   13  A    between atoms: C_33  and  N_41
                            x       y       z     vdW  Elec       q    Type
                         _______ _______ _______ _____ _____    ______ ____

>  <TORSDO>
F 13

$$$$
=
 OpenBabel11042412223D

 44 49  0  0  1  0  0  0  0  0999 V2000
  191.3400  176.8500  141.4520 N   0  0  0  0  0  0  0  0  0  0  0  0
  188.1220  176.3830  142.8420 C   0  0  0  0  0  3  0  0  0  0  0  0
  188.3580  178.5950  140.7250 C   0  0  0  0  0  3  0  0  0  0  0  0
  189.1610  177.5070  140.8490 C   0  0  0  0  0  0  0  0  0  0  0  0
  190.0610  176.4250  140.8770 C   0  0  2  0  0  3  0  0  0  0  0  0
  186.4550  179.5890  141.7770 F   0  0  0  0  0  0  0  0  0  0  0  0
  187.3440  178.5670  141.7470 C   0  0  0  0  0  0  0  0  0  0  0  0
  187.2150  177.5060  142.7570 C   0  0  0  0  0  0  0  0  0  0  0  0
  189.0490  176.4590  141.8520 C   0  0  0  0  0  0  0  0  0  0  0  0
  186.1800  177.6380  143.6960 O   0  0  0  0  0  0  0  0  0  0  0  0
  185.4360  178.7110  147.3440 C   0  0  0  0  0  2  0  0  0  0  0  0
  184.4400  179.3380  145.2660 O   0  0  0  0  0  0  0  0  0  0  0  0
  185.3590  178.6950  145.8430 C   0  0  0  0  0  0  0  0  0  0  0  0
  187.7460  177.8230  147.0730 C   0  0  0  0  0  3  0  0  0  0  0  0
  186.8200  178.3920  147.8490 C   0  0  0  0  0  3  0  0  0  0  0  0
  187.4810  177.5310  145.6530 C   0  0  0  0  0  3  0  0  0  0  0  0
  186.3510  177.9220  145.0580 C   0  0  0  0  0  0  0  0  0  0  0  0
  192.1690  177.5090  140.4300 C   0  0  0  0  0  2  0  0  0  0  0  0
  192.0810  176.8450  139.0570 C   0  0  0  0  0  2  0  0  0  0  0  0
  193.4630  176.3870  138.6320 C   0  0  0  0  0  2  0  0  0  0  0  0
  191.7610  173.8240  136.3380 C   0  0  1  0  0  3  0  0  0  0  0  0
  193.7390  175.9940  136.1520 C   0  0  1  0  0  3  0  0  0  0  0  0
  192.0910  174.4950  135.0060 C   0  0  0  0  0  2  0  0  0  0  0  0
  193.5290  174.9920  135.0180 C   0  0  0  0  0  2  0  0  0  0  0  0
  191.9450  174.8270  137.4740 C   0  0  0  0  0  2  0  0  0  0  0  0
  193.3770  175.3630  137.5090 C   0  0  2  0  0  3  0  0  0  0  0  0
  195.0720  176.4060  136.1420 O   0  0  0  0  0  1  0  0  0  0  0  0
  190.3220  173.3460  136.3290 C   0  0  0  0  0  2  0  0  0  0  0  0
  189.5280  174.1330  137.2550 N   0  0  0  0  0  2  0  0  0  0  0  0
  188.7000  175.0170  136.4500 C   0  0  0  0  0  2  0  0  0  0  0  0
  186.7610  176.4260  137.1000 C   0  0  0  0  0  2  0  0  0  0  0  0
  186.5230  177.8630  137.0080 N   0  0  0  0  0  0  0  0  0  0  0  0
  187.8260  178.5170  137.0680 C   0  0  0  0  0  2  0  0  0  0  0  0
  185.8010  178.2510  138.2070 C   0  0  0  0  0  1  0  0  0  0  0  0
  188.8820  177.4710  136.8070 C   0  0  0  0  0  2  0  0  0  0  0  0
  188.2440  176.1980  137.2840 C   0  0  2  0  0  3  0  0  0  0  0  0
  191.0700  177.8010  142.5280 C   0  0  0  0  0  2  0  0  0  0  0  0
  192.3610  175.6270  147.6650 C   0  0  0  0  0  1  0  0  0  0  0  0
  191.8390  175.9330  143.9050 C   0  0  0  0  0  3  0  0  0  0  0  0
  192.0560  175.2140  145.2100 C   0  0  0  0  0  2  0  0  0  0  0  0
  191.3250  177.1640  143.8510 C   0  0  0  0  0  0  0  0  0  0  0  0
  191.3060  177.3870  146.2740 C   0  0  0  0  0  3  0  0  0  0  0  0
  191.9630  176.1160  146.3610 N   0  0  0  0  0  0  0  0  0  0  0  0
  190.9930  177.8970  145.0850 C   0  0  0  0  0  3  0  0  0  0  0  0
  1 37  1  0  0  0  0
  3  4  2  0  0  0  0
  3  7  1  0  0  0  0
  4  5  1  0  0  0  0
  4  9  1  0  0  0  0
  5  1  1  1  0  0  0
  5  9  1  0  0  0  0
  7  6  1  0  0  0  0
  7  8  2  0  0  0  0
  8  2  1  0  0  0  0
  8 10  1  0  0  0  0
  9  2  2  0  0  0  0
 10 17  1  0  0  0  0
 11 15  1  0  0  0  0
 12 13  2  0  0  0  0
 13 11  1  0  0  0  0
 14 15  2  0  0  0  0
 16 14  1  0  0  0  0
 17 16  2  0  0  0  0
 17 13  1  0  0  0  0
 18  1  1  0  0  0  0
 19 18  1  0  0  0  0
 20 19  1  0  0  0  0
 21 28  1  6  0  0  0
 21 25  1  0  0  0  0
 22 27  1  1  0  0  0
 22 26  1  0  0  0  0
 23 24  1  0  0  0  0
 23 21  1  0  0  0  0
 24 22  1  0  0  0  0
 25 26  1  0  0  0  0
 26 20  1  1  0  0  0
 28 29  1  0  0  0  0
 30 29  1  0  0  0  0
 31 36  1  0  0  0  0
 32 33  1  0  0  0  0
 32 31  1  0  0  0  0
 32 34  1  0  0  0  0
 35 33  1  0  0  0  0
 35 36  1  0  0  0  0
 36 30  1  6  0  0  0
 37 41  1  0  0  0  0
 39 40  1  0  0  0  0
 40 43  1  0  0  0  0
 41 39  2  0  0  0  0
 41 44  1  0  0  0  0
 42 43  1  0  0  0  0
 43 38  1  0  0  0  0
 44 42  2  0  0  0  0
M  END
>  <MODEL>
6

>  <REMARK>
 VINA RESULT:      -8.0      3.129      9.612
  Name = 
  13 active torsions:
  status: ('A' for Active; 'I' for Inactive)
    1  A    between atoms: C_6  and  C_9
    2  A    between atoms: O_7  and  C_38
    3  A    between atoms: O_7  and  C_39
    4  A    between atoms: N_8  and  C_9
    5  A    between atoms: N_8  and  C_27
    6  A    between atoms: C_15  and  C_33
    7  A    between atoms: C_16  and  C_30
    8  A    between atoms: C_16  and  N_41
    9  A    between atoms: C_21  and  N_41
   10  A    between atoms: C_24  and  C_30
   11  A    between atoms: C_24  and  C_37
   12  A    between atoms: C_27  and  C_43
   13  A    between atoms: C_33  and  N_41
                            x       y       z     vdW  Elec       q    Type
                         _______ _______ _______ _____ _____    ______ ____

>  <TORSDO>
F 13

$$$$
=
 OpenBabel11042412223D

 44 49  0  0  1  0  0  0  0  0999 V2000
  188.5710  177.3790  137.7530 N   0  0  0  0  0  0  0  0  0  0  0  0
  191.9640  176.3940  137.8980 C   0  0  0  0  0  3  0  0  0  0  0  0
  190.2250  174.9050  135.8530 C   0  0  0  0  0  3  0  0  0  0  0  0
  190.0050  176.1510  136.3450 C   0  0  0  0  0  0  0  0  0  0  0  0
  189.6670  177.4460  136.7830 C   0  0  2  0  0  3  0  0  0  0  0  0
  191.7950  173.1140  136.0550 F   0  0  0  0  0  0  0  0  0  0  0  0
  191.4270  174.3620  136.4310 C   0  0  0  0  0  0  0  0  0  0  0  0
  192.2730  175.0720  137.4020 C   0  0  0  0  0  0  0  0  0  0  0  0
  190.8290  176.8570  137.3140 C   0  0  0  0  0  0  0  0  0  0  0  0
  193.4030  174.3930  137.8830 O   0  0  0  0  0  0  0  0  0  0  0  0
  197.2660  174.2050  137.6430 C   0  0  0  0  0  2  0  0  0  0  0  0
  195.7770  174.0570  139.5050 O   0  0  0  0  0  0  0  0  0  0  0  0
  195.9010  174.2730  138.2690 C   0  0  0  0  0  0  0  0  0  0  0  0
  196.2560  175.3800  135.6950 C   0  0  0  0  0  3  0  0  0  0  0  0
  197.3470  174.9870  136.3580 C   0  0  0  0  0  3  0  0  0  0  0  0
  194.9040  175.1200  136.2230 C   0  0  0  0  0  3  0  0  0  0  0  0
  194.7170  174.5820  137.4320 C   0  0  0  0  0  0  0  0  0  0  0  0
  188.8600  178.2350  138.9140 C   0  0  0  0  0  2  0  0  0  0  0  0
  188.4980  177.5900  140.2500 C   0  0  0  0  0  2  0  0  0  0  0  0
  188.0730  178.6660  141.2290 C   0  0  0  0  0  2  0  0  0  0  0  0
  185.9320  178.0610  144.3550 C   0  0  1  0  0  3  0  0  0  0  0  0
  185.6080  179.0700  141.6110 C   0  0  1  0  0  3  0  0  0  0  0  0
  184.7420  178.9320  143.9580 C   0  0  0  0  0  2  0  0  0  0  0  0
  184.4090  178.7160  142.4890 C   0  0  0  0  0  2  0  0  0  0  0  0
  187.1410  178.4250  143.4990 C   0  0  0  0  0  2  0  0  0  0  0  0
  186.8400  178.2370  142.0120 C   0  0  2  0  0  3  0  0  0  0  0  0
  185.2700  178.8360  140.2780 O   0  0  0  0  0  1  0  0  0  0  0  0
  186.2720  178.2920  145.8160 C   0  0  0  0  0  2  0  0  0  0  0  0
  186.8890  177.1040  146.3780 N   0  0  0  0  0  2  0  0  0  0  0  0
  188.1120  177.5380  147.0330 C   0  0  0  0  0  2  0  0  0  0  0  0
  190.3890  176.6710  147.5180 C   0  0  0  0  0  2  0  0  0  0  0  0
  191.6730  176.8720  146.8550 N   0  0  0  0  0  0  0  0  0  0  0  0
  191.3900  177.1500  145.4510 C   0  0  0  0  0  2  0  0  0  0  0  0
  192.3780  175.6040  146.9000 C   0  0  0  0  0  1  0  0  0  0  0  0
  189.9280  177.5000  145.3330 C   0  0  0  0  0  2  0  0  0  0  0  0
  189.2940  176.7660  146.4790 C   0  0  2  0  0  3  0  0  0  0  0  0
  187.3510  177.8550  137.1060 C   0  0  0  0  0  2  0  0  0  0  0  0
  183.3660  173.7480  136.9070 C   0  0  0  0  0  1  0  0  0  0  0  0
  185.0210  177.1510  137.3390 C   0  0  0  0  0  3  0  0  0  0  0  0
  183.9240  176.1280  137.4690 C   0  0  0  0  0  2  0  0  0  0  0  0
  186.2970  176.8020  137.1600 C   0  0  0  0  0  0  0  0  0  0  0  0
  185.7450  174.4400  136.9750 C   0  0  0  0  0  3  0  0  0  0  0  0
  184.3590  174.7930  137.0500 N   0  0  0  0  0  0  0  0  0  0  0  0
  186.6810  175.3860  137.0290 C   0  0  0  0  0  3  0  0  0  0  0  0
  1 18  1  0  0  0  0
  3  4  2  0  0  0  0
  3  7  1  0  0  0  0
  4  5  1  0  0  0  0
  4  9  1  0  0  0  0
  5  9  1  0  0  0  0
  5  1  1  1  0  0  0
  6  7  1  0  0  0  0
  7  8  2  0  0  0  0
  8 10  1  0  0  0  0
  8  2  1  0  0  0  0
  9  2  2  0  0  0  0
 11 13  1  0  0  0  0
 13 12  2  0  0  0  0
 14 16  1  0  0  0  0
 14 15  2  0  0  0  0
 15 11  1  0  0  0  0
 16 17  2  0  0  0  0
 17 10  1  0  0  0  0
 17 13  1  0  0  0  0
 18 19  1  0  0  0  0
 19 20  1  0  0  0  0
 21 28  1  1  0  0  0
 22 27  1  6  0  0  0
 22 26  1  0  0  0  0
 22 24  1  0  0  0  0
 23 21  1  0  0  0  0
 24 23  1  0  0  0  0
 25 21  1  0  0  0  0
 26 20  1  6  0  0  0
 26 25  1  0  0  0  0
 28 29  1  0  0  0  0
 29 30  1  0  0  0  0
 32 34  1  0  0  0  0
 32 31  1  0  0  0  0
 33 32  1  0  0  0  0
 35 33  1  0  0  0  0
 35 36  1  0  0  0  0
 36 30  1  1  0  0  0
 36 31  1  0  0  0  0
 37 41  1  0  0  0  0
 37  1  1  0  0  0  0
 38 43  1  0  0  0  0
 39 40  1  0  0  0  0
 41 39  2  0  0  0  0
 42 44  2  0  0  0  0
 42 43  1  0  0  0  0
 43 40  1  0  0  0  0
 44 41  1  0  0  0  0
M  END
>  <MODEL>
7

>  <REMARK>
 VINA RESULT:      -8.0      1.799      3.866
  Name = 
  13 active torsions:
  status: ('A' for Active; 'I' for Inactive)
    1  A    between atoms: C_6  and  C_9
    2  A    between atoms: O_7  and  C_38
    3  A    between atoms: O_7  and  C_39
    4  A    between atoms: N_8  and  C_9
    5  A    between atoms: N_8  and  C_27
    6  A    between atoms: C_15  and  C_33
    7  A    between atoms: C_16  and  C_30
    8  A    between atoms: C_16  and  N_41
    9  A    between atoms: C_21  and  N_41
   10  A    between atoms: C_24  and  C_30
   11  A    between atoms: C_24  and  C_37
   12  A    between atoms: C_27  and  C_43
   13  A    between atoms: C_33  and  N_41
                            x       y       z     vdW  Elec       q    Type
                         _______ _______ _______ _____ _____    ______ ____

>  <TORSDO>
F 13

$$$$
=
 OpenBabel11042412223D

 44 49  0  0  1  0  0  0  0  0999 V2000
  187.1390  178.0820  140.8920 N   0  0  0  0  0  0  0  0  0  0  0  0
  190.0370  176.6290  139.4790 C   0  0  0  0  0  3  0  0  0  0  0  0
  187.7750  177.2900  137.5100 C   0  0  0  0  0  3  0  0  0  0  0  0
  188.0020  177.8850  138.7100 C   0  0  0  0  0  0  0  0  0  0  0  0
  188.1290  178.5740  139.9310 C   0  0  2  0  0  3  0  0  0  0  0  0
  188.6960  175.5760  136.1200 F   0  0  0  0  0  0  0  0  0  0  0  0
  188.7750  176.2800  137.2750 C   0  0  0  0  0  0  0  0  0  0  0  0
  189.8690  175.9650  138.2060 C   0  0  0  0  0  0  0  0  0  0  0  0
  189.0730  177.5720  139.6420 C   0  0  0  0  0  0  0  0  0  0  0  0
  190.7510  174.9390  137.8330 O   0  0  0  0  0  0  0  0  0  0  0  0
  193.2190  175.3170  134.8690 C   0  0  0  0  0  2  0  0  0  0  0  0
  191.1160  174.2000  135.0580 O   0  0  0  0  0  0  0  0  0  0  0  0
  192.0300  174.8340  135.6520 C   0  0  0  0  0  0  0  0  0  0  0  0
  194.3300  175.6510  137.0720 C   0  0  0  0  0  3  0  0  0  0  0  0
  194.4240  175.5480  135.7440 C   0  0  0  0  0  3  0  0  0  0  0  0
  193.0390  175.4830  137.7640 C   0  0  0  0  0  3  0  0  0  0  0  0
  191.9370  175.1120  137.1060 C   0  0  0  0  0  0  0  0  0  0  0  0
  187.8070  177.5410  142.0850 C   0  0  0  0  0  2  0  0  0  0  0  0
  187.3270  178.1740  143.3900 C   0  0  0  0  0  2  0  0  0  0  0  0
  186.2970  177.2690  144.0380 C   0  0  0  0  0  2  0  0  0  0  0  0
  187.6640  177.5910  147.6090 C   0  0  1  0  0  3  0  0  0  0  0  0
  185.7140  178.9240  145.8560 C   0  0  1  0  0  3  0  0  0  0  0  0
  187.1850  179.0150  147.8810 C   0  0  0  0  0  2  0  0  0  0  0  0
  185.7670  179.1950  147.3580 C   0  0  0  0  0  2  0  0  0  0  0  0
  187.6360  177.3200  146.1070 C   0  0  0  0  0  2  0  0  0  0  0  0
  186.2280  177.5070  145.5400 C   0  0  2  0  0  3  0  0  0  0  0  0
  184.3970  179.0750  145.4210 O   0  0  0  0  0  1  0  0  0  0  0  0
  189.0830  177.4210  148.1170 C   0  0  0  0  0  2  0  0  0  0  0  0
  189.7920  176.4510  147.3010 N   0  0  0  0  0  2  0  0  0  0  0  0
  191.2040  176.7870  147.3840 C   0  0  0  0  0  2  0  0  0  0  0  0
  190.9460  177.5130  145.0230 C   0  0  0  0  0  2  0  0  0  0  0  0
  190.9060  176.7670  143.7700 N   0  0  0  0  0  0  0  0  0  0  0  0
  191.6820  175.5480  143.9740 C   0  0  0  0  0  2  0  0  0  0  0  0
  191.6160  177.5580  142.7810 C   0  0  0  0  0  1  0  0  0  0  0  0
  191.8720  175.3620  145.4580 C   0  0  0  0  0  2  0  0  0  0  0  0
  191.8220  176.7610  145.9990 C   0  0  2  0  0  3  0  0  0  0  0  0
  186.2880  179.2000  141.2920 C   0  0  0  0  0  2  0  0  0  0  0  0
  180.9410  178.8630  139.2710 C   0  0  0  0  0  1  0  0  0  0  0  0
  183.9540  178.5290  141.5770 C   0  0  0  0  0  3  0  0  0  0  0  0
  182.5580  178.2480  141.0880 C   0  0  0  0  0  2  0  0  0  0  0  0
  184.9050  179.0040  140.7700 C   0  0  0  0  0  0  0  0  0  0  0  0
  183.3610  179.2520  138.9060 C   0  0  0  0  0  3  0  0  0  0  0  0
  182.2970  178.8540  139.7790 N   0  0  0  0  0  0  0  0  0  0  0  0
  184.6100  179.3250  139.3630 C   0  0  0  0  0  3  0  0  0  0  0  0
  1 37  1  0  0  0  0
  1 18  1  0  0  0  0
  2  9  1  0  0  0  0
  3  4  1  0  0  0  0
  4  9  2  0  0  0  0
  4  5  1  0  0  0  0
  5  1  1  1  0  0  0
  6  7  1  0  0  0  0
  7  3  2  0  0  0  0
  7  8  1  0  0  0  0
  8  2  2  0  0  0  0
  9  5  1  0  0  0  0
 10  8  1  0  0  0  0
 11 13  1  0  0  0  0
 11 15  1  0  0  0  0
 12 13  2  0  0  0  0
 13 17  1  0  0  0  0
 14 16  1  0  0  0  0
 15 14  2  0  0  0  0
 17 16  2  0  0  0  0
 17 10  1  0  0  0  0
 18 19  1  0  0  0  0
 19 20  1  0  0  0  0
 21 23  1  0  0  0  0
 21 28  1  6  0  0  0
 22 27  1  1  0  0  0
 22 24  1  0  0  0  0
 24 23  1  0  0  0  0
 25 21  1  0  0  0  0
 26 20  1  6  0  0  0
 26 22  1  0  0  0  0
 26 25  1  0  0  0  0
 29 30  1  0  0  0  0
 29 28  1  0  0  0  0
 31 36  1  0  0  0  0
 32 33  1  0  0  0  0
 32 31  1  0  0  0  0
 33 35  1  0  0  0  0
 34 32  1  0  0  0  0
 35 36  1  0  0  0  0
 36 30  1  1  0  0  0
 38 43  1  0  0  0  0
 40 39  1  0  0  0  0
 41 37  1  0  0  0  0
 41 39  2  0  0  0  0
 42 44  2  0  0  0  0
 42 43  1  0  0  0  0
 43 40  1  0  0  0  0
 44 41  1  0  0  0  0
M  END
>  <MODEL>
8

>  <REMARK>
 VINA RESULT:      -8.0      2.562      4.972
  Name = 
  13 active torsions:
  status: ('A' for Active; 'I' for Inactive)
    1  A    between atoms: C_6  and  C_9
    2  A    between atoms: O_7  and  C_38
    3  A    between atoms: O_7  and  C_39
    4  A    between atoms: N_8  and  C_9
    5  A    between atoms: N_8  and  C_27
    6  A    between atoms: C_15  and  C_33
    7  A    between atoms: C_16  and  C_30
    8  A    between atoms: C_16  and  N_41
    9  A    between atoms: C_21  and  N_41
   10  A    between atoms: C_24  and  C_30
   11  A    between atoms: C_24  and  C_37
   12  A    between atoms: C_27  and  C_43
   13  A    between atoms: C_33  and  N_41
                            x       y       z     vdW  Elec       q    Type
                         _______ _______ _______ _____ _____    ______ ____

>  <TORSDO>
F 13

$$$$
=
 OpenBabel11042412223D

 44 49  0  0  1  0  0  0  0  0999 V2000
  183.7230  177.6260  140.0770 N   0  0  0  0  0  0  0  0  0  0  0  0
  180.7610  179.3790  139.2630 C   0  0  0  0  0  3  0  0  0  0  0  0
  181.5150  177.0770  137.3760 C   0  0  0  0  0  3  0  0  0  0  0  0
  181.8740  177.2040  138.6800 C   0  0  0  0  0  0  0  0  0  0  0  0
  182.3150  177.2240  140.0160 C   0  0  2  0  0  3  0  0  0  0  0  0
  180.2560  178.2390  135.7090 F   0  0  0  0  0  0  0  0  0  0  0  0
  180.7000  178.1990  136.9880 C   0  0  0  0  0  0  0  0  0  0  0  0
  180.3230  179.3000  137.8880 C   0  0  0  0  0  0  0  0  0  0  0  0
  181.5170  178.2950  139.5730 C   0  0  0  0  0  0  0  0  0  0  0  0
  179.5360  180.3280  137.3470 O   0  0  0  0  0  0  0  0  0  0  0  0
  180.9150  183.9470  137.2210 C   0  0  0  0  0  2  0  0  0  0  0  0
  179.5450  182.8200  138.8200 O   0  0  0  0  0  0  0  0  0  0  0  0
  180.1180  182.7660  137.6980 C   0  0  0  0  0  0  0  0  0  0  0  0
  180.8320  182.8900  134.9690 C   0  0  0  0  0  3  0  0  0  0  0  0
  181.0670  183.9680  135.7230 C   0  0  0  0  0  3  0  0  0  0  0  0
  180.3480  181.6310  135.5640 C   0  0  0  0  0  3  0  0  0  0  0  0
  180.0210  181.5490  136.8570 C   0  0  0  0  0  0  0  0  0  0  0  0
  184.2770  177.7550  138.7200 C   0  0  0  0  0  2  0  0  0  0  0  0
  185.5000  178.6670  138.6490 C   0  0  0  0  0  2  0  0  0  0  0  0
  186.5010  178.0900  137.6660 C   0  0  0  0  0  2  0  0  0  0  0  0
  189.2670  177.8680  140.3150 C   0  0  1  0  0  3  0  0  0  0  0  0
  188.8630  177.2160  137.4750 C   0  0  1  0  0  3  0  0  0  0  0  0
  190.1640  176.8690  139.5880 C   0  0  0  0  0  2  0  0  0  0  0  0
  190.2520  177.2290  138.1120 C   0  0  0  0  0  2  0  0  0  0  0  0
  187.8710  177.8430  139.7000 C   0  0  0  0  0  2  0  0  0  0  0  0
  187.9190  178.1850  138.2110 C   0  0  2  0  0  3  0  0  0  0  0  0
  188.9850  177.5740  136.1320 O   0  0  0  0  0  1  0  0  0  0  0  0
  189.1690  177.4950  141.7820 C   0  0  0  0  0  2  0  0  0  0  0  0
  190.4930  177.4420  142.3740 N   0  0  0  0  0  2  0  0  0  0  0  0
  190.4270  178.1920  143.6180 C   0  0  0  0  0  2  0  0  0  0  0  0
  189.1580  177.9940  145.7440 C   0  0  0  0  0  2  0  0  0  0  0  0
  189.5660  177.6190  147.0930 N   0  0  0  0  0  0  0  0  0  0  0  0
  190.7180  176.7320  146.9610 C   0  0  0  0  0  2  0  0  0  0  0  0
  188.4880  176.8270  147.6590 C   0  0  0  0  0  1  0  0  0  0  0  0
  191.2520  176.8730  145.5580 C   0  0  0  0  0  2  0  0  0  0  0  0
  190.0450  177.2680  144.7570 C   0  0  2  0  0  3  0  0  0  0  0  0
  183.8060  178.9210  140.7470 C   0  0  0  0  0  2  0  0  0  0  0  0
  185.3430  178.6230  146.2550 C   0  0  0  0  0  1  0  0  0  0  0  0
  185.4290  178.2860  142.4620 C   0  0  0  0  0  3  0  0  0  0  0  0
  185.8650  178.0160  143.8780 C   0  0  0  0  0  2  0  0  0  0  0  0
  184.2060  178.7350  142.1720 C   0  0  0  0  0  0  0  0  0  0  0  0
  183.6100  178.9730  144.5190 C   0  0  0  0  0  3  0  0  0  0  0  0
  184.9510  178.6040  144.8610 N   0  0  0  0  0  0  0  0  0  0  0  0
  183.2390  179.0360  143.2410 C   0  0  0  0  0  3  0  0  0  0  0  0
  1 37  1  0  0  0  0
  2  9  1  0  0  0  0
  3  4  1  0  0  0  0
  4  9  2  0  0  0  0
  4  5  1  0  0  0  0
  5  1  1  6  0  0  0
  6  7  1  0  0  0  0
  7  3  2  0  0  0  0
  7  8  1  0  0  0  0
  8  2  2  0  0  0  0
  9  5  1  0  0  0  0
 10  8  1  0  0  0  0
 11 13  1  0  0  0  0
 13 12  2  0  0  0  0
 14 16  1  0  0  0  0
 14 15  2  0  0  0  0
 15 11  1  0  0  0  0
 16 17  2  0  0  0  0
 17 10  1  0  0  0  0
 17 13  1  0  0  0  0
 18  1  1  0  0  0  0
 19 18  1  0  0  0  0
 20 19  1  0  0  0  0
 21 28  1  1  0  0  0
 22 27  1  6  0  0  0
 22 24  1  0  0  0  0
 22 26  1  0  0  0  0
 23 21  1  0  0  0  0
 24 23  1  0  0  0  0
 25 21  1  0  0  0  0
 26 20  1  6  0  0  0
 26 25  1  0  0  0  0
 28 29  1  0  0  0  0
 29 30  1  0  0  0  0
 31 32  1  0  0  0  0
 32 34  1  0  0  0  0
 33 32  1  0  0  0  0
 35 33  1  0  0  0  0
 36 30  1  6  0  0  0
 36 35  1  0  0  0  0
 36 31  1  0  0  0  0
 37 41  1  0  0  0  0
 39 40  1  0  0  0  0
 40 43  1  0  0  0  0
 41 39  2  0  0  0  0
 41 44  1  0  0  0  0
 42 43  1  0  0  0  0
 43 38  1  0  0  0  0
 44 42  2  0  0  0  0
M  END
>  <MODEL>
9

>  <REMARK>
 VINA RESULT:      -7.9      4.848     10.293
  Name = 
  13 active torsions:
  status: ('A' for Active; 'I' for Inactive)
    1  A    between atoms: C_6  and  C_9
    2  A    between atoms: O_7  and  C_38
    3  A    between atoms: O_7  and  C_39
    4  A    between atoms: N_8  and  C_9
    5  A    between atoms: N_8  and  C_27
    6  A    between atoms: C_15  and  C_33
    7  A    between atoms: C_16  and  C_30
    8  A    between atoms: C_16  and  N_41
    9  A    between atoms: C_21  and  N_41
   10  A    between atoms: C_24  and  C_30
   11  A    between atoms: C_24  and  C_37
   12  A    between atoms: C_27  and  C_43
   13  A    between atoms: C_33  and  N_41
                            x       y       z     vdW  Elec       q    Type
                         _______ _______ _______ _____ _____    ______ ____

>  <TORSDO>
F 13

$$$$
