=
 OpenBabel11032420313D

 33 38  0  0  1  0  0  0  0  0999 V2000
  180.3280  176.6410  136.3660 C   0  0  0  0  0  0  0  0  0  0  0  0
  181.5190  180.8730  138.6490 C   0  0  0  0  0  2  0  0  0  0  0  0
  181.5550  178.5870  139.5370 N   0  0  0  0  0  0  0  0  0  0  0  0
  179.2680  176.8330  138.5400 C   0  0  0  0  0  3  0  0  0  0  0  0
  180.6220  179.6240  136.2540 C   0  0  2  0  0  3  0  0  0  0  0  0
  178.9310  175.4790  138.4980 C   0  0  0  0  0  3  0  0  0  0  0  0
  181.1120  179.4110  138.6450 C   0  0  0  0  0  0  0  0  0  0  0  0
  181.2860  182.9810  137.5660 O   0  0  0  0  0  1  0  0  0  0  0  0
  179.2780  174.7080  137.3890 C   0  0  0  0  0  3  0  0  0  0  0  0
  179.9770  177.4320  137.4890 C   0  0  0  0  0  0  0  0  0  0  0  0
  179.9690  175.2900  136.3250 C   0  0  0  0  0  3  0  0  0  0  0  0
  181.2170  177.3160  134.9640 S   0  0  0  0  0  0  0  0  0  0  0  0
  179.3080  181.9870  138.3840 C   0  0  0  0  0  1  0  0  0  0  0  0
  180.1840  178.9380  137.5520 C   0  0  2  0  0  3  0  0  0  0  0  0
  180.4180  181.1390  136.3270 C   0  0  0  0  0  2  0  0  0  0  0  0
  179.8390  178.9160  134.7810 S   0  0  0  0  0  0  0  0  0  0  0  0
  180.6540  181.7490  137.7240 C   0  0  2  0  0  0  0  0  0  0  0  0
  182.6700  178.5810  143.0080 C   0  0  0  0  0  3  0  0  0  0  0  0
  181.8860  178.6020  141.9260 C   0  0  0  0  0  3  0  0  0  0  0  0
  184.0900  177.2020  139.4060 C   0  0  0  0  0  1  0  0  0  0  0  0
  182.4690  178.9660  140.5900 C   0  0  1  0  0  3  0  0  0  0  0  0
  183.8600  178.3180  140.4110 C   0  0  2  0  0  0  0  0  0  0  0  0
  185.0210  179.2740  140.5600 C   0  0  0  0  0  2  0  0  0  0  0  0
  184.7610  178.2360  141.6470 C   0  0  1  0  0  3  0  0  0  0  0  0
  184.1340  178.9160  142.8750 C   0  0  2  0  0  3  0  0  0  0  0  0
  186.3150  177.9210  146.4390 C   0  0  0  0  0  3  0  0  0  0  0  0
  184.8810  178.5780  144.1250 C   0  0  0  0  0  0  0  0  0  0  0  0
  186.8550  177.6270  145.1830 C   0  0  0  0  0  0  0  0  0  0  0  0
  186.1300  177.9590  144.0260 C   0  0  0  0  0  3  0  0  0  0  0  0
  185.0670  178.5390  146.5450 C   0  0  0  0  0  3  0  0  0  0  0  0
  184.3490  178.8680  145.3910 C   0  0  0  0  0  3  0  0  0  0  0  0
  188.1060  177.0080  145.1120 O   0  0  0  0  0  0  0  0  0  0  0  0
  189.1640  177.3100  146.0110 C   0  0  0  0  0  1  0  0  0  0  0  0
  1 10  1  0  0  0  0
  5 15  1  1  0  0  0
  5 14  1  0  0  0  0
  6  4  1  0  0  0  0
  7  2  1  0  0  0  0
  7  3  2  0  0  0  0
  8 17  1  0  0  0  0
  9  6  2  0  0  0  0
 10  4  2  0  0  0  0
 11  1  2  0  0  0  0
 11  9  1  0  0  0  0
 12  1  1  0  0  0  0
 14 10  1  6  0  0  0
 14  7  1  0  0  0  0
 15 17  1  0  0  0  0
 16 12  1  0  0  0  0
 16  5  1  0  0  0  0
 17 13  1  1  0  0  0
 17  2  1  0  0  0  0
 19 18  2  0  0  0  0
 21  3  1  6  0  0  0
 21 19  1  0  0  0  0
 22 20  1  6  0  0  0
 22 23  1  0  0  0  0
 22 21  1  0  0  0  0
 22 24  1  0  0  0  0
 24 23  1  6  0  0  0
 24 25  1  0  0  0  0
 25 18  1  0  0  0  0
 25 27  1  1  0  0  0
 26 30  1  0  0  0  0
 27 31  1  0  0  0  0
 28 26  2  0  0  0  0
 29 27  2  0  0  0  0
 29 28  1  0  0  0  0
 31 30  2  0  0  0  0
 32 28  1  0  0  0  0
 32 33  1  0  0  0  0
M  END
>  <MODEL>
1

>  <REMARK>
 VINA RESULT:      -7.8      0.000      0.000
  Name = 
  3 active torsions:
  status: ('A' for Active; 'I' for Inactive)
    1  A    between atoms: N_6  and  C_12
    2  A    between atoms: C_8  and  C_23
    3  A    between atoms: C_10  and  O_22
                            x       y       z     vdW  Elec       q    Type
                         _______ _______ _______ _____ _____    ______ ____

>  <TORSDO>
F 3

$$$$
=
 OpenBabel11032420313D

 33 38  0  0  1  0  0  0  0  0999 V2000
  189.4730  176.5750  135.9570 C   0  0  0  0  0  0  0  0  0  0  0  0
  186.5800  178.5820  139.4410 C   0  0  0  0  0  2  0  0  0  0  0  0
  188.6160  177.2440  139.7210 N   0  0  0  0  0  0  0  0  0  0  0  0
  188.9020  174.9820  137.6960 C   0  0  0  0  0  3  0  0  0  0  0  0
  187.0530  178.2000  136.6610 C   0  0  2  0  0  3  0  0  0  0  0  0
  189.8910  174.1140  137.2300 C   0  0  0  0  0  3  0  0  0  0  0  0
  187.6290  177.5950  138.9640 C   0  0  0  0  0  0  0  0  0  0  0  0
  184.5840  179.7540  138.8800 O   0  0  0  0  0  1  0  0  0  0  0  0
  190.6630  174.4670  136.1230 C   0  0  0  0  0  3  0  0  0  0  0  0
  188.6830  176.2230  137.0800 C   0  0  0  0  0  0  0  0  0  0  0  0
  190.4490  175.6910  135.4870 C   0  0  0  0  0  3  0  0  0  0  0  0
  189.2590  178.1280  135.0900 S   0  0  0  0  0  0  0  0  0  0  0  0
  184.4830  177.3980  138.8070 C   0  0  0  0  0  1  0  0  0  0  0  0
  187.4980  177.0450  137.5640 C   0  0  2  0  0  3  0  0  0  0  0  0
  185.6510  178.6910  137.0330 C   0  0  0  0  0  2  0  0  0  0  0  0
  187.1730  177.8050  134.8970 S   0  0  0  0  0  0  0  0  0  0  0  0
  185.3310  178.6290  138.5410 C   0  0  2  0  0  0  0  0  0  0  0  0
  187.8250  177.4030  143.2760 C   0  0  0  0  0  3  0  0  0  0  0  0
  187.6960  177.3070  141.9490 C   0  0  0  0  0  3  0  0  0  0  0  0
  191.0290  176.2560  140.9720 C   0  0  0  0  0  1  0  0  0  0  0  0
  188.8180  177.7550  141.0580 C   0  0  1  0  0  3  0  0  0  0  0  0
  190.1820  177.3230  141.6430 C   0  0  2  0  0  0  0  0  0  0  0  0
  190.9740  178.4430  142.2770 C   0  0  0  0  0  2  0  0  0  0  0  0
  190.3410  177.3770  143.1660 C   0  0  1  0  0  3  0  0  0  0  0  0
  189.0990  177.9550  143.8640 C   0  0  2  0  0  3  0  0  0  0  0  0
  189.3020  177.3000  148.1040 C   0  0  0  0  0  3  0  0  0  0  0  0
  189.1530  177.7310  145.3410 C   0  0  0  0  0  0  0  0  0  0  0  0
  190.4540  177.1760  147.3210 C   0  0  0  0  0  0  0  0  0  0  0  0
  190.3720  177.3940  145.9360 C   0  0  0  0  0  3  0  0  0  0  0  0
  188.0810  177.6360  147.5160 C   0  0  0  0  0  3  0  0  0  0  0  0
  188.0040  177.8520  146.1380 C   0  0  0  0  0  3  0  0  0  0  0  0
  191.6600  176.8380  147.9400 O   0  0  0  0  0  0  0  0  0  0  0  0
  192.4320  175.7100  147.5520 C   0  0  0  0  0  1  0  0  0  0  0  0
  1 10  1  0  0  0  0
  5 15  1  1  0  0  0
  5 14  1  0  0  0  0
  6  4  1  0  0  0  0
  7  2  1  0  0  0  0
  7  3  2  0  0  0  0
  9  6  2  0  0  0  0
 10  4  2  0  0  0  0
 11  1  2  0  0  0  0
 11  9  1  0  0  0  0
 12  1  1  0  0  0  0
 14 10  1  6  0  0  0
 14  7  1  0  0  0  0
 15 17  1  0  0  0  0
 16 12  1  0  0  0  0
 16  5  1  0  0  0  0
 17 13  1  1  0  0  0
 17  8  1  0  0  0  0
 17  2  1  0  0  0  0
 18 25  1  0  0  0  0
 19 18  2  0  0  0  0
 21  3  1  6  0  0  0
 21 22  1  0  0  0  0
 21 19  1  0  0  0  0
 22 20  1  6  0  0  0
 22 23  1  0  0  0  0
 22 24  1  0  0  0  0
 24 23  1  6  0  0  0
 24 25  1  0  0  0  0
 25 27  1  1  0  0  0
 27 29  2  0  0  0  0
 27 31  1  0  0  0  0
 28 32  1  0  0  0  0
 28 26  2  0  0  0  0
 29 28  1  0  0  0  0
 30 26  1  0  0  0  0
 31 30  2  0  0  0  0
 33 32  1  0  0  0  0
M  END
>  <MODEL>
2

>  <REMARK>
 VINA RESULT:      -6.4      4.561      6.841
  Name = 
  3 active torsions:
  status: ('A' for Active; 'I' for Inactive)
    1  A    between atoms: N_6  and  C_12
    2  A    between atoms: C_8  and  C_23
    3  A    between atoms: C_10  and  O_22
                            x       y       z     vdW  Elec       q    Type
                         _______ _______ _______ _____ _____    ______ ____

>  <TORSDO>
F 3

$$$$
=
 OpenBabel11032420313D

 33 38  0  0  1  0  0  0  0  0999 V2000
  183.7200  177.9150  137.8020 C   0  0  0  0  0  0  0  0  0  0  0  0
  187.9470  177.3170  140.3140 C   0  0  0  0  0  2  0  0  0  0  0  0
  185.7400  177.9730  141.1580 N   0  0  0  0  0  0  0  0  0  0  0  0
  184.1800  179.7910  139.2700 C   0  0  0  0  0  3  0  0  0  0  0  0
  186.6370  177.2180  137.7890 C   0  0  2  0  0  3  0  0  0  0  0  0
  182.8720  180.2470  139.1020 C   0  0  0  0  0  3  0  0  0  0  0  0
  186.5420  177.8650  140.1510 C   0  0  0  0  0  0  0  0  0  0  0  0
  189.9860  176.7720  139.2100 O   0  0  0  0  0  1  0  0  0  0  0  0
  181.9910  179.5490  138.2760 C   0  0  0  0  0  3  0  0  0  0  0  0
  184.6220  178.6200  138.6380 C   0  0  0  0  0  0  0  0  0  0  0  0
  182.4170  178.3910  137.6250 C   0  0  0  0  0  3  0  0  0  0  0  0
  184.1930  176.4200  136.9350 S   0  0  0  0  0  0  0  0  0  0  0  0
  189.2750  179.0180  139.0730 C   0  0  0  0  0  1  0  0  0  0  0  0
  186.0970  178.2690  138.7650 C   0  0  2  0  0  3  0  0  0  0  0  0
  188.1670  177.2350  137.7410 C   0  0  0  0  0  2  0  0  0  0  0  0
  185.9170  177.3550  136.1330 S   0  0  0  0  0  0  0  0  0  0  0  0
  188.8450  177.5620  139.0870 C   0  0  2  0  0  0  0  0  0  0  0  0
  188.1430  177.4180  143.8430 C   0  0  0  0  0  3  0  0  0  0  0  0
  187.5830  177.4730  142.6300 C   0  0  0  0  0  3  0  0  0  0  0  0
  184.9330  179.8930  143.1650 C   0  0  0  0  0  1  0  0  0  0  0  0
  186.0910  177.5770  142.5030 C   0  0  1  0  0  3  0  0  0  0  0  0
  185.5220  178.5500  143.5610 C   0  0  2  0  0  0  0  0  0  0  0  0
  184.8240  177.8780  144.7200 C   0  0  0  0  0  2  0  0  0  0  0  0
  186.1780  178.5430  144.9450 C   0  0  1  0  0  3  0  0  0  0  0  0
  187.2700  177.4680  145.0710 C   0  0  2  0  0  3  0  0  0  0  0  0
  189.6550  178.0130  148.6010 C   0  0  0  0  0  3  0  0  0  0  0  0
  188.0870  177.6650  146.3070 C   0  0  0  0  0  0  0  0  0  0  0  0
  190.2300  177.4790  147.4430 C   0  0  0  0  0  0  0  0  0  0  0  0
  189.4380  177.3060  146.2970 C   0  0  0  0  0  3  0  0  0  0  0  0
  188.3060  178.3740  148.6180 C   0  0  0  0  0  3  0  0  0  0  0  0
  187.5210  178.2010  147.4750 C   0  0  0  0  0  3  0  0  0  0  0  0
  191.5830  177.1280  147.4590 O   0  0  0  0  0  0  0  0  0  0  0  0
  192.0490  175.8480  147.0540 C   0  0  0  0  0  1  0  0  0  0  0  0
  1 10  1  0  0  0  0
  5 15  1  6  0  0  0
  5 14  1  0  0  0  0
  6  4  1  0  0  0  0
  7  2  1  0  0  0  0
  7  3  2  0  0  0  0
  9  6  2  0  0  0  0
 10  4  2  0  0  0  0
 11  1  2  0  0  0  0
 11  9  1  0  0  0  0
 12  1  1  0  0  0  0
 14 10  1  1  0  0  0
 14  7  1  0  0  0  0
 15 17  1  0  0  0  0
 16 12  1  0  0  0  0
 16  5  1  0  0  0  0
 17 13  1  6  0  0  0
 17  8  1  0  0  0  0
 17  2  1  0  0  0  0
 18 25  1  0  0  0  0
 19 18  2  0  0  0  0
 21  3  1  6  0  0  0
 21 19  1  0  0  0  0
 21 22  1  0  0  0  0
 22 20  1  6  0  0  0
 22 23  1  0  0  0  0
 22 24  1  0  0  0  0
 24 23  1  1  0  0  0
 24 25  1  0  0  0  0
 25 27  1  1  0  0  0
 26 30  1  0  0  0  0
 27 31  1  0  0  0  0
 28 32  1  0  0  0  0
 28 26  2  0  0  0  0
 29 27  2  0  0  0  0
 29 28  1  0  0  0  0
 31 30  2  0  0  0  0
 33 32  1  0  0  0  0
M  END
>  <MODEL>
3

>  <REMARK>
 VINA RESULT:      -6.1      3.385      5.746
  Name = 
  3 active torsions:
  status: ('A' for Active; 'I' for Inactive)
    1  A    between atoms: N_6  and  C_12
    2  A    between atoms: C_8  and  C_23
    3  A    between atoms: C_10  and  O_22
                            x       y       z     vdW  Elec       q    Type
                         _______ _______ _______ _____ _____    ______ ____

>  <TORSDO>
F 3

$$$$
=
 OpenBabel11032420313D

 33 38  0  0  1  0  0  0  0  0999 V2000
  189.0280  176.6230  136.1500 C   0  0  0  0  0  0  0  0  0  0  0  0
  191.8700  176.5160  140.2060 C   0  0  0  0  0  2  0  0  0  0  0  0
  189.4820  177.0430  140.0190 N   0  0  0  0  0  0  0  0  0  0  0  0
  188.7520  178.6140  137.5090 C   0  0  0  0  0  3  0  0  0  0  0  0
  191.7220  176.1620  137.3860 C   0  0  2  0  0  3  0  0  0  0  0  0
  187.6080  178.9540  136.7840 C   0  0  0  0  0  3  0  0  0  0  0  0
  190.6320  176.9400  139.4380 C   0  0  0  0  0  0  0  0  0  0  0  0
  194.2060  176.0720  140.0800 O   0  0  0  0  0  1  0  0  0  0  0  0
  187.1810  178.1400  135.7350 C   0  0  0  0  0  3  0  0  0  0  0  0
  189.4710  177.4470  137.2160 C   0  0  0  0  0  0  0  0  0  0  0  0
  187.8930  176.9820  135.4170 C   0  0  0  0  0  3  0  0  0  0  0  0
  189.8880  175.1220  135.6850 S   0  0  0  0  0  0  0  0  0  0  0  0
  193.5070  178.2420  139.4700 C   0  0  0  0  0  1  0  0  0  0  0  0
  190.7780  177.2230  137.9620 C   0  0  2  0  0  3  0  0  0  0  0  0
  193.1340  176.3000  137.9630 C   0  0  0  0  0  2  0  0  0  0  0  0
  191.7420  176.1430  135.5750 S   0  0  0  0  0  0  0  0  0  0  0  0
  193.1800  176.7600  139.4350 C   0  0  2  0  0  0  0  0  0  0  0  0
  190.5870  176.8530  143.4870 C   0  0  0  0  0  3  0  0  0  0  0  0
  190.5760  176.7890  142.1520 C   0  0  0  0  0  3  0  0  0  0  0  0
  187.8150  179.0000  141.3430 C   0  0  0  0  0  1  0  0  0  0  0  0
  189.2660  176.7570  141.4190 C   0  0  1  0  0  3  0  0  0  0  0  0
  188.2600  177.7380  142.0620 C   0  0  2  0  0  0  0  0  0  0  0  0
  187.1820  177.0760  142.8900 C   0  0  0  0  0  2  0  0  0  0  0  0
  188.2840  177.8670  143.5880 C   0  0  1  0  0  3  0  0  0  0  0  0
  189.2830  176.8990  144.2430 C   0  0  2  0  0  3  0  0  0  0  0  0
  189.9610  177.8480  148.3770 C   0  0  0  0  0  3  0  0  0  0  0  0
  189.5040  177.2370  145.6820 C   0  0  0  0  0  0  0  0  0  0  0  0
  190.9590  177.2090  147.6330 C   0  0  0  0  0  0  0  0  0  0  0  0
  190.7230  176.9050  146.2820 C   0  0  0  0  0  3  0  0  0  0  0  0
  188.7420  178.1820  147.7840 C   0  0  0  0  0  3  0  0  0  0  0  0
  188.5110  177.8780  146.4390 C   0  0  0  0  0  3  0  0  0  0  0  0
  192.1670  176.8880  148.2560 O   0  0  0  0  0  0  0  0  0  0  0  0
  192.8040  175.6280  148.0930 C   0  0  0  0  0  1  0  0  0  0  0  0
  1 10  1  0  0  0  0
  5 14  1  0  0  0  0
  5 15  1  1  0  0  0
  6  4  1  0  0  0  0
  7  3  2  0  0  0  0
  7  2  1  0  0  0  0
  9  6  2  0  0  0  0
 10  4  2  0  0  0  0
 11  9  1  0  0  0  0
 11  1  2  0  0  0  0
 12  1  1  0  0  0  0
 14 10  1  6  0  0  0
 14  7  1  0  0  0  0
 15 17  1  0  0  0  0
 16 12  1  0  0  0  0
 16  5  1  0  0  0  0
 17 13  1  1  0  0  0
 17  8  1  0  0  0  0
 17  2  1  0  0  0  0
 18 25  1  0  0  0  0
 19 18  2  0  0  0  0
 21  3  1  6  0  0  0
 21 22  1  0  0  0  0
 21 19  1  0  0  0  0
 22 20  1  6  0  0  0
 22 23  1  0  0  0  0
 22 24  1  0  0  0  0
 24 23  1  1  0  0  0
 24 25  1  0  0  0  0
 25 27  1  1  0  0  0
 27 29  2  0  0  0  0
 27 31  1  0  0  0  0
 28 32  1  0  0  0  0
 28 26  2  0  0  0  0
 29 28  1  0  0  0  0
 30 26  1  0  0  0  0
 31 30  2  0  0  0  0
 33 32  1  0  0  0  0
M  END
>  <MODEL>
4

>  <REMARK>
 VINA RESULT:      -6.0      6.721      8.800
  Name = 
  3 active torsions:
  status: ('A' for Active; 'I' for Inactive)
    1  A    between atoms: N_6  and  C_12
    2  A    between atoms: C_8  and  C_23
    3  A    between atoms: C_10  and  O_22
                            x       y       z     vdW  Elec       q    Type
                         _______ _______ _______ _____ _____    ______ ____

>  <TORSDO>
F 3

$$$$
=
 OpenBabel11032420313D

 33 38  0  0  1  0  0  0  0  0999 V2000
  181.4730  179.1020  138.2230 C   0  0  0  0  0  0  0  0  0  0  0  0
  181.3830  179.4720  143.1620 C   0  0  0  0  0  2  0  0  0  0  0  0
  183.2200  178.7410  141.7110 N   0  0  0  0  0  0  0  0  0  0  0  0
  182.3210  177.1010  139.3030 C   0  0  0  0  0  3  0  0  0  0  0  0
  179.9610  179.7990  140.7190 C   0  0  2  0  0  3  0  0  0  0  0  0
  182.8410  176.6610  138.0840 C   0  0  0  0  0  3  0  0  0  0  0  0
  181.9520  178.9400  141.8600 C   0  0  0  0  0  0  0  0  0  0  0  0
  179.4080  180.1150  144.3280 O   0  0  0  0  0  1  0  0  0  0  0  0
  182.6680  177.4310  136.9340 C   0  0  0  0  0  3  0  0  0  0  0  0
  181.6420  178.3250  139.3970 C   0  0  0  0  0  0  0  0  0  0  0  0
  181.9810  178.6440  137.0040 C   0  0  0  0  0  3  0  0  0  0  0  0
  180.6060  180.6700  138.2350 S   0  0  0  0  0  0  0  0  0  0  0  0
  179.4990  177.8910  143.5460 C   0  0  0  0  0  1  0  0  0  0  0  0
  180.9900  178.6640  140.7290 C   0  0  2  0  0  3  0  0  0  0  0  0
  179.1040  179.7860  141.9870 C   0  0  0  0  0  2  0  0  0  0  0  0
  178.9380  179.8120  139.2240 S   0  0  0  0  0  0  0  0  0  0  0  0
  179.8520  179.3390  143.2600 C   0  0  2  0  0  0  0  0  0  0  0  0
  184.7590  178.1150  144.9560 C   0  0  0  0  0  3  0  0  0  0  0  0
  183.8480  178.2540  143.9880 C   0  0  0  0  0  3  0  0  0  0  0  0
  185.8910  177.8800  141.0120 C   0  0  0  0  0  1  0  0  0  0  0  0
  184.1970  179.0140  142.7410 C   0  0  1  0  0  3  0  0  0  0  0  0
  185.6330  178.6730  142.2810 C   0  0  2  0  0  0  0  0  0  0  0  0
  186.6530  179.7520  142.5620 C   0  0  0  0  0  2  0  0  0  0  0  0
  186.6870  178.4600  143.3720 C   0  0  1  0  0  3  0  0  0  0  0  0
  186.1300  178.7170  144.7830 C   0  0  2  0  0  3  0  0  0  0  0  0
  188.8680  177.3000  147.7740 C   0  0  0  0  0  3  0  0  0  0  0  0
  187.0720  178.2280  145.8360 C   0  0  0  0  0  0  0  0  0  0  0  0
  189.2380  177.2900  146.4250 C   0  0  0  0  0  0  0  0  0  0  0  0
  188.3320  177.7560  145.4580 C   0  0  0  0  0  3  0  0  0  0  0  0
  187.6100  177.7700  148.1580 C   0  0  0  0  0  3  0  0  0  0  0  0
  186.7120  178.2340  147.1930 C   0  0  0  0  0  3  0  0  0  0  0  0
  190.5040  176.8130  146.0740 O   0  0  0  0  0  0  0  0  0  0  0  0
  191.1010  177.0760  144.8120 C   0  0  0  0  0  1  0  0  0  0  0  0
  1 12  1  0  0  0  0
  1 10  1  0  0  0  0
  2 17  1  0  0  0  0
  3  7  2  0  0  0  0
  4 10  2  0  0  0  0
  5 14  1  0  0  0  0
  5 15  1  1  0  0  0
  6  4  1  0  0  0  0
  7  2  1  0  0  0  0
  9 11  1  0  0  0  0
  9  6  2  0  0  0  0
 11  1  2  0  0  0  0
 12 16  1  0  0  0  0
 14 10  1  6  0  0  0
 14  7  1  0  0  0  0
 15 17  1  0  0  0  0
 16  5  1  0  0  0  0
 17 13  1  1  0  0  0
 17  8  1  0  0  0  0
 19 18  2  0  0  0  0
 21  3  1  6  0  0  0
 21 19  1  0  0  0  0
 22 20  1  6  0  0  0
 22 23  1  0  0  0  0
 22 21  1  0  0  0  0
 22 24  1  0  0  0  0
 24 23  1  6  0  0  0
 24 25  1  0  0  0  0
 25 18  1  0  0  0  0
 25 27  1  1  0  0  0
 26 30  1  0  0  0  0
 27 31  1  0  0  0  0
 28 26  2  0  0  0  0
 29 27  2  0  0  0  0
 29 28  1  0  0  0  0
 31 30  2  0  0  0  0
 32 28  1  0  0  0  0
 33 32  1  0  0  0  0
M  END
>  <MODEL>
5

>  <REMARK>
 VINA RESULT:      -5.9      2.665      3.852
  Name = 
  3 active torsions:
  status: ('A' for Active; 'I' for Inactive)
    1  A    between atoms: N_6  and  C_12
    2  A    between atoms: C_8  and  C_23
    3  A    between atoms: C_10  and  O_22
                            x       y       z     vdW  Elec       q    Type
                         _______ _______ _______ _____ _____    ______ ____

>  <TORSDO>
F 3

$$$$
=
 OpenBabel11032420313D

 33 38  0  0  1  0  0  0  0  0999 V2000
  181.0960  178.9260  142.7770 C   0  0  0  0  0  0  0  0  0  0  0  0
  180.4670  178.7260  137.8680 C   0  0  0  0  0  2  0  0  0  0  0  0
  181.9970  177.4230  139.2740 N   0  0  0  0  0  0  0  0  0  0  0  0
  183.2070  179.0030  141.5840 C   0  0  0  0  0  3  0  0  0  0  0  0
  179.6830  179.9250  140.3270 C   0  0  2  0  0  3  0  0  0  0  0  0
  183.8920  178.7550  142.7750 C   0  0  0  0  0  3  0  0  0  0  0  0
  181.2600  178.4750  139.1370 C   0  0  0  0  0  0  0  0  0  0  0  0
  178.9710  180.1980  136.7420 O   0  0  0  0  0  1  0  0  0  0  0  0
  183.1850  178.6050  143.9680 C   0  0  0  0  0  3  0  0  0  0  0  0
  181.8070  179.0820  141.5610 C   0  0  0  0  0  0  0  0  0  0  0  0
  181.7920  178.6970  143.9680 C   0  0  0  0  0  3  0  0  0  0  0  0
  179.3090  179.0280  142.8560 S   0  0  0  0  0  0  0  0  0  0  0  0
  181.0520  181.0990  137.3950 C   0  0  0  0  0  1  0  0  0  0  0  0
  181.1500  179.4890  140.2510 C   0  0  2  0  0  3  0  0  0  0  0  0
  179.2560  180.6720  139.0610 C   0  0  0  0  0  2  0  0  0  0  0  0
  179.3060  180.8780  141.8210 S   0  0  0  0  0  0  0  0  0  0  0  0
  179.9170  180.1610  137.7640 C   0  0  2  0  0  0  0  0  0  0  0  0
  183.8110  174.7490  137.5860 C   0  0  0  0  0  3  0  0  0  0  0  0
  183.5350  175.8910  138.2230 C   0  0  0  0  0  3  0  0  0  0  0  0
  180.3600  175.0950  139.7910 C   0  0  0  0  0  1  0  0  0  0  0  0
  182.1220  176.3990  138.2610 C   0  0  1  0  0  3  0  0  0  0  0  0
  181.1320  175.2340  138.4900 C   0  0  2  0  0  0  0  0  0  0  0  0
  180.3640  174.8140  137.2590 C   0  0  0  0  0  2  0  0  0  0  0  0
  181.4510  173.8990  137.8110 C   0  0  1  0  0  3  0  0  0  0  0  0
  182.7010  173.9790  136.9180 C   0  0  2  0  0  3  0  0  0  0  0  0
  184.0650  170.0890  135.7130 C   0  0  0  0  0  3  0  0  0  0  0  0
  183.1600  172.6190  136.5030 C   0  0  0  0  0  0  0  0  0  0  0  0
  184.9530  171.1690  135.7240 C   0  0  0  0  0  0  0  0  0  0  0  0
  184.4920  172.4350  136.1210 C   0  0  0  0  0  3  0  0  0  0  0  0
  182.7320  170.2650  136.0930 C   0  0  0  0  0  3  0  0  0  0  0  0
  182.2790  171.5260  136.4880 C   0  0  0  0  0  3  0  0  0  0  0  0
  186.2790  170.9590  135.3380 O   0  0  0  0  0  0  0  0  0  0  0  0
  187.3380  171.8220  135.7290 C   0  0  0  0  0  1  0  0  0  0  0  0
  1 12  1  0  0  0  0
  1 11  1  0  0  0  0
  2  7  1  0  0  0  0
  4  6  2  0  0  0  0
  5 15  1  6  0  0  0
  5 16  1  0  0  0  0
  6  9  1  0  0  0  0
  7  3  2  0  0  0  0
  8 17  1  0  0  0  0
 10  4  1  0  0  0  0
 10  1  2  0  0  0  0
 11  9  2  0  0  0  0
 14  7  1  6  0  0  0
 14  5  1  0  0  0  0
 14 10  1  0  0  0  0
 16 12  1  0  0  0  0
 17 13  1  6  0  0  0
 17  2  1  0  0  0  0
 17 15  1  0  0  0  0
 18 19  2  0  0  0  0
 19 21  1  0  0  0  0
 21 22  1  0  0  0  0
 21  3  1  1  0  0  0
 22 20  1  1  0  0  0
 23 22  1  0  0  0  0
 24 23  1  6  0  0  0
 24 22  1  0  0  0  0
 25 27  1  1  0  0  0
 25 18  1  0  0  0  0
 25 24  1  0  0  0  0
 26 28  2  0  0  0  0
 26 30  1  0  0  0  0
 28 29  1  0  0  0  0
 29 27  2  0  0  0  0
 30 31  2  0  0  0  0
 31 27  1  0  0  0  0
 32 28  1  0  0  0  0
 32 33  1  0  0  0  0
M  END
>  <MODEL>
6

>  <REMARK>
 VINA RESULT:      -5.8      4.160      7.530
  Name = 
  3 active torsions:
  status: ('A' for Active; 'I' for Inactive)
    1  A    between atoms: N_6  and  C_12
    2  A    between atoms: C_8  and  C_23
    3  A    between atoms: C_10  and  O_22
                            x       y       z     vdW  Elec       q    Type
                         _______ _______ _______ _____ _____    ______ ____

>  <TORSDO>
F 3

$$$$
=
 OpenBabel11032420313D

 33 38  0  0  1  0  0  0  0  0999 V2000
  188.7730  176.9360  141.9000 C   0  0  0  0  0  0  0  0  0  0  0  0
  184.1390  178.4840  142.7160 C   0  0  0  0  0  2  0  0  0  0  0  0
  185.2980  178.1690  140.5780 N   0  0  0  0  0  0  0  0  0  0  0  0
  188.2470  178.9410  140.6390 C   0  0  0  0  0  3  0  0  0  0  0  0
  186.5940  177.5990  143.8520 C   0  0  2  0  0  3  0  0  0  0  0  0
  189.3930  178.7570  139.8630 C   0  0  0  0  0  3  0  0  0  0  0  0
  185.3810  178.3390  141.8560 C   0  0  0  0  0  0  0  0  0  0  0  0
  183.3020  178.8030  144.9230 O   0  0  0  0  0  1  0  0  0  0  0  0
  190.2360  177.6730  140.1100 C   0  0  0  0  0  3  0  0  0  0  0  0
  187.9130  178.0360  141.6570 C   0  0  0  0  0  0  0  0  0  0  0  0
  189.9280  176.7700  141.1300 C   0  0  0  0  0  3  0  0  0  0  0  0
  188.4440  175.7340  143.1880 S   0  0  0  0  0  0  0  0  0  0  0  0
  184.7280  180.4830  144.0780 C   0  0  0  0  0  1  0  0  0  0  0  0
  186.7250  178.3840  142.5420 C   0  0  2  0  0  3  0  0  0  0  0  0
  185.6270  178.2870  144.8190 C   0  0  0  0  0  2  0  0  0  0  0  0
  188.1920  177.2620  144.6360 S   0  0  0  0  0  0  0  0  0  0  0  0
  184.4370  178.9940  144.1380 C   0  0  2  0  0  0  0  0  0  0  0  0
  182.3880  179.6630  138.9690 C   0  0  0  0  0  3  0  0  0  0  0  0
  183.3910  179.4370  139.8230 C   0  0  0  0  0  3  0  0  0  0  0  0
  185.6070  177.3850  137.8110 C   0  0  0  0  0  1  0  0  0  0  0  0
  184.0440  178.0850  139.8630 C   0  0  1  0  0  3  0  0  0  0  0  0
  184.2290  177.5290  138.4330 C   0  0  2  0  0  0  0  0  0  0  0  0
  183.2550  176.4360  138.0550 C   0  0  0  0  0  2  0  0  0  0  0  0
  183.1160  177.8150  137.4190 C   0  0  1  0  0  3  0  0  0  0  0  0
  181.9270  178.5600  138.0500 C   0  0  2  0  0  3  0  0  0  0  0  0
  179.2610  180.1070  135.0590 C   0  0  0  0  0  3  0  0  0  0  0  0
  180.9970  179.0830  137.0030 C   0  0  0  0  0  0  0  0  0  0  0  0
  179.9320  180.9830  135.9180 C   0  0  0  0  0  0  0  0  0  0  0  0
  180.8010  180.4620  136.8910 C   0  0  0  0  0  3  0  0  0  0  0  0
  179.4520  178.7270  135.1650 C   0  0  0  0  0  3  0  0  0  0  0  0
  180.3170  178.2140  136.1350 C   0  0  0  0  0  3  0  0  0  0  0  0
  179.7190  182.3570  135.7850 O   0  0  0  0  0  0  0  0  0  0  0  0
  180.6770  183.2300  135.2040 C   0  0  0  0  0  1  0  0  0  0  0  0
  1 12  1  0  0  0  0
  2 17  1  0  0  0  0
  3  7  2  0  0  0  0
  4 10  2  0  0  0  0
  5 16  1  0  0  0  0
  5 15  1  1  0  0  0
  6  9  2  0  0  0  0
  6  4  1  0  0  0  0
  7 14  1  0  0  0  0
  7  2  1  0  0  0  0
  9 11  1  0  0  0  0
 10  1  1  0  0  0  0
 11  1  2  0  0  0  0
 12 16  1  0  0  0  0
 14 10  1  6  0  0  0
 14  5  1  0  0  0  0
 17 13  1  6  0  0  0
 17 15  1  0  0  0  0
 17  8  1  0  0  0  0
 18 19  2  0  0  0  0
 19 21  1  0  0  0  0
 21  3  1  6  0  0  0
 22 20  1  6  0  0  0
 22 21  1  0  0  0  0
 23 22  1  0  0  0  0
 24 25  1  0  0  0  0
 24 23  1  1  0  0  0
 24 22  1  0  0  0  0
 25 27  1  6  0  0  0
 25 18  1  0  0  0  0
 26 30  2  0  0  0  0
 26 28  1  0  0  0  0
 28 29  2  0  0  0  0
 29 27  1  0  0  0  0
 30 31  1  0  0  0  0
 31 27  2  0  0  0  0
 32 28  1  0  0  0  0
 33 32  1  0  0  0  0
M  END
>  <MODEL>
7

>  <REMARK>
 VINA RESULT:      -5.8      3.749      9.138
  Name = 
  3 active torsions:
  status: ('A' for Active; 'I' for Inactive)
    1  A    between atoms: N_6  and  C_12
    2  A    between atoms: C_8  and  C_23
    3  A    between atoms: C_10  and  O_22
                            x       y       z     vdW  Elec       q    Type
                         _______ _______ _______ _____ _____    ______ ____

>  <TORSDO>
F 3

$$$$
=
 OpenBabel11032420313D

 33 38  0  0  1  0  0  0  0  0999 V2000
  181.4290  178.8180  142.8020 C   0  0  0  0  0  0  0  0  0  0  0  0
  180.5970  178.7420  137.9190 C   0  0  0  0  0  2  0  0  0  0  0  0
  182.2940  177.5270  139.2060 N   0  0  0  0  0  0  0  0  0  0  0  0
  183.4700  179.1200  141.5250 C   0  0  0  0  0  3  0  0  0  0  0  0
  179.8260  179.7780  140.4560 C   0  0  2  0  0  3  0  0  0  0  0  0
  184.2270  178.8890  142.6750 C   0  0  0  0  0  3  0  0  0  0  0  0
  181.4650  178.5150  139.1430 C   0  0  0  0  0  0  0  0  0  0  0  0
  178.9310  180.1190  136.9170 O   0  0  0  0  0  1  0  0  0  0  0  0
  183.5900  178.6360  143.8900 C   0  0  0  0  0  3  0  0  0  0  0  0
  182.0680  179.0780  141.5640 C   0  0  0  0  0  0  0  0  0  0  0  0
  182.1950  178.6060  143.9520 C   0  0  0  0  0  3  0  0  0  0  0  0
  179.6450  178.7610  142.9600 S   0  0  0  0  0  0  0  0  0  0  0  0
  180.9550  181.1730  137.5180 C   0  0  0  0  0  1  0  0  0  0  0  0
  181.3200  179.4750  140.3000 C   0  0  2  0  0  3  0  0  0  0  0  0
  179.2800  180.5310  139.2390 C   0  0  0  0  0  2  0  0  0  0  0  0
  179.4380  180.6400  142.0010 S   0  0  0  0  0  0  0  0  0  0  0  0
  179.9230  180.1260  137.8960 C   0  0  2  0  0  0  0  0  0  0  0  0
  184.2090  174.9960  137.4110 C   0  0  0  0  0  3  0  0  0  0  0  0
  183.8890  176.0980  138.0970 C   0  0  0  0  0  3  0  0  0  0  0  0
  180.7360  175.1230  139.6050 C   0  0  0  0  0  1  0  0  0  0  0  0
  182.4600  176.5550  138.1490 C   0  0  1  0  0  3  0  0  0  0  0  0
  181.5100  175.3480  138.3180 C   0  0  2  0  0  0  0  0  0  0  0  0
  180.7630  174.9580  137.0630 C   0  0  0  0  0  2  0  0  0  0  0  0
  181.8780  174.0560  137.5810 C   0  0  1  0  0  3  0  0  0  0  0  0
  183.1290  174.2200  136.7010 C   0  0  2  0  0  3  0  0  0  0  0  0
  184.5430  170.4010  135.3370 C   0  0  0  0  0  3  0  0  0  0  0  0
  183.6370  172.8960  136.2270 C   0  0  0  0  0  0  0  0  0  0  0  0
  183.1700  170.6590  135.3940 C   0  0  0  0  0  0  0  0  0  0  0  0
  182.7220  171.9120  135.8420 C   0  0  0  0  0  3  0  0  0  0  0  0
  185.4630  171.3790  135.7200 C   0  0  0  0  0  3  0  0  0  0  0  0
  185.0130  172.6260  136.1650 C   0  0  0  0  0  3  0  0  0  0  0  0
  182.2760  169.6580  135.0040 O   0  0  0  0  0  0  0  0  0  0  0  0
  180.8870  169.8970  134.8230 C   0  0  0  0  0  1  0  0  0  0  0  0
  1 12  1  0  0  0  0
  1 11  1  0  0  0  0
  2  7  1  0  0  0  0
  4 10  1  0  0  0  0
  4  6  2  0  0  0  0
  5 15  1  6  0  0  0
  5 16  1  0  0  0  0
  6  9  1  0  0  0  0
  7  3  2  0  0  0  0
  8 17  1  0  0  0  0
  9 11  2  0  0  0  0
 10  1  2  0  0  0  0
 14  7  1  6  0  0  0
 14  5  1  0  0  0  0
 14 10  1  0  0  0  0
 16 12  1  0  0  0  0
 17 13  1  6  0  0  0
 17  2  1  0  0  0  0
 17 15  1  0  0  0  0
 18 19  2  0  0  0  0
 19 21  1  0  0  0  0
 21 22  1  0  0  0  0
 21  3  1  1  0  0  0
 22 20  1  1  0  0  0
 23 22  1  0  0  0  0
 24 23  1  6  0  0  0
 24 22  1  0  0  0  0
 25 27  1  1  0  0  0
 25 18  1  0  0  0  0
 25 24  1  0  0  0  0
 26 28  2  0  0  0  0
 26 30  1  0  0  0  0
 28 29  1  0  0  0  0
 29 27  2  0  0  0  0
 30 31  2  0  0  0  0
 31 27  1  0  0  0  0
 32 28  1  0  0  0  0
 33 32  1  0  0  0  0
M  END
>  <MODEL>
8

>  <REMARK>
 VINA RESULT:      -5.4      4.320      7.894
  Name = 
  3 active torsions:
  status: ('A' for Active; 'I' for Inactive)
    1  A    between atoms: N_6  and  C_12
    2  A    between atoms: C_8  and  C_23
    3  A    between atoms: C_10  and  O_22
                            x       y       z     vdW  Elec       q    Type
                         _______ _______ _______ _____ _____    ______ ____

>  <TORSDO>
F 3

$$$$
