=
 OpenBabel11042410323D

 35 39  0  0  1  0  0  0  0  0999 V2000
  186.4260  177.9100  142.0980 S   0  0  0  0  0  0  0  0  0  0  0  0
  191.2660  177.0500  148.0970 O   0  0  0  0  0  0  0  0  0  0  0  0
  187.5430  177.5170  144.5510 N   0  0  0  0  0  0  0  0  0  0  0  0
  190.6970  176.5400  142.3930 C   0  0  0  0  0  3  0  0  0  0  0  0
  189.6990  177.3620  141.6700 C   0  0  0  0  0  0  0  0  0  0  0  0
  189.0590  178.4610  142.3320 N   0  0  0  0  0  2  0  0  0  0  0  0
  186.6490  178.2360  146.6270 C   0  0  0  0  0  2  0  0  0  0  0  0
  190.0970  177.0170  146.0370 C   0  0  0  0  0  0  0  0  0  0  0  0
  185.4630  178.6670  144.6140 C   0  0  0  0  0  0  0  0  0  0  0  0
  191.2150  176.6280  146.9110 C   0  0  0  0  0  0  0  0  0  0  0  0
  190.4030  177.5350  144.6560 C   0  0  0  0  0  2  0  0  0  0  0  0
  185.5690  178.7390  145.9710 N   0  0  0  0  0  0  0  0  0  0  0  0
  188.8810  177.1560  146.5890 C   0  0  0  0  0  3  0  0  0  0  0  0
  192.0580  174.9270  145.2700 C   0  0  0  0  0  2  0  0  0  0  0  0
  187.8150  179.0750  141.8730 C   0  0  0  0  0  2  0  0  0  0  0  0
  191.0250  176.5530  143.6920 C   0  0  0  0  0  0  0  0  0  0  0  0
  192.2500  175.7740  146.4330 N   0  0  0  0  0  2  0  0  0  0  0  0
  187.6720  177.6290  145.8970 C   0  0  0  0  0  0  0  0  0  0  0  0
  186.4760  178.0290  143.8870 C   0  0  1  0  0  3  0  0  0  0  0  0
  189.3890  177.1130  140.3850 C   0  0  0  0  0  3  0  0  0  0  0  0
  192.0590  175.6930  144.0740 O   0  0  0  0  0  0  0  0  0  0  0  0
  189.8920  176.0940  139.5590 O   0  0  0  0  0  0  0  0  0  0  0  0
  190.9360  176.2430  138.6080 C   0  0  0  0  0  1  0  0  0  0  0  0
  184.3260  179.2220  143.9440 N   0  0  0  0  0  2  0  0  0  0  0  0
  182.9560  178.8960  144.3080 C   0  0  0  0  0  2  0  0  0  0  0  0
  182.0760  178.8940  143.0740 C   0  0  0  0  0  2  0  0  0  0  0  0
  182.9100  178.8940  141.8850 N   0  0  0  0  0  2  0  0  0  0  0  0
  181.2510  178.9780  138.5170 C   0  0  0  0  0  2  0  0  0  0  0  0
  182.1330  178.2780  140.8230 C   0  0  1  0  0  3  0  0  0  0  0  0
  184.0280  177.2800  137.7490 C   0  0  0  0  0  1  0  0  0  0  0  0
  182.2980  180.0110  138.9080 C   0  0  1  0  0  3  0  0  0  0  0  0
  183.9940  177.9970  139.0840 C   0  0  2  0  0  3  0  0  0  0  0  0
  181.4250  179.3620  139.9840 C   0  0  1  0  0  3  0  0  0  0  0  0
  183.0020  177.3050  140.0200 C   0  0  0  0  0  2  0  0  0  0  0  0
  183.7550  179.5020  138.8760 C   0  0  0  0  0  2  0  0  0  0  0  0
  3 18  2  0  0  0  0
  4 16  2  0  0  0  0
  5  6  1  0  0  0  0
  5  4  1  0  0  0  0
  8 13  2  0  0  0  0
  8 10  1  0  0  0  0
  9 12  2  0  0  0  0
 10  2  2  0  0  0  0
 11  8  1  0  0  0  0
 12  7  1  0  0  0  0
 14 17  1  0  0  0  0
 15  1  1  0  0  0  0
 15  6  1  0  0  0  0
 16 21  1  0  0  0  0
 16 11  1  0  0  0  0
 17 10  1  0  0  0  0
 18 13  1  0  0  0  0
 18  7  1  0  0  0  0
 19  1  1  6  0  0  0
 19  3  1  0  0  0  0
 19  9  1  0  0  0  0
 20  5  2  0  0  0  0
 21 14  1  0  0  0  0
 22 20  1  0  0  0  0
 23 22  1  0  0  0  0
 24 25  1  0  0  0  0
 24  9  1  0  0  0  0
 26 25  1  0  0  0  0
 27 26  1  0  0  0  0
 29 27  1  1  0  0  0
 31 28  1  6  0  0  0
 31 33  1  0  0  0  0
 32 30  1  6  0  0  0
 32 34  1  0  0  0  0
 33 28  1  6  0  0  0
 33 29  1  0  0  0  0
 34 29  1  0  0  0  0
 35 31  1  0  0  0  0
 35 32  1  0  0  0  0
M  END
>  <MODEL>
1

>  <REMARK>
 VINA RESULT:      -8.4      0.000      0.000
  Name = 
  6 active torsions:
  status: ('A' for Active; 'I' for Inactive)
    1  A    between atoms: O_1  and  C_33
    2  A    between atoms: C_8  and  N_27
    3  A    between atoms: C_13  and  C_16
    4  A    between atoms: C_13  and  N_31
    5  A    between atoms: C_15  and  N_31
    6  A    between atoms: C_16  and  N_27
                            x       y       z     vdW  Elec       q    Type
                         _______ _______ _______ _____ _____    ______ ____

>  <TORSDO>
F 6

$$$$
=
 OpenBabel11042410323D

 35 39  0  0  1  0  0  0  0  0999 V2000
  185.6220  178.1950  141.9430 S   0  0  0  0  0  0  0  0  0  0  0  0
  190.9660  177.3230  147.4970 O   0  0  0  0  0  0  0  0  0  0  0  0
  186.9510  177.7490  144.2800 N   0  0  0  0  0  0  0  0  0  0  0  0
  189.9670  177.0490  141.8360 C   0  0  0  0  0  3  0  0  0  0  0  0
  188.8740  177.8480  141.2360 C   0  0  0  0  0  0  0  0  0  0  0  0
  188.2330  178.8780  142.0000 N   0  0  0  0  0  2  0  0  0  0  0  0
  186.1900  178.3210  146.4520 C   0  0  0  0  0  2  0  0  0  0  0  0
  189.6380  177.3220  145.5350 C   0  0  0  0  0  0  0  0  0  0  0  0
  184.8260  178.7790  144.5630 C   0  0  0  0  0  0  0  0  0  0  0  0
  190.8420  176.9550  146.2980 C   0  0  0  0  0  0  0  0  0  0  0  0
  189.8060  177.9200  144.1630 C   0  0  0  0  0  2  0  0  0  0  0  0
  185.0370  178.7940  145.9090 N   0  0  0  0  0  0  0  0  0  0  0  0
  188.4650  177.3680  146.1860 C   0  0  0  0  0  3  0  0  0  0  0  0
  191.6350  175.3820  144.5130 C   0  0  0  0  0  2  0  0  0  0  0  0
  186.9270  179.4430  141.6710 C   0  0  0  0  0  2  0  0  0  0  0  0
  190.3970  177.0200  143.1050 C   0  0  0  0  0  0  0  0  0  0  0  0
  191.8770  176.1830  145.6990 N   0  0  0  0  0  2  0  0  0  0  0  0
  187.1810  177.8050  145.6160 C   0  0  0  0  0  0  0  0  0  0  0  0
  185.8090  178.2320  143.7270 C   0  0  1  0  0  3  0  0  0  0  0  0
  188.4750  177.6430  139.9680 C   0  0  0  0  0  3  0  0  0  0  0  0
  191.5020  176.2020  143.3610 O   0  0  0  0  0  0  0  0  0  0  0  0
  188.9620  176.6930  139.0540 O   0  0  0  0  0  0  0  0  0  0  0  0
  188.4260  176.4380  137.7640 C   0  0  0  0  0  1  0  0  0  0  0  0
  183.6130  179.3010  144.0110 N   0  0  0  0  0  2  0  0  0  0  0  0
  182.3290  178.6300  144.1480 C   0  0  0  0  0  2  0  0  0  0  0  0
  181.4560  178.9290  142.9450 C   0  0  0  0  0  2  0  0  0  0  0  0
  182.2640  178.8930  141.7400 N   0  0  0  0  0  2  0  0  0  0  0  0
  181.5310  178.8910  138.0560 C   0  0  0  0  0  2  0  0  0  0  0  0
  181.3440  178.8540  140.6150 C   0  0  1  0  0  3  0  0  0  0  0  0
  181.1870  175.6300  138.7140 C   0  0  0  0  0  1  0  0  0  0  0  0
  182.9260  178.5900  138.5840 C   0  0  1  0  0  3  0  0  0  0  0  0
  181.8530  176.4900  139.7690 C   0  0  2  0  0  3  0  0  0  0  0  0
  181.9910  179.5070  139.3750 C   0  0  1  0  0  3  0  0  0  0  0  0
  180.8240  177.4290  140.3980 C   0  0  0  0  0  2  0  0  0  0  0  0
  183.0990  177.1800  139.1890 C   0  0  0  0  0  2  0  0  0  0  0  0
  3 18  2  0  0  0  0
  4 16  2  0  0  0  0
  5  4  1  0  0  0  0
  5  6  1  0  0  0  0
  8 13  2  0  0  0  0
  8 10  1  0  0  0  0
  9 12  2  0  0  0  0
 10  2  2  0  0  0  0
 11  8  1  0  0  0  0
 12  7  1  0  0  0  0
 14 17  1  0  0  0  0
 15  1  1  0  0  0  0
 15  6  1  0  0  0  0
 16 21  1  0  0  0  0
 16 11  1  0  0  0  0
 17 10  1  0  0  0  0
 18 13  1  0  0  0  0
 18  7  1  0  0  0  0
 19  1  1  6  0  0  0
 19  3  1  0  0  0  0
 19  9  1  0  0  0  0
 20  5  2  0  0  0  0
 21 14  1  0  0  0  0
 22 20  1  0  0  0  0
 23 22  1  0  0  0  0
 24 25  1  0  0  0  0
 24  9  1  0  0  0  0
 26 25  1  0  0  0  0
 27 26  1  0  0  0  0
 29 27  1  1  0  0  0
 31 28  1  6  0  0  0
 31 35  1  0  0  0  0
 31 33  1  0  0  0  0
 32 30  1  6  0  0  0
 32 34  1  0  0  0  0
 33 28  1  6  0  0  0
 33 29  1  0  0  0  0
 34 29  1  0  0  0  0
 35 32  1  0  0  0  0
M  END
>  <MODEL>
2

>  <REMARK>
 VINA RESULT:      -8.2      1.080      1.309
  Name = 
  6 active torsions:
  status: ('A' for Active; 'I' for Inactive)
    1  A    between atoms: O_1  and  C_33
    2  A    between atoms: C_8  and  N_27
    3  A    between atoms: C_13  and  C_16
    4  A    between atoms: C_13  and  N_31
    5  A    between atoms: C_15  and  N_31
    6  A    between atoms: C_16  and  N_27
                            x       y       z     vdW  Elec       q    Type
                         _______ _______ _______ _____ _____    ______ ____

>  <TORSDO>
F 6

$$$$
=
 OpenBabel11042410323D

 35 39  0  0  1  0  0  0  0  0999 V2000
  190.4570  176.9550  142.4300 S   0  0  0  0  0  0  0  0  0  0  0  0
  183.4990  179.7530  144.4100 O   0  0  0  0  0  0  0  0  0  0  0  0
  187.8380  177.7030  142.5080 N   0  0  0  0  0  0  0  0  0  0  0  0
  188.4590  177.6210  146.4010 C   0  0  0  0  0  3  0  0  0  0  0  0
  189.6950  177.7370  145.5930 C   0  0  0  0  0  0  0  0  0  0  0  0
  189.7250  178.5960  144.4450 N   0  0  0  0  0  2  0  0  0  0  0  0
  186.5520  178.4830  140.6740 C   0  0  0  0  0  2  0  0  0  0  0  0
  185.6210  178.7120  144.2530 C   0  0  0  0  0  0  0  0  0  0  0  0
  188.8180  177.8510  140.3460 C   0  0  0  0  0  0  0  0  0  0  0  0
  184.3880  179.0620  144.9760 C   0  0  0  0  0  0  0  0  0  0  0  0
  186.9480  178.9410  144.9290 C   0  0  0  0  0  2  0  0  0  0  0  0
  187.6270  178.3040  139.8610 N   0  0  0  0  0  0  0  0  0  0  0  0
  185.5350  178.4650  142.9360 C   0  0  0  0  0  3  0  0  0  0  0  0
  184.9250  177.5150  146.8760 C   0  0  0  0  0  2  0  0  0  0  0  0
  190.7170  178.4950  143.3770 C   0  0  0  0  0  2  0  0  0  0  0  0
  187.2340  178.1000  146.1500 C   0  0  0  0  0  0  0  0  0  0  0  0
  184.1820  178.6290  146.3160 N   0  0  0  0  0  2  0  0  0  0  0  0
  186.6660  178.1960  142.0350 C   0  0  0  0  0  0  0  0  0  0  0  0
  188.9210  177.5340  141.7070 C   0  0  1  0  0  3  0  0  0  0  0  0
  190.8120  177.0640  145.9240 C   0  0  0  0  0  3  0  0  0  0  0  0
  186.2720  177.8800  147.1400 O   0  0  0  0  0  0  0  0  0  0  0  0
  190.9970  176.1760  146.9970 O   0  0  0  0  0  0  0  0  0  0  0  0
  192.2390  175.6270  147.4100 C   0  0  0  0  0  1  0  0  0  0  0  0
  189.9430  177.6900  139.4750 N   0  0  0  0  0  2  0  0  0  0  0  0
  189.8120  177.3050  138.0780 C   0  0  0  0  0  2  0  0  0  0  0  0
  189.7660  175.7940  137.9570 C   0  0  0  0  0  2  0  0  0  0  0  0
  191.1040  175.2550  138.1160 N   0  0  0  0  0  2  0  0  0  0  0  0
  194.3030  175.9240  136.2660 C   0  0  0  0  0  2  0  0  0  0  0  0
  191.8420  175.5930  136.9100 C   0  0  1  0  0  3  0  0  0  0  0  0
  193.7060  172.7870  135.2700 C   0  0  0  0  0  1  0  0  0  0  0  0
  194.3040  175.2230  137.6170 C   0  0  1  0  0  3  0  0  0  0  0  0
  192.9110  173.3090  136.4500 C   0  0  2  0  0  3  0  0  0  0  0  0
  193.2000  176.2270  137.2760 C   0  0  1  0  0  3  0  0  0  0  0  0
  191.9250  174.3800  135.9780 C   0  0  0  0  0  2  0  0  0  0  0  0
  193.8560  173.7460  137.5810 C   0  0  0  0  0  2  0  0  0  0  0  0
  1 15  1  0  0  0  0
  2 10  2  0  0  0  0
  5 20  2  0  0  0  0
  5  4  1  0  0  0  0
  6  5  1  0  0  0  0
  7 18  1  0  0  0  0
  8 11  1  0  0  0  0
  8 10  1  0  0  0  0
 10 17  1  0  0  0  0
 11 16  1  0  0  0  0
 12  9  2  0  0  0  0
 12  7  1  0  0  0  0
 13  8  2  0  0  0  0
 14 21  1  0  0  0  0
 15  6  1  0  0  0  0
 16  4  2  0  0  0  0
 16 21  1  0  0  0  0
 17 14  1  0  0  0  0
 18  3  2  0  0  0  0
 18 13  1  0  0  0  0
 19  9  1  1  0  0  0
 19  1  1  0  0  0  0
 19  3  1  0  0  0  0
 20 22  1  0  0  0  0
 22 23  1  0  0  0  0
 24  9  1  0  0  0  0
 25 24  1  0  0  0  0
 26 25  1  0  0  0  0
 26 27  1  0  0  0  0
 29 33  1  0  0  0  0
 29 27  1  1  0  0  0
 31 28  1  6  0  0  0
 32 30  1  6  0  0  0
 32 35  1  0  0  0  0
 33 28  1  6  0  0  0
 33 31  1  0  0  0  0
 34 32  1  0  0  0  0
 34 29  1  0  0  0  0
 35 31  1  0  0  0  0
M  END
>  <MODEL>
3

>  <REMARK>
 VINA RESULT:      -7.7      3.062      7.953
  Name = 
  6 active torsions:
  status: ('A' for Active; 'I' for Inactive)
    1  A    between atoms: O_1  and  C_33
    2  A    between atoms: C_8  and  N_27
    3  A    between atoms: C_13  and  C_16
    4  A    between atoms: C_13  and  N_31
    5  A    between atoms: C_15  and  N_31
    6  A    between atoms: C_16  and  N_27
                            x       y       z     vdW  Elec       q    Type
                         _______ _______ _______ _____ _____    ______ ____

>  <TORSDO>
F 6

$$$$
=
 OpenBabel11042410323D

 35 39  0  0  1  0  0  0  0  0999 V2000
  186.9380  177.8910  142.4460 S   0  0  0  0  0  0  0  0  0  0  0  0
  188.3090  177.6030  134.8180 O   0  0  0  0  0  0  0  0  0  0  0  0
  187.9770  177.4470  139.9670 N   0  0  0  0  0  0  0  0  0  0  0  0
  184.2320  177.9950  138.8590 C   0  0  0  0  0  3  0  0  0  0  0  0
  184.5580  178.5560  140.1910 C   0  0  0  0  0  0  0  0  0  0  0  0
  185.8030  179.2350  140.3990 N   0  0  0  0  0  2  0  0  0  0  0  0
  190.2800  177.4290  139.3990 C   0  0  0  0  0  2  0  0  0  0  0  0
  187.4410  177.5630  137.0220 C   0  0  0  0  0  0  0  0  0  0  0  0
  189.6200  177.8040  141.6490 C   0  0  0  0  0  0  0  0  0  0  0  0
  187.3110  177.4150  135.5630 C   0  0  0  0  0  0  0  0  0  0  0  0
  186.4270  178.3990  137.7580 C   0  0  0  0  0  2  0  0  0  0  0  0
  190.5890  177.6550  140.7030 N   0  0  0  0  0  0  0  0  0  0  0  0
  188.5930  177.1830  137.5970 C   0  0  0  0  0  3  0  0  0  0  0  0
  185.0120  176.4280  135.7510 C   0  0  0  0  0  2  0  0  0  0  0  0
  186.3910  179.4730  141.7150 C   0  0  0  0  0  2  0  0  0  0  0  0
  185.0110  177.8780  137.7760 C   0  0  0  0  0  0  0  0  0  0  0  0
  186.0640  177.0600  134.9750 N   0  0  0  0  0  2  0  0  0  0  0  0
  188.9400  177.3440  139.0170 C   0  0  0  0  0  0  0  0  0  0  0  0
  188.2760  177.6870  141.2700 C   0  0  1  0  0  3  0  0  0  0  0  0
  183.6950  178.4600  141.2190 C   0  0  0  0  0  3  0  0  0  0  0  0
  184.3980  177.3570  136.6310 O   0  0  0  0  0  0  0  0  0  0  0  0
  182.4350  177.8390  141.2320 O   0  0  0  0  0  0  0  0  0  0  0  0
  181.1870  178.5020  141.0950 C   0  0  0  0  0  1  0  0  0  0  0  0
  189.9690  178.0610  143.0140 N   0  0  0  0  0  2  0  0  0  0  0  0
  190.9450  177.2660  143.7430 C   0  0  0  0  0  2  0  0  0  0  0  0
  190.7410  177.4350  145.2360 C   0  0  0  0  0  2  0  0  0  0  0  0
  189.4670  178.0890  145.4800 N   0  0  0  0  0  2  0  0  0  0  0  0
  187.7170  176.8240  148.5520 C   0  0  0  0  0  2  0  0  0  0  0  0
  188.6240  177.1280  146.1710 C   0  0  1  0  0  3  0  0  0  0  0  0
  185.1410  178.2530  146.9680 C   0  0  0  0  0  1  0  0  0  0  0  0
  188.2310  178.2530  148.4690 C   0  0  1  0  0  3  0  0  0  0  0  0
  186.5350  178.5810  146.4730 C   0  0  2  0  0  3  0  0  0  0  0  0
  188.9310  177.1420  147.6830 C   0  0  1  0  0  3  0  0  0  0  0  0
  187.1530  177.3500  145.8080 C   0  0  0  0  0  2  0  0  0  0  0  0
  187.3720  179.2010  147.6040 C   0  0  0  0  0  2  0  0  0  0  0  0
  2 10  2  0  0  0  0
  4  5  1  0  0  0  0
  5  6  1  0  0  0  0
  5 20  2  0  0  0  0
  6 15  1  0  0  0  0
  7 12  1  0  0  0  0
  8 13  2  0  0  0  0
  8 11  1  0  0  0  0
  9 24  1  0  0  0  0
 10  8  1  0  0  0  0
 11 16  1  0  0  0  0
 12  9  2  0  0  0  0
 13 18  1  0  0  0  0
 14 21  1  0  0  0  0
 15  1  1  0  0  0  0
 16  4  2  0  0  0  0
 17 10  1  0  0  0  0
 17 14  1  0  0  0  0
 18  7  1  0  0  0  0
 18  3  2  0  0  0  0
 19  3  1  6  0  0  0
 19  9  1  0  0  0  0
 19  1  1  0  0  0  0
 20 22  1  0  0  0  0
 21 16  1  0  0  0  0
 23 22  1  0  0  0  0
 24 25  1  0  0  0  0
 25 26  1  0  0  0  0
 26 27  1  0  0  0  0
 29 27  1  6  0  0  0
 29 33  1  0  0  0  0
 31 35  1  6  0  0  0
 31 28  1  0  0  0  0
 32 30  1  1  0  0  0
 32 35  1  0  0  0  0
 33 31  1  0  0  0  0
 33 28  1  1  0  0  0
 34 29  1  0  0  0  0
 34 32  1  0  0  0  0
M  END
>  <MODEL>
4

>  <REMARK>
 VINA RESULT:      -7.7      3.345      8.617
  Name = 
  6 active torsions:
  status: ('A' for Active; 'I' for Inactive)
    1  A    between atoms: O_1  and  C_33
    2  A    between atoms: C_8  and  N_27
    3  A    between atoms: C_13  and  C_16
    4  A    between atoms: C_13  and  N_31
    5  A    between atoms: C_15  and  N_31
    6  A    between atoms: C_16  and  N_27
                            x       y       z     vdW  Elec       q    Type
                         _______ _______ _______ _____ _____    ______ ____

>  <TORSDO>
F 6

$$$$
=
 OpenBabel11042410323D

 35 39  0  0  1  0  0  0  0  0999 V2000
  184.0430  179.2900  139.6210 S   0  0  0  0  0  0  0  0  0  0  0  0
  188.5240  177.1660  145.5850 O   0  0  0  0  0  0  0  0  0  0  0  0
  186.1170  178.7810  141.3130 N   0  0  0  0  0  0  0  0  0  0  0  0
  183.2590  178.8890  144.0280 C   0  0  0  0  0  3  0  0  0  0  0  0
  182.7750  178.6460  142.6500 C   0  0  0  0  0  0  0  0  0  0  0  0
  183.4980  177.7640  141.7800 N   0  0  0  0  0  2  0  0  0  0  0  0
  188.2940  178.0800  140.6850 C   0  0  0  0  0  2  0  0  0  0  0  0
  186.8760  178.0100  144.1070 C   0  0  0  0  0  0  0  0  0  0  0  0
  186.6590  178.4990  139.0150 C   0  0  0  0  0  0  0  0  0  0  0  0
  187.4360  177.7870  145.4500 C   0  0  0  0  0  0  0  0  0  0  0  0
  185.4270  177.6780  143.8620 C   0  0  0  0  0  2  0  0  0  0  0  0
  187.9240  178.1450  139.3790 N   0  0  0  0  0  0  0  0  0  0  0  0
  187.7290  178.2360  143.0950 C   0  0  0  0  0  3  0  0  0  0  0  0
  185.7680  179.3200  146.5270 C   0  0  0  0  0  2  0  0  0  0  0  0
  183.3520  177.7540  140.3260 C   0  0  0  0  0  2  0  0  0  0  0  0
  184.4110  178.5150  144.6000 C   0  0  0  0  0  0  0  0  0  0  0  0
  186.7620  178.2640  146.6090 N   0  0  0  0  0  2  0  0  0  0  0  0
  187.3620  178.3840  141.6780 C   0  0  0  0  0  0  0  0  0  0  0  0
  185.7340  178.8350  140.0120 C   0  0  1  0  0  3  0  0  0  0  0  0
  181.6500  179.2230  142.1930 C   0  0  0  0  0  3  0  0  0  0  0  0
  184.5610  178.8420  145.9520 O   0  0  0  0  0  0  0  0  0  0  0  0
  180.8010  180.1140  142.8720 O   0  0  0  0  0  0  0  0  0  0  0  0
  179.4830  180.4620  142.4750 C   0  0  0  0  0  1  0  0  0  0  0  0
  186.2850  178.5420  137.6330 N   0  0  0  0  0  2  0  0  0  0  0  0
  187.0250  177.8430  136.5930 C   0  0  0  0  0  2  0  0  0  0  0  0
  186.9620  176.3460  136.8260 C   0  0  0  0  0  2  0  0  0  0  0  0
  185.5790  175.9080  136.7820 N   0  0  0  0  0  2  0  0  0  0  0  0
  186.3440  172.3900  135.7110 C   0  0  0  0  0  2  0  0  0  0  0  0
  185.5130  174.8150  135.8250 C   0  0  1  0  0  3  0  0  0  0  0  0
  183.1590  172.0230  136.6620 C   0  0  0  0  0  1  0  0  0  0  0  0
  186.4630  172.8160  137.1670 C   0  0  1  0  0  3  0  0  0  0  0  0
  183.8690  173.2970  137.0750 C   0  0  2  0  0  3  0  0  0  0  0  0
  186.6860  173.8390  136.0510 C   0  0  1  0  0  3  0  0  0  0  0  0
  184.1230  174.1710  135.8460 C   0  0  0  0  0  2  0  0  0  0  0  0
  185.1170  172.9660  137.9100 C   0  0  0  0  0  2  0  0  0  0  0  0
  1 19  1  0  0  0  0
  1 15  1  0  0  0  0
  3 18  2  0  0  0  0
  4 16  2  0  0  0  0
  5  4  1  0  0  0  0
  6  5  1  0  0  0  0
  7 18  1  0  0  0  0
  8 10  1  0  0  0  0
  9 12  2  0  0  0  0
 10  2  2  0  0  0  0
 10 17  1  0  0  0  0
 11  8  1  0  0  0  0
 11 16  1  0  0  0  0
 12  7  1  0  0  0  0
 13  8  2  0  0  0  0
 14 17  1  0  0  0  0
 15  6  1  0  0  0  0
 16 21  1  0  0  0  0
 18 13  1  0  0  0  0
 19  9  1  1  0  0  0
 19  3  1  0  0  0  0
 20  5  2  0  0  0  0
 20 22  1  0  0  0  0
 21 14  1  0  0  0  0
 23 22  1  0  0  0  0
 24  9  1  0  0  0  0
 25 26  1  0  0  0  0
 25 24  1  0  0  0  0
 27 26  1  0  0  0  0
 29 34  1  0  0  0  0
 29 33  1  0  0  0  0
 29 27  1  1  0  0  0
 31 28  1  6  0  0  0
 31 35  1  0  0  0  0
 32 30  1  6  0  0  0
 32 35  1  0  0  0  0
 33 28  1  6  0  0  0
 33 31  1  0  0  0  0
 34 32  1  0  0  0  0
M  END
>  <MODEL>
5

>  <REMARK>
 VINA RESULT:      -7.6      3.827      6.823
  Name = 
  6 active torsions:
  status: ('A' for Active; 'I' for Inactive)
    1  A    between atoms: O_1  and  C_33
    2  A    between atoms: C_8  and  N_27
    3  A    between atoms: C_13  and  C_16
    4  A    between atoms: C_13  and  N_31
    5  A    between atoms: C_15  and  N_31
    6  A    between atoms: C_16  and  N_27
                            x       y       z     vdW  Elec       q    Type
                         _______ _______ _______ _____ _____    ______ ____

>  <TORSDO>
F 6

$$$$
=
 OpenBabel11042410323D

 35 39  0  0  1  0  0  0  0  0999 V2000
  188.3940  178.8100  142.2380 S   0  0  0  0  0  0  0  0  0  0  0  0
  185.5520  176.9330  135.2700 O   0  0  0  0  0  0  0  0  0  0  0  0
  186.9170  178.6110  139.9570 N   0  0  0  0  0  0  0  0  0  0  0  0
  190.3130  177.2470  138.4870 C   0  0  0  0  0  3  0  0  0  0  0  0
  190.2180  177.1700  139.9630 C   0  0  0  0  0  0  0  0  0  0  0  0
  188.9920  176.7620  140.5840 N   0  0  0  0  0  2  0  0  0  0  0  0
  184.5550  178.7650  139.8020 C   0  0  0  0  0  2  0  0  0  0  0  0
  186.8440  177.5270  137.1650 C   0  0  0  0  0  0  0  0  0  0  0  0
  185.6210  179.0120  141.9100 C   0  0  0  0  0  0  0  0  0  0  0  0
  186.6910  177.2030  135.7370 C   0  0  0  0  0  0  0  0  0  0  0  0
  187.9180  176.8270  137.9550 C   0  0  0  0  0  2  0  0  0  0  0  0
  184.4960  178.9930  141.1410 N   0  0  0  0  0  0  0  0  0  0  0  0
  185.8620  178.2170  137.7660 C   0  0  0  0  0  3  0  0  0  0  0  0
  189.0490  177.8790  135.2120 C   0  0  0  0  0  2  0  0  0  0  0  0
  188.6620  177.0210  141.9830 C   0  0  0  0  0  2  0  0  0  0  0  0
  189.3450  177.1320  137.5680 C   0  0  0  0  0  0  0  0  0  0  0  0
  187.8180  177.1890  134.8690 N   0  0  0  0  0  2  0  0  0  0  0  0
  185.7940  178.5470  139.1980 C   0  0  0  0  0  0  0  0  0  0  0  0
  186.8670  178.8240  141.2970 C   0  0  1  0  0  3  0  0  0  0  0  0
  191.2730  177.4580  140.7460 C   0  0  0  0  0  3  0  0  0  0  0  0
  189.7550  177.1890  136.2320 O   0  0  0  0  0  0  0  0  0  0  0  0
  192.5540  177.8760  140.3480 O   0  0  0  0  0  0  0  0  0  0  0  0
  193.5800  177.0320  139.8480 C   0  0  0  0  0  1  0  0  0  0  0  0
  185.5330  179.2340  143.3220 N   0  0  0  0  0  2  0  0  0  0  0  0
  184.9760  178.2530  144.2430 C   0  0  0  0  0  2  0  0  0  0  0  0
  185.6790  178.3430  145.5830 C   0  0  0  0  0  2  0  0  0  0  0  0
  186.9180  177.5890  145.5320 N   0  0  0  0  0  2  0  0  0  0  0  0
  189.0050  178.6280  148.4760 C   0  0  0  0  0  2  0  0  0  0  0  0
  187.9420  178.4140  146.1500 C   0  0  1  0  0  3  0  0  0  0  0  0
  191.2270  176.7470  146.8290 C   0  0  0  0  0  1  0  0  0  0  0  0
  188.2590  177.3020  148.4660 C   0  0  1  0  0  3  0  0  0  0  0  0
  189.7750  176.6420  146.4090 C   0  0  2  0  0  3  0  0  0  0  0  0
  187.7130  178.4930  147.6740 C   0  0  1  0  0  3  0  0  0  0  0  0
  189.3370  177.9410  145.7300 C   0  0  0  0  0  2  0  0  0  0  0  0
  188.9050  176.2010  147.5970 C   0  0  0  0  0  2  0  0  0  0  0  0
  2 10  2  0  0  0  0
  4  5  1  0  0  0  0
  5  6  1  0  0  0  0
  5 20  2  0  0  0  0
  6 15  1  0  0  0  0
  7 12  1  0  0  0  0
  8 13  2  0  0  0  0
  8 11  1  0  0  0  0
  9 24  1  0  0  0  0
 10  8  1  0  0  0  0
 12  9  2  0  0  0  0
 13 18  1  0  0  0  0
 14 21  1  0  0  0  0
 15  1  1  0  0  0  0
 16 11  1  0  0  0  0
 16  4  2  0  0  0  0
 17 14  1  0  0  0  0
 17 10  1  0  0  0  0
 18  7  1  0  0  0  0
 18  3  2  0  0  0  0
 19  3  1  1  0  0  0
 19  9  1  0  0  0  0
 19  1  1  0  0  0  0
 21 16  1  0  0  0  0
 22 20  1  0  0  0  0
 23 22  1  0  0  0  0
 24 25  1  0  0  0  0
 25 26  1  0  0  0  0
 27 26  1  0  0  0  0
 29 27  1  1  0  0  0
 29 33  1  0  0  0  0
 31 35  1  6  0  0  0
 31 28  1  0  0  0  0
 32 30  1  1  0  0  0
 32 35  1  0  0  0  0
 33 31  1  0  0  0  0
 33 28  1  1  0  0  0
 34 29  1  0  0  0  0
 34 32  1  0  0  0  0
M  END
>  <MODEL>
6

>  <REMARK>
 VINA RESULT:      -7.6      2.654      7.745
  Name = 
  6 active torsions:
  status: ('A' for Active; 'I' for Inactive)
    1  A    between atoms: O_1  and  C_33
    2  A    between atoms: C_8  and  N_27
    3  A    between atoms: C_13  and  C_16
    4  A    between atoms: C_13  and  N_31
    5  A    between atoms: C_15  and  N_31
    6  A    between atoms: C_16  and  N_27
                            x       y       z     vdW  Elec       q    Type
                         _______ _______ _______ _____ _____    ______ ____

>  <TORSDO>
F 6

$$$$
=
 OpenBabel11042410323D

 35 39  0  0  1  0  0  0  0  0999 V2000
  190.5910  176.8660  142.1100 S   0  0  0  0  0  0  0  0  0  0  0  0
  183.9550  179.6110  145.0390 O   0  0  0  0  0  0  0  0  0  0  0  0
  188.0130  177.6410  142.5290 N   0  0  0  0  0  0  0  0  0  0  0  0
  189.0570  177.2750  146.3140 C   0  0  0  0  0  3  0  0  0  0  0  0
  190.1990  177.4320  145.3840 C   0  0  0  0  0  0  0  0  0  0  0  0
  190.1200  178.3690  144.3020 N   0  0  0  0  0  2  0  0  0  0  0  0
  186.5500  178.5670  140.9070 C   0  0  0  0  0  2  0  0  0  0  0  0
  186.0240  178.5540  144.5750 C   0  0  0  0  0  0  0  0  0  0  0  0
  188.7520  177.9300  140.2870 C   0  0  0  0  0  0  0  0  0  0  0  0
  184.8860  178.8690  145.4530 C   0  0  0  0  0  0  0  0  0  0  0  0
  187.4210  178.7170  145.1140 C   0  0  0  0  0  2  0  0  0  0  0  0
  187.5260  178.4310  139.9700 N   0  0  0  0  0  0  0  0  0  0  0  0
  185.7880  178.4020  143.2620 C   0  0  0  0  0  3  0  0  0  0  0  0
  185.5950  177.1840  147.1700 C   0  0  0  0  0  2  0  0  0  0  0  0
  190.9870  178.3300  143.1260 C   0  0  0  0  0  2  0  0  0  0  0  0
  187.8220  177.7880  146.2340 C   0  0  0  0  0  0  0  0  0  0  0  0
  184.8190  178.3450  146.7750 N   0  0  0  0  0  2  0  0  0  0  0  0
  186.8070  178.1830  142.2240 C   0  0  0  0  0  0  0  0  0  0  0  0
  188.9980  177.5150  141.6030 C   0  0  1  0  0  3  0  0  0  0  0  0
  191.3300  176.7220  145.5420 C   0  0  0  0  0  3  0  0  0  0  0  0
  186.9700  177.5110  147.3080 O   0  0  0  0  0  0  0  0  0  0  0  0
  191.6130  175.7580  146.5240 O   0  0  0  0  0  0  0  0  0  0  0  0
  192.2830  176.0020  147.7510 C   0  0  0  0  0  1  0  0  0  0  0  0
  189.7710  177.8150  139.2870 N   0  0  0  0  0  2  0  0  0  0  0  0
  189.4980  177.3730  137.9280 C   0  0  0  0  0  2  0  0  0  0  0  0
  189.2150  175.8830  137.9140 C   0  0  0  0  0  2  0  0  0  0  0  0
  187.8920  175.6480  137.3630 N   0  0  0  0  0  2  0  0  0  0  0  0
  188.3040  172.2820  135.7490 C   0  0  0  0  0  2  0  0  0  0  0  0
  188.0650  174.7970  136.1980 C   0  0  1  0  0  3  0  0  0  0  0  0
  185.0630  172.8280  135.1260 C   0  0  0  0  0  1  0  0  0  0  0  0
  187.7900  172.4160  137.1750 C   0  0  1  0  0  3  0  0  0  0  0  0
  185.7390  173.7210  136.1460 C   0  0  2  0  0  3  0  0  0  0  0  0
  188.7400  173.4700  136.6020 C   0  0  1  0  0  3  0  0  0  0  0  0
  186.7380  174.6440  135.4470 C   0  0  0  0  0  2  0  0  0  0  0  0
  186.3210  172.8790  137.2930 C   0  0  0  0  0  2  0  0  0  0  0  0
  1 15  1  0  0  0  0
  2 10  2  0  0  0  0
  5 20  2  0  0  0  0
  5  4  1  0  0  0  0
  6  5  1  0  0  0  0
  7 18  1  0  0  0  0
  8 11  1  0  0  0  0
  8 10  1  0  0  0  0
 10 17  1  0  0  0  0
 11 16  1  0  0  0  0
 12  9  2  0  0  0  0
 12  7  1  0  0  0  0
 13  8  2  0  0  0  0
 14 21  1  0  0  0  0
 15  6  1  0  0  0  0
 16  4  2  0  0  0  0
 16 21  1  0  0  0  0
 17 14  1  0  0  0  0
 18  3  2  0  0  0  0
 18 13  1  0  0  0  0
 19  9  1  1  0  0  0
 19  1  1  0  0  0  0
 19  3  1  0  0  0  0
 20 22  1  0  0  0  0
 22 23  1  0  0  0  0
 24  9  1  0  0  0  0
 25 24  1  0  0  0  0
 26 25  1  0  0  0  0
 27 26  1  0  0  0  0
 29 33  1  0  0  0  0
 29 27  1  1  0  0  0
 31 28  1  6  0  0  0
 31 35  1  0  0  0  0
 32 30  1  6  0  0  0
 32 35  1  0  0  0  0
 33 28  1  6  0  0  0
 33 31  1  0  0  0  0
 34 32  1  0  0  0  0
 34 29  1  0  0  0  0
M  END
>  <MODEL>
7

>  <REMARK>
 VINA RESULT:      -7.5      3.298      6.559
  Name = 
  6 active torsions:
  status: ('A' for Active; 'I' for Inactive)
    1  A    between atoms: O_1  and  C_33
    2  A    between atoms: C_8  and  N_27
    3  A    between atoms: C_13  and  C_16
    4  A    between atoms: C_13  and  N_31
    5  A    between atoms: C_15  and  N_31
    6  A    between atoms: C_16  and  N_27
                            x       y       z     vdW  Elec       q    Type
                         _______ _______ _______ _____ _____    ______ ____

>  <TORSDO>
F 6

$$$$
=
 OpenBabel11042410323D

 35 39  0  0  1  0  0  0  0  0999 V2000
  191.0180  176.6190  142.8130 S   0  0  0  0  0  0  0  0  0  0  0  0
  184.1610  179.5920  144.8830 O   0  0  0  0  0  0  0  0  0  0  0  0
  188.4210  177.4320  142.9240 N   0  0  0  0  0  0  0  0  0  0  0  0
  189.0900  177.3340  146.8100 C   0  0  0  0  0  3  0  0  0  0  0  0
  190.3180  177.4190  145.9850 C   0  0  0  0  0  0  0  0  0  0  0  0
  190.3540  178.2770  144.8370 N   0  0  0  0  0  2  0  0  0  0  0  0
  187.1310  178.2460  141.1070 C   0  0  0  0  0  3  0  0  0  0  0  0
  186.2530  178.4970  144.6980 C   0  0  0  0  0  0  0  0  0  0  0  0
  189.3760  177.5580  140.7500 C   0  0  0  0  0  0  0  0  0  0  0  0
  185.0390  178.8780  145.4370 C   0  0  0  0  0  0  0  0  0  0  0  0
  187.5940  178.6920  145.3570 C   0  0  0  0  0  2  0  0  0  0  0  0
  188.1910  178.0400  140.2810 N   0  0  0  0  0  0  0  0  0  0  0  0
  186.1430  178.2530  143.3820 C   0  0  0  0  0  3  0  0  0  0  0  0
  185.5610  177.3170  147.3300 C   0  0  0  0  0  2  0  0  0  0  0  0
  191.3300  178.1510  143.7570 C   0  0  0  0  0  2  0  0  0  0  0  0
  187.8740  177.8440  146.5740 C   0  0  0  0  0  0  0  0  0  0  0  0
  184.8390  178.4500  146.7800 N   0  0  0  0  0  2  0  0  0  0  0  0
  187.2550  177.9560  142.4670 C   0  0  0  0  0  0  0  0  0  0  0  0
  189.4890  177.2370  142.1090 C   0  0  0  0  0  0  0  0  0  0  0  0
  191.4220  176.7180  146.3020 C   0  0  0  0  0  3  0  0  0  0  0  0
  186.9200  177.6480  147.5770 O   0  0  0  0  0  0  0  0  0  0  0  0
  191.5980  175.8250  147.3730 O   0  0  0  0  0  0  0  0  0  0  0  0
  192.8050  175.6280  148.0930 C   0  0  0  0  0  1  0  0  0  0  0  0
  190.4850  177.3680  139.8650 N   0  0  0  0  0  2  0  0  0  0  0  0
  190.4780  176.3890  138.7880 C   0  0  0  0  0  2  0  0  0  0  0  0
  190.3340  177.0900  137.4510 C   0  0  0  0  0  2  0  0  0  0  0  0
  189.4830  176.2990  136.5790 N   0  0  0  0  0  2  0  0  0  0  0  0
  185.9290  177.5020  136.7310 C   0  0  0  0  0  2  0  0  0  0  0  0
  188.1550  176.3030  137.1690 C   0  0  1  0  0  3  0  0  0  0  0  0
  185.4750  174.5510  135.2250 C   0  0  0  0  0  1  0  0  0  0  0  0
  186.7820  177.7160  135.4900 C   0  0  1  0  0  3  0  0  0  0  0  0
  186.8910  175.0860  135.3020 C   0  0  2  0  0  3  0  0  0  0  0  0
  187.4430  177.6390  136.8680 C   0  0  1  0  0  3  0  0  0  0  0  0
  187.3800  175.0500  136.7500 C   0  0  0  0  0  2  0  0  0  0  0  0
  186.9820  176.4580  134.6160 C   0  0  0  0  0  2  0  0  0  0  0  0
  1 15  1  0  0  0  0
  2 10  2  0  0  0  0
  5 20  2  0  0  0  0
  5  4  1  0  0  0  0
  6  5  1  0  0  0  0
  7 18  2  0  0  0  0
  8 11  1  0  0  0  0
  8 10  1  0  0  0  0
  9 19  1  0  0  0  0
 10 17  1  0  0  0  0
 11 16  1  0  0  0  0
 12  9  2  0  0  0  0
 12  7  1  0  0  0  0
 13  8  2  0  0  0  0
 14 21  1  0  0  0  0
 15  6  1  0  0  0  0
 16  4  2  0  0  0  0
 16 21  1  0  0  0  0
 17 14  1  0  0  0  0
 18  3  1  0  0  0  0
 18 13  1  0  0  0  0
 19  1  1  0  0  0  0
 19  3  2  0  0  0  0
 20 22  1  0  0  0  0
 22 23  1  0  0  0  0
 24  9  1  0  0  0  0
 25 24  1  0  0  0  0
 26 25  1  0  0  0  0
 27 26  1  0  0  0  0
 29 27  1  6  0  0  0
 31 35  1  6  0  0  0
 31 28  1  0  0  0  0
 31 33  1  0  0  0  0
 32 30  1  1  0  0  0
 32 34  1  0  0  0  0
 33 28  1  1  0  0  0
 33 29  1  0  0  0  0
 34 29  1  0  0  0  0
 35 32  1  0  0  0  0
M  END
>  <MODEL>
8

>  <REMARK>
 VINA RESULT:      -7.5      3.158      6.263
  Name = 
  6 active torsions:
  status: ('A' for Active; 'I' for Inactive)
    1  A    between atoms: O_1  and  C_33
    2  A    between atoms: C_8  and  N_27
    3  A    between atoms: C_13  and  C_16
    4  A    between atoms: C_13  and  N_31
    5  A    between atoms: C_15  and  N_31
    6  A    between atoms: C_16  and  N_27
                            x       y       z     vdW  Elec       q    Type
                         _______ _______ _______ _____ _____    ______ ____

>  <TORSDO>
F 6

$$$$
=
 OpenBabel11042410323D

 35 39  0  0  1  0  0  0  0  0999 V2000
  187.7630  178.6280  141.4110 S   0  0  0  0  0  0  0  0  0  0  0  0
  191.9960  176.4020  147.5160 O   0  0  0  0  0  0  0  0  0  0  0  0
  189.7660  178.0830  143.1750 N   0  0  0  0  0  0  0  0  0  0  0  0
  186.8070  178.1850  145.7800 C   0  0  0  0  0  3  0  0  0  0  0  0
  186.3750  177.9610  144.3810 C   0  0  0  0  0  0  0  0  0  0  0  0
  187.1230  177.0830  143.5300 N   0  0  0  0  0  2  0  0  0  0  0  0
  191.9600  177.3710  142.6220 C   0  0  0  0  0  2  0  0  0  0  0  0
  190.4120  177.2760  145.9870 C   0  0  0  0  0  0  0  0  0  0  0  0
  190.3930  177.8230  140.8950 C   0  0  0  0  0  0  0  0  0  0  0  0
  190.9180  177.0330  147.3470 C   0  0  0  0  0  0  0  0  0  0  0  0
  188.9710  176.9580  145.6830 C   0  0  0  0  0  2  0  0  0  0  0  0
  191.6400  177.4540  141.3030 N   0  0  0  0  0  0  0  0  0  0  0  0
  191.3040  177.5060  145.0110 C   0  0  0  0  0  3  0  0  0  0  0  0
  189.2220  178.5680  148.3770 C   0  0  0  0  0  2  0  0  0  0  0  0
  187.0330  177.0900  142.0720 C   0  0  0  0  0  2  0  0  0  0  0  0
  187.9340  177.7960  146.3910 C   0  0  0  0  0  0  0  0  0  0  0  0
  190.2040  177.5040  148.4850 N   0  0  0  0  0  2  0  0  0  0  0  0
  190.9930  177.6720  143.5820 C   0  0  0  0  0  0  0  0  0  0  0  0
  189.4330  178.1550  141.8600 C   0  0  1  0  0  3  0  0  0  0  0  0
  185.2720  178.5530  143.8880 C   0  0  0  0  0  3  0  0  0  0  0  0
  188.0340  178.1060  147.7510 O   0  0  0  0  0  0  0  0  0  0  0  0
  184.4050  179.4430  144.5440 O   0  0  0  0  0  0  0  0  0  0  0  0
  182.9870  179.3790  144.5230 C   0  0  0  0  0  1  0  0  0  0  0  0
  190.0730  177.8830  139.5010 N   0  0  0  0  0  2  0  0  0  0  0  0
  190.6520  176.9790  138.5180 C   0  0  0  0  0  2  0  0  0  0  0  0
  189.6540  176.7120  137.4080 C   0  0  0  0  0  2  0  0  0  0  0  0
  188.3050  176.7980  137.9390 N   0  0  0  0  0  2  0  0  0  0  0  0
  186.5500  177.8750  134.7990 C   0  0  0  0  0  2  0  0  0  0  0  0
  187.5980  177.7840  137.1400 C   0  0  1  0  0  3  0  0  0  0  0  0
  183.9070  177.2670  136.7570 C   0  0  0  0  0  1  0  0  0  0  0  0
  186.7910  176.4040  135.1030 C   0  0  1  0  0  3  0  0  0  0  0  0
  185.2540  176.7500  137.2210 C   0  0  2  0  0  3  0  0  0  0  0  0
  187.7570  177.4650  135.6380 C   0  0  1  0  0  3  0  0  0  0  0  0
  186.1500  177.9240  137.6210 C   0  0  0  0  0  2  0  0  0  0  0  0
  185.8530  175.8010  136.1710 C   0  0  0  0  0  2  0  0  0  0  0  0
  1 19  1  0  0  0  0
  1 15  1  0  0  0  0
  3 18  2  0  0  0  0
  4 16  2  0  0  0  0
  5  4  1  0  0  0  0
  6  5  1  0  0  0  0
  7 18  1  0  0  0  0
  8 10  1  0  0  0  0
  9 12  2  0  0  0  0
 10  2  2  0  0  0  0
 10 17  1  0  0  0  0
 11  8  1  0  0  0  0
 11 16  1  0  0  0  0
 12  7  1  0  0  0  0
 13  8  2  0  0  0  0
 14 17  1  0  0  0  0
 15  6  1  0  0  0  0
 16 21  1  0  0  0  0
 18 13  1  0  0  0  0
 19  9  1  1  0  0  0
 19  3  1  0  0  0  0
 20  5  2  0  0  0  0
 20 22  1  0  0  0  0
 21 14  1  0  0  0  0
 23 22  1  0  0  0  0
 24  9  1  0  0  0  0
 25 24  1  0  0  0  0
 26 27  1  0  0  0  0
 26 25  1  0  0  0  0
 29 34  1  0  0  0  0
 29 27  1  1  0  0  0
 31 28  1  6  0  0  0
 31 33  1  0  0  0  0
 31 35  1  0  0  0  0
 32 30  1  6  0  0  0
 32 34  1  0  0  0  0
 33 28  1  6  0  0  0
 33 29  1  0  0  0  0
 35 32  1  0  0  0  0
M  END
>  <MODEL>
9

>  <REMARK>
 VINA RESULT:      -7.5      2.735      5.604
  Name = 
  6 active torsions:
  status: ('A' for Active; 'I' for Inactive)
    1  A    between atoms: O_1  and  C_33
    2  A    between atoms: C_8  and  N_27
    3  A    between atoms: C_13  and  C_16
    4  A    between atoms: C_13  and  N_31
    5  A    between atoms: C_15  and  N_31
    6  A    between atoms: C_16  and  N_27
                            x       y       z     vdW  Elec       q    Type
                         _______ _______ _______ _____ _____    ______ ____

>  <TORSDO>
F 6

$$$$
