=
 OpenBabel11042413043D

 40 43  0  0  1  0  0  0  0  0999 V2000
  189.6120  176.5960  142.8420 C   0  0  0  0  0  0  0  0  0  0  0  0
  182.4630  178.6630  143.0810 C   0  0  0  0  0  0  0  0  0  0  0  0
  188.5540  177.0240  142.2540 N   0  0  0  0  0  0  0  0  0  0  0  0
  189.5550  176.0440  144.2270 C   0  0  0  0  0  2  0  0  0  0  0  0
  188.2370  178.2550  140.1930 C   0  0  0  0  0  0  0  0  0  0  0  0
  187.0500  177.7880  144.5390 C   0  0  0  0  0  3  0  0  0  0  0  0
  190.2880  177.3960  146.0350 O   0  0  0  0  0  0  0  0  0  0  0  0
  186.8780  178.5480  140.5430 N   0  0  0  0  0  2  0  0  0  0  0  0
  188.0910  177.9060  145.3660 C   0  0  0  0  0  3  0  0  0  0  0  0
  190.4610  177.3650  140.9850 C   0  0  0  0  0  3  0  0  0  0  0  0
  185.6320  179.3390  145.9050 C   0  0  0  0  0  1  0  0  0  0  0  0
  185.8560  178.5780  144.6780 N   0  0  0  0  0  0  0  0  0  0  0  0
  182.7950  178.6460  141.7220 C   0  0  0  0  0  3  0  0  0  0  0  0
  185.1570  178.5820  142.2750 C   0  0  0  0  0  0  0  0  0  0  0  0
  190.8140  176.7820  142.0890 N   0  0  0  0  0  0  0  0  0  0  0  0
  184.8370  178.5830  143.6550 C   0  0  0  0  0  0  0  0  0  0  0  0
  189.0200  177.5740  141.0410 C   0  0  0  0  0  0  0  0  0  0  0  0
  183.4850  178.6330  144.0340 C   0  0  0  0  0  3  0  0  0  0  0  0
  189.3470  177.1330  145.2430 C   0  0  0  0  0  0  0  0  0  0  0  0
  184.1300  178.6070  141.3220 C   0  0  0  0  0  3  0  0  0  0  0  0
  186.4910  178.5560  141.8700 O   0  0  0  0  0  0  0  0  0  0  0  0
  181.1030  178.7020  143.5320 N   0  0  0  0  0  2  0  0  0  0  0  0
  180.3850  180.6730  142.2460 O   0  0  0  0  0  0  0  0  0  0  0  0
  180.0970  179.6370  143.1270 C   0  0  0  0  0  0  0  0  0  0  0  0
  178.9320  179.5270  143.5870 O   0  0  0  0  0  1  0  0  0  0  0  0
  188.8790  178.8480  138.6290 S   0  0  0  0  0  0  0  0  0  0  0  0
  188.6070  177.2440  137.8230 C   0  0  0  0  0  2  0  0  0  0  0  0
  190.5930  176.2390  136.5940 N   0  0  0  0  0  2  0  0  0  0  0  0
  189.4770  177.1310  136.6180 C   0  0  0  0  0  0  0  0  0  0  0  0
  189.2380  177.8530  135.6160 O   0  0  0  0  0  0  0  0  0  0  0  0
  190.9280  175.3830  137.7220 C   0  0  0  0  0  2  0  0  0  0  0  0
  195.6100  173.5010  136.9160 C   0  0  0  0  0  2  0  0  0  0  0  0
  193.4660  176.6170  138.8120 O   0  0  0  0  0  1  0  0  0  0  0  0
  194.6290  175.6930  137.0350 O   0  0  0  0  0  0  0  0  0  0  0  0
  194.5470  173.1370  135.8810 C   0  0  0  0  0  2  0  0  0  0  0  0
  195.1810  174.6600  137.8110 C   0  0  0  0  0  2  0  0  0  0  0  0
  193.3530  176.0180  137.5530 C   0  0  1  0  0  3  0  0  0  0  0  0
  193.2710  172.8540  136.5230 N   0  0  0  0  0  2  0  0  0  0  0  0
  192.4120  174.0110  136.3060 C   0  0  0  0  0  2  0  0  0  0  0  0
  192.3430  174.8500  137.5760 C   0  0  2  0  0  3  0  0  0  0  0  0
  1  4  1  0  0  0  0
  2 22  1  0  0  0  0
  2 18  1  0  0  0  0
  3  1  2  0  0  0  0
  4 19  1  0  0  0  0
  5  8  1  0  0  0  0
  5 17  2  0  0  0  0
  6 12  1  0  0  0  0
  6  9  2  0  0  0  0
  8 21  1  0  0  0  0
 10 17  1  0  0  0  0
 10 15  2  0  0  0  0
 12 11  1  0  0  0  0
 13  2  2  0  0  0  0
 14 16  1  0  0  0  0
 15  1  1  0  0  0  0
 16 18  2  0  0  0  0
 16 12  1  0  0  0  0
 17  3  1  0  0  0  0
 19  9  1  0  0  0  0
 19  7  2  0  0  0  0
 20 13  1  0  0  0  0
 20 14  2  0  0  0  0
 21 14  1  0  0  0  0
 23 24  2  0  0  0  0
 24 22  1  0  0  0  0
 24 25  1  0  0  0  0
 26  5  1  0  0  0  0
 27 26  1  0  0  0  0
 28 29  1  0  0  0  0
 28 31  1  0  0  0  0
 29 27  1  0  0  0  0
 30 29  2  0  0  0  0
 32 36  1  0  0  0  0
 34 37  1  0  0  0  0
 34 36  1  0  0  0  0
 35 38  1  0  0  0  0
 35 32  1  0  0  0  0
 37 40  1  0  0  0  0
 37 33  1  1  0  0  0
 39 38  1  0  0  0  0
 39 40  1  0  0  0  0
 40 31  1  6  0  0  0
M  END
>  <MODEL>
1

>  <REMARK>
 VINA RESULT:      -9.3      0.000      0.000
  Name = 
  6 active torsions:
  status: ('A' for Active; 'I' for Inactive)
    1  A    between atoms: C_1  and  N_10
    2  A    between atoms: C_1  and  C_34
    3  A    between atoms: C_3  and  N_4
    4  A    between atoms: C_9  and  S_11
    5  A    between atoms: S_11  and  C_37
    6  A    between atoms: C_18  and  C_37
                            x       y       z     vdW  Elec       q    Type
                         _______ _______ _______ _____ _____    ______ ____

>  <TORSDO>
F 6

$$$$
=
 OpenBabel11042413043D

 40 43  0  0  1  0  0  0  0  0999 V2000
  186.2060  178.8810  146.1950 C   0  0  0  0  0  0  0  0  0  0  0  0
  190.7450  177.5780  140.4390 C   0  0  0  0  0  0  0  0  0  0  0  0
  186.4050  178.7840  144.9310 N   0  0  0  0  0  0  0  0  0  0  0  0
  187.3490  178.9340  147.1540 C   0  0  0  0  0  2  0  0  0  0  0  0
  184.8940  178.3620  143.0860 C   0  0  0  0  0  0  0  0  0  0  0  0
  188.9090  177.4460  144.9720 C   0  0  0  0  0  3  0  0  0  0  0  0
  187.9070  176.9840  148.3860 O   0  0  0  0  0  0  0  0  0  0  0  0
  185.9960  178.1050  142.2050 N   0  0  0  0  0  2  0  0  0  0  0  0
  188.7900  176.9520  146.2060 C   0  0  0  0  0  3  0  0  0  0  0  0
  184.1550  178.7050  145.4730 C   0  0  0  0  0  3  0  0  0  0  0  0
  190.5430  175.6730  144.2870 C   0  0  0  0  0  1  0  0  0  0  0  0
  189.6540  176.7780  143.9380 N   0  0  0  0  0  0  0  0  0  0  0  0
  189.5460  178.0200  139.8680 C   0  0  0  0  0  3  0  0  0  0  0  0
  188.3850  177.6580  141.9680 C   0  0  0  0  0  0  0  0  0  0  0  0
  184.8270  178.8420  146.5740 N   0  0  0  0  0  0  0  0  0  0  0  0
  189.5930  177.2220  142.5640 C   0  0  0  0  0  0  0  0  0  0  0  0
  185.1150  178.6350  144.3790 C   0  0  0  0  0  0  0  0  0  0  0  0
  190.7580  177.1810  141.7790 C   0  0  0  0  0  3  0  0  0  0  0  0
  188.0130  177.5920  147.2900 C   0  0  0  0  0  0  0  0  0  0  0  0
  188.3760  178.0590  140.6260 C   0  0  0  0  0  3  0  0  0  0  0  0
  187.2100  177.6860  142.7180 O   0  0  0  0  0  0  0  0  0  0  0  0
  191.9680  177.5230  139.6940 N   0  0  0  0  0  2  0  0  0  0  0  0
  191.4710  175.4970  138.3890 O   0  0  0  0  0  1  0  0  0  0  0  0
  192.3190  176.5540  138.6990 C   0  0  0  0  0  0  0  0  0  0  0  0
  193.4210  176.6540  138.1030 O   0  0  0  0  0  0  0  0  0  0  0  0
  183.2250  178.2730  142.4400 S   0  0  0  0  0  0  0  0  0  0  0  0
  183.7630  178.7610  140.7760 C   0  0  0  0  0  2  0  0  0  0  0  0
  184.1480  177.5430  138.5770 N   0  0  0  0  0  2  0  0  0  0  0  0
  183.4230  177.6860  139.8010 C   0  0  0  0  0  0  0  0  0  0  0  0
  182.4650  176.9090  140.0490 O   0  0  0  0  0  0  0  0  0  0  0  0
  185.2610  178.4120  138.2270 C   0  0  0  0  0  2  0  0  0  0  0  0
  188.7910  175.5060  135.9460 C   0  0  0  0  0  2  0  0  0  0  0  0
  187.8690  179.4660  137.1130 O   0  0  0  0  0  1  0  0  0  0  0  0
  187.8870  177.7070  135.6050 O   0  0  0  0  0  0  0  0  0  0  0  0
  187.3600  174.9700  135.9290 C   0  0  0  0  0  2  0  0  0  0  0  0
  188.8580  176.9840  136.3190 C   0  0  0  0  0  2  0  0  0  0  0  0
  187.1080  178.4490  136.5240 C   0  0  1  0  0  3  0  0  0  0  0  0
  186.6970  175.2170  137.2010 N   0  0  0  0  0  2  0  0  0  0  0  0
  185.7820  176.3330  137.0030 C   0  0  0  0  0  2  0  0  0  0  0  0
  186.3800  177.6040  137.5930 C   0  0  2  0  0  3  0  0  0  0  0  0
  1 15  1  0  0  0  0
  1  4  1  0  0  0  0
  2 18  1  0  0  0  0
  3  1  2  0  0  0  0
  4 19  1  0  0  0  0
  5 17  2  0  0  0  0
  6  9  2  0  0  0  0
  8 21  1  0  0  0  0
  8  5  1  0  0  0  0
  9 19  1  0  0  0  0
 10 15  2  0  0  0  0
 12 11  1  0  0  0  0
 12  6  1  0  0  0  0
 13  2  2  0  0  0  0
 13 20  1  0  0  0  0
 14 16  1  0  0  0  0
 14 21  1  0  0  0  0
 16 12  1  0  0  0  0
 17  3  1  0  0  0  0
 17 10  1  0  0  0  0
 18 16  2  0  0  0  0
 19  7  2  0  0  0  0
 20 14  2  0  0  0  0
 22  2  1  0  0  0  0
 23 24  1  0  0  0  0
 24 22  1  0  0  0  0
 25 24  2  0  0  0  0
 26  5  1  0  0  0  0
 27 26  1  0  0  0  0
 28 29  1  0  0  0  0
 29 30  2  0  0  0  0
 29 27  1  0  0  0  0
 31 28  1  0  0  0  0
 32 36  1  0  0  0  0
 34 36  1  0  0  0  0
 34 37  1  0  0  0  0
 35 32  1  0  0  0  0
 35 38  1  0  0  0  0
 37 33  1  1  0  0  0
 37 40  1  0  0  0  0
 39 38  1  0  0  0  0
 39 40  1  0  0  0  0
 40 31  1  6  0  0  0
M  END
>  <MODEL>
2

>  <REMARK>
 VINA RESULT:      -9.3      2.878      7.086
  Name = 
  6 active torsions:
  status: ('A' for Active; 'I' for Inactive)
    1  A    between atoms: C_1  and  N_10
    2  A    between atoms: C_1  and  C_34
    3  A    between atoms: C_3  and  N_4
    4  A    between atoms: C_9  and  S_11
    5  A    between atoms: S_11  and  C_37
    6  A    between atoms: C_18  and  C_37
                            x       y       z     vdW  Elec       q    Type
                         _______ _______ _______ _____ _____    ______ ____

>  <TORSDO>
F 6

$$$$
=
 OpenBabel11042413043D

 40 43  0  0  1  0  0  0  0  0999 V2000
  182.8490  177.5220  139.9990 C   0  0  0  0  0  0  0  0  0  0  0  0
  190.2470  177.2720  139.2020 C   0  0  0  0  0  0  0  0  0  0  0  0
  184.0290  177.6540  140.4880 N   0  0  0  0  0  0  0  0  0  0  0  0
  182.6300  176.8660  138.6770 C   0  0  0  0  0  2  0  0  0  0  0  0
  184.8600  178.8960  142.3940 C   0  0  0  0  0  0  0  0  0  0  0  0
  185.5110  177.7270  138.0670 C   0  0  0  0  0  3  0  0  0  0  0  0
  182.1990  178.2220  136.7780 O   0  0  0  0  0  0  0  0  0  0  0  0
  186.2130  178.7280  141.9500 N   0  0  0  0  0  2  0  0  0  0  0  0
  184.4930  178.0890  137.2830 C   0  0  0  0  0  3  0  0  0  0  0  0
  182.4170  178.6670  141.8060 C   0  0  0  0  0  3  0  0  0  0  0  0
  187.2190  178.6500  136.4810 C   0  0  0  0  0  1  0  0  0  0  0  0
  186.8730  178.0990  137.7890 N   0  0  0  0  0  0  0  0  0  0  0  0
  190.0330  177.4720  140.5710 C   0  0  0  0  0  3  0  0  0  0  0  0
  187.7250  178.0880  140.1420 C   0  0  0  0  0  0  0  0  0  0  0  0
  181.8210  178.1300  140.7870 N   0  0  0  0  0  0  0  0  0  0  0  0
  187.9220  177.8760  138.7560 C   0  0  0  0  0  0  0  0  0  0  0  0
  183.8460  178.4190  141.6600 C   0  0  0  0  0  0  0  0  0  0  0  0
  189.1930  177.4780  138.3080 C   0  0  0  0  0  3  0  0  0  0  0  0
  183.0760  177.7510  137.5460 C   0  0  0  0  0  0  0  0  0  0  0  0
  188.7820  177.8770  141.0360 C   0  0  0  0  0  3  0  0  0  0  0  0
  186.4810  178.5070  140.6110 O   0  0  0  0  0  0  0  0  0  0  0  0
  191.5170  176.8560  138.6840 N   0  0  0  0  0  2  0  0  0  0  0  0
  190.8860  174.5600  138.0640 O   0  0  0  0  0  1  0  0  0  0  0  0
  191.8310  175.5780  138.1180 C   0  0  0  0  0  0  0  0  0  0  0  0
  192.9880  175.3690  137.6730 O   0  0  0  0  0  0  0  0  0  0  0  0
  184.5490  179.7850  143.9180 S   0  0  0  0  0  0  0  0  0  0  0  0
  184.4100  178.2480  144.8740 C   0  0  0  0  0  2  0  0  0  0  0  0
  186.5340  178.1410  146.2680 N   0  0  0  0  0  2  0  0  0  0  0  0
  185.1300  178.3950  146.1710 C   0  0  0  0  0  0  0  0  0  0  0  0
  184.4860  178.7210  147.2010 O   0  0  0  0  0  0  0  0  0  0  0  0
  187.3350  177.7520  145.1180 C   0  0  0  0  0  2  0  0  0  0  0  0
  191.9790  176.0850  146.4450 C   0  0  0  0  0  2  0  0  0  0  0  0
  188.0940  176.8870  147.9150 O   0  0  0  0  0  1  0  0  0  0  0  0
  190.2890  177.4660  147.4530 O   0  0  0  0  0  0  0  0  0  0  0  0
  191.9110  176.9880  145.2140 C   0  0  0  0  0  2  0  0  0  0  0  0
  190.7020  176.1340  147.2770 C   0  0  0  0  0  2  0  0  0  0  0  0
  188.9400  177.5810  147.0430 C   0  0  1  0  0  3  0  0  0  0  0  0
  190.7460  176.6700  144.4000 N   0  0  0  0  0  2  0  0  0  0  0  0
  189.7550  177.7120  144.6370 C   0  0  0  0  0  2  0  0  0  0  0  0
  188.6710  177.1910  145.5720 C   0  0  2  0  0  3  0  0  0  0  0  0
  1  3  2  0  0  0  0
  1 15  1  0  0  0  0
  2 13  1  0  0  0  0
  3 17  1  0  0  0  0
  4  1  1  0  0  0  0
  5 26  1  0  0  0  0
  7 19  2  0  0  0  0
  8  5  1  0  0  0  0
  9 19  1  0  0  0  0
  9  6  2  0  0  0  0
 11 12  1  0  0  0  0
 12  6  1  0  0  0  0
 12 16  1  0  0  0  0
 13 20  2  0  0  0  0
 14 21  1  0  0  0  0
 14 20  1  0  0  0  0
 15 10  2  0  0  0  0
 16 14  2  0  0  0  0
 17 10  1  0  0  0  0
 17  5  2  0  0  0  0
 18 16  1  0  0  0  0
 18  2  2  0  0  0  0
 19  4  1  0  0  0  0
 21  8  1  0  0  0  0
 22  2  1  0  0  0  0
 23 24  1  0  0  0  0
 24 22  1  0  0  0  0
 25 24  2  0  0  0  0
 26 27  1  0  0  0  0
 27 29  1  0  0  0  0
 29 28  1  0  0  0  0
 29 30  2  0  0  0  0
 31 28  1  0  0  0  0
 32 36  1  0  0  0  0
 35 32  1  0  0  0  0
 36 34  1  0  0  0  0
 37 34  1  0  0  0  0
 37 33  1  1  0  0  0
 38 39  1  0  0  0  0
 38 35  1  0  0  0  0
 39 40  1  0  0  0  0
 40 31  1  6  0  0  0
 40 37  1  0  0  0  0
M  END
>  <MODEL>
3

>  <REMARK>
 VINA RESULT:      -9.2      2.775      9.196
  Name = 
  6 active torsions:
  status: ('A' for Active; 'I' for Inactive)
    1  A    between atoms: C_1  and  N_10
    2  A    between atoms: C_1  and  C_34
    3  A    between atoms: C_3  and  N_4
    4  A    between atoms: C_9  and  S_11
    5  A    between atoms: S_11  and  C_37
    6  A    between atoms: C_18  and  C_37
                            x       y       z     vdW  Elec       q    Type
                         _______ _______ _______ _____ _____    ______ ____

>  <TORSDO>
F 6

$$$$
=
 OpenBabel11042413043D

 40 43  0  0  1  0  0  0  0  0999 V2000
  189.1070  175.2410  136.3250 C   0  0  0  0  0  0  0  0  0  0  0  0
  190.9580  177.5860  143.1440 C   0  0  0  0  0  0  0  0  0  0  0  0
  188.8140  175.8650  137.4080 N   0  0  0  0  0  0  0  0  0  0  0  0
  190.3080  174.3580  136.2430 C   0  0  0  0  0  2  0  0  0  0  0  0
  187.1900  177.5960  137.8850 C   0  0  0  0  0  0  0  0  0  0  0  0
  191.4220  176.1060  138.5050 C   0  0  0  0  0  3  0  0  0  0  0  0
  192.2520  175.1600  135.1440 O   0  0  0  0  0  0  0  0  0  0  0  0
  187.8100  177.8690  139.1500 N   0  0  0  0  0  2  0  0  0  0  0  0
  192.0800  175.9500  137.3540 C   0  0  0  0  0  3  0  0  0  0  0  0
  187.3840  176.4080  135.6690 C   0  0  0  0  0  3  0  0  0  0  0  0
  193.3300  177.3380  139.5680 C   0  0  0  0  0  1  0  0  0  0  0  0
  191.9350  176.9030  139.5880 N   0  0  0  0  0  0  0  0  0  0  0  0
  189.6010  177.8980  143.0050 C   0  0  0  0  0  3  0  0  0  0  0  0
  189.7450  177.5590  140.6060 C   0  0  0  0  0  0  0  0  0  0  0  0
  188.2440  175.5430  135.2250 N   0  0  0  0  0  0  0  0  0  0  0  0
  191.1160  177.2270  140.7330 C   0  0  0  0  0  0  0  0  0  0  0  0
  187.7140  176.6780  137.0630 C   0  0  0  0  0  0  0  0  0  0  0  0
  191.7030  177.2560  142.0090 C   0  0  0  0  0  3  0  0  0  0  0  0
  191.5770  175.1630  136.2060 C   0  0  0  0  0  0  0  0  0  0  0  0
  189.0000  177.8850  141.7460 C   0  0  0  0  0  3  0  0  0  0  0  0
  189.1430  177.5610  139.3490 O   0  0  0  0  0  0  0  0  0  0  0  0
  191.6120  177.5880  144.4190 N   0  0  0  0  0  2  0  0  0  0  0  0
  189.7110  176.8040  145.7690 O   0  0  0  0  0  0  0  0  0  0  0  0
  191.0400  177.1980  145.6730 C   0  0  0  0  0  0  0  0  0  0  0  0
  191.7520  177.2220  146.7090 O   0  0  0  0  0  1  0  0  0  0  0  0
  185.7370  178.5310  137.4100 S   0  0  0  0  0  0  0  0  0  0  0  0
  184.8480  178.0580  138.9210 C   0  0  0  0  0  2  0  0  0  0  0  0
  183.8280  179.1980  140.9520 N   0  0  0  0  0  2  0  0  0  0  0  0
  184.3970  179.2820  139.6440 C   0  0  0  0  0  0  0  0  0  0  0  0
  184.4950  180.4020  139.0800 O   0  0  0  0  0  0  0  0  0  0  0  0
  183.6790  177.9340  141.6560 C   0  0  0  0  0  2  0  0  0  0  0  0
  185.5420  178.5120  146.3780 C   0  0  0  0  0  2  0  0  0  0  0  0
  182.0630  178.9360  144.0090 O   0  0  0  0  0  1  0  0  0  0  0  0
  184.0210  179.7230  144.9640 O   0  0  0  0  0  0  0  0  0  0  0  0
  186.5600  178.5590  145.2390 C   0  0  0  0  0  2  0  0  0  0  0  0
  184.1070  178.6660  145.8870 C   0  0  0  0  0  2  0  0  0  0  0  0
  183.4090  179.2450  143.7820 C   0  0  1  0  0  3  0  0  0  0  0  0
  186.2480  177.5650  144.2220 N   0  0  0  0  0  2  0  0  0  0  0  0
  185.6560  178.2720  143.0940 C   0  0  0  0  0  2  0  0  0  0  0  0
  184.1450  178.0740  143.0950 C   0  0  2  0  0  3  0  0  0  0  0  0
  1  3  2  0  0  0  0
  2 22  1  0  0  0  0
  4  1  1  0  0  0  0
  5  8  1  0  0  0  0
  6 12  1  0  0  0  0
  7 19  2  0  0  0  0
  8 21  1  0  0  0  0
  9  6  2  0  0  0  0
 10 17  1  0  0  0  0
 11 12  1  0  0  0  0
 12 16  1  0  0  0  0
 13  2  1  0  0  0  0
 14 16  2  0  0  0  0
 14 20  1  0  0  0  0
 15 10  2  0  0  0  0
 15  1  1  0  0  0  0
 16 18  1  0  0  0  0
 17  3  1  0  0  0  0
 17  5  2  0  0  0  0
 18  2  2  0  0  0  0
 19  4  1  0  0  0  0
 19  9  1  0  0  0  0
 20 13  2  0  0  0  0
 21 14  1  0  0  0  0
 22 24  1  0  0  0  0
 24 23  2  0  0  0  0
 24 25  1  0  0  0  0
 26  5  1  0  0  0  0
 26 27  1  0  0  0  0
 27 29  1  0  0  0  0
 28 31  1  0  0  0  0
 29 28  1  0  0  0  0
 30 29  2  0  0  0  0
 34 36  1  0  0  0  0
 35 32  1  0  0  0  0
 36 32  1  0  0  0  0
 37 33  1  1  0  0  0
 37 34  1  0  0  0  0
 38 35  1  0  0  0  0
 39 40  1  0  0  0  0
 39 38  1  0  0  0  0
 40 31  1  6  0  0  0
 40 37  1  0  0  0  0
M  END
>  <MODEL>
4

>  <REMARK>
 VINA RESULT:      -9.1      2.473      9.142
  Name = 
  6 active torsions:
  status: ('A' for Active; 'I' for Inactive)
    1  A    between atoms: C_1  and  N_10
    2  A    between atoms: C_1  and  C_34
    3  A    between atoms: C_3  and  N_4
    4  A    between atoms: C_9  and  S_11
    5  A    between atoms: S_11  and  C_37
    6  A    between atoms: C_18  and  C_37
                            x       y       z     vdW  Elec       q    Type
                         _______ _______ _______ _____ _____    ______ ____

>  <TORSDO>
F 6

$$$$
=
 OpenBabel11042413043D

 40 43  0  0  1  0  0  0  0  0999 V2000
  188.0560  178.4530  137.9000 C   0  0  0  0  0  0  0  0  0  0  0  0
  182.4170  179.1150  142.7160 C   0  0  0  0  0  0  0  0  0  0  0  0
  187.6200  178.5140  139.1060 N   0  0  0  0  0  0  0  0  0  0  0  0
  187.1830  178.8150  136.7450 C   0  0  0  0  0  2  0  0  0  0  0  0
  188.5550  177.7420  141.2030 C   0  0  0  0  0  0  0  0  0  0  0  0
  184.8590  178.0780  138.6060 C   0  0  0  0  0  3  0  0  0  0  0  0
  186.2230  177.0800  135.4410 O   0  0  0  0  0  0  0  0  0  0  0  0
  187.2950  177.9230  141.8640 N   0  0  0  0  0  2  0  0  0  0  0  0
  185.0160  177.4890  137.4190 C   0  0  0  0  0  3  0  0  0  0  0  0
  189.7690  177.6590  138.9930 C   0  0  0  0  0  3  0  0  0  0  0  0
  182.6300  176.9940  138.9840 C   0  0  0  0  0  1  0  0  0  0  0  0
  183.7640  177.7650  139.4870 N   0  0  0  0  0  0  0  0  0  0  0  0
  183.5760  179.1750  143.4990 C   0  0  0  0  0  3  0  0  0  0  0  0
  184.8930  178.3080  141.6540 C   0  0  0  0  0  0  0  0  0  0  0  0
  189.3840  177.9350  137.7860 N   0  0  0  0  0  0  0  0  0  0  0  0
  183.7320  178.2560  140.8450 C   0  0  0  0  0  0  0  0  0  0  0  0
  188.6670  177.9840  139.8900 C   0  0  0  0  0  0  0  0  0  0  0  0
  182.5040  178.6550  141.4000 C   0  0  0  0  0  3  0  0  0  0  0  0
  186.1400  177.7620  136.4950 C   0  0  0  0  0  0  0  0  0  0  0  0
  184.8040  178.7730  142.9720 C   0  0  0  0  0  3  0  0  0  0  0  0
  186.1200  177.8950  141.1360 O   0  0  0  0  0  0  0  0  0  0  0  0
  181.1370  179.5180  143.2210 N   0  0  0  0  0  2  0  0  0  0  0  0
  180.2920  177.2830  143.8050 O   0  0  0  0  0  0  0  0  0  0  0  0
  180.1250  178.6620  143.7630 C   0  0  0  0  0  0  0  0  0  0  0  0
  179.0590  179.1670  144.1990 O   0  0  0  0  0  1  0  0  0  0  0  0
  189.9570  177.1510  142.1490 S   0  0  0  0  0  0  0  0  0  0  0  0
  189.8810  178.5650  143.2850 C   0  0  0  0  0  2  0  0  0  0  0  0
  191.2050  177.7170  145.2840 N   0  0  0  0  0  2  0  0  0  0  0  0
  191.0950  178.5810  144.1510 C   0  0  0  0  0  0  0  0  0  0  0  0
  192.0250  179.3880  143.8930 O   0  0  0  0  0  0  0  0  0  0  0  0
  190.1620  176.7670  145.6420 C   0  0  0  0  0  2  0  0  0  0  0  0
  185.9470  179.0020  147.4730 C   0  0  0  0  0  2  0  0  0  0  0  0
  189.9080  177.8770  148.4440 O   0  0  0  0  0  1  0  0  0  0  0  0
  187.6230  177.5100  148.3370 O   0  0  0  0  0  0  0  0  0  0  0  0
  185.7460  178.0240  146.3160 C   0  0  0  0  0  2  0  0  0  0  0  0
  187.3220  178.8660  148.1210 C   0  0  0  0  0  2  0  0  0  0  0  0
  188.8800  177.2260  147.7530 C   0  0  1  0  0  3  0  0  0  0  0  0
  186.8050  178.1650  145.3260 N   0  0  0  0  0  2  0  0  0  0  0  0
  187.7130  177.0390  145.5010 C   0  0  0  0  0  2  0  0  0  0  0  0
  188.9680  177.4950  146.2340 C   0  0  2  0  0  3  0  0  0  0  0  0
  1  3  2  0  0  0  0
  2 22  1  0  0  0  0
  2 13  1  0  0  0  0
  3 17  1  0  0  0  0
  4  1  1  0  0  0  0
  5  8  1  0  0  0  0
  5 26  1  0  0  0  0
  6 12  1  0  0  0  0
  7 19  2  0  0  0  0
  9  6  2  0  0  0  0
 10 17  1  0  0  0  0
 11 12  1  0  0  0  0
 12 16  1  0  0  0  0
 14 20  1  0  0  0  0
 15  1  1  0  0  0  0
 15 10  2  0  0  0  0
 16 18  1  0  0  0  0
 16 14  2  0  0  0  0
 17  5  2  0  0  0  0
 18  2  2  0  0  0  0
 19  4  1  0  0  0  0
 19  9  1  0  0  0  0
 20 13  2  0  0  0  0
 21 14  1  0  0  0  0
 21  8  1  0  0  0  0
 22 24  1  0  0  0  0
 24 23  2  0  0  0  0
 24 25  1  0  0  0  0
 26 27  1  0  0  0  0
 27 29  1  0  0  0  0
 28 31  1  0  0  0  0
 29 28  1  0  0  0  0
 30 29  2  0  0  0  0
 32 36  1  0  0  0  0
 35 32  1  0  0  0  0
 36 34  1  0  0  0  0
 37 34  1  0  0  0  0
 37 33  1  1  0  0  0
 38 39  1  0  0  0  0
 38 35  1  0  0  0  0
 39 40  1  0  0  0  0
 40 31  1  6  0  0  0
 40 37  1  0  0  0  0
M  END
>  <MODEL>
5

>  <REMARK>
 VINA RESULT:      -8.9      3.384      7.655
  Name = 
  6 active torsions:
  status: ('A' for Active; 'I' for Inactive)
    1  A    between atoms: C_1  and  N_10
    2  A    between atoms: C_1  and  C_34
    3  A    between atoms: C_3  and  N_4
    4  A    between atoms: C_9  and  S_11
    5  A    between atoms: S_11  and  C_37
    6  A    between atoms: C_18  and  C_37
                            x       y       z     vdW  Elec       q    Type
                         _______ _______ _______ _____ _____    ______ ____

>  <TORSDO>
F 6

$$$$
=
 OpenBabel11042413043D

 40 43  0  0  1  0  0  0  0  0999 V2000
  185.7920  178.9280  139.7350 C   0  0  0  0  0  0  0  0  0  0  0  0
  190.9750  177.4880  144.8820 C   0  0  0  0  0  0  0  0  0  0  0  0
  186.9810  178.5570  140.0480 N   0  0  0  0  0  0  0  0  0  0  0  0
  184.8900  179.5610  140.7410 C   0  0  0  0  0  2  0  0  0  0  0  0
  188.6300  177.2420  138.8580 C   0  0  0  0  0  0  0  0  0  0  0  0
  186.5790  178.0550  142.8130 C   0  0  0  0  0  3  0  0  0  0  0  0
  183.1670  178.2570  141.7210 O   0  0  0  0  0  0  0  0  0  0  0  0
  189.4080  177.0850  140.0520 N   0  0  0  0  0  2  0  0  0  0  0  0
  185.2550  177.8960  142.7420 C   0  0  0  0  0  3  0  0  0  0  0  0
  186.4290  177.9850  137.8720 C   0  0  0  0  0  3  0  0  0  0  0  0
  186.7490  176.7090  144.9210 C   0  0  0  0  0  1  0  0  0  0  0  0
  187.3880  177.3770  143.7910 N   0  0  0  0  0  0  0  0  0  0  0  0
  191.6430  177.3990  143.6550 C   0  0  0  0  0  3  0  0  0  0  0  0
  189.5200  177.2960  142.4820 C   0  0  0  0  0  0  0  0  0  0  0  0
  185.4130  178.5980  138.3950 N   0  0  0  0  0  0  0  0  0  0  0  0
  188.8310  177.4000  143.7150 C   0  0  0  0  0  0  0  0  0  0  0  0
  187.4640  177.9020  138.8950 C   0  0  0  0  0  0  0  0  0  0  0  0
  189.5780  177.4860  144.9010 C   0  0  0  0  0  3  0  0  0  0  0  0
  184.3890  178.5530  141.7380 C   0  0  0  0  0  0  0  0  0  0  0  0
  190.9210  177.3030  142.4650 C   0  0  0  0  0  3  0  0  0  0  0  0
  188.8040  177.1850  141.2910 O   0  0  0  0  0  0  0  0  0  0  0  0
  191.6810  177.5890  146.1260 N   0  0  0  0  0  2  0  0  0  0  0  0
  190.5530  175.7430  147.2970 O   0  0  0  0  0  0  0  0  0  0  0  0
  191.5080  176.7530  147.2750 C   0  0  0  0  0  0  0  0  0  0  0  0
  192.2260  176.9430  148.2890 O   0  0  0  0  0  1  0  0  0  0  0  0
  189.2190  176.5090  137.3330 S   0  0  0  0  0  0  0  0  0  0  0  0
  190.8030  176.0380  138.0850 C   0  0  0  0  0  2  0  0  0  0  0  0
  192.5320  174.4530  137.1020 N   0  0  0  0  0  2  0  0  0  0  0  0
  191.2120  174.6900  137.5960 C   0  0  0  0  0  0  0  0  0  0  0  0
  190.3710  173.7540  137.5930 O   0  0  0  0  0  0  0  0  0  0  0  0
  193.5490  175.4940  137.0700 C   0  0  0  0  0  2  0  0  0  0  0  0
  198.0650  173.1230  137.3660 C   0  0  0  0  0  2  0  0  0  0  0  0
  196.0720  176.4710  135.7180 O   0  0  0  0  0  1  0  0  0  0  0  0
  196.8360  174.2850  135.6570 O   0  0  0  0  0  0  0  0  0  0  0  0
  196.8290  172.2540  137.5930 C   0  0  0  0  0  2  0  0  0  0  0  0
  197.7260  174.4670  136.7300 C   0  0  0  0  0  2  0  0  0  0  0  0
  195.7140  175.1250  135.8510 C   0  0  1  0  0  3  0  0  0  0  0  0
  195.8310  172.9650  138.3800 N   0  0  0  0  0  2  0  0  0  0  0  0
  194.7830  173.3930  137.4640 C   0  0  0  0  0  2  0  0  0  0  0  0
  194.9340  174.8790  137.1610 C   0  0  2  0  0  3  0  0  0  0  0  0
  1  3  2  0  0  0  0
  1  4  1  0  0  0  0
  2 18  1  0  0  0  0
  2 22  1  0  0  0  0
  4 19  1  0  0  0  0
  5 17  2  0  0  0  0
  5  8  1  0  0  0  0
  6 12  1  0  0  0  0
  7 19  2  0  0  0  0
  8 21  1  0  0  0  0
  9  6  2  0  0  0  0
 10 15  2  0  0  0  0
 10 17  1  0  0  0  0
 12 11  1  0  0  0  0
 13  2  2  0  0  0  0
 14 16  1  0  0  0  0
 15  1  1  0  0  0  0
 16 12  1  0  0  0  0
 16 18  2  0  0  0  0
 17  3  1  0  0  0  0
 19  9  1  0  0  0  0
 20 14  2  0  0  0  0
 20 13  1  0  0  0  0
 21 14  1  0  0  0  0
 22 24  1  0  0  0  0
 24 23  2  0  0  0  0
 24 25  1  0  0  0  0
 26 27  1  0  0  0  0
 26  5  1  0  0  0  0
 28 29  1  0  0  0  0
 29 27  1  0  0  0  0
 30 29  2  0  0  0  0
 31 28  1  0  0  0  0
 32 35  1  0  0  0  0
 34 37  1  0  0  0  0
 34 36  1  0  0  0  0
 35 38  1  0  0  0  0
 36 32  1  0  0  0  0
 37 33  1  1  0  0  0
 37 40  1  0  0  0  0
 39 38  1  0  0  0  0
 40 31  1  6  0  0  0
 40 39  1  0  0  0  0
M  END
>  <MODEL>
6

>  <REMARK>
 VINA RESULT:      -8.7      2.466      5.892
  Name = 
  6 active torsions:
  status: ('A' for Active; 'I' for Inactive)
    1  A    between atoms: C_1  and  N_10
    2  A    between atoms: C_1  and  C_34
    3  A    between atoms: C_3  and  N_4
    4  A    between atoms: C_9  and  S_11
    5  A    between atoms: S_11  and  C_37
    6  A    between atoms: C_18  and  C_37
                            x       y       z     vdW  Elec       q    Type
                         _______ _______ _______ _____ _____    ______ ____

>  <TORSDO>
F 6

$$$$
=
 OpenBabel11042413043D

 40 43  0  0  1  0  0  0  0  0999 V2000
  190.8340  176.5060  138.5040 C   0  0  0  0  0  0  0  0  0  0  0  0
  187.5650  177.7210  145.0820 C   0  0  0  0  0  0  0  0  0  0  0  0
  189.7890  176.7830  139.1960 N   0  0  0  0  0  0  0  0  0  0  0  0
  192.0810  176.0070  139.1540 C   0  0  0  0  0  2  0  0  0  0  0  0
  187.7120  177.8840  138.6160 C   0  0  0  0  0  0  0  0  0  0  0  0
  191.0440  177.4540  141.6530 C   0  0  0  0  0  3  0  0  0  0  0  0
  193.8930  177.5080  139.4710 O   0  0  0  0  0  0  0  0  0  0  0  0
  187.3680  178.0280  140.0010 N   0  0  0  0  0  2  0  0  0  0  0  0
  192.2440  177.7280  141.1350 C   0  0  0  0  0  3  0  0  0  0  0  0
  189.5170  177.2960  136.9540 C   0  0  0  0  0  3  0  0  0  0  0  0
  191.4570  178.8800  143.6730 C   0  0  0  0  0  1  0  0  0  0  0  0
  190.5460  178.1030  142.8370 N   0  0  0  0  0  0  0  0  0  0  0  0
  186.5190  177.6900  144.1530 C   0  0  0  0  0  3  0  0  0  0  0  0
  188.1020  177.9280  142.3280 C   0  0  0  0  0  0  0  0  0  0  0  0
  190.7060  176.8030  137.1110 N   0  0  0  0  0  0  0  0  0  0  0  0
  189.1720  177.9460  143.2550 C   0  0  0  0  0  0  0  0  0  0  0  0
  188.8830  177.3350  138.2660 C   0  0  0  0  0  0  0  0  0  0  0  0
  188.8800  177.8510  144.6260 C   0  0  0  0  0  3  0  0  0  0  0  0
  192.7830  177.1040  139.9060 C   0  0  0  0  0  0  0  0  0  0  0  0
  186.7850  177.7930  142.7870 C   0  0  0  0  0  3  0  0  0  0  0  0
  188.3610  178.0440  140.9640 O   0  0  0  0  0  0  0  0  0  0  0  0
  187.3330  177.6180  146.4920 N   0  0  0  0  0  2  0  0  0  0  0  0
  189.5450  176.7490  147.1300 O   0  0  0  0  0  0  0  0  0  0  0  0
  188.2710  177.1800  147.4820 C   0  0  0  0  0  0  0  0  0  0  0  0
  187.9310  177.1730  148.6930 O   0  0  0  0  0  1  0  0  0  0  0  0
  186.5730  178.4860  137.3710 S   0  0  0  0  0  0  0  0  0  0  0  0
  185.2130  178.6100  138.5670 C   0  0  0  0  0  2  0  0  0  0  0  0
  182.7620  177.9400  138.4710 N   0  0  0  0  0  2  0  0  0  0  0  0
  184.1350  177.6450  138.2050 C   0  0  0  0  0  0  0  0  0  0  0  0
  184.4430  176.5440  137.6820 O   0  0  0  0  0  0  0  0  0  0  0  0
  182.3390  179.1920  139.0800 C   0  0  0  0  0  2  0  0  0  0  0  0
  181.0480  178.5470  143.9820 C   0  0  0  0  0  2  0  0  0  0  0  0
  179.5020  179.3290  140.1220 O   0  0  0  0  0  1  0  0  0  0  0  0
  180.3360  179.9760  142.1850 O   0  0  0  0  0  0  0  0  0  0  0  0
  182.4800  179.0090  143.7140 C   0  0  0  0  0  2  0  0  0  0  0  0
  180.1440  178.7100  142.7640 C   0  0  0  0  0  2  0  0  0  0  0  0
  180.6240  179.8070  140.8100 C   0  0  1  0  0  3  0  0  0  0  0  0
  183.0390  178.3270  142.5560 N   0  0  0  0  0  2  0  0  0  0  0  0
  183.0270  179.2730  141.4490 C   0  0  0  0  0  2  0  0  0  0  0  0
  181.8740  178.9520  140.5060 C   0  0  2  0  0  3  0  0  0  0  0  0
  1  4  1  0  0  0  0
  1  3  2  0  0  0  0
  2 22  1  0  0  0  0
  4 19  1  0  0  0  0
  5  8  1  0  0  0  0
  6 12  1  0  0  0  0
  7 19  2  0  0  0  0
  8 21  1  0  0  0  0
  9  6  2  0  0  0  0
 10 15  2  0  0  0  0
 10 17  1  0  0  0  0
 12 16  1  0  0  0  0
 12 11  1  0  0  0  0
 13  2  2  0  0  0  0
 14 20  2  0  0  0  0
 14 16  1  0  0  0  0
 15  1  1  0  0  0  0
 16 18  2  0  0  0  0
 17  5  2  0  0  0  0
 17  3  1  0  0  0  0
 18  2  1  0  0  0  0
 19  9  1  0  0  0  0
 20 13  1  0  0  0  0
 21 14  1  0  0  0  0
 22 24  1  0  0  0  0
 23 24  2  0  0  0  0
 24 25  1  0  0  0  0
 26 27  1  0  0  0  0
 26  5  1  0  0  0  0
 28 31  1  0  0  0  0
 29 28  1  0  0  0  0
 29 27  1  0  0  0  0
 30 29  2  0  0  0  0
 34 36  1  0  0  0  0
 35 32  1  0  0  0  0
 36 32  1  0  0  0  0
 37 33  1  6  0  0  0
 37 34  1  0  0  0  0
 38 35  1  0  0  0  0
 39 38  1  0  0  0  0
 40 31  1  6  0  0  0
 40 37  1  0  0  0  0
 40 39  1  0  0  0  0
M  END
>  <MODEL>
7

>  <REMARK>
 VINA RESULT:      -8.4      2.342      8.605
  Name = 
  6 active torsions:
  status: ('A' for Active; 'I' for Inactive)
    1  A    between atoms: C_1  and  N_10
    2  A    between atoms: C_1  and  C_34
    3  A    between atoms: C_3  and  N_4
    4  A    between atoms: C_9  and  S_11
    5  A    between atoms: S_11  and  C_37
    6  A    between atoms: C_18  and  C_37
                            x       y       z     vdW  Elec       q    Type
                         _______ _______ _______ _____ _____    ______ ____

>  <TORSDO>
F 6

$$$$
=
 OpenBabel11042413043D

 40 43  0  0  1  0  0  0  0  0999 V2000
  190.3070  175.0420  136.1140 C   0  0  0  0  0  0  0  0  0  0  0  0
  190.3020  177.5890  143.1100 C   0  0  0  0  0  0  0  0  0  0  0  0
  189.6970  175.5930  137.1000 N   0  0  0  0  0  0  0  0  0  0  0  0
  191.6320  174.3810  136.2980 C   0  0  0  0  0  2  0  0  0  0  0  0
  187.7380  177.0120  137.1990 C   0  0  0  0  0  0  0  0  0  0  0  0
  191.9470  176.2680  138.6960 C   0  0  0  0  0  3  0  0  0  0  0  0
  193.5920  175.5200  135.5960 O   0  0  0  0  0  0  0  0  0  0  0  0
  188.0310  177.3710  138.5560 N   0  0  0  0  0  2  0  0  0  0  0  0
  192.8420  176.2410  137.7060 C   0  0  0  0  0  3  0  0  0  0  0  0
  188.5790  175.9010  135.0950 C   0  0  0  0  0  3  0  0  0  0  0  0
  193.3580  177.7970  140.0950 C   0  0  0  0  0  1  0  0  0  0  0  0
  192.0840  177.1270  139.8420 N   0  0  0  0  0  0  0  0  0  0  0  0
  188.9680  177.6630  142.6920 C   0  0  0  0  0  3  0  0  0  0  0  0
  189.6530  177.3830  140.3800 C   0  0  0  0  0  0  0  0  0  0  0  0
  189.6460  175.2040  134.8560 N   0  0  0  0  0  0  0  0  0  0  0  0
  191.0060  177.2910  140.7890 C   0  0  0  0  0  0  0  0  0  0  0  0
  188.5670  176.2080  136.5210 C   0  0  0  0  0  0  0  0  0  0  0  0
  191.3070  177.4060  142.1570 C   0  0  0  0  0  3  0  0  0  0  0  0
  192.7250  175.3930  136.4990 C   0  0  0  0  0  0  0  0  0  0  0  0
  188.6470  177.5620  141.3380 C   0  0  0  0  0  3  0  0  0  0  0  0
  189.3280  177.2960  139.0280 O   0  0  0  0  0  0  0  0  0  0  0  0
  190.6730  177.6880  144.4910 N   0  0  0  0  0  2  0  0  0  0  0  0
  191.9690  175.6020  144.6370 O   0  0  0  0  0  0  0  0  0  0  0  0
  191.4840  176.7640  145.2260 C   0  0  0  0  0  0  0  0  0  0  0  0
  191.7520  177.0030  146.4300 O   0  0  0  0  0  1  0  0  0  0  0  0
  186.2730  177.6870  136.4180 S   0  0  0  0  0  0  0  0  0  0  0  0
  185.5390  178.1400  138.0150 C   0  0  0  0  0  2  0  0  0  0  0  0
  183.1770  177.9210  138.9310 N   0  0  0  0  0  2  0  0  0  0  0  0
  184.2910  177.3550  138.2360 C   0  0  0  0  0  0  0  0  0  0  0  0
  184.2280  176.1670  137.8280 O   0  0  0  0  0  0  0  0  0  0  0  0
  183.1870  179.2860  139.4360 C   0  0  0  0  0  2  0  0  0  0  0  0
  182.9320  179.0600  144.5340 C   0  0  0  0  0  2  0  0  0  0  0  0
  185.5940  179.4040  141.2650 O   0  0  0  0  0  1  0  0  0  0  0  0
  184.4030  178.1950  142.8410 O   0  0  0  0  0  0  0  0  0  0  0  0
  181.7660  178.4330  143.7700 C   0  0  0  0  0  2  0  0  0  0  0  0
  184.1430  179.3190  143.6430 C   0  0  0  0  0  2  0  0  0  0  0  0
  184.4660  178.6070  141.4890 C   0  0  1  0  0  3  0  0  0  0  0  0
  181.4020  179.2460  142.6190 N   0  0  0  0  0  2  0  0  0  0  0  0
  181.9240  178.5780  141.4340 C   0  0  0  0  0  2  0  0  0  0  0  0
  183.1850  179.2850  140.9550 C   0  0  2  0  0  3  0  0  0  0  0  0
  1  4  1  0  0  0  0
  1  3  2  0  0  0  0
  2 22  1  0  0  0  0
  4 19  1  0  0  0  0
  5  8  1  0  0  0  0
  6 12  1  0  0  0  0
  7 19  2  0  0  0  0
  8 21  1  0  0  0  0
  9  6  2  0  0  0  0
 10 17  1  0  0  0  0
 12 11  1  0  0  0  0
 12 16  1  0  0  0  0
 13  2  1  0  0  0  0
 14 16  2  0  0  0  0
 14 20  1  0  0  0  0
 15 10  2  0  0  0  0
 15  1  1  0  0  0  0
 16 18  1  0  0  0  0
 17  3  1  0  0  0  0
 17  5  2  0  0  0  0
 18  2  2  0  0  0  0
 19  9  1  0  0  0  0
 20 13  2  0  0  0  0
 21 14  1  0  0  0  0
 22 24  1  0  0  0  0
 23 24  2  0  0  0  0
 24 25  1  0  0  0  0
 26  5  1  0  0  0  0
 26 27  1  0  0  0  0
 27 29  1  0  0  0  0
 28 31  1  0  0  0  0
 29 28  1  0  0  0  0
 30 29  2  0  0  0  0
 34 36  1  0  0  0  0
 35 32  1  0  0  0  0
 36 32  1  0  0  0  0
 37 33  1  1  0  0  0
 37 34  1  0  0  0  0
 38 35  1  0  0  0  0
 39 38  1  0  0  0  0
 40 31  1  6  0  0  0
 40 39  1  0  0  0  0
 40 37  1  0  0  0  0
M  END
>  <MODEL>
8

>  <REMARK>
 VINA RESULT:      -8.4      2.508      9.200
  Name = 
  6 active torsions:
  status: ('A' for Active; 'I' for Inactive)
    1  A    between atoms: C_1  and  N_10
    2  A    between atoms: C_1  and  C_34
    3  A    between atoms: C_3  and  N_4
    4  A    between atoms: C_9  and  S_11
    5  A    between atoms: S_11  and  C_37
    6  A    between atoms: C_18  and  C_37
                            x       y       z     vdW  Elec       q    Type
                         _______ _______ _______ _____ _____    ______ ____

>  <TORSDO>
F 6

$$$$
=
 OpenBabel11042413043D

 40 43  0  0  1  0  0  0  0  0999 V2000
  189.6620  177.9330  147.6960 C   0  0  0  0  0  0  0  0  0  0  0  0
  189.9910  177.6010  140.2660 C   0  0  0  0  0  0  0  0  0  0  0  0
  189.1080  178.0800  146.5470 N   0  0  0  0  0  0  0  0  0  0  0  0
  191.1370  177.7470  147.8250 C   0  0  0  0  0  2  0  0  0  0  0  0
  186.7860  178.0960  145.8630 C   0  0  0  0  0  0  0  0  0  0  0  0
  190.9840  176.6550  144.9620 C   0  0  0  0  0  3  0  0  0  0  0  0
  191.9900  175.5700  148.2310 O   0  0  0  0  0  0  0  0  0  0  0  0
  187.1610  177.9710  144.4850 N   0  0  0  0  0  2  0  0  0  0  0  0
  191.4980  175.9320  145.9590 C   0  0  0  0  0  3  0  0  0  0  0  0
  187.5560  177.9910  148.2640 C   0  0  0  0  0  3  0  0  0  0  0  0
  191.6800  174.9840  143.2280 C   0  0  0  0  0  1  0  0  0  0  0  0
  190.9220  176.1730  143.6070 N   0  0  0  0  0  0  0  0  0  0  0  0
  188.7580  178.1980  140.5520 C   0  0  0  0  0  3  0  0  0  0  0  0
  188.9190  177.4780  142.8640 C   0  0  0  0  0  0  0  0  0  0  0  0
  188.7370  177.8790  148.7870 N   0  0  0  0  0  0  0  0  0  0  0  0
  190.1750  176.8810  142.5940 C   0  0  0  0  0  0  0  0  0  0  0  0
  187.7240  178.0980  146.8200 C   0  0  0  0  0  0  0  0  0  0  0  0
  190.6860  176.9470  141.2860 C   0  0  0  0  0  3  0  0  0  0  0  0
  191.5580  176.3780  147.3680 C   0  0  0  0  0  0  0  0  0  0  0  0
  188.2260  178.1360  141.8400 C   0  0  0  0  0  3  0  0  0  0  0  0
  188.3780  177.4070  144.1460 O   0  0  0  0  0  0  0  0  0  0  0  0
  190.5710  177.6420  138.9560 N   0  0  0  0  0  2  0  0  0  0  0  0
  190.2990  175.2620  138.3970 O   0  0  0  0  0  1  0  0  0  0  0  0
  190.7040  176.5440  138.0460 C   0  0  0  0  0  0  0  0  0  0  0  0
  191.2080  176.7420  136.9110 O   0  0  0  0  0  0  0  0  0  0  0  0
  185.0480  178.2070  146.2850 S   0  0  0  0  0  0  0  0  0  0  0  0
  184.6970  179.2870  144.8680 C   0  0  0  0  0  2  0  0  0  0  0  0
  183.2020  178.6200  142.9220 N   0  0  0  0  0  2  0  0  0  0  0  0
  183.3580  178.9580  144.3020 C   0  0  0  0  0  0  0  0  0  0  0  0
  182.3450  179.0040  145.0470 O   0  0  0  0  0  0  0  0  0  0  0  0
  184.3310  178.5560  142.0060 C   0  0  0  0  0  2  0  0  0  0  0  0
  182.4700  177.0530  137.4910 C   0  0  0  0  0  2  0  0  0  0  0  0
  185.7260  179.0030  139.3590 O   0  0  0  0  0  1  0  0  0  0  0  0
  183.6600  178.9730  138.3120 O   0  0  0  0  0  0  0  0  0  0  0  0
  181.4470  177.2730  138.6050 C   0  0  0  0  0  2  0  0  0  0  0  0
  183.8270  177.6700  137.8130 C   0  0  0  0  0  2  0  0  0  0  0  0
  184.3420  179.0760  139.5480 C   0  0  1  0  0  3  0  0  0  0  0  0
  181.9530  176.7830  139.8790 N   0  0  0  0  0  2  0  0  0  0  0  0
  182.3540  177.9450  140.6600 C   0  0  0  0  0  2  0  0  0  0  0  0
  183.8710  178.0870  140.6360 C   0  0  2  0  0  3  0  0  0  0  0  0
  1  4  1  0  0  0  0
  1 15  1  0  0  0  0
  2 13  2  0  0  0  0
  2 18  1  0  0  0  0
  3 17  1  0  0  0  0
  3  1  2  0  0  0  0
  5 26  1  0  0  0  0
  5 17  2  0  0  0  0
  6  9  2  0  0  0  0
  8  5  1  0  0  0  0
  9 19  1  0  0  0  0
 10 15  2  0  0  0  0
 11 12  1  0  0  0  0
 12  6  1  0  0  0  0
 13 20  1  0  0  0  0
 14 21  1  0  0  0  0
 16 14  1  0  0  0  0
 16 12  1  0  0  0  0
 17 10  1  0  0  0  0
 18 16  2  0  0  0  0
 19  4  1  0  0  0  0
 19  7  2  0  0  0  0
 20 14  2  0  0  0  0
 21  8  1  0  0  0  0
 22  2  1  0  0  0  0
 24 23  1  0  0  0  0
 24 22  1  0  0  0  0
 25 24  2  0  0  0  0
 27 26  1  0  0  0  0
 28 29  1  0  0  0  0
 29 27  1  0  0  0  0
 29 30  2  0  0  0  0
 31 28  1  0  0  0  0
 32 36  1  0  0  0  0
 32 35  1  0  0  0  0
 34 37  1  0  0  0  0
 35 38  1  0  0  0  0
 36 34  1  0  0  0  0
 37 33  1  6  0  0  0
 37 40  1  0  0  0  0
 38 39  1  0  0  0  0
 40 39  1  0  0  0  0
 40 31  1  1  0  0  0
M  END
>  <MODEL>
9

>  <REMARK>
 VINA RESULT:      -8.3      3.086      8.666
  Name = 
  6 active torsions:
  status: ('A' for Active; 'I' for Inactive)
    1  A    between atoms: C_1  and  N_10
    2  A    between atoms: C_1  and  C_34
    3  A    between atoms: C_3  and  N_4
    4  A    between atoms: C_9  and  S_11
    5  A    between atoms: S_11  and  C_37
    6  A    between atoms: C_18  and  C_37
                            x       y       z     vdW  Elec       q    Type
                         _______ _______ _______ _____ _____    ______ ____

>  <TORSDO>
F 6

$$$$
