=
 OpenBabel11042410303D

 35 39  0  0  1  0  0  0  0  0999 V2000
  184.9890  179.3660  143.3550 C   0  0  2  0  0  0  0  0  0  0  0  0
  180.7820  178.1800  136.7430 C   0  0  0  0  0  3  0  0  0  0  0  0
  179.7830  177.0290  138.4990 C   0  0  0  0  0  0  0  0  0  0  0  0
  180.2930  179.8560  141.7310 N   0  0  0  0  0  0  0  0  0  0  0  0
  181.2060  178.8490  143.8260 C   0  0  0  0  0  2  0  0  0  0  0  0
  186.2180  178.4420  141.3020 C   0  0  0  0  0  2  0  0  0  0  0  0
  182.6780  178.5740  144.0880 C   0  0  0  0  0  2  0  0  0  0  0  0
  181.2850  177.8360  141.5430 N   0  0  0  0  0  0  0  0  0  0  0  0
  180.9220  178.8430  142.3600 C   0  0  0  0  0  0  0  0  0  0  0  0
  183.0920  177.8650  137.6490 C   0  0  0  0  0  2  0  0  0  0  0  0
  180.8660  178.2510  140.3370 C   0  0  0  0  0  0  0  0  0  0  0  0
  184.2590  178.0090  139.8500 C   0  0  0  0  0  2  0  0  0  0  0  0
  184.9930  178.3330  142.1920 C   0  0  2  0  0  3  0  0  0  0  0  0
  181.6800  178.3250  137.9790 C   0  0  2  0  0  3  0  0  0  0  0  0
  184.8840  178.9910  140.8250 C   0  0  1  0  0  3  0  0  0  0  0  0
  183.5320  179.7560  143.6390 C   0  0  0  0  0  2  0  0  0  0  0  0
  179.6010  177.4530  137.1670 N   0  0  0  0  0  0  0  0  0  0  0  0
  180.2530  179.4850  140.4390 C   0  0  0  0  0  2  0  0  0  0  0  0
  181.0710  177.4560  139.0840 C   0  0  2  0  0  3  0  0  0  0  0  0
  185.6760  180.5350  142.9980 O   0  0  0  0  0  1  0  0  0  0  0  0
  178.9310  176.3310  139.1080 O   0  0  0  0  0  0  0  0  0  0  0  0
  184.1200  178.6320  138.4650 C   0  0  1  0  0  3  0  0  0  0  0  0
  185.6450  178.8060  144.6070 C   0  0  0  0  0  0  0  0  0  0  0  0
  187.2070  177.2890  145.7000 C   0  0  0  0  0  3  0  0  0  0  0  0
  185.9980  178.9180  147.0170 C   0  0  0  0  0  3  0  0  0  0  0  0
  186.9120  177.8630  146.9460 C   0  0  0  0  0  0  0  0  0  0  0  0
  186.5830  177.7610  144.5420 C   0  0  0  0  0  3  0  0  0  0  0  0
  185.3760  179.3900  145.8580 C   0  0  0  0  0  3  0  0  0  0  0  0
  187.5130  177.4110  148.1240 O   0  0  0  0  0  0  0  0  0  0  0  0
  188.7530  177.9200  148.5970 C   0  0  0  0  0  1  0  0  0  0  0  0
  185.4500  178.5870  137.7290 C   0  0  0  0  0  2  0  0  0  0  0  0
  185.9840  177.2350  137.7440 N   0  0  0  0  0  2  0  0  0  0  0  0
  187.3250  177.3070  137.1920 C   0  0  0  0  0  2  0  0  0  0  0  0
  188.1420  178.2150  138.0000 C   0  0  0  0  0  0  0  0  0  0  0  0
  188.7850  178.9340  138.6380 N   0  0  0  0  0  0  0  0  0  0  0  0
  1 20  1  6  0  0  0
  1 16  1  0  0  0  0
  1 23  1  0  0  0  0
  2 17  2  0  0  0  0
  3 21  2  0  0  0  0
  4  9  2  0  0  0  0
  5  7  1  0  0  0  0
  8  9  1  0  0  0  0
  9  5  1  0  0  0  0
 10 14  1  0  0  0  0
 10 22  1  0  0  0  0
 11 18  1  0  0  0  0
 11  8  2  0  0  0  0
 13  6  1  6  0  0  0
 13  1  1  0  0  0  0
 14  2  1  6  0  0  0
 14 19  1  0  0  0  0
 15 12  1  6  0  0  0
 15  6  1  0  0  0  0
 15 13  1  0  0  0  0
 16  7  1  0  0  0  0
 17  3  1  0  0  0  0
 18  4  1  0  0  0  0
 19  3  1  6  0  0  0
 19 11  1  0  0  0  0
 22 31  1  6  0  0  0
 22 12  1  0  0  0  0
 23 28  1  0  0  0  0
 24 26  2  0  0  0  0
 26 25  1  0  0  0  0
 26 29  1  0  0  0  0
 27 23  2  0  0  0  0
 27 24  1  0  0  0  0
 28 25  2  0  0  0  0
 29 30  1  0  0  0  0
 31 32  1  0  0  0  0
 33 32  1  0  0  0  0
 33 34  1  0  0  0  0
 34 35  3  0  0  0  0
M  END
>  <MODEL>
1

>  <REMARK>
 VINA RESULT:      -7.3      0.000      0.000
  Name = 
  6 active torsions:
  status: ('A' for Active; 'I' for Inactive)
    1  A    between atoms: C_1  and  C_10
    2  A    between atoms: O_9  and  C_21
    3  A    between atoms: C_22  and  N_25
    4  A    between atoms: C_22  and  C_34
    5  A    between atoms: N_25  and  C_26
    6  A    between atoms: C_26  and  C_27
                            x       y       z     vdW  Elec       q    Type
                         _______ _______ _______ _____ _____    ______ ____

>  <TORSDO>
F 6

$$$$
=
 OpenBabel11042410303D

 35 39  0  0  1  0  0  0  0  0999 V2000
  185.0770  179.1320  141.6570 C   0  0  2  0  0  0  0  0  0  0  0  0
  191.8710  176.6120  138.4460 C   0  0  0  0  0  3  0  0  0  0  0  0
  190.0870  175.6820  137.2810 C   0  0  0  0  0  0  0  0  0  0  0  0
  187.3310  179.0130  137.2030 N   0  0  0  0  0  0  0  0  0  0  0  0
  185.0010  178.4190  137.8770 C   0  0  0  0  0  2  0  0  0  0  0  0
  186.7790  177.9890  143.1970 C   0  0  0  0  0  2  0  0  0  0  0  0
  184.5150  178.2970  139.3130 C   0  0  0  0  0  2  0  0  0  0  0  0
  187.0560  177.0670  138.3160 N   0  0  0  0  0  0  0  0  0  0  0  0
  186.4690  178.1610  137.7940 C   0  0  0  0  0  0  0  0  0  0  0  0
  190.6450  176.6150  140.6270 C   0  0  0  0  0  2  0  0  0  0  0  0
  188.3570  177.2550  138.0420 C   0  0  0  0  0  0  0  0  0  0  0  0
  188.3710  177.1890  141.4780 C   0  0  0  0  0  2  0  0  0  0  0  0
  186.0420  177.9310  141.8710 C   0  0  2  0  0  3  0  0  0  0  0  0
  190.5750  177.0150  139.1610 C   0  0  2  0  0  3  0  0  0  0  0  0
  187.5030  178.3560  141.9140 C   0  0  1  0  0  3  0  0  0  0  0  0
  185.0450  179.4540  140.1560 C   0  0  0  0  0  2  0  0  0  0  0  0
  191.4830  175.8760  137.2590 N   0  0  0  0  0  0  0  0  0  0  0  0
  188.5390  178.4410  137.3570 C   0  0  0  0  0  2  0  0  0  0  0  0
  189.4250  176.2900  138.4550 C   0  0  2  0  0  3  0  0  0  0  0  0
  185.5350  180.2770  142.3230 O   0  0  0  0  0  1  0  0  0  0  0  0
  189.4810  175.0280  136.3930 O   0  0  0  0  0  0  0  0  0  0  0  0
  189.8460  177.5740  141.4940 C   0  0  1  0  0  3  0  0  0  0  0  0
  183.6770  178.8260  142.1660 C   0  0  0  0  0  0  0  0  0  0  0  0
  182.0480  178.6850  143.9720 C   0  0  0  0  0  3  0  0  0  0  0  0
  181.3520  178.2650  141.6950 C   0  0  0  0  0  3  0  0  0  0  0  0
  181.0420  178.3460  143.0550 C   0  0  0  0  0  0  0  0  0  0  0  0
  183.3510  178.9290  143.5300 C   0  0  0  0  0  3  0  0  0  0  0  0
  182.6550  178.5090  141.2530 C   0  0  0  0  0  3  0  0  0  0  0  0
  179.7310  178.0900  143.4660 O   0  0  0  0  0  0  0  0  0  0  0  0
  179.0860  178.8410  144.4860 C   0  0  0  0  0  1  0  0  0  0  0  0
  190.3930  177.5120  142.9110 C   0  0  0  0  0  2  0  0  0  0  0  0
  190.3170  176.1510  143.4180 N   0  0  0  0  0  2  0  0  0  0  0  0
  191.6000  175.8570  144.0300 C   0  0  0  0  0  2  0  0  0  0  0  0
  191.6550  176.4520  145.3670 C   0  0  0  0  0  0  0  0  0  0  0  0
  191.6950  176.9220  146.4230 N   0  0  0  0  0  0  0  0  0  0  0  0
  1 13  1  0  0  0  0
  1 23  1  0  0  0  0
  1 20  1  1  0  0  0
  4 18  1  0  0  0  0
  4  9  2  0  0  0  0
  5  7  1  0  0  0  0
  7 16  1  0  0  0  0
  9  5  1  0  0  0  0
  9  8  1  0  0  0  0
 10 22  1  0  0  0  0
 11  8  2  0  0  0  0
 11 19  1  0  0  0  0
 12 22  1  0  0  0  0
 13 15  1  0  0  0  0
 13  6  1  1  0  0  0
 14  2  1  6  0  0  0
 14 10  1  0  0  0  0
 15 12  1  6  0  0  0
 15  6  1  0  0  0  0
 16  1  1  0  0  0  0
 17  3  1  0  0  0  0
 17  2  2  0  0  0  0
 18 11  1  0  0  0  0
 19  3  1  6  0  0  0
 19 14  1  0  0  0  0
 21  3  2  0  0  0  0
 22 31  1  1  0  0  0
 23 27  1  0  0  0  0
 25 26  2  0  0  0  0
 26 29  1  0  0  0  0
 26 24  1  0  0  0  0
 27 24  2  0  0  0  0
 28 25  1  0  0  0  0
 28 23  2  0  0  0  0
 29 30  1  0  0  0  0
 31 32  1  0  0  0  0
 32 33  1  0  0  0  0
 33 34  1  0  0  0  0
 34 35  3  0  0  0  0
M  END
>  <MODEL>
2

>  <REMARK>
 VINA RESULT:      -6.9      3.399      7.359
  Name = 
  6 active torsions:
  status: ('A' for Active; 'I' for Inactive)
    1  A    between atoms: C_1  and  C_10
    2  A    between atoms: O_9  and  C_21
    3  A    between atoms: C_22  and  N_25
    4  A    between atoms: C_22  and  C_34
    5  A    between atoms: N_25  and  C_26
    6  A    between atoms: C_26  and  C_27
                            x       y       z     vdW  Elec       q    Type
                         _______ _______ _______ _____ _____    ______ ____

>  <TORSDO>
F 6

$$$$
=
 OpenBabel11042410303D

 35 39  0  0  1  0  0  0  0  0999 V2000
  183.8140  178.2080  139.8370 C   0  0  2  0  0  0  0  0  0  0  0  0
  191.4080  176.7360  141.5660 C   0  0  0  0  0  3  0  0  0  0  0  0
  190.5700  178.2900  143.0790 C   0  0  0  0  0  0  0  0  0  0  0  0
  186.5840  176.7410  143.7240 N   0  0  0  0  0  0  0  0  0  0  0  0
  184.7850  178.4640  143.5510 C   0  0  0  0  0  2  0  0  0  0  0  0
  185.5500  178.5300  137.9780 C   0  0  0  0  0  2  0  0  0  0  0  0
  184.1760  178.9580  142.2480 C   0  0  0  0  0  2  0  0  0  0  0  0
  187.1230  178.6790  142.6960 N   0  0  0  0  0  0  0  0  0  0  0  0
  186.1730  177.9620  143.3270 C   0  0  0  0  0  0  0  0  0  0  0  0
  189.9760  177.5630  139.6890 C   0  0  0  0  0  2  0  0  0  0  0  0
  188.1820  177.8520  142.6930 C   0  0  0  0  0  0  0  0  0  0  0  0
  187.6080  178.2640  139.3290 C   0  0  0  0  0  2  0  0  0  0  0  0
  185.1930  178.7990  139.4290 C   0  0  2  0  0  3  0  0  0  0  0  0
  189.9790  177.0950  141.1360 C   0  0  2  0  0  3  0  0  0  0  0  0
  186.2120  177.7230  139.0820 C   0  0  1  0  0  3  0  0  0  0  0  0
  183.8960  177.7860  141.3110 C   0  0  0  0  0  2  0  0  0  0  0  0
  191.6600  177.4390  142.8100 N   0  0  0  0  0  0  0  0  0  0  0  0
  187.8660  176.6640  143.3230 C   0  0  0  0  0  2  0  0  0  0  0  0
  189.4940  178.2100  142.0680 C   0  0  2  0  0  3  0  0  0  0  0  0
  183.5110  177.0630  139.0880 O   0  0  0  0  0  1  0  0  0  0  0  0
  190.5430  179.0590  144.0750 O   0  0  0  0  0  0  0  0  0  0  0  0
  188.6640  177.2130  139.0050 C   0  0  1  0  0  3  0  0  0  0  0  0
  182.6890  179.2100  139.6320 C   0  0  0  0  0  0  0  0  0  0  0  0
  181.7920  181.2270  138.6010 C   0  0  0  0  0  3  0  0  0  0  0  0
  180.3670  179.8570  139.9940 C   0  0  0  0  0  3  0  0  0  0  0  0
  180.5430  180.9910  139.1970 C   0  0  0  0  0  0  0  0  0  0  0  0
  182.8510  180.3410  138.8120 C   0  0  0  0  0  3  0  0  0  0  0  0
  181.4270  178.9700  140.2030 C   0  0  0  0  0  3  0  0  0  0  0  0
  179.4650  181.8610  139.0110 O   0  0  0  0  0  0  0  0  0  0  0  0
  179.5410  183.0090  138.1770 C   0  0  0  0  0  1  0  0  0  0  0  0
  188.9040  177.1490  137.5060 C   0  0  0  0  0  2  0  0  0  0  0  0
  188.4490  175.8730  136.9790 N   0  0  0  0  0  2  0  0  0  0  0  0
  189.5560  175.3080  136.2290 C   0  0  0  0  0  2  0  0  0  0  0  0
  190.5940  174.8490  137.1540 C   0  0  0  0  0  0  0  0  0  0  0  0
  191.4120  174.4860  137.8860 N   0  0  0  0  0  0  0  0  0  0  0  0
  1 20  1  6  0  0  0
  1 16  1  0  0  0  0
  2 17  2  0  0  0  0
  3 21  2  0  0  0  0
  7  5  1  0  0  0  0
  8  9  1  0  0  0  0
  9  5  1  0  0  0  0
  9  4  2  0  0  0  0
 11  8  2  0  0  0  0
 11 18  1  0  0  0  0
 13  6  1  6  0  0  0
 13  1  1  0  0  0  0
 14 10  1  6  0  0  0
 14  2  1  0  0  0  0
 14 19  1  0  0  0  0
 15  6  1  6  0  0  0
 15 12  1  0  0  0  0
 15 13  1  0  0  0  0
 16  7  1  0  0  0  0
 17  3  1  0  0  0  0
 18  4  1  0  0  0  0
 19 11  1  1  0  0  0
 19  3  1  0  0  0  0
 22 31  1  6  0  0  0
 22 12  1  0  0  0  0
 22 10  1  0  0  0  0
 23  1  1  0  0  0  0
 23 28  1  0  0  0  0
 24 27  1  0  0  0  0
 24 26  2  0  0  0  0
 25 28  2  0  0  0  0
 26 25  1  0  0  0  0
 27 23  2  0  0  0  0
 29 26  1  0  0  0  0
 30 29  1  0  0  0  0
 32 31  1  0  0  0  0
 33 32  1  0  0  0  0
 33 34  1  0  0  0  0
 34 35  3  0  0  0  0
M  END
>  <MODEL>
3

>  <REMARK>
 VINA RESULT:      -6.7      3.431      7.762
  Name = 
  6 active torsions:
  status: ('A' for Active; 'I' for Inactive)
    1  A    between atoms: C_1  and  C_10
    2  A    between atoms: O_9  and  C_21
    3  A    between atoms: C_22  and  N_25
    4  A    between atoms: C_22  and  C_34
    5  A    between atoms: N_25  and  C_26
    6  A    between atoms: C_26  and  C_27
                            x       y       z     vdW  Elec       q    Type
                         _______ _______ _______ _____ _____    ______ ____

>  <TORSDO>
F 6

$$$$
=
 OpenBabel11042410303D

 35 39  0  0  1  0  0  0  0  0999 V2000
  189.5320  177.7700  139.7760 C   0  0  2  0  0  0  0  0  0  0  0  0
  186.2590  178.9770  146.8930 C   0  0  0  0  0  3  0  0  0  0  0  0
  187.6690  177.1310  147.0060 C   0  0  0  0  0  0  0  0  0  0  0  0
  190.9490  178.4490  144.5150 N   0  0  0  0  0  0  0  0  0  0  0  0
  191.6710  176.7700  142.8140 C   0  0  0  0  0  2  0  0  0  0  0  0
  186.9730  177.8660  139.9170 C   0  0  0  0  0  2  0  0  0  0  0  0
  190.9920  176.5450  141.4720 C   0  0  0  0  0  2  0  0  0  0  0  0
  189.5040  176.7740  144.0600 N   0  0  0  0  0  0  0  0  0  0  0  0
  190.7040  177.3300  143.8050 C   0  0  0  0  0  0  0  0  0  0  0  0
  185.6150  178.5320  144.5170 C   0  0  0  0  0  2  0  0  0  0  0  0
  188.9690  177.6010  144.9730 C   0  0  0  0  0  0  0  0  0  0  0  0
  186.7290  177.8810  142.3820 C   0  0  0  0  0  2  0  0  0  0  0  0
  188.2480  177.2980  140.5150 C   0  0  2  0  0  3  0  0  0  0  0  0
  186.7820  178.6920  145.4790 C   0  0  2  0  0  3  0  0  0  0  0  0
  187.5220  178.4390  141.2130 C   0  0  1  0  0  3  0  0  0  0  0  0
  190.6620  177.8800  140.8100 C   0  0  0  0  0  2  0  0  0  0  0  0
  186.9170  178.0380  147.7810 N   0  0  0  0  0  0  0  0  0  0  0  0
  189.8450  178.6290  145.2640 C   0  0  0  0  0  2  0  0  0  0  0  0
  187.6040  177.4000  145.5540 C   0  0  2  0  0  3  0  0  0  0  0  0
  189.3540  179.0400  139.2100 O   0  0  0  0  0  1  0  0  0  0  0  0
  188.3060  176.1740  147.5160 O   0  0  0  0  0  0  0  0  0  0  0  0
  185.9930  178.9940  143.1190 C   0  0  1  0  0  3  0  0  0  0  0  0
  189.9220  176.8140  138.6600 C   0  0  0  0  0  0  0  0  0  0  0  0
  189.3350  175.2000  136.9320 C   0  0  0  0  0  3  0  0  0  0  0  0
  191.6340  175.9080  137.1790 C   0  0  0  0  0  3  0  0  0  0  0  0
  190.6770  175.1260  136.5280 C   0  0  0  0  0  0  0  0  0  0  0  0
  188.9620  176.0410  137.9830 C   0  0  0  0  0  3  0  0  0  0  0  0
  191.2600  176.7500  138.2310 C   0  0  0  0  0  3  0  0  0  0  0  0
  191.0840  174.2900  135.4830 O   0  0  0  0  0  0  0  0  0  0  0  0
  191.8370  173.1050  135.6980 C   0  0  0  0  0  1  0  0  0  0  0  0
  184.7210  179.3690  142.3750 C   0  0  0  0  0  2  0  0  0  0  0  0
  184.0200  178.1700  141.9460 N   0  0  0  0  0  2  0  0  0  0  0  0
  183.0300  178.5870  140.9700 C   0  0  0  0  0  2  0  0  0  0  0  0
  183.6760  179.3800  139.9210 C   0  0  0  0  0  0  0  0  0  0  0  0
  184.1870  180.0030  139.0910 N   0  0  0  0  0  0  0  0  0  0  0  0
  1 20  1  6  0  0  0
  1 13  1  0  0  0  0
  1 16  1  0  0  0  0
  2 17  2  0  0  0  0
  3 21  2  0  0  0  0
  3 17  1  0  0  0  0
  4 18  1  0  0  0  0
  5  9  1  0  0  0  0
  7  5  1  0  0  0  0
  8 11  2  0  0  0  0
  9  8  1  0  0  0  0
  9  4  2  0  0  0  0
 11 18  1  0  0  0  0
 12 22  1  0  0  0  0
 13  6  1  6  0  0  0
 13 15  1  0  0  0  0
 14 10  1  6  0  0  0
 14 19  1  0  0  0  0
 14  2  1  0  0  0  0
 15  6  1  6  0  0  0
 15 12  1  0  0  0  0
 16  7  1  0  0  0  0
 19 11  1  1  0  0  0
 19  3  1  0  0  0  0
 22 31  1  6  0  0  0
 22 10  1  0  0  0  0
 23  1  1  0  0  0  0
 24 27  1  0  0  0  0
 25 28  2  0  0  0  0
 26 24  2  0  0  0  0
 26 25  1  0  0  0  0
 27 23  2  0  0  0  0
 28 23  1  0  0  0  0
 29 30  1  0  0  0  0
 29 26  1  0  0  0  0
 32 31  1  0  0  0  0
 33 32  1  0  0  0  0
 34 33  1  0  0  0  0
 35 34  3  0  0  0  0
M  END
>  <MODEL>
4

>  <REMARK>
 VINA RESULT:      -6.6      3.968      8.901
  Name = 
  6 active torsions:
  status: ('A' for Active; 'I' for Inactive)
    1  A    between atoms: C_1  and  C_10
    2  A    between atoms: O_9  and  C_21
    3  A    between atoms: C_22  and  N_25
    4  A    between atoms: C_22  and  C_34
    5  A    between atoms: N_25  and  C_26
    6  A    between atoms: C_26  and  C_27
                            x       y       z     vdW  Elec       q    Type
                         _______ _______ _______ _____ _____    ______ ____

>  <TORSDO>
F 6

$$$$
=
 OpenBabel11042410303D

 35 39  0  0  1  0  0  0  0  0999 V2000
  187.9090  178.2700  140.5310 C   0  0  2  0  0  0  0  0  0  0  0  0
  190.2190  177.4950  148.0730 C   0  0  0  0  0  3  0  0  0  0  0  0
  191.5590  176.1550  146.7250 C   0  0  0  0  0  0  0  0  0  0  0  0
  192.0610  178.7080  143.2710 N   0  0  0  0  0  0  0  0  0  0  0  0
  191.6490  177.5610  141.0920 C   0  0  0  0  0  2  0  0  0  0  0  0
  186.1460  177.5790  142.2600 C   0  0  0  0  0  2  0  0  0  0  0  0
  190.2770  177.3240  140.4790 C   0  0  0  0  0  2  0  0  0  0  0  0
  190.9310  176.7540  143.3450 N   0  0  0  0  0  0  0  0  0  0  0  0
  191.5510  177.6710  142.5780 C   0  0  0  0  0  0  0  0  0  0  0  0
  188.2000  177.1960  146.6280 C   0  0  0  0  0  2  0  0  0  0  0  0
  191.0550  177.2560  144.5850 C   0  0  0  0  0  0  0  0  0  0  0  0
  187.6410  177.1950  144.1960 C   0  0  0  0  0  2  0  0  0  0  0  0
  187.5470  177.3430  141.7260 C   0  0  2  0  0  3  0  0  0  0  0  0
  189.6750  177.5680  146.6400 C   0  0  2  0  0  3  0  0  0  0  0  0
  187.3450  178.1130  143.0230 C   0  0  1  0  0  3  0  0  0  0  0  0
  189.4120  178.5750  140.6050 C   0  0  0  0  0  2  0  0  0  0  0  0
  191.4220  176.6860  148.0230 N   0  0  0  0  0  0  0  0  0  0  0  0
  191.7490  178.4500  144.5540 C   0  0  0  0  0  2  0  0  0  0  0  0
  190.4900  176.5820  145.7970 C   0  0  2  0  0  3  0  0  0  0  0  0
  187.2280  179.4920  140.6120 O   0  0  0  0  0  1  0  0  0  0  0  0
  192.4930  175.3730  146.4090 O   0  0  0  0  0  0  0  0  0  0  0  0
  187.4620  177.9300  145.5200 C   0  0  1  0  0  3  0  0  0  0  0  0
  187.5600  177.6300  139.1970 C   0  0  0  0  0  0  0  0  0  0  0  0
  186.1070  177.4070  137.2540 C   0  0  0  0  0  3  0  0  0  0  0  0
  188.1780  176.1630  137.3510 C   0  0  0  0  0  3  0  0  0  0  0  0
  187.0010  176.4920  136.6760 C   0  0  0  0  0  0  0  0  0  0  0  0
  186.3890  177.9740  138.5000 C   0  0  0  0  0  3  0  0  0  0  0  0
  188.4600  176.7320  138.5960 C   0  0  0  0  0  3  0  0  0  0  0  0
  186.7460  175.9020  135.4350 O   0  0  0  0  0  0  0  0  0  0  0  0
  186.7560  174.4950  135.2370 C   0  0  0  0  0  1  0  0  0  0  0  0
  185.9890  178.0030  145.8890 C   0  0  0  0  0  2  0  0  0  0  0  0
  185.3940  179.2090  145.3370 N   0  0  0  0  0  2  0  0  0  0  0  0
  183.9540  179.0560  145.4450 C   0  0  0  0  0  2  0  0  0  0  0  0
  183.3650  178.9860  144.1070 C   0  0  0  0  0  0  0  0  0  0  0  0
  182.9030  178.9300  143.0480 N   0  0  0  0  0  0  0  0  0  0  0  0
  1 16  1  0  0  0  0
  1 20  1  1  0  0  0
  1 13  1  0  0  0  0
  3 17  1  0  0  0  0
  4 18  1  0  0  0  0
  5  9  1  0  0  0  0
  7 16  1  0  0  0  0
  7  5  1  0  0  0  0
  8 11  2  0  0  0  0
  9  4  2  0  0  0  0
  9  8  1  0  0  0  0
 12 22  1  0  0  0  0
 13  6  1  6  0  0  0
 13 15  1  0  0  0  0
 14 10  1  1  0  0  0
 14  2  1  0  0  0  0
 15  6  1  1  0  0  0
 15 12  1  0  0  0  0
 17  2  2  0  0  0  0
 18 11  1  0  0  0  0
 19 11  1  6  0  0  0
 19 14  1  0  0  0  0
 19  3  1  0  0  0  0
 21  3  2  0  0  0  0
 22 31  1  1  0  0  0
 22 10  1  0  0  0  0
 23  1  1  0  0  0  0
 24 27  1  0  0  0  0
 25 28  2  0  0  0  0
 26 24  2  0  0  0  0
 26 25  1  0  0  0  0
 27 23  2  0  0  0  0
 28 23  1  0  0  0  0
 29 26  1  0  0  0  0
 30 29  1  0  0  0  0
 32 33  1  0  0  0  0
 32 31  1  0  0  0  0
 34 33  1  0  0  0  0
 35 34  3  0  0  0  0
M  END
>  <MODEL>
5

>  <REMARK>
 VINA RESULT:      -6.3      3.801      9.879
  Name = 
  6 active torsions:
  status: ('A' for Active; 'I' for Inactive)
    1  A    between atoms: C_1  and  C_10
    2  A    between atoms: O_9  and  C_21
    3  A    between atoms: C_22  and  N_25
    4  A    between atoms: C_22  and  C_34
    5  A    between atoms: N_25  and  C_26
    6  A    between atoms: C_26  and  C_27
                            x       y       z     vdW  Elec       q    Type
                         _______ _______ _______ _____ _____    ______ ____

>  <TORSDO>
F 6

$$$$
=
 OpenBabel11042410303D

 35 39  0  0  1  0  0  0  0  0999 V2000
  186.9140  178.6480  140.9580 C   0  0  2  0  0  0  0  0  0  0  0  0
  191.5900  176.6070  147.0230 C   0  0  0  0  0  3  0  0  0  0  0  0
  191.9510  175.1400  145.2560 C   0  0  0  0  0  0  0  0  0  0  0  0
  191.7540  177.8450  141.8880 N   0  0  0  0  0  0  0  0  0  0  0  0
  190.2880  177.0480  140.0300 C   0  0  0  0  0  2  0  0  0  0  0  0
  185.8070  178.2080  143.2290 C   0  0  0  0  0  2  0  0  0  0  0  0
  188.7750  177.1940  139.9930 C   0  0  0  0  0  2  0  0  0  0  0  0
  190.2820  176.2050  142.3830 N   0  0  0  0  0  0  0  0  0  0  0  0
  190.7800  177.0280  141.4400 C   0  0  0  0  0  0  0  0  0  0  0  0
  189.1730  176.9260  146.4660 C   0  0  0  0  0  2  0  0  0  0  0  0
  190.9800  176.5370  143.4810 C   0  0  0  0  0  0  0  0  0  0  0  0
  187.7680  177.2990  144.4370 C   0  0  0  0  0  2  0  0  0  0  0  0
  186.8030  177.7130  142.1960 C   0  0  2  0  0  3  0  0  0  0  0  0
  190.5890  176.9470  145.9110 C   0  0  2  0  0  3  0  0  0  0  0  0
  187.2970  178.3730  143.4740 C   0  0  1  0  0  3  0  0  0  0  0  0
  188.3610  178.5910  140.4480 C   0  0  0  0  0  2  0  0  0  0  0  0
  192.4440  175.5540  146.5100 N   0  0  0  0  0  0  0  0  0  0  0  0
  191.8870  177.5370  143.1910 C   0  0  0  0  0  2  0  0  0  0  0  0
  190.7570  175.8910  144.8140 C   0  0  2  0  0  3  0  0  0  0  0  0
  186.6400  179.9790  141.3010 O   0  0  0  0  0  1  0  0  0  0  0  0
  192.4730  174.2000  144.6010 O   0  0  0  0  0  0  0  0  0  0  0  0
  188.2840  177.9180  145.7320 C   0  0  1  0  0  3  0  0  0  0  0  0
  185.9450  178.2420  139.8580 C   0  0  0  0  0  0  0  0  0  0  0  0
  183.6860  177.7900  139.0660 C   0  0  0  0  0  3  0  0  0  0  0  0
  185.5370  177.7270  137.5110 C   0  0  0  0  0  3  0  0  0  0  0  0
  184.1700  177.5850  137.7640 C   0  0  0  0  0  0  0  0  0  0  0  0
  184.5660  178.1210  140.1000 C   0  0  0  0  0  3  0  0  0  0  0  0
  186.4160  178.0600  138.5450 C   0  0  0  0  0  3  0  0  0  0  0  0
  183.3180  177.2470  136.7090 O   0  0  0  0  0  0  0  0  0  0  0  0
  181.9790  177.7140  136.6250 C   0  0  0  0  0  1  0  0  0  0  0  0
  187.1230  178.2890  146.6400 C   0  0  0  0  0  2  0  0  0  0  0  0
  185.9260  177.5670  146.2420 N   0  0  0  0  0  2  0  0  0  0  0  0
  184.8020  178.2380  146.8700 C   0  0  0  0  0  2  0  0  0  0  0  0
  183.9270  178.8020  145.8400 C   0  0  0  0  0  0  0  0  0  0  0  0
  183.2380  179.2510  145.0270 N   0  0  0  0  0  0  0  0  0  0  0  0
  1 20  1  1  0  0  0
  1 13  1  0  0  0  0
  3 17  1  0  0  0  0
  4 18  1  0  0  0  0
  5  9  1  0  0  0  0
  7  5  1  0  0  0  0
  7 16  1  0  0  0  0
  8 11  2  0  0  0  0
  9  4  2  0  0  0  0
  9  8  1  0  0  0  0
 12 22  1  0  0  0  0
 13  6  1  1  0  0  0
 13 15  1  0  0  0  0
 14 10  1  1  0  0  0
 14  2  1  0  0  0  0
 15  6  1  1  0  0  0
 15 12  1  0  0  0  0
 16  1  1  0  0  0  0
 17  2  2  0  0  0  0
 18 11  1  0  0  0  0
 19 11  1  6  0  0  0
 19  3  1  0  0  0  0
 19 14  1  0  0  0  0
 21  3  2  0  0  0  0
 22 10  1  0  0  0  0
 22 31  1  1  0  0  0
 23 27  1  0  0  0  0
 23  1  1  0  0  0  0
 24 27  2  0  0  0  0
 25 26  2  0  0  0  0
 25 28  1  0  0  0  0
 26 24  1  0  0  0  0
 28 23  2  0  0  0  0
 29 26  1  0  0  0  0
 30 29  1  0  0  0  0
 32 31  1  0  0  0  0
 32 33  1  0  0  0  0
 34 33  1  0  0  0  0
 35 34  3  0  0  0  0
M  END
>  <MODEL>
6

>  <REMARK>
 VINA RESULT:      -6.3      3.597      9.689
  Name = 
  6 active torsions:
  status: ('A' for Active; 'I' for Inactive)
    1  A    between atoms: C_1  and  C_10
    2  A    between atoms: O_9  and  C_21
    3  A    between atoms: C_22  and  N_25
    4  A    between atoms: C_22  and  C_34
    5  A    between atoms: N_25  and  C_26
    6  A    between atoms: C_26  and  C_27
                            x       y       z     vdW  Elec       q    Type
                         _______ _______ _______ _____ _____    ______ ____

>  <TORSDO>
F 6

$$$$
=
 OpenBabel11042410303D

 35 39  0  0  1  0  0  0  0  0999 V2000
  189.5330  178.1930  144.1760 C   0  0  2  0  0  0  0  0  0  0  0  0
  184.2000  178.8500  138.3500 C   0  0  0  0  0  3  0  0  0  0  0  0
  183.3280  177.5010  140.0310 C   0  0  0  0  0  0  0  0  0  0  0  0
  184.7670  179.5500  143.5570 N   0  0  0  0  0  0  0  0  0  0  0  0
  185.8380  178.0470  145.2390 C   0  0  0  0  0  2  0  0  0  0  0  0
  190.2660  177.5550  141.8030 C   0  0  0  0  0  2  0  0  0  0  0  0
  187.2740  177.5520  145.1730 C   0  0  0  0  0  2  0  0  0  0  0  0
  185.4000  177.5040  142.8390 N   0  0  0  0  0  0  0  0  0  0  0  0
  185.3280  178.3650  143.8720 C   0  0  0  0  0  0  0  0  0  0  0  0
  186.5490  178.0890  138.7450 C   0  0  0  0  0  2  0  0  0  0  0  0
  184.8620  178.1970  141.8220 C   0  0  0  0  0  0  0  0  0  0  0  0
  188.0590  177.6540  140.6840 C   0  0  0  0  0  2  0  0  0  0  0  0
  189.1950  177.4180  142.8710 C   0  0  2  0  0  3  0  0  0  0  0  0
  185.2940  178.6390  139.4050 C   0  0  2  0  0  3  0  0  0  0  0  0
  188.9720  178.3420  141.6830 C   0  0  1  0  0  3  0  0  0  0  0  0
  188.2150  178.6900  144.7870 C   0  0  0  0  0  2  0  0  0  0  0  0
  183.0040  178.1990  138.8510 N   0  0  0  0  0  0  0  0  0  0  0  0
  184.4670  179.4500  142.2490 C   0  0  0  0  0  2  0  0  0  0  0  0
  184.7430  177.6480  140.4350 C   0  0  2  0  0  3  0  0  0  0  0  0
  190.3230  179.3190  143.9080 O   0  0  0  0  0  1  0  0  0  0  0  0
  182.4880  176.8030  140.6560 O   0  0  0  0  0  0  0  0  0  0  0  0
  187.7980  178.5510  139.4790 C   0  0  1  0  0  3  0  0  0  0  0  0
  190.2860  177.3220  145.1690 C   0  0  0  0  0  0  0  0  0  0  0  0
  192.0350  175.7090  145.6920 C   0  0  0  0  0  3  0  0  0  0  0  0
  190.7080  176.6590  147.4760 C   0  0  0  0  0  3  0  0  0  0  0  0
  191.7240  175.7960  147.0580 C   0  0  0  0  0  0  0  0  0  0  0  0
  191.3260  176.4690  144.7590 C   0  0  0  0  0  3  0  0  0  0  0  0
  190.0000  177.4200  146.5420 C   0  0  0  0  0  3  0  0  0  0  0  0
  192.4100  175.0450  148.0170 O   0  0  0  0  0  0  0  0  0  0  0  0
  193.1890  175.6410  149.0450 C   0  0  0  0  0  1  0  0  0  0  0  0
  188.9720  178.4950  138.5140 C   0  0  0  0  0  2  0  0  0  0  0  0
  188.7020  177.5390  137.4530 N   0  0  0  0  0  2  0  0  0  0  0  0
  189.9870  177.0430  136.9970 C   0  0  0  0  0  2  0  0  0  0  0  0
  190.5100  176.0710  137.9600 C   0  0  0  0  0  0  0  0  0  0  0  0
  190.9210  175.3010  138.7180 N   0  0  0  0  0  0  0  0  0  0  0  0
  1 20  1  6  0  0  0
  1 16  1  0  0  0  0
  1 23  1  0  0  0  0
  2 17  2  0  0  0  0
  3 21  2  0  0  0  0
  4  9  2  0  0  0  0
  7  5  1  0  0  0  0
  8  9  1  0  0  0  0
  9  5  1  0  0  0  0
 10 14  1  0  0  0  0
 10 22  1  0  0  0  0
 11 18  1  0  0  0  0
 11  8  2  0  0  0  0
 13  6  1  6  0  0  0
 13  1  1  0  0  0  0
 14  2  1  6  0  0  0
 14 19  1  0  0  0  0
 15 12  1  6  0  0  0
 15  6  1  0  0  0  0
 15 13  1  0  0  0  0
 16  7  1  0  0  0  0
 17  3  1  0  0  0  0
 18  4  1  0  0  0  0
 19  3  1  6  0  0  0
 19 11  1  0  0  0  0
 22 31  1  6  0  0  0
 22 12  1  0  0  0  0
 23 28  1  0  0  0  0
 24 26  2  0  0  0  0
 26 25  1  0  0  0  0
 26 29  1  0  0  0  0
 27 23  2  0  0  0  0
 27 24  1  0  0  0  0
 28 25  2  0  0  0  0
 29 30  1  0  0  0  0
 32 31  1  0  0  0  0
 33 32  1  0  0  0  0
 33 34  1  0  0  0  0
 34 35  3  0  0  0  0
M  END
>  <MODEL>
7

>  <REMARK>
 VINA RESULT:      -6.0      3.046      4.391
  Name = 
  6 active torsions:
  status: ('A' for Active; 'I' for Inactive)
    1  A    between atoms: C_1  and  C_10
    2  A    between atoms: O_9  and  C_21
    3  A    between atoms: C_22  and  N_25
    4  A    between atoms: C_22  and  C_34
    5  A    between atoms: N_25  and  C_26
    6  A    between atoms: C_26  and  C_27
                            x       y       z     vdW  Elec       q    Type
                         _______ _______ _______ _____ _____    ______ ____

>  <TORSDO>
F 6

$$$$
=
 OpenBabel11042410303D

 35 39  0  0  1  0  0  0  0  0999 V2000
  188.2210  178.5310  142.2740 C   0  0  2  0  0  0  0  0  0  0  0  0
  186.0870  177.3970  134.7260 C   0  0  0  0  0  3  0  0  0  0  0  0
  184.3590  176.7030  136.1180 C   0  0  0  0  0  0  0  0  0  0  0  0
  184.4970  179.7530  139.1810 N   0  0  0  0  0  0  0  0  0  0  0  0
  184.4640  178.8550  141.5100 C   0  0  0  0  0  2  0  0  0  0  0  0
  189.7690  177.1250  140.7900 C   0  0  0  0  0  2  0  0  0  0  0  0
  185.6790  178.3220  142.2540 C   0  0  0  0  0  2  0  0  0  0  0  0
  185.0010  177.5660  139.4370 N   0  0  0  0  0  0  0  0  0  0  0  0
  184.6500  178.7210  140.0350 C   0  0  0  0  0  0  0  0  0  0  0  0
  187.8690  176.7370  136.3530 C   0  0  0  0  0  2  0  0  0  0  0  0
  185.0800  177.9020  138.1400 C   0  0  0  0  0  0  0  0  0  0  0  0
  188.3050  176.9180  138.8030 C   0  0  0  0  0  2  0  0  0  0  0  0
  188.3400  177.3800  141.2350 C   0  0  2  0  0  3  0  0  0  0  0  0
  186.5710  177.5110  136.1770 C   0  0  2  0  0  3  0  0  0  0  0  0
  188.8120  177.8680  139.8730 C   0  0  1  0  0  3  0  0  0  0  0  0
  186.8790  179.2410  142.0450 C   0  0  0  0  0  2  0  0  0  0  0  0
  184.6980  176.9830  134.7790 N   0  0  0  0  0  0  0  0  0  0  0  0
  184.7700  179.2380  137.9680 C   0  0  0  0  0  2  0  0  0  0  0  0
  185.4680  176.9310  137.0680 C   0  0  2  0  0  3  0  0  0  0  0  0
  189.2360  179.4810  142.0980 O   0  0  0  0  0  1  0  0  0  0  0  0
  183.2240  176.2750  136.4520 O   0  0  0  0  0  0  0  0  0  0  0  0
  188.7460  177.3760  137.4170 C   0  0  1  0  0  3  0  0  0  0  0  0
  188.3120  178.0120  143.7010 C   0  0  0  0  0  0  0  0  0  0  0  0
  189.6160  177.2970  145.6310 C   0  0  0  0  0  3  0  0  0  0  0  0
  187.2080  177.4450  145.7990 C   0  0  0  0  0  3  0  0  0  0  0  0
  188.4410  177.1460  146.3840 C   0  0  0  0  0  0  0  0  0  0  0  0
  189.5500  177.7310  144.3050 C   0  0  0  0  0  3  0  0  0  0  0  0
  187.1430  177.8810  144.4730 C   0  0  0  0  0  3  0  0  0  0  0  0
  188.4710  176.7080  147.7110 O   0  0  0  0  0  0  0  0  0  0  0  0
  188.0050  177.5030  148.7920 C   0  0  0  0  0  1  0  0  0  0  0  0
  190.1880  176.9700  137.1600 C   0  0  0  0  0  2  0  0  0  0  0  0
  190.4170  175.6130  137.6260 N   0  0  0  0  0  2  0  0  0  0  0  0
  191.7700  175.2570  137.2400 C   0  0  0  0  0  2  0  0  0  0  0  0
  192.7260  176.0940  137.9680 C   0  0  0  0  0  0  0  0  0  0  0  0
  193.4830  176.7530  138.5430 N   0  0  0  0  0  0  0  0  0  0  0  0
  1 20  1  6  0  0  0
  1 23  1  0  0  0  0
  2 17  2  0  0  0  0
  3 21  2  0  0  0  0
  4  9  2  0  0  0  0
  5  7  1  0  0  0  0
  8  9  1  0  0  0  0
  9  5  1  0  0  0  0
 10 22  1  0  0  0  0
 11  8  2  0  0  0  0
 13  6  1  1  0  0  0
 13  1  1  0  0  0  0
 14  2  1  6  0  0  0
 14 10  1  0  0  0  0
 14 19  1  0  0  0  0
 15 12  1  6  0  0  0
 15  6  1  0  0  0  0
 15 13  1  0  0  0  0
 16  7  1  0  0  0  0
 16  1  1  0  0  0  0
 17  3  1  0  0  0  0
 18 11  1  0  0  0  0
 18  4  1  0  0  0  0
 19  3  1  6  0  0  0
 19 11  1  0  0  0  0
 22 31  1  6  0  0  0
 22 12  1  0  0  0  0
 23 27  2  0  0  0  0
 23 28  1  0  0  0  0
 24 26  2  0  0  0  0
 25 26  1  0  0  0  0
 26 29  1  0  0  0  0
 27 24  1  0  0  0  0
 28 25  2  0  0  0  0
 29 30  1  0  0  0  0
 31 32  1  0  0  0  0
 33 32  1  0  0  0  0
 33 34  1  0  0  0  0
 34 35  3  0  0  0  0
M  END
>  <MODEL>
8

>  <REMARK>
 VINA RESULT:      -5.9      2.997      4.235
  Name = 
  6 active torsions:
  status: ('A' for Active; 'I' for Inactive)
    1  A    between atoms: C_1  and  C_10
    2  A    between atoms: O_9  and  C_21
    3  A    between atoms: C_22  and  N_25
    4  A    between atoms: C_22  and  C_34
    5  A    between atoms: N_25  and  C_26
    6  A    between atoms: C_26  and  C_27
                            x       y       z     vdW  Elec       q    Type
                         _______ _______ _______ _____ _____    ______ ____

>  <TORSDO>
F 6

$$$$
=
 OpenBabel11042410303D

 35 39  0  0  1  0  0  0  0  0999 V2000
  188.3580  178.3170  140.7420 C   0  0  2  0  0  0  0  0  0  0  0  0
  182.6400  177.4060  135.3300 C   0  0  0  0  0  3  0  0  0  0  0  0
  181.8660  176.6550  137.3900 C   0  0  0  0  0  0  0  0  0  0  0  0
  183.5860  179.6070  140.0410 N   0  0  0  0  0  0  0  0  0  0  0  0
  184.7460  178.6350  142.0280 C   0  0  0  0  0  2  0  0  0  0  0  0
  188.9110  176.9720  138.6300 C   0  0  0  0  0  2  0  0  0  0  0  0
  186.1650  178.0890  142.0240 C   0  0  0  0  0  2  0  0  0  0  0  0
  184.1300  177.4170  139.9330 N   0  0  0  0  0  0  0  0  0  0  0  0
  184.1460  178.5500  140.6620 C   0  0  0  0  0  0  0  0  0  0  0  0
  184.9980  176.7100  135.7900 C   0  0  0  0  0  2  0  0  0  0  0  0
  183.5340  177.7950  138.7910 C   0  0  0  0  0  0  0  0  0  0  0  0
  186.6330  176.8170  137.6720 C   0  0  0  0  0  2  0  0  0  0  0  0
  187.9160  177.2010  139.7540 C   0  0  2  0  0  3  0  0  0  0  0  0
  183.8020  177.4790  136.3300 C   0  0  2  0  0  3  0  0  0  0  0  0
  187.6260  177.7360  138.3590 C   0  0  1  0  0  3  0  0  0  0  0  0
  187.0960  179.0230  141.2570 C   0  0  0  0  0  2  0  0  0  0  0  0
  181.4710  176.9800  136.0770 N   0  0  0  0  0  0  0  0  0  0  0  0
  183.1920  179.1320  138.8450 C   0  0  0  0  0  2  0  0  0  0  0  0
  183.3080  176.8610  137.6420 C   0  0  2  0  0  3  0  0  0  0  0  0
  189.1470  179.2810  140.1000 O   0  0  0  0  0  1  0  0  0  0  0  0
  181.0590  176.2070  138.2460 O   0  0  0  0  0  0  0  0  0  0  0  0
  186.3030  177.3220  136.2720 C   0  0  1  0  0  3  0  0  0  0  0  0
  189.1640  177.7540  141.9020 C   0  0  0  0  0  0  0  0  0  0  0  0
  190.2430  175.8920  143.0440 C   0  0  0  0  0  3  0  0  0  0  0  0
  190.4740  178.1330  143.9230 C   0  0  0  0  0  3  0  0  0  0  0  0
  190.7480  176.7660  144.0190 C   0  0  0  0  0  0  0  0  0  0  0  0
  189.4650  176.3840  141.9940 C   0  0  0  0  0  3  0  0  0  0  0  0
  189.6960  178.6240  142.8710 C   0  0  0  0  0  3  0  0  0  0  0  0
  191.5250  176.3060  145.0860 O   0  0  0  0  0  0  0  0  0  0  0  0
  191.3920  176.8130  146.4070 C   0  0  0  0  0  1  0  0  0  0  0  0
  187.4050  176.9360  135.2970 C   0  0  0  0  0  2  0  0  0  0  0  0
  187.5990  175.4960  135.3070 N   0  0  0  0  0  2  0  0  0  0  0  0
  189.0320  175.2640  135.2690 C   0  0  0  0  0  2  0  0  0  0  0  0
  189.4060  174.3200  136.3250 C   0  0  0  0  0  0  0  0  0  0  0  0
  189.6990  173.5760  137.1600 N   0  0  0  0  0  0  0  0  0  0  0  0
  1 20  1  6  0  0  0
  1 16  1  0  0  0  0
  1 23  1  0  0  0  0
  2 17  2  0  0  0  0
  3 21  2  0  0  0  0
  4  9  2  0  0  0  0
  7  5  1  0  0  0  0
  8  9  1  0  0  0  0
  9  5  1  0  0  0  0
 10 22  1  0  0  0  0
 10 14  1  0  0  0  0
 11 18  1  0  0  0  0
 11  8  2  0  0  0  0
 13  6  1  6  0  0  0
 13  1  1  0  0  0  0
 14  2  1  6  0  0  0
 14 19  1  0  0  0  0
 15 12  1  6  0  0  0
 15  6  1  0  0  0  0
 15 13  1  0  0  0  0
 16  7  1  0  0  0  0
 17  3  1  0  0  0  0
 18  4  1  0  0  0  0
 19  3  1  6  0  0  0
 19 11  1  0  0  0  0
 22 31  1  6  0  0  0
 22 12  1  0  0  0  0
 23 27  2  0  0  0  0
 23 28  1  0  0  0  0
 24 26  2  0  0  0  0
 25 26  1  0  0  0  0
 26 29  1  0  0  0  0
 27 24  1  0  0  0  0
 28 25  2  0  0  0  0
 29 30  1  0  0  0  0
 31 32  1  0  0  0  0
 33 32  1  0  0  0  0
 33 34  1  0  0  0  0
 34 35  3  0  0  0  0
M  END
>  <MODEL>
9

>  <REMARK>
 VINA RESULT:      -5.7      2.990      3.900
  Name = 
  6 active torsions:
  status: ('A' for Active; 'I' for Inactive)
    1  A    between atoms: C_1  and  C_10
    2  A    between atoms: O_9  and  C_21
    3  A    between atoms: C_22  and  N_25
    4  A    between atoms: C_22  and  C_34
    5  A    between atoms: N_25  and  C_26
    6  A    between atoms: C_26  and  C_27
                            x       y       z     vdW  Elec       q    Type
                         _______ _______ _______ _____ _____    ______ ____

>  <TORSDO>
F 6

$$$$
