=
 OpenBabel11042413023D

 40 45  0  0  1  0  0  0  0  0999 V2000
  189.3920  177.0310  138.5010 C   0  0  0  0  0  0  0  0  0  0  0  0
  188.5870  177.6960  139.3850 C   0  0  0  0  0  0  0  0  0  0  0  0
  188.8450  177.0210  137.2350 O   0  0  0  0  0  0  0  0  0  0  0  0
  190.1800  177.2830  141.1670 C   0  0  0  0  0  0  0  0  0  0  0  0
  190.9870  176.5930  140.2340 C   0  0  0  0  0  3  0  0  0  0  0  0
  187.6030  177.7170  137.2210 C   0  0  0  0  0  3  0  0  0  0  0  0
  188.9500  177.8500  140.7390 C   0  0  0  0  0  0  0  0  0  0  0  0
  187.3890  178.2110  138.6640 C   0  0  0  0  0  3  0  0  0  0  0  0
  190.6080  176.4590  138.8900 C   0  0  0  0  0  0  0  0  0  0  0  0
  191.2510  179.1590  144.3180 C   0  0  0  0  0  3  0  0  0  0  0  0
  191.2910  176.0340  144.6250 C   0  0  0  0  0  3  0  0  0  0  0  0
  191.6390  176.9160  145.5530 C   0  0  0  0  0  3  0  0  0  0  0  0
  191.6400  178.3360  145.4160 N   0  0  0  0  0  2  0  0  0  0  0  0
  190.8390  176.2600  143.2500 C   0  0  0  0  0  3  0  0  0  0  0  0
  190.8280  178.7540  143.1230 C   0  0  0  0  0  3  0  0  0  0  0  0
  190.6440  177.3970  142.5740 C   0  0  0  0  0  0  0  0  0  0  0  0
  191.4860  175.7370  137.9460 C   0  0  0  0  0  0  0  0  0  0  0  0
  191.1700  174.5780  137.5600 O   0  0  0  0  0  0  0  0  0  0  0  0
  192.7030  176.3260  137.4840 N   0  0  0  0  0  2  0  0  0  0  0  0
  197.7600  173.2430  135.7400 N   0  0  0  0  0  1  0  0  0  0  0  0
  195.5450  174.2320  136.0100 C   0  0  0  0  0  2  0  0  0  0  0  0
  193.5320  175.6480  136.5800 N   0  0  0  0  0  2  0  0  0  0  0  0
  197.3750  174.4490  137.8370 C   0  0  0  0  0  2  0  0  0  0  0  0
  194.7030  174.9590  137.0150 C   0  0  0  0  0  0  0  0  0  0  0  0
  195.0120  174.9130  138.2750 N   0  0  0  0  0  0  0  0  0  0  0  0
  197.0420  174.3560  136.3350 C   0  0  1  0  0  3  0  0  0  0  0  0
  196.1720  174.1510  138.7310 C   0  0  0  0  0  2  0  0  0  0  0  0
  188.1660  178.5550  141.6620 O   0  0  0  0  0  0  0  0  0  0  0  0
  186.7430  178.5980  141.6600 C   0  0  0  0  0  2  0  0  0  0  0  0
  185.4610  178.4360  146.1000 C   0  0  0  0  0  2  0  0  0  0  0  0
  187.2880  177.1770  143.6620 C   0  0  0  0  0  2  0  0  0  0  0  0
  185.7760  179.1200  143.8990 C   0  0  1  0  0  3  0  0  0  0  0  0
  188.6650  176.9340  147.0830 O   0  0  0  0  0  0  0  0  0  0  0  0
  186.1950  178.0120  142.9550 C   0  0  1  0  0  3  0  0  0  0  0  0
  187.5740  178.7700  148.1130 C   0  0  0  0  0  1  0  0  0  0  0  0
  186.8360  176.5510  144.9990 C   0  0  0  0  0  2  0  0  0  0  0  0
  184.3600  179.6350  143.9910 C   0  0  0  0  0  2  0  0  0  0  0  0
  186.6520  177.5600  146.0650 N   0  0  0  0  0  0  0  0  0  0  0  0
  187.6680  177.7060  147.0700 C   0  0  0  0  0  0  0  0  0  0  0  0
  184.7570  178.3940  144.7590 C   0  0  2  0  0  3  0  0  0  0  0  0
  1  9  2  0  0  0  0
  1  2  1  0  0  0  0
  2  7  2  0  0  0  0
  3  1  1  0  0  0  0
  4 16  1  0  0  0  0
  5  4  2  0  0  0  0
  6  3  1  0  0  0  0
  6  8  2  0  0  0  0
  7  4  1  0  0  0  0
  7 28  1  0  0  0  0
  8  2  1  0  0  0  0
  9  5  1  0  0  0  0
 10 13  1  0  0  0  0
 11 12  2  0  0  0  0
 13 12  1  0  0  0  0
 14 11  1  0  0  0  0
 15 10  2  0  0  0  0
 16 15  1  0  0  0  0
 16 14  2  0  0  0  0
 17  9  1  0  0  0  0
 18 17  2  0  0  0  0
 19 17  1  0  0  0  0
 21 26  1  0  0  0  0
 21 24  1  0  0  0  0
 22 24  1  0  0  0  0
 22 19  1  0  0  0  0
 23 27  1  0  0  0  0
 24 25  2  0  0  0  0
 25 27  1  0  0  0  0
 26 20  1  1  0  0  0
 26 23  1  0  0  0  0
 29 28  1  0  0  0  0
 31 36  1  0  0  0  0
 32 37  1  6  0  0  0
 32 40  1  0  0  0  0
 34 29  1  6  0  0  0
 34 31  1  0  0  0  0
 34 32  1  0  0  0  0
 36 38  1  0  0  0  0
 38 30  1  0  0  0  0
 38 39  1  0  0  0  0
 39 33  2  0  0  0  0
 39 35  1  0  0  0  0
 40 37  1  1  0  0  0
 40 30  1  0  0  0  0
M  END
>  <MODEL>
1

>  <REMARK>
 VINA RESULT:     -10.3      0.000      0.000
  Name = 
  6 active torsions:
  status: ('A' for Active; 'I' for Inactive)
    1  A    between atoms: C_8  and  C_34
    2  A    between atoms: C_9  and  O_18
    3  A    between atoms: C_9  and  C_21
    4  A    between atoms: N_10  and  N_39
    5  A    between atoms: C_16  and  C_37
    6  A    between atoms: O_18  and  C_29
                            x       y       z     vdW  Elec       q    Type
                         _______ _______ _______ _____ _____    ______ ____

>  <TORSDO>
F 6

$$$$
=
 OpenBabel11042413023D

 40 45  0  0  1  0  0  0  0  0999 V2000
  190.1950  177.6920  140.1080 C   0  0  0  0  0  0  0  0  0  0  0  0
  189.0840  177.8670  140.8860 C   0  0  0  0  0  0  0  0  0  0  0  0
  189.9170  177.9230  138.7770 O   0  0  0  0  0  0  0  0  0  0  0  0
  190.3730  177.3340  142.8710 C   0  0  0  0  0  0  0  0  0  0  0  0
  191.5020  177.1500  142.0420 C   0  0  0  0  0  3  0  0  0  0  0  0
  188.5510  178.2870  138.6080 C   0  0  0  0  0  3  0  0  0  0  0  0
  189.1320  177.7020  142.2860 C   0  0  0  0  0  0  0  0  0  0  0  0
  187.9420  178.2790  140.0220 C   0  0  0  0  0  3  0  0  0  0  0  0
  191.4320  177.3270  140.6520 C   0  0  0  0  0  0  0  0  0  0  0  0
  189.3830  177.7710  146.5350 C   0  0  0  0  0  3  0  0  0  0  0  0
  191.9670  176.0340  146.1150 C   0  0  0  0  0  3  0  0  0  0  0  0
  191.4230  176.3590  147.2810 C   0  0  0  0  0  3  0  0  0  0  0  0
  190.2610  177.1620  147.4810 N   0  0  0  0  0  2  0  0  0  0  0  0
  191.5500  176.4020  144.7590 C   0  0  0  0  0  3  0  0  0  0  0  0
  189.4980  177.7530  145.2100 C   0  0  0  0  0  3  0  0  0  0  0  0
  190.5170  177.1400  144.3380 C   0  0  0  0  0  0  0  0  0  0  0  0
  192.6390  177.1320  139.8230 C   0  0  0  0  0  0  0  0  0  0  0  0
  193.7660  177.4900  140.2660 O   0  0  0  0  0  0  0  0  0  0  0  0
  192.5440  176.5660  138.5140 N   0  0  0  0  0  2  0  0  0  0  0  0
  196.5660  173.2740  135.1810 N   0  0  0  0  0  1  0  0  0  0  0  0
  195.1720  174.9810  136.2300 C   0  0  0  0  0  2  0  0  0  0  0  0
  193.6900  176.3710  137.7310 N   0  0  0  0  0  2  0  0  0  0  0  0
  194.7530  172.4480  136.6060 C   0  0  0  0  0  2  0  0  0  0  0  0
  193.9410  175.1320  137.0720 C   0  0  0  0  0  0  0  0  0  0  0  0
  193.0880  174.1560  137.1530 N   0  0  0  0  0  0  0  0  0  0  0  0
  195.7760  173.5740  136.3630 C   0  0  1  0  0  3  0  0  0  0  0  0
  193.3070  172.9100  136.4230 C   0  0  0  0  0  2  0  0  0  0  0  0
  188.0220  177.9090  143.1150 O   0  0  0  0  0  0  0  0  0  0  0  0
  186.7350  177.3320  142.9170 C   0  0  0  0  0  2  0  0  0  0  0  0
  182.8960  179.5000  144.3100 C   0  0  0  0  0  2  0  0  0  0  0  0
  184.6370  178.1940  141.8340 C   0  0  0  0  0  2  0  0  0  0  0  0
  184.9090  178.3340  144.2880 C   0  0  1  0  0  3  0  0  0  0  0  0
  180.9540  178.0730  141.5390 O   0  0  0  0  0  0  0  0  0  0  0  0
  185.6590  178.4080  142.9740 C   0  0  1  0  0  3  0  0  0  0  0  0
  180.3410  178.1330  143.8280 C   0  0  0  0  0  1  0  0  0  0  0  0
  183.4890  179.2270  141.8140 C   0  0  0  0  0  2  0  0  0  0  0  0
  185.2620  179.1760  145.4900 C   0  0  0  0  0  2  0  0  0  0  0  0
  182.5500  179.0540  142.9430 N   0  0  0  0  0  0  0  0  0  0  0  0
  181.2850  178.4140  142.7060 C   0  0  0  0  0  0  0  0  0  0  0  0
  184.3860  179.7540  144.4020 C   0  0  2  0  0  3  0  0  0  0  0  0
  1  9  2  0  0  0  0
  1  2  1  0  0  0  0
  2  7  2  0  0  0  0
  3  1  1  0  0  0  0
  4 16  1  0  0  0  0
  5  4  2  0  0  0  0
  6  3  1  0  0  0  0
  6  8  2  0  0  0  0
  7  4  1  0  0  0  0
  7 28  1  0  0  0  0
  8  2  1  0  0  0  0
  9  5  1  0  0  0  0
 10 13  1  0  0  0  0
 11 12  2  0  0  0  0
 12 13  1  0  0  0  0
 14 11  1  0  0  0  0
 15 10  2  0  0  0  0
 16 14  2  0  0  0  0
 16 15  1  0  0  0  0
 17 18  2  0  0  0  0
 17  9  1  0  0  0  0
 19 17  1  0  0  0  0
 21 26  1  0  0  0  0
 21 24  1  0  0  0  0
 22 19  1  0  0  0  0
 24 25  2  0  0  0  0
 24 22  1  0  0  0  0
 26 20  1  6  0  0  0
 26 23  1  0  0  0  0
 27 23  1  0  0  0  0
 27 25  1  0  0  0  0
 29 28  1  0  0  0  0
 31 34  1  0  0  0  0
 32 40  1  0  0  0  0
 32 37  1  1  0  0  0
 33 39  2  0  0  0  0
 34 29  1  1  0  0  0
 34 32  1  0  0  0  0
 36 31  1  0  0  0  0
 36 38  1  0  0  0  0
 38 30  1  0  0  0  0
 39 38  1  0  0  0  0
 39 35  1  0  0  0  0
 40 30  1  1  0  0  0
 40 37  1  0  0  0  0
M  END
>  <MODEL>
2

>  <REMARK>
 VINA RESULT:     -10.3      2.287      3.365
  Name = 
  6 active torsions:
  status: ('A' for Active; 'I' for Inactive)
    1  A    between atoms: C_8  and  C_34
    2  A    between atoms: C_9  and  O_18
    3  A    between atoms: C_9  and  C_21
    4  A    between atoms: N_10  and  N_39
    5  A    between atoms: C_16  and  C_37
    6  A    between atoms: O_18  and  C_29
                            x       y       z     vdW  Elec       q    Type
                         _______ _______ _______ _____ _____    ______ ____

>  <TORSDO>
F 6

$$$$
=
 OpenBabel11042413023D

 40 45  0  0  1  0  0  0  0  0999 V2000
  189.5560  177.1830  138.4530 C   0  0  0  0  0  0  0  0  0  0  0  0
  188.6890  177.6900  139.3820 C   0  0  0  0  0  0  0  0  0  0  0  0
  189.0180  177.2380  137.1840 O   0  0  0  0  0  0  0  0  0  0  0  0
  190.3050  177.2620  141.1410 C   0  0  0  0  0  0  0  0  0  0  0  0
  191.1760  176.7360  140.1610 C   0  0  0  0  0  3  0  0  0  0  0  0
  187.7190  177.8180  137.2170 C   0  0  0  0  0  3  0  0  0  0  0  0
  189.0310  177.7520  140.7490 C   0  0  0  0  0  0  0  0  0  0  0  0
  187.4530  178.1580  138.6950 C   0  0  0  0  0  3  0  0  0  0  0  0
  190.8170  176.6900  138.8050 C   0  0  0  0  0  0  0  0  0  0  0  0
  191.3450  178.9420  144.4100 C   0  0  0  0  0  3  0  0  0  0  0  0
  191.3570  175.8030  144.5350 C   0  0  0  0  0  3  0  0  0  0  0  0
  191.6980  176.6270  145.5170 C   0  0  0  0  0  3  0  0  0  0  0  0
  191.7130  178.0520  145.4640 N   0  0  0  0  0  2  0  0  0  0  0  0
  190.9260  176.1130  143.1690 C   0  0  0  0  0  3  0  0  0  0  0  0
  190.9360  178.6100  143.1890 C   0  0  0  0  0  3  0  0  0  0  0  0
  190.7500  177.2900  142.5590 C   0  0  0  0  0  0  0  0  0  0  0  0
  191.7620  176.1380  137.8120 C   0  0  0  0  0  0  0  0  0  0  0  0
  191.4030  175.1820  137.0710 O   0  0  0  0  0  0  0  0  0  0  0  0
  193.0880  176.6600  137.6960 N   0  0  0  0  0  2  0  0  0  0  0  0
  198.1080  173.6090  135.7970 N   0  0  0  0  0  1  0  0  0  0  0  0
  195.9510  174.7190  136.0620 C   0  0  0  0  0  2  0  0  0  0  0  0
  193.9820  176.1460  136.7480 N   0  0  0  0  0  2  0  0  0  0  0  0
  197.5290  174.2930  138.0770 C   0  0  0  0  0  2  0  0  0  0  0  0
  195.0330  175.2570  137.1190 C   0  0  0  0  0  0  0  0  0  0  0  0
  195.1670  174.8700  138.3510 N   0  0  0  0  0  0  0  0  0  0  0  0
  197.3950  174.6080  136.5750 C   0  0  1  0  0  3  0  0  0  0  0  0
  196.1990  173.9050  138.7230 C   0  0  0  0  0  2  0  0  0  0  0  0
  188.1810  178.2970  141.7210 O   0  0  0  0  0  0  0  0  0  0  0  0
  187.4170  177.5410  142.6540 C   0  0  0  0  0  2  0  0  0  0  0  0
  183.8600  178.7490  145.3510 C   0  0  0  0  0  2  0  0  0  0  0  0
  185.4130  179.0470  142.4580 C   0  0  0  0  0  2  0  0  0  0  0  0
  185.7300  177.6690  144.4870 C   0  0  1  0  0  3  0  0  0  0  0  0
  181.7360  179.4260  142.4330 O   0  0  0  0  0  0  0  0  0  0  0  0
  186.4670  178.4520  143.4210 C   0  0  1  0  0  3  0  0  0  0  0  0
  181.1630  178.1540  144.3490 C   0  0  0  0  0  1  0  0  0  0  0  0
  184.3870  179.9760  143.1440 C   0  0  0  0  0  2  0  0  0  0  0  0
  186.1910  177.5920  145.9230 C   0  0  0  0  0  2  0  0  0  0  0  0
  183.4490  179.2390  144.0170 N   0  0  0  0  0  0  0  0  0  0  0  0
  182.1180  178.9730  143.5450 C   0  0  0  0  0  0  0  0  0  0  0  0
  185.3700  178.7760  145.4610 C   0  0  2  0  0  3  0  0  0  0  0  0
  1  9  2  0  0  0  0
  1  2  1  0  0  0  0
  2  7  2  0  0  0  0
  3  6  1  0  0  0  0
  3  1  1  0  0  0  0
  4 16  1  0  0  0  0
  5  4  2  0  0  0  0
  6  8  2  0  0  0  0
  7  4  1  0  0  0  0
  7 28  1  0  0  0  0
  8  2  1  0  0  0  0
  9  5  1  0  0  0  0
 10 13  1  0  0  0  0
 11 12  2  0  0  0  0
 13 12  1  0  0  0  0
 14 11  1  0  0  0  0
 15 10  2  0  0  0  0
 16 14  2  0  0  0  0
 16 15  1  0  0  0  0
 17  9  1  0  0  0  0
 18 17  2  0  0  0  0
 19 17  1  0  0  0  0
 21 26  1  0  0  0  0
 21 24  1  0  0  0  0
 22 24  1  0  0  0  0
 22 19  1  0  0  0  0
 23 27  1  0  0  0  0
 24 25  2  0  0  0  0
 25 27  1  0  0  0  0
 26 20  1  6  0  0  0
 26 23  1  0  0  0  0
 28 29  1  0  0  0  0
 31 36  1  0  0  0  0
 31 34  1  0  0  0  0
 32 40  1  0  0  0  0
 32 37  1  1  0  0  0
 33 39  2  0  0  0  0
 34 29  1  6  0  0  0
 34 32  1  0  0  0  0
 36 38  1  0  0  0  0
 38 30  1  0  0  0  0
 39 38  1  0  0  0  0
 39 35  1  0  0  0  0
 40 30  1  1  0  0  0
 40 37  1  0  0  0  0
M  END
>  <MODEL>
3

>  <REMARK>
 VINA RESULT:      -9.7      1.509      2.490
  Name = 
  6 active torsions:
  status: ('A' for Active; 'I' for Inactive)
    1  A    between atoms: C_8  and  C_34
    2  A    between atoms: C_9  and  O_18
    3  A    between atoms: C_9  and  C_21
    4  A    between atoms: N_10  and  N_39
    5  A    between atoms: C_16  and  C_37
    6  A    between atoms: O_18  and  C_29
                            x       y       z     vdW  Elec       q    Type
                         _______ _______ _______ _____ _____    ______ ____

>  <TORSDO>
F 6

$$$$
=
 OpenBabel11042413023D

 40 45  0  0  1  0  0  0  0  0999 V2000
  189.3960  177.0280  138.0580 C   0  0  0  0  0  0  0  0  0  0  0  0
  188.4800  177.7830  138.7380 C   0  0  0  0  0  0  0  0  0  0  0  0
  189.1090  176.9850  136.7100 O   0  0  0  0  0  0  0  0  0  0  0  0
  189.6600  177.3680  140.8160 C   0  0  0  0  0  0  0  0  0  0  0  0
  190.5860  176.5860  140.0910 C   0  0  0  0  0  3  0  0  0  0  0  0
  187.9450  177.7520  136.4220 C   0  0  0  0  0  3  0  0  0  0  0  0
  188.5810  177.9850  140.1300 C   0  0  0  0  0  0  0  0  0  0  0  0
  187.4860  178.3310  137.7730 C   0  0  0  0  0  3  0  0  0  0  0  0
  190.4700  176.4050  138.7040 C   0  0  0  0  0  0  0  0  0  0  0  0
  191.2840  178.7960  143.9660 C   0  0  0  0  0  3  0  0  0  0  0  0
  188.9750  176.7460  144.5440 C   0  0  0  0  0  3  0  0  0  0  0  0
  189.7160  177.3670  145.4530 C   0  0  0  0  0  3  0  0  0  0  0  0
  190.7780  178.2850  145.1990 N   0  0  0  0  0  2  0  0  0  0  0  0
  189.0420  176.8180  143.0820 C   0  0  0  0  0  3  0  0  0  0  0  0
  190.8810  178.4720  142.7400 C   0  0  0  0  0  3  0  0  0  0  0  0
  189.8460  177.5270  142.2830 C   0  0  0  0  0  0  0  0  0  0  0  0
  191.4650  175.5850  137.9830 C   0  0  0  0  0  0  0  0  0  0  0  0
  191.2170  174.3710  137.7390 O   0  0  0  0  0  0  0  0  0  0  0  0
  192.7170  176.1430  137.5780 N   0  0  0  0  0  2  0  0  0  0  0  0
  198.0760  173.1690  136.8310 N   0  0  0  0  0  1  0  0  0  0  0  0
  195.7920  174.0250  136.7450 C   0  0  0  0  0  2  0  0  0  0  0  0
  193.6580  175.3700  136.8850 N   0  0  0  0  0  2  0  0  0  0  0  0
  197.4450  174.7170  138.6210 C   0  0  0  0  0  2  0  0  0  0  0  0
  194.8260  174.8640  137.5270 C   0  0  0  0  0  0  0  0  0  0  0  0
  195.0310  175.0790  138.7910 N   0  0  0  0  0  0  0  0  0  0  0  0
  197.2460  174.3180  137.1460 C   0  0  1  0  0  3  0  0  0  0  0  0
  196.1910  174.5040  139.4680 C   0  0  0  0  0  2  0  0  0  0  0  0
  187.6800  178.7810  140.8500 O   0  0  0  0  0  0  0  0  0  0  0  0
  186.7880  178.3050  141.8520 C   0  0  0  0  0  2  0  0  0  0  0  0
  182.1760  178.6280  141.9450 C   0  0  0  0  0  2  0  0  0  0  0  0
  184.9640  178.7960  140.1930 C   0  0  0  0  0  2  0  0  0  0  0  0
  184.3890  178.2000  142.5230 C   0  0  1  0  0  3  0  0  0  0  0  0
  181.9290  177.6700  138.4090 O   0  0  0  0  0  0  0  0  0  0  0  0
  185.4080  178.9230  141.6680 C   0  0  1  0  0  3  0  0  0  0  0  0
  180.6740  176.7890  140.2160 C   0  0  0  0  0  1  0  0  0  0  0  0
  183.5630  179.3800  139.9040 C   0  0  0  0  0  2  0  0  0  0  0  0
  183.9850  178.6670  143.9010 C   0  0  0  0  0  2  0  0  0  0  0  0
  182.4770  178.5710  140.4980 N   0  0  0  0  0  0  0  0  0  0  0  0
  181.7180  177.6930  139.6520 C   0  0  0  0  0  0  0  0  0  0  0  0
  183.3300  179.2770  142.6810 C   0  0  2  0  0  3  0  0  0  0  0  0
  1  9  2  0  0  0  0
  1  2  1  0  0  0  0
  2  7  2  0  0  0  0
  3  1  1  0  0  0  0
  4 16  1  0  0  0  0
  5  4  2  0  0  0  0
  6  3  1  0  0  0  0
  6  8  2  0  0  0  0
  7  4  1  0  0  0  0
  7 28  1  0  0  0  0
  8  2  1  0  0  0  0
  9  5  1  0  0  0  0
 10 13  1  0  0  0  0
 11 12  2  0  0  0  0
 13 12  1  0  0  0  0
 14 11  1  0  0  0  0
 15 10  2  0  0  0  0
 16 15  1  0  0  0  0
 16 14  2  0  0  0  0
 17  9  1  0  0  0  0
 18 17  2  0  0  0  0
 19 17  1  0  0  0  0
 21 26  1  0  0  0  0
 21 24  1  0  0  0  0
 22 24  1  0  0  0  0
 22 19  1  0  0  0  0
 23 27  1  0  0  0  0
 24 25  2  0  0  0  0
 25 27  1  0  0  0  0
 26 20  1  1  0  0  0
 26 23  1  0  0  0  0
 28 29  1  0  0  0  0
 31 34  1  0  0  0  0
 32 40  1  0  0  0  0
 32 37  1  1  0  0  0
 33 39  2  0  0  0  0
 34 29  1  6  0  0  0
 34 32  1  0  0  0  0
 36 31  1  0  0  0  0
 36 38  1  0  0  0  0
 38 30  1  0  0  0  0
 39 35  1  0  0  0  0
 39 38  1  0  0  0  0
 40 30  1  1  0  0  0
 40 37  1  0  0  0  0
M  END
>  <MODEL>
4

>  <REMARK>
 VINA RESULT:      -9.5      2.374      3.567
  Name = 
  6 active torsions:
  status: ('A' for Active; 'I' for Inactive)
    1  A    between atoms: C_8  and  C_34
    2  A    between atoms: C_9  and  O_18
    3  A    between atoms: C_9  and  C_21
    4  A    between atoms: N_10  and  N_39
    5  A    between atoms: C_16  and  C_37
    6  A    between atoms: O_18  and  C_29
                            x       y       z     vdW  Elec       q    Type
                         _______ _______ _______ _____ _____    ______ ____

>  <TORSDO>
F 6

$$$$
=
 OpenBabel11042413023D

 40 45  0  0  1  0  0  0  0  0999 V2000
  183.7880  178.6610  143.5550 C   0  0  0  0  0  0  0  0  0  0  0  0
  183.0720  178.7240  142.3910 C   0  0  0  0  0  0  0  0  0  0  0  0
  182.9640  178.7540  144.6570 O   0  0  0  0  0  0  0  0  0  0  0  0
  185.1140  178.4810  141.1050 C   0  0  0  0  0  0  0  0  0  0  0  0
  185.8290  178.4270  142.3220 C   0  0  0  0  0  3  0  0  0  0  0  0
  181.6040  178.8800  144.2550 C   0  0  0  0  0  3  0  0  0  0  0  0
  183.7020  178.6320  141.1340 C   0  0  0  0  0  0  0  0  0  0  0  0
  181.6220  178.8490  142.7150 C   0  0  0  0  0  3  0  0  0  0  0  0
  185.1790  178.5140  143.5630 C   0  0  0  0  0  0  0  0  0  0  0  0
  188.2520  178.2590  138.9380 C   0  0  0  0  0  3  0  0  0  0  0  0
  185.5720  178.2010  137.3020 C   0  0  0  0  0  3  0  0  0  0  0  0
  186.7980  178.1630  136.7970 C   0  0  0  0  0  3  0  0  0  0  0  0
  188.0200  178.2070  137.5310 N   0  0  0  0  0  0  0  0  0  0  0  0
  185.1440  178.3040  138.7000 C   0  0  0  0  0  3  0  0  0  0  0  0
  187.3340  178.3250  139.8990 C   0  0  0  0  0  2  0  0  0  0  0  0
  185.8620  178.3730  139.8250 C   0  0  0  0  0  0  0  0  0  0  0  0
  185.9660  178.4460  144.8120 C   0  0  0  0  0  0  0  0  0  0  0  0
  185.7060  179.2390  145.7590 O   0  0  0  0  0  0  0  0  0  0  0  0
  187.0340  177.5070  144.9530 N   0  0  0  0  0  2  0  0  0  0  0  0
  192.1470  176.8020  148.3410 N   0  0  0  0  0  1  0  0  0  0  0  0
  189.9440  177.3230  147.4300 C   0  0  0  0  0  2  0  0  0  0  0  0
  187.7740  177.4330  146.1410 N   0  0  0  0  0  2  0  0  0  0  0  0
  191.8540  176.3850  145.9460 C   0  0  0  0  0  2  0  0  0  0  0  0
  189.1980  177.3820  146.1300 C   0  0  0  0  0  0  0  0  0  0  0  0
  189.8530  177.4390  145.0100 N   0  0  0  0  0  0  0  0  0  0  0  0
  191.1790  176.4150  147.3300 C   0  0  1  0  0  3  0  0  0  0  0  0
  191.3140  177.4570  145.0000 C   0  0  0  0  0  2  0  0  0  0  0  0
  182.9950  178.6580  139.9240 O   0  0  0  0  0  0  0  0  0  0  0  0
  181.9520  177.7560  139.5680 C   0  0  0  0  0  2  0  0  0  0  0  0
  180.5460  180.4800  136.1060 C   0  0  0  0  0  2  0  0  0  0  0  0
  180.2720  179.6030  139.2720 C   0  0  0  0  0  2  0  0  0  0  0  0
  181.7500  178.9630  137.3950 C   0  0  1  0  0  3  0  0  0  0  0  0
  179.5740  183.1370  138.4460 O   0  0  0  0  0  0  0  0  0  0  0  0
  180.9930  178.4180  138.5880 C   0  0  1  0  0  3  0  0  0  0  0  0
  180.8650  183.3770  136.4720 C   0  0  0  0  0  1  0  0  0  0  0  0
  179.2840  180.3550  138.3530 C   0  0  0  0  0  2  0  0  0  0  0  0
  181.9230  178.1980  136.1050 C   0  0  0  0  0  2  0  0  0  0  0  0
  179.9710  181.1350  137.3010 N   0  0  0  0  0  0  0  0  0  0  0  0
  180.1020  182.5570  137.4590 C   0  0  0  0  0  0  0  0  0  0  0  0
  180.6550  178.9880  136.3440 C   0  0  2  0  0  3  0  0  0  0  0  0
  1  9  1  0  0  0  0
  1  3  1  0  0  0  0
  2  8  1  0  0  0  0
  2  1  2  0  0  0  0
  4  7  2  0  0  0  0
  4  5  1  0  0  0  0
  5  9  2  0  0  0  0
  6  3  1  0  0  0  0
  7  2  1  0  0  0  0
  8  6  2  0  0  0  0
  9 17  1  0  0  0  0
 10 15  1  0  0  0  0
 11 14  1  0  0  0  0
 12 11  2  0  0  0  0
 12 13  1  0  0  0  0
 13 10  2  0  0  0  0
 14 16  2  0  0  0  0
 16 15  1  0  0  0  0
 16  4  1  0  0  0  0
 17 19  1  0  0  0  0
 17 18  2  0  0  0  0
 19 22  1  0  0  0  0
 23 26  1  0  0  0  0
 24 22  1  0  0  0  0
 24 21  1  0  0  0  0
 25 24  2  0  0  0  0
 26 21  1  0  0  0  0
 26 20  1  1  0  0  0
 27 25  1  0  0  0  0
 27 23  1  0  0  0  0
 28  7  1  0  0  0  0
 29 28  1  0  0  0  0
 30 40  1  0  0  0  0
 30 38  1  0  0  0  0
 32 37  1  6  0  0  0
 32 34  1  0  0  0  0
 34 31  1  0  0  0  0
 34 29  1  1  0  0  0
 35 39  1  0  0  0  0
 36 31  1  0  0  0  0
 38 39  1  0  0  0  0
 38 36  1  0  0  0  0
 39 33  2  0  0  0  0
 40 37  1  6  0  0  0
 40 32  1  0  0  0  0
M  END
>  <MODEL>
5

>  <REMARK>
 VINA RESULT:      -9.5      4.838      9.438
  Name = 
  6 active torsions:
  status: ('A' for Active; 'I' for Inactive)
    1  A    between atoms: C_8  and  C_34
    2  A    between atoms: C_9  and  O_18
    3  A    between atoms: C_9  and  C_21
    4  A    between atoms: N_10  and  N_39
    5  A    between atoms: C_16  and  C_37
    6  A    between atoms: O_18  and  C_29
                            x       y       z     vdW  Elec       q    Type
                         _______ _______ _______ _____ _____    ______ ____

>  <TORSDO>
F 6

$$$$
=
 OpenBabel11042413023D

 40 45  0  0  1  0  0  0  0  0999 V2000
  189.4330  177.6970  139.6840 C   0  0  0  0  0  0  0  0  0  0  0  0
  188.1820  177.9210  140.1900 C   0  0  0  0  0  0  0  0  0  0  0  0
  189.4490  177.8210  138.3110 O   0  0  0  0  0  0  0  0  0  0  0  0
  189.0120  177.5580  142.4400 C   0  0  0  0  0  0  0  0  0  0  0  0
  190.2910  177.3210  141.8900 C   0  0  0  0  0  3  0  0  0  0  0  0
  188.1540  178.1570  137.8250 C   0  0  0  0  0  3  0  0  0  0  0  0
  187.9280  177.8660  141.5760 C   0  0  0  0  0  0  0  0  0  0  0  0
  187.2550  178.2530  139.0710 C   0  0  0  0  0  3  0  0  0  0  0  0
  190.5220  177.3880  140.5070 C   0  0  0  0  0  0  0  0  0  0  0  0
  187.0040  177.5030  145.6900 C   0  0  0  0  0  3  0  0  0  0  0  0
  190.1070  177.2520  146.1090 C   0  0  0  0  0  3  0  0  0  0  0  0
  189.1870  177.2850  147.0660 C   0  0  0  0  0  3  0  0  0  0  0  0
  187.7790  177.4160  146.8850 N   0  0  0  0  0  2  0  0  0  0  0  0
  189.9410  177.3490  144.6570 C   0  0  0  0  0  3  0  0  0  0  0  0
  187.4590  177.5250  144.4400 C   0  0  0  0  0  3  0  0  0  0  0  0
  188.8360  177.4800  143.9150 C   0  0  0  0  0  0  0  0  0  0  0  0
  191.8780  177.1420  139.9750 C   0  0  0  0  0  0  0  0  0  0  0  0
  192.8870  177.5150  140.6350 O   0  0  0  0  0  0  0  0  0  0  0  0
  192.0610  176.5070  138.7080 N   0  0  0  0  0  2  0  0  0  0  0  0
  196.4900  173.1430  136.0270 N   0  0  0  0  0  1  0  0  0  0  0  0
  195.0330  174.8780  136.9320 C   0  0  0  0  0  2  0  0  0  0  0  0
  193.3470  176.2620  138.2060 N   0  0  0  0  0  2  0  0  0  0  0  0
  194.3070  172.3890  136.8430 C   0  0  0  0  0  2  0  0  0  0  0  0
  193.6460  175.0830  137.4630 C   0  0  0  0  0  0  0  0  0  0  0  0
  192.7170  174.2150  137.2000 N   0  0  0  0  0  0  0  0  0  0  0  0
  195.4550  173.4030  137.0110 C   0  0  1  0  0  3  0  0  0  0  0  0
  193.0040  173.0400  136.3810 C   0  0  0  0  0  2  0  0  0  0  0  0
  186.6670  178.1250  142.1290 O   0  0  0  0  0  0  0  0  0  0  0  0
  185.7230  179.0560  141.6100 C   0  0  0  0  0  2  0  0  0  0  0  0
  181.3470  178.3190  140.3100 C   0  0  0  0  0  2  0  0  0  0  0  0
  183.4590  179.1570  142.6980 C   0  0  0  0  0  2  0  0  0  0  0  0
  183.6490  178.6540  140.2840 C   0  0  1  0  0  3  0  0  0  0  0  0
  180.0860  180.6620  142.8400 O   0  0  0  0  0  0  0  0  0  0  0  0
  184.3230  178.4550  141.6260 C   0  0  1  0  0  3  0  0  0  0  0  0
  179.4850  180.5780  140.5490 C   0  0  0  0  0  1  0  0  0  0  0  0
  182.0100  178.6300  142.7830 C   0  0  0  0  0  2  0  0  0  0  0  0
  183.6600  177.6120  139.1910 C   0  0  0  0  0  2  0  0  0  0  0  0
  181.1970  179.0110  141.6080 N   0  0  0  0  0  0  0  0  0  0  0  0
  180.2620  180.0950  141.7280 C   0  0  0  0  0  0  0  0  0  0  0  0
  182.6360  177.5230  140.3010 C   0  0  2  0  0  3  0  0  0  0  0  0
  1  2  2  0  0  0  0
  1  9  1  0  0  0  0
  2  7  1  0  0  0  0
  3  1  1  0  0  0  0
  4 16  1  0  0  0  0
  5  4  1  0  0  0  0
  6  3  1  0  0  0  0
  6  8  2  0  0  0  0
  7 28  1  0  0  0  0
  7  4  2  0  0  0  0
  8  2  1  0  0  0  0
  9  5  2  0  0  0  0
 10 13  1  0  0  0  0
 11 12  2  0  0  0  0
 13 12  1  0  0  0  0
 14 11  1  0  0  0  0
 15 10  2  0  0  0  0
 16 15  1  0  0  0  0
 16 14  2  0  0  0  0
 17  9  1  0  0  0  0
 17 18  2  0  0  0  0
 19 17  1  0  0  0  0
 21 26  1  0  0  0  0
 21 24  1  0  0  0  0
 22 19  1  0  0  0  0
 23 26  1  0  0  0  0
 24 22  1  0  0  0  0
 25 24  2  0  0  0  0
 26 20  1  6  0  0  0
 27 23  1  0  0  0  0
 27 25  1  0  0  0  0
 29 28  1  0  0  0  0
 30 38  1  0  0  0  0
 31 36  1  0  0  0  0
 32 37  1  6  0  0  0
 32 40  1  0  0  0  0
 32 34  1  0  0  0  0
 34 29  1  6  0  0  0
 34 31  1  0  0  0  0
 35 39  1  0  0  0  0
 38 39  1  0  0  0  0
 38 36  1  0  0  0  0
 39 33  2  0  0  0  0
 40 37  1  6  0  0  0
 40 30  1  0  0  0  0
M  END
>  <MODEL>
6

>  <REMARK>
 VINA RESULT:      -9.4      2.930      4.270
  Name = 
  6 active torsions:
  status: ('A' for Active; 'I' for Inactive)
    1  A    between atoms: C_8  and  C_34
    2  A    between atoms: C_9  and  O_18
    3  A    between atoms: C_9  and  C_21
    4  A    between atoms: N_10  and  N_39
    5  A    between atoms: C_16  and  C_37
    6  A    between atoms: O_18  and  C_29
                            x       y       z     vdW  Elec       q    Type
                         _______ _______ _______ _____ _____    ______ ____

>  <TORSDO>
F 6

$$$$
=
 OpenBabel11042413023D

 40 45  0  0  1  0  0  0  0  0999 V2000
  191.0610  177.1370  140.0280 C   0  0  0  0  0  0  0  0  0  0  0  0
  191.4190  176.8800  138.7330 C   0  0  0  0  0  0  0  0  0  0  0  0
  192.1690  177.2470  140.8420 O   0  0  0  0  0  0  0  0  0  0  0  0
  189.0840  176.8720  138.0760 C   0  0  0  0  0  0  0  0  0  0  0  0
  188.7430  177.1280  139.4220 C   0  0  0  0  0  3  0  0  0  0  0  0
  193.3620  177.0690  140.0880 C   0  0  0  0  0  3  0  0  0  0  0  0
  190.4510  176.7440  137.7160 C   0  0  0  0  0  0  0  0  0  0  0  0
  192.9050  176.8300  138.6370 C   0  0  0  0  0  3  0  0  0  0  0  0
  189.7230  177.2660  140.4170 C   0  0  0  0  0  0  0  0  0  0  0  0
  186.2540  175.0740  136.2440 C   0  0  0  0  0  3  0  0  0  0  0  0
  186.7880  177.9900  135.2060 C   0  0  0  0  0  3  0  0  0  0  0  0
  185.8840  177.1430  134.7310 C   0  0  0  0  0  3  0  0  0  0  0  0
  185.6470  175.8120  135.1840 N   0  0  0  0  0  0  0  0  0  0  0  0
  187.7650  177.8000  136.2810 C   0  0  0  0  0  3  0  0  0  0  0  0
  187.2430  175.4780  137.0370 C   0  0  0  0  0  2  0  0  0  0  0  0
  187.9970  176.7450  137.0690 C   0  0  0  0  0  0  0  0  0  0  0  0
  189.3220  177.5430  141.8120 C   0  0  0  0  0  0  0  0  0  0  0  0
  189.6800  178.6200  142.3640 O   0  0  0  0  0  0  0  0  0  0  0  0
  188.5540  176.5920  142.5540 N   0  0  0  0  0  2  0  0  0  0  0  0
  184.9310  178.9400  146.9670 N   0  0  0  0  0  1  0  0  0  0  0  0
  186.5220  177.6900  145.6040 C   0  0  0  0  0  2  0  0  0  0  0  0
  188.1640  176.8570  143.8730 N   0  0  0  0  0  2  0  0  0  0  0  0
  184.8560  179.3810  144.5590 C   0  0  0  0  0  2  0  0  0  0  0  0
  186.9000  177.4440  144.1740 C   0  0  0  0  0  0  0  0  0  0  0  0
  186.0560  177.7170  143.2260 N   0  0  0  0  0  0  0  0  0  0  0  0
  185.7400  179.0020  145.7630 C   0  0  1  0  0  3  0  0  0  0  0  0
  184.7330  178.2530  143.5350 C   0  0  0  0  0  2  0  0  0  0  0  0
  190.7860  176.5150  136.3740 O   0  0  0  0  0  0  0  0  0  0  0  0
  190.5690  175.2940  135.6750 C   0  0  0  0  0  2  0  0  0  0  0  0
  194.5790  173.0090  135.3980 C   0  0  0  0  0  2  0  0  0  0  0  0
  192.9670  175.8780  135.1990 C   0  0  0  0  0  2  0  0  0  0  0  0
  192.3550  173.5590  135.8040 C   0  0  1  0  0  3  0  0  0  0  0  0
  196.4770  176.0040  136.3520 O   0  0  0  0  0  0  0  0  0  0  0  0
  191.8740  174.7930  135.0700 C   0  0  1  0  0  3  0  0  0  0  0  0
  196.7100  173.8220  137.2490 C   0  0  0  0  0  1  0  0  0  0  0  0
  194.3400  175.4590  134.6280 C   0  0  0  0  0  2  0  0  0  0  0  0
  192.0560  172.1530  135.3440 C   0  0  0  0  0  2  0  0  0  0  0  0
  195.0040  174.4240  135.4490 N   0  0  0  0  0  0  0  0  0  0  0  0
  196.0690  174.8110  136.3330 C   0  0  0  0  0  0  0  0  0  0  0  0
  193.2190  172.9080  134.7390 C   0  0  2  0  0  3  0  0  0  0  0  0
  1  9  1  0  0  0  0
  1  3  1  0  0  0  0
  2  1  2  0  0  0  0
  4  5  1  0  0  0  0
  5  9  2  0  0  0  0
  6  3  1  0  0  0  0
  7  4  2  0  0  0  0
  7  2  1  0  0  0  0
  8  2  1  0  0  0  0
  8  6  2  0  0  0  0
  9 17  1  0  0  0  0
 10 15  1  0  0  0  0
 11 14  1  0  0  0  0
 12 13  1  0  0  0  0
 12 11  2  0  0  0  0
 13 10  2  0  0  0  0
 14 16  2  0  0  0  0
 15 16  1  0  0  0  0
 16  4  1  0  0  0  0
 17 18  2  0  0  0  0
 17 19  1  0  0  0  0
 19 22  1  0  0  0  0
 21 26  1  0  0  0  0
 22 24  1  0  0  0  0
 23 26  1  0  0  0  0
 24 21  1  0  0  0  0
 25 27  1  0  0  0  0
 25 24  2  0  0  0  0
 26 20  1  1  0  0  0
 27 23  1  0  0  0  0
 28  7  1  0  0  0  0
 29 28  1  0  0  0  0
 30 38  1  0  0  0  0
 32 37  1  6  0  0  0
 34 31  1  0  0  0  0
 34 29  1  1  0  0  0
 34 32  1  0  0  0  0
 36 31  1  0  0  0  0
 36 38  1  0  0  0  0
 38 39  1  0  0  0  0
 39 33  2  0  0  0  0
 39 35  1  0  0  0  0
 40 37  1  1  0  0  0
 40 30  1  0  0  0  0
 40 32  1  0  0  0  0
M  END
>  <MODEL>
7

>  <REMARK>
 VINA RESULT:      -9.1      2.619     10.502
  Name = 
  6 active torsions:
  status: ('A' for Active; 'I' for Inactive)
    1  A    between atoms: C_8  and  C_34
    2  A    between atoms: C_9  and  O_18
    3  A    between atoms: C_9  and  C_21
    4  A    between atoms: N_10  and  N_39
    5  A    between atoms: C_16  and  C_37
    6  A    between atoms: O_18  and  C_29
                            x       y       z     vdW  Elec       q    Type
                         _______ _______ _______ _____ _____    ______ ____

>  <TORSDO>
F 6

$$$$
=
 OpenBabel11042413023D

 40 45  0  0  1  0  0  0  0  0999 V2000
  183.8740  178.6350  143.3450 C   0  0  0  0  0  0  0  0  0  0  0  0
  183.1920  178.7150  142.1630 C   0  0  0  0  0  0  0  0  0  0  0  0
  183.0200  178.7190  144.4250 O   0  0  0  0  0  0  0  0  0  0  0  0
  185.2690  178.4780  140.9320 C   0  0  0  0  0  0  0  0  0  0  0  0
  185.9490  178.4090  142.1680 C   0  0  0  0  0  3  0  0  0  0  0  0
  181.6730  178.8540  143.9850 C   0  0  0  0  0  3  0  0  0  0  0  0
  183.8570  178.6340  140.9220 C   0  0  0  0  0  0  0  0  0  0  0  0
  181.7340  178.8410  142.4470 C   0  0  0  0  0  3  0  0  0  0  0  0
  185.2650  178.4840  143.3910 C   0  0  0  0  0  0  0  0  0  0  0  0
  188.4670  178.2960  138.8500 C   0  0  0  0  0  3  0  0  0  0  0  0
  185.8320  178.2140  137.1420 C   0  0  0  0  0  3  0  0  0  0  0  0
  187.0720  178.1910  136.6700 C   0  0  0  0  0  3  0  0  0  0  0  0
  188.2730  178.2450  137.4380 N   0  0  0  0  0  0  0  0  0  0  0  0
  185.3660  178.3090  138.5280 C   0  0  0  0  0  3  0  0  0  0  0  0
  187.5230  178.3490  139.7860 C   0  0  0  0  0  2  0  0  0  0  0  0
  186.0530  178.3830  139.6730 C   0  0  0  0  0  0  0  0  0  0  0  0
  186.0150  178.3990  144.6610 C   0  0  0  0  0  0  0  0  0  0  0  0
  185.7450  179.1960  145.6020 O   0  0  0  0  0  0  0  0  0  0  0  0
  187.0610  177.4400  144.8290 N   0  0  0  0  0  2  0  0  0  0  0  0
  192.0860  176.7660  148.3520 N   0  0  0  0  0  1  0  0  0  0  0  0
  189.8990  177.2580  147.3880 C   0  0  0  0  0  2  0  0  0  0  0  0
  187.7670  177.3500  146.0360 N   0  0  0  0  0  2  0  0  0  0  0  0
  191.8760  176.4100  145.9380 C   0  0  0  0  0  2  0  0  0  0  0  0
  189.1920  177.3350  146.0680 C   0  0  0  0  0  0  0  0  0  0  0  0
  189.8780  177.4410  144.9710 N   0  0  0  0  0  0  0  0  0  0  0  0
  191.1600  176.3830  147.3010 C   0  0  1  0  0  3  0  0  0  0  0  0
  191.3370  177.4950  145.0060 C   0  0  0  0  0  2  0  0  0  0  0  0
  183.1840  178.6760  139.6930 O   0  0  0  0  0  0  0  0  0  0  0  0
  181.7830  178.8700  139.5360 C   0  0  0  0  0  2  0  0  0  0  0  0
  180.9480  174.5710  138.0520 C   0  0  0  0  0  2  0  0  0  0  0  0
  181.9790  177.6250  137.3610 C   0  0  0  0  0  2  0  0  0  0  0  0
  181.2750  176.4320  139.4090 C   0  0  1  0  0  3  0  0  0  0  0  0
  183.4970  174.8660  135.4250 O   0  0  0  0  0  0  0  0  0  0  0  0
  181.1880  177.7580  138.6820 C   0  0  1  0  0  3  0  0  0  0  0  0
  183.2220  173.0730  136.9510 C   0  0  0  0  0  1  0  0  0  0  0  0
  181.4630  176.5080  136.4270 C   0  0  0  0  0  2  0  0  0  0  0  0
  180.1460  175.8670  140.2370 C   0  0  0  0  0  2  0  0  0  0  0  0
  181.7470  175.1540  136.9520 N   0  0  0  0  0  0  0  0  0  0  0  0
  182.8380  174.4040  136.3960 C   0  0  0  0  0  0  0  0  0  0  0  0
  180.1520  175.6610  138.7390 C   0  0  2  0  0  3  0  0  0  0  0  0
  1  9  1  0  0  0  0
  1  3  1  0  0  0  0
  2  8  1  0  0  0  0
  2  1  2  0  0  0  0
  4  5  1  0  0  0  0
  5  9  2  0  0  0  0
  6  3  1  0  0  0  0
  7  4  2  0  0  0  0
  7  2  1  0  0  0  0
  8  6  2  0  0  0  0
  9 17  1  0  0  0  0
 10 15  1  0  0  0  0
 11 14  1  0  0  0  0
 12 11  2  0  0  0  0
 12 13  1  0  0  0  0
 13 10  2  0  0  0  0
 14 16  2  0  0  0  0
 16 15  1  0  0  0  0
 16  4  1  0  0  0  0
 17 19  1  0  0  0  0
 17 18  2  0  0  0  0
 19 22  1  0  0  0  0
 22 24  1  0  0  0  0
 23 26  1  0  0  0  0
 24 21  1  0  0  0  0
 25 27  1  0  0  0  0
 25 24  2  0  0  0  0
 26 21  1  0  0  0  0
 26 20  1  1  0  0  0
 27 23  1  0  0  0  0
 28  7  1  0  0  0  0
 29 28  1  0  0  0  0
 31 34  1  0  0  0  0
 32 37  1  1  0  0  0
 33 39  2  0  0  0  0
 34 32  1  0  0  0  0
 34 29  1  1  0  0  0
 36 38  1  0  0  0  0
 36 31  1  0  0  0  0
 38 30  1  0  0  0  0
 39 35  1  0  0  0  0
 39 38  1  0  0  0  0
 40 30  1  1  0  0  0
 40 32  1  0  0  0  0
 40 37  1  0  0  0  0
M  END
>  <MODEL>
8

>  <REMARK>
 VINA RESULT:      -9.1      4.673      9.097
  Name = 
  6 active torsions:
  status: ('A' for Active; 'I' for Inactive)
    1  A    between atoms: C_8  and  C_34
    2  A    between atoms: C_9  and  O_18
    3  A    between atoms: C_9  and  C_21
    4  A    between atoms: N_10  and  N_39
    5  A    between atoms: C_16  and  C_37
    6  A    between atoms: O_18  and  C_29
                            x       y       z     vdW  Elec       q    Type
                         _______ _______ _______ _____ _____    ______ ____

>  <TORSDO>
F 6

$$$$
=
 OpenBabel11042413023D

 40 45  0  0  1  0  0  0  0  0999 V2000
  188.4620  177.8510  139.4330 C   0  0  0  0  0  0  0  0  0  0  0  0
  187.8640  177.8950  138.2040 C   0  0  0  0  0  0  0  0  0  0  0  0
  189.8170  177.6170  139.3240 O   0  0  0  0  0  0  0  0  0  0  0  0
  185.7190  178.3300  139.2480 C   0  0  0  0  0  0  0  0  0  0  0  0
  186.3600  178.2690  140.5050 C   0  0  0  0  0  3  0  0  0  0  0  0
  190.1950  177.5010  137.9560 C   0  0  0  0  0  3  0  0  0  0  0  0
  186.4830  178.1400  138.0660 C   0  0  0  0  0  0  0  0  0  0  0  0
  188.8990  177.6990  137.1490 C   0  0  0  0  0  3  0  0  0  0  0  0
  187.7390  178.0310  140.6170 C   0  0  0  0  0  0  0  0  0  0  0  0
  182.0230  177.4190  139.5730 C   0  0  0  0  0  3  0  0  0  0  0  0
  182.5260  180.3980  138.7150 C   0  0  0  0  0  3  0  0  0  0  0  0
  181.3430  179.8190  138.8760 C   0  0  0  0  0  3  0  0  0  0  0  0
  181.1060  178.4620  139.2480 N   0  0  0  0  0  0  0  0  0  0  0  0
  183.8680  179.8280  138.8590 C   0  0  0  0  0  3  0  0  0  0  0  0
  183.3510  177.4850  139.5530 C   0  0  0  0  0  2  0  0  0  0  0  0
  184.2560  178.5940  139.1990 C   0  0  0  0  0  0  0  0  0  0  0  0
  188.3720  177.9830  141.9520 C   0  0  0  0  0  0  0  0  0  0  0  0
  189.1780  178.8920  142.2940 O   0  0  0  0  0  0  0  0  0  0  0  0
  188.1000  176.9070  142.8520 N   0  0  0  0  0  2  0  0  0  0  0  0
  188.3740  177.8740  148.9430 N   0  0  0  0  0  1  0  0  0  0  0  0
  188.6310  177.1290  146.6340 C   0  0  0  0  0  2  0  0  0  0  0  0
  188.6910  176.8660  144.1220 N   0  0  0  0  0  2  0  0  0  0  0  0
  186.7290  178.7410  147.3490 C   0  0  0  0  0  2  0  0  0  0  0  0
  187.9580  177.2080  145.2960 C   0  0  0  0  0  0  0  0  0  0  0  0
  186.7040  177.5340  145.2210 N   0  0  0  0  0  0  0  0  0  0  0  0
  188.1810  178.2700  147.5590 C   0  0  1  0  0  3  0  0  0  0  0  0
  185.9320  177.8170  146.4280 C   0  0  0  0  0  2  0  0  0  0  0  0
  185.8450  178.2270  136.8210 O   0  0  0  0  0  0  0  0  0  0  0  0
  185.6160  177.1300  135.9420 C   0  0  0  0  0  2  0  0  0  0  0  0
  185.6450  172.5860  136.7940 C   0  0  0  0  0  2  0  0  0  0  0  0
  183.9830  175.4330  136.8220 C   0  0  0  0  0  2  0  0  0  0  0  0
  186.2190  174.7130  136.0480 C   0  0  1  0  0  3  0  0  0  0  0  0
  182.0190  172.3530  136.2630 O   0  0  0  0  0  0  0  0  0  0  0  0
  185.4730  175.8380  136.7350 C   0  0  1  0  0  3  0  0  0  0  0  0
  183.6880  170.9430  135.3440 C   0  0  0  0  0  1  0  0  0  0  0  0
  183.7320  174.1200  137.5960 C   0  0  0  0  0  2  0  0  0  0  0  0
  187.6320  174.3180  136.4060 C   0  0  0  0  0  2  0  0  0  0  0  0
  184.2070  172.9290  136.8600 N   0  0  0  0  0  0  0  0  0  0  0  0
  183.2510  172.1030  136.1750 C   0  0  0  0  0  0  0  0  0  0  0  0
  186.4740  173.7800  137.2180 C   0  0  2  0  0  3  0  0  0  0  0  0
  1  9  1  0  0  0  0
  2  1  2  0  0  0  0
  3  1  1  0  0  0  0
  4  5  1  0  0  0  0
  5  9  2  0  0  0  0
  6  3  1  0  0  0  0
  7  2  1  0  0  0  0
  7  4  2  0  0  0  0
  8  6  2  0  0  0  0
  8  2  1  0  0  0  0
  9 17  1  0  0  0  0
 11 14  1  0  0  0  0
 11 12  2  0  0  0  0
 12 13  1  0  0  0  0
 13 10  2  0  0  0  0
 14 16  2  0  0  0  0
 15 10  1  0  0  0  0
 16  4  1  0  0  0  0
 16 15  1  0  0  0  0
 17 18  2  0  0  0  0
 17 19  1  0  0  0  0
 19 22  1  0  0  0  0
 21 26  1  0  0  0  0
 22 24  1  0  0  0  0
 23 26  1  0  0  0  0
 24 21  1  0  0  0  0
 25 24  2  0  0  0  0
 25 27  1  0  0  0  0
 26 20  1  1  0  0  0
 27 23  1  0  0  0  0
 28  7  1  0  0  0  0
 29 28  1  0  0  0  0
 30 38  1  0  0  0  0
 30 40  1  0  0  0  0
 31 36  1  0  0  0  0
 32 37  1  1  0  0  0
 32 34  1  0  0  0  0
 32 40  1  0  0  0  0
 34 29  1  6  0  0  0
 34 31  1  0  0  0  0
 35 39  1  0  0  0  0
 38 36  1  0  0  0  0
 39 33  2  0  0  0  0
 39 38  1  0  0  0  0
 40 37  1  6  0  0  0
M  END
>  <MODEL>
9

>  <REMARK>
 VINA RESULT:      -9.0      4.401      9.616
  Name = 
  6 active torsions:
  status: ('A' for Active; 'I' for Inactive)
    1  A    between atoms: C_8  and  C_34
    2  A    between atoms: C_9  and  O_18
    3  A    between atoms: C_9  and  C_21
    4  A    between atoms: N_10  and  N_39
    5  A    between atoms: C_16  and  C_37
    6  A    between atoms: O_18  and  C_29
                            x       y       z     vdW  Elec       q    Type
                         _______ _______ _______ _____ _____    ______ ____

>  <TORSDO>
F 6

$$$$
