=
 OpenBabel11042412263D

 26 29  0  0  1  0  0  0  0  0999 V2000
  187.5870  177.3260  142.7030 C   0  0  0  0  0  0  0  0  0  0  0  0
  190.0150  176.8010  143.3810 C   0  0  1  0  0  3  0  0  0  0  0  0
  188.5730  176.6330  143.4750 N   0  0  0  0  0  2  0  0  0  0  0  0
  185.5590  178.8120  141.4360 C   0  0  0  0  0  0  0  0  0  0  0  0
  185.2980  178.1410  142.6350 C   0  0  0  0  0  3  0  0  0  0  0  0
  190.1300  176.7840  140.8980 C   0  0  0  0  0  3  0  0  0  0  0  0
  190.5150  176.2980  142.0730 C   0  0  0  0  0  3  0  0  0  0  0  0
  186.8270  178.7120  140.8620 C   0  0  0  0  0  3  0  0  0  0  0  0
  187.8570  177.9660  141.4620 C   0  0  0  0  0  0  0  0  0  0  0  0
  189.3180  178.6170  139.7140 O   0  0  0  0  0  0  0  0  0  0  0  0
  186.3040  177.4070  143.2580 C   0  0  0  0  0  3  0  0  0  0  0  0
  189.1250  177.8400  140.6890 C   0  0  0  0  0  0  0  0  0  0  0  0
  191.9290  178.3930  143.4160 C   0  0  0  0  0  2  0  0  0  0  0  0
  190.4320  178.2570  143.6270 C   0  0  2  0  0  3  0  0  0  0  0  0
  191.3670  178.4870  144.8200 C   0  0  1  0  0  3  0  0  0  0  0  0
  190.8750  176.7090  146.6180 C   0  0  0  0  0  0  0  0  0  0  0  0
  191.6640  177.2620  145.5540 N   0  0  0  0  0  2  0  0  0  0  0  0
  191.2660  175.6290  147.1390 O   0  0  0  0  0  0  0  0  0  0  0  0
  188.4070  177.2370  146.4150 C   0  0  0  0  0  3  0  0  0  0  0  0
  188.4780  178.5720  148.8240 N   0  0  0  0  0  0  0  0  0  0  0  0
  189.6200  178.0150  148.3390 C   0  0  0  0  0  3  0  0  0  0  0  0
  189.6170  177.3260  147.1170 C   0  0  0  0  0  0  0  0  0  0  0  0
  187.3010  178.4820  148.1520 C   0  0  0  0  0  3  0  0  0  0  0  0
  187.2440  177.8120  146.9290 C   0  0  0  0  0  3  0  0  0  0  0  0
  184.5780  179.5680  140.7900 O   0  0  0  0  0  0  0  0  0  0  0  0
  184.0660  179.2280  139.5090 C   0  0  0  0  0  1  0  0  0  0  0  0
  1 11  1  0  0  0  0
  1  3  1  0  0  0  0
  2  7  1  6  0  0  0
  2  3  1  0  0  0  0
  2 14  1  0  0  0  0
  4  5  1  0  0  0  0
  5 11  2  0  0  0  0
  6  7  2  0  0  0  0
  8  4  2  0  0  0  0
  8  9  1  0  0  0  0
  9  1  2  0  0  0  0
 10 12  2  0  0  0  0
 12  6  1  0  0  0  0
 12  9  1  0  0  0  0
 13 15  1  0  0  0  0
 14 13  1  6  0  0  0
 14 15  1  0  0  0  0
 15 17  1  1  0  0  0
 16 22  1  0  0  0  0
 16 18  2  0  0  0  0
 17 16  1  0  0  0  0
 19 24  2  0  0  0  0
 19 22  1  0  0  0  0
 21 20  1  0  0  0  0
 22 21  2  0  0  0  0
 23 20  2  0  0  0  0
 24 23  1  0  0  0  0
 25  4  1  0  0  0  0
 26 25  1  0  0  0  0
M  END
>  <MODEL>
1

>  <REMARK>
 VINA RESULT:      -8.3      0.000      0.000
  Name = 
  4 active torsions:
  status: ('A' for Active; 'I' for Inactive)
    1  A    between atoms: C_2  and  C_13
    2  A    between atoms: C_3  and  C_18
    3  A    between atoms: C_5  and  O_9
    4  A    between atoms: N_17  and  C_22
                            x       y       z     vdW  Elec       q    Type
                         _______ _______ _______ _____ _____    ______ ____

>  <TORSDO>
F 4

$$$$
=
 OpenBabel11042412263D

 26 29  0  0  1  0  0  0  0  0999 V2000
  190.7460  176.0850  138.1750 C   0  0  0  0  0  0  0  0  0  0  0  0
  189.9600  177.8320  139.8960 C   0  0  1  0  0  3  0  0  0  0  0  0
  190.9710  177.1510  139.1020 N   0  0  0  0  0  2  0  0  0  0  0  0
  190.4590  173.8180  136.5310 C   0  0  0  0  0  0  0  0  0  0  0  0
  191.7020  174.1310  137.0890 C   0  0  0  0  0  3  0  0  0  0  0  0
  188.3070  178.1000  138.0590 C   0  0  0  0  0  3  0  0  0  0  0  0
  189.0570  178.6270  139.0200 C   0  0  0  0  0  3  0  0  0  0  0  0
  189.3700  174.6570  136.7750 C   0  0  0  0  0  3  0  0  0  0  0  0
  189.4850  175.8050  137.5800 C   0  0  0  0  0  0  0  0  0  0  0  0
  187.1740  176.2250  137.2720 O   0  0  0  0  0  0  0  0  0  0  0  0
  191.8390  175.2550  137.9010 C   0  0  0  0  0  3  0  0  0  0  0  0
  188.2820  176.6820  137.6640 C   0  0  0  0  0  0  0  0  0  0  0  0
  188.3340  177.6270  141.7700 C   0  0  0  0  0  2  0  0  0  0  0  0
  189.1760  176.8500  140.7760 C   0  0  2  0  0  3  0  0  0  0  0  0
  189.5410  176.8570  142.2650 C   0  0  1  0  0  3  0  0  0  0  0  0
  191.0100  178.2030  143.8980 C   0  0  0  0  0  0  0  0  0  0  0  0
  190.6230  177.7820  142.5810 N   0  0  0  0  0  2  0  0  0  0  0  0
  191.9820  179.0000  143.9980 O   0  0  0  0  0  0  0  0  0  0  0  0
  188.9930  177.9820  145.4120 C   0  0  0  0  0  3  0  0  0  0  0  0
  190.4880  176.5370  147.2190 N   0  0  0  0  0  0  0  0  0  0  0  0
  191.0790  176.9950  146.0840 C   0  0  0  0  0  3  0  0  0  0  0  0
  190.3450  177.7310  145.1420 C   0  0  0  0  0  0  0  0  0  0  0  0
  189.1760  176.7710  147.4840 C   0  0  0  0  0  3  0  0  0  0  0  0
  188.4020  177.5020  146.5820 C   0  0  0  0  0  3  0  0  0  0  0  0
  190.2800  172.6930  135.7220 O   0  0  0  0  0  0  0  0  0  0  0  0
  188.9960  172.2150  135.3440 C   0  0  0  0  0  1  0  0  0  0  0  0
  1  3  1  0  0  0  0
  2  7  1  6  0  0  0
  2 14  1  0  0  0  0
  3  2  1  0  0  0  0
  4  8  2  0  0  0  0
  4  5  1  0  0  0  0
  5 11  2  0  0  0  0
  6  7  2  0  0  0  0
  8  9  1  0  0  0  0
  9 12  1  0  0  0  0
  9  1  2  0  0  0  0
 10 12  2  0  0  0  0
 11  1  1  0  0  0  0
 12  6  1  0  0  0  0
 13 15  1  0  0  0  0
 14 13  1  1  0  0  0
 14 15  1  0  0  0  0
 15 17  1  6  0  0  0
 16 18  2  0  0  0  0
 16 22  1  0  0  0  0
 17 16  1  0  0  0  0
 19 24  1  0  0  0  0
 20 23  1  0  0  0  0
 21 20  2  0  0  0  0
 22 19  2  0  0  0  0
 22 21  1  0  0  0  0
 24 23  2  0  0  0  0
 25  4  1  0  0  0  0
 26 25  1  0  0  0  0
M  END
>  <MODEL>
2

>  <REMARK>
 VINA RESULT:      -7.5      3.506      5.288
  Name = 
  4 active torsions:
  status: ('A' for Active; 'I' for Inactive)
    1  A    between atoms: C_2  and  C_13
    2  A    between atoms: C_3  and  C_18
    3  A    between atoms: C_5  and  O_9
    4  A    between atoms: N_17  and  C_22
                            x       y       z     vdW  Elec       q    Type
                         _______ _______ _______ _____ _____    ______ ____

>  <TORSDO>
F 4

$$$$
=
 OpenBabel11042412263D

 26 29  0  0  1  0  0  0  0  0999 V2000
  188.1610  178.0720  141.0700 C   0  0  0  0  0  0  0  0  0  0  0  0
  189.5520  177.5670  138.9630 C   0  0  1  0  0  3  0  0  0  0  0  0
  188.6350  178.3730  139.7540 N   0  0  0  0  0  2  0  0  0  0  0  0
  186.9620  177.4520  143.5410 C   0  0  0  0  0  0  0  0  0  0  0  0
  186.3540  178.3620  142.6700 C   0  0  0  0  0  3  0  0  0  0  0  0
  191.1640  177.1080  140.7980 C   0  0  0  0  0  3  0  0  0  0  0  0
  190.9070  177.5650  139.5770 C   0  0  0  0  0  3  0  0  0  0  0  0
  188.1830  176.8770  143.1830 C   0  0  0  0  0  3  0  0  0  0  0  0
  188.8150  177.1770  141.9620 C   0  0  0  0  0  0  0  0  0  0  0  0
  190.5470  175.6570  142.5100 O   0  0  0  0  0  0  0  0  0  0  0  0
  186.9520  178.6650  141.4490 C   0  0  0  0  0  3  0  0  0  0  0  0
  190.1690  176.5920  141.7530 C   0  0  0  0  0  0  0  0  0  0  0  0
  189.7810  175.4840  137.6190 C   0  0  0  0  0  2  0  0  0  0  0  0
  189.0200  176.1430  138.7540 C   0  0  2  0  0  3  0  0  0  0  0  0
  188.3340  175.8820  137.4080 C   0  0  1  0  0  3  0  0  0  0  0  0
  187.0980  177.8750  136.3410 C   0  0  0  0  0  0  0  0  0  0  0  0
  188.2660  177.0700  136.5640 N   0  0  0  0  0  2  0  0  0  0  0  0
  187.2140  178.8820  135.5920 O   0  0  0  0  0  0  0  0  0  0  0  0
  185.3770  178.1890  138.1710 C   0  0  0  0  0  3  0  0  0  0  0  0
  183.6570  176.4750  136.8700 N   0  0  0  0  0  0  0  0  0  0  0  0
  184.8790  176.7290  136.3290 C   0  0  0  0  0  3  0  0  0  0  0  0
  185.7770  177.5990  136.9650 C   0  0  0  0  0  0  0  0  0  0  0  0
  183.2620  177.0500  138.0360 C   0  0  0  0  0  3  0  0  0  0  0  0
  184.1190  177.9200  138.7110 C   0  0  0  0  0  3  0  0  0  0  0  0
  186.3860  177.1130  144.7680 O   0  0  0  0  0  0  0  0  0  0  0  0
  186.6770  177.8100  145.9710 C   0  0  0  0  0  1  0  0  0  0  0  0
  1 11  2  0  0  0  0
  1  9  1  0  0  0  0
  2  7  1  1  0  0  0
  2  3  1  0  0  0  0
  3  1  1  0  0  0  0
  4 25  1  0  0  0  0
  5  4  2  0  0  0  0
  6 12  1  0  0  0  0
  7  6  2  0  0  0  0
  8  4  1  0  0  0  0
  9  8  2  0  0  0  0
 11  5  1  0  0  0  0
 12  9  1  0  0  0  0
 12 10  2  0  0  0  0
 14 13  1  6  0  0  0
 14  2  1  0  0  0  0
 15 17  1  6  0  0  0
 15 13  1  0  0  0  0
 15 14  1  0  0  0  0
 16 17  1  0  0  0  0
 16 22  1  0  0  0  0
 18 16  2  0  0  0  0
 19 24  1  0  0  0  0
 20 23  1  0  0  0  0
 21 20  2  0  0  0  0
 21 22  1  0  0  0  0
 22 19  2  0  0  0  0
 23 24  2  0  0  0  0
 25 26  1  0  0  0  0
M  END
>  <MODEL>
3

>  <REMARK>
 VINA RESULT:      -7.0      3.452      7.414
  Name = 
  4 active torsions:
  status: ('A' for Active; 'I' for Inactive)
    1  A    between atoms: C_2  and  C_13
    2  A    between atoms: C_3  and  C_18
    3  A    between atoms: C_5  and  O_9
    4  A    between atoms: N_17  and  C_22
                            x       y       z     vdW  Elec       q    Type
                         _______ _______ _______ _____ _____    ______ ____

>  <TORSDO>
F 4

$$$$
=
 OpenBabel11042412263D

 26 29  0  0  1  0  0  0  0  0999 V2000
  184.3850  178.8630  140.9580 C   0  0  0  0  0  0  0  0  0  0  0  0
  186.1300  179.2090  142.8190 C   0  0  1  0  0  3  0  0  0  0  0  0
  185.6280  179.3610  141.4620 N   0  0  0  0  0  2  0  0  0  0  0  0
  182.0980  177.7060  139.7920 C   0  0  0  0  0  0  0  0  0  0  0  0
  183.1770  178.0960  138.9930 C   0  0  0  0  0  3  0  0  0  0  0  0
  183.9990  179.7740  143.9650 C   0  0  0  0  0  3  0  0  0  0  0  0
  185.2960  179.9860  143.7750 C   0  0  0  0  0  3  0  0  0  0  0  0
  182.1570  177.9220  141.1700 C   0  0  0  0  0  3  0  0  0  0  0  0
  183.2790  178.5110  141.7810 C   0  0  0  0  0  0  0  0  0  0  0  0
  182.2370  178.2530  143.8930 O   0  0  0  0  0  0  0  0  0  0  0  0
  184.3050  178.6690  139.5740 C   0  0  0  0  0  3  0  0  0  0  0  0
  183.1690  178.7970  143.2400 C   0  0  0  0  0  0  0  0  0  0  0  0
  186.8270  177.6320  144.6150 C   0  0  0  0  0  2  0  0  0  0  0  0
  186.2320  177.7320  143.2230 C   0  0  2  0  0  3  0  0  0  0  0  0
  187.6540  177.1950  143.4220 C   0  0  1  0  0  3  0  0  0  0  0  0
  189.8860  178.3900  143.8990 C   0  0  0  0  0  0  0  0  0  0  0  0
  188.6830  178.1910  143.1420 N   0  0  0  0  0  2  0  0  0  0  0  0
  190.6820  179.2880  143.5120 O   0  0  0  0  0  0  0  0  0  0  0  0
  189.4680  177.5610  146.2550 C   0  0  0  0  0  3  0  0  0  0  0  0
  191.7560  176.0310  146.1400 N   0  0  0  0  0  0  0  0  0  0  0  0
  191.4110  176.7930  145.0680 C   0  0  0  0  0  3  0  0  0  0  0  0
  190.2510  177.5820  145.0930 C   0  0  0  0  0  0  0  0  0  0  0  0
  190.9970  176.0020  147.2660 C   0  0  0  0  0  3  0  0  0  0  0  0
  189.8350  176.7710  147.3450 C   0  0  0  0  0  3  0  0  0  0  0  0
  180.9550  177.1170  139.2460 O   0  0  0  0  0  0  0  0  0  0  0  0
  180.2050  176.1190  139.9260 C   0  0  0  0  0  1  0  0  0  0  0  0
  1  3  1  0  0  0  0
  1  9  1  0  0  0  0
  2 14  1  0  0  0  0
  2  7  1  1  0  0  0
  3  2  1  0  0  0  0
  4  8  1  0  0  0  0
  5 11  1  0  0  0  0
  5  4  2  0  0  0  0
  7  6  2  0  0  0  0
  8  9  2  0  0  0  0
  9 12  1  0  0  0  0
 11  1  2  0  0  0  0
 12 10  2  0  0  0  0
 12  6  1  0  0  0  0
 14 15  1  0  0  0  0
 14 13  1  1  0  0  0
 15 17  1  6  0  0  0
 15 13  1  0  0  0  0
 16 22  1  0  0  0  0
 17 16  1  0  0  0  0
 18 16  2  0  0  0  0
 19 24  1  0  0  0  0
 20 23  1  0  0  0  0
 21 22  1  0  0  0  0
 21 20  2  0  0  0  0
 22 19  2  0  0  0  0
 23 24  2  0  0  0  0
 25  4  1  0  0  0  0
 25 26  1  0  0  0  0
M  END
>  <MODEL>
4

>  <REMARK>
 VINA RESULT:      -6.9      2.494      4.811
  Name = 
  4 active torsions:
  status: ('A' for Active; 'I' for Inactive)
    1  A    between atoms: C_2  and  C_13
    2  A    between atoms: C_3  and  C_18
    3  A    between atoms: C_5  and  O_9
    4  A    between atoms: N_17  and  C_22
                            x       y       z     vdW  Elec       q    Type
                         _______ _______ _______ _____ _____    ______ ____

>  <TORSDO>
F 4

$$$$
=
 OpenBabel11042412263D

 26 29  0  0  1  0  0  0  0  0999 V2000
  189.0160  178.2050  140.1300 C   0  0  0  0  0  0  0  0  0  0  0  0
  187.7330  178.2910  137.8990 C   0  0  1  0  0  3  0  0  0  0  0  0
  188.2090  178.8630  139.1490 N   0  0  0  0  0  2  0  0  0  0  0  0
  190.3740  176.9300  142.2410 C   0  0  0  0  0  0  0  0  0  0  0  0
  189.6200  178.0830  142.4810 C   0  0  0  0  0  3  0  0  0  0  0  0
  189.8870  177.2370  137.2440 C   0  0  0  0  0  3  0  0  0  0  0  0
  188.8700  178.0470  136.9700 C   0  0  0  0  0  3  0  0  0  0  0  0
  190.4670  176.4350  140.9390 C   0  0  0  0  0  3  0  0  0  0  0  0
  189.8130  177.0580  139.8600 C   0  0  0  0  0  0  0  0  0  0  0  0
  190.6360  175.3710  138.4150 O   0  0  0  0  0  0  0  0  0  0  0  0
  188.9510  178.7100  141.4330 C   0  0  0  0  0  3  0  0  0  0  0  0
  190.0900  176.5040  138.5040 C   0  0  0  0  0  0  0  0  0  0  0  0
  186.0620  176.7330  136.9100 C   0  0  0  0  0  2  0  0  0  0  0  0
  186.9100  177.0180  138.1350 C   0  0  2  0  0  3  0  0  0  0  0  0
  185.3900  177.2100  138.1820 C   0  0  1  0  0  3  0  0  0  0  0  0
  184.5440  179.4660  139.0940 C   0  0  0  0  0  0  0  0  0  0  0  0
  184.9880  178.6050  138.0350 N   0  0  0  0  0  2  0  0  0  0  0  0
  184.2470  180.6550  138.7990 O   0  0  0  0  0  0  0  0  0  0  0  0
  185.5530  178.9860  141.3660 C   0  0  0  0  0  3  0  0  0  0  0  0
  183.0690  178.3050  142.3440 N   0  0  0  0  0  0  0  0  0  0  0  0
  183.1910  178.6820  141.0430 C   0  0  0  0  0  3  0  0  0  0  0  0
  184.4420  179.0380  140.5150 C   0  0  0  0  0  0  0  0  0  0  0  0
  184.1430  178.2600  143.1760 C   0  0  0  0  0  3  0  0  0  0  0  0
  185.4100  178.5990  142.6990 C   0  0  0  0  0  3  0  0  0  0  0  0
  191.0480  176.2660  143.2690 O   0  0  0  0  0  0  0  0  0  0  0  0
  191.0870  176.7540  144.6030 C   0  0  0  0  0  1  0  0  0  0  0  0
  1 11  1  0  0  0  0
  2  7  1  6  0  0  0
  2 14  1  0  0  0  0
  2  3  1  0  0  0  0
  3  1  1  0  0  0  0
  4  5  1  0  0  0  0
  4 25  1  0  0  0  0
  6 12  1  0  0  0  0
  7  6  2  0  0  0  0
  8  4  2  0  0  0  0
  9  1  2  0  0  0  0
  9  8  1  0  0  0  0
 10 12  2  0  0  0  0
 11  5  2  0  0  0  0
 12  9  1  0  0  0  0
 13 15  1  0  0  0  0
 14 13  1  6  0  0  0
 14 15  1  0  0  0  0
 15 17  1  6  0  0  0
 16 22  1  0  0  0  0
 17 16  1  0  0  0  0
 18 16  2  0  0  0  0
 19 24  1  0  0  0  0
 20 23  1  0  0  0  0
 21 20  2  0  0  0  0
 22 21  1  0  0  0  0
 22 19  2  0  0  0  0
 24 23  2  0  0  0  0
 25 26  1  0  0  0  0
M  END
>  <MODEL>
5

>  <REMARK>
 VINA RESULT:      -6.9      3.409      6.936
  Name = 
  4 active torsions:
  status: ('A' for Active; 'I' for Inactive)
    1  A    between atoms: C_2  and  C_13
    2  A    between atoms: C_3  and  C_18
    3  A    between atoms: C_5  and  O_9
    4  A    between atoms: N_17  and  C_22
                            x       y       z     vdW  Elec       q    Type
                         _______ _______ _______ _____ _____    ______ ____

>  <TORSDO>
F 4

$$$$
=
 OpenBabel11042412263D

 26 29  0  0  1  0  0  0  0  0999 V2000
  182.5690  178.6070  142.0790 C   0  0  0  0  0  0  0  0  0  0  0  0
  180.7140  178.8980  140.3170 C   0  0  1  0  0  3  0  0  0  0  0  0
  182.0460  178.5070  140.7510 N   0  0  0  0  0  2  0  0  0  0  0  0
  183.7870  179.0030  144.5870 C   0  0  0  0  0  0  0  0  0  0  0  0
  184.5700  178.8560  143.4370 C   0  0  0  0  0  3  0  0  0  0  0  0
  179.4930  177.8710  142.2230 C   0  0  0  0  0  3  0  0  0  0  0  0
  179.6860  178.0040  140.9160 C   0  0  0  0  0  3  0  0  0  0  0  0
  182.3970  178.9230  144.4800 C   0  0  0  0  0  3  0  0  0  0  0  0
  181.7590  178.7110  143.2440 C   0  0  0  0  0  0  0  0  0  0  0  0
  179.6580  178.8460  144.3310 O   0  0  0  0  0  0  0  0  0  0  0  0
  183.9620  178.6600  142.1990 C   0  0  0  0  0  3  0  0  0  0  0  0
  180.2810  178.5250  143.2820 C   0  0  0  0  0  0  0  0  0  0  0  0
  179.0620  180.7460  140.0810 C   0  0  0  0  0  2  0  0  0  0  0  0
  180.4300  180.3750  140.6230 C   0  0  2  0  0  3  0  0  0  0  0  0
  180.3020  181.2920  139.4020 C   0  0  1  0  0  3  0  0  0  0  0  0
  180.5920  181.2070  136.8430 C   0  0  0  0  0  0  0  0  0  0  0  0
  180.5230  180.5950  138.1400 N   0  0  0  0  0  2  0  0  0  0  0  0
  180.8050  180.4590  135.8520 O   0  0  0  0  0  0  0  0  0  0  0  0
  181.3360  183.6050  137.1670 C   0  0  0  0  0  3  0  0  0  0  0  0
  179.2670  184.4790  135.5710 N   0  0  0  0  0  0  0  0  0  0  0  0
  179.4060  183.1480  135.8100 C   0  0  0  0  0  3  0  0  0  0  0  0
  180.4510  182.6700  136.6150 C   0  0  0  0  0  0  0  0  0  0  0  0
  180.1270  185.3900  136.0980 C   0  0  0  0  0  3  0  0  0  0  0  0
  181.1810  184.9680  136.9100 C   0  0  0  0  0  3  0  0  0  0  0  0
  184.3600  179.2140  145.8430 O   0  0  0  0  0  0  0  0  0  0  0  0
  185.7200  178.9160  146.1270 C   0  0  0  0  0  1  0  0  0  0  0  0
  1 11  2  0  0  0  0
  1  9  1  0  0  0  0
  2 14  1  0  0  0  0
  2  3  1  0  0  0  0
  2  7  1  1  0  0  0
  3  1  1  0  0  0  0
  4 25  1  0  0  0  0
  5  4  2  0  0  0  0
  6 12  1  0  0  0  0
  7  6  2  0  0  0  0
  8  4  1  0  0  0  0
  9 12  1  0  0  0  0
  9  8  2  0  0  0  0
 11  5  1  0  0  0  0
 12 10  2  0  0  0  0
 14 13  1  6  0  0  0
 15 17  1  6  0  0  0
 15 13  1  0  0  0  0
 15 14  1  0  0  0  0
 16 17  1  0  0  0  0
 18 16  2  0  0  0  0
 20 21  2  0  0  0  0
 20 23  1  0  0  0  0
 21 22  1  0  0  0  0
 22 16  1  0  0  0  0
 22 19  2  0  0  0  0
 23 24  2  0  0  0  0
 24 19  1  0  0  0  0
 25 26  1  0  0  0  0
M  END
>  <MODEL>
6

>  <REMARK>
 VINA RESULT:      -6.6      5.977     11.317
  Name = 
  4 active torsions:
  status: ('A' for Active; 'I' for Inactive)
    1  A    between atoms: C_2  and  C_13
    2  A    between atoms: C_3  and  C_18
    3  A    between atoms: C_5  and  O_9
    4  A    between atoms: N_17  and  C_22
                            x       y       z     vdW  Elec       q    Type
                         _______ _______ _______ _____ _____    ______ ____

>  <TORSDO>
F 4

$$$$
=
 OpenBabel11042412263D

 26 29  0  0  1  0  0  0  0  0999 V2000
  187.3120  178.5700  142.5310 C   0  0  0  0  0  0  0  0  0  0  0  0
  189.5960  177.8710  143.4930 C   0  0  1  0  0  3  0  0  0  0  0  0
  188.7380  178.6540  142.6180 N   0  0  0  0  0  2  0  0  0  0  0  0
  184.5450  178.3060  142.0880 C   0  0  0  0  0  0  0  0  0  0  0  0
  185.3640  178.8800  141.1110 C   0  0  0  0  0  3  0  0  0  0  0  0
  188.2020  178.1180  145.5360 C   0  0  0  0  0  3  0  0  0  0  0  0
  189.3710  178.2430  144.9160 C   0  0  0  0  0  3  0  0  0  0  0  0
  185.1100  177.8920  143.2950 C   0  0  0  0  0  3  0  0  0  0  0  0
  186.4870  178.0240  143.5530 C   0  0  0  0  0  0  0  0  0  0  0  0
  186.1680  176.9930  145.6620 O   0  0  0  0  0  0  0  0  0  0  0  0
  186.7320  179.0090  141.3350 C   0  0  0  0  0  3  0  0  0  0  0  0
  186.9450  177.6570  144.9230 C   0  0  0  0  0  0  0  0  0  0  0  0
  190.5810  175.6170  143.8800 C   0  0  0  0  0  2  0  0  0  0  0  0
  189.4140  176.3640  143.2640 C   0  0  2  0  0  3  0  0  0  0  0  0
  190.4670  175.6970  142.3710 C   0  0  1  0  0  3  0  0  0  0  0  0
  191.5100  177.1290  140.5010 C   0  0  0  0  0  0  0  0  0  0  0  0
  191.4500  176.6390  141.8490 N   0  0  0  0  0  2  0  0  0  0  0  0
  192.4180  177.9560  140.2160 O   0  0  0  0  0  0  0  0  0  0  0  0
  189.2700  177.3020  139.3320 C   0  0  0  0  0  3  0  0  0  0  0  0
  190.0630  175.4050  137.4980 N   0  0  0  0  0  0  0  0  0  0  0  0
  190.9190  175.7690  138.4900 C   0  0  0  0  0  3  0  0  0  0  0  0
  190.5470  176.7340  139.4380 C   0  0  0  0  0  0  0  0  0  0  0  0
  188.8260  175.9570  137.3870 C   0  0  0  0  0  3  0  0  0  0  0  0
  188.4050  176.9180  138.3070 C   0  0  0  0  0  3  0  0  0  0  0  0
  183.1700  178.1470  141.8930 O   0  0  0  0  0  0  0  0  0  0  0  0
  182.5010  178.6100  140.7280 C   0  0  0  0  0  1  0  0  0  0  0  0
  1  3  1  0  0  0  0
  1  9  1  0  0  0  0
  2  7  1  1  0  0  0
  3  2  1  0  0  0  0
  4  8  1  0  0  0  0
  5 11  1  0  0  0  0
  5  4  2  0  0  0  0
  7  6  2  0  0  0  0
  8  9  2  0  0  0  0
  9 12  1  0  0  0  0
 11  1  2  0  0  0  0
 12  6  1  0  0  0  0
 12 10  2  0  0  0  0
 14  2  1  0  0  0  0
 14 13  1  1  0  0  0
 15 17  1  1  0  0  0
 15 14  1  0  0  0  0
 15 13  1  0  0  0  0
 16 17  1  0  0  0  0
 18 16  2  0  0  0  0
 19 22  1  0  0  0  0
 20 21  1  0  0  0  0
 21 22  2  0  0  0  0
 22 16  1  0  0  0  0
 23 20  2  0  0  0  0
 23 24  1  0  0  0  0
 24 19  2  0  0  0  0
 25  4  1  0  0  0  0
 26 25  1  0  0  0  0
M  END
>  <MODEL>
7

>  <REMARK>
 VINA RESULT:      -6.6      2.506      5.710
  Name = 
  4 active torsions:
  status: ('A' for Active; 'I' for Inactive)
    1  A    between atoms: C_2  and  C_13
    2  A    between atoms: C_3  and  C_18
    3  A    between atoms: C_5  and  O_9
    4  A    between atoms: N_17  and  C_22
                            x       y       z     vdW  Elec       q    Type
                         _______ _______ _______ _____ _____    ______ ____

>  <TORSDO>
F 4

$$$$
=
 OpenBabel11042412263D

 26 29  0  0  1  0  0  0  0  0999 V2000
  188.7030  177.2600  141.5100 C   0  0  0  0  0  0  0  0  0  0  0  0
  189.7620  176.8030  143.8120 C   0  0  1  0  0  3  0  0  0  0  0  0
  188.6910  176.7140  142.8330 N   0  0  0  0  0  2  0  0  0  0  0  0
  188.5120  178.5140  138.9960 C   0  0  0  0  0  0  0  0  0  0  0  0
  187.3560  178.1270  139.6820 C   0  0  0  0  0  3  0  0  0  0  0  0
  191.6110  176.2480  142.2470 C   0  0  0  0  0  3  0  0  0  0  0  0
  190.9420  176.0120  143.3700 C   0  0  0  0  0  3  0  0  0  0  0  0
  189.7600  178.2460  139.5600 C   0  0  0  0  0  3  0  0  0  0  0  0
  189.8900  177.6080  140.8070 C   0  0  0  0  0  0  0  0  0  0  0  0
  192.2440  177.8120  140.6430 O   0  0  0  0  0  0  0  0  0  0  0  0
  187.4560  177.5070  140.9250 C   0  0  0  0  0  3  0  0  0  0  0  0
  191.2750  177.2710  141.2410 C   0  0  0  0  0  0  0  0  0  0  0  0
  191.4970  178.3050  144.7790 C   0  0  0  0  0  2  0  0  0  0  0  0
  190.1360  178.2620  144.1110 C   0  0  2  0  0  3  0  0  0  0  0  0
  190.2610  178.6230  145.5960 C   0  0  1  0  0  3  0  0  0  0  0  0
  188.6390  177.1190  146.9160 C   0  0  0  0  0  0  0  0  0  0  0  0
  189.9510  177.5070  146.4820 N   0  0  0  0  0  2  0  0  0  0  0  0
  188.5440  176.1150  147.6730 O   0  0  0  0  0  0  0  0  0  0  0  0
  186.7680  177.5750  145.2720 C   0  0  0  0  0  3  0  0  0  0  0  0
  185.6550  179.3920  147.0180 N   0  0  0  0  0  0  0  0  0  0  0  0
  186.8030  178.7520  147.3660 C   0  0  0  0  0  3  0  0  0  0  0  0
  187.3940  177.8190  146.5010 C   0  0  0  0  0  0  0  0  0  0  0  0
  185.0400  179.1530  145.8300 C   0  0  0  0  0  3  0  0  0  0  0  0
  185.5890  178.2380  144.9310 C   0  0  0  0  0  3  0  0  0  0  0  0
  188.4510  179.1500  137.7540 O   0  0  0  0  0  0  0  0  0  0  0  0
  189.0560  178.6140  136.5860 C   0  0  0  0  0  1  0  0  0  0  0  0
  1  3  1  0  0  0  0
  2  7  1  6  0  0  0
  2 14  1  0  0  0  0
  3  2  1  0  0  0  0
  4  8  2  0  0  0  0
  4  5  1  0  0  0  0
  5 11  2  0  0  0  0
  6  7  2  0  0  0  0
  8  9  1  0  0  0  0
  9 12  1  0  0  0  0
  9  1  2  0  0  0  0
 10 12  2  0  0  0  0
 11  1  1  0  0  0  0
 12  6  1  0  0  0  0
 13 15  1  0  0  0  0
 14 13  1  6  0  0  0
 14 15  1  0  0  0  0
 15 17  1  1  0  0  0
 16 18  2  0  0  0  0
 17 16  1  0  0  0  0
 19 22  1  0  0  0  0
 20 21  1  0  0  0  0
 22 16  1  0  0  0  0
 22 21  2  0  0  0  0
 23 20  2  0  0  0  0
 24 19  2  0  0  0  0
 24 23  1  0  0  0  0
 25  4  1  0  0  0  0
 26 25  1  0  0  0  0
M  END
>  <MODEL>
8

>  <REMARK>
 VINA RESULT:      -6.5      1.953      2.794
  Name = 
  4 active torsions:
  status: ('A' for Active; 'I' for Inactive)
    1  A    between atoms: C_2  and  C_13
    2  A    between atoms: C_3  and  C_18
    3  A    between atoms: C_5  and  O_9
    4  A    between atoms: N_17  and  C_22
                            x       y       z     vdW  Elec       q    Type
                         _______ _______ _______ _____ _____    ______ ____

>  <TORSDO>
F 4

$$$$
=
 OpenBabel11042412263D

 26 29  0  0  1  0  0  0  0  0999 V2000
  183.0210  178.8760  142.3170 C   0  0  0  0  0  0  0  0  0  0  0  0
  182.4020  178.1610  139.9220 C   0  0  1  0  0  3  0  0  0  0  0  0
  182.1010  178.7150  141.2330 N   0  0  0  0  0  2  0  0  0  0  0  0
  184.6710  178.9950  144.5960 C   0  0  0  0  0  0  0  0  0  0  0  0
  183.2790  179.0030  144.7310 C   0  0  0  0  0  3  0  0  0  0  0  0
  184.5290  179.4020  139.5840 C   0  0  0  0  0  3  0  0  0  0  0  0
  183.3120  179.0660  139.1700 C   0  0  0  0  0  3  0  0  0  0  0  0
  185.2310  178.9550  143.3180 C   0  0  0  0  0  3  0  0  0  0  0  0
  184.4340  178.9100  142.1590 C   0  0  0  0  0  0  0  0  0  0  0  0
  186.3980  178.8080  140.8380 O   0  0  0  0  0  0  0  0  0  0  0  0
  182.4670  178.9450  143.6010 C   0  0  0  0  0  3  0  0  0  0  0  0
  185.1500  178.9930  140.8550 C   0  0  0  0  0  0  0  0  0  0  0  0
  183.2620  176.2130  138.6330 C   0  0  0  0  0  2  0  0  0  0  0  0
  182.9710  176.7400  140.0250 C   0  0  2  0  0  3  0  0  0  0  0  0
  182.1030  175.6320  139.4170 C   0  0  1  0  0  3  0  0  0  0  0  0
  180.0150  175.4520  137.9190 C   0  0  0  0  0  0  0  0  0  0  0  0
  180.8420  176.1280  138.8780 N   0  0  0  0  0  2  0  0  0  0  0  0
  178.9430  176.0140  137.5680 O   0  0  0  0  0  0  0  0  0  0  0  0
  179.7470  172.9370  137.8010 C   0  0  0  0  0  3  0  0  0  0  0  0
  181.5730  172.8230  135.7410 N   0  0  0  0  0  0  0  0  0  0  0  0
  181.2700  174.0270  136.2950 C   0  0  0  0  0  3  0  0  0  0  0  0
  180.3430  174.1200  137.3440 C   0  0  0  0  0  0  0  0  0  0  0  0
  180.9930  171.6730  136.1750 C   0  0  0  0  0  3  0  0  0  0  0  0
  180.0670  171.7100  137.2190 C   0  0  0  0  0  3  0  0  0  0  0  0
  185.5170  179.0390  145.7060 O   0  0  0  0  0  0  0  0  0  0  0  0
  186.3170  177.9360  146.1070 C   0  0  0  0  0  1  0  0  0  0  0  0
  1 11  1  0  0  0  0
  2  7  1  1  0  0  0
  2 14  1  0  0  0  0
  2  3  1  0  0  0  0
  3  1  1  0  0  0  0
  4  5  1  0  0  0  0
  4 25  1  0  0  0  0
  6 12  1  0  0  0  0
  7  6  2  0  0  0  0
  8  4  2  0  0  0  0
  9  1  2  0  0  0  0
  9  8  1  0  0  0  0
 10 12  2  0  0  0  0
 11  5  2  0  0  0  0
 12  9  1  0  0  0  0
 13 15  1  0  0  0  0
 14 13  1  6  0  0  0
 15 17  1  6  0  0  0
 15 14  1  0  0  0  0
 16 17  1  0  0  0  0
 18 16  2  0  0  0  0
 20 23  2  0  0  0  0
 20 21  1  0  0  0  0
 21 22  2  0  0  0  0
 22 19  1  0  0  0  0
 22 16  1  0  0  0  0
 23 24  1  0  0  0  0
 24 19  2  0  0  0  0
 25 26  1  0  0  0  0
M  END
>  <MODEL>
9

>  <REMARK>
 VINA RESULT:      -6.5      5.384      9.941
  Name = 
  4 active torsions:
  status: ('A' for Active; 'I' for Inactive)
    1  A    between atoms: C_2  and  C_13
    2  A    between atoms: C_3  and  C_18
    3  A    between atoms: C_5  and  O_9
    4  A    between atoms: N_17  and  C_22
                            x       y       z     vdW  Elec       q    Type
                         _______ _______ _______ _____ _____    ______ ____

>  <TORSDO>
F 4

$$$$
