=
 OpenBabel11042413353D

 52 56  0  0  1  0  0  0  0  0999 V2000
  189.2010  175.9560  137.4370 N   0  0  0  0  0  2  0  0  0  0  0  0
  190.1770  176.6890  139.3960 C   0  0  1  0  0  3  0  0  0  0  0  0
  188.1040  177.5300  139.0650 N   0  0  0  0  0  0  0  0  0  0  0  0
  186.8620  177.7800  138.3900 C   0  0  0  0  0  0  0  0  0  0  0  0
  186.1810  178.7940  138.6890 O   0  0  0  0  0  0  0  0  0  0  0  0
  191.6330  176.0720  138.5690 S   0  0  0  0  0  0  0  0  0  0  0  0
  190.0960  177.8500  140.3310 C   0  0  0  0  0  2  0  0  0  0  0  0
  189.0870  176.5740  138.7070 C   0  0  1  0  0  3  0  0  0  0  0  0
  188.6610  178.3780  140.1130 C   0  0  2  0  0  3  0  0  0  0  0  0
  190.5530  175.4700  137.1980 C   0  0  2  0  0  3  0  0  0  0  0  0
  191.0530  175.9920  135.8610 C   0  0  0  0  0  2  0  0  0  0  0  0
  191.9350  175.0720  135.2920 O   0  0  0  0  0  0  0  0  0  0  0  0
  191.5250  173.8360  135.8010 C   0  0  0  0  0  2  0  0  0  0  0  0
  192.6990  172.8810  135.8080 C   0  0  0  0  0  1  0  0  0  0  0  0
  187.8860  178.2160  141.3340 N   0  0  0  0  0  2  0  0  0  0  0  0
  188.7660  177.7450  142.3190 N   0  0  0  0  0  2  0  0  0  0  0  0
  191.1180  176.4570  146.6590 C   0  0  0  0  0  0  0  0  0  0  0  0
  192.0660  176.0000  147.7090 C   0  0  0  0  0  1  0  0  0  0  0  0
  187.7010  177.7490  146.3860 N   0  0  0  0  0  0  0  0  0  0  0  0
  190.6130  176.8730  144.3250 C   0  0  0  0  0  3  0  0  0  0  0  0
  189.3280  177.3140  144.6750 C   0  0  0  0  0  0  0  0  0  0  0  0
  188.4110  177.7490  143.7050 C   0  0  0  0  0  0  0  0  0  0  0  0
  191.5040  176.4450  145.3150 C   0  0  0  0  0  3  0  0  0  0  0  0
  188.9430  177.3240  146.0340 C   0  0  0  0  0  0  0  0  0  0  0  0
  187.1430  178.1820  144.1080 C   0  0  0  0  0  3  0  0  0  0  0  0
  189.8390  176.8940  147.0180 C   0  0  0  0  0  3  0  0  0  0  0  0
  186.7900  178.1730  145.4630 C   0  0  0  0  0  0  0  0  0  0  0  0
  185.4650  178.6490  145.9270 C   0  0  0  0  0  0  0  0  0  0  0  0
  184.3630  178.9290  145.0440 N   0  0  0  0  0  2  0  0  0  0  0  0
  185.2930  178.8200  147.1640 O   0  0  0  0  0  0  0  0  0  0  0  0
  184.2580  178.3070  142.5120 C   0  0  0  0  0  3  0  0  0  0  0  0
  184.3050  178.5980  143.6810 C   0  0  0  0  0  0  0  0  0  0  0  0
  186.3360  176.8350  137.3550 C   0  0  0  0  0  2  0  0  0  0  0  0
  185.2270  177.4850  136.5390 C   0  0  0  0  0  2  0  0  0  0  0  0
  182.9830  178.1470  137.4450 N   0  0  0  0  0  0  0  0  0  0  0  0
  181.8430  176.2980  137.9860 C   0  0  0  0  0  0  0  0  0  0  0  0
  183.8860  177.1940  137.1260 C   0  0  0  0  0  0  0  0  0  0  0  0
  181.8440  177.6490  137.9270 N   0  0  0  0  0  0  0  0  0  0  0  0
  180.7300  175.5210  138.4340 N   0  0  0  0  0  2  0  0  0  0  0  0
  183.2900  175.6450  137.4330 S   0  0  0  0  0  0  0  0  0  0  0  0
  179.4710  176.1340  138.8410 C   0  0  0  0  0  2  0  0  0  0  0  0
  179.0110  175.6360  140.2140 C   0  0  2  0  0  3  0  0  0  0  0  0
  180.1330  177.3800  141.3630 C   0  0  0  0  0  3  0  0  0  0  0  0
  179.0690  176.6790  141.2090 N   0  0  0  0  0  0  0  0  0  0  0  0
  180.1810  178.4720  142.3860 C   0  0  0  0  0  2  0  0  0  0  0  0
  179.8280  179.8220  141.7720 C   0  0  1  0  0  3  0  0  0  0  0  0
  180.0530  180.8230  142.7160 O   0  0  0  0  0  1  0  0  0  0  0  0
  180.6850  180.1030  140.5440 C   0  0  0  0  0  2  0  0  0  0  0  0
  179.8760  180.3530  139.4360 O   0  0  0  0  0  0  0  0  0  0  0  0
  180.3300  181.5780  138.9370 C   0  0  0  0  0  1  0  0  0  0  0  0
  179.7690  174.4260  140.6720 C   0  0  0  0  0  3  0  0  0  0  0  0
  179.4310  173.8110  141.6690 O   0  0  0  0  0  0  0  0  0  0  0  0
  2  7  1  6  0  0  0
  3  9  1  0  0  0  0
  4  5  2  0  0  0  0
  4  3  1  0  0  0  0
  6  2  1  0  0  0  0
  8  1  1  6  0  0  0
  8  3  1  0  0  0  0
  8  2  1  0  0  0  0
  9  7  1  0  0  0  0
  9 15  1  1  0  0  0
 10 11  1  6  0  0  0
 10  1  1  0  0  0  0
 10  6  1  0  0  0  0
 12 13  1  0  0  0  0
 12 11  1  0  0  0  0
 13 14  1  0  0  0  0
 15 16  1  0  0  0  0
 16 22  1  0  0  0  0
 17 26  1  0  0  0  0
 17 18  1  0  0  0  0
 20 21  2  0  0  0  0
 20 23  1  0  0  0  0
 21 24  1  0  0  0  0
 22 25  2  0  0  0  0
 22 21  1  0  0  0  0
 23 17  2  0  0  0  0
 24 19  1  0  0  0  0
 24 26  2  0  0  0  0
 25 27  1  0  0  0  0
 27 28  1  0  0  0  0
 27 19  2  0  0  0  0
 28 30  2  0  0  0  0
 29 28  1  0  0  0  0
 31 32  3  0  0  0  0
 32 29  1  0  0  0  0
 33  4  1  0  0  0  0
 34 37  1  0  0  0  0
 34 33  1  0  0  0  0
 35 38  1  0  0  0  0
 36 39  1  0  0  0  0
 37 40  1  0  0  0  0
 37 35  2  0  0  0  0
 38 36  2  0  0  0  0
 39 41  1  0  0  0  0
 40 36  1  0  0  0  0
 42 41  1  6  0  0  0
 42 51  1  0  0  0  0
 42 44  1  0  0  0  0
 43 45  1  0  0  0  0
 44 43  2  0  0  0  0
 46 45  1  0  0  0  0
 46 47  1  1  0  0  0
 48 46  1  0  0  0  0
 49 48  1  0  0  0  0
 50 49  1  0  0  0  0
 51 52  2  0  0  0  0
M  END
>  <MODEL>
1

>  <REMARK>
 VINA RESULT:      -7.9      0.000      0.000
  Name = 
  19 active torsions:
  status: ('A' for Active; 'I' for Inactive)
    1  A    between atoms: N_1  and  N_40
    2  A    between atoms: N_1  and  C_42
    3  A    between atoms: O_2  and  C_38
    4  A    between atoms: C_4  and  O_8
    5  A    between atoms: C_5  and  C_51
    6  A    between atoms: C_7  and  C_21
    7  A    between atoms: C_7  and  C_22
    8  A    between atoms: O_8  and  C_47
    9  A    between atoms: C_9  and  C_23
   10  A    between atoms: C_16  and  C_22
   11  A    between atoms: N_19  and  C_48
   12  A    between atoms: C_23  and  C_26
   13  A    between atoms: N_24  and  CA_34
   14  A    between atoms: C_26  and  C_38
   15  A    between atoms: C_28  and  N_40
   16  A    between atoms: C_29  and  CA_34
   17  A    between atoms: C_29  and  N_41
   18  A    between atoms: C_32  and  CA_34
   19  A    between atoms: C_47  and  C_50
                            x       y       z     vdW  Elec       q    Type
                         _______ _______ _______ _____ _____    ______ ____

>  <TORSDO>
F 19

$$$$
=
 OpenBabel11042413353D

 52 56  0  0  1  0  0  0  0  0999 V2000
  186.3440  178.6260  137.7150 N   0  0  0  0  0  2  0  0  0  0  0  0
  185.0530  177.4100  136.2370 C   0  0  1  0  0  3  0  0  0  0  0  0
  184.1710  177.5090  138.3170 N   0  0  0  0  0  0  0  0  0  0  0  0
  184.0860  177.8380  139.7120 C   0  0  0  0  0  0  0  0  0  0  0  0
  183.3380  177.1660  140.4680 O   0  0  0  0  0  0  0  0  0  0  0  0
  186.5800  177.4470  135.3140 S   0  0  0  0  0  0  0  0  0  0  0  0
  184.0420  176.3120  136.2620 C   0  0  0  0  0  2  0  0  0  0  0  0
  185.1120  178.0100  137.3830 C   0  0  1  0  0  3  0  0  0  0  0  0
  183.4290  176.4300  137.6750 C   0  0  2  0  0  3  0  0  0  0  0  0
  187.2980  178.5390  136.6180 C   0  0  2  0  0  3  0  0  0  0  0  0
  188.6090  177.9660  137.1280 C   0  0  0  0  0  2  0  0  0  0  0  0
  188.3590  176.8570  137.9370 O   0  0  0  0  0  0  0  0  0  0  0  0
  189.2870  175.9000  137.5150 C   0  0  0  0  0  2  0  0  0  0  0  0
  188.5610  174.7620  136.8310 C   0  0  0  0  0  1  0  0  0  0  0  0
  182.0250  176.7960  137.5740 N   0  0  0  0  0  2  0  0  0  0  0  0
  181.9770  178.1020  137.0660 N   0  0  0  0  0  2  0  0  0  0  0  0
  179.9820  182.5680  135.6140 C   0  0  0  0  0  0  0  0  0  0  0  0
  179.5470  183.7870  134.8840 C   0  0  0  0  0  1  0  0  0  0  0  0
  179.7400  181.1120  138.9670 N   0  0  0  0  0  0  0  0  0  0  0  0
  181.1360  180.4360  135.6370 C   0  0  0  0  0  3  0  0  0  0  0  0
  180.8110  180.2670  136.9910 C   0  0  0  0  0  0  0  0  0  0  0  0
  181.2110  179.1270  137.7060 C   0  0  0  0  0  0  0  0  0  0  0  0
  180.7240  181.5840  134.9520 C   0  0  0  0  0  3  0  0  0  0  0  0
  180.0630  181.2640  137.6550 C   0  0  0  0  0  0  0  0  0  0  0  0
  180.8570  179.0070  139.0550 C   0  0  0  0  0  3  0  0  0  0  0  0
  179.6530  182.4090  136.9640 C   0  0  0  0  0  3  0  0  0  0  0  0
  180.1200  180.0160  139.6860 C   0  0  0  0  0  0  0  0  0  0  0  0
  179.7060  179.9090  141.1050 C   0  0  0  0  0  0  0  0  0  0  0  0
  179.0980  178.7330  141.6720 N   0  0  0  0  0  2  0  0  0  0  0  0
  179.8950  180.9010  141.8580 O   0  0  0  0  0  0  0  0  0  0  0  0
  178.9370  176.4000  140.5150 C   0  0  0  0  0  3  0  0  0  0  0  0
  179.0080  177.4800  141.0480 C   0  0  0  0  0  0  0  0  0  0  0  0
  184.8470  178.9920  140.2860 C   0  0  0  0  0  2  0  0  0  0  0  0
  185.0570  178.8130  141.7830 C   0  0  0  0  0  2  0  0  0  0  0  0
  186.7090  177.4730  143.1130 N   0  0  0  0  0  0  0  0  0  0  0  0
  188.7250  177.6470  142.1560 C   0  0  0  0  0  0  0  0  0  0  0  0
  186.4250  178.2920  142.0780 C   0  0  0  0  0  0  0  0  0  0  0  0
  187.9920  177.1140  143.1600 N   0  0  0  0  0  0  0  0  0  0  0  0
  190.1180  177.3910  141.9630 N   0  0  0  0  0  2  0  0  0  0  0  0
  187.7930  178.6140  141.1440 S   0  0  0  0  0  0  0  0  0  0  0  0
  190.8670  176.4910  142.8320 C   0  0  0  0  0  2  0  0  0  0  0  0
  191.3890  177.2070  144.0810 C   0  0  2  0  0  3  0  0  0  0  0  0
  190.1260  177.3230  146.0840 C   0  0  0  0  0  3  0  0  0  0  0  0
  190.8580  176.6280  145.2910 N   0  0  0  0  0  0  0  0  0  0  0  0
  189.5640  176.7110  147.3290 C   0  0  0  0  0  2  0  0  0  0  0  0
  188.3280  177.4650  147.8090 C   0  0  1  0  0  3  0  0  0  0  0  0
  188.7310  178.5340  148.6070 O   0  0  0  0  0  1  0  0  0  0  0  0
  187.5280  178.0040  146.6310 C   0  0  0  0  0  2  0  0  0  0  0  0
  186.1820  178.1260  146.9760 O   0  0  0  0  0  0  0  0  0  0  0  0
  185.6400  178.9590  145.9920 C   0  0  0  0  0  1  0  0  0  0  0  0
  191.1380  178.6840  144.0470 C   0  0  0  0  0  3  0  0  0  0  0  0
  192.0420  179.4830  144.2280 O   0  0  0  0  0  0  0  0  0  0  0  0
  2  7  1  1  0  0  0
  2  8  1  0  0  0  0
  3  4  1  0  0  0  0
  4 33  1  0  0  0  0
  4  5  2  0  0  0  0
  6  2  1  0  0  0  0
  6 10  1  0  0  0  0
  7  9  1  0  0  0  0
  8  1  1  1  0  0  0
  8  3  1  0  0  0  0
  9 15  1  6  0  0  0
  9  3  1  0  0  0  0
 10 11  1  1  0  0  0
 10  1  1  0  0  0  0
 11 12  1  0  0  0  0
 13 12  1  0  0  0  0
 14 13  1  0  0  0  0
 16 15  1  0  0  0  0
 16 22  1  0  0  0  0
 17 26  1  0  0  0  0
 18 17  1  0  0  0  0
 19 27  2  0  0  0  0
 20 21  2  0  0  0  0
 21 24  1  0  0  0  0
 21 22  1  0  0  0  0
 22 25  2  0  0  0  0
 23 17  2  0  0  0  0
 23 20  1  0  0  0  0
 24 19  1  0  0  0  0
 25 27  1  0  0  0  0
 26 24  2  0  0  0  0
 27 28  1  0  0  0  0
 28 29  1  0  0  0  0
 28 30  2  0  0  0  0
 31 32  3  0  0  0  0
 32 29  1  0  0  0  0
 33 34  1  0  0  0  0
 34 37  1  0  0  0  0
 35 38  1  0  0  0  0
 36 38  2  0  0  0  0
 37 35  2  0  0  0  0
 39 36  1  0  0  0  0
 39 41  1  0  0  0  0
 40 37  1  0  0  0  0
 40 36  1  0  0  0  0
 42 41  1  6  0  0  0
 42 44  1  0  0  0  0
 43 45  1  0  0  0  0
 44 43  2  0  0  0  0
 45 46  1  0  0  0  0
 46 47  1  1  0  0  0
 48 49  1  0  0  0  0
 48 46  1  0  0  0  0
 50 49  1  0  0  0  0
 51 42  1  0  0  0  0
 51 52  2  0  0  0  0
M  END
>  <MODEL>
2

>  <REMARK>
 VINA RESULT:      -7.1      2.551      9.465
  Name = 
  19 active torsions:
  status: ('A' for Active; 'I' for Inactive)
    1  A    between atoms: N_1  and  N_40
    2  A    between atoms: N_1  and  C_42
    3  A    between atoms: O_2  and  C_38
    4  A    between atoms: C_4  and  O_8
    5  A    between atoms: C_5  and  C_51
    6  A    between atoms: C_7  and  C_21
    7  A    between atoms: C_7  and  C_22
    8  A    between atoms: O_8  and  C_47
    9  A    between atoms: C_9  and  C_23
   10  A    between atoms: C_16  and  C_22
   11  A    between atoms: N_19  and  C_48
   12  A    between atoms: C_23  and  C_26
   13  A    between atoms: N_24  and  CA_34
   14  A    between atoms: C_26  and  C_38
   15  A    between atoms: C_28  and  N_40
   16  A    between atoms: C_29  and  CA_34
   17  A    between atoms: C_29  and  N_41
   18  A    between atoms: C_32  and  CA_34
   19  A    between atoms: C_47  and  C_50
                            x       y       z     vdW  Elec       q    Type
                         _______ _______ _______ _____ _____    ______ ____

>  <TORSDO>
F 19

$$$$
=
 OpenBabel11042413353D

 52 56  0  0  1  0  0  0  0  0999 V2000
  187.8340  177.1850  143.6550 N   0  0  0  0  0  2  0  0  0  0  0  0
  185.8080  178.2570  143.3810 C   0  0  1  0  0  3  0  0  0  0  0  0
  187.1070  178.3210  141.5310 N   0  0  0  0  0  0  0  0  0  0  0  0
  188.2670  178.1090  140.7110 C   0  0  0  0  0  0  0  0  0  0  0  0
  188.4580  178.8310  139.7000 O   0  0  0  0  0  0  0  0  0  0  0  0
  185.8390  178.1630  145.1620 S   0  0  0  0  0  0  0  0  0  0  0  0
  185.2090  179.3410  142.5460 C   0  0  0  0  0  2  0  0  0  0  0  0
  186.8540  177.7560  142.8060 C   0  0  1  0  0  3  0  0  0  0  0  0
  186.0880  179.3330  141.2760 C   0  0  2  0  0  3  0  0  0  0  0  0
  187.4050  177.1930  145.0470 C   0  0  2  0  0  3  0  0  0  0  0  0
  188.4850  177.8240  145.9100 C   0  0  0  0  0  2  0  0  0  0  0  0
  188.9770  176.8840  146.8170 O   0  0  0  0  0  0  0  0  0  0  0  0
  188.1900  177.0580  147.9590 C   0  0  0  0  0  2  0  0  0  0  0  0
  188.6810  178.2640  148.7300 C   0  0  0  0  0  1  0  0  0  0  0  0
  185.2880  178.9420  140.1260 N   0  0  0  0  0  2  0  0  0  0  0  0
  183.9640  179.3100  140.4020 N   0  0  0  0  0  2  0  0  0  0  0  0
  180.4480  181.2560  137.2580 C   0  0  0  0  0  0  0  0  0  0  0  0
  179.5870  182.1230  136.4120 C   0  0  0  0  0  1  0  0  0  0  0  0
  180.7340  177.7320  138.2230 N   0  0  0  0  0  0  0  0  0  0  0  0
  182.3270  180.9970  138.7680 C   0  0  0  0  0  3  0  0  0  0  0  0
  182.0720  179.6210  138.8610 C   0  0  0  0  0  0  0  0  0  0  0  0
  182.8660  178.7790  139.6540 C   0  0  0  0  0  0  0  0  0  0  0  0
  181.5170  181.8110  137.9690 C   0  0  0  0  0  3  0  0  0  0  0  0
  180.9910  179.0650  138.1410 C   0  0  0  0  0  0  0  0  0  0  0  0
  182.5690  177.4120  139.7100 C   0  0  0  0  0  3  0  0  0  0  0  0
  180.1850  179.8850  137.3450 C   0  0  0  0  0  3  0  0  0  0  0  0
  181.4870  176.8930  138.9890 C   0  0  0  0  0  0  0  0  0  0  0  0
  181.1610  175.4470  139.0040 C   0  0  0  0  0  0  0  0  0  0  0  0
  181.5360  174.5330  137.9560 N   0  0  0  0  0  2  0  0  0  0  0  0
  180.5210  174.9910  139.9880 O   0  0  0  0  0  0  0  0  0  0  0  0
  183.1870  175.0620  136.0060 C   0  0  0  0  0  3  0  0  0  0  0  0
  182.4210  174.8160  136.9050 C   0  0  0  0  0  0  0  0  0  0  0  0
  189.2440  177.0170  141.0150 C   0  0  0  0  0  2  0  0  0  0  0  0
  190.6680  177.5550  141.0460 C   0  0  0  0  0  2  0  0  0  0  0  0
  190.8390  176.8150  138.6550 N   0  0  0  0  0  0  0  0  0  0  0  0
  193.0000  176.6070  138.1110 C   0  0  0  0  0  0  0  0  0  0  0  0
  191.4250  177.1460  139.8260 C   0  0  0  0  0  0  0  0  0  0  0  0
  191.7160  176.5120  137.6980 N   0  0  0  0  0  0  0  0  0  0  0  0
  194.1280  176.3670  137.2670 N   0  0  0  0  0  2  0  0  0  0  0  0
  193.1080  177.0790  139.7210 S   0  0  0  0  0  0  0  0  0  0  0  0
  193.9820  176.0240  135.8580 C   0  0  0  0  0  2  0  0  0  0  0  0
  193.9880  174.5080  135.6350 C   0  0  2  0  0  3  0  0  0  0  0  0
  191.9160  173.4260  136.0330 C   0  0  0  0  0  3  0  0  0  0  0  0
  192.6970  174.0250  135.2090 N   0  0  0  0  0  0  0  0  0  0  0  0
  190.5720  172.9430  135.5890 C   0  0  0  0  0  2  0  0  0  0  0  0
  189.4740  173.4020  136.5420 C   0  0  1  0  0  3  0  0  0  0  0  0
  189.2110  174.7520  136.3150 O   0  0  0  0  0  1  0  0  0  0  0  0
  188.1930  172.6080  136.3210 C   0  0  0  0  0  2  0  0  0  0  0  0
  187.5370  172.4000  137.5350 O   0  0  0  0  0  0  0  0  0  0  0  0
  186.2490  172.9050  137.3300 C   0  0  0  0  0  1  0  0  0  0  0  0
  194.4660  173.7510  136.8370 C   0  0  0  0  0  3  0  0  0  0  0  0
  195.5730  173.2400  136.8610 O   0  0  0  0  0  0  0  0  0  0  0  0
  1 10  1  0  0  0  0
  2  7  1  1  0  0  0
  2  6  1  0  0  0  0
  3  8  1  0  0  0  0
  4 33  1  0  0  0  0
  4  3  1  0  0  0  0
  5  4  2  0  0  0  0
  8  2  1  0  0  0  0
  8  1  1  1  0  0  0
  9 15  1  6  0  0  0
  9  3  1  0  0  0  0
  9  7  1  0  0  0  0
 10  6  1  0  0  0  0
 10 11  1  1  0  0  0
 11 12  1  0  0  0  0
 12 13  1  0  0  0  0
 13 14  1  0  0  0  0
 15 16  1  0  0  0  0
 17 26  2  0  0  0  0
 17 23  1  0  0  0  0
 18 17  1  0  0  0  0
 19 27  1  0  0  0  0
 20 21  1  0  0  0  0
 21 22  2  0  0  0  0
 22 25  1  0  0  0  0
 22 16  1  0  0  0  0
 23 20  2  0  0  0  0
 24 19  2  0  0  0  0
 24 21  1  0  0  0  0
 26 24  1  0  0  0  0
 27 28  1  0  0  0  0
 27 25  2  0  0  0  0
 28 30  2  0  0  0  0
 29 28  1  0  0  0  0
 31 32  3  0  0  0  0
 32 29  1  0  0  0  0
 33 34  1  0  0  0  0
 35 37  2  0  0  0  0
 36 40  1  0  0  0  0
 37 34  1  0  0  0  0
 38 36  2  0  0  0  0
 38 35  1  0  0  0  0
 39 36  1  0  0  0  0
 40 37  1  0  0  0  0
 41 39  1  0  0  0  0
 42 41  1  1  0  0  0
 42 51  1  0  0  0  0
 44 42  1  0  0  0  0
 44 43  2  0  0  0  0
 45 43  1  0  0  0  0
 45 46  1  0  0  0  0
 46 47  1  6  0  0  0
 48 46  1  0  0  0  0
 48 49  1  0  0  0  0
 50 49  1  0  0  0  0
 51 52  2  0  0  0  0
M  END
>  <MODEL>
3

>  <REMARK>
 VINA RESULT:      -7.1      2.908     10.627
  Name = 
  19 active torsions:
  status: ('A' for Active; 'I' for Inactive)
    1  A    between atoms: N_1  and  N_40
    2  A    between atoms: N_1  and  C_42
    3  A    between atoms: O_2  and  C_38
    4  A    between atoms: C_4  and  O_8
    5  A    between atoms: C_5  and  C_51
    6  A    between atoms: C_7  and  C_21
    7  A    between atoms: C_7  and  C_22
    8  A    between atoms: O_8  and  C_47
    9  A    between atoms: C_9  and  C_23
   10  A    between atoms: C_16  and  C_22
   11  A    between atoms: N_19  and  C_48
   12  A    between atoms: C_23  and  C_26
   13  A    between atoms: N_24  and  CA_34
   14  A    between atoms: C_26  and  C_38
   15  A    between atoms: C_28  and  N_40
   16  A    between atoms: C_29  and  CA_34
   17  A    between atoms: C_29  and  N_41
   18  A    between atoms: C_32  and  CA_34
   19  A    between atoms: C_47  and  C_50
                            x       y       z     vdW  Elec       q    Type
                         _______ _______ _______ _____ _____    ______ ____

>  <TORSDO>
F 19

$$$$
=
 OpenBabel11042413353D

 52 56  0  0  1  0  0  0  0  0999 V2000
  187.8670  177.1570  144.1590 N   0  0  0  0  0  2  0  0  0  0  0  0
  185.7630  178.1080  144.1450 C   0  0  1  0  0  3  0  0  0  0  0  0
  186.7760  178.1550  142.1230 N   0  0  0  0  0  0  0  0  0  0  0  0
  187.8160  177.9670  141.1510 C   0  0  0  0  0  0  0  0  0  0  0  0
  187.8170  178.6530  140.0970 O   0  0  0  0  0  0  0  0  0  0  0  0
  186.0560  178.0960  145.9050 S   0  0  0  0  0  0  0  0  0  0  0  0
  184.9880  179.1190  143.3670 C   0  0  0  0  0  2  0  0  0  0  0  0
  186.7430  177.6360  143.4420 C   0  0  1  0  0  3  0  0  0  0  0  0
  185.6740  179.1000  141.9830 C   0  0  2  0  0  3  0  0  0  0  0  0
  187.6430  177.2040  145.5970 C   0  0  2  0  0  3  0  0  0  0  0  0
  188.7980  177.9290  146.2690 C   0  0  0  0  0  2  0  0  0  0  0  0
  189.5130  177.0400  147.0720 O   0  0  0  0  0  0  0  0  0  0  0  0
  190.8540  177.3150  146.7880 C   0  0  0  0  0  2  0  0  0  0  0  0
  191.1750  176.8550  145.3820 C   0  0  0  0  0  1  0  0  0  0  0  0
  184.7410  178.6160  140.9780 N   0  0  0  0  0  2  0  0  0  0  0  0
  184.6160  179.6270  140.0140 N   0  0  0  0  0  2  0  0  0  0  0  0
  182.7470  176.3780  136.5520 C   0  0  0  0  0  0  0  0  0  0  0  0
  182.4660  175.2290  135.6520 C   0  0  0  0  0  1  0  0  0  0  0  0
  181.4180  179.7130  137.2860 N   0  0  0  0  0  0  0  0  0  0  0  0
  184.0850  177.3980  138.2980 C   0  0  0  0  0  3  0  0  0  0  0  0
  183.2830  178.5470  138.2500 C   0  0  0  0  0  0  0  0  0  0  0  0
  183.5260  179.6480  139.0870 C   0  0  0  0  0  0  0  0  0  0  0  0
  183.8170  176.3170  137.4500 C   0  0  0  0  0  3  0  0  0  0  0  0
  182.2030  178.6040  137.3410 C   0  0  0  0  0  0  0  0  0  0  0  0
  182.6930  180.7700  139.0000 C   0  0  0  0  0  3  0  0  0  0  0  0
  181.9420  177.5200  136.4970 C   0  0  0  0  0  3  0  0  0  0  0  0
  181.6350  180.7970  138.0840 C   0  0  0  0  0  0  0  0  0  0  0  0
  180.7190  181.9580  137.9850 C   0  0  0  0  0  0  0  0  0  0  0  0
  179.6430  182.2060  138.9090 N   0  0  0  0  0  2  0  0  0  0  0  0
  180.8890  182.7730  137.0400 O   0  0  0  0  0  0  0  0  0  0  0  0
  179.2650  180.9510  141.1650 C   0  0  0  0  0  3  0  0  0  0  0  0
  179.4390  181.5350  140.1240 C   0  0  0  0  0  0  0  0  0  0  0  0
  188.8890  176.9430  141.3490 C   0  0  0  0  0  2  0  0  0  0  0  0
  190.2660  177.5930  141.3600 C   0  0  0  0  0  2  0  0  0  0  0  0
  190.4870  176.9250  138.9520 N   0  0  0  0  0  0  0  0  0  0  0  0
  192.6600  176.7240  138.4500 C   0  0  0  0  0  0  0  0  0  0  0  0
  191.0480  177.2170  140.1460 C   0  0  0  0  0  0  0  0  0  0  0  0
  191.3850  176.6470  138.0060 N   0  0  0  0  0  0  0  0  0  0  0  0
  193.8060  176.5030  137.6250 N   0  0  0  0  0  2  0  0  0  0  0  0
  192.7330  177.1460  140.0770 S   0  0  0  0  0  0  0  0  0  0  0  0
  193.6900  176.2040  136.2040 C   0  0  0  0  0  2  0  0  0  0  0  0
  193.7350  174.6970  135.9320 C   0  0  2  0  0  3  0  0  0  0  0  0
  191.7530  173.5010  136.4420 C   0  0  0  0  0  3  0  0  0  0  0  0
  192.4350  174.1760  135.5890 N   0  0  0  0  0  0  0  0  0  0  0  0
  190.3970  172.9770  136.0850 C   0  0  0  0  0  2  0  0  0  0  0  0
  189.2950  173.7800  136.7690 C   0  0  1  0  0  3  0  0  0  0  0  0
  189.1090  174.9760  136.0780 O   0  0  0  0  0  1  0  0  0  0  0  0
  187.9830  173.0070  136.7760 C   0  0  0  0  0  2  0  0  0  0  0  0
  187.2860  173.2270  135.5870 O   0  0  0  0  0  0  0  0  0  0  0  0
  185.9570  173.4010  135.9860 C   0  0  0  0  0  1  0  0  0  0  0  0
  194.3320  173.9240  137.0690 C   0  0  0  0  0  3  0  0  0  0  0  0
  195.1840  173.0730  136.8740 O   0  0  0  0  0  0  0  0  0  0  0  0
  1 10  1  0  0  0  0
  2  7  1  6  0  0  0
  2  6  1  0  0  0  0
  3  8  1  0  0  0  0
  4 33  1  0  0  0  0
  4  3  1  0  0  0  0
  5  4  2  0  0  0  0
  8  2  1  0  0  0  0
  8  1  1  1  0  0  0
  9 15  1  6  0  0  0
  9  3  1  0  0  0  0
  9  7  1  0  0  0  0
 10  6  1  0  0  0  0
 10 11  1  1  0  0  0
 11 12  1  0  0  0  0
 13 12  1  0  0  0  0
 14 13  1  0  0  0  0
 16 15  1  0  0  0  0
 17 23  1  0  0  0  0
 18 17  1  0  0  0  0
 19 24  2  0  0  0  0
 19 27  1  0  0  0  0
 21 20  1  0  0  0  0
 21 22  2  0  0  0  0
 22 16  1  0  0  0  0
 23 20  2  0  0  0  0
 24 21  1  0  0  0  0
 25 22  1  0  0  0  0
 26 17  2  0  0  0  0
 26 24  1  0  0  0  0
 27 25  2  0  0  0  0
 28 27  1  0  0  0  0
 28 29  1  0  0  0  0
 29 32  1  0  0  0  0
 30 28  2  0  0  0  0
 32 31  3  0  0  0  0
 33 34  1  0  0  0  0
 35 37  2  0  0  0  0
 36 40  1  0  0  0  0
 37 34  1  0  0  0  0
 38 36  2  0  0  0  0
 38 35  1  0  0  0  0
 39 36  1  0  0  0  0
 40 37  1  0  0  0  0
 41 39  1  0  0  0  0
 42 41  1  1  0  0  0
 42 51  1  0  0  0  0
 44 42  1  0  0  0  0
 44 43  2  0  0  0  0
 45 43  1  0  0  0  0
 45 46  1  0  0  0  0
 46 47  1  6  0  0  0
 46 48  1  0  0  0  0
 49 50  1  0  0  0  0
 49 48  1  0  0  0  0
 52 51  2  0  0  0  0
M  END
>  <MODEL>
4

>  <REMARK>
 VINA RESULT:      -6.9      3.205     10.222
  Name = 
  19 active torsions:
  status: ('A' for Active; 'I' for Inactive)
    1  A    between atoms: N_1  and  N_40
    2  A    between atoms: N_1  and  C_42
    3  A    between atoms: O_2  and  C_38
    4  A    between atoms: C_4  and  O_8
    5  A    between atoms: C_5  and  C_51
    6  A    between atoms: C_7  and  C_21
    7  A    between atoms: C_7  and  C_22
    8  A    between atoms: O_8  and  C_47
    9  A    between atoms: C_9  and  C_23
   10  A    between atoms: C_16  and  C_22
   11  A    between atoms: N_19  and  C_48
   12  A    between atoms: C_23  and  C_26
   13  A    between atoms: N_24  and  CA_34
   14  A    between atoms: C_26  and  C_38
   15  A    between atoms: C_28  and  N_40
   16  A    between atoms: C_29  and  CA_34
   17  A    between atoms: C_29  and  N_41
   18  A    between atoms: C_32  and  CA_34
   19  A    between atoms: C_47  and  C_50
                            x       y       z     vdW  Elec       q    Type
                         _______ _______ _______ _____ _____    ______ ____

>  <TORSDO>
F 19

$$$$
=
 OpenBabel11042413353D

 52 56  0  0  1  0  0  0  0  0999 V2000
  188.2770  176.1500  136.6930 N   0  0  0  0  0  2  0  0  0  0  0  0
  186.2080  177.0890  136.2860 C   0  0  1  0  0  3  0  0  0  0  0  0
  186.9980  177.5370  138.3570 N   0  0  0  0  0  0  0  0  0  0  0  0
  187.8920  177.4890  139.4800 C   0  0  0  0  0  0  0  0  0  0  0  0
  187.4630  177.7500  140.6320 O   0  0  0  0  0  0  0  0  0  0  0  0
  186.2480  175.9050  134.9520 S   0  0  0  0  0  0  0  0  0  0  0  0
  185.0090  177.5490  137.0480 C   0  0  0  0  0  2  0  0  0  0  0  0
  187.2560  177.0680  137.0450 C   0  0  1  0  0  3  0  0  0  0  0  0
  185.5840  177.8860  138.4410 C   0  0  2  0  0  3  0  0  0  0  0  0
  187.9700  175.4610  135.4470 C   0  0  2  0  0  3  0  0  0  0  0  0
  188.0940  173.9610  135.6500 C   0  0  0  0  0  2  0  0  0  0  0  0
  186.8800  173.3400  135.3510 O   0  0  0  0  0  0  0  0  0  0  0  0
  186.8120  172.2630  136.2390 C   0  0  0  0  0  2  0  0  0  0  0  0
  188.0450  172.2540  137.1160 C   0  0  0  0  0  1  0  0  0  0  0  0
  185.4470  179.3110  138.6990 N   0  0  0  0  0  2  0  0  0  0  0  0
  184.6160  179.4470  139.8190 N   0  0  0  0  0  2  0  0  0  0  0  0
  180.7200  178.7300  143.0350 C   0  0  0  0  0  0  0  0  0  0  0  0
  179.8410  178.4780  144.2070 C   0  0  0  0  0  1  0  0  0  0  0  0
  180.4280  179.4150  139.4480 N   0  0  0  0  0  0  0  0  0  0  0  0
  182.9400  178.9720  142.0920 C   0  0  0  0  0  3  0  0  0  0  0  0
  182.3840  179.2010  140.8240 C   0  0  0  0  0  0  0  0  0  0  0  0
  183.1900  179.4400  139.7000 C   0  0  0  0  0  0  0  0  0  0  0  0
  182.1100  178.7370  143.1930 C   0  0  0  0  0  3  0  0  0  0  0  0
  180.9800  179.1930  140.6700 C   0  0  0  0  0  0  0  0  0  0  0  0
  182.5830  179.6650  138.4590 C   0  0  0  0  0  3  0  0  0  0  0  0
  180.1560  178.9570  141.7760 C   0  0  0  0  0  3  0  0  0  0  0  0
  181.1890  179.6450  138.3390 C   0  0  0  0  0  0  0  0  0  0  0  0
  180.5130  179.9060  137.0460 C   0  0  0  0  0  0  0  0  0  0  0  0
  180.2460  181.2260  136.5370 N   0  0  0  0  0  2  0  0  0  0  0  0
  180.1520  178.9180  136.3520 O   0  0  0  0  0  0  0  0  0  0  0  0
  181.1920  183.4510  137.5180 C   0  0  0  0  0  3  0  0  0  0  0  0
  180.7580  182.4220  137.0630 C   0  0  0  0  0  0  0  0  0  0  0  0
  189.3430  177.1660  139.3040 C   0  0  0  0  0  2  0  0  0  0  0  0
  190.2110  178.0970  140.1400 C   0  0  0  0  0  2  0  0  0  0  0  0
  190.2490  176.2250  141.8100 N   0  0  0  0  0  0  0  0  0  0  0  0
  191.0950  176.9880  143.7370 C   0  0  0  0  0  0  0  0  0  0  0  0
  190.4780  177.5180  141.4900 C   0  0  0  0  0  0  0  0  0  0  0  0
  190.5910  175.9290  143.0640 N   0  0  0  0  0  0  0  0  0  0  0  0
  191.5640  176.9240  145.0860 N   0  0  0  0  0  2  0  0  0  0  0  0
  191.1370  178.3730  142.7860 S   0  0  0  0  0  0  0  0  0  0  0  0
  191.5670  175.6810  145.8470 C   0  0  0  0  0  2  0  0  0  0  0  0
  191.2940  175.9220  147.3350 C   0  0  2  0  0  3  0  0  0  0  0  0
  189.0600  176.7160  147.3440 C   0  0  0  0  0  3  0  0  0  0  0  0
  190.3070  176.9540  147.5370 N   0  0  0  0  0  0  0  0  0  0  0  0
  188.0390  177.7870  147.5720 C   0  0  0  0  0  2  0  0  0  0  0  0
  187.0210  177.8330  146.4380 C   0  0  1  0  0  3  0  0  0  0  0  0
  186.1600  178.9100  146.6440 O   0  0  0  0  0  1  0  0  0  0  0  0
  187.7120  178.0070  145.0920 C   0  0  0  0  0  2  0  0  0  0  0  0
  187.1880  177.1110  144.1600 O   0  0  0  0  0  0  0  0  0  0  0  0
  185.9910  177.7000  143.7410 C   0  0  0  0  0  1  0  0  0  0  0  0
  192.5410  176.2250  148.1090 C   0  0  0  0  0  3  0  0  0  0  0  0
  193.5810  175.6280  147.8870 O   0  0  0  0  0  0  0  0  0  0  0  0
  2  8  1  0  0  0  0
  2  7  1  1  0  0  0
  3  9  1  0  0  0  0
  3  4  1  0  0  0  0
  4  5  2  0  0  0  0
  6 10  1  0  0  0  0
  6  2  1  0  0  0  0
  7  9  1  0  0  0  0
  8  1  1  1  0  0  0
  8  3  1  0  0  0  0
  9 15  1  6  0  0  0
 10 11  1  1  0  0  0
 10  1  1  0  0  0  0
 12 11  1  0  0  0  0
 12 13  1  0  0  0  0
 13 14  1  0  0  0  0
 15 16  1  0  0  0  0
 17 23  1  0  0  0  0
 17 18  1  0  0  0  0
 19 24  1  0  0  0  0
 20 23  2  0  0  0  0
 21 20  1  0  0  0  0
 22 16  1  0  0  0  0
 22 21  1  0  0  0  0
 24 21  2  0  0  0  0
 24 26  1  0  0  0  0
 25 22  2  0  0  0  0
 26 17  2  0  0  0  0
 27 25  1  0  0  0  0
 27 19  2  0  0  0  0
 28 27  1  0  0  0  0
 29 28  1  0  0  0  0
 29 32  1  0  0  0  0
 30 28  2  0  0  0  0
 32 31  3  0  0  0  0
 33  4  1  0  0  0  0
 33 34  1  0  0  0  0
 34 37  1  0  0  0  0
 35 38  1  0  0  0  0
 36 39  1  0  0  0  0
 37 35  2  0  0  0  0
 37 40  1  0  0  0  0
 38 36  2  0  0  0  0
 39 41  1  0  0  0  0
 40 36  1  0  0  0  0
 42 41  1  6  0  0  0
 42 44  1  0  0  0  0
 42 51  1  0  0  0  0
 43 44  2  0  0  0  0
 43 45  1  0  0  0  0
 46 47  1  1  0  0  0
 46 45  1  0  0  0  0
 48 46  1  0  0  0  0
 49 48  1  0  0  0  0
 50 49  1  0  0  0  0
 52 51  2  0  0  0  0
M  END
>  <MODEL>
5

>  <REMARK>
 VINA RESULT:      -6.8      2.912      8.837
  Name = 
  19 active torsions:
  status: ('A' for Active; 'I' for Inactive)
    1  A    between atoms: N_1  and  N_40
    2  A    between atoms: N_1  and  C_42
    3  A    between atoms: O_2  and  C_38
    4  A    between atoms: C_4  and  O_8
    5  A    between atoms: C_5  and  C_51
    6  A    between atoms: C_7  and  C_21
    7  A    between atoms: C_7  and  C_22
    8  A    between atoms: O_8  and  C_47
    9  A    between atoms: C_9  and  C_23
   10  A    between atoms: C_16  and  C_22
   11  A    between atoms: N_19  and  C_48
   12  A    between atoms: C_23  and  C_26
   13  A    between atoms: N_24  and  CA_34
   14  A    between atoms: C_26  and  C_38
   15  A    between atoms: C_28  and  N_40
   16  A    between atoms: C_29  and  CA_34
   17  A    between atoms: C_29  and  N_41
   18  A    between atoms: C_32  and  CA_34
   19  A    between atoms: C_47  and  C_50
                            x       y       z     vdW  Elec       q    Type
                         _______ _______ _______ _____ _____    ______ ____

>  <TORSDO>
F 19

$$$$
=
 OpenBabel11042413353D

 52 56  0  0  1  0  0  0  0  0999 V2000
  188.9530  176.8550  142.7550 N   0  0  0  0  0  2  0  0  0  0  0  0
  186.7770  177.6010  142.9560 C   0  0  1  0  0  3  0  0  0  0  0  0
  187.7400  178.1800  140.9930 N   0  0  0  0  0  0  0  0  0  0  0  0
  188.7710  178.3010  140.0010 C   0  0  0  0  0  0  0  0  0  0  0  0
  188.6920  179.1990  139.1240 O   0  0  0  0  0  0  0  0  0  0  0  0
  187.1070  177.2270  144.6690 S   0  0  0  0  0  0  0  0  0  0  0  0
  185.9040  178.6880  142.4230 C   0  0  0  0  0  2  0  0  0  0  0  0
  187.7770  177.3820  142.1640 C   0  0  1  0  0  3  0  0  0  0  0  0
  186.5590  179.0340  141.0680 C   0  0  2  0  0  3  0  0  0  0  0  0
  188.7560  176.5650  144.1690 C   0  0  2  0  0  3  0  0  0  0  0  0
  189.8600  177.2210  144.9810 C   0  0  0  0  0  2  0  0  0  0  0  0
  189.3110  177.8780  146.0830 O   0  0  0  0  0  0  0  0  0  0  0  0
  190.2310  177.6610  147.1130 C   0  0  0  0  0  2  0  0  0  0  0  0
  190.9690  176.3640  146.8620 C   0  0  0  0  0  1  0  0  0  0  0  0
  185.6490  178.7050  139.9820 N   0  0  0  0  0  2  0  0  0  0  0  0
  184.5370  179.5490  140.1080 N   0  0  0  0  0  2  0  0  0  0  0  0
  180.5990  178.5080  143.1810 C   0  0  0  0  0  0  0  0  0  0  0  0
  179.6740  178.3060  144.3260 C   0  0  0  0  0  1  0  0  0  0  0  0
  180.6270  178.1150  139.5380 N   0  0  0  0  0  0  0  0  0  0  0  0
  182.7670  179.1790  142.3280 C   0  0  0  0  0  3  0  0  0  0  0  0
  182.3500  178.8870  141.0210 C   0  0  0  0  0  0  0  0  0  0  0  0
  183.2040  179.0660  139.9210 C   0  0  0  0  0  0  0  0  0  0  0  0
  181.8930  178.9890  143.4040 C   0  0  0  0  0  3  0  0  0  0  0  0
  181.0420  178.4010  140.8000 C   0  0  0  0  0  0  0  0  0  0  0  0
  182.7370  178.7620  138.6370 C   0  0  0  0  0  3  0  0  0  0  0  0
  180.1740  178.2140  141.8810 C   0  0  0  0  0  3  0  0  0  0  0  0
  181.4370  178.2760  138.4530 C   0  0  0  0  0  0  0  0  0  0  0  0
  180.9020  177.9690  137.1050 C   0  0  0  0  0  0  0  0  0  0  0  0
  180.9280  176.6560  136.5160 N   0  0  0  0  0  2  0  0  0  0  0  0
  180.3950  178.9090  136.4360 O   0  0  0  0  0  0  0  0  0  0  0  0
  181.5260  174.4450  137.7660 C   0  0  0  0  0  3  0  0  0  0  0  0
  181.2540  175.4670  137.1860 C   0  0  0  0  0  0  0  0  0  0  0  0
  189.9290  177.3540  139.9650 C   0  0  0  0  0  2  0  0  0  0  0  0
  189.7300  176.2920  138.8920 C   0  0  0  0  0  2  0  0  0  0  0  0
  192.1600  175.7250  138.6460 N   0  0  0  0  0  0  0  0  0  0  0  0
  192.7090  175.8020  136.4770 C   0  0  0  0  0  0  0  0  0  0  0  0
  190.9780  176.0850  138.1010 C   0  0  0  0  0  0  0  0  0  0  0  0
  193.1280  175.5690  137.7410 N   0  0  0  0  0  0  0  0  0  0  0  0
  193.5440  175.6710  135.3240 N   0  0  0  0  0  2  0  0  0  0  0  0
  191.0820  176.2240  136.4220 S   0  0  0  0  0  0  0  0  0  0  0  0
  194.9320  175.2360  135.4190 C   0  0  0  0  0  2  0  0  0  0  0  0
  195.8700  176.1430  134.6170 C   0  0  2  0  0  3  0  0  0  0  0  0
  197.5830  174.9850  135.7770 C   0  0  0  0  0  3  0  0  0  0  0  0
  197.2570  175.8570  134.8930 N   0  0  0  0  0  0  0  0  0  0  0  0
  199.0230  174.6810  136.0470 C   0  0  0  0  0  2  0  0  0  0  0  0
  199.1770  173.7290  137.2290 C   0  0  1  0  0  3  0  0  0  0  0  0
  199.1180  174.4620  138.4130 O   0  0  0  0  0  1  0  0  0  0  0  0
  198.0650  172.6880  137.2380 C   0  0  0  0  0  2  0  0  0  0  0  0
  198.5560  171.4520  136.8170 O   0  0  0  0  0  0  0  0  0  0  0  0
  197.7320  170.5130  137.4450 C   0  0  0  0  0  1  0  0  0  0  0  0
  195.5800  177.5990  134.8220 C   0  0  0  0  0  3  0  0  0  0  0  0
  196.4240  178.3520  135.2810 O   0  0  0  0  0  0  0  0  0  0  0  0
  1 10  1  0  0  0  0
  2  7  1  1  0  0  0
  2  6  1  0  0  0  0
  3  9  1  0  0  0  0
  3  8  1  0  0  0  0
  4  3  1  0  0  0  0
  5  4  2  0  0  0  0
  8  1  1  1  0  0  0
  8  2  1  0  0  0  0
  9 15  1  6  0  0  0
  9  7  1  0  0  0  0
 10  6  1  0  0  0  0
 10 11  1  1  0  0  0
 11 12  1  0  0  0  0
 12 13  1  0  0  0  0
 14 13  1  0  0  0  0
 15 16  1  0  0  0  0
 17 23  1  0  0  0  0
 17 18  1  0  0  0  0
 19 24  1  0  0  0  0
 20 23  2  0  0  0  0
 21 20  1  0  0  0  0
 22 16  1  0  0  0  0
 22 21  1  0  0  0  0
 24 21  2  0  0  0  0
 24 26  1  0  0  0  0
 25 22  2  0  0  0  0
 26 17  2  0  0  0  0
 27 25  1  0  0  0  0
 27 19  2  0  0  0  0
 28 27  1  0  0  0  0
 29 28  1  0  0  0  0
 29 32  1  0  0  0  0
 30 28  2  0  0  0  0
 32 31  3  0  0  0  0
 33  4  1  0  0  0  0
 34 33  1  0  0  0  0
 36 38  2  0  0  0  0
 37 35  2  0  0  0  0
 37 34  1  0  0  0  0
 38 35  1  0  0  0  0
 39 41  1  0  0  0  0
 39 36  1  0  0  0  0
 40 36  1  0  0  0  0
 40 37  1  0  0  0  0
 42 51  1  1  0  0  0
 42 44  1  0  0  0  0
 42 41  1  0  0  0  0
 43 45  1  0  0  0  0
 44 43  2  0  0  0  0
 45 46  1  0  0  0  0
 46 48  1  0  0  0  0
 46 47  1  1  0  0  0
 49 48  1  0  0  0  0
 49 50  1  0  0  0  0
 51 52  2  0  0  0  0
M  END
>  <MODEL>
6

>  <REMARK>
 VINA RESULT:      -6.6      3.686     11.854
  Name = 
  19 active torsions:
  status: ('A' for Active; 'I' for Inactive)
    1  A    between atoms: N_1  and  N_40
    2  A    between atoms: N_1  and  C_42
    3  A    between atoms: O_2  and  C_38
    4  A    between atoms: C_4  and  O_8
    5  A    between atoms: C_5  and  C_51
    6  A    between atoms: C_7  and  C_21
    7  A    between atoms: C_7  and  C_22
    8  A    between atoms: O_8  and  C_47
    9  A    between atoms: C_9  and  C_23
   10  A    between atoms: C_16  and  C_22
   11  A    between atoms: N_19  and  C_48
   12  A    between atoms: C_23  and  C_26
   13  A    between atoms: N_24  and  CA_34
   14  A    between atoms: C_26  and  C_38
   15  A    between atoms: C_28  and  N_40
   16  A    between atoms: C_29  and  CA_34
   17  A    between atoms: C_29  and  N_41
   18  A    between atoms: C_32  and  CA_34
   19  A    between atoms: C_47  and  C_50
                            x       y       z     vdW  Elec       q    Type
                         _______ _______ _______ _____ _____    ______ ____

>  <TORSDO>
F 19

$$$$
=
 OpenBabel11042413353D

 52 56  0  0  1  0  0  0  0  0999 V2000
  185.9470  174.2070  136.6750 N   0  0  0  0  0  2  0  0  0  0  0  0
  188.0100  173.5520  135.8730 C   0  0  1  0  0  3  0  0  0  0  0  0
  187.5500  175.7300  135.4740 N   0  0  0  0  0  0  0  0  0  0  0  0
  186.7890  176.9470  135.4550 C   0  0  0  0  0  0  0  0  0  0  0  0
  187.0780  177.8510  134.6290 O   0  0  0  0  0  0  0  0  0  0  0  0
  187.2760  171.9430  136.1120 S   0  0  0  0  0  0  0  0  0  0  0  0
  188.9870  173.9480  134.8150 C   0  0  0  0  0  2  0  0  0  0  0  0
  187.2310  174.5400  136.1740 C   0  0  1  0  0  3  0  0  0  0  0  0
  188.6780  175.4450  134.5940 C   0  0  2  0  0  3  0  0  0  0  0  0
  185.7960  172.7690  136.8450 C   0  0  2  0  0  3  0  0  0  0  0  0
  184.5290  172.3030  136.1470 C   0  0  0  0  0  2  0  0  0  0  0  0
  184.7690  171.1000  135.4810 O   0  0  0  0  0  0  0  0  0  0  0  0
  183.8050  170.2240  135.9880 C   0  0  0  0  0  2  0  0  0  0  0  0
  182.6440  171.0190  136.5440 C   0  0  0  0  0  1  0  0  0  0  0  0
  189.8230  176.2490  134.9920 N   0  0  0  0  0  2  0  0  0  0  0  0
  189.8950  176.1950  136.3920 N   0  0  0  0  0  2  0  0  0  0  0  0
  191.2210  177.4810  141.1480 C   0  0  0  0  0  0  0  0  0  0  0  0
  191.2610  177.8740  142.5810 C   0  0  0  0  0  1  0  0  0  0  0  0
  193.5420  176.7350  138.4120 N   0  0  0  0  0  0  0  0  0  0  0  0
  189.9500  176.9390  139.1550 C   0  0  0  0  0  3  0  0  0  0  0  0
  191.1410  176.7440  138.4410 C   0  0  0  0  0  0  0  0  0  0  0  0
  191.1330  176.3750  137.0860 C   0  0  0  0  0  0  0  0  0  0  0  0
  189.9910  177.3070  140.5050 C   0  0  0  0  0  3  0  0  0  0  0  0
  192.3810  176.9220  139.0940 C   0  0  0  0  0  0  0  0  0  0  0  0
  192.3500  176.1910  136.4200 C   0  0  0  0  0  3  0  0  0  0  0  0
  192.4140  177.2900  140.4430 C   0  0  0  0  0  3  0  0  0  0  0  0
  193.5620  176.3810  137.0950 C   0  0  0  0  0  0  0  0  0  0  0  0
  194.8680  176.1690  136.4280 C   0  0  0  0  0  0  0  0  0  0  0  0
  195.7930  175.1280  136.7960 N   0  0  0  0  0  2  0  0  0  0  0  0
  195.1890  176.9420  135.4870 O   0  0  0  0  0  0  0  0  0  0  0  0
  195.2800  173.1450  138.4130 C   0  0  0  0  0  3  0  0  0  0  0  0
  195.5150  174.0590  137.6620 C   0  0  0  0  0  0  0  0  0  0  0  0
  185.6730  177.1820  136.4240 C   0  0  0  0  0  2  0  0  0  0  0  0
  186.1520  177.9960  137.6170 C   0  0  0  0  0  2  0  0  0  0  0  0
  184.9160  179.6220  139.0730 N   0  0  0  0  0  0  0  0  0  0  0  0
  182.9880  178.6910  139.7290 C   0  0  0  0  0  0  0  0  0  0  0  0
  185.0080  178.4110  138.4810 C   0  0  0  0  0  0  0  0  0  0  0  0
  183.7910  179.7780  139.7720 N   0  0  0  0  0  0  0  0  0  0  0  0
  181.7120  178.6160  140.3680 N   0  0  0  0  0  2  0  0  0  0  0  0
  183.6550  177.4550  138.8030 S   0  0  0  0  0  0  0  0  0  0  0  0
  181.1490  179.7410  141.1050 C   0  0  0  0  0  2  0  0  0  0  0  0
  180.3650  179.2800  142.3380 C   0  0  2  0  0  3  0  0  0  0  0  0
  182.4460  178.9970  143.4380 C   0  0  0  0  0  3  0  0  0  0  0  0
  181.1910  179.2580  143.5200 N   0  0  0  0  0  0  0  0  0  0  0  0
  183.3010  178.9920  144.6660 C   0  0  0  0  0  2  0  0  0  0  0  0
  184.7830  178.9460  144.3100 C   0  0  1  0  0  3  0  0  0  0  0  0
  185.4780  178.3100  145.3380 O   0  0  0  0  0  1  0  0  0  0  0  0
  185.0090  178.1780  143.0140 C   0  0  0  0  0  2  0  0  0  0  0  0
  186.1590  178.6390  142.3730 O   0  0  0  0  0  0  0  0  0  0  0  0
  187.1890  177.8440  142.8850 C   0  0  0  0  0  1  0  0  0  0  0  0
  179.6970  177.9540  142.1350 C   0  0  0  0  0  3  0  0  0  0  0  0
  179.7010  177.1050  143.0110 O   0  0  0  0  0  0  0  0  0  0  0  0
  1 10  1  0  0  0  0
  2  7  1  6  0  0  0
  2  6  1  0  0  0  0
  2  8  1  0  0  0  0
  3  8  1  0  0  0  0
  4  3  1  0  0  0  0
  4 33  1  0  0  0  0
  5  4  2  0  0  0  0
  6 10  1  0  0  0  0
  8  1  1  6  0  0  0
  9  7  1  0  0  0  0
  9 15  1  1  0  0  0
  9  3  1  0  0  0  0
 10 11  1  6  0  0  0
 12 13  1  0  0  0  0
 12 11  1  0  0  0  0
 13 14  1  0  0  0  0
 15 16  1  0  0  0  0
 16 22  1  0  0  0  0
 17 18  1  0  0  0  0
 19 24  1  0  0  0  0
 20 23  2  0  0  0  0
 21 24  2  0  0  0  0
 21 20  1  0  0  0  0
 22 21  1  0  0  0  0
 23 17  1  0  0  0  0
 24 26  1  0  0  0  0
 25 22  2  0  0  0  0
 25 27  1  0  0  0  0
 26 17  2  0  0  0  0
 27 19  2  0  0  0  0
 28 29  1  0  0  0  0
 28 27  1  0  0  0  0
 29 32  1  0  0  0  0
 30 28  2  0  0  0  0
 32 31  3  0  0  0  0
 33 34  1  0  0  0  0
 34 37  1  0  0  0  0
 35 38  1  0  0  0  0
 36 38  2  0  0  0  0
 36 39  1  0  0  0  0
 37 40  1  0  0  0  0
 37 35  2  0  0  0  0
 39 41  1  0  0  0  0
 40 36  1  0  0  0  0
 42 41  1  6  0  0  0
 42 44  1  0  0  0  0
 43 44  2  0  0  0  0
 43 45  1  0  0  0  0
 46 45  1  0  0  0  0
 46 47  1  1  0  0  0
 48 46  1  0  0  0  0
 49 50  1  0  0  0  0
 49 48  1  0  0  0  0
 51 42  1  0  0  0  0
 51 52  2  0  0  0  0
M  END
>  <MODEL>
7

>  <REMARK>
 VINA RESULT:      -6.6      3.248      7.149
  Name = 
  19 active torsions:
  status: ('A' for Active; 'I' for Inactive)
    1  A    between atoms: N_1  and  N_40
    2  A    between atoms: N_1  and  C_42
    3  A    between atoms: O_2  and  C_38
    4  A    between atoms: C_4  and  O_8
    5  A    between atoms: C_5  and  C_51
    6  A    between atoms: C_7  and  C_21
    7  A    between atoms: C_7  and  C_22
    8  A    between atoms: O_8  and  C_47
    9  A    between atoms: C_9  and  C_23
   10  A    between atoms: C_16  and  C_22
   11  A    between atoms: N_19  and  C_48
   12  A    between atoms: C_23  and  C_26
   13  A    between atoms: N_24  and  CA_34
   14  A    between atoms: C_26  and  C_38
   15  A    between atoms: C_28  and  N_40
   16  A    between atoms: C_29  and  CA_34
   17  A    between atoms: C_29  and  N_41
   18  A    between atoms: C_32  and  CA_34
   19  A    between atoms: C_47  and  C_50
                            x       y       z     vdW  Elec       q    Type
                         _______ _______ _______ _____ _____    ______ ____

>  <TORSDO>
F 19

$$$$
=
 OpenBabel11042413353D

 52 56  0  0  1  0  0  0  0  0999 V2000
  188.4960  177.1080  142.9240 N   0  0  0  0  0  2  0  0  0  0  0  0
  186.3710  177.9490  143.2500 C   0  0  1  0  0  3  0  0  0  0  0  0
  187.1340  178.2500  141.1430 N   0  0  0  0  0  0  0  0  0  0  0  0
  188.0570  178.2130  140.0440 C   0  0  0  0  0  0  0  0  0  0  0  0
  187.9070  179.0000  139.0750 O   0  0  0  0  0  0  0  0  0  0  0  0
  186.8700  177.7750  144.9540 S   0  0  0  0  0  0  0  0  0  0  0  0
  185.4710  178.9930  142.6770 C   0  0  0  0  0  2  0  0  0  0  0  0
  187.2770  177.6000  142.3940 C   0  0  1  0  0  3  0  0  0  0  0  0
  185.9870  179.1480  141.2300 C   0  0  2  0  0  3  0  0  0  0  0  0
  188.4430  177.0000  144.3750 C   0  0  2  0  0  3  0  0  0  0  0  0
  189.6400  177.7110  144.9830 C   0  0  0  0  0  2  0  0  0  0  0  0
  190.6880  177.7470  144.0620 O   0  0  0  0  0  0  0  0  0  0  0  0
  191.6750  176.9330  144.6250 C   0  0  0  0  0  2  0  0  0  0  0  0
  191.6780  175.5910  143.9260 C   0  0  0  0  0  1  0  0  0  0  0  0
  184.9610  178.7210  140.2920 N   0  0  0  0  0  2  0  0  0  0  0  0
  184.0890  177.8760  140.9940 N   0  0  0  0  0  2  0  0  0  0  0  0
  180.6690  175.3250  138.1960 C   0  0  0  0  0  0  0  0  0  0  0  0
  179.9540  174.4060  137.2720 C   0  0  0  0  0  1  0  0  0  0  0  0
  179.9240  178.1030  140.4670 N   0  0  0  0  0  0  0  0  0  0  0  0
  182.7310  176.0870  139.2190 C   0  0  0  0  0  3  0  0  0  0  0  0
  182.0220  177.0620  139.9360 C   0  0  0  0  0  0  0  0  0  0  0  0
  182.6720  177.9450  140.8140 C   0  0  0  0  0  0  0  0  0  0  0  0
  182.0550  175.2220  138.3510 C   0  0  0  0  0  3  0  0  0  0  0  0
  180.6220  177.1620  139.7760 C   0  0  0  0  0  0  0  0  0  0  0  0
  181.9160  178.8980  141.5080 C   0  0  0  0  0  3  0  0  0  0  0  0
  179.9540  176.2940  138.9070 C   0  0  0  0  0  3  0  0  0  0  0  0
  180.5310  178.9750  141.3220 C   0  0  0  0  0  0  0  0  0  0  0  0
  179.6980  179.9540  142.0600 C   0  0  0  0  0  0  0  0  0  0  0  0
  179.3000  181.2290  141.5230 N   0  0  0  0  0  2  0  0  0  0  0  0
  179.3170  179.6550  143.2230 O   0  0  0  0  0  0  0  0  0  0  0  0
  179.5830  181.9880  139.0430 C   0  0  0  0  0  3  0  0  0  0  0  0
  179.4500  181.6340  140.1880 C   0  0  0  0  0  0  0  0  0  0  0  0
  189.1840  177.2290  140.0090 C   0  0  0  0  0  2  0  0  0  0  0  0
  189.0090  176.2430  138.8630 C   0  0  0  0  0  2  0  0  0  0  0  0
  190.1500  176.0730  136.6360 N   0  0  0  0  0  0  0  0  0  0  0  0
  192.3560  176.3190  136.9280 C   0  0  0  0  0  0  0  0  0  0  0  0
  190.2100  176.2270  137.9760 C   0  0  0  0  0  0  0  0  0  0  0  0
  191.3470  176.1220  136.0500 N   0  0  0  0  0  0  0  0  0  0  0  0
  193.7290  176.4420  136.5500 N   0  0  0  0  0  2  0  0  0  0  0  0
  191.7960  176.4420  138.5090 S   0  0  0  0  0  0  0  0  0  0  0  0
  194.1560  176.3940  135.1570 C   0  0  0  0  0  2  0  0  0  0  0  0
  195.6780  176.2830  135.0300 C   0  0  2  0  0  3  0  0  0  0  0  0
  197.5080  175.2470  136.1260 C   0  0  0  0  0  3  0  0  0  0  0  0
  196.2440  175.4670  136.0770 N   0  0  0  0  0  0  0  0  0  0  0  0
  198.0900  174.4140  137.2250 C   0  0  0  0  0  2  0  0  0  0  0  0
  197.8530  172.9280  136.9790 C   0  0  1  0  0  3  0  0  0  0  0  0
  198.9760  172.2140  137.3970 O   0  0  0  0  0  1  0  0  0  0  0  0
  196.6390  172.4340  137.7540 C   0  0  0  0  0  2  0  0  0  0  0  0
  195.7650  171.7560  136.9030 O   0  0  0  0  0  0  0  0  0  0  0  0
  196.0480  170.4030  137.1140 C   0  0  0  0  0  1  0  0  0  0  0  0
  196.3520  177.6200  134.9790 C   0  0  0  0  0  3  0  0  0  0  0  0
  195.7730  178.6320  135.3370 O   0  0  0  0  0  0  0  0  0  0  0  0
  1 10  1  0  0  0  0
  2  7  1  6  0  0  0
  2  6  1  0  0  0  0
  3  9  1  0  0  0  0
  3  8  1  0  0  0  0
  4  3  1  0  0  0  0
  5  4  2  0  0  0  0
  8  1  1  1  0  0  0
  8  2  1  0  0  0  0
  9 15  1  6  0  0  0
  9  7  1  0  0  0  0
 10  6  1  0  0  0  0
 10 11  1  1  0  0  0
 12 13  1  0  0  0  0
 12 11  1  0  0  0  0
 14 13  1  0  0  0  0
 15 16  1  0  0  0  0
 17 23  2  0  0  0  0
 17 26  1  0  0  0  0
 18 17  1  0  0  0  0
 19 27  2  0  0  0  0
 20 21  2  0  0  0  0
 21 22  1  0  0  0  0
 22 16  1  0  0  0  0
 22 25  2  0  0  0  0
 23 20  1  0  0  0  0
 24 21  1  0  0  0  0
 24 19  1  0  0  0  0
 26 24  2  0  0  0  0
 27 25  1  0  0  0  0
 27 28  1  0  0  0  0
 28 30  2  0  0  0  0
 29 28  1  0  0  0  0
 31 32  3  0  0  0  0
 32 29  1  0  0  0  0
 33  4  1  0  0  0  0
 34 33  1  0  0  0  0
 35 37  2  0  0  0  0
 36 40  1  0  0  0  0
 37 40  1  0  0  0  0
 37 34  1  0  0  0  0
 38 35  1  0  0  0  0
 38 36  2  0  0  0  0
 39 36  1  0  0  0  0
 41 39  1  0  0  0  0
 42 51  1  1  0  0  0
 42 41  1  0  0  0  0
 42 44  1  0  0  0  0
 43 45  1  0  0  0  0
 44 43  2  0  0  0  0
 46 45  1  0  0  0  0
 46 47  1  1  0  0  0
 46 48  1  0  0  0  0
 49 50  1  0  0  0  0
 49 48  1  0  0  0  0
 51 52  2  0  0  0  0
M  END
>  <MODEL>
8

>  <REMARK>
 VINA RESULT:      -6.6      3.419     11.423
  Name = 
  19 active torsions:
  status: ('A' for Active; 'I' for Inactive)
    1  A    between atoms: N_1  and  N_40
    2  A    between atoms: N_1  and  C_42
    3  A    between atoms: O_2  and  C_38
    4  A    between atoms: C_4  and  O_8
    5  A    between atoms: C_5  and  C_51
    6  A    between atoms: C_7  and  C_21
    7  A    between atoms: C_7  and  C_22
    8  A    between atoms: O_8  and  C_47
    9  A    between atoms: C_9  and  C_23
   10  A    between atoms: C_16  and  C_22
   11  A    between atoms: N_19  and  C_48
   12  A    between atoms: C_23  and  C_26
   13  A    between atoms: N_24  and  CA_34
   14  A    between atoms: C_26  and  C_38
   15  A    between atoms: C_28  and  N_40
   16  A    between atoms: C_29  and  CA_34
   17  A    between atoms: C_29  and  N_41
   18  A    between atoms: C_32  and  CA_34
   19  A    between atoms: C_47  and  C_50
                            x       y       z     vdW  Elec       q    Type
                         _______ _______ _______ _____ _____    ______ ____

>  <TORSDO>
F 19

$$$$
=
 OpenBabel11042413353D

 52 56  0  0  1  0  0  0  0  0999 V2000
  190.3550  176.1420  138.1710 N   0  0  0  0  0  2  0  0  0  0  0  0
  190.5600  177.1010  140.2610 C   0  0  1  0  0  3  0  0  0  0  0  0
  188.5690  177.5280  139.2770 N   0  0  0  0  0  0  0  0  0  0  0  0
  187.5620  177.5210  138.2540 C   0  0  0  0  0  0  0  0  0  0  0  0
  186.6600  178.3970  138.2590 O   0  0  0  0  0  0  0  0  0  0  0  0
  192.2790  176.7460  139.9430 S   0  0  0  0  0  0  0  0  0  0  0  0
  190.0060  178.2530  141.0330 C   0  0  0  0  0  2  0  0  0  0  0  0
  189.7630  176.7640  139.2980 C   0  0  1  0  0  3  0  0  0  0  0  0
  188.6330  178.4950  140.3680 C   0  0  2  0  0  3  0  0  0  0  0  0
  191.7790  175.9130  138.3730 C   0  0  2  0  0  3  0  0  0  0  0  0
  192.5580  176.4820  137.1990 C   0  0  0  0  0  2  0  0  0  0  0  0
  191.9950  176.0440  136.0000 O   0  0  0  0  0  0  0  0  0  0  0  0
  193.0840  175.6000  135.2440 C   0  0  0  0  0  2  0  0  0  0  0  0
  194.3580  176.2000  135.7990 C   0  0  0  0  0  1  0  0  0  0  0  0
  187.5690  178.2240  141.3220 N   0  0  0  0  0  2  0  0  0  0  0  0
  188.1730  177.6990  142.4730 N   0  0  0  0  0  2  0  0  0  0  0  0
  183.4720  178.7010  144.1850 C   0  0  0  0  0  0  0  0  0  0  0  0
  182.0270  179.0110  144.3430 C   0  0  0  0  0  1  0  0  0  0  0  0
  186.4220  178.1010  146.2740 N   0  0  0  0  0  0  0  0  0  0  0  0
  185.3840  178.2820  142.7540 C   0  0  0  0  0  3  0  0  0  0  0  0
  186.2020  178.1220  143.8830 C   0  0  0  0  0  0  0  0  0  0  0  0
  187.5700  177.8320  143.7630 C   0  0  0  0  0  0  0  0  0  0  0  0
  184.0240  178.5720  142.9060 C   0  0  0  0  0  3  0  0  0  0  0  0
  185.6400  178.2540  145.1720 C   0  0  0  0  0  0  0  0  0  0  0  0
  188.3400  177.6790  144.9220 C   0  0  0  0  0  3  0  0  0  0  0  0
  184.2790  178.5440  145.3160 C   0  0  0  0  0  3  0  0  0  0  0  0
  187.7540  177.8230  146.1850 C   0  0  0  0  0  0  0  0  0  0  0  0
  188.5350  177.6410  147.4320 C   0  0  0  0  0  0  0  0  0  0  0  0
  189.8780  177.1250  147.4650 N   0  0  0  0  0  2  0  0  0  0  0  0
  187.9930  177.9570  148.5250 O   0  0  0  0  0  0  0  0  0  0  0  0
  191.4070  176.7540  145.3830 C   0  0  0  0  0  3  0  0  0  0  0  0
  190.7040  176.9260  146.3480 C   0  0  0  0  0  0  0  0  0  0  0  0
  187.5400  176.4660  137.1930 C   0  0  0  0  0  2  0  0  0  0  0  0
  186.6770  176.8980  136.0150 C   0  0  0  0  0  2  0  0  0  0  0  0
  184.1880  177.2020  135.9760 N   0  0  0  0  0  0  0  0  0  0  0  0
  183.2090  175.2500  136.4700 C   0  0  0  0  0  0  0  0  0  0  0  0
  185.2720  176.4200  136.1720 C   0  0  0  0  0  0  0  0  0  0  0  0
  183.0360  176.5510  136.1450 N   0  0  0  0  0  0  0  0  0  0  0  0
  182.1340  174.3300  136.6720 N   0  0  0  0  0  2  0  0  0  0  0  0
  184.8360  174.8390  136.5690 S   0  0  0  0  0  0  0  0  0  0  0  0
  180.7390  174.7210  136.5090 C   0  0  0  0  0  2  0  0  0  0  0  0
  179.8020  173.8660  137.3690 C   0  0  2  0  0  3  0  0  0  0  0  0
  179.7700  175.7180  138.8490 C   0  0  0  0  0  3  0  0  0  0  0  0
  179.2230  174.6290  138.4470 N   0  0  0  0  0  0  0  0  0  0  0  0
  179.1540  176.5130  139.9570 C   0  0  0  0  0  2  0  0  0  0  0  0
  179.8910  177.8310  140.1720 C   0  0  1  0  0  3  0  0  0  0  0  0
  180.4060  177.8570  141.4670 O   0  0  0  0  0  1  0  0  0  0  0  0
  181.0400  177.9790  139.1830 C   0  0  0  0  0  2  0  0  0  0  0  0
  182.1970  178.3920  139.8440 O   0  0  0  0  0  0  0  0  0  0  0  0
  182.9510  179.0400  138.8610 C   0  0  0  0  0  1  0  0  0  0  0  0
  180.4680  172.6310  137.8930 C   0  0  0  0  0  3  0  0  0  0  0  0
  180.0670  171.5200  137.5880 O   0  0  0  0  0  0  0  0  0  0  0  0
  1 10  1  0  0  0  0
  2  7  1  6  0  0  0
  3  8  1  0  0  0  0
  3  9  1  0  0  0  0
  4  5  2  0  0  0  0
  4  3  1  0  0  0  0
  6  2  1  0  0  0  0
  8  1  1  6  0  0  0
  8  2  1  0  0  0  0
  9  7  1  0  0  0  0
  9 15  1  1  0  0  0
 10 11  1  6  0  0  0
 10  6  1  0  0  0  0
 12 11  1  0  0  0  0
 13 14  1  0  0  0  0
 13 12  1  0  0  0  0
 15 16  1  0  0  0  0
 16 22  1  0  0  0  0
 17 18  1  0  0  0  0
 17 26  1  0  0  0  0
 20 23  1  0  0  0  0
 20 21  2  0  0  0  0
 21 24  1  0  0  0  0
 22 21  1  0  0  0  0
 22 25  2  0  0  0  0
 23 17  2  0  0  0  0
 24 26  2  0  0  0  0
 24 19  1  0  0  0  0
 25 27  1  0  0  0  0
 27 19  2  0  0  0  0
 27 28  1  0  0  0  0
 28 29  1  0  0  0  0
 28 30  2  0  0  0  0
 31 32  3  0  0  0  0
 32 29  1  0  0  0  0
 33  4  1  0  0  0  0
 34 37  1  0  0  0  0
 34 33  1  0  0  0  0
 35 38  1  0  0  0  0
 35 37  2  0  0  0  0
 36 40  1  0  0  0  0
 36 39  1  0  0  0  0
 37 40  1  0  0  0  0
 38 36  2  0  0  0  0
 41 39  1  0  0  0  0
 42 41  1  1  0  0  0
 42 51  1  0  0  0  0
 42 44  1  0  0  0  0
 43 45  1  0  0  0  0
 44 43  2  0  0  0  0
 45 46  1  0  0  0  0
 46 47  1  1  0  0  0
 48 49  1  0  0  0  0
 48 46  1  0  0  0  0
 50 49  1  0  0  0  0
 52 51  2  0  0  0  0
M  END
>  <MODEL>
9

>  <REMARK>
 VINA RESULT:      -6.5      1.871      3.757
  Name = 
  19 active torsions:
  status: ('A' for Active; 'I' for Inactive)
    1  A    between atoms: N_1  and  N_40
    2  A    between atoms: N_1  and  C_42
    3  A    between atoms: O_2  and  C_38
    4  A    between atoms: C_4  and  O_8
    5  A    between atoms: C_5  and  C_51
    6  A    between atoms: C_7  and  C_21
    7  A    between atoms: C_7  and  C_22
    8  A    between atoms: O_8  and  C_47
    9  A    between atoms: C_9  and  C_23
   10  A    between atoms: C_16  and  C_22
   11  A    between atoms: N_19  and  C_48
   12  A    between atoms: C_23  and  C_26
   13  A    between atoms: N_24  and  CA_34
   14  A    between atoms: C_26  and  C_38
   15  A    between atoms: C_28  and  N_40
   16  A    between atoms: C_29  and  CA_34
   17  A    between atoms: C_29  and  N_41
   18  A    between atoms: C_32  and  CA_34
   19  A    between atoms: C_47  and  C_50
                            x       y       z     vdW  Elec       q    Type
                         _______ _______ _______ _____ _____    ______ ____

>  <TORSDO>
F 19

$$$$
