=
 OpenBabel11032419193D

 25 28  0  0  1  0  0  0  0  0999 V2000
  189.9100  176.3080  142.3160 N   0  0  0  0  0  0  0  0  0  0  0  0
  189.9320  176.4280  143.7680 C   0  0  2  0  0  3  0  0  0  0  0  0
  189.5000  177.4180  141.8050 C   0  0  0  0  0  0  0  0  0  0  0  0
  189.2140  178.3830  142.7510 O   0  0  0  0  0  0  0  0  0  0  0  0
  189.4740  177.8640  144.0430 C   0  0  1  0  0  3  0  0  0  0  0  0
  189.3570  177.6160  140.3500 C   0  0  0  0  0  0  0  0  0  0  0  0
  190.3650  177.2080  139.5280 N   0  0  0  0  0  0  0  0  0  0  0  0
  187.1240  178.6590  140.5720 N   0  0  0  0  0  1  0  0  0  0  0  0
  189.1660  177.9500  137.6170 C   0  0  0  0  0  0  0  0  0  0  0  0
  188.2160  178.2110  139.7730 C   0  0  0  0  0  0  0  0  0  0  0  0
  188.1540  178.3600  138.4230 N   0  0  0  0  0  0  0  0  0  0  0  0
  190.2960  177.3610  138.1800 C   0  0  0  0  0  3  0  0  0  0  0  0
  189.0730  178.1200  136.2090 N   0  0  0  0  0  1  0  0  0  0  0  0
  186.9850  177.8620  144.2480 C   0  0  0  0  0  3  0  0  0  0  0  0
  188.3010  177.9270  146.2810 C   0  0  0  0  0  3  0  0  0  0  0  0
  188.2330  177.8750  144.8800 C   0  0  0  0  0  0  0  0  0  0  0  0
  185.8830  177.9340  146.4030 C   0  0  0  0  0  3  0  0  0  0  0  0
  187.1280  177.9540  147.0390 C   0  0  0  0  0  3  0  0  0  0  0  0
  185.8120  177.8890  145.0080 C   0  0  0  0  0  3  0  0  0  0  0  0
  191.3500  176.2340  144.2880 C   0  0  0  0  0  2  0  0  0  0  0  0
  191.6050  177.0990  145.5120 C   0  0  0  0  0  2  0  0  0  0  0  0
  191.3190  176.3230  146.7920 C   0  0  1  0  0  3  0  0  0  0  0  0
  192.2670  175.1640  146.9210 C   0  0  0  0  0  2  0  0  0  0  0  0
  191.8710  176.9870  147.9010 O   0  0  0  0  0  0  0  0  0  0  0  0
  192.7820  175.9370  148.1040 C   0  0  0  0  0  2  0  0  0  0  0  0
  1  2  1  0  0  0  0
  2  5  1  0  0  0  0
  2 20  1  6  0  0  0
  3  1  2  0  0  0  0
  3  4  1  0  0  0  0
  4  5  1  0  0  0  0
  5 16  1  1  0  0  0
  6  3  1  0  0  0  0
  7  6  2  0  0  0  0
  9 12  2  0  0  0  0
  9 11  1  0  0  0  0
 10  6  1  0  0  0  0
 10  8  1  0  0  0  0
 11 10  2  0  0  0  0
 12  7  1  0  0  0  0
 13  9  1  0  0  0  0
 14 16  2  0  0  0  0
 14 19  1  0  0  0  0
 15 18  2  0  0  0  0
 16 15  1  0  0  0  0
 17 18  1  0  0  0  0
 19 17  2  0  0  0  0
 20 21  1  0  0  0  0
 22 21  1  6  0  0  0
 22 23  1  0  0  0  0
 22 24  1  0  0  0  0
 23 25  1  0  0  0  0
 24 25  1  0  0  0  0
M  END
>  <MODEL>
1

>  <REMARK>
 VINA RESULT:      -8.9      0.000      0.000
  Name = 
  5 active torsions:
  status: ('A' for Active; 'I' for Inactive)
    1  A    between atoms: C_1  and  C_9
    2  A    between atoms: C_4  and  C_13
    3  A    between atoms: C_8  and  C_16
    4  A    between atoms: C_13  and  C_16
    5  A    between atoms: C_17  and  C_25
                            x       y       z     vdW  Elec       q    Type
                         _______ _______ _______ _____ _____    ______ ____

>  <TORSDO>
F 5

$$$$
=
 OpenBabel11032419193D

 25 28  0  0  1  0  0  0  0  0999 V2000
  188.3780  178.5400  141.3700 N   0  0  0  0  0  0  0  0  0  0  0  0
  187.3230  178.4590  142.3730 C   0  0  2  0  0  3  0  0  0  0  0  0
  189.1000  177.4740  141.4270 C   0  0  0  0  0  0  0  0  0  0  0  0
  188.6770  176.5770  142.3890 O   0  0  0  0  0  0  0  0  0  0  0  0
  187.5330  177.0980  143.0430 C   0  0  1  0  0  3  0  0  0  0  0  0
  190.2600  177.2540  140.5420 C   0  0  0  0  0  0  0  0  0  0  0  0
  190.0400  176.8990  139.2450 N   0  0  0  0  0  0  0  0  0  0  0  0
  191.8940  177.7700  142.3280 N   0  0  0  0  0  1  0  0  0  0  0  0
  192.3760  176.8260  138.8240 C   0  0  0  0  0  0  0  0  0  0  0  0
  191.5910  177.3980  140.9860 C   0  0  0  0  0  0  0  0  0  0  0  0
  192.6100  177.1800  140.1130 N   0  0  0  0  0  0  0  0  0  0  0  0
  191.0640  176.6820  138.3790 C   0  0  0  0  0  3  0  0  0  0  0  0
  193.4630  176.6030  137.9340 N   0  0  0  0  0  1  0  0  0  0  0  0
  186.7200  177.5800  145.3550 C   0  0  0  0  0  3  0  0  0  0  0  0
  189.0780  177.1240  145.0420 C   0  0  0  0  0  3  0  0  0  0  0  0
  187.7870  177.2600  144.5090 C   0  0  0  0  0  0  0  0  0  0  0  0
  188.2220  177.6100  147.2540 C   0  0  0  0  0  3  0  0  0  0  0  0
  189.2930  177.2970  146.4120 C   0  0  0  0  0  3  0  0  0  0  0  0
  186.9360  177.7520  146.7250 C   0  0  0  0  0  3  0  0  0  0  0  0
  185.9580  178.4940  141.7000 C   0  0  0  0  0  2  0  0  0  0  0  0
  184.9630  179.2940  142.5260 C   0  0  0  0  0  2  0  0  0  0  0  0
  183.8540  178.3930  143.0590 C   0  0  1  0  0  3  0  0  0  0  0  0
  183.3550  178.9070  144.3790 C   0  0  0  0  0  2  0  0  0  0  0  0
  182.6400  178.6770  142.4110 O   0  0  0  0  0  0  0  0  0  0  0  0
  182.0890  179.1610  143.6100 C   0  0  0  0  0  2  0  0  0  0  0  0
  1  3  2  0  0  0  0
  1  2  1  0  0  0  0
  2 20  1  6  0  0  0
  2  5  1  0  0  0  0
  3  4  1  0  0  0  0
  4  5  1  0  0  0  0
  5 16  1  1  0  0  0
  6 10  1  0  0  0  0
  6  3  1  0  0  0  0
  7  6  2  0  0  0  0
  9 11  1  0  0  0  0
 10  8  1  0  0  0  0
 11 10  2  0  0  0  0
 12  9  2  0  0  0  0
 12  7  1  0  0  0  0
 13  9  1  0  0  0  0
 14 19  1  0  0  0  0
 15 18  2  0  0  0  0
 16 15  1  0  0  0  0
 16 14  2  0  0  0  0
 18 17  1  0  0  0  0
 19 17  2  0  0  0  0
 20 21  1  0  0  0  0
 22 21  1  6  0  0  0
 22 23  1  0  0  0  0
 24 22  1  0  0  0  0
 24 25  1  0  0  0  0
 25 23  1  0  0  0  0
M  END
>  <MODEL>
2

>  <REMARK>
 VINA RESULT:      -8.9      2.430      5.258
  Name = 
  5 active torsions:
  status: ('A' for Active; 'I' for Inactive)
    1  A    between atoms: C_1  and  C_9
    2  A    between atoms: C_4  and  C_13
    3  A    between atoms: C_8  and  C_16
    4  A    between atoms: C_13  and  C_16
    5  A    between atoms: C_17  and  C_25
                            x       y       z     vdW  Elec       q    Type
                         _______ _______ _______ _____ _____    ______ ____

>  <TORSDO>
F 5

$$$$
=
 OpenBabel11032419193D

 25 28  0  0  1  0  0  0  0  0999 V2000
  189.4030  177.9360  143.3500 N   0  0  0  0  0  0  0  0  0  0  0  0
  188.2620  178.0220  142.4480 C   0  0  2  0  0  3  0  0  0  0  0  0
  189.1000  177.1770  144.3460 C   0  0  0  0  0  0  0  0  0  0  0  0
  187.8190  176.6650  144.2750 O   0  0  0  0  0  0  0  0  0  0  0  0
  187.1970  177.1260  143.0880 C   0  0  1  0  0  3  0  0  0  0  0  0
  190.0450  176.8950  145.4440 C   0  0  0  0  0  0  0  0  0  0  0  0
  191.2280  176.2830  145.1550 N   0  0  0  0  0  0  0  0  0  0  0  0
  188.5570  177.8790  147.1600 N   0  0  0  0  0  1  0  0  0  0  0  0
  191.8640  176.3350  147.4420 C   0  0  0  0  0  0  0  0  0  0  0  0
  189.7720  177.2350  146.7860 C   0  0  0  0  0  0  0  0  0  0  0  0
  190.6910  176.9450  147.7450 N   0  0  0  0  0  0  0  0  0  0  0  0
  192.1400  175.9960  146.1190 C   0  0  0  0  0  3  0  0  0  0  0  0
  192.8050  176.0430  148.4670 N   0  0  0  0  0  1  0  0  0  0  0  0
  185.6990  178.2580  144.7350 C   0  0  0  0  0  3  0  0  0  0  0  0
  185.0560  178.2790  142.3990 C   0  0  0  0  0  3  0  0  0  0  0  0
  185.9630  177.9110  143.4050 C   0  0  0  0  0  0  0  0  0  0  0  0
  183.6460  179.3470  144.0520 C   0  0  0  0  0  3  0  0  0  0  0  0
  183.9030  178.9970  142.7230 C   0  0  0  0  0  3  0  0  0  0  0  0
  184.5440  178.9760  145.0580 C   0  0  0  0  0  3  0  0  0  0  0  0
  188.6360  177.4730  141.0780 C   0  0  0  0  0  2  0  0  0  0  0  0
  188.1170  178.3740  139.9680 C   0  0  0  0  0  2  0  0  0  0  0  0
  189.1930  178.6120  138.9160 C   0  0  1  0  0  3  0  0  0  0  0  0
  189.3560  177.3930  138.0530 C   0  0  0  0  0  2  0  0  0  0  0  0
  188.6790  179.3780  137.8550 O   0  0  0  0  0  0  0  0  0  0  0  0
  188.8150  178.2910  136.9750 C   0  0  0  0  0  2  0  0  0  0  0  0
  1  3  2  0  0  0  0
  2 20  1  6  0  0  0
  2  5  1  0  0  0  0
  2  1  1  0  0  0  0
  3  6  1  0  0  0  0
  4  3  1  0  0  0  0
  5 16  1  1  0  0  0
  5  4  1  0  0  0  0
  6 10  1  0  0  0  0
  7  6  2  0  0  0  0
  7 12  1  0  0  0  0
  9 11  1  0  0  0  0
  9 13  1  0  0  0  0
 10  8  1  0  0  0  0
 10 11  2  0  0  0  0
 12  9  2  0  0  0  0
 14 19  1  0  0  0  0
 15 18  2  0  0  0  0
 15 16  1  0  0  0  0
 16 14  2  0  0  0  0
 17 19  2  0  0  0  0
 18 17  1  0  0  0  0
 21 20  1  0  0  0  0
 22 21  1  1  0  0  0
 23 22  1  0  0  0  0
 24 22  1  0  0  0  0
 25 24  1  0  0  0  0
 25 23  1  0  0  0  0
M  END
>  <MODEL>
3

>  <REMARK>
 VINA RESULT:      -8.8      2.808      6.925
  Name = 
  5 active torsions:
  status: ('A' for Active; 'I' for Inactive)
    1  A    between atoms: C_1  and  C_9
    2  A    between atoms: C_4  and  C_13
    3  A    between atoms: C_8  and  C_16
    4  A    between atoms: C_13  and  C_16
    5  A    between atoms: C_17  and  C_25
                            x       y       z     vdW  Elec       q    Type
                         _______ _______ _______ _____ _____    ______ ____

>  <TORSDO>
F 5

$$$$
=
 OpenBabel11032419193D

 25 28  0  0  1  0  0  0  0  0999 V2000
  188.6350  178.5730  141.1480 N   0  0  0  0  0  0  0  0  0  0  0  0
  187.5960  178.5170  142.1680 C   0  0  2  0  0  3  0  0  0  0  0  0
  189.3180  177.4800  141.1770 C   0  0  0  0  0  0  0  0  0  0  0  0
  188.8780  176.5850  142.1330 O   0  0  0  0  0  0  0  0  0  0  0  0
  187.7650  177.1380  142.8140 C   0  0  1  0  0  3  0  0  0  0  0  0
  190.4530  177.2310  140.2690 C   0  0  0  0  0  0  0  0  0  0  0  0
  191.7190  177.4690  140.7150 N   0  0  0  0  0  0  0  0  0  0  0  0
  188.9880  176.4810  138.4210 N   0  0  0  0  0  1  0  0  0  0  0  0
  192.6290  176.7880  138.6310 C   0  0  0  0  0  0  0  0  0  0  0  0
  190.2810  176.7530  138.9520 C   0  0  0  0  0  0  0  0  0  0  0  0
  191.3750  176.5460  138.1720 N   0  0  0  0  0  0  0  0  0  0  0  0
  192.8070  177.2600  139.9300 C   0  0  0  0  0  3  0  0  0  0  0  0
  193.7540  176.5620  137.7900 N   0  0  0  0  0  1  0  0  0  0  0  0
  186.9900  177.4900  145.1620 C   0  0  0  0  0  3  0  0  0  0  0  0
  189.3630  177.1990  144.7720 C   0  0  0  0  0  3  0  0  0  0  0  0
  188.0510  177.2680  144.2780 C   0  0  0  0  0  0  0  0  0  0  0  0
  188.5400  177.5570  147.0210 C   0  0  0  0  0  3  0  0  0  0  0  0
  189.6050  177.3410  146.1410 C   0  0  0  0  0  3  0  0  0  0  0  0
  187.2330  177.6320  146.5310 C   0  0  0  0  0  3  0  0  0  0  0  0
  186.2220  178.6120  141.5200 C   0  0  0  0  0  2  0  0  0  0  0  0
  185.2380  179.3310  142.4300 C   0  0  0  0  0  2  0  0  0  0  0  0
  184.1640  178.3720  142.9310 C   0  0  1  0  0  3  0  0  0  0  0  0
  183.6340  178.8330  144.2590 C   0  0  0  0  0  2  0  0  0  0  0  0
  182.9440  178.6210  142.2800 O   0  0  0  0  0  0  0  0  0  0  0  0
  182.3630  179.0510  143.4850 C   0  0  0  0  0  2  0  0  0  0  0  0
  1  3  2  0  0  0  0
  1  2  1  0  0  0  0
  2 20  1  6  0  0  0
  2  5  1  0  0  0  0
  3  4  1  0  0  0  0
  4  5  1  0  0  0  0
  5 16  1  1  0  0  0
  6  7  1  0  0  0  0
  6  3  1  0  0  0  0
  8 10  1  0  0  0  0
  9 12  1  0  0  0  0
 10  6  2  0  0  0  0
 11  9  2  0  0  0  0
 11 10  1  0  0  0  0
 12  7  2  0  0  0  0
 13  9  1  0  0  0  0
 14 19  1  0  0  0  0
 15 18  2  0  0  0  0
 16 15  1  0  0  0  0
 16 14  2  0  0  0  0
 18 17  1  0  0  0  0
 19 17  2  0  0  0  0
 20 21  1  0  0  0  0
 22 21  1  6  0  0  0
 22 23  1  0  0  0  0
 24 22  1  0  0  0  0
 24 25  1  0  0  0  0
 25 23  1  0  0  0  0
M  END
>  <MODEL>
4

>  <REMARK>
 VINA RESULT:      -8.8      2.433      5.127
  Name = 
  5 active torsions:
  status: ('A' for Active; 'I' for Inactive)
    1  A    between atoms: C_1  and  C_9
    2  A    between atoms: C_4  and  C_13
    3  A    between atoms: C_8  and  C_16
    4  A    between atoms: C_13  and  C_16
    5  A    between atoms: C_17  and  C_25
                            x       y       z     vdW  Elec       q    Type
                         _______ _______ _______ _____ _____    ______ ____

>  <TORSDO>
F 5

$$$$
=
 OpenBabel11032419193D

 25 28  0  0  1  0  0  0  0  0999 V2000
  187.9290  178.3580  141.9580 N   0  0  0  0  0  0  0  0  0  0  0  0
  186.9140  178.2450  142.9970 C   0  0  2  0  0  3  0  0  0  0  0  0
  188.8070  177.4280  142.1190 C   0  0  0  0  0  0  0  0  0  0  0  0
  188.5400  176.6040  143.1940 O   0  0  0  0  0  0  0  0  0  0  0  0
  187.3390  177.0230  143.8180 C   0  0  1  0  0  3  0  0  0  0  0  0
  189.9750  177.2780  141.2290 C   0  0  0  0  0  0  0  0  0  0  0  0
  189.7720  176.9100  139.9330 N   0  0  0  0  0  0  0  0  0  0  0  0
  191.5820  177.8910  143.0090 N   0  0  0  0  0  1  0  0  0  0  0  0
  192.1060  176.9770  139.5030 C   0  0  0  0  0  0  0  0  0  0  0  0
  191.2970  177.5010  141.6680 C   0  0  0  0  0  0  0  0  0  0  0  0
  192.3240  177.3440  140.7910 N   0  0  0  0  0  0  0  0  0  0  0  0
  190.8030  176.7540  139.0630 C   0  0  0  0  0  3  0  0  0  0  0  0
  193.2010  176.8190  138.6090 N   0  0  0  0  0  1  0  0  0  0  0  0
  188.8610  177.2150  145.7890 C   0  0  0  0  0  3  0  0  0  0  0  0
  186.5550  177.9120  146.0510 C   0  0  0  0  0  3  0  0  0  0  0  0
  187.5850  177.4010  145.2450 C   0  0  0  0  0  0  0  0  0  0  0  0
  188.0840  178.0590  147.9220 C   0  0  0  0  0  3  0  0  0  0  0  0
  186.8070  178.2410  147.3850 C   0  0  0  0  0  3  0  0  0  0  0  0
  189.1110  177.5460  147.1240 C   0  0  0  0  0  3  0  0  0  0  0  0
  185.5500  177.9910  142.3700 C   0  0  0  0  0  2  0  0  0  0  0  0
  185.0920  179.1900  141.5540 C   0  0  0  0  0  2  0  0  0  0  0  0
  184.7600  178.7770  140.1250 C   0  0  1  0  0  3  0  0  0  0  0  0
  183.2780  178.5800  139.9720 C   0  0  0  0  0  2  0  0  0  0  0  0
  184.7680  179.8990  139.2780 O   0  0  0  0  0  0  0  0  0  0  0  0
  183.3850  179.7760  139.0660 C   0  0  0  0  0  2  0  0  0  0  0  0
  1  3  2  0  0  0  0
  1  2  1  0  0  0  0
  2 20  1  6  0  0  0
  2  5  1  0  0  0  0
  3  4  1  0  0  0  0
  4  5  1  0  0  0  0
  5 16  1  1  0  0  0
  6 10  1  0  0  0  0
  6  3  1  0  0  0  0
  7  6  2  0  0  0  0
  9 11  1  0  0  0  0
 10  8  1  0  0  0  0
 11 10  2  0  0  0  0
 12  9  2  0  0  0  0
 12  7  1  0  0  0  0
 13  9  1  0  0  0  0
 14 19  1  0  0  0  0
 15 18  2  0  0  0  0
 16 14  2  0  0  0  0
 16 15  1  0  0  0  0
 18 17  1  0  0  0  0
 19 17  2  0  0  0  0
 21 20  1  0  0  0  0
 22 21  1  1  0  0  0
 23 22  1  0  0  0  0
 24 22  1  0  0  0  0
 25 24  1  0  0  0  0
 25 23  1  0  0  0  0
M  END
>  <MODEL>
5

>  <REMARK>
 VINA RESULT:      -8.7      2.550      5.742
  Name = 
  5 active torsions:
  status: ('A' for Active; 'I' for Inactive)
    1  A    between atoms: C_1  and  C_9
    2  A    between atoms: C_4  and  C_13
    3  A    between atoms: C_8  and  C_16
    4  A    between atoms: C_13  and  C_16
    5  A    between atoms: C_17  and  C_25
                            x       y       z     vdW  Elec       q    Type
                         _______ _______ _______ _____ _____    ______ ____

>  <TORSDO>
F 5

$$$$
=
 OpenBabel11032419193D

 25 28  0  0  1  0  0  0  0  0999 V2000
  188.2710  176.6700  144.0170 N   0  0  0  0  0  0  0  0  0  0  0  0
  187.6310  177.2000  142.8200 C   0  0  2  0  0  3  0  0  0  0  0  0
  189.4230  177.2280  144.1660 C   0  0  0  0  0  0  0  0  0  0  0  0
  189.7140  178.1530  143.1820 O   0  0  0  0  0  0  0  0  0  0  0  0
  188.6260  178.2300  142.2760 C   0  0  1  0  0  3  0  0  0  0  0  0
  190.3250  176.8980  145.2850 C   0  0  0  0  0  0  0  0  0  0  0  0
  190.0370  177.3790  146.5270 N   0  0  0  0  0  0  0  0  0  0  0  0
  191.8370  175.5620  143.8520 N   0  0  0  0  0  1  0  0  0  0  0  0
  191.9630  176.3240  147.4300 C   0  0  0  0  0  0  0  0  0  0  0  0
  191.4770  176.1000  145.1210 C   0  0  0  0  0  0  0  0  0  0  0  0
  192.2620  175.8360  146.1990 N   0  0  0  0  0  0  0  0  0  0  0  0
  190.8270  177.1120  147.5990 C   0  0  0  0  0  3  0  0  0  0  0  0
  192.8040  176.0310  148.5390 N   0  0  0  0  0  1  0  0  0  0  0  0
  188.2710  178.2560  139.8040 C   0  0  0  0  0  3  0  0  0  0  0  0
  190.2340  177.1280  140.6670 C   0  0  0  0  0  3  0  0  0  0  0  0
  189.0620  177.8690  140.8900 C   0  0  0  0  0  0  0  0  0  0  0  0
  189.8190  177.1830  138.2820 C   0  0  0  0  0  3  0  0  0  0  0  0
  190.6100  176.7890  139.3650 C   0  0  0  0  0  3  0  0  0  0  0  0
  188.6490  177.9160  138.5020 C   0  0  0  0  0  3  0  0  0  0  0  0
  186.3270  177.8920  143.1860 C   0  0  0  0  0  2  0  0  0  0  0  0
  186.1000  177.8700  144.6900 C   0  0  0  0  0  2  0  0  0  0  0  0
  185.2710  179.0710  145.1300 C   0  0  1  0  0  3  0  0  0  0  0  0
  184.2780  179.4370  144.0640 C   0  0  0  0  0  2  0  0  0  0  0  0
  184.2660  178.6690  146.0260 O   0  0  0  0  0  0  0  0  0  0  0  0
  183.2700  179.0030  145.0920 C   0  0  0  0  0  2  0  0  0  0  0  0
  1  3  2  0  0  0  0
  2 20  1  1  0  0  0
  2  1  1  0  0  0  0
  3  6  1  0  0  0  0
  4  3  1  0  0  0  0
  5 16  1  6  0  0  0
  5  2  1  0  0  0  0
  5  4  1  0  0  0  0
  6  7  1  0  0  0  0
  7 12  2  0  0  0  0
  8 10  1  0  0  0  0
  9 12  1  0  0  0  0
  9 13  1  0  0  0  0
 10  6  2  0  0  0  0
 10 11  1  0  0  0  0
 11  9  2  0  0  0  0
 14 16  1  0  0  0  0
 15 16  2  0  0  0  0
 17 19  1  0  0  0  0
 17 18  2  0  0  0  0
 18 15  1  0  0  0  0
 19 14  2  0  0  0  0
 20 21  1  0  0  0  0
 22 21  1  6  0  0  0
 22 24  1  0  0  0  0
 23 25  1  0  0  0  0
 23 22  1  0  0  0  0
 25 24  1  0  0  0  0
M  END
>  <MODEL>
6

>  <REMARK>
 VINA RESULT:      -8.5      2.846      7.165
  Name = 
  5 active torsions:
  status: ('A' for Active; 'I' for Inactive)
    1  A    between atoms: C_1  and  C_9
    2  A    between atoms: C_4  and  C_13
    3  A    between atoms: C_8  and  C_16
    4  A    between atoms: C_13  and  C_16
    5  A    between atoms: C_17  and  C_25
                            x       y       z     vdW  Elec       q    Type
                         _______ _______ _______ _____ _____    ______ ____

>  <TORSDO>
F 5

$$$$
=
 OpenBabel11032419193D

 25 28  0  0  1  0  0  0  0  0999 V2000
  188.9930  176.2440  142.7120 N   0  0  0  0  0  0  0  0  0  0  0  0
  188.4960  176.6590  144.0180 C   0  0  2  0  0  3  0  0  0  0  0  0
  188.8630  177.2190  141.8790 C   0  0  0  0  0  0  0  0  0  0  0  0
  188.3150  178.3530  142.4450 O   0  0  0  0  0  0  0  0  0  0  0  0
  188.0580  178.1130  143.8180 C   0  0  1  0  0  3  0  0  0  0  0  0
  189.2690  177.1120  140.4640 C   0  0  0  0  0  0  0  0  0  0  0  0
  190.4020  176.4210  140.1540 N   0  0  0  0  0  0  0  0  0  0  0  0
  187.3320  178.4310  139.6680 N   0  0  0  0  0  1  0  0  0  0  0  0
  190.0920  176.8660  137.8430 C   0  0  0  0  0  0  0  0  0  0  0  0
  188.5270  177.6970  139.4170 C   0  0  0  0  0  0  0  0  0  0  0  0
  188.9610  177.5560  138.1360 N   0  0  0  0  0  0  0  0  0  0  0  0
  190.8300  176.2860  138.8730 C   0  0  0  0  0  3  0  0  0  0  0  0
  190.5220  176.7370  136.4930 N   0  0  0  0  0  1  0  0  0  0  0  0
  185.6810  178.2810  143.0690 C   0  0  0  0  0  3  0  0  0  0  0  0
  186.1490  178.4520  145.4400 C   0  0  0  0  0  3  0  0  0  0  0  0
  186.6010  178.2760  144.1230 C   0  0  0  0  0  0  0  0  0  0  0  0
  183.8700  178.6160  144.6410 C   0  0  0  0  0  3  0  0  0  0  0  0
  184.7860  178.6190  145.6960 C   0  0  0  0  0  3  0  0  0  0  0  0
  184.3180  178.4480  143.3270 C   0  0  0  0  0  3  0  0  0  0  0  0
  189.6160  176.5980  145.0470 C   0  0  0  0  0  2  0  0  0  0  0  0
  189.5180  177.7550  146.0300 C   0  0  0  0  0  2  0  0  0  0  0  0
  189.4670  177.2430  147.4650 C   0  0  1  0  0  3  0  0  0  0  0  0
  189.2540  178.3850  148.4170 C   0  0  0  0  0  2  0  0  0  0  0  0
  188.2060  176.6870  147.7410 O   0  0  0  0  0  0  0  0  0  0  0  0
  187.9320  177.7110  148.6630 C   0  0  0  0  0  2  0  0  0  0  0  0
  1  2  1  0  0  0  0
  2 20  1  1  0  0  0
  3  4  1  0  0  0  0
  3  1  2  0  0  0  0
  4  5  1  0  0  0  0
  5  2  1  0  0  0  0
  5 16  1  6  0  0  0
  6  3  1  0  0  0  0
  7  6  1  0  0  0  0
  9 11  2  0  0  0  0
  9 12  1  0  0  0  0
 10  8  1  0  0  0  0
 10  6  2  0  0  0  0
 11 10  1  0  0  0  0
 12  7  2  0  0  0  0
 13  9  1  0  0  0  0
 14 19  2  0  0  0  0
 14 16  1  0  0  0  0
 15 18  1  0  0  0  0
 16 15  2  0  0  0  0
 17 18  2  0  0  0  0
 19 17  1  0  0  0  0
 20 21  1  0  0  0  0
 22 21  1  6  0  0  0
 22 24  1  0  0  0  0
 22 23  1  0  0  0  0
 23 25  1  0  0  0  0
 24 25  1  0  0  0  0
M  END
>  <MODEL>
7

>  <REMARK>
 VINA RESULT:      -8.5      1.757      2.259
  Name = 
  5 active torsions:
  status: ('A' for Active; 'I' for Inactive)
    1  A    between atoms: C_1  and  C_9
    2  A    between atoms: C_4  and  C_13
    3  A    between atoms: C_8  and  C_16
    4  A    between atoms: C_13  and  C_16
    5  A    between atoms: C_17  and  C_25
                            x       y       z     vdW  Elec       q    Type
                         _______ _______ _______ _____ _____    ______ ____

>  <TORSDO>
F 5

$$$$
=
 OpenBabel11032419193D

 25 28  0  0  1  0  0  0  0  0999 V2000
  188.1490  176.7210  143.9780 N   0  0  0  0  0  0  0  0  0  0  0  0
  187.5390  177.2470  142.7640 C   0  0  2  0  0  3  0  0  0  0  0  0
  189.3170  177.2450  144.1280 C   0  0  0  0  0  0  0  0  0  0  0  0
  189.6480  178.1390  143.1290 O   0  0  0  0  0  0  0  0  0  0  0  0
  188.5730  178.2330  142.2110 C   0  0  1  0  0  3  0  0  0  0  0  0
  190.1970  176.9080  145.2640 C   0  0  0  0  0  0  0  0  0  0  0  0
  191.3540  176.2300  145.0220 N   0  0  0  0  0  0  0  0  0  0  0  0
  188.6960  177.9730  146.9190 N   0  0  0  0  0  1  0  0  0  0  0  0
  191.8950  176.2430  147.3340 C   0  0  0  0  0  0  0  0  0  0  0  0
  189.8870  177.2620  146.5940 C   0  0  0  0  0  0  0  0  0  0  0  0
  190.7470  176.9180  147.5900 N   0  0  0  0  0  0  0  0  0  0  0  0
  192.2070  175.8900  146.0230 C   0  0  0  0  0  3  0  0  0  0  0  0
  192.7740  175.8960  148.3970 N   0  0  0  0  0  1  0  0  0  0  0  0
  190.1850  177.0840  140.6880 C   0  0  0  0  0  3  0  0  0  0  0  0
  188.2820  178.2120  139.7000 C   0  0  0  0  0  3  0  0  0  0  0  0
  189.0110  177.8300  140.8370 C   0  0  0  0  0  0  0  0  0  0  0  0
  189.8910  177.0860  138.2840 C   0  0  0  0  0  3  0  0  0  0  0  0
  188.7210  177.8370  138.4280 C   0  0  0  0  0  3  0  0  0  0  0  0
  190.6230  176.7100  139.4140 C   0  0  0  0  0  3  0  0  0  0  0  0
  186.2540  177.9890  143.1020 C   0  0  0  0  0  2  0  0  0  0  0  0
  185.9790  177.9500  144.5980 C   0  0  0  0  0  2  0  0  0  0  0  0
  185.1330  179.1440  145.0230 C   0  0  1  0  0  3  0  0  0  0  0  0
  184.1950  179.5380  143.9170 C   0  0  0  0  0  2  0  0  0  0  0  0
  184.0820  178.7260  145.8580 O   0  0  0  0  0  0  0  0  0  0  0  0
  183.1360  179.0840  144.8840 C   0  0  0  0  0  2  0  0  0  0  0  0
  1  3  2  0  0  0  0
  2 20  1  1  0  0  0
  2  1  1  0  0  0  0
  3  6  1  0  0  0  0
  4  3  1  0  0  0  0
  5 16  1  6  0  0  0
  5  2  1  0  0  0  0
  5  4  1  0  0  0  0
  6 10  1  0  0  0  0
  7  6  2  0  0  0  0
  7 12  1  0  0  0  0
  9 11  1  0  0  0  0
  9 13  1  0  0  0  0
 10  8  1  0  0  0  0
 10 11  2  0  0  0  0
 12  9  2  0  0  0  0
 14 16  1  0  0  0  0
 15 16  2  0  0  0  0
 17 18  2  0  0  0  0
 17 19  1  0  0  0  0
 18 15  1  0  0  0  0
 19 14  2  0  0  0  0
 20 21  1  0  0  0  0
 22 21  1  6  0  0  0
 22 24  1  0  0  0  0
 23 25  1  0  0  0  0
 23 22  1  0  0  0  0
 25 24  1  0  0  0  0
M  END
>  <MODEL>
8

>  <REMARK>
 VINA RESULT:      -8.4      2.852      7.192
  Name = 
  5 active torsions:
  status: ('A' for Active; 'I' for Inactive)
    1  A    between atoms: C_1  and  C_9
    2  A    between atoms: C_4  and  C_13
    3  A    between atoms: C_8  and  C_16
    4  A    between atoms: C_13  and  C_16
    5  A    between atoms: C_17  and  C_25
                            x       y       z     vdW  Elec       q    Type
                         _______ _______ _______ _____ _____    ______ ____

>  <TORSDO>
F 5

$$$$
=
 OpenBabel11032419193D

 25 28  0  0  1  0  0  0  0  0999 V2000
  188.4260  176.3780  142.6610 N   0  0  0  0  0  0  0  0  0  0  0  0
  187.7730  176.8280  143.8840 C   0  0  2  0  0  3  0  0  0  0  0  0
  188.4410  177.3430  141.8080 C   0  0  0  0  0  0  0  0  0  0  0  0
  187.8590  178.5020  142.2820 O   0  0  0  0  0  0  0  0  0  0  0  0
  187.4130  178.2920  143.6100 C   0  0  1  0  0  3  0  0  0  0  0  0
  189.0280  177.2020  140.4610 C   0  0  0  0  0  0  0  0  0  0  0  0
  190.2120  176.5400  140.3250 N   0  0  0  0  0  0  0  0  0  0  0  0
  187.1720  178.4240  139.3730 N   0  0  0  0  0  1  0  0  0  0  0  0
  190.1900  176.8940  137.9770 C   0  0  0  0  0  0  0  0  0  0  0  0
  188.4110  177.7240  139.3050 C   0  0  0  0  0  0  0  0  0  0  0  0
  189.0110  177.5540  138.0970 N   0  0  0  0  0  0  0  0  0  0  0  0
  190.8050  176.3750  139.1150 C   0  0  0  0  0  3  0  0  0  0  0  0
  190.7940  176.7330  136.7000 N   0  0  0  0  0  1  0  0  0  0  0  0
  185.3680  178.7450  144.9700 C   0  0  0  0  0  3  0  0  0  0  0  0
  185.1100  178.4410  142.5810 C   0  0  0  0  0  3  0  0  0  0  0  0
  185.9350  178.5050  143.7140 C   0  0  0  0  0  0  0  0  0  0  0  0
  183.1690  178.8720  143.9630 C   0  0  0  0  0  3  0  0  0  0  0  0
  183.7310  178.6260  142.7070 C   0  0  0  0  0  3  0  0  0  0  0  0
  183.9880  178.9300  145.0950 C   0  0  0  0  0  3  0  0  0  0  0  0
  188.7420  176.7500  145.0540 C   0  0  0  0  0  2  0  0  0  0  0  0
  189.3480  178.1120  145.3550 C   0  0  0  0  0  2  0  0  0  0  0  0
  190.8630  178.0800  145.1840 C   0  0  1  0  0  3  0  0  0  0  0  0
  191.2980  176.7420  144.6580 C   0  0  0  0  0  2  0  0  0  0  0  0
  191.2350  178.7430  144.0020 O   0  0  0  0  0  0  0  0  0  0  0  0
  191.6840  177.5360  143.4400 C   0  0  0  0  0  2  0  0  0  0  0  0
  1  2  1  0  0  0  0
  2 20  1  1  0  0  0
  3  4  1  0  0  0  0
  3  1  2  0  0  0  0
  4  5  1  0  0  0  0
  5 16  1  6  0  0  0
  5  2  1  0  0  0  0
  6  3  1  0  0  0  0
  7  6  1  0  0  0  0
  9 11  2  0  0  0  0
  9 12  1  0  0  0  0
 10  8  1  0  0  0  0
 10  6  2  0  0  0  0
 11 10  1  0  0  0  0
 12  7  2  0  0  0  0
 13  9  1  0  0  0  0
 14 19  1  0  0  0  0
 15 18  2  0  0  0  0
 15 16  1  0  0  0  0
 16 14  2  0  0  0  0
 17 19  2  0  0  0  0
 18 17  1  0  0  0  0
 20 21  1  0  0  0  0
 22 21  1  6  0  0  0
 23 22  1  0  0  0  0
 24 22  1  0  0  0  0
 25 24  1  0  0  0  0
 25 23  1  0  0  0  0
M  END
>  <MODEL>
9

>  <REMARK>
 VINA RESULT:      -8.1      1.849      2.730
  Name = 
  5 active torsions:
  status: ('A' for Active; 'I' for Inactive)
    1  A    between atoms: C_1  and  C_9
    2  A    between atoms: C_4  and  C_13
    3  A    between atoms: C_8  and  C_16
    4  A    between atoms: C_13  and  C_16
    5  A    between atoms: C_17  and  C_25
                            x       y       z     vdW  Elec       q    Type
                         _______ _______ _______ _____ _____    ______ ____

>  <TORSDO>
F 5

$$$$
