=
 OpenBabel11042409513D

 33 39  0  0  1  0  0  0  0  0999 V2000
  181.6890  178.8570  142.5250 C   0  0  0  0  0  0  0  0  0  0  0  0
  186.1450  178.5800  145.2200 C   0  0  0  0  0  0  0  0  0  0  0  0
  182.0730  179.3690  139.7690 C   0  0  1  0  0  3  0  0  0  0  0  0
  181.7720  179.0680  143.8620 N   0  0  0  0  0  0  0  0  0  0  0  0
  186.1080  177.8860  142.5230 C   0  0  0  0  0  3  0  0  0  0  0  0
  180.5750  179.2500  141.7290 N   0  0  0  0  0  2  0  0  0  0  0  0
  182.6140  177.8620  137.8030 N   0  0  0  0  0  2  0  0  0  0  0  0
  180.6410  179.0620  140.2770 C   0  0  1  0  0  3  0  0  0  0  0  0
  183.0410  176.8380  138.7100 C   0  0  0  0  0  0  0  0  0  0  0  0
  183.0440  178.7090  144.1400 C   0  0  1  0  0  3  0  0  0  0  0  0
  183.6980  178.3910  142.9880 C   0  0  2  0  0  3  0  0  0  0  0  0
  187.1930  177.4970  143.3310 C   0  0  0  0  0  3  0  0  0  0  0  0
  183.1380  178.5260  140.5230 C   0  0  2  0  0  3  0  0  0  0  0  0
  181.9320  180.0650  137.4780 O   0  0  0  0  0  0  0  0  0  0  0  0
  185.1140  178.6980  143.0770 C   0  0  0  0  0  0  0  0  0  0  0  0
  185.2550  179.1930  144.3700 C   0  0  0  0  0  0  0  0  0  0  0  0
  183.9710  179.3820  145.1010 C   0  0  2  0  0  3  0  0  0  0  0  0
  183.2370  177.1160  140.0010 C   0  0  0  0  0  3  0  0  0  0  0  0
  182.8570  178.5020  141.9550 N   0  0  0  0  0  0  0  0  0  0  0  0
  184.2290  178.6340  146.3320 N   0  0  0  0  0  0  0  0  0  0  0  0
  182.2070  179.1430  138.2890 C   0  0  0  0  0  0  0  0  0  0  0  0
  185.4400  178.2390  146.4080 N   0  0  0  0  0  0  0  0  0  0  0  0
  187.2080  177.8140  144.7040 C   0  0  0  0  0  0  0  0  0  0  0  0
  189.5540  177.6180  145.6920 C   0  0  0  0  0  0  0  0  0  0  0  0
  190.0520  178.4740  144.9090 O   0  0  0  0  0  0  0  0  0  0  0  0
  188.1930  177.1990  145.5450 N   0  0  0  0  0  2  0  0  0  0  0  0
  190.3370  177.0370  146.6910 O   0  0  0  0  0  0  0  0  0  0  0  0
  191.6450  176.5500  146.4300 C   0  0  0  0  0  1  0  0  0  0  0  0
  179.6610  179.9260  139.6280 N   0  0  0  0  0  0  0  0  0  0  0  0
  178.9320  180.6270  140.6990 C   0  0  0  0  0  2  0  0  0  0  0  0
  179.9910  181.3170  139.9820 C   0  0  0  0  0  2  0  0  0  0  0  0
  183.1890  175.4400  138.2270 C   0  0  0  0  0  2  0  0  0  0  0  0
  181.8790  174.8720  137.9610 N   0  0  0  0  0  1  0  0  0  0  0  0
  1  4  2  0  0  0  0
  2 22  1  0  0  0  0
  3 21  1  6  0  0  0
  3  8  1  0  0  0  0
  3 13  1  0  0  0  0
  5 15  2  0  0  0  0
  5 12  1  0  0  0  0
  6  1  1  0  0  0  0
  7 21  1  0  0  0  0
  7  9  1  0  0  0  0
  8 29  1  6  0  0  0
  8  6  1  0  0  0  0
  9 18  2  0  0  0  0
 10  4  1  6  0  0  0
 10 17  1  0  0  0  0
 11 15  1  6  0  0  0
 11 10  1  0  0  0  0
 12 23  2  0  0  0  0
 13 18  1  6  0  0  0
 13 19  1  0  0  0  0
 14 21  2  0  0  0  0
 15 16  1  0  0  0  0
 16  2  2  0  0  0  0
 17 16  1  6  0  0  0
 17 20  1  0  0  0  0
 19  1  1  0  0  0  0
 19 11  1  0  0  0  0
 20 22  2  0  0  0  0
 23  2  1  0  0  0  0
 23 26  1  0  0  0  0
 24 27  1  0  0  0  0
 25 24  2  0  0  0  0
 26 24  1  0  0  0  0
 28 27  1  0  0  0  0
 29 31  1  0  0  0  0
 29 30  1  0  0  0  0
 31 30  1  0  0  0  0
 32  9  1  0  0  0  0
 33 32  1  0  0  0  0
M  END
>  <MODEL>
1

>  <REMARK>
 VINA RESULT:      -8.6      0.000      0.000
  Name = 
  4 active torsions:
  status: ('A' for Active; 'I' for Inactive)
    1  A    between atoms: C_2  and  O_25
    2  A    between atoms: C_6  and  C_11
    3  A    between atoms: C_10  and  N_13
    4  A    between atoms: N_24  and  C_32
                            x       y       z     vdW  Elec       q    Type
                         _______ _______ _______ _____ _____    ______ ____

>  <TORSDO>
F 4

$$$$
=
 OpenBabel11042409513D

 33 39  0  0  1  0  0  0  0  0999 V2000
  192.2160  177.1110  139.7650 C   0  0  0  0  0  0  0  0  0  0  0  0
  189.6990  177.2520  144.3310 C   0  0  0  0  0  0  0  0  0  0  0  0
  190.9700  175.4460  137.8460 C   0  0  1  0  0  3  0  0  0  0  0  0
  192.8080  177.4450  140.9390 N   0  0  0  0  0  0  0  0  0  0  0  0
  188.2840  176.7790  141.9790 C   0  0  0  0  0  3  0  0  0  0  0  0
  192.9350  176.7440  138.5920 N   0  0  0  0  0  2  0  0  0  0  0  0
  189.0490  175.8250  136.2350 N   0  0  0  0  0  2  0  0  0  0  0  0
  192.1860  176.3030  137.4110 C   0  0  1  0  0  3  0  0  0  0  0  0
  188.6460  176.9730  136.9910 C   0  0  0  0  0  0  0  0  0  0  0  0
  191.7590  177.5320  141.7850 C   0  0  1  0  0  3  0  0  0  0  0  0
  190.6140  177.1690  141.1420 C   0  0  2  0  0  3  0  0  0  0  0  0
  187.5950  177.1560  143.1470 C   0  0  0  0  0  3  0  0  0  0  0  0
  190.0750  176.2040  138.8660 C   0  0  2  0  0  3  0  0  0  0  0  0
  190.4180  173.9490  136.0560 O   0  0  0  0  0  0  0  0  0  0  0  0
  189.6630  176.5580  142.0530 C   0  0  0  0  0  0  0  0  0  0  0  0
  190.3140  176.6100  143.2820 C   0  0  0  0  0  0  0  0  0  0  0  0
  191.7250  177.0830  143.2110 C   0  0  2  0  0  3  0  0  0  0  0  0
  189.1580  177.1990  138.2030 C   0  0  0  0  0  3  0  0  0  0  0  0
  190.8930  176.8790  139.8680 N   0  0  0  0  0  0  0  0  0  0  0  0
  191.7140  178.1670  144.1950 N   0  0  0  0  0  0  0  0  0  0  0  0
  190.1390  175.0100  136.6730 C   0  0  0  0  0  0  0  0  0  0  0  0
  190.6120  178.2190  144.8370 N   0  0  0  0  0  0  0  0  0  0  0  0
  188.3020  177.4290  144.3350 C   0  0  0  0  0  0  0  0  0  0  0  0
  187.7800  177.7350  146.8150 C   0  0  0  0  0  0  0  0  0  0  0  0
  188.4420  176.7200  147.1700 O   0  0  0  0  0  0  0  0  0  0  0  0
  187.6080  178.0450  145.4280 N   0  0  0  0  0  2  0  0  0  0  0  0
  187.1730  178.5500  147.7710 O   0  0  0  0  0  0  0  0  0  0  0  0
  186.0680  179.3820  147.4540 C   0  0  0  0  0  1  0  0  0  0  0  0
  193.0680  175.5470  136.5290 N   0  0  0  0  0  0  0  0  0  0  0  0
  192.9310  176.1300  135.1830 C   0  0  0  0  0  2  0  0  0  0  0  0
  194.0790  176.4810  136.0030 C   0  0  0  0  0  2  0  0  0  0  0  0
  187.7120  177.9610  136.3900 C   0  0  0  0  0  2  0  0  0  0  0  0
  187.6970  179.1720  137.1920 N   0  0  0  0  0  1  0  0  0  0  0  0
  1 19  1  0  0  0  0
  1  4  2  0  0  0  0
  2 23  1  0  0  0  0
  2 22  1  0  0  0  0
  3 21  1  6  0  0  0
  3 13  1  0  0  0  0
  5 15  2  0  0  0  0
  5 12  1  0  0  0  0
  6  1  1  0  0  0  0
  7 21  1  0  0  0  0
  7  9  1  0  0  0  0
  8 29  1  6  0  0  0
  8  3  1  0  0  0  0
  8  6  1  0  0  0  0
  9 18  2  0  0  0  0
 10  4  1  6  0  0  0
 10 17  1  0  0  0  0
 11 10  1  0  0  0  0
 11 15  1  1  0  0  0
 12 23  2  0  0  0  0
 13 18  1  6  0  0  0
 13 19  1  0  0  0  0
 14 21  2  0  0  0  0
 15 16  1  0  0  0  0
 16  2  2  0  0  0  0
 17 16  1  6  0  0  0
 17 20  1  0  0  0  0
 19 11  1  0  0  0  0
 20 22  2  0  0  0  0
 23 26  1  0  0  0  0
 24 25  2  0  0  0  0
 24 27  1  0  0  0  0
 26 24  1  0  0  0  0
 28 27  1  0  0  0  0
 30 31  1  0  0  0  0
 30 29  1  0  0  0  0
 31 29  1  0  0  0  0
 32  9  1  0  0  0  0
 32 33  1  0  0  0  0
M  END
>  <MODEL>
2

>  <REMARK>
 VINA RESULT:      -8.5      5.722      8.415
  Name = 
  4 active torsions:
  status: ('A' for Active; 'I' for Inactive)
    1  A    between atoms: C_2  and  O_25
    2  A    between atoms: C_6  and  C_11
    3  A    between atoms: C_10  and  N_13
    4  A    between atoms: N_24  and  C_32
                            x       y       z     vdW  Elec       q    Type
                         _______ _______ _______ _____ _____    ______ ____

>  <TORSDO>
F 4

$$$$
=
 OpenBabel11042409513D

 33 39  0  0  1  0  0  0  0  0999 V2000
  185.1580  178.8310  144.4330 C   0  0  0  0  0  0  0  0  0  0  0  0
  180.9240  179.1030  141.4010 C   0  0  0  0  0  0  0  0  0  0  0  0
  187.0710  176.9540  143.5270 C   0  0  1  0  0  3  0  0  0  0  0  0
  183.9540  179.2860  144.8630 N   0  0  0  0  0  0  0  0  0  0  0  0
  183.3750  178.3700  140.3000 C   0  0  0  0  0  3  0  0  0  0  0  0
  186.2130  178.4370  145.3060 N   0  0  0  0  0  2  0  0  0  0  0  0
  188.9090  177.0830  141.7860 N   0  0  0  0  0  2  0  0  0  0  0  0
  187.4320  177.8650  144.7280 C   0  0  1  0  0  3  0  0  0  0  0  0
  188.2920  178.2480  141.2250 C   0  0  0  0  0  0  0  0  0  0  0  0
  183.2390  179.3550  143.7200 C   0  0  1  0  0  3  0  0  0  0  0  0
  183.9750  178.8680  142.6820 C   0  0  2  0  0  3  0  0  0  0  0  0
  182.3230  178.7750  139.4580 C   0  0  0  0  0  3  0  0  0  0  0  0
  186.2180  177.7130  142.4730 C   0  0  2  0  0  3  0  0  0  0  0  0
  188.7920  175.3020  143.2830 O   0  0  0  0  0  0  0  0  0  0  0  0
  183.1320  178.2530  141.6730 C   0  0  0  0  0  0  0  0  0  0  0  0
  181.8460  178.4360  142.1730 C   0  0  0  0  0  0  0  0  0  0  0  0
  181.7950  179.0040  143.5490 C   0  0  2  0  0  3  0  0  0  0  0  0
  187.0510  178.5930  141.5780 C   0  0  0  0  0  3  0  0  0  0  0  0
  185.1850  178.5120  143.1250 N   0  0  0  0  0  0  0  0  0  0  0  0
  180.9040  180.1490  143.3550 N   0  0  0  0  0  0  0  0  0  0  0  0
  188.2930  176.3800  142.8670 C   0  0  0  0  0  0  0  0  0  0  0  0
  180.3940  180.1650  142.1850 N   0  0  0  0  0  0  0  0  0  0  0  0
  181.0880  179.1790  140.0040 C   0  0  0  0  0  0  0  0  0  0  0  0
  180.3100  181.0590  138.4630 C   0  0  0  0  0  0  0  0  0  0  0  0
  181.2920  181.8050  138.7300 O   0  0  0  0  0  0  0  0  0  0  0  0
  180.1290  179.8160  139.1500 N   0  0  0  0  0  2  0  0  0  0  0  0
  179.3610  181.4540  137.5180 O   0  0  0  0  0  0  0  0  0  0  0  0
  179.3460  182.7640  136.9740 C   0  0  0  0  0  1  0  0  0  0  0  0
  188.1510  177.1150  145.7530 N   0  0  0  0  0  0  0  0  0  0  0  0
  189.5050  177.6890  145.8330 C   0  0  0  0  0  2  0  0  0  0  0  0
  188.5100  178.0590  146.8250 C   0  0  0  0  0  2  0  0  0  0  0  0
  189.0670  179.1230  140.3060 C   0  0  0  0  0  2  0  0  0  0  0  0
  188.7070  178.8280  138.9300 N   0  0  0  0  0  1  0  0  0  0  0  0
  1  4  2  0  0  0  0
  1  6  1  0  0  0  0
  2 16  1  0  0  0  0
  2 22  1  0  0  0  0
  3 21  1  6  0  0  0
  3  8  1  0  0  0  0
  5 15  1  0  0  0  0
  7 21  1  0  0  0  0
  8  6  1  0  0  0  0
  8 29  1  1  0  0  0
  9 18  2  0  0  0  0
  9  7  1  0  0  0  0
 10  4  1  1  0  0  0
 11 15  1  1  0  0  0
 11 19  1  0  0  0  0
 11 10  1  0  0  0  0
 12 23  1  0  0  0  0
 12  5  2  0  0  0  0
 13 18  1  1  0  0  0
 13 19  1  0  0  0  0
 13  3  1  0  0  0  0
 15 16  2  0  0  0  0
 17 16  1  6  0  0  0
 17 10  1  0  0  0  0
 19  1  1  0  0  0  0
 20 17  1  0  0  0  0
 21 14  2  0  0  0  0
 22 20  2  0  0  0  0
 23  2  2  0  0  0  0
 24 25  2  0  0  0  0
 24 26  1  0  0  0  0
 26 23  1  0  0  0  0
 27 24  1  0  0  0  0
 28 27  1  0  0  0  0
 29 30  1  0  0  0  0
 29 31  1  0  0  0  0
 30 31  1  0  0  0  0
 32  9  1  0  0  0  0
 33 32  1  0  0  0  0
M  END
>  <MODEL>
3

>  <REMARK>
 VINA RESULT:      -8.1      2.108      8.051
  Name = 
  4 active torsions:
  status: ('A' for Active; 'I' for Inactive)
    1  A    between atoms: C_2  and  O_25
    2  A    between atoms: C_6  and  C_11
    3  A    between atoms: C_10  and  N_13
    4  A    between atoms: N_24  and  C_32
                            x       y       z     vdW  Elec       q    Type
                         _______ _______ _______ _____ _____    ______ ____

>  <TORSDO>
F 4

$$$$
=
 OpenBabel11042409513D

 33 39  0  0  1  0  0  0  0  0999 V2000
  186.9520  177.6430  141.6460 C   0  0  0  0  0  0  0  0  0  0  0  0
  189.6890  177.8140  146.0820 C   0  0  0  0  0  0  0  0  0  0  0  0
  188.3550  178.6790  139.4180 C   0  0  1  0  0  3  0  0  0  0  0  0
  186.3860  177.6380  142.8790 N   0  0  0  0  0  0  0  0  0  0  0  0
  191.0130  177.5920  143.6410 C   0  0  0  0  0  3  0  0  0  0  0  0
  186.2380  177.9330  140.4480 N   0  0  0  0  0  2  0  0  0  0  0  0
  190.0660  177.6650  137.8460 N   0  0  0  0  0  2  0  0  0  0  0  0
  186.9770  178.0100  139.1850 C   0  0  1  0  0  3  0  0  0  0  0  0
  190.3000  176.6100  138.7860 C   0  0  0  0  0  0  0  0  0  0  0  0
  187.4530  177.4990  143.6940 C   0  0  1  0  0  3  0  0  0  0  0  0
  188.6020  177.5180  142.9610 C   0  0  2  0  0  3  0  0  0  0  0  0
  191.6950  177.2980  144.8360 C   0  0  0  0  0  3  0  0  0  0  0  0
  189.1600  177.9520  140.5310 C   0  0  2  0  0  3  0  0  0  0  0  0
  189.0560  179.7100  137.3690 O   0  0  0  0  0  0  0  0  0  0  0  0
  189.7050  178.0840  143.7150 C   0  0  0  0  0  0  0  0  0  0  0  0
  189.1360  178.3710  144.9520 C   0  0  0  0  0  0  0  0  0  0  0  0
  187.6610  178.1730  145.0130 C   0  0  2  0  0  3  0  0  0  0  0  0
  189.8340  176.7000  140.0340 C   0  0  0  0  0  3  0  0  0  0  0  0
  188.2990  177.6310  141.6650 N   0  0  0  0  0  0  0  0  0  0  0  0
  187.5370  177.2940  146.1770 N   0  0  0  0  0  0  0  0  0  0  0  0
  189.1750  178.7380  138.1600 C   0  0  0  0  0  0  0  0  0  0  0  0
  188.6500  177.1440  146.7840 N   0  0  0  0  0  0  0  0  0  0  0  0
  191.0270  177.3750  146.0750 C   0  0  0  0  0  0  0  0  0  0  0  0
  192.4320  175.6280  147.2970 C   0  0  0  0  0  0  0  0  0  0  0  0
  192.4310  174.8200  146.3270 O   0  0  0  0  0  0  0  0  0  0  0  0
  191.6670  176.8370  147.2400 N   0  0  0  0  0  2  0  0  0  0  0  0
  193.1500  175.3360  148.4570 O   0  0  0  0  0  0  0  0  0  0  0  0
  193.3830  176.3120  149.4610 C   0  0  0  0  0  1  0  0  0  0  0  0
  186.1940  178.7570  138.2060 N   0  0  0  0  0  0  0  0  0  0  0  0
  186.0410  177.8890  137.0260 C   0  0  0  0  0  2  0  0  0  0  0  0
  184.9450  178.0110  137.9730 C   0  0  0  0  0  2  0  0  0  0  0  0
  190.9960  175.3720  138.3460 C   0  0  0  0  0  2  0  0  0  0  0  0
  190.0780  174.5350  137.5940 N   0  0  0  0  0  1  0  0  0  0  0  0
  1 19  1  0  0  0  0
  1  4  2  0  0  0  0
  2 22  1  0  0  0  0
  3 21  1  6  0  0  0
  3 13  1  0  0  0  0
  5 15  2  0  0  0  0
  5 12  1  0  0  0  0
  6  1  1  0  0  0  0
  7 21  1  0  0  0  0
  7  9  1  0  0  0  0
  8 29  1  6  0  0  0
  8  3  1  0  0  0  0
  8  6  1  0  0  0  0
  9 18  2  0  0  0  0
 10  4  1  6  0  0  0
 10 17  1  0  0  0  0
 11 10  1  0  0  0  0
 11 15  1  1  0  0  0
 12 23  2  0  0  0  0
 13 18  1  6  0  0  0
 13 19  1  0  0  0  0
 14 21  2  0  0  0  0
 15 16  1  0  0  0  0
 16  2  2  0  0  0  0
 17 16  1  6  0  0  0
 17 20  1  0  0  0  0
 19 11  1  0  0  0  0
 20 22  2  0  0  0  0
 23  2  1  0  0  0  0
 23 26  1  0  0  0  0
 24 27  1  0  0  0  0
 25 24  2  0  0  0  0
 26 24  1  0  0  0  0
 27 28  1  0  0  0  0
 30 31  1  0  0  0  0
 30 29  1  0  0  0  0
 31 29  1  0  0  0  0
 32  9  1  0  0  0  0
 33 32  1  0  0  0  0
M  END
>  <MODEL>
4

>  <REMARK>
 VINA RESULT:      -8.1      4.033      5.655
  Name = 
  4 active torsions:
  status: ('A' for Active; 'I' for Inactive)
    1  A    between atoms: C_2  and  O_25
    2  A    between atoms: C_6  and  C_11
    3  A    between atoms: C_10  and  N_13
    4  A    between atoms: N_24  and  C_32
                            x       y       z     vdW  Elec       q    Type
                         _______ _______ _______ _____ _____    ______ ____

>  <TORSDO>
F 4

$$$$
=
 OpenBabel11042409513D

 33 39  0  0  1  0  0  0  0  0999 V2000
  190.1520  177.4650  139.0510 C   0  0  0  0  0  0  0  0  0  0  0  0
  189.9510  176.9900  144.2410 C   0  0  0  0  0  0  0  0  0  0  0  0
  187.9490  176.2830  137.7280 C   0  0  1  0  0  3  0  0  0  0  0  0
  191.2440  177.5320  139.8550 N   0  0  0  0  0  0  0  0  0  0  0  0
  187.5920  177.0680  142.7610 C   0  0  0  0  0  3  0  0  0  0  0  0
  190.2170  177.2570  137.6440 N   0  0  0  0  0  2  0  0  0  0  0  0
  185.6010  177.1040  137.2360 N   0  0  0  0  0  2  0  0  0  0  0  0
  188.9680  177.1000  136.8940 C   0  0  1  0  0  3  0  0  0  0  0  0
  185.7550  178.1270  138.2280 C   0  0  0  0  0  0  0  0  0  0  0  0
  190.7000  177.5520  141.0900 C   0  0  1  0  0  3  0  0  0  0  0  0
  189.3480  177.4070  141.0050 C   0  0  2  0  0  3  0  0  0  0  0  0
  187.5540  177.2830  144.1510 C   0  0  0  0  0  3  0  0  0  0  0  0
  187.7220  176.9160  139.1280 C   0  0  2  0  0  3  0  0  0  0  0  0
  186.4420  175.1830  136.2200 O   0  0  0  0  0  0  0  0  0  0  0  0
  188.8110  176.7230  142.1670 C   0  0  0  0  0  0  0  0  0  0  0  0
  189.9340  176.4980  142.9570 C   0  0  0  0  0  0  0  0  0  0  0  0
  191.2260  176.8580  142.3070 C   0  0  2  0  0  3  0  0  0  0  0  0
  186.7750  178.0870  139.0880 C   0  0  0  0  0  3  0  0  0  0  0  0
  188.9910  177.3290  139.7200 N   0  0  0  0  0  0  0  0  0  0  0  0
  191.8160  177.7440  143.3110 N   0  0  0  0  0  0  0  0  0  0  0  0
  186.6300  176.1360  137.0220 C   0  0  0  0  0  0  0  0  0  0  0  0
  191.1310  177.7710  144.3880 N   0  0  0  0  0  0  0  0  0  0  0  0
  188.7430  177.2790  144.9060 C   0  0  0  0  0  0  0  0  0  0  0  0
  189.5180  177.2640  147.3390 C   0  0  0  0  0  0  0  0  0  0  0  0
  190.2170  176.2220  147.2020 O   0  0  0  0  0  0  0  0  0  0  0  0
  188.7040  177.7430  146.2620 N   0  0  0  0  0  2  0  0  0  0  0  0
  189.4970  177.9450  148.5560 O   0  0  0  0  0  0  0  0  0  0  0  0
  188.2810  178.3030  149.1950 C   0  0  0  0  0  1  0  0  0  0  0  0
  189.2430  176.4450  135.6190 N   0  0  0  0  0  0  0  0  0  0  0  0
  188.4610  177.1550  134.5940 C   0  0  0  0  0  2  0  0  0  0  0  0
  189.8790  177.4380  134.7360 C   0  0  0  0  0  2  0  0  0  0  0  0
  184.8180  179.2810  138.2480 C   0  0  0  0  0  2  0  0  0  0  0  0
  184.6420  179.7450  139.6130 N   0  0  0  0  0  1  0  0  0  0  0  0
  1 19  1  0  0  0  0
  1  4  2  0  0  0  0
  2 22  1  0  0  0  0
  2 23  1  0  0  0  0
  3 21  1  6  0  0  0
  3 13  1  0  0  0  0
  5 12  1  0  0  0  0
  6  1  1  0  0  0  0
  7  9  1  0  0  0  0
  8 29  1  6  0  0  0
  8  6  1  0  0  0  0
  8  3  1  0  0  0  0
  9 32  1  0  0  0  0
  9 18  2  0  0  0  0
 10  4  1  6  0  0  0
 10 17  1  0  0  0  0
 11 10  1  0  0  0  0
 11 15  1  1  0  0  0
 12 23  2  0  0  0  0
 13 18  1  6  0  0  0
 13 19  1  0  0  0  0
 14 21  2  0  0  0  0
 15  5  2  0  0  0  0
 15 16  1  0  0  0  0
 16  2  2  0  0  0  0
 17 16  1  1  0  0  0
 17 20  1  0  0  0  0
 19 11  1  0  0  0  0
 20 22  2  0  0  0  0
 21  7  1  0  0  0  0
 23 26  1  0  0  0  0
 24 27  1  0  0  0  0
 25 24  2  0  0  0  0
 26 24  1  0  0  0  0
 27 28  1  0  0  0  0
 30 31  1  0  0  0  0
 30 29  1  0  0  0  0
 31 29  1  0  0  0  0
 32 33  1  0  0  0  0
M  END
>  <MODEL>
5

>  <REMARK>
 VINA RESULT:      -7.9      4.319      6.659
  Name = 
  4 active torsions:
  status: ('A' for Active; 'I' for Inactive)
    1  A    between atoms: C_2  and  O_25
    2  A    between atoms: C_6  and  C_11
    3  A    between atoms: C_10  and  N_13
    4  A    between atoms: N_24  and  C_32
                            x       y       z     vdW  Elec       q    Type
                         _______ _______ _______ _____ _____    ______ ____

>  <TORSDO>
F 4

$$$$
=
 OpenBabel11042409513D

 33 39  0  0  1  0  0  0  0  0999 V2000
  186.7480  178.5380  140.5890 C   0  0  0  0  0  0  0  0  0  0  0  0
  189.7070  176.4520  136.8350 C   0  0  0  0  0  0  0  0  0  0  0  0
  187.0960  177.3040  143.1100 C   0  0  1  0  0  3  0  0  0  0  0  0
  186.4580  178.6280  139.2660 N   0  0  0  0  0  0  0  0  0  0  0  0
  190.5690  176.3820  139.4830 C   0  0  0  0  0  3  0  0  0  0  0  0
  185.8060  178.7970  141.6250 N   0  0  0  0  0  2  0  0  0  0  0  0
  188.8130  177.6140  144.9490 N   0  0  0  0  0  2  0  0  0  0  0  0
  186.2050  178.5680  143.0160 C   0  0  1  0  0  3  0  0  0  0  0  0
  189.6780  178.2850  144.0250 C   0  0  0  0  0  0  0  0  0  0  0  0
  187.5690  178.1280  138.6850 C   0  0  1  0  0  3  0  0  0  0  0  0
  188.4300  177.6790  139.6410 C   0  0  2  0  0  3  0  0  0  0  0  0
  191.4850  176.1420  138.4410 C   0  0  0  0  0  3  0  0  0  0  0  0
  188.3160  177.3950  142.1530 C   0  0  2  0  0  3  0  0  0  0  0  0
  186.8720  176.3780  145.3120 O   0  0  0  0  0  0  0  0  0  0  0  0
  189.2190  176.5580  139.1640 C   0  0  0  0  0  0  0  0  0  0  0  0
  188.7830  176.3930  137.8520 C   0  0  0  0  0  0  0  0  0  0  0  0
  187.6240  177.2500  137.4750 C   0  0  2  0  0  3  0  0  0  0  0  0
  189.4300  178.2420  142.7130 C   0  0  0  0  0  3  0  0  0  0  0  0
  187.9120  177.9130  140.8500 N   0  0  0  0  0  0  0  0  0  0  0  0
  188.1300  177.9020  136.2660 N   0  0  0  0  0  0  0  0  0  0  0  0
  187.5740  177.0530  144.5130 C   0  0  0  0  0  0  0  0  0  0  0  0
  189.2540  177.4210  135.8970 N   0  0  0  0  0  0  0  0  0  0  0  0
  191.0690  176.2070  137.0970 C   0  0  0  0  0  0  0  0  0  0  0  0
  193.4720  176.3780  136.2520 C   0  0  0  0  0  0  0  0  0  0  0  0
  193.9300  176.7560  137.3660 O   0  0  0  0  0  0  0  0  0  0  0  0
  192.0630  176.2040  136.0640 N   0  0  0  0  0  2  0  0  0  0  0  0
  194.3300  176.1600  135.1740 O   0  0  0  0  0  0  0  0  0  0  0  0
  195.3450  177.0890  134.8230 C   0  0  0  0  0  1  0  0  0  0  0  0
  185.0140  178.4300  143.8480 N   0  0  0  0  0  0  0  0  0  0  0  0
  185.2090  179.2930  145.0250 C   0  0  0  0  0  2  0  0  0  0  0  0
  184.3720  179.7530  143.9300 C   0  0  0  0  0  2  0  0  0  0  0  0
  190.8120  179.1000  144.5340 C   0  0  0  0  0  2  0  0  0  0  0  0
  192.0550  178.6260  143.9530 N   0  0  0  0  0  1  0  0  0  0  0  0
  1 19  1  0  0  0  0
  1  6  1  0  0  0  0
  2 23  2  0  0  0  0
  2 16  1  0  0  0  0
  3 21  1  1  0  0  0
  4  1  2  0  0  0  0
  6  8  1  0  0  0  0
  8  3  1  0  0  0  0
  8 29  1  1  0  0  0
  9 32  1  0  0  0  0
  9  7  1  0  0  0  0
 10  4  1  1  0  0  0
 10 11  1  0  0  0  0
 11 15  1  6  0  0  0
 11 19  1  0  0  0  0
 12  5  2  0  0  0  0
 13 18  1  1  0  0  0
 13  3  1  0  0  0  0
 15  5  1  0  0  0  0
 16 15  2  0  0  0  0
 17 20  1  6  0  0  0
 17 16  1  0  0  0  0
 17 10  1  0  0  0  0
 18  9  2  0  0  0  0
 19 13  1  0  0  0  0
 21  7  1  0  0  0  0
 21 14  2  0  0  0  0
 22 20  2  0  0  0  0
 22  2  1  0  0  0  0
 23 12  1  0  0  0  0
 24 25  2  0  0  0  0
 26 24  1  0  0  0  0
 26 23  1  0  0  0  0
 27 24  1  0  0  0  0
 28 27  1  0  0  0  0
 29 31  1  0  0  0  0
 29 30  1  0  0  0  0
 31 30  1  0  0  0  0
 33 32  1  0  0  0  0
M  END
>  <MODEL>
6

>  <REMARK>
 VINA RESULT:      -7.8      5.488      8.451
  Name = 
  4 active torsions:
  status: ('A' for Active; 'I' for Inactive)
    1  A    between atoms: C_2  and  O_25
    2  A    between atoms: C_6  and  C_11
    3  A    between atoms: C_10  and  N_13
    4  A    between atoms: N_24  and  C_32
                            x       y       z     vdW  Elec       q    Type
                         _______ _______ _______ _____ _____    ______ ____

>  <TORSDO>
F 4

$$$$
=
 OpenBabel11042409513D

 33 39  0  0  1  0  0  0  0  0999 V2000
  189.4090  177.7310  146.6330 C   0  0  0  0  0  0  0  0  0  0  0  0
  184.5330  178.3530  144.8880 C   0  0  0  0  0  0  0  0  0  0  0  0
  190.9060  175.8520  145.1380 C   0  0  1  0  0  3  0  0  0  0  0  0
  188.3910  178.1980  147.3980 N   0  0  0  0  0  0  0  0  0  0  0  0
  186.5560  177.6100  143.1230 C   0  0  0  0  0  3  0  0  0  0  0  0
  190.6380  177.2420  147.1620 N   0  0  0  0  0  2  0  0  0  0  0  0
  192.2110  176.0330  142.9720 N   0  0  0  0  0  2  0  0  0  0  0  0
  191.6240  176.6670  146.2440 C   0  0  1  0  0  3  0  0  0  0  0  0
  191.5270  177.2540  142.6650 C   0  0  0  0  0  0  0  0  0  0  0  0
  187.3980  178.3680  146.4990 C   0  0  1  0  0  3  0  0  0  0  0  0
  187.8010  177.9260  145.2750 C   0  0  2  0  0  3  0  0  0  0  0  0
  185.3380  178.1070  142.6230 C   0  0  0  0  0  3  0  0  0  0  0  0
  189.8410  176.7100  144.4000 C   0  0  2  0  0  3  0  0  0  0  0  0
  192.4090  174.1610  144.3440 O   0  0  0  0  0  0  0  0  0  0  0  0
  186.6860  177.4100  144.5010 C   0  0  0  0  0  0  0  0  0  0  0  0
  185.5940  177.6040  145.3410 C   0  0  0  0  0  0  0  0  0  0  0  0
  185.9460  178.0800  146.7090 C   0  0  2  0  0  3  0  0  0  0  0  0
  190.4470  177.6170  143.3610 C   0  0  0  0  0  3  0  0  0  0  0  0
  189.0650  177.4990  145.3510 N   0  0  0  0  0  0  0  0  0  0  0  0
  185.0960  179.2660  146.8280 N   0  0  0  0  0  0  0  0  0  0  0  0
  191.8730  175.2810  144.1390 C   0  0  0  0  0  0  0  0  0  0  0  0
  184.2910  179.3780  145.8430 N   0  0  0  0  0  0  0  0  0  0  0  0
  184.3190  178.5170  143.5050 C   0  0  0  0  0  0  0  0  0  0  0  0
  181.8390  179.1120  143.4060 C   0  0  0  0  0  0  0  0  0  0  0  0
  181.4910  178.1680  144.1680 O   0  0  0  0  0  0  0  0  0  0  0  0
  183.2000  179.2430  142.9810 N   0  0  0  0  0  2  0  0  0  0  0  0
  180.8920  180.0220  142.9340 O   0  0  0  0  0  0  0  0  0  0  0  0
  179.5080  179.8790  143.2160 C   0  0  0  0  0  1  0  0  0  0  0  0
  192.5530  175.8260  146.9900 N   0  0  0  0  0  0  0  0  0  0  0  0
  192.4280  176.2020  148.4090 C   0  0  0  0  0  2  0  0  0  0  0  0
  191.7600  175.0060  147.9230 C   0  0  0  0  0  2  0  0  0  0  0  0
  192.0690  178.1610  141.6190 C   0  0  0  0  0  2  0  0  0  0  0  0
  192.0200  177.5010  140.3260 N   0  0  0  0  0  1  0  0  0  0  0  0
  1  6  1  0  0  0  0
  1  4  2  0  0  0  0
  2 16  1  0  0  0  0
  2 22  1  0  0  0  0
  3 21  1  6  0  0  0
  3  8  1  0  0  0  0
  5 15  1  0  0  0  0
  7 21  1  0  0  0  0
  8 29  1  1  0  0  0
  8  6  1  0  0  0  0
  9  7  1  0  0  0  0
  9 18  2  0  0  0  0
 10 17  1  0  0  0  0
 10  4  1  1  0  0  0
 11 15  1  1  0  0  0
 11 19  1  0  0  0  0
 11 10  1  0  0  0  0
 12  5  2  0  0  0  0
 12 23  1  0  0  0  0
 13 18  1  6  0  0  0
 13  3  1  0  0  0  0
 13 19  1  0  0  0  0
 15 16  2  0  0  0  0
 17 16  1  6  0  0  0
 17 20  1  0  0  0  0
 19  1  1  0  0  0  0
 21 14  2  0  0  0  0
 22 20  2  0  0  0  0
 23  2  2  0  0  0  0
 24 25  2  0  0  0  0
 26 24  1  0  0  0  0
 26 23  1  0  0  0  0
 27 28  1  0  0  0  0
 27 24  1  0  0  0  0
 29 31  1  0  0  0  0
 29 30  1  0  0  0  0
 31 30  1  0  0  0  0
 32  9  1  0  0  0  0
 33 32  1  0  0  0  0
M  END
>  <MODEL>
7

>  <REMARK>
 VINA RESULT:      -7.8      3.233      9.163
  Name = 
  4 active torsions:
  status: ('A' for Active; 'I' for Inactive)
    1  A    between atoms: C_2  and  O_25
    2  A    between atoms: C_6  and  C_11
    3  A    between atoms: C_10  and  N_13
    4  A    between atoms: N_24  and  C_32
                            x       y       z     vdW  Elec       q    Type
                         _______ _______ _______ _____ _____    ______ ____

>  <TORSDO>
F 4

$$$$
=
 OpenBabel11042409513D

 33 39  0  0  1  0  0  0  0  0999 V2000
  185.0210  178.6770  139.9500 C   0  0  0  0  0  0  0  0  0  0  0  0
  188.4230  177.6460  143.7660 C   0  0  0  0  0  0  0  0  0  0  0  0
  182.4940  177.4650  140.3380 C   0  0  1  0  0  3  0  0  0  0  0  0
  186.3670  178.7470  139.7950 N   0  0  0  0  0  0  0  0  0  0  0  0
  185.6920  177.6860  144.3130 C   0  0  0  0  0  3  0  0  0  0  0  0
  184.1020  178.6230  138.8630 N   0  0  0  0  0  2  0  0  0  0  0  0
  180.4580  178.1390  141.6890 N   0  0  0  0  0  2  0  0  0  0  0  0
  182.6760  178.4450  139.1520 C   0  0  1  0  0  3  0  0  0  0  0  0
  181.2620  179.0620  142.4350 C   0  0  0  0  0  0  0  0  0  0  0  0
  186.8180  178.5940  141.0590 C   0  0  1  0  0  3  0  0  0  0  0  0
  185.7720  178.3490  141.8980 C   0  0  2  0  0  3  0  0  0  0  0  0
  186.6190  177.7520  145.3700 C   0  0  0  0  0  3  0  0  0  0  0  0
  183.2960  177.9270  141.5860 C   0  0  2  0  0  3  0  0  0  0  0  0
  180.3500  176.4110  140.1320 O   0  0  0  0  0  0  0  0  0  0  0  0
  186.1680  177.5060  143.0110 C   0  0  0  0  0  0  0  0  0  0  0  0
  187.5250  177.2920  142.7860 C   0  0  0  0  0  0  0  0  0  0  0  0
  188.0250  177.8210  141.4860 C   0  0  2  0  0  3  0  0  0  0  0  0
  182.5940  179.0150  142.3560 C   0  0  0  0  0  3  0  0  0  0  0  0
  184.6310  178.3770  141.2040 N   0  0  0  0  0  0  0  0  0  0  0  0
  189.1550  178.6420  141.9260 N   0  0  0  0  0  0  0  0  0  0  0  0
  181.0480  177.2860  140.7070 C   0  0  0  0  0  0  0  0  0  0  0  0
  189.3930  178.5000  143.1730 N   0  0  0  0  0  0  0  0  0  0  0  0
  188.0030  177.7650  145.1050 C   0  0  0  0  0  0  0  0  0  0  0  0
  189.0980  177.3140  147.3670 C   0  0  0  0  0  0  0  0  0  0  0  0
  188.3050  176.3780  147.6640 O   0  0  0  0  0  0  0  0  0  0  0  0
  188.9090  178.0790  146.1710 N   0  0  0  0  0  2  0  0  0  0  0  0
  190.1510  177.6440  148.2210 O   0  0  0  0  0  0  0  0  0  0  0  0
  191.4600  177.1280  148.0320 C   0  0  0  0  0  1  0  0  0  0  0  0
  181.9950  177.9510  137.9590 N   0  0  0  0  0  0  0  0  0  0  0  0
  180.7650  178.7460  137.8070 C   0  0  0  0  0  2  0  0  0  0  0  0
  181.9270  179.0620  136.9940 C   0  0  0  0  0  2  0  0  0  0  0  0
  180.6080  180.1280  143.2390 C   0  0  0  0  0  2  0  0  0  0  0  0
  179.6810  180.8710  142.4040 N   0  0  0  0  0  1  0  0  0  0  0  0
  1 19  1  0  0  0  0
  2 23  1  0  0  0  0
  3 21  1  1  0  0  0
  3 13  1  0  0  0  0
  4  1  2  0  0  0  0
  5 12  1  0  0  0  0
  6  8  1  0  0  0  0
  6  1  1  0  0  0  0
  7  9  1  0  0  0  0
  8 29  1  6  0  0  0
  8  3  1  0  0  0  0
  9 32  1  0  0  0  0
 10  4  1  6  0  0  0
 10 17  1  0  0  0  0
 10 11  1  0  0  0  0
 11 15  1  6  0  0  0
 13 18  1  6  0  0  0
 14 21  2  0  0  0  0
 15  5  2  0  0  0  0
 16 15  1  0  0  0  0
 16  2  2  0  0  0  0
 17 20  1  1  0  0  0
 17 16  1  0  0  0  0
 18  9  2  0  0  0  0
 19 13  1  0  0  0  0
 19 11  1  0  0  0  0
 20 22  2  0  0  0  0
 21  7  1  0  0  0  0
 22  2  1  0  0  0  0
 23 12  2  0  0  0  0
 23 26  1  0  0  0  0
 24 25  2  0  0  0  0
 24 27  1  0  0  0  0
 26 24  1  0  0  0  0
 28 27  1  0  0  0  0
 30 29  1  0  0  0  0
 31 30  1  0  0  0  0
 31 29  1  0  0  0  0
 33 32  1  0  0  0  0
M  END
>  <MODEL>
8

>  <REMARK>
 VINA RESULT:      -7.6      2.275      3.982
  Name = 
  4 active torsions:
  status: ('A' for Active; 'I' for Inactive)
    1  A    between atoms: C_2  and  O_25
    2  A    between atoms: C_6  and  C_11
    3  A    between atoms: C_10  and  N_13
    4  A    between atoms: N_24  and  C_32
                            x       y       z     vdW  Elec       q    Type
                         _______ _______ _______ _____ _____    ______ ____

>  <TORSDO>
F 4

$$$$
=
 OpenBabel11042409513D

 33 39  0  0  1  0  0  0  0  0999 V2000
  189.4490  177.1640  138.7820 C   0  0  0  0  0  0  0  0  0  0  0  0
  194.1180  175.3210  137.3650 C   0  0  0  0  0  0  0  0  0  0  0  0
  187.4990  176.9730  136.7410 C   0  0  1  0  0  3  0  0  0  0  0  0
  190.6140  177.5330  139.3730 N   0  0  0  0  0  0  0  0  0  0  0  0
  191.8060  174.2820  136.2100 C   0  0  0  0  0  3  0  0  0  0  0  0
  188.2290  177.8860  138.9170 N   0  0  0  0  0  2  0  0  0  0  0  0
  185.9930  175.0810  135.9790 N   0  0  0  0  0  2  0  0  0  0  0  0
  187.0600  177.4490  138.1490 C   0  0  1  0  0  3  0  0  0  0  0  0
  186.8250  174.1440  136.6730 C   0  0  0  0  0  0  0  0  0  0  0  0
  191.5070  176.6800  138.8260 C   0  0  1  0  0  3  0  0  0  0  0  0
  190.8940  175.9100  137.8830 C   0  0  2  0  0  3  0  0  0  0  0  0
  193.0210  173.5790  136.1010 C   0  0  0  0  0  3  0  0  0  0  0  0
  188.5940  175.8740  136.8270 C   0  0  2  0  0  3  0  0  0  0  0  0
  185.6570  177.2620  135.2330 O   0  0  0  0  0  0  0  0  0  0  0  0
  191.8100  175.5410  136.8190 C   0  0  0  0  0  0  0  0  0  0  0  0
  193.0120  176.1230  137.2120 C   0  0  0  0  0  0  0  0  0  0  0  0
  192.9070  177.0020  138.4120 C   0  0  2  0  0  3  0  0  0  0  0  0
  188.0250  174.5120  137.1290 C   0  0  0  0  0  3  0  0  0  0  0  0
  189.5960  176.2210  137.8300 N   0  0  0  0  0  0  0  0  0  0  0  0
  193.9470  176.4360  139.2730 N   0  0  0  0  0  0  0  0  0  0  0  0
  186.3410  176.4670  135.9290 C   0  0  0  0  0  0  0  0  0  0  0  0
  194.6370  175.5470  138.6710 N   0  0  0  0  0  0  0  0  0  0  0  0
  194.1900  174.0770  136.7080 C   0  0  0  0  0  0  0  0  0  0  0  0
  195.6230  172.2910  137.8380 C   0  0  0  0  0  0  0  0  0  0  0  0
  194.9410  172.2910  138.9010 O   0  0  0  0  0  0  0  0  0  0  0  0
  195.3430  173.2280  136.7920 N   0  0  0  0  0  2  0  0  0  0  0  0
  196.6860  171.4020  137.6820 O   0  0  0  0  0  0  0  0  0  0  0  0
  197.9330  171.8110  137.1410 C   0  0  0  0  0  1  0  0  0  0  0  0
  186.1020  178.5450  138.0530 N   0  0  0  0  0  0  0  0  0  0  0  0
  184.7740  177.9820  138.3460 C   0  0  0  0  0  2  0  0  0  0  0  0
  185.4850  178.7150  139.3800 C   0  0  0  0  0  2  0  0  0  0  0  0
  186.3170  172.7760  136.9570 C   0  0  0  0  0  2  0  0  0  0  0  0
  185.1790  172.8530  137.8560 N   0  0  0  0  0  1  0  0  0  0  0  0
  1  6  1  0  0  0  0
  1  4  2  0  0  0  0
  2 22  1  0  0  0  0
  3 21  1  1  0  0  0
  3 13  1  0  0  0  0
  3  8  1  0  0  0  0
  5 15  1  0  0  0  0
  7  9  1  0  0  0  0
  8 29  1  6  0  0  0
  8  6  1  0  0  0  0
  9 32  1  0  0  0  0
  9 18  2  0  0  0  0
 10  4  1  6  0  0  0
 11 15  1  6  0  0  0
 11 10  1  0  0  0  0
 12  5  2  0  0  0  0
 12 23  1  0  0  0  0
 13 18  1  1  0  0  0
 13 19  1  0  0  0  0
 14 21  2  0  0  0  0
 15 16  2  0  0  0  0
 16  2  1  0  0  0  0
 17 16  1  6  0  0  0
 17 10  1  0  0  0  0
 17 20  1  0  0  0  0
 19 11  1  0  0  0  0
 19  1  1  0  0  0  0
 21  7  1  0  0  0  0
 22 20  2  0  0  0  0
 23 26  1  0  0  0  0
 23  2  2  0  0  0  0
 24 25  2  0  0  0  0
 26 24  1  0  0  0  0
 27 24  1  0  0  0  0
 28 27  1  0  0  0  0
 29 30  1  0  0  0  0
 29 31  1  0  0  0  0
 30 31  1  0  0  0  0
 32 33  1  0  0  0  0
M  END
>  <MODEL>
9

>  <REMARK>
 VINA RESULT:      -6.9      7.499      9.073
  Name = 
  4 active torsions:
  status: ('A' for Active; 'I' for Inactive)
    1  A    between atoms: C_2  and  O_25
    2  A    between atoms: C_6  and  C_11
    3  A    between atoms: C_10  and  N_13
    4  A    between atoms: N_24  and  C_32
                            x       y       z     vdW  Elec       q    Type
                         _______ _______ _______ _____ _____    ______ ____

>  <TORSDO>
F 4

$$$$
