=
 OpenBabel11032419303D

 31 35  0  0  1  0  0  0  0  0999 V2000
  187.8160  178.1410  139.5880 C   0  0  0  0  0  0  0  0  0  0  0  0
  185.6150  178.7100  140.3980 C   0  0  0  0  0  0  0  0  0  0  0  0
  186.4070  178.4600  139.3360 C   0  0  0  0  0  3  0  0  0  0  0  0
  187.7580  172.9680  136.2010 C   0  0  1  0  0  3  0  0  0  0  0  0
  190.6950  177.1110  142.2370 Cl  0  0  0  0  0  0  0  0  0  0  0  0
  189.9260  177.3390  139.5890 C   0  0  0  0  0  0  0  0  0  0  0  0
  188.3120  178.0540  140.9400 C   0  0  0  0  0  0  0  0  0  0  0  0
  189.6650  177.5310  140.8810 C   0  0  0  0  0  0  0  0  0  0  0  0
  190.0460  173.7450  137.0150 O   0  0  0  0  0  0  0  0  0  0  0  0
  191.1460  176.7270  138.9900 C   0  0  0  0  0  2  0  0  0  0  0  0
  188.7880  177.7470  138.7710 C   0  0  0  0  0  0  0  0  0  0  0  0
  190.8900  175.4310  138.3440 N   0  0  0  0  0  0  0  0  0  0  0  0
  187.2190  173.7670  137.3870 C   0  0  2  0  0  3  0  0  0  0  0  0
  185.4680  173.4950  137.5600 Cl  0  0  0  0  0  0  0  0  0  0  0  0
  189.2310  173.2710  135.9470 C   0  0  0  0  0  0  0  0  0  0  0  0
  189.9560  172.4410  134.9130 C   0  0  0  0  0  2  0  0  0  0  0  0
  189.9070  175.0210  137.5820 C   0  0  0  0  0  0  0  0  0  0  0  0
  186.1840  178.6310  141.7790 C   0  0  0  0  0  0  0  0  0  0  0  0
  188.6670  175.8270  137.3070 C   0  0  0  0  0  0  0  0  0  0  0  0
  185.4570  178.8790  142.7760 O   0  0  0  0  0  0  0  0  0  0  0  0
  189.5520  173.8780  134.6000 C   0  0  0  0  0  2  0  0  0  0  0  0
  187.4620  175.2380  137.2410 C   0  0  0  0  0  3  0  0  0  0  0  0
  187.5990  171.6040  136.4530 O   0  0  0  0  0  1  0  0  0  0  0  0
  188.7200  177.3270  137.3400 C   0  0  1  0  0  3  0  0  0  0  0  0
  187.5610  178.2520  141.9790 N   0  0  0  0  0  0  0  0  0  0  0  0
  183.7620  179.7150  139.0930 C   0  0  0  0  0  1  0  0  0  0  0  0
  184.2630  179.0370  140.2370 O   0  0  0  0  0  0  0  0  0  0  0  0
  187.6450  178.0320  136.5090 C   0  0  0  0  0  2  0  0  0  0  0  0
  187.7920  177.5810  134.7530 S   0  0  0  0  0  0  0  0  0  0  0  0
  185.3120  177.5050  135.8990 C   0  0  0  0  0  1  0  0  0  0  0  0
  186.0210  177.2060  134.5940 C   0  0  0  0  0  2  0  0  0  0  0  0
  1  7  1  0  0  0  0
  2 18  1  0  0  0  0
  3  1  1  0  0  0  0
  3  2  2  0  0  0  0
  4 23  1  1  0  0  0
  4 13  1  0  0  0  0
  6  8  2  0  0  0  0
  7 25  2  0  0  0  0
  8  7  1  0  0  0  0
  8  5  1  0  0  0  0
  9 17  1  0  0  0  0
 10  6  1  0  0  0  0
 11  1  2  0  0  0  0
 11  6  1  0  0  0  0
 12 10  1  0  0  0  0
 13 14  1  6  0  0  0
 15  4  1  0  0  0  0
 15  9  1  0  0  0  0
 16 15  1  0  0  0  0
 17 12  2  0  0  0  0
 18 25  1  0  0  0  0
 18 20  2  0  0  0  0
 19 24  1  0  0  0  0
 19 17  1  0  0  0  0
 21 16  1  0  0  0  0
 21 15  1  0  0  0  0
 22 19  2  0  0  0  0
 22 13  1  0  0  0  0
 24 28  1  1  0  0  0
 24 11  1  0  0  0  0
 26 27  1  0  0  0  0
 27  2  1  0  0  0  0
 29 28  1  0  0  0  0
 31 29  1  0  0  0  0
 31 30  1  0  0  0  0
M  END
>  <MODEL>
1

>  <REMARK>
 VINA RESULT:      -6.3      0.000      0.000
  Name = 
  4 active torsions:
  status: ('A' for Active; 'I' for Inactive)
    1  A    between atoms: C_2  and  O_26
    2  A    between atoms: S_5  and  C_6
    3  A    between atoms: S_5  and  C_27
    4  A    between atoms: C_6  and  C_30
                            x       y       z     vdW  Elec       q    Type
                         _______ _______ _______ _____ _____    ______ ____

>  <TORSDO>
F 4

$$$$
=
 OpenBabel11032419303D

 31 35  0  0  1  0  0  0  0  0999 V2000
  184.9430  178.9220  141.1350 C   0  0  0  0  0  0  0  0  0  0  0  0
  184.0800  178.7670  143.3830 C   0  0  0  0  0  0  0  0  0  0  0  0
  183.8380  179.0570  142.0880 C   0  0  0  0  0  3  0  0  0  0  0  0
  181.7550  175.3800  137.1940 C   0  0  1  0  0  3  0  0  0  0  0  0
  188.6600  177.5320  140.3430 Cl  0  0  0  0  0  0  0  0  0  0  0  0
  186.2860  178.5560  139.3570 C   0  0  0  0  0  0  0  0  0  0  0  0
  186.2310  178.4440  141.5770 C   0  0  0  0  0  0  0  0  0  0  0  0
  187.0490  178.2230  140.3970 C   0  0  0  0  0  0  0  0  0  0  0  0
  184.0250  176.2020  136.3720 O   0  0  0  0  0  0  0  0  0  0  0  0
  186.6150  178.4230  137.9090 C   0  0  0  0  0  2  0  0  0  0  0  0
  184.9790  179.0230  139.8090 C   0  0  0  0  0  0  0  0  0  0  0  0
  185.7940  177.4200  137.2150 N   0  0  0  0  0  0  0  0  0  0  0  0
  182.3390  175.5930  138.5900 C   0  0  2  0  0  3  0  0  0  0  0  0
  181.2130  174.9750  139.8230 Cl  0  0  0  0  0  0  0  0  0  0  0  0
  182.6370  176.0070  136.1190 C   0  0  0  0  0  0  0  0  0  0  0  0
  182.2840  175.7440  134.6730 C   0  0  0  0  0  2  0  0  0  0  0  0
  184.5150  177.1450  137.2880 C   0  0  0  0  0  0  0  0  0  0  0  0
  185.4400  178.3000  143.7940 C   0  0  0  0  0  0  0  0  0  0  0  0
  183.5810  177.7650  138.2910 C   0  0  0  0  0  0  0  0  0  0  0  0
  185.6800  178.0420  145.0020 O   0  0  0  0  0  0  0  0  0  0  0  0
  181.9910  177.1020  135.3000 C   0  0  0  0  0  2  0  0  0  0  0  0
  182.6160  177.0380  138.8780 C   0  0  0  0  0  3  0  0  0  0  0  0
  181.6270  174.0110  136.9520 O   0  0  0  0  0  1  0  0  0  0  0  0
  183.8570  179.1390  138.8320 C   0  0  1  0  0  3  0  0  0  0  0  0
  186.4780  178.1220  142.8080 N   0  0  0  0  0  0  0  0  0  0  0  0
  181.6930  178.7940  144.0530 C   0  0  0  0  0  1  0  0  0  0  0  0
  183.0790  178.8870  144.3550 O   0  0  0  0  0  0  0  0  0  0  0  0
  182.6280  179.8940  139.3420 C   0  0  0  0  0  2  0  0  0  0  0  0
  181.5590  180.3930  137.9570 S   0  0  0  0  0  0  0  0  0  0  0  0
  180.3730  179.7500  140.3340 C   0  0  0  0  0  1  0  0  0  0  0  0
  180.0390  180.2480  138.9420 C   0  0  0  0  0  2  0  0  0  0  0  0
  1  7  1  0  0  0  0
  1  3  1  0  0  0  0
  2 18  1  0  0  0  0
  2 27  1  0  0  0  0
  3  2  2  0  0  0  0
  4 23  1  6  0  0  0
  4 13  1  0  0  0  0
  5  8  1  0  0  0  0
  6 11  1  0  0  0  0
  6  8  2  0  0  0  0
  7 25  2  0  0  0  0
  8  7  1  0  0  0  0
  9 17  1  0  0  0  0
 10  6  1  0  0  0  0
 11  1  2  0  0  0  0
 12 17  2  0  0  0  0
 12 10  1  0  0  0  0
 13 22  1  0  0  0  0
 13 14  1  1  0  0  0
 15  9  1  0  0  0  0
 15  4  1  0  0  0  0
 16 21  1  0  0  0  0
 16 15  1  0  0  0  0
 17 19  1  0  0  0  0
 18 20  2  0  0  0  0
 19 24  1  0  0  0  0
 19 22  2  0  0  0  0
 21 15  1  0  0  0  0
 24 28  1  1  0  0  0
 24 11  1  0  0  0  0
 25 18  1  0  0  0  0
 26 27  1  0  0  0  0
 29 31  1  0  0  0  0
 29 28  1  0  0  0  0
 31 30  1  0  0  0  0
M  END
>  <MODEL>
2

>  <REMARK>
 VINA RESULT:      -5.7      4.098      5.404
  Name = 
  4 active torsions:
  status: ('A' for Active; 'I' for Inactive)
    1  A    between atoms: C_2  and  O_26
    2  A    between atoms: S_5  and  C_6
    3  A    between atoms: S_5  and  C_27
    4  A    between atoms: C_6  and  C_30
                            x       y       z     vdW  Elec       q    Type
                         _______ _______ _______ _____ _____    ______ ____

>  <TORSDO>
F 4

$$$$
=
 OpenBabel11032419303D

 31 35  0  0  1  0  0  0  0  0999 V2000
  183.1500  179.1250  141.4220 C   0  0  0  0  0  0  0  0  0  0  0  0
  182.0240  179.0350  143.5540 C   0  0  0  0  0  0  0  0  0  0  0  0
  181.9180  179.1560  142.2150 C   0  0  0  0  0  3  0  0  0  0  0  0
  181.1340  174.7340  137.5630 C   0  0  1  0  0  3  0  0  0  0  0  0
  187.1140  178.3300  141.2420 Cl  0  0  0  0  0  0  0  0  0  0  0  0
  184.7640  178.8320  139.8700 C   0  0  0  0  0  0  0  0  0  0  0  0
  184.4250  178.9200  142.0660 C   0  0  0  0  0  0  0  0  0  0  0  0
  185.4210  178.7340  141.0250 C   0  0  0  0  0  0  0  0  0  0  0  0
  183.3350  175.8550  136.9280 O   0  0  0  0  0  0  0  0  0  0  0  0
  185.3040  178.6220  138.4970 C   0  0  0  0  0  2  0  0  0  0  0  0
  183.3500  179.1060  140.1070 C   0  0  0  0  0  0  0  0  0  0  0  0
  184.7560  177.4330  137.8290 N   0  0  0  0  0  0  0  0  0  0  0  0
  181.4810  175.1740  138.9850 C   0  0  2  0  0  3  0  0  0  0  0  0
  180.3100  174.4880  140.1380 Cl  0  0  0  0  0  0  0  0  0  0  0  0
  182.0430  175.4000  136.5360 C   0  0  0  0  0  0  0  0  0  0  0  0
  181.9380  174.9460  135.0980 C   0  0  0  0  0  2  0  0  0  0  0  0
  183.5390  176.9490  137.7820 C   0  0  0  0  0  0  0  0  0  0  0  0
  183.3720  178.8490  144.1750 C   0  0  0  0  0  0  0  0  0  0  0  0
  182.3900  177.4900  138.5880 C   0  0  0  0  0  0  0  0  0  0  0  0
  183.4820  178.7520  145.4240 O   0  0  0  0  0  0  0  0  0  0  0  0
  181.3500  176.2860  135.5250 C   0  0  0  0  0  2  0  0  0  0  0  0
  181.4820  176.6650  139.1350 C   0  0  0  0  0  3  0  0  0  0  0  0
  181.2600  173.3460  137.4670 O   0  0  0  0  0  1  0  0  0  0  0  0
  182.3680  178.9350  138.9960 C   0  0  1  0  0  3  0  0  0  0  0  0
  184.5500  178.7620  143.3460 N   0  0  0  0  0  0  0  0  0  0  0  0
  179.6070  178.6490  143.9470 C   0  0  0  0  0  1  0  0  0  0  0  0
  180.8930  179.0700  144.3790 O   0  0  0  0  0  0  0  0  0  0  0  0
  180.9770  179.5110  139.2670 C   0  0  0  0  0  2  0  0  0  0  0  0
  180.9010  181.2630  138.7810 S   0  0  0  0  0  0  0  0  0  0  0  0
  178.9310  180.3030  140.4130 C   0  0  0  0  0  1  0  0  0  0  0  0
  179.4550  181.5990  139.8280 C   0  0  0  0  0  2  0  0  0  0  0  0
  1  7  1  0  0  0  0
  1  3  1  0  0  0  0
  2 18  1  0  0  0  0
  2 27  1  0  0  0  0
  3  2  2  0  0  0  0
  4 23  1  1  0  0  0
  4 13  1  0  0  0  0
  6 11  1  0  0  0  0
  6  8  2  0  0  0  0
  7 25  2  0  0  0  0
  8  5  1  0  0  0  0
  8  7  1  0  0  0  0
  9 17  1  0  0  0  0
 10  6  1  0  0  0  0
 11  1  2  0  0  0  0
 12 10  1  0  0  0  0
 13 22  1  0  0  0  0
 13 14  1  1  0  0  0
 15  9  1  0  0  0  0
 15  4  1  0  0  0  0
 16 21  1  0  0  0  0
 16 15  1  0  0  0  0
 17 12  2  0  0  0  0
 17 19  1  0  0  0  0
 18 20  2  0  0  0  0
 19 24  1  0  0  0  0
 19 22  2  0  0  0  0
 21 15  1  0  0  0  0
 24 28  1  1  0  0  0
 24 11  1  0  0  0  0
 25 18  1  0  0  0  0
 26 27  1  0  0  0  0
 29 28  1  0  0  0  0
 29 31  1  0  0  0  0
 31 30  1  0  0  0  0
M  END
>  <MODEL>
3

>  <REMARK>
 VINA RESULT:      -5.7      4.986      6.373
  Name = 
  4 active torsions:
  status: ('A' for Active; 'I' for Inactive)
    1  A    between atoms: C_2  and  O_26
    2  A    between atoms: S_5  and  C_6
    3  A    between atoms: S_5  and  C_27
    4  A    between atoms: C_6  and  C_30
                            x       y       z     vdW  Elec       q    Type
                         _______ _______ _______ _____ _____    ______ ____

>  <TORSDO>
F 4

$$$$
=
 OpenBabel11032419303D

 31 35  0  0  1  0  0  0  0  0999 V2000
  184.1920  177.7190  137.8110 C   0  0  0  0  0  0  0  0  0  0  0  0
  186.5930  177.9280  137.6900 C   0  0  0  0  0  0  0  0  0  0  0  0
  185.4120  178.5180  137.9650 C   0  0  0  0  0  3  0  0  0  0  0  0
  182.0490  179.0100  143.4660 C   0  0  1  0  0  3  0  0  0  0  0  0
  182.4950  174.0780  137.3270 Cl  0  0  0  0  0  0  0  0  0  0  0  0
  182.1610  176.7470  137.9750 C   0  0  0  0  0  0  0  0  0  0  0  0
  184.2740  176.3320  137.4240 C   0  0  0  0  0  0  0  0  0  0  0  0
  182.9470  175.7580  137.5520 C   0  0  0  0  0  0  0  0  0  0  0  0
  180.4390  177.7850  141.9140 O   0  0  0  0  0  0  0  0  0  0  0  0
  180.7220  176.6650  138.3550 C   0  0  0  0  0  2  0  0  0  0  0  0
  182.9230  177.9840  138.1100 C   0  0  1  0  0  3  0  0  0  0  0  0
  180.4840  176.8900  139.7880 N   0  0  0  0  0  0  0  0  0  0  0  0
  183.1400  178.4090  142.5810 C   0  0  2  0  0  3  0  0  0  0  0  0
  184.7440  178.7500  143.2740 Cl  0  0  0  0  0  0  0  0  0  0  0  0
  180.6680  178.8430  142.8410 C   0  0  0  0  0  0  0  0  0  0  0  0
  179.4650  179.2380  143.6660 C   0  0  0  0  0  2  0  0  0  0  0  0
  180.9980  177.7550  140.6280 C   0  0  0  0  0  0  0  0  0  0  0  0
  186.6220  176.4930  137.2690 C   0  0  0  0  0  0  0  0  0  0  0  0
  182.1350  178.6790  140.2870 C   0  0  0  0  0  0  0  0  0  0  0  0
  187.7180  175.9390  136.9940 O   0  0  0  0  0  0  0  0  0  0  0  0
  179.9350  180.1250  142.5190 C   0  0  0  0  0  2  0  0  0  0  0  0
  183.1000  178.9450  141.1830 C   0  0  0  0  0  3  0  0  0  0  0  0
  182.0740  178.3880  144.7160 O   0  0  0  0  0  1  0  0  0  0  0  0
  182.3430  179.1300  138.8700 C   0  0  1  0  0  3  0  0  0  0  0  0
  185.4000  175.7320  137.1920 N   0  0  0  0  0  2  0  0  0  0  0  0
  188.6680  178.5070  138.9170 C   0  0  0  0  0  1  0  0  0  0  0  0
  187.8000  178.6310  137.7990 O   0  0  0  0  0  0  0  0  0  0  0  0
  183.0910  180.4560  138.7150 C   0  0  0  0  0  2  0  0  0  0  0  0
  181.9320  181.8080  138.3440 S   0  0  0  0  0  0  0  0  0  0  0  0
  180.7150  181.0750  136.0090 C   0  0  0  0  0  1  0  0  0  0  0  0
  180.7680  180.7130  137.4800 C   0  0  0  0  0  2  0  0  0  0  0  0
  1  3  1  0  0  0  0
  2 27  1  0  0  0  0
  2  3  2  0  0  0  0
  4 23  1  1  0  0  0
  5  8  1  0  0  0  0
  6 11  1  0  0  0  0
  6 10  1  0  0  0  0
  7  8  1  0  0  0  0
  7  1  2  0  0  0  0
  8  6  2  0  0  0  0
  9 15  1  0  0  0  0
 10 12  1  0  0  0  0
 11  1  1  1  0  0  0
 11 24  1  0  0  0  0
 12 17  2  0  0  0  0
 13 14  1  1  0  0  0
 13  4  1  0  0  0  0
 15  4  1  0  0  0  0
 15 16  1  0  0  0  0
 17  9  1  0  0  0  0
 18  2  1  0  0  0  0
 19 17  1  0  0  0  0
 19 22  2  0  0  0  0
 20 18  2  0  0  0  0
 21 15  1  0  0  0  0
 21 16  1  0  0  0  0
 22 13  1  0  0  0  0
 24 28  1  1  0  0  0
 24 19  1  0  0  0  0
 25 18  1  0  0  0  0
 25  7  1  0  0  0  0
 27 26  1  0  0  0  0
 29 28  1  0  0  0  0
 30 31  1  0  0  0  0
 31 29  1  0  0  0  0
M  END
>  <MODEL>
4

>  <REMARK>
 VINA RESULT:      -5.7      4.067      8.469
  Name = 
  4 active torsions:
  status: ('A' for Active; 'I' for Inactive)
    1  A    between atoms: C_2  and  O_26
    2  A    between atoms: S_5  and  C_6
    3  A    between atoms: S_5  and  C_27
    4  A    between atoms: C_6  and  C_30
                            x       y       z     vdW  Elec       q    Type
                         _______ _______ _______ _____ _____    ______ ____

>  <TORSDO>
F 4

$$$$
=
 OpenBabel11032419303D

 31 35  0  0  1  0  0  0  0  0999 V2000
  182.2070  176.7500  137.4650 C   0  0  0  0  0  0  0  0  0  0  0  0
  184.4920  176.8400  136.6940 C   0  0  0  0  0  0  0  0  0  0  0  0
  183.4170  177.5150  137.1510 C   0  0  0  0  0  3  0  0  0  0  0  0
  181.5980  179.1170  143.1450 C   0  0  1  0  0  3  0  0  0  0  0  0
  180.4770  173.1490  138.1100 Cl  0  0  0  0  0  0  0  0  0  0  0  0
  180.2980  175.9020  138.3220 C   0  0  0  0  0  0  0  0  0  0  0  0
  182.1990  175.3130  137.3310 C   0  0  0  0  0  0  0  0  0  0  0  0
  180.9560  174.8240  137.9000 C   0  0  0  0  0  0  0  0  0  0  0  0
  179.6510  177.6970  142.3120 O   0  0  0  0  0  0  0  0  0  0  0  0
  179.0080  175.9460  139.0680 C   0  0  0  0  0  2  0  0  0  0  0  0
  181.0580  177.1130  138.0270 C   0  0  1  0  0  3  0  0  0  0  0  0
  179.1490  176.4330  140.4480 N   0  0  0  0  0  0  0  0  0  0  0  0
  182.4270  178.3250  142.1350 C   0  0  2  0  0  3  0  0  0  0  0  0
  184.1520  178.7230  142.3170 Cl  0  0  0  0  0  0  0  0  0  0  0  0
  180.1030  178.8940  142.9380 C   0  0  0  0  0  0  0  0  0  0  0  0
  179.1530  179.4770  143.9580 C   0  0  0  0  0  2  0  0  0  0  0  0
  179.8560  177.4150  140.9530 C   0  0  0  0  0  0  0  0  0  0  0  0
  184.4230  175.3530  136.5490 C   0  0  0  0  0  0  0  0  0  0  0  0
  180.8570  178.2170  140.1680 C   0  0  0  0  0  0  0  0  0  0  0  0
  185.4160  174.7160  136.1090 O   0  0  0  0  0  0  0  0  0  0  0  0
  179.3000  180.1250  142.5860 C   0  0  0  0  0  2  0  0  0  0  0  0
  182.0190  178.6020  140.7200 C   0  0  0  0  0  3  0  0  0  0  0  0
  181.9530  178.7290  144.4390 O   0  0  0  0  0  1  0  0  0  0  0  0
  180.6840  178.3990  138.6870 C   0  0  1  0  0  3  0  0  0  0  0  0
  183.2310  174.6380  136.9320 N   0  0  0  0  0  2  0  0  0  0  0  0
  186.6840  177.8200  137.3100 C   0  0  0  0  0  1  0  0  0  0  0  0
  185.6780  177.5030  136.3570 O   0  0  0  0  0  0  0  0  0  0  0  0
  181.3530  179.6450  138.1040 C   0  0  0  0  0  2  0  0  0  0  0  0
  180.5110  180.1730  136.5800 S   0  0  0  0  0  0  0  0  0  0  0  0
  181.4670  182.1070  138.2590 C   0  0  0  0  0  1  0  0  0  0  0  0
  180.6730  181.9390  136.9790 C   0  0  0  0  0  2  0  0  0  0  0  0
  2  3  2  0  0  0  0
  3  1  1  0  0  0  0
  4 23  1  1  0  0  0
  6 10  1  0  0  0  0
  7  1  2  0  0  0  0
  7  8  1  0  0  0  0
  8  5  1  0  0  0  0
  8  6  2  0  0  0  0
  9 15  1  0  0  0  0
 10 12  1  0  0  0  0
 11  1  1  1  0  0  0
 11  6  1  0  0  0  0
 11 24  1  0  0  0  0
 12 17  2  0  0  0  0
 13 14  1  6  0  0  0
 13  4  1  0  0  0  0
 15  4  1  0  0  0  0
 15 16  1  0  0  0  0
 17  9  1  0  0  0  0
 18  2  1  0  0  0  0
 18 25  1  0  0  0  0
 19 22  2  0  0  0  0
 19 17  1  0  0  0  0
 20 18  2  0  0  0  0
 21 15  1  0  0  0  0
 21 16  1  0  0  0  0
 22 13  1  0  0  0  0
 24 28  1  6  0  0  0
 24 19  1  0  0  0  0
 25  7  1  0  0  0  0
 27  2  1  0  0  0  0
 27 26  1  0  0  0  0
 29 31  1  0  0  0  0
 29 28  1  0  0  0  0
 31 30  1  0  0  0  0
M  END
>  <MODEL>
5

>  <REMARK>
 VINA RESULT:      -5.4      4.849      9.299
  Name = 
  4 active torsions:
  status: ('A' for Active; 'I' for Inactive)
    1  A    between atoms: C_2  and  O_26
    2  A    between atoms: S_5  and  C_6
    3  A    between atoms: S_5  and  C_27
    4  A    between atoms: C_6  and  C_30
                            x       y       z     vdW  Elec       q    Type
                         _______ _______ _______ _____ _____    ______ ____

>  <TORSDO>
F 4

$$$$
=
 OpenBabel11032419303D

 31 35  0  0  1  0  0  0  0  0999 V2000
  182.2560  178.9250  141.3080 C   0  0  0  0  0  0  0  0  0  0  0  0
  181.5230  178.9770  143.6060 C   0  0  0  0  0  0  0  0  0  0  0  0
  181.1800  178.9470  142.3030 C   0  0  0  0  0  3  0  0  0  0  0  0
  180.0280  174.0120  138.2870 C   0  0  1  0  0  3  0  0  0  0  0  0
  186.1880  178.4160  140.4970 Cl  0  0  0  0  0  0  0  0  0  0  0  0
  183.6020  178.5920  139.5260 C   0  0  0  0  0  0  0  0  0  0  0  0
  183.6360  178.8860  141.7300 C   0  0  0  0  0  0  0  0  0  0  0  0
  184.4520  178.6660  140.5500 C   0  0  0  0  0  0  0  0  0  0  0  0
  181.9750  175.2220  137.1700 O   0  0  0  0  0  0  0  0  0  0  0  0
  183.9180  178.2800  138.1030 C   0  0  0  0  0  2  0  0  0  0  0  0
  182.2300  178.7830  139.9860 C   0  0  0  0  0  0  0  0  0  0  0  0
  183.3760  176.9890  137.6550 N   0  0  0  0  0  0  0  0  0  0  0  0
  180.5690  174.6250  139.5780 C   0  0  2  0  0  3  0  0  0  0  0  0
  179.6800  173.9790  140.9780 Cl  0  0  0  0  0  0  0  0  0  0  0  0
  180.6830  174.6320  137.0570 C   0  0  0  0  0  0  0  0  0  0  0  0
  180.3770  174.0220  135.7090 C   0  0  0  0  0  2  0  0  0  0  0  0
  182.2190  176.4120  137.8700 C   0  0  0  0  0  0  0  0  0  0  0  0
  182.9690  178.9600  143.9900 C   0  0  0  0  0  0  0  0  0  0  0  0
  181.1790  176.9470  138.8160 C   0  0  0  0  0  0  0  0  0  0  0  0
  183.2980  179.0030  145.2040 O   0  0  0  0  0  0  0  0  0  0  0  0
  179.7490  175.3520  136.1110 C   0  0  0  0  0  2  0  0  0  0  0  0
  180.4580  176.1190  139.5900 C   0  0  0  0  0  3  0  0  0  0  0  0
  180.2630  172.6350  138.2960 O   0  0  0  0  0  1  0  0  0  0  0  0
  181.0940  178.4220  139.0890 C   0  0  1  0  0  3  0  0  0  0  0  0
  183.9900  178.8740  142.9760 N   0  0  0  0  0  0  0  0  0  0  0  0
  179.1560  179.0030  144.3430 C   0  0  0  0  0  1  0  0  0  0  0  0
  180.5510  179.0140  144.6140 O   0  0  0  0  0  0  0  0  0  0  0  0
  179.7210  178.9170  139.5500 C   0  0  0  0  0  2  0  0  0  0  0  0
  179.3990  180.5940  138.9210 S   0  0  0  0  0  0  0  0  0  0  0  0
  180.8050  181.5190  136.7680 C   0  0  0  0  0  1  0  0  0  0  0  0
  180.1760  180.2530  137.3150 C   0  0  0  0  0  2  0  0  0  0  0  0
  1  7  1  0  0  0  0
  1  3  1  0  0  0  0
  2 18  1  0  0  0  0
  2 27  1  0  0  0  0
  3  2  2  0  0  0  0
  4 23  1  1  0  0  0
  4 13  1  0  0  0  0
  5  8  1  0  0  0  0
  6 11  1  0  0  0  0
  6  8  2  0  0  0  0
  7 25  2  0  0  0  0
  8  7  1  0  0  0  0
  9 17  1  0  0  0  0
 10  6  1  0  0  0  0
 11  1  2  0  0  0  0
 12 17  2  0  0  0  0
 12 10  1  0  0  0  0
 13 22  1  0  0  0  0
 13 14  1  1  0  0  0
 15  9  1  0  0  0  0
 15  4  1  0  0  0  0
 16 21  1  0  0  0  0
 16 15  1  0  0  0  0
 17 19  1  0  0  0  0
 18 20  2  0  0  0  0
 19 24  1  0  0  0  0
 19 22  2  0  0  0  0
 21 15  1  0  0  0  0
 24 28  1  1  0  0  0
 24 11  1  0  0  0  0
 25 18  1  0  0  0  0
 26 27  1  0  0  0  0
 29 28  1  0  0  0  0
 30 31  1  0  0  0  0
 31 29  1  0  0  0  0
M  END
>  <MODEL>
6

>  <REMARK>
 VINA RESULT:      -5.3      5.672      7.077
  Name = 
  4 active torsions:
  status: ('A' for Active; 'I' for Inactive)
    1  A    between atoms: C_2  and  O_26
    2  A    between atoms: S_5  and  C_6
    3  A    between atoms: S_5  and  C_27
    4  A    between atoms: C_6  and  C_30
                            x       y       z     vdW  Elec       q    Type
                         _______ _______ _______ _____ _____    ______ ____

>  <TORSDO>
F 4

$$$$
=
 OpenBabel11032419303D

 31 35  0  0  1  0  0  0  0  0999 V2000
  182.7090  178.4610  141.5040 C   0  0  0  0  0  0  0  0  0  0  0  0
  184.8500  179.0830  142.4270 C   0  0  0  0  0  0  0  0  0  0  0  0
  184.1420  178.7190  141.3380 C   0  0  0  0  0  3  0  0  0  0  0  0
  181.0010  182.2210  136.9020 C   0  0  1  0  0  3  0  0  0  0  0  0
  179.3970  178.7640  143.8080 Cl  0  0  0  0  0  0  0  0  0  0  0  0
  180.4680  178.2700  141.3060 C   0  0  0  0  0  0  0  0  0  0  0  0
  182.0800  178.6430  142.7900 C   0  0  0  0  0  0  0  0  0  0  0  0
  180.6460  178.5150  142.6030 C   0  0  0  0  0  0  0  0  0  0  0  0
  179.1600  180.7630  137.8950 O   0  0  0  0  0  0  0  0  0  0  0  0
  179.1760  178.1490  140.5720 C   0  0  0  0  0  2  0  0  0  0  0  0
  181.7530  178.2030  140.6160 C   0  0  0  0  0  0  0  0  0  0  0  0
  178.9440  179.2410  139.6150 N   0  0  0  0  0  0  0  0  0  0  0  0
  181.6910  182.0270  138.2520 C   0  0  2  0  0  3  0  0  0  0  0  0
  183.1470  183.0470  138.3440 Cl  0  0  0  0  0  0  0  0  0  0  0  0
  179.8180  181.2730  136.7390 C   0  0  0  0  0  0  0  0  0  0  0  0
  178.9310  181.4510  135.5280 C   0  0  0  0  0  2  0  0  0  0  0  0
  179.7480  179.8380  138.7700 C   0  0  0  0  0  0  0  0  0  0  0  0
  184.1550  179.2350  143.7430 C   0  0  0  0  0  0  0  0  0  0  0  0
  181.2310  179.5930  138.7080 C   0  0  0  0  0  0  0  0  0  0  0  0
  184.8100  179.5590  144.7670 O   0  0  0  0  0  0  0  0  0  0  0  0
  179.9180  180.2910  135.5940 C   0  0  0  0  0  2  0  0  0  0  0  0
  182.0890  180.6030  138.4890 C   0  0  0  0  0  3  0  0  0  0  0  0
  180.5590  183.5420  136.7950 O   0  0  0  0  0  1  0  0  0  0  0  0
  181.7950  178.2650  139.1250 C   0  0  1  0  0  3  0  0  0  0  0  0
  182.7310  179.0310  143.8420 N   0  0  0  0  0  0  0  0  0  0  0  0
  187.1740  178.3350  141.9950 C   0  0  0  0  0  1  0  0  0  0  0  0
  186.2260  179.3320  142.3510 O   0  0  0  0  0  0  0  0  0  0  0  0
  183.1450  177.9080  138.5000 C   0  0  0  0  0  2  0  0  0  0  0  0
  183.1950  176.1490  138.0380 S   0  0  0  0  0  0  0  0  0  0  0  0
  182.6090  177.0430  135.5220 C   0  0  0  0  0  1  0  0  0  0  0  0
  183.7600  176.5020  136.3470 C   0  0  0  0  0  2  0  0  0  0  0  0
  1  7  1  0  0  0  0
  2 18  1  0  0  0  0
  3  1  1  0  0  0  0
  3  2  2  0  0  0  0
  4 23  1  1  0  0  0
  4 13  1  0  0  0  0
  6  8  2  0  0  0  0
  7 25  2  0  0  0  0
  8  7  1  0  0  0  0
  8  5  1  0  0  0  0
  9 17  1  0  0  0  0
 10  6  1  0  0  0  0
 11  6  1  0  0  0  0
 11  1  2  0  0  0  0
 12 10  1  0  0  0  0
 13 14  1  6  0  0  0
 13 22  1  0  0  0  0
 15  4  1  0  0  0  0
 15  9  1  0  0  0  0
 16 21  1  0  0  0  0
 16 15  1  0  0  0  0
 17 12  2  0  0  0  0
 18 25  1  0  0  0  0
 18 20  2  0  0  0  0
 19 17  1  0  0  0  0
 19 24  1  0  0  0  0
 21 15  1  0  0  0  0
 22 19  2  0  0  0  0
 24 28  1  1  0  0  0
 24 11  1  0  0  0  0
 26 27  1  0  0  0  0
 27  2  1  0  0  0  0
 29 28  1  0  0  0  0
 30 31  1  0  0  0  0
 31 29  1  0  0  0  0
M  END
>  <MODEL>
7

>  <REMARK>
 VINA RESULT:      -5.2      5.588      8.788
  Name = 
  4 active torsions:
  status: ('A' for Active; 'I' for Inactive)
    1  A    between atoms: C_2  and  O_26
    2  A    between atoms: S_5  and  C_6
    3  A    between atoms: S_5  and  C_27
    4  A    between atoms: C_6  and  C_30
                            x       y       z     vdW  Elec       q    Type
                         _______ _______ _______ _____ _____    ______ ____

>  <TORSDO>
F 4

$$$$
=
 OpenBabel11032419303D

 31 35  0  0  1  0  0  0  0  0999 V2000
  187.2310  178.4070  140.7720 C   0  0  0  0  0  0  0  0  0  0  0  0
  184.8240  178.5710  140.7990 C   0  0  0  0  0  0  0  0  0  0  0  0
  185.9620  178.6430  140.0780 C   0  0  0  0  0  3  0  0  0  0  0  0
  189.2060  174.1600  136.7340 C   0  0  1  0  0  3  0  0  0  0  0  0
  189.1600  177.0670  144.0670 Cl  0  0  0  0  0  0  0  0  0  0  0  0
  189.3170  177.8230  141.4100 C   0  0  0  0  0  0  0  0  0  0  0  0
  187.2420  178.0590  142.1720 C   0  0  0  0  0  0  0  0  0  0  0  0
  188.6010  177.6890  142.5250 C   0  0  0  0  0  0  0  0  0  0  0  0
  190.9130  174.9380  138.4620 O   0  0  0  0  0  0  0  0  0  0  0  0
  190.7530  177.4780  141.2050 C   0  0  0  0  0  2  0  0  0  0  0  0
  188.4760  178.3000  140.3160 C   0  0  0  0  0  0  0  0  0  0  0  0
  190.9550  176.3460  140.2890 N   0  0  0  0  0  0  0  0  0  0  0  0
  188.1680  174.6140  137.7600 C   0  0  2  0  0  3  0  0  0  0  0  0
  186.5360  174.1500  137.2210 Cl  0  0  0  0  0  0  0  0  0  0  0  0
  190.6040  174.6470  137.1020 C   0  0  0  0  0  0  0  0  0  0  0  0
  191.7680  174.1460  136.2780 C   0  0  0  0  0  2  0  0  0  0  0  0
  190.3760  176.0320  139.1570 C   0  0  0  0  0  0  0  0  0  0  0  0
  184.8910  178.2310  142.2540 C   0  0  0  0  0  0  0  0  0  0  0  0
  189.1880  176.7620  138.5930 C   0  0  0  0  0  0  0  0  0  0  0  0
  183.8360  178.1770  142.9380 O   0  0  0  0  0  0  0  0  0  0  0  0
  191.2600  175.5720  136.1020 C   0  0  0  0  0  2  0  0  0  0  0  0
  188.1950  176.0960  137.9800 C   0  0  0  0  0  3  0  0  0  0  0  0
  189.2030  172.7660  136.6600 O   0  0  0  0  0  1  0  0  0  0  0  0
  188.9730  178.2140  138.9110 C   0  0  1  0  0  3  0  0  0  0  0  0
  186.1600  177.9440  142.8770 N   0  0  0  0  0  0  0  0  0  0  0  0
  183.3880  179.6740  139.1050 C   0  0  0  0  0  1  0  0  0  0  0  0
  183.5740  178.8000  140.2100 O   0  0  0  0  0  0  0  0  0  0  0  0
  188.1450  178.9880  137.8830 C   0  0  0  0  0  2  0  0  0  0  0  0
  188.9190  178.9010  136.2390 S   0  0  0  0  0  0  0  0  0  0  0  0
  186.2610  178.2720  136.1400 C   0  0  0  0  0  1  0  0  0  0  0  0
  187.5970  177.8570  135.5580 C   0  0  0  0  0  2  0  0  0  0  0  0
  1  7  1  0  0  0  0
  2 18  1  0  0  0  0
  3  1  1  0  0  0  0
  3  2  2  0  0  0  0
  4 23  1  1  0  0  0
  4 15  1  0  0  0  0
  4 13  1  0  0  0  0
  6  8  2  0  0  0  0
  7  8  1  0  0  0  0
  7 25  2  0  0  0  0
  8  5  1  0  0  0  0
  9 17  1  0  0  0  0
 10  6  1  0  0  0  0
 11  1  2  0  0  0  0
 11  6  1  0  0  0  0
 12 10  1  0  0  0  0
 13 14  1  6  0  0  0
 13 22  1  0  0  0  0
 15  9  1  0  0  0  0
 16 15  1  0  0  0  0
 17 12  2  0  0  0  0
 18 25  1  0  0  0  0
 18 20  2  0  0  0  0
 19 24  1  0  0  0  0
 19 17  1  0  0  0  0
 21 16  1  0  0  0  0
 21 15  1  0  0  0  0
 22 19  2  0  0  0  0
 24 28  1  6  0  0  0
 24 11  1  0  0  0  0
 26 27  1  0  0  0  0
 27  2  1  0  0  0  0
 29 28  1  0  0  0  0
 31 30  1  0  0  0  0
 31 29  1  0  0  0  0
M  END
>  <MODEL>
8

>  <REMARK>
 VINA RESULT:      -4.9      1.470      1.826
  Name = 
  4 active torsions:
  status: ('A' for Active; 'I' for Inactive)
    1  A    between atoms: C_2  and  O_26
    2  A    between atoms: S_5  and  C_6
    3  A    between atoms: S_5  and  C_27
    4  A    between atoms: C_6  and  C_30
                            x       y       z     vdW  Elec       q    Type
                         _______ _______ _______ _____ _____    ______ ____

>  <TORSDO>
F 4

$$$$
=
 OpenBabel11032419303D

 31 35  0  0  1  0  0  0  0  0999 V2000
  183.9230  176.0430  136.2260 C   0  0  0  0  0  0  0  0  0  0  0  0
  186.1490  176.8010  135.6870 C   0  0  0  0  0  0  0  0  0  0  0  0
  184.8620  177.1270  135.9250 C   0  0  0  0  0  3  0  0  0  0  0  0
  181.7760  178.6850  141.3880 C   0  0  1  0  0  3  0  0  0  0  0  0
  183.3400  172.1670  137.2310 Cl  0  0  0  0  0  0  0  0  0  0  0  0
  182.2740  174.7100  137.0020 C   0  0  0  0  0  0  0  0  0  0  0  0
  184.3870  174.6800  136.3120 C   0  0  0  0  0  0  0  0  0  0  0  0
  183.2930  173.8710  136.8180 C   0  0  0  0  0  0  0  0  0  0  0  0
  180.5190  176.6170  140.5860 O   0  0  0  0  0  0  0  0  0  0  0  0
  180.9420  174.4050  137.5970 C   0  0  0  0  0  2  0  0  0  0  0  0
  182.6480  176.0640  136.6060 C   0  0  1  0  0  3  0  0  0  0  0  0
  180.7190  175.0610  138.8940 N   0  0  0  0  0  0  0  0  0  0  0  0
  182.9500  178.1060  140.6000 C   0  0  2  0  0  3  0  0  0  0  0  0
  184.4160  179.0720  140.8950 Cl  0  0  0  0  0  0  0  0  0  0  0  0
  180.4750  177.9570  141.0660 C   0  0  0  0  0  0  0  0  0  0  0  0
  179.2510  178.3010  141.8830 C   0  0  0  0  0  2  0  0  0  0  0  0
  180.9980  176.2700  139.3140 C   0  0  0  0  0  0  0  0  0  0  0  0
  186.5750  175.3690  135.7650 C   0  0  0  0  0  0  0  0  0  0  0  0
  181.7990  177.2680  138.5220 C   0  0  0  0  0  0  0  0  0  0  0  0
  187.7700  175.0530  135.5290 O   0  0  0  0  0  0  0  0  0  0  0  0
  179.3850  178.8050  140.4510 C   0  0  0  0  0  2  0  0  0  0  0  0
  182.6870  178.0750  139.1260 C   0  0  0  0  0  3  0  0  0  0  0  0
  182.0410  178.5820  142.7560 O   0  0  0  0  0  1  0  0  0  0  0  0
  181.7960  177.2170  137.0210 C   0  0  1  0  0  3  0  0  0  0  0  0
  185.6260  174.3460  136.1270 N   0  0  0  0  0  2  0  0  0  0  0  0
  187.7140  178.6020  136.3610 C   0  0  0  0  0  1  0  0  0  0  0  0
  187.1020  177.7790  135.3780 O   0  0  0  0  0  0  0  0  0  0  0  0
  182.1170  178.5430  136.3270 C   0  0  0  0  0  2  0  0  0  0  0  0
  180.9610  178.8460  134.9550 S   0  0  0  0  0  0  0  0  0  0  0  0
  180.8040  180.8000  136.8590 C   0  0  0  0  0  1  0  0  0  0  0  0
  180.7840  180.6090  135.3560 C   0  0  0  0  0  2  0  0  0  0  0  0
  1  7  2  0  0  0  0
  2 18  1  0  0  0  0
  2  3  2  0  0  0  0
  3  1  1  0  0  0  0
  4 23  1  1  0  0  0
  6 10  1  0  0  0  0
  7  8  1  0  0  0  0
  8  6  2  0  0  0  0
  8  5  1  0  0  0  0
  9 15  1  0  0  0  0
 10 12  1  0  0  0  0
 11  1  1  1  0  0  0
 11  6  1  0  0  0  0
 11 24  1  0  0  0  0
 12 17  2  0  0  0  0
 13 14  1  6  0  0  0
 13  4  1  0  0  0  0
 15  4  1  0  0  0  0
 15 16  1  0  0  0  0
 17  9  1  0  0  0  0
 18 25  1  0  0  0  0
 19 22  2  0  0  0  0
 19 17  1  0  0  0  0
 20 18  2  0  0  0  0
 21 15  1  0  0  0  0
 21 16  1  0  0  0  0
 22 13  1  0  0  0  0
 24 28  1  6  0  0  0
 24 19  1  0  0  0  0
 25  7  1  0  0  0  0
 27  2  1  0  0  0  0
 27 26  1  0  0  0  0
 29 31  1  0  0  0  0
 29 28  1  0  0  0  0
 31 30  1  0  0  0  0
M  END
>  <MODEL>
9

>  <REMARK>
 VINA RESULT:      -4.6      4.184      8.284
  Name = 
  4 active torsions:
  status: ('A' for Active; 'I' for Inactive)
    1  A    between atoms: C_2  and  O_26
    2  A    between atoms: S_5  and  C_6
    3  A    between atoms: S_5  and  C_27
    4  A    between atoms: C_6  and  C_30
                            x       y       z     vdW  Elec       q    Type
                         _______ _______ _______ _____ _____    ______ ____

>  <TORSDO>
F 4

$$$$
