=
 OpenBabel11032420143D

 36 41  0  0  1  0  0  0  0  0999 V2000
  187.5750  178.0160  144.6450 C   0  0  0  0  0  0  0  0  0  0  0  0
  186.7190  179.0400  141.3400 C   0  0  0  0  0  3  0  0  0  0  0  0
  186.2300  178.4510  142.6060 C   0  0  0  0  0  0  0  0  0  0  0  0
  184.4660  178.3070  144.3240 C   0  0  0  0  0  0  0  0  0  0  0  0
  188.2710  176.9310  142.4900 C   0  0  0  0  0  0  0  0  0  0  0  0
  183.0870  178.3390  144.5560 C   0  0  0  0  0  3  0  0  0  0  0  0
  188.9300  175.8070  142.9750 O   0  0  0  0  0  1  0  0  0  0  0  0
  188.6440  177.5080  141.3250 C   0  0  0  0  0  0  0  0  0  0  0  0
  182.7030  179.2390  142.3890 N   0  0  0  0  0  0  0  0  0  0  0  0
  187.1310  177.4790  143.3220 C   0  0  0  0  0  0  0  0  0  0  0  0
  184.0290  179.1840  142.1050 C   0  0  0  0  0  3  0  0  0  0  0  0
  180.4940  178.8450  143.8840 Cl  0  0  0  0  0  0  0  0  0  0  0  0
  184.9580  178.6670  143.0290 C   0  0  0  0  0  0  0  0  0  0  0  0
  186.6690  178.2090  145.5980 C   0  0  0  0  0  2  0  0  0  0  0  0
  187.8400  178.6140  140.7650 C   0  0  0  0  0  3  0  0  0  0  0  0
  185.2070  178.1060  145.4280 C   0  0  0  0  0  3  0  0  0  0  0  0
  182.2150  178.7900  143.5700 C   0  0  0  0  0  0  0  0  0  0  0  0
  192.0390  176.5920  139.5040 C   0  0  0  0  0  0  0  0  0  0  0  0
  190.5110  173.7820  137.4700 O   0  0  0  0  0  0  0  0  0  0  0  0
  193.0330  174.7350  137.3820 C   0  0  0  0  0  2  0  0  0  0  0  0
  193.7130  176.9880  136.8900 O   0  0  0  0  0  1  0  0  0  0  0  0
  191.2760  175.0730  137.3830 S   0  0  0  0  0  0  0  0  0  0  0  0
  193.4160  176.4450  139.1490 N   0  0  0  0  0  2  0  0  0  0  0  0
  190.8890  175.8230  136.1400 O   0  0  0  0  0  0  0  0  0  0  0  0
  191.4520  177.3920  140.8520 S   0  0  0  0  0  0  0  0  0  0  0  0
  189.8190  177.0540  140.5380 C   0  0  0  0  0  0  0  0  0  0  0  0
  193.8350  175.9630  137.8300 C   0  0  1  0  0  3  0  0  0  0  0  0
  189.7320  176.3040  139.3610 C   0  0  0  0  0  3  0  0  0  0  0  0
  190.9870  176.0500  138.7990 C   0  0  0  0  0  0  0  0  0  0  0  0
  188.9760  178.2380  144.8930 N   0  0  0  0  0  2  0  0  0  0  0  0
  192.4470  175.5200  146.9060 C   0  0  0  0  0  1  0  0  0  0  0  0
  190.6770  177.0850  147.8510 C   0  0  0  0  0  3  0  0  0  0  0  0
  189.6810  177.8650  147.2800 C   0  0  0  0  0  3  0  0  0  0  0  0
  190.7600  176.8120  145.6520 O   0  0  0  0  0  0  0  0  0  0  0  0
  189.7890  177.6480  145.9170 C   0  0  0  0  0  0  0  0  0  0  0  0
  191.3040  176.4630  146.7900 C   0  0  0  0  0  0  0  0  0  0  0  0
  1 30  1  0  0  0  0
  1 14  1  0  0  0  0
  2  3  1  0  0  0  0
  3 13  2  0  0  0  0
  3 10  1  0  0  0  0
  4  6  1  0  0  0  0
  4 16  2  0  0  0  0
  5  7  1  0  0  0  0
  5 10  1  0  0  0  0
  8  5  2  0  0  0  0
  9 17  1  0  0  0  0
 10  1  2  0  0  0  0
 11  9  2  0  0  0  0
 11 13  1  0  0  0  0
 13  4  1  0  0  0  0
 15  8  1  0  0  0  0
 15  2  2  0  0  0  0
 16 14  1  0  0  0  0
 17 12  1  0  0  0  0
 17  6  2  0  0  0  0
 18 25  1  0  0  0  0
 20 22  1  0  0  0  0
 20 27  1  0  0  0  0
 22 19  2  0  0  0  0
 22 29  1  0  0  0  0
 23 18  1  0  0  0  0
 24 22  2  0  0  0  0
 26 25  1  0  0  0  0
 26  8  1  0  0  0  0
 27 21  1  6  0  0  0
 27 23  1  0  0  0  0
 28 26  2  0  0  0  0
 29 28  1  0  0  0  0
 29 18  2  0  0  0  0
 30 35  1  0  0  0  0
 33 32  1  0  0  0  0
 34 35  1  0  0  0  0
 34 36  1  0  0  0  0
 35 33  2  0  0  0  0
 36 31  1  0  0  0  0
 36 32  2  0  0  0  0
M  END
>  <MODEL>
1

>  <REMARK>
 VINA RESULT:     -10.4      0.000      0.000
  Name = 
  3 active torsions:
  status: ('A' for Active; 'I' for Inactive)
    1  A    between atoms: C_1  and  N_30
    2  A    between atoms: C_18  and  C_29
    3  A    between atoms: N_30  and  C_32
                            x       y       z     vdW  Elec       q    Type
                         _______ _______ _______ _____ _____    ______ ____

>  <TORSDO>
F 3

$$$$
=
 OpenBabel11032420143D

 36 41  0  0  1  0  0  0  0  0999 V2000
  188.6070  177.7210  144.0470 C   0  0  0  0  0  0  0  0  0  0  0  0
  187.6200  178.9650  140.8560 C   0  0  0  0  0  3  0  0  0  0  0  0
  187.1720  178.3420  142.1210 C   0  0  0  0  0  0  0  0  0  0  0  0
  185.5080  178.2140  143.9380 C   0  0  0  0  0  0  0  0  0  0  0  0
  189.1020  176.7100  141.8020 C   0  0  0  0  0  0  0  0  0  0  0  0
  184.1510  178.3170  144.2580 C   0  0  0  0  0  3  0  0  0  0  0  0
  189.7170  175.5250  142.1910 O   0  0  0  0  0  1  0  0  0  0  0  0
  189.4410  177.3230  140.6460 C   0  0  0  0  0  0  0  0  0  0  0  0
  183.6950  179.3500  142.1650 N   0  0  0  0  0  0  0  0  0  0  0  0
  188.0510  177.2810  142.7310 C   0  0  0  0  0  0  0  0  0  0  0  0
  184.9950  179.2310  141.7950 C   0  0  0  0  0  3  0  0  0  0  0  0
  181.5590  179.0120  143.7760 Cl  0  0  0  0  0  0  0  0  0  0  0  0
  185.9440  178.6110  142.6320 C   0  0  0  0  0  0  0  0  0  0  0  0
  187.7730  177.9180  145.0640 C   0  0  0  0  0  2  0  0  0  0  0  0
  188.6750  178.5030  140.1920 C   0  0  0  0  0  3  0  0  0  0  0  0
  186.3010  177.9120  144.9820 C   0  0  0  0  0  3  0  0  0  0  0  0
  183.2520  178.8700  143.3520 C   0  0  0  0  0  0  0  0  0  0  0  0
  192.6370  176.3670  138.5140 C   0  0  0  0  0  0  0  0  0  0  0  0
  191.0180  173.3220  136.9400 O   0  0  0  0  0  0  0  0  0  0  0  0
  193.4620  174.3560  136.4600 C   0  0  0  0  0  2  0  0  0  0  0  0
  193.9700  176.5760  135.6900 O   0  0  0  0  0  1  0  0  0  0  0  0
  191.7030  174.6270  136.6450 S   0  0  0  0  0  0  0  0  0  0  0  0
  193.9680  176.2380  138.0070 N   0  0  0  0  0  2  0  0  0  0  0  0
  191.1360  175.2410  135.3970 O   0  0  0  0  0  0  0  0  0  0  0  0
  192.1750  177.2680  139.8470 S   0  0  0  0  0  0  0  0  0  0  0  0
  190.5340  176.8410  139.7650 C   0  0  0  0  0  0  0  0  0  0  0  0
  194.2510  175.6500  136.6960 C   0  0  1  0  0  3  0  0  0  0  0  0
  190.3460  175.9800  138.6790 C   0  0  0  0  0  3  0  0  0  0  0  0
  191.5370  175.7220  137.9930 C   0  0  0  0  0  0  0  0  0  0  0  0
  190.0310  177.8450  144.2170 N   0  0  0  0  0  2  0  0  0  0  0  0
  192.1200  176.7300  148.4460 C   0  0  0  0  0  1  0  0  0  0  0  0
  192.2780  175.7540  146.1010 C   0  0  0  0  0  3  0  0  0  0  0  0
  191.6840  176.0690  144.8880 C   0  0  0  0  0  3  0  0  0  0  0  0
  190.9360  177.4900  146.4190 O   0  0  0  0  0  0  0  0  0  0  0  0
  190.8660  177.1530  145.1570 C   0  0  0  0  0  0  0  0  0  0  0  0
  191.7720  176.6700  147.0010 C   0  0  0  0  0  0  0  0  0  0  0  0
  1 30  1  0  0  0  0
  1 14  1  0  0  0  0
  2  3  1  0  0  0  0
  3 13  2  0  0  0  0
  3 10  1  0  0  0  0
  4  6  1  0  0  0  0
  4 16  2  0  0  0  0
  5  7  1  0  0  0  0
  5 10  1  0  0  0  0
  8  5  2  0  0  0  0
  9 17  1  0  0  0  0
 10  1  2  0  0  0  0
 11  9  2  0  0  0  0
 11 13  1  0  0  0  0
 13  4  1  0  0  0  0
 15  8  1  0  0  0  0
 15  2  2  0  0  0  0
 16 14  1  0  0  0  0
 17 12  1  0  0  0  0
 17  6  2  0  0  0  0
 18 25  1  0  0  0  0
 20 22  1  0  0  0  0
 20 27  1  0  0  0  0
 22 19  2  0  0  0  0
 22 29  1  0  0  0  0
 23 18  1  0  0  0  0
 24 22  2  0  0  0  0
 26 25  1  0  0  0  0
 26  8  1  0  0  0  0
 27 21  1  6  0  0  0
 27 23  1  0  0  0  0
 28 26  2  0  0  0  0
 29 18  2  0  0  0  0
 29 28  1  0  0  0  0
 30 35  1  0  0  0  0
 32 36  2  0  0  0  0
 33 35  2  0  0  0  0
 33 32  1  0  0  0  0
 34 36  1  0  0  0  0
 35 34  1  0  0  0  0
 36 31  1  0  0  0  0
M  END
>  <MODEL>
2

>  <REMARK>
 VINA RESULT:      -9.5      1.071      1.342
  Name = 
  3 active torsions:
  status: ('A' for Active; 'I' for Inactive)
    1  A    between atoms: C_1  and  N_30
    2  A    between atoms: C_18  and  C_29
    3  A    between atoms: N_30  and  C_32
                            x       y       z     vdW  Elec       q    Type
                         _______ _______ _______ _____ _____    ______ ____

>  <TORSDO>
F 3

$$$$
=
 OpenBabel11032420143D

 36 41  0  0  1  0  0  0  0  0999 V2000
  188.0490  177.6490  145.0940 C   0  0  0  0  0  0  0  0  0  0  0  0
  190.7170  175.7080  143.7450 C   0  0  0  0  0  3  0  0  0  0  0  0
  190.3070  176.6640  144.7980 C   0  0  0  0  0  0  0  0  0  0  0  0
  190.3970  177.3700  147.1590 C   0  0  0  0  0  0  0  0  0  0  0  0
  189.2450  178.0160  142.9170 C   0  0  0  0  0  0  0  0  0  0  0  0
  191.2010  177.4510  148.3010 C   0  0  0  0  0  3  0  0  0  0  0  0
  188.6660  179.2140  142.5110 O   0  0  0  0  0  1  0  0  0  0  0  0
  189.6690  177.1060  142.0120 C   0  0  0  0  0  0  0  0  0  0  0  0
  192.7810  175.9560  147.3430 N   0  0  0  0  0  0  0  0  0  0  0  0
  189.3710  177.7780  144.4080 C   0  0  0  0  0  0  0  0  0  0  0  0
  192.0560  175.8820  146.1990 C   0  0  0  0  0  3  0  0  0  0  0  0
  193.3850  176.8470  149.8150 Cl  0  0  0  0  0  0  0  0  0  0  0  0
  190.8690  176.6240  146.0320 C   0  0  0  0  0  0  0  0  0  0  0  0
  187.9950  177.7790  146.4160 C   0  0  0  0  0  2  0  0  0  0  0  0
  190.4050  175.9080  142.4680 C   0  0  0  0  0  3  0  0  0  0  0  0
  189.1580  177.8700  147.3190 C   0  0  0  0  0  3  0  0  0  0  0  0
  192.4020  176.7530  148.3700 C   0  0  0  0  0  0  0  0  0  0  0  0
  188.7450  177.7900  138.2230 C   0  0  0  0  0  0  0  0  0  0  0  0
  191.9980  176.3780  136.8860 O   0  0  0  0  0  0  0  0  0  0  0  0
  189.8780  177.3040  135.4990 C   0  0  0  0  0  2  0  0  0  0  0  0
  187.6150  176.4990  135.6060 O   0  0  0  0  0  1  0  0  0  0  0  0
  190.5010  176.2650  136.8160 S   0  0  0  0  0  0  0  0  0  0  0  0
  188.1660  178.2870  137.0140 N   0  0  0  0  0  2  0  0  0  0  0  0
  190.0980  174.8360  136.5880 O   0  0  0  0  0  0  0  0  0  0  0  0
  188.3260  178.2530  139.7760 S   0  0  0  0  0  0  0  0  0  0  0  0
  189.4710  177.2670  140.5490 C   0  0  0  0  0  0  0  0  0  0  0  0
  188.4000  177.6480  135.7160 C   0  0  1  0  0  3  0  0  0  0  0  0
  190.1920  176.5660  139.5770 C   0  0  0  0  0  3  0  0  0  0  0  0
  189.7740  176.8760  138.2790 C   0  0  0  0  0  0  0  0  0  0  0  0
  186.8520  177.4690  144.3150 N   0  0  0  0  0  2  0  0  0  0  0  0
  182.3510  179.0030  143.3760 C   0  0  0  0  0  1  0  0  0  0  0  0
  183.8040  179.0030  145.4660 C   0  0  0  0  0  3  0  0  0  0  0  0
  185.0910  178.5660  145.7400 C   0  0  0  0  0  3  0  0  0  0  0  0
  184.6560  178.1500  143.6050 O   0  0  0  0  0  0  0  0  0  0  0  0
  185.5600  178.0500  144.5440 C   0  0  0  0  0  0  0  0  0  0  0  0
  183.6000  178.7160  144.1310 C   0  0  0  0  0  0  0  0  0  0  0  0
  1 14  1  0  0  0  0
  2  3  1  0  0  0  0
  3 13  2  0  0  0  0
  4 16  2  0  0  0  0
  4  6  1  0  0  0  0
  5 10  1  0  0  0  0
  6 17  2  0  0  0  0
  7  5  1  0  0  0  0
  8 15  1  0  0  0  0
  8  5  2  0  0  0  0
  9 17  1  0  0  0  0
 10  3  1  0  0  0  0
 10  1  2  0  0  0  0
 11  9  2  0  0  0  0
 13 11  1  0  0  0  0
 13  4  1  0  0  0  0
 14 16  1  0  0  0  0
 15  2  2  0  0  0  0
 17 12  1  0  0  0  0
 18 29  2  0  0  0  0
 18 25  1  0  0  0  0
 20 27  1  0  0  0  0
 20 22  1  0  0  0  0
 22 19  2  0  0  0  0
 22 29  1  0  0  0  0
 23 18  1  0  0  0  0
 24 22  2  0  0  0  0
 25 26  1  0  0  0  0
 26  8  1  0  0  0  0
 27 21  1  1  0  0  0
 27 23  1  0  0  0  0
 28 26  2  0  0  0  0
 29 28  1  0  0  0  0
 30 35  1  0  0  0  0
 30  1  1  0  0  0  0
 31 36  1  0  0  0  0
 32 33  1  0  0  0  0
 34 36  1  0  0  0  0
 34 35  1  0  0  0  0
 35 33  2  0  0  0  0
 36 32  2  0  0  0  0
M  END
>  <MODEL>
3

>  <REMARK>
 VINA RESULT:      -9.3      3.380      6.186
  Name = 
  3 active torsions:
  status: ('A' for Active; 'I' for Inactive)
    1  A    between atoms: C_1  and  N_30
    2  A    between atoms: C_18  and  C_29
    3  A    between atoms: N_30  and  C_32
                            x       y       z     vdW  Elec       q    Type
                         _______ _______ _______ _____ _____    ______ ____

>  <TORSDO>
F 3

$$$$
=
 OpenBabel11032420143D

 36 41  0  0  1  0  0  0  0  0999 V2000
  189.1420  178.0430  142.7700 C   0  0  0  0  0  0  0  0  0  0  0  0
  187.5260  178.7420  145.8690 C   0  0  0  0  0  3  0  0  0  0  0  0
  188.5380  177.9170  145.1730 C   0  0  0  0  0  0  0  0  0  0  0  0
  190.7640  176.8560  145.1810 C   0  0  0  0  0  0  0  0  0  0  0  0
  186.7590  177.5460  143.3870 C   0  0  0  0  0  0  0  0  0  0  0  0
  191.7290  176.2210  145.9710 C   0  0  0  0  0  3  0  0  0  0  0  0
  186.3510  176.8370  142.2630 O   0  0  0  0  0  1  0  0  0  0  0  0
  185.8840  178.3000  144.0900 C   0  0  0  0  0  0  0  0  0  0  0  0
  190.6500  176.9640  147.9550 N   0  0  0  0  0  0  0  0  0  0  0  0
  188.2180  177.4410  143.7800 C   0  0  1  0  0  3  0  0  0  0  0  0
  189.6680  177.5570  147.2290 C   0  0  0  0  0  3  0  0  0  0  0  0
  192.8730  175.4880  148.3340 Cl  0  0  0  0  0  0  0  0  0  0  0  0
  189.6480  177.4820  145.8220 C   0  0  0  0  0  0  0  0  0  0  0  0
  190.4330  177.7280  142.8120 C   0  0  0  0  0  3  0  0  0  0  0  0
  186.3130  178.9290  145.3570 C   0  0  0  0  0  3  0  0  0  0  0  0
  191.0970  176.9610  143.8820 C   0  0  0  0  0  3  0  0  0  0  0  0
  191.6460  176.2680  147.3590 C   0  0  0  0  0  0  0  0  0  0  0  0
  182.0120  178.8250  143.4530 C   0  0  0  0  0  0  0  0  0  0  0  0
  182.4310  179.5010  139.7470 O   0  0  0  0  0  0  0  0  0  0  0  0
  180.1470  179.3250  141.1700 C   0  0  0  0  0  2  0  0  0  0  0  0
  179.3850  177.4440  142.4590 O   0  0  0  0  0  1  0  0  0  0  0  0
  181.7410  178.6260  140.7560 S   0  0  0  0  0  0  0  0  0  0  0  0
  180.6120  179.0790  143.6020 N   0  0  0  0  0  2  0  0  0  0  0  0
  181.5740  177.2360  140.2100 O   0  0  0  0  0  0  0  0  0  0  0  0
  183.1460  178.8160  144.6840 S   0  0  0  0  0  0  0  0  0  0  0  0
  184.4730  178.5000  143.6740 C   0  0  0  0  0  0  0  0  0  0  0  0
  179.6520  178.8130  142.5280 C   0  0  1  0  0  3  0  0  0  0  0  0
  184.0210  178.4000  142.3540 C   0  0  0  0  0  3  0  0  0  0  0  0
  182.6400  178.5910  142.2500 C   0  0  0  0  0  0  0  0  0  0  0  0
  188.6130  178.8820  141.7270 N   0  0  0  0  0  2  0  0  0  0  0  0
  186.2870  178.0860  137.5500 C   0  0  0  0  0  1  0  0  0  0  0  0
  188.7320  177.9680  138.2450 C   0  0  0  0  0  3  0  0  0  0  0  0
  189.4030  178.1940  139.4380 C   0  0  0  0  0  3  0  0  0  0  0  0
  187.2390  178.5440  139.7800 O   0  0  0  0  0  0  0  0  0  0  0  0
  188.4190  178.5460  140.3450 C   0  0  0  0  0  0  0  0  0  0  0  0
  187.4010  178.2020  138.5270 C   0  0  0  0  0  0  0  0  0  0  0  0
  1 14  2  0  0  0  0
  3 13  2  0  0  0  0
  3  2  1  0  0  0  0
  4 13  1  0  0  0  0
  4  6  1  0  0  0  0
  5 10  1  0  0  0  0
  5  8  2  0  0  0  0
  6 17  2  0  0  0  0
  7  5  1  0  0  0  0
  8 15  1  0  0  0  0
 10  1  1  6  0  0  0
 10  3  1  0  0  0  0
 11  9  2  0  0  0  0
 13 11  1  0  0  0  0
 14 16  1  0  0  0  0
 15  2  2  0  0  0  0
 16  4  2  0  0  0  0
 17  9  1  0  0  0  0
 17 12  1  0  0  0  0
 18 23  1  0  0  0  0
 18 25  1  0  0  0  0
 19 22  2  0  0  0  0
 20 27  1  0  0  0  0
 22 20  1  0  0  0  0
 22 29  1  0  0  0  0
 24 22  2  0  0  0  0
 26  8  1  0  0  0  0
 26 25  1  0  0  0  0
 27 21  1  6  0  0  0
 27 23  1  0  0  0  0
 28 26  2  0  0  0  0
 29 28  1  0  0  0  0
 29 18  2  0  0  0  0
 30  1  1  0  0  0  0
 31 36  1  0  0  0  0
 32 36  2  0  0  0  0
 32 33  1  0  0  0  0
 33 35  2  0  0  0  0
 34 35  1  0  0  0  0
 35 30  1  0  0  0  0
 36 34  1  0  0  0  0
M  END
>  <MODEL>
4

>  <REMARK>
 VINA RESULT:      -9.0      4.475      8.815
  Name = 
  3 active torsions:
  status: ('A' for Active; 'I' for Inactive)
    1  A    between atoms: C_1  and  N_30
    2  A    between atoms: C_18  and  C_29
    3  A    between atoms: N_30  and  C_32
                            x       y       z     vdW  Elec       q    Type
                         _______ _______ _______ _____ _____    ______ ____

>  <TORSDO>
F 3

$$$$
=
 OpenBabel11032420143D

 36 41  0  0  1  0  0  0  0  0999 V2000
  187.4370  177.5130  144.2240 C   0  0  0  0  0  0  0  0  0  0  0  0
  190.4490  175.9360  143.1530 C   0  0  0  0  0  3  0  0  0  0  0  0
  189.8230  176.8370  144.1450 C   0  0  0  0  0  0  0  0  0  0  0  0
  189.6070  177.5690  146.4910 C   0  0  0  0  0  0  0  0  0  0  0  0
  188.7640  178.0190  142.1530 C   0  0  0  0  0  0  0  0  0  0  0  0
  190.2870  177.7660  147.6970 C   0  0  0  0  0  3  0  0  0  0  0  0
  188.0690  179.1250  141.6730 O   0  0  0  0  0  1  0  0  0  0  0  0
  189.3840  177.1660  141.3070 C   0  0  0  0  0  0  0  0  0  0  0  0
  192.1320  176.4880  146.9120 N   0  0  0  0  0  0  0  0  0  0  0  0
  188.7850  177.8120  143.6530 C   0  0  0  0  0  0  0  0  0  0  0  0
  191.5270  176.3080  145.7100 C   0  0  0  0  0  3  0  0  0  0  0  0
  192.3890  177.4720  149.4090 Cl  0  0  0  0  0  0  0  0  0  0  0  0
  190.2730  176.8830  145.4250 C   0  0  0  0  0  0  0  0  0  0  0  0
  187.2480  177.6450  145.5330 C   0  0  0  0  0  2  0  0  0  0  0  0
  190.2290  176.0820  141.8500 C   0  0  0  0  0  3  0  0  0  0  0  0
  188.3040  177.8990  146.5320 C   0  0  0  0  0  3  0  0  0  0  0  0
  191.5590  177.2350  147.8850 C   0  0  0  0  0  0  0  0  0  0  0  0
  188.7740  177.7790  137.4430 C   0  0  0  0  0  0  0  0  0  0  0  0
  191.9790  176.0580  136.3800 O   0  0  0  0  0  0  0  0  0  0  0  0
  190.0410  177.1000  134.8210 C   0  0  0  0  0  2  0  0  0  0  0  0
  187.7170  176.4860  134.7960 O   0  0  0  0  0  1  0  0  0  0  0  0
  190.4860  176.0640  136.2110 S   0  0  0  0  0  0  0  0  0  0  0  0
  188.3200  178.2760  136.1800 N   0  0  0  0  0  2  0  0  0  0  0  0
  189.9810  174.6650  136.0010 O   0  0  0  0  0  0  0  0  0  0  0  0
  188.2920  178.3330  138.9470 S   0  0  0  0  0  0  0  0  0  0  0  0
  189.2980  177.2880  139.8290 C   0  0  0  0  0  0  0  0  0  0  0  0
  188.5860  177.5710  134.9230 C   0  0  1  0  0  3  0  0  0  0  0  0
  190.0210  176.4940  138.9330 C   0  0  0  0  0  3  0  0  0  0  0  0
  189.7170  176.7870  137.6000 C   0  0  0  0  0  0  0  0  0  0  0  0
  186.3490  177.1670  143.3460 N   0  0  0  0  0  2  0  0  0  0  0  0
  182.3870  178.8280  141.1020 C   0  0  0  0  0  1  0  0  0  0  0  0
  183.3250  179.1210  143.4490 C   0  0  0  0  0  3  0  0  0  0  0  0
  184.4570  178.6490  144.0970 C   0  0  0  0  0  3  0  0  0  0  0  0
  184.4640  177.8640  142.0210 O   0  0  0  0  0  0  0  0  0  0  0  0
  185.1170  177.8780  143.1550 C   0  0  0  0  0  0  0  0  0  0  0  0
  183.3920  178.5980  142.1730 C   0  0  0  0  0  0  0  0  0  0  0  0
  1 14  1  0  0  0  0
  2  3  1  0  0  0  0
  3 13  2  0  0  0  0
  4 16  2  0  0  0  0
  4  6  1  0  0  0  0
  5 10  1  0  0  0  0
  6 17  2  0  0  0  0
  7  5  1  0  0  0  0
  8 15  1  0  0  0  0
  8  5  2  0  0  0  0
  9 17  1  0  0  0  0
 10  3  1  0  0  0  0
 10  1  2  0  0  0  0
 11  9  2  0  0  0  0
 13 11  1  0  0  0  0
 13  4  1  0  0  0  0
 14 16  1  0  0  0  0
 15  2  2  0  0  0  0
 17 12  1  0  0  0  0
 18 29  2  0  0  0  0
 18 25  1  0  0  0  0
 20 27  1  0  0  0  0
 20 22  1  0  0  0  0
 22 19  2  0  0  0  0
 22 29  1  0  0  0  0
 23 18  1  0  0  0  0
 24 22  2  0  0  0  0
 25 26  1  0  0  0  0
 26  8  1  0  0  0  0
 27 21  1  1  0  0  0
 27 23  1  0  0  0  0
 28 26  2  0  0  0  0
 29 28  1  0  0  0  0
 30  1  1  0  0  0  0
 31 36  1  0  0  0  0
 32 33  1  0  0  0  0
 34 36  1  0  0  0  0
 34 35  1  0  0  0  0
 35 30  1  0  0  0  0
 35 33  2  0  0  0  0
 36 32  2  0  0  0  0
M  END
>  <MODEL>
5

>  <REMARK>
 VINA RESULT:      -8.9      3.309      6.073
  Name = 
  3 active torsions:
  status: ('A' for Active; 'I' for Inactive)
    1  A    between atoms: C_1  and  N_30
    2  A    between atoms: C_18  and  C_29
    3  A    between atoms: N_30  and  C_32
                            x       y       z     vdW  Elec       q    Type
                         _______ _______ _______ _____ _____    ______ ____

>  <TORSDO>
F 3

$$$$
=
 OpenBabel11032420143D

 36 41  0  0  1  0  0  0  0  0999 V2000
  188.1360  177.5350  145.1980 C   0  0  0  0  0  0  0  0  0  0  0  0
  190.8420  175.5490  144.0010 C   0  0  0  0  0  3  0  0  0  0  0  0
  190.4060  176.5540  144.9950 C   0  0  0  0  0  0  0  0  0  0  0  0
  190.4460  177.3800  147.3190 C   0  0  0  0  0  0  0  0  0  0  0  0
  189.3720  177.8000  143.0280 C   0  0  0  0  0  0  0  0  0  0  0  0
  191.2270  177.5250  148.4700 C   0  0  0  0  0  3  0  0  0  0  0  0
  188.7930  178.9710  142.5510 O   0  0  0  0  0  1  0  0  0  0  0  0
  189.8190  176.8480  142.1790 C   0  0  0  0  0  0  0  0  0  0  0  0
  192.8350  175.9940  147.6200 N   0  0  0  0  0  0  0  0  0  0  0  0
  189.4700  177.6400  144.5310 C   0  0  0  0  0  0  0  0  0  0  0  0
  192.1320  175.8570  146.4670 C   0  0  0  0  0  3  0  0  0  0  0  0
  193.3860  177.0140  150.0540 Cl  0  0  0  0  0  0  0  0  0  0  0  0
  190.9450  176.5810  146.2400 C   0  0  0  0  0  0  0  0  0  0  0  0
  188.0560  177.7320  146.5110 C   0  0  0  0  0  2  0  0  0  0  0  0
  190.5540  175.6810  142.7090 C   0  0  0  0  0  3  0  0  0  0  0  0
  189.2010  177.8780  147.4290 C   0  0  0  0  0  3  0  0  0  0  0  0
  192.4310  176.8400  148.5970 C   0  0  0  0  0  0  0  0  0  0  0  0
  189.8470  177.0570  138.2250 C   0  0  0  0  0  0  0  0  0  0  0  0
  186.0890  176.6800  137.9020 O   0  0  0  0  0  0  0  0  0  0  0  0
  187.9040  177.1060  135.9530 C   0  0  0  0  0  2  0  0  0  0  0  0
  189.4290  178.9560  135.7730 O   0  0  0  0  0  1  0  0  0  0  0  0
  187.2600  177.5590  137.5600 S   0  0  0  0  0  0  0  0  0  0  0  0
  190.2250  177.0330  136.8460 N   0  0  0  0  0  2  0  0  0  0  0  0
  186.8450  179.0030  137.5670 O   0  0  0  0  0  0  0  0  0  0  0  0
  190.8560  176.7530  139.5260 S   0  0  0  0  0  0  0  0  0  0  0  0
  189.6490  176.9340  140.7060 C   0  0  0  0  0  0  0  0  0  0  0  0
  189.3590  177.5620  135.7890 C   0  0  1  0  0  3  0  0  0  0  0  0
  188.4390  177.2360  140.0720 C   0  0  0  0  0  3  0  0  0  0  0  0
  188.5690  177.2960  138.6810 C   0  0  0  0  0  0  0  0  0  0  0  0
  186.9560  177.3070  144.4060 N   0  0  0  0  0  2  0  0  0  0  0  0
  182.6020  179.0030  143.1190 C   0  0  0  0  0  1  0  0  0  0  0  0
  183.9080  179.0030  145.3030 C   0  0  0  0  0  3  0  0  0  0  0  0
  185.1530  178.5200  145.6770 C   0  0  0  0  0  3  0  0  0  0  0  0
  184.8450  178.0600  143.5280 O   0  0  0  0  0  0  0  0  0  0  0  0
  185.6790  177.9500  144.5310 C   0  0  0  0  0  0  0  0  0  0  0  0
  183.7820  178.6850  143.9660 C   0  0  0  0  0  0  0  0  0  0  0  0
  1 14  1  0  0  0  0
  2  3  1  0  0  0  0
  3 13  2  0  0  0  0
  4 16  2  0  0  0  0
  4  6  1  0  0  0  0
  5 10  1  0  0  0  0
  6 17  2  0  0  0  0
  7  5  1  0  0  0  0
  8 15  1  0  0  0  0
  8  5  2  0  0  0  0
  9 17  1  0  0  0  0
 10  3  1  0  0  0  0
 10  1  2  0  0  0  0
 11  9  2  0  0  0  0
 13 11  1  0  0  0  0
 13  4  1  0  0  0  0
 14 16  1  0  0  0  0
 15  2  2  0  0  0  0
 17 12  1  0  0  0  0
 18 29  2  0  0  0  0
 18 25  1  0  0  0  0
 20 22  1  0  0  0  0
 22 24  2  0  0  0  0
 22 19  2  0  0  0  0
 22 29  1  0  0  0  0
 23 18  1  0  0  0  0
 25 26  1  0  0  0  0
 26  8  1  0  0  0  0
 27 21  1  1  0  0  0
 27 20  1  0  0  0  0
 27 23  1  0  0  0  0
 28 26  2  0  0  0  0
 29 28  1  0  0  0  0
 30 35  1  0  0  0  0
 30  1  1  0  0  0  0
 31 36  1  0  0  0  0
 32 33  1  0  0  0  0
 34 36  1  0  0  0  0
 34 35  1  0  0  0  0
 35 33  2  0  0  0  0
 36 32  2  0  0  0  0
M  END
>  <MODEL>
6

>  <REMARK>
 VINA RESULT:      -8.7      3.557      6.282
  Name = 
  3 active torsions:
  status: ('A' for Active; 'I' for Inactive)
    1  A    between atoms: C_1  and  N_30
    2  A    between atoms: C_18  and  C_29
    3  A    between atoms: N_30  and  C_32
                            x       y       z     vdW  Elec       q    Type
                         _______ _______ _______ _____ _____    ______ ____

>  <TORSDO>
F 3

$$$$
=
 OpenBabel11032420143D

 36 41  0  0  1  0  0  0  0  0999 V2000
  185.8140  178.2090  142.9980 C   0  0  0  0  0  0  0  0  0  0  0  0
  188.6590  176.1430  143.5820 C   0  0  0  0  0  3  0  0  0  0  0  0
  187.8350  177.2650  144.0840 C   0  0  0  0  0  0  0  0  0  0  0  0
  186.7560  178.4050  145.9860 C   0  0  0  0  0  0  0  0  0  0  0  0
  187.9740  178.2020  141.7190 C   0  0  0  0  0  0  0  0  0  0  0  0
  186.8690  178.7270  147.3420 C   0  0  0  0  0  3  0  0  0  0  0  0
  187.7650  179.2800  140.8660 O   0  0  0  0  0  1  0  0  0  0  0  0
  188.7380  177.1530  141.3390 C   0  0  0  0  0  0  0  0  0  0  0  0
  188.6120  177.1340  147.6170 N   0  0  0  0  0  0  0  0  0  0  0  0
  187.3060  178.2530  143.0770 C   0  0  0  0  0  0  0  0  0  0  0  0
  188.5680  176.8210  146.2970 C   0  0  0  0  0  3  0  0  0  0  0  0
  187.9300  178.4940  149.8430 Cl  0  0  0  0  0  0  0  0  0  0  0  0
  187.6860  177.4770  145.4160 C   0  0  0  0  0  0  0  0  0  0  0  0
  185.1020  178.5830  144.0580 C   0  0  0  0  0  2  0  0  0  0  0  0
  189.0560  176.0880  142.3140 C   0  0  0  0  0  3  0  0  0  0  0  0
  185.6460  178.8830  145.3950 C   0  0  0  0  0  3  0  0  0  0  0  0
  187.8170  178.0960  148.1420 C   0  0  0  0  0  0  0  0  0  0  0  0
  189.8570  176.9090  137.5490 C   0  0  0  0  0  0  0  0  0  0  0  0
  193.5560  176.7520  138.3620 O   0  0  0  0  0  0  0  0  0  0  0  0
  192.3610  176.5650  135.9510 C   0  0  0  0  0  2  0  0  0  0  0  0
  190.7200  174.9450  135.2700 O   0  0  0  0  0  1  0  0  0  0  0  0
  192.4310  176.0430  137.6610 S   0  0  0  0  0  0  0  0  0  0  0  0
  189.9120  176.9720  136.1210 N   0  0  0  0  0  2  0  0  0  0  0  0
  192.6230  174.5560  137.7440 O   0  0  0  0  0  0  0  0  0  0  0  0
  188.5590  177.3650  138.5030 S   0  0  0  0  0  0  0  0  0  0  0  0
  189.3250  177.0290  139.9800 C   0  0  0  0  0  0  0  0  0  0  0  0
  190.9720  176.3160  135.3510 C   0  0  1  0  0  3  0  0  0  0  0  0
  190.6150  176.5540  139.7220 C   0  0  0  0  0  3  0  0  0  0  0  0
  190.8960  176.4990  138.3540 C   0  0  0  0  0  0  0  0  0  0  0  0
  185.1720  177.8440  141.7620 N   0  0  0  0  0  2  0  0  0  0  0  0
  182.4590  180.4650  138.7180 C   0  0  0  0  0  1  0  0  0  0  0  0
  181.9220  179.0040  140.7320 C   0  0  0  0  0  3  0  0  0  0  0  0
  182.6930  178.2530  141.6070 C   0  0  0  0  0  3  0  0  0  0  0  0
  184.0470  179.2120  140.1330 O   0  0  0  0  0  0  0  0  0  0  0  0
  183.9980  178.4270  141.1780 C   0  0  0  0  0  0  0  0  0  0  0  0
  182.8200  179.5690  139.8490 C   0  0  0  0  0  0  0  0  0  0  0  0
  1 10  2  0  0  0  0
  1 14  1  0  0  0  0
  2  3  1  0  0  0  0
  3 13  2  0  0  0  0
  4  6  1  0  0  0  0
  5 10  1  0  0  0  0
  6 17  2  0  0  0  0
  7  5  1  0  0  0  0
  8  5  2  0  0  0  0
  8 15  1  0  0  0  0
  9 17  1  0  0  0  0
 10  3  1  0  0  0  0
 11  9  2  0  0  0  0
 13  4  1  0  0  0  0
 13 11  1  0  0  0  0
 14 16  1  0  0  0  0
 15  2  2  0  0  0  0
 16  4  2  0  0  0  0
 17 12  1  0  0  0  0
 18 29  2  0  0  0  0
 18 25  1  0  0  0  0
 20 22  1  0  0  0  0
 22 24  2  0  0  0  0
 22 29  1  0  0  0  0
 22 19  2  0  0  0  0
 23 18  1  0  0  0  0
 25 26  1  0  0  0  0
 26  8  1  0  0  0  0
 27 21  1  1  0  0  0
 27 20  1  0  0  0  0
 27 23  1  0  0  0  0
 28 26  2  0  0  0  0
 29 28  1  0  0  0  0
 30  1  1  0  0  0  0
 31 36  1  0  0  0  0
 32 33  1  0  0  0  0
 34 35  1  0  0  0  0
 35 33  2  0  0  0  0
 35 30  1  0  0  0  0
 36 34  1  0  0  0  0
 36 32  2  0  0  0  0
M  END
>  <MODEL>
7

>  <REMARK>
 VINA RESULT:      -8.5      2.841      5.704
  Name = 
  3 active torsions:
  status: ('A' for Active; 'I' for Inactive)
    1  A    between atoms: C_1  and  N_30
    2  A    between atoms: C_18  and  C_29
    3  A    between atoms: N_30  and  C_32
                            x       y       z     vdW  Elec       q    Type
                         _______ _______ _______ _____ _____    ______ ____

>  <TORSDO>
F 3

$$$$
=
 OpenBabel11032420143D

 36 41  0  0  1  0  0  0  0  0999 V2000
  187.9720  177.9460  144.3480 C   0  0  0  0  0  0  0  0  0  0  0  0
  186.6640  178.9880  141.2000 C   0  0  0  0  0  3  0  0  0  0  0  0
  186.3560  178.3920  142.5190 C   0  0  0  0  0  0  0  0  0  0  0  0
  184.8480  178.2370  144.4650 C   0  0  0  0  0  0  0  0  0  0  0  0
  188.3610  176.8730  142.1110 C   0  0  0  0  0  0  0  0  0  0  0  0
  183.5150  178.2680  144.8870 C   0  0  0  0  0  3  0  0  0  0  0  0
  189.0800  175.7470  142.4940 O   0  0  0  0  0  1  0  0  0  0  0  0
  188.5680  177.4560  140.9090 C   0  0  0  0  0  0  0  0  0  0  0  0
  182.8330  179.1790  142.7990 N   0  0  0  0  0  0  0  0  0  0  0  0
  187.3480  177.4160  143.0970 C   0  0  0  0  0  0  0  0  0  0  0  0
  184.1070  179.1270  142.3320 C   0  0  0  0  0  3  0  0  0  0  0  0
  180.8540  178.7760  144.5850 Cl  0  0  0  0  0  0  0  0  0  0  0  0
  185.1560  178.6040  143.1150 C   0  0  0  0  0  0  0  0  0  0  0  0
  187.2070  178.1330  145.4190 C   0  0  0  0  0  2  0  0  0  0  0  0
  187.6940  178.5650  140.4730 C   0  0  0  0  0  3  0  0  0  0  0  0
  185.7360  178.0310  145.4540 C   0  0  0  0  0  3  0  0  0  0  0  0
  182.5150  178.7230  144.0340 C   0  0  0  0  0  0  0  0  0  0  0  0
  191.0300  175.9940  138.1750 C   0  0  0  0  0  0  0  0  0  0  0  0
  193.9020  178.2720  139.1410 O   0  0  0  0  0  0  0  0  0  0  0  0
  193.8730  176.3000  137.3010 C   0  0  0  0  0  2  0  0  0  0  0  0
  193.3720  173.9780  137.6740 O   0  0  0  0  0  1  0  0  0  0  0  0
  193.4910  176.8370  138.9640 S   0  0  0  0  0  0  0  0  0  0  0  0
  191.5890  175.3520  137.0250 N   0  0  0  0  0  2  0  0  0  0  0  0
  194.1950  175.9680  139.9670 O   0  0  0  0  0  0  0  0  0  0  0  0
  189.4020  176.0870  138.5530 S   0  0  0  0  0  0  0  0  0  0  0  0
  189.6210  177.0070  139.9630 C   0  0  0  0  0  0  0  0  0  0  0  0
  193.0250  175.0870  136.9000 C   0  0  1  0  0  3  0  0  0  0  0  0
  190.9880  177.2440  140.1390 C   0  0  0  0  0  3  0  0  0  0  0  0
  191.7620  176.6730  139.1240 C   0  0  0  0  0  0  0  0  0  0  0  0
  189.3940  178.1670  144.4000 N   0  0  0  0  0  2  0  0  0  0  0  0
  192.0120  176.1360  147.9370 C   0  0  0  0  0  1  0  0  0  0  0  0
  192.0230  175.9190  145.4020 C   0  0  0  0  0  3  0  0  0  0  0  0
  191.2780  176.4970  144.3850 C   0  0  0  0  0  3  0  0  0  0  0  0
  190.5530  177.3000  146.3230 O   0  0  0  0  0  0  0  0  0  0  0  0
  190.3870  177.3420  145.0260 C   0  0  0  0  0  0  0  0  0  0  0  0
  191.5240  176.4590  146.5700 C   0  0  0  0  0  0  0  0  0  0  0  0
  1 30  1  0  0  0  0
  1 14  1  0  0  0  0
  2  3  1  0  0  0  0
  3 10  1  0  0  0  0
  3 13  2  0  0  0  0
  4  6  1  0  0  0  0
  4 16  2  0  0  0  0
  5  7  1  0  0  0  0
  5 10  1  0  0  0  0
  8  5  2  0  0  0  0
  9 17  1  0  0  0  0
 10  1  2  0  0  0  0
 11  9  2  0  0  0  0
 11 13  1  0  0  0  0
 13  4  1  0  0  0  0
 14 16  1  0  0  0  0
 15  8  1  0  0  0  0
 15  2  2  0  0  0  0
 17 12  1  0  0  0  0
 17  6  2  0  0  0  0
 18 25  1  0  0  0  0
 18 29  2  0  0  0  0
 20 22  1  0  0  0  0
 22 29  1  0  0  0  0
 22 19  2  0  0  0  0
 22 24  2  0  0  0  0
 23 18  1  0  0  0  0
 25 26  1  0  0  0  0
 26 28  2  0  0  0  0
 26  8  1  0  0  0  0
 27 23  1  0  0  0  0
 27 20  1  0  0  0  0
 27 21  1  1  0  0  0
 29 28  1  0  0  0  0
 30 35  1  0  0  0  0
 32 36  2  0  0  0  0
 33 35  2  0  0  0  0
 33 32  1  0  0  0  0
 34 36  1  0  0  0  0
 35 34  1  0  0  0  0
 36 31  1  0  0  0  0
M  END
>  <MODEL>
8

>  <REMARK>
 VINA RESULT:      -8.1      1.381      1.995
  Name = 
  3 active torsions:
  status: ('A' for Active; 'I' for Inactive)
    1  A    between atoms: C_1  and  N_30
    2  A    between atoms: C_18  and  C_29
    3  A    between atoms: N_30  and  C_32
                            x       y       z     vdW  Elec       q    Type
                         _______ _______ _______ _____ _____    ______ ____

>  <TORSDO>
F 3

$$$$
=
 OpenBabel11032420143D

 36 41  0  0  1  0  0  0  0  0999 V2000
  189.2970  177.6360  138.8590 C   0  0  0  0  0  0  0  0  0  0  0  0
  192.3320  177.6190  140.7280 C   0  0  0  0  0  3  0  0  0  0  0  0
  191.5810  177.0160  139.6060 C   0  0  0  0  0  0  0  0  0  0  0  0
  191.5730  176.1370  137.3010 C   0  0  0  0  0  0  0  0  0  0  0  0
  189.6210  176.8590  141.2250 C   0  0  0  0  0  0  0  0  0  0  0  0
  192.3090  175.4370  136.3390 C   0  0  0  0  0  3  0  0  0  0  0  0
  188.3560  176.3470  141.4970 O   0  0  0  0  0  1  0  0  0  0  0  0
  190.3770  177.4020  142.2060 C   0  0  0  0  0  0  0  0  0  0  0  0
  194.3020  175.7120  137.6050 N   0  0  0  0  0  0  0  0  0  0  0  0
  190.1030  176.7890  139.7910 C   0  0  1  0  0  3  0  0  0  0  0  0
  193.6200  176.3580  138.5850 C   0  0  0  0  0  3  0  0  0  0  0  0
  194.5820  174.3570  135.2910 Cl  0  0  0  0  0  0  0  0  0  0  0  0
  192.2260  176.5490  138.5070 C   0  0  0  0  0  0  0  0  0  0  0  0
  189.3840  177.4140  137.5510 C   0  0  0  0  0  3  0  0  0  0  0  0
  191.7680  177.8100  141.9170 C   0  0  0  0  0  3  0  0  0  0  0  0
  190.3460  176.5090  136.8950 C   0  0  0  0  0  3  0  0  0  0  0  0
  193.6710  175.2150  136.5150 C   0  0  0  0  0  0  0  0  0  0  0  0
  189.5340  177.7390  146.0600 C   0  0  0  0  0  0  0  0  0  0  0  0
  186.1060  179.2420  145.4630 O   0  0  0  0  0  0  0  0  0  0  0  0
  187.2570  178.5740  147.8090 C   0  0  0  0  0  2  0  0  0  0  0  0
  188.0470  176.4010  148.4670 O   0  0  0  0  0  1  0  0  0  0  0  0
  186.8430  178.1140  146.1300 S   0  0  0  0  0  0  0  0  0  0  0  0
  189.6120  177.8400  147.4850 N   0  0  0  0  0  2  0  0  0  0  0  0
  186.0030  176.8690  146.1230 O   0  0  0  0  0  0  0  0  0  0  0  0
  190.8290  177.5520  145.0160 S   0  0  0  0  0  0  0  0  0  0  0  0
  189.8930  177.5730  143.6000 C   0  0  0  0  0  0  0  0  0  0  0  0
  188.4280  177.7380  148.3410 C   0  0  1  0  0  3  0  0  0  0  0  0
  188.5480  177.7290  143.9500 C   0  0  0  0  0  3  0  0  0  0  0  0
  188.3670  177.8250  145.3330 C   0  0  0  0  0  0  0  0  0  0  0  0
  188.3860  178.6160  139.3900 N   0  0  0  0  0  2  0  0  0  0  0  0
  183.8600  178.8600  141.1060 C   0  0  0  0  0  1  0  0  0  0  0  0
  184.8400  178.3640  138.8100 C   0  0  0  0  0  3  0  0  0  0  0  0
  186.1330  178.2920  138.3140 C   0  0  0  0  0  3  0  0  0  0  0  0
  186.2440  178.7920  140.4730 O   0  0  0  0  0  0  0  0  0  0  0  0
  186.9520  178.5670  139.3960 C   0  0  0  0  0  0  0  0  0  0  0  0
  184.9820  178.6760  140.1480 C   0  0  0  0  0  0  0  0  0  0  0  0
  1 30  1  0  0  0  0
  2 15  2  0  0  0  0
  3 10  1  0  0  0  0
  3  2  1  0  0  0  0
  4 13  1  0  0  0  0
  5  7  1  0  0  0  0
  5  8  2  0  0  0  0
  6 17  2  0  0  0  0
  6  4  1  0  0  0  0
  8 26  1  0  0  0  0
  9 11  2  0  0  0  0
 10  1  1  6  0  0  0
 10  5  1  0  0  0  0
 12 17  1  0  0  0  0
 13 11  1  0  0  0  0
 13  3  2  0  0  0  0
 14  1  2  0  0  0  0
 15  8  1  0  0  0  0
 16  4  2  0  0  0  0
 16 14  1  0  0  0  0
 17  9  1  0  0  0  0
 18 23  1  0  0  0  0
 19 22  2  0  0  0  0
 20 27  1  0  0  0  0
 22 20  1  0  0  0  0
 23 27  1  0  0  0  0
 24 22  2  0  0  0  0
 25 18  1  0  0  0  0
 26 28  2  0  0  0  0
 26 25  1  0  0  0  0
 27 21  1  6  0  0  0
 28 29  1  0  0  0  0
 29 18  2  0  0  0  0
 29 22  1  0  0  0  0
 30 35  1  0  0  0  0
 32 36  2  0  0  0  0
 33 32  1  0  0  0  0
 33 35  2  0  0  0  0
 35 34  1  0  0  0  0
 36 34  1  0  0  0  0
 36 31  1  0  0  0  0
M  END
>  <MODEL>
9

>  <REMARK>
 VINA RESULT:      -8.0      4.296      9.201
  Name = 
  3 active torsions:
  status: ('A' for Active; 'I' for Inactive)
    1  A    between atoms: C_1  and  N_30
    2  A    between atoms: C_18  and  C_29
    3  A    between atoms: N_30  and  C_32
                            x       y       z     vdW  Elec       q    Type
                         _______ _______ _______ _____ _____    ______ ____

>  <TORSDO>
F 3

$$$$
