=
 OpenBabel11042413173D

 61 67  0  0  1  0  0  0  0  0999 V2000
  190.9440  173.7400  136.4830 C   0  0  1  0  0  3  0  0  0  0  0  0
  193.7440  171.6570  134.5940 S   0  0  0  0  0  0  0  0  0  0  0  0
  192.1300  175.9090  136.5810 N   0  0  0  0  0  0  0  0  0  0  0  0
  192.7770  174.2830  134.8940 C   0  0  1  0  0  3  0  0  0  0  0  0
  192.3110  172.8330  134.6430 C   0  0  2  0  0  3  0  0  0  0  0  0
  186.3830  175.2920  137.2930 C   0  0  0  0  0  2  0  0  0  0  0  0
  195.2260  175.1010  135.2370 C   0  0  0  0  0  3  0  0  0  0  0  0
  190.0220  176.7460  137.5540 C   0  0  0  0  0  3  0  0  0  0  0  0
  191.9360  174.7500  136.0240 C   0  0  0  0  0  0  0  0  0  0  0  0
  188.7580  173.4360  136.8250 C   0  0  0  0  0  2  0  0  0  0  0  0
  187.4280  173.3380  136.0910 C   0  0  2  0  0  3  0  0  0  0  0  0
  189.6790  174.1020  136.0110 O   0  0  0  0  0  0  0  0  0  0  0  0
  187.2250  177.6480  137.1060 C   0  0  0  0  0  2  0  0  0  0  0  0
  187.2460  178.2640  139.5100 C   0  0  0  0  0  3  0  0  0  0  0  0
  191.3850  177.4160  139.9060 C   0  0  0  0  0  3  0  0  0  0  0  0
  196.3380  174.3930  135.1180 O   0  0  0  0  0  0  0  0  0  0  0  0
  189.3250  177.3760  138.6030 C   0  0  0  0  0  0  0  0  0  0  0  0
  196.1040  173.1120  135.0150 N   0  0  0  0  0  0  0  0  0  0  0  0
  194.7780  172.9790  135.1500 C   0  0  0  0  0  0  0  0  0  0  0  0
  192.0680  176.8000  138.8560 C   0  0  0  0  0  0  0  0  0  0  0  0
  191.3930  172.4520  135.8000 C   0  0  0  0  0  2  0  0  0  0  0  0
  190.0260  177.7020  139.7800 C   0  0  0  0  0  3  0  0  0  0  0  0
  186.7920  174.7170  135.9470 C   0  0  0  0  0  2  0  0  0  0  0  0
  191.3880  176.4460  137.6830 C   0  0  0  0  0  0  0  0  0  0  0  0
  187.8950  177.7540  138.4550 C   0  0  0  0  0  0  0  0  0  0  0  0
  185.9940  176.7480  137.1360 C   0  0  0  0  0  2  0  0  0  0  0  0
  194.2020  174.1800  135.2740 C   0  0  0  0  0  0  0  0  0  0  0  0
  193.4260  176.5370  138.9890 O   0  0  0  0  0  1  0  0  0  0  0  0
  185.8370  178.7590  139.4830 C   0  0  0  0  0  2  0  0  0  0  0  0
  185.3070  178.9250  140.9000 C   0  0  0  0  0  2  0  0  0  0  0  0
  186.4400  178.9530  141.9200 C   0  0  0  0  0  2  0  0  0  0  0  0
  187.5490  178.1940  144.8860 C   0  0  1  0  0  3  0  0  0  0  0  0
  188.2200  177.4720  143.3800 S   0  0  0  0  0  0  0  0  0  0  0  0
  186.5800  177.6150  142.6360 C   0  0  1  0  0  3  0  0  0  0  0  0
  186.0820  177.8010  144.9770 C   0  0  2  0  0  3  0  0  0  0  0  0
  185.5450  177.4670  143.6550 N   0  0  0  0  0  2  0  0  0  0  0  0
  185.2410  178.9000  145.6310 C   0  0  0  0  0  0  0  0  0  0  0  0
  184.3530  178.3460  146.5350 F   0  0  0  0  0  0  0  0  0  0  0  0
  184.5220  179.5680  144.6560 F   0  0  0  0  0  0  0  0  0  0  0  0
  186.0600  179.8030  146.2900 F   0  0  0  0  0  0  0  0  0  0  0  0
  187.7730  177.7210  147.2190 O   0  0  0  0  0  0  0  0  0  0  0  0
  189.6390  177.2250  145.9080 N   0  0  0  0  0  2  0  0  0  0  0  0
  190.4340  176.7520  147.0290 C   0  0  0  0  0  1  0  0  0  0  0  0
  188.3080  177.7070  146.0770 C   0  0  0  0  0  0  0  0  0  0  0  0
  186.5140  172.4260  136.7660 N   0  0  0  0  0  2  0  0  0  0  0  0
  181.9900  170.9450  135.6450 O   0  0  0  0  0  1  0  0  0  0  0  0
  186.1380  170.5060  135.2680 C   0  0  0  0  0  3  0  0  0  0  0  0
  185.2740  169.6420  134.5950 C   0  0  0  0  0  3  0  0  0  0  0  0
  183.3700  170.8040  135.5410 C   0  0  0  0  0  0  0  0  0  0  0  0
  184.2360  171.6680  136.2390 C   0  0  0  0  0  0  0  0  0  0  0  0
  183.8920  169.7920  134.7300 C   0  0  0  0  0  3  0  0  0  0  0  0
  185.6300  171.5240  136.0910 C   0  0  0  0  0  0  0  0  0  0  0  0
  183.6920  172.7930  137.0730 C   0  0  0  0  0  2  0  0  0  0  0  0
  183.4870  174.0110  135.0260 O   0  0  0  0  0  0  0  0  0  0  0  0
  183.1430  173.9030  136.2340 C   0  0  0  0  0  0  0  0  0  0  0  0
  182.2220  174.8020  136.7700 O   0  0  0  0  0  0  0  0  0  0  0  0
  182.1310  174.9790  138.0940 O   0  0  0  0  0  0  0  0  0  0  0  0
  182.6420  176.2560  138.3280 C   0  0  0  0  0  2  0  0  0  0  0  0
  182.5730  176.5600  139.8130 C   0  0  0  0  0  2  0  0  0  0  0  0
  180.6530  177.5050  140.8790 O   0  0  0  0  0  1  0  0  0  0  0  0
  181.7390  177.8040  140.0570 C   0  0  0  0  0  2  0  0  0  0  0  0
  1 21  1  6  0  0  0
  2  5  1  0  0  0  0
  2 19  1  0  0  0  0
  3 24  1  0  0  0  0
  4 27  1  1  0  0  0
  4  9  1  0  0  0  0
  5  4  1  0  0  0  0
  5 21  1  1  0  0  0
  7 27  2  0  0  0  0
  8 24  2  0  0  0  0
  8 17  1  0  0  0  0
  9  1  1  0  0  0  0
  9  3  2  0  0  0  0
 11 45  1  1  0  0  0
 11 10  1  0  0  0  0
 12  1  1  0  0  0  0
 12 10  1  0  0  0  0
 13 26  1  0  0  0  0
 13 25  1  0  0  0  0
 16  7  1  0  0  0  0
 17 22  2  0  0  0  0
 18 16  1  0  0  0  0
 18 19  2  0  0  0  0
 19 27  1  0  0  0  0
 20 28  1  0  0  0  0
 20 15  2  0  0  0  0
 22 15  1  0  0  0  0
 23 11  1  0  0  0  0
 23  6  1  0  0  0  0
 24 20  1  0  0  0  0
 25 17  1  0  0  0  0
 25 14  2  0  0  0  0
 26  6  1  0  0  0  0
 29 14  1  0  0  0  0
 29 30  1  0  0  0  0
 30 31  1  0  0  0  0
 32 35  1  0  0  0  0
 32 44  1  1  0  0  0
 33 32  1  0  0  0  0
 34 31  1  1  0  0  0
 34 33  1  0  0  0  0
 34 36  1  0  0  0  0
 35 37  1  6  0  0  0
 36 35  1  0  0  0  0
 37 40  1  0  0  0  0
 37 38  1  0  0  0  0
 39 37  1  0  0  0  0
 42 44  1  0  0  0  0
 42 43  1  0  0  0  0
 44 41  2  0  0  0  0
 47 52  1  0  0  0  0
 48 51  1  0  0  0  0
 48 47  2  0  0  0  0
 49 46  1  0  0  0  0
 49 50  1  0  0  0  0
 50 53  1  0  0  0  0
 51 49  2  0  0  0  0
 52 50  2  0  0  0  0
 52 45  1  0  0  0  0
 54 55  2  0  0  0  0
 55 56  1  0  0  0  0
 55 53  1  0  0  0  0
 56 57  1  0  0  0  0
 57 58  1  0  0  0  0
 58 59  1  0  0  0  0
 59 61  1  0  0  0  0
 61 60  1  0  0  0  0
M  END
>  <MODEL>
1

>  <REMARK>
 VINA RESULT:      -7.4      0.000      0.000
  Name = 
  15 active torsions:
  status: ('A' for Active; 'I' for Inactive)
    1  A    between atoms: C_1  and  C_8
    2  A    between atoms: C_1  and  C_25
    3  A    between atoms: O_2  and  C_58
    4  A    between atoms: O_2  and  O_59
    5  A    between atoms: C_8  and  C_26
    6  A    between atoms: C_9  and  C_57
    7  A    between atoms: C_11  and  C_49
    8  A    between atoms: C_11  and  C_58
    9  A    between atoms: C_20  and  C_29
   10  A    between atoms: C_21  and  N_35
   11  A    between atoms: C_23  and  C_37
   12  A    between atoms: C_23  and  O_59
   13  A    between atoms: C_25  and  C_28
   14  A    between atoms: N_35  and  C_55
   15  A    between atoms: C_37  and  C_47
                            x       y       z     vdW  Elec       q    Type
                         _______ _______ _______ _____ _____    ______ ____

>  <TORSDO>
F 15

$$$$
=
 OpenBabel11042413173D

 61 67  0  0  1  0  0  0  0  0999 V2000
  186.2250  178.5960  142.3180 C   0  0  1  0  0  3  0  0  0  0  0  0
  185.1790  179.0370  146.1210 S   0  0  0  0  0  0  0  0  0  0  0  0
  188.1330  177.0570  142.6580 N   0  0  0  0  0  0  0  0  0  0  0  0
  186.4170  177.2110  144.3730 C   0  0  1  0  0  3  0  0  0  0  0  0
  185.1840  178.1290  144.5040 C   0  0  2  0  0  3  0  0  0  0  0  0
  185.3950  177.7940  137.5710 C   0  0  0  0  0  2  0  0  0  0  0  0
  188.3240  176.8970  146.1190 C   0  0  0  0  0  3  0  0  0  0  0  0
  188.2060  176.9860  140.1920 C   0  0  0  0  0  3  0  0  0  0  0  0
  187.0040  177.5650  143.0580 C   0  0  0  0  0  0  0  0  0  0  0  0
  185.1900  178.9760  140.3760 C   0  0  0  0  0  2  0  0  0  0  0  0
  184.0000  178.5260  139.5400 C   0  0  2  0  0  3  0  0  0  0  0  0
  185.5040  177.9710  141.2970 O   0  0  0  0  0  0  0  0  0  0  0  0
  187.0550  175.9170  137.6690 C   0  0  0  0  0  2  0  0  0  0  0  0
  188.9800  177.0180  136.5540 C   0  0  0  0  0  3  0  0  0  0  0  0
  190.7910  178.0590  140.2480 C   0  0  0  0  0  3  0  0  0  0  0  0
  188.3870  177.3940  147.3450 O   0  0  0  0  0  0  0  0  0  0  0  0
  188.9060  177.1700  138.9840 C   0  0  0  0  0  0  0  0  0  0  0  0
  187.4620  178.2890  147.5680 N   0  0  0  0  0  0  0  0  0  0  0  0
  186.8170  178.4330  146.4020 C   0  0  0  0  0  0  0  0  0  0  0  0
  190.0920  177.8640  141.4400 C   0  0  0  0  0  0  0  0  0  0  0  0
  185.2590  179.1420  143.3650 C   0  0  0  0  0  2  0  0  0  0  0  0
  190.2030  177.7140  139.0310 C   0  0  0  0  0  3  0  0  0  0  0  0
  184.3910  177.3660  138.6290 C   0  0  0  0  0  2  0  0  0  0  0  0
  188.7900  177.3440  141.4180 C   0  0  0  0  0  0  0  0  0  0  0  0
  188.3210  176.7390  137.6870 C   0  0  0  0  0  0  0  0  0  0  0  0
  185.9450  176.5760  136.8580 C   0  0  0  0  0  2  0  0  0  0  0  0
  187.3080  177.5850  145.4930 C   0  0  0  0  0  0  0  0  0  0  0  0
  190.6970  178.1950  142.6460 O   0  0  0  0  0  1  0  0  0  0  0  0
  188.5530  176.5780  135.1920 C   0  0  0  0  0  2  0  0  0  0  0  0
  189.3110  175.3250  134.7780 C   0  0  0  0  0  2  0  0  0  0  0  0
  190.6910  175.2700  135.4230 C   0  0  0  0  0  2  0  0  0  0  0  0
  193.2750  173.4240  136.1440 C   0  0  1  0  0  3  0  0  0  0  0  0
  191.7570  172.7480  135.4540 S   0  0  0  0  0  0  0  0  0  0  0  0
  190.8410  174.0440  136.3170 C   0  0  1  0  0  3  0  0  0  0  0  0
  192.9370  174.0490  137.4900 C   0  0  2  0  0  3  0  0  0  0  0  0
  191.5150  174.3970  137.5640 N   0  0  0  0  0  2  0  0  0  0  0  0
  193.8010  175.2780  137.7770 C   0  0  0  0  0  0  0  0  0  0  0  0
  194.3000  175.7970  136.5960 F   0  0  0  0  0  0  0  0  0  0  0  0
  194.8640  174.9120  138.5840 F   0  0  0  0  0  0  0  0  0  0  0  0
  193.0540  176.2500  138.4240 F   0  0  0  0  0  0  0  0  0  0  0  0
  195.5280  172.6320  136.2790 O   0  0  0  0  0  0  0  0  0  0  0  0
  193.8730  170.9960  136.4690 N   0  0  0  0  0  2  0  0  0  0  0  0
  194.8190  169.9030  136.6090 C   0  0  0  0  0  1  0  0  0  0  0  0
  194.2990  172.3460  136.2980 C   0  0  0  0  0  0  0  0  0  0  0  0
  183.4570  179.6260  138.7540 N   0  0  0  0  0  2  0  0  0  0  0  0
  179.0950  179.6040  136.5440 O   0  0  0  0  0  1  0  0  0  0  0  0
  181.4930  180.6800  139.8040 C   0  0  0  0  0  3  0  0  0  0  0  0
  180.1390  181.0160  139.7840 C   0  0  0  0  0  3  0  0  0  0  0  0
  179.9070  179.9660  137.6120 C   0  0  0  0  0  0  0  0  0  0  0  0
  181.2780  179.6410  137.6170 C   0  0  0  0  0  0  0  0  0  0  0  0
  179.3470  180.6570  138.6910 C   0  0  0  0  0  3  0  0  0  0  0  0
  182.0720  179.9920  138.7260 C   0  0  0  0  0  0  0  0  0  0  0  0
  181.8850  178.8530  136.4910 C   0  0  0  0  0  2  0  0  0  0  0  0
  181.2800  176.7910  135.4440 O   0  0  0  0  0  0  0  0  0  0  0  0
  181.4710  177.4150  136.5210 C   0  0  0  0  0  0  0  0  0  0  0  0
  181.3300  176.7490  137.7380 O   0  0  0  0  0  0  0  0  0  0  0  0
  180.2160  176.0580  138.0130 O   0  0  0  0  0  0  0  0  0  0  0  0
  180.3690  175.6300  139.3320 C   0  0  0  0  0  2  0  0  0  0  0  0
  180.6280  176.8300  140.2230 C   0  0  0  0  0  2  0  0  0  0  0  0
  179.2240  177.5020  142.0370 O   0  0  0  0  0  1  0  0  0  0  0  0
  179.3170  177.4650  140.6460 C   0  0  0  0  0  2  0  0  0  0  0  0
  1  9  1  0  0  0  0
  1 21  1  1  0  0  0
  2 19  1  0  0  0  0
  3  9  2  0  0  0  0
  4  9  1  6  0  0  0
  4  5  1  0  0  0  0
  4 27  1  0  0  0  0
  5 21  1  6  0  0  0
  5  2  1  0  0  0  0
  6 23  1  0  0  0  0
  7 16  1  0  0  0  0
  8 24  1  0  0  0  0
 10 12  1  0  0  0  0
 11 45  1  6  0  0  0
 11 10  1  0  0  0  0
 12  1  1  0  0  0  0
 13 25  1  0  0  0  0
 14 25  2  0  0  0  0
 15 20  1  0  0  0  0
 16 18  1  0  0  0  0
 17 22  1  0  0  0  0
 17  8  2  0  0  0  0
 19 18  2  0  0  0  0
 20 28  1  0  0  0  0
 22 15  2  0  0  0  0
 23 11  1  0  0  0  0
 24 20  2  0  0  0  0
 24  3  1  0  0  0  0
 25 17  1  0  0  0  0
 26  6  1  0  0  0  0
 26 13  1  0  0  0  0
 27  7  2  0  0  0  0
 27 19  1  0  0  0  0
 29 14  1  0  0  0  0
 30 29  1  0  0  0  0
 30 31  1  0  0  0  0
 32 44  1  1  0  0  0
 32 35  1  0  0  0  0
 33 32  1  0  0  0  0
 33 34  1  0  0  0  0
 34 31  1  6  0  0  0
 34 36  1  0  0  0  0
 35 36  1  0  0  0  0
 35 37  1  6  0  0  0
 37 40  1  0  0  0  0
 37 39  1  0  0  0  0
 38 37  1  0  0  0  0
 41 44  2  0  0  0  0
 42 43  1  0  0  0  0
 44 42  1  0  0  0  0
 46 49  1  0  0  0  0
 48 47  1  0  0  0  0
 49 50  2  0  0  0  0
 49 51  1  0  0  0  0
 50 52  1  0  0  0  0
 51 48  2  0  0  0  0
 52 45  1  0  0  0  0
 52 47  2  0  0  0  0
 53 55  1  0  0  0  0
 53 50  1  0  0  0  0
 54 55  2  0  0  0  0
 55 56  1  0  0  0  0
 56 57  1  0  0  0  0
 57 58  1  0  0  0  0
 58 59  1  0  0  0  0
 59 61  1  0  0  0  0
 61 60  1  0  0  0  0
M  END
>  <MODEL>
2

>  <REMARK>
 VINA RESULT:      -7.1      3.954      9.269
  Name = 
  15 active torsions:
  status: ('A' for Active; 'I' for Inactive)
    1  A    between atoms: C_1  and  C_8
    2  A    between atoms: C_1  and  C_25
    3  A    between atoms: O_2  and  C_58
    4  A    between atoms: O_2  and  O_59
    5  A    between atoms: C_8  and  C_26
    6  A    between atoms: C_9  and  C_57
    7  A    between atoms: C_11  and  C_49
    8  A    between atoms: C_11  and  C_58
    9  A    between atoms: C_20  and  C_29
   10  A    between atoms: C_21  and  N_35
   11  A    between atoms: C_23  and  C_37
   12  A    between atoms: C_23  and  O_59
   13  A    between atoms: C_25  and  C_28
   14  A    between atoms: N_35  and  C_55
   15  A    between atoms: C_37  and  C_47
                            x       y       z     vdW  Elec       q    Type
                         _______ _______ _______ _____ _____    ______ ____

>  <TORSDO>
F 15

$$$$
=
 OpenBabel11042413173D

 61 67  0  0  1  0  0  0  0  0999 V2000
  185.9900  178.6160  142.2580 C   0  0  1  0  0  3  0  0  0  0  0  0
  184.8620  179.0930  146.0330 S   0  0  0  0  0  0  0  0  0  0  0  0
  187.9270  177.1300  142.6580 N   0  0  0  0  0  0  0  0  0  0  0  0
  186.1760  177.2690  144.3390 C   0  0  1  0  0  3  0  0  0  0  0  0
  184.9190  178.1600  144.4320 C   0  0  2  0  0  3  0  0  0  0  0  0
  185.2670  177.7190  137.5110 C   0  0  0  0  0  2  0  0  0  0  0  0
  188.0570  177.0310  146.1240 C   0  0  0  0  0  3  0  0  0  0  0  0
  188.0470  177.0210  140.1950 C   0  0  0  0  0  3  0  0  0  0  0  0
  186.7780  177.6170  143.0280 C   0  0  0  0  0  0  0  0  0  0  0  0
  184.9810  178.9400  140.2920 C   0  0  0  0  0  2  0  0  0  0  0  0
  183.8180  178.4480  139.4410 C   0  0  2  0  0  3  0  0  0  0  0  0
  185.3020  177.9580  141.2340 O   0  0  0  0  0  0  0  0  0  0  0  0
  186.9700  175.8840  137.6690 C   0  0  0  0  0  2  0  0  0  0  0  0
  188.8880  177.0130  136.5720 C   0  0  0  0  0  3  0  0  0  0  0  0
  190.6040  178.1570  140.2800 C   0  0  0  0  0  3  0  0  0  0  0  0
  188.0850  177.5480  147.3420 O   0  0  0  0  0  0  0  0  0  0  0  0
  188.7650  177.2020  138.9970 C   0  0  0  0  0  0  0  0  0  0  0  0
  187.1350  178.4240  147.5330 N   0  0  0  0  0  0  0  0  0  0  0  0
  186.5080  178.5340  146.3540 C   0  0  0  0  0  0  0  0  0  0  0  0
  189.8890  177.9650  141.4620 C   0  0  0  0  0  0  0  0  0  0  0  0
  184.9910  179.1560  143.2770 C   0  0  0  0  0  2  0  0  0  0  0  0
  190.0480  177.7780  139.0590 C   0  0  0  0  0  3  0  0  0  0  0  0
  184.2550  177.2830  138.5570 C   0  0  0  0  0  2  0  0  0  0  0  0
  188.6000  177.4130  141.4260 C   0  0  0  0  0  0  0  0  0  0  0  0
  188.2150  176.7360  137.6970 C   0  0  0  0  0  0  0  0  0  0  0  0
  185.8590  176.5030  136.8280 C   0  0  0  0  0  2  0  0  0  0  0  0
  187.0370  177.6830  145.4680 C   0  0  0  0  0  0  0  0  0  0  0  0
  190.4630  178.3300  142.6740 O   0  0  0  0  0  1  0  0  0  0  0  0
  188.4970  176.5420  135.2100 C   0  0  0  0  0  2  0  0  0  0  0  0
  189.2150  175.2420  134.8730 C   0  0  0  0  0  2  0  0  0  0  0  0
  190.6340  175.2290  135.4290 C   0  0  0  0  0  2  0  0  0  0  0  0
  193.3790  173.6130  136.1040 C   0  0  1  0  0  3  0  0  0  0  0  0
  191.9430  172.8260  135.3590 S   0  0  0  0  0  0  0  0  0  0  0  0
  190.8950  173.9830  136.2670 C   0  0  1  0  0  3  0  0  0  0  0  0
  192.9660  174.1370  137.4720 C   0  0  2  0  0  3  0  0  0  0  0  0
  191.5160  174.3400  137.5400 N   0  0  0  0  0  2  0  0  0  0  0  0
  193.7020  175.4300  137.8300 C   0  0  0  0  0  0  0  0  0  0  0  0
  192.8620  176.2780  138.5290 F   0  0  0  0  0  0  0  0  0  0  0  0
  194.1060  176.0640  136.6690 F   0  0  0  0  0  0  0  0  0  0  0  0
  194.8160  175.1490  138.6050 F   0  0  0  0  0  0  0  0  0  0  0  0
  195.2130  172.3590  135.2190 O   0  0  0  0  0  0  0  0  0  0  0  0
  194.7650  172.0230  137.4850 N   0  0  0  0  0  2  0  0  0  0  0  0
  195.8330  171.0540  137.6620 C   0  0  0  0  0  1  0  0  0  0  0  0
  194.5030  172.6350  136.2240 C   0  0  0  0  0  0  0  0  0  0  0  0
  183.2640  179.5220  138.6270 N   0  0  0  0  0  2  0  0  0  0  0  0
  178.9470  181.0740  136.9330 O   0  0  0  0  0  1  0  0  0  0  0  0
  182.1050  178.3260  136.8110 C   0  0  0  0  0  3  0  0  0  0  0  0
  181.0220  178.1940  135.9410 C   0  0  0  0  0  3  0  0  0  0  0  0
  179.9970  180.1620  136.9140 C   0  0  0  0  0  0  0  0  0  0  0  0
  181.0780  180.2900  137.8080 C   0  0  0  0  0  0  0  0  0  0  0  0
  179.9700  179.1120  135.9920 C   0  0  0  0  0  3  0  0  0  0  0  0
  182.1430  179.3710  137.7480 C   0  0  0  0  0  0  0  0  0  0  0  0
  181.1470  181.4420  138.7710 C   0  0  0  0  0  2  0  0  0  0  0  0
  179.1830  182.0230  140.0050 O   0  0  0  0  0  0  0  0  0  0  0  0
  180.1960  181.2780  139.9150 C   0  0  0  0  0  0  0  0  0  0  0  0
  180.4030  180.2810  140.8660 O   0  0  0  0  0  0  0  0  0  0  0  0
  179.7960  179.0930  140.7540 O   0  0  0  0  0  0  0  0  0  0  0  0
  180.6090  178.2000  141.4540 C   0  0  0  0  0  2  0  0  0  0  0  0
  181.3570  178.9490  142.5400 C   0  0  0  0  0  2  0  0  0  0  0  0
  179.6340  177.8390  143.7710 O   0  0  0  0  0  1  0  0  0  0  0  0
  180.8030  178.5880  143.9060 C   0  0  0  0  0  2  0  0  0  0  0  0
  1  9  1  0  0  0  0
  1 21  1  1  0  0  0
  2 19  1  0  0  0  0
  3  9  2  0  0  0  0
  4  9  1  6  0  0  0
  4  5  1  0  0  0  0
  4 27  1  0  0  0  0
  5 21  1  6  0  0  0
  5  2  1  0  0  0  0
  6 23  1  0  0  0  0
  7 16  1  0  0  0  0
  8 24  1  0  0  0  0
 10 12  1  0  0  0  0
 11 45  1  6  0  0  0
 11 10  1  0  0  0  0
 12  1  1  0  0  0  0
 13 25  1  0  0  0  0
 14 25  2  0  0  0  0
 15 20  1  0  0  0  0
 16 18  1  0  0  0  0
 17 22  1  0  0  0  0
 17  8  2  0  0  0  0
 19 18  2  0  0  0  0
 20 28  1  0  0  0  0
 22 15  2  0  0  0  0
 23 11  1  0  0  0  0
 24 20  2  0  0  0  0
 24  3  1  0  0  0  0
 25 17  1  0  0  0  0
 26  6  1  0  0  0  0
 26 13  1  0  0  0  0
 27  7  2  0  0  0  0
 27 19  1  0  0  0  0
 29 14  1  0  0  0  0
 30 29  1  0  0  0  0
 30 31  1  0  0  0  0
 32 44  1  1  0  0  0
 32 35  1  0  0  0  0
 33 32  1  0  0  0  0
 33 34  1  0  0  0  0
 34 31  1  6  0  0  0
 34 36  1  0  0  0  0
 35 36  1  0  0  0  0
 35 37  1  6  0  0  0
 37 38  1  0  0  0  0
 37 40  1  0  0  0  0
 39 37  1  0  0  0  0
 41 44  2  0  0  0  0
 42 43  1  0  0  0  0
 44 42  1  0  0  0  0
 47 52  1  0  0  0  0
 48 51  1  0  0  0  0
 48 47  2  0  0  0  0
 49 46  1  0  0  0  0
 49 50  1  0  0  0  0
 50 53  1  0  0  0  0
 51 49  2  0  0  0  0
 52 50  2  0  0  0  0
 52 45  1  0  0  0  0
 53 55  1  0  0  0  0
 55 54  2  0  0  0  0
 55 56  1  0  0  0  0
 57 56  1  0  0  0  0
 57 58  1  0  0  0  0
 58 59  1  0  0  0  0
 59 61  1  0  0  0  0
 60 61  1  0  0  0  0
M  END
>  <MODEL>
3

>  <REMARK>
 VINA RESULT:      -6.9      4.227      9.380
  Name = 
  15 active torsions:
  status: ('A' for Active; 'I' for Inactive)
    1  A    between atoms: C_1  and  C_8
    2  A    between atoms: C_1  and  C_25
    3  A    between atoms: O_2  and  C_58
    4  A    between atoms: O_2  and  O_59
    5  A    between atoms: C_8  and  C_26
    6  A    between atoms: C_9  and  C_57
    7  A    between atoms: C_11  and  C_49
    8  A    between atoms: C_11  and  C_58
    9  A    between atoms: C_20  and  C_29
   10  A    between atoms: C_21  and  N_35
   11  A    between atoms: C_23  and  C_37
   12  A    between atoms: C_23  and  O_59
   13  A    between atoms: C_25  and  C_28
   14  A    between atoms: N_35  and  C_55
   15  A    between atoms: C_37  and  C_47
                            x       y       z     vdW  Elec       q    Type
                         _______ _______ _______ _____ _____    ______ ____

>  <TORSDO>
F 15

$$$$
=
 OpenBabel11042413173D

 61 67  0  0  1  0  0  0  0  0999 V2000
  186.5260  178.6870  142.7790 C   0  0  1  0  0  3  0  0  0  0  0  0
  185.3190  179.0100  146.5460 S   0  0  0  0  0  0  0  0  0  0  0  0
  188.3070  177.0050  143.1260 N   0  0  0  0  0  0  0  0  0  0  0  0
  186.5200  177.1910  144.7640 C   0  0  1  0  0  3  0  0  0  0  0  0
  185.3450  178.1860  144.8850 C   0  0  2  0  0  3  0  0  0  0  0  0
  185.8870  178.1840  137.9620 C   0  0  0  0  0  2  0  0  0  0  0  0
  188.3090  176.6600  146.5800 C   0  0  0  0  0  3  0  0  0  0  0  0
  188.5000  177.0530  140.6670 C   0  0  0  0  0  3  0  0  0  0  0  0
  187.1950  177.5700  143.4990 C   0  0  0  0  0  0  0  0  0  0  0  0
  185.6180  179.2350  140.8130 C   0  0  0  0  0  2  0  0  0  0  0  0
  184.4450  178.9110  139.8980 C   0  0  2  0  0  3  0  0  0  0  0  0
  185.8170  178.1660  141.6930 O   0  0  0  0  0  0  0  0  0  0  0  0
  187.4110  176.1930  138.0380 C   0  0  0  0  0  2  0  0  0  0  0  0
  189.4600  177.2120  137.0770 C   0  0  0  0  0  3  0  0  0  0  0  0
  191.1450  177.9390  140.9020 C   0  0  0  0  0  3  0  0  0  0  0  0
  188.3430  177.0890  147.8310 O   0  0  0  0  0  0  0  0  0  0  0  0
  189.2720  177.2470  139.5050 C   0  0  0  0  0  0  0  0  0  0  0  0
  187.4690  178.0340  148.0570 N   0  0  0  0  0  0  0  0  0  0  0  0
  186.8960  178.2810  146.8720 C   0  0  0  0  0  0  0  0  0  0  0  0
  190.3750  177.7340  142.0480 C   0  0  0  0  0  0  0  0  0  0  0  0
  185.5460  179.2470  143.8060 C   0  0  0  0  0  2  0  0  0  0  0  0
  190.5980  177.6970  139.6420 C   0  0  0  0  0  3  0  0  0  0  0  0
  184.8050  177.7740  138.9470 C   0  0  0  0  0  2  0  0  0  0  0  0
  189.0440  177.3070  141.9360 C   0  0  0  0  0  0  0  0  0  0  0  0
  188.7270  176.9230  138.1600 C   0  0  0  0  0  0  0  0  0  0  0  0
  186.3900  176.9670  137.2120 C   0  0  0  0  0  2  0  0  0  0  0  0
  187.3750  177.4460  145.9430 C   0  0  0  0  0  0  0  0  0  0  0  0
  190.9380  177.9620  143.2980 O   0  0  0  0  0  1  0  0  0  0  0  0
  189.0740  176.8710  135.6740 C   0  0  0  0  0  2  0  0  0  0  0  0
  190.0710  175.8900  135.0740 C   0  0  0  0  0  2  0  0  0  0  0  0
  191.3660  175.8490  135.8790 C   0  0  0  0  0  2  0  0  0  0  0  0
  194.4650  175.0210  136.4370 C   0  0  1  0  0  3  0  0  0  0  0  0
  193.9880  176.6300  135.7860 S   0  0  0  0  0  0  0  0  0  0  0  0
  192.5880  175.8330  134.9680 C   0  0  1  0  0  3  0  0  0  0  0  0
  194.0220  173.9640  135.4360 C   0  0  2  0  0  3  0  0  0  0  0  0
  192.9320  174.4640  134.5940 N   0  0  0  0  0  2  0  0  0  0  0  0
  193.6050  172.6650  136.1300 C   0  0  0  0  0  0  0  0  0  0  0  0
  193.6040  172.8380  137.5030 F   0  0  0  0  0  0  0  0  0  0  0  0
  194.5070  171.6650  135.8100 F   0  0  0  0  0  0  0  0  0  0  0  0
  192.3390  172.2840  135.7160 F   0  0  0  0  0  0  0  0  0  0  0  0
  196.7320  175.3180  135.7340 O   0  0  0  0  0  0  0  0  0  0  0  0
  196.4490  174.5160  137.9070 N   0  0  0  0  0  2  0  0  0  0  0  0
  197.8750  174.4260  138.1740 C   0  0  0  0  0  1  0  0  0  0  0  0
  195.9430  174.9660  136.6520 C   0  0  0  0  0  0  0  0  0  0  0  0
  184.0180  180.0840  139.1470 N   0  0  0  0  0  2  0  0  0  0  0  0
  179.3110  179.7970  140.4410 O   0  0  0  0  0  1  0  0  0  0  0  0
  182.3010  181.4400  138.0120 C   0  0  0  0  0  3  0  0  0  0  0  0
  180.9720  181.8350  137.8580 C   0  0  0  0  0  3  0  0  0  0  0  0
  180.3130  180.3230  139.6340 C   0  0  0  0  0  0  0  0  0  0  0  0
  181.6500  179.9050  139.7810 C   0  0  0  0  0  0  0  0  0  0  0  0
  179.9800  181.2790  138.6690 C   0  0  0  0  0  3  0  0  0  0  0  0
  182.6510  180.4760  138.9720 C   0  0  0  0  0  0  0  0  0  0  0  0
  182.0340  178.9180  140.8470 C   0  0  0  0  0  2  0  0  0  0  0  0
  180.2180  177.4870  141.4570 O   0  0  0  0  0  0  0  0  0  0  0  0
  181.2470  177.6480  140.7480 C   0  0  0  0  0  0  0  0  0  0  0  0
  181.6260  176.6530  139.8480 O   0  0  0  0  0  0  0  0  0  0  0  0
  181.2730  176.7280  138.5590 O   0  0  0  0  0  0  0  0  0  0  0  0
  180.1380  175.9250  138.4430 C   0  0  0  0  0  2  0  0  0  0  0  0
  180.4300  174.7750  137.4990 C   0  0  0  0  0  2  0  0  0  0  0  0
  179.6560  173.6620  139.4680 O   0  0  0  0  0  1  0  0  0  0  0  0
  180.0840  173.4520  138.1570 C   0  0  0  0  0  2  0  0  0  0  0  0
  1  9  1  0  0  0  0
  1 21  1  1  0  0  0
  2 19  1  0  0  0  0
  3  9  2  0  0  0  0
  4  9  1  6  0  0  0
  4  5  1  0  0  0  0
  4 27  1  0  0  0  0
  5 21  1  6  0  0  0
  5  2  1  0  0  0  0
  6 23  1  0  0  0  0
  7 16  1  0  0  0  0
  8 24  1  0  0  0  0
 10 12  1  0  0  0  0
 11 45  1  6  0  0  0
 11 10  1  0  0  0  0
 12  1  1  0  0  0  0
 13 25  1  0  0  0  0
 14 25  2  0  0  0  0
 15 20  1  0  0  0  0
 16 18  1  0  0  0  0
 17 22  1  0  0  0  0
 17  8  2  0  0  0  0
 19 18  2  0  0  0  0
 20 28  1  0  0  0  0
 22 15  2  0  0  0  0
 23 11  1  0  0  0  0
 24 20  2  0  0  0  0
 24  3  1  0  0  0  0
 25 17  1  0  0  0  0
 26  6  1  0  0  0  0
 26 13  1  0  0  0  0
 27  7  2  0  0  0  0
 27 19  1  0  0  0  0
 29 14  1  0  0  0  0
 30 29  1  0  0  0  0
 30 31  1  0  0  0  0
 32 44  1  6  0  0  0
 33 32  1  0  0  0  0
 34 33  1  0  0  0  0
 34 31  1  1  0  0  0
 35 37  1  1  0  0  0
 35 32  1  0  0  0  0
 36 34  1  0  0  0  0
 36 35  1  0  0  0  0
 37 38  1  0  0  0  0
 39 37  1  0  0  0  0
 40 37  1  0  0  0  0
 41 44  2  0  0  0  0
 42 43  1  0  0  0  0
 44 42  1  0  0  0  0
 47 52  1  0  0  0  0
 48 47  2  0  0  0  0
 48 51  1  0  0  0  0
 49 50  1  0  0  0  0
 49 46  1  0  0  0  0
 50 53  1  0  0  0  0
 51 49  2  0  0  0  0
 52 45  1  0  0  0  0
 52 50  2  0  0  0  0
 55 53  1  0  0  0  0
 55 54  2  0  0  0  0
 56 55  1  0  0  0  0
 57 56  1  0  0  0  0
 58 57  1  0  0  0  0
 59 61  1  0  0  0  0
 59 58  1  0  0  0  0
 61 60  1  0  0  0  0
M  END
>  <MODEL>
4

>  <REMARK>
 VINA RESULT:      -5.7      4.368      9.771
  Name = 
  15 active torsions:
  status: ('A' for Active; 'I' for Inactive)
    1  A    between atoms: C_1  and  C_8
    2  A    between atoms: C_1  and  C_25
    3  A    between atoms: O_2  and  C_58
    4  A    between atoms: O_2  and  O_59
    5  A    between atoms: C_8  and  C_26
    6  A    between atoms: C_9  and  C_57
    7  A    between atoms: C_11  and  C_49
    8  A    between atoms: C_11  and  C_58
    9  A    between atoms: C_20  and  C_29
   10  A    between atoms: C_21  and  N_35
   11  A    between atoms: C_23  and  C_37
   12  A    between atoms: C_23  and  O_59
   13  A    between atoms: C_25  and  C_28
   14  A    between atoms: N_35  and  C_55
   15  A    between atoms: C_37  and  C_47
                            x       y       z     vdW  Elec       q    Type
                         _______ _______ _______ _____ _____    ______ ____

>  <TORSDO>
F 15

$$$$
=
 OpenBabel11042413173D

 61 67  0  0  1  0  0  0  0  0999 V2000
  188.3960  175.4710  137.4800 C   0  0  1  0  0  3  0  0  0  0  0  0
  190.6930  173.9980  134.5980 S   0  0  0  0  0  0  0  0  0  0  0  0
  189.9250  177.2470  138.2720 N   0  0  0  0  0  0  0  0  0  0  0  0
  190.1900  176.3770  136.0180 C   0  0  1  0  0  3  0  0  0  0  0  0
  189.4790  175.2240  135.2790 C   0  0  2  0  0  3  0  0  0  0  0  0
  184.2110  177.1190  139.3870 C   0  0  0  0  0  2  0  0  0  0  0  0
  192.7560  176.6730  136.3490 C   0  0  0  0  0  3  0  0  0  0  0  0
  188.0480  177.8750  139.7460 C   0  0  0  0  0  3  0  0  0  0  0  0
  189.5100  176.4470  137.3340 C   0  0  0  0  0  0  0  0  0  0  0  0
  186.2160  175.3300  137.9420 C   0  0  0  0  0  2  0  0  0  0  0  0
  184.8440  175.7050  137.3970 C   0  0  2  0  0  3  0  0  0  0  0  0
  187.1810  176.1480  137.3460 O   0  0  0  0  0  0  0  0  0  0  0  0
  185.4140  179.2220  140.0330 C   0  0  0  0  0  2  0  0  0  0  0  0
  185.6860  178.8050  142.4640 C   0  0  0  0  0  3  0  0  0  0  0  0
  189.6460  177.3580  141.9850 C   0  0  0  0  0  3  0  0  0  0  0  0
  193.7280  175.9400  135.8270 O   0  0  0  0  0  0  0  0  0  0  0  0
  187.5310  178.1080  141.0350 C   0  0  0  0  0  0  0  0  0  0  0  0
  193.2820  174.8510  135.2610 N   0  0  0  0  0  0  0  0  0  0  0  0
  191.9630  174.8410  135.4950 C   0  0  0  0  0  0  0  0  0  0  0  0
  190.1530  177.1400  140.7030 C   0  0  0  0  0  0  0  0  0  0  0  0
  188.5850  174.5240  136.2990 C   0  0  0  0  0  2  0  0  0  0  0  0
  188.3470  177.8380  142.1490 C   0  0  0  0  0  3  0  0  0  0  0  0
  184.4350  177.0920  137.8840 C   0  0  0  0  0  2  0  0  0  0  0  0
  189.3520  177.3800  139.5770 C   0  0  0  0  0  0  0  0  0  0  0  0
  186.1750  178.6890  141.2230 C   0  0  0  0  0  0  0  0  0  0  0  0
  184.0570  178.5490  139.8610 C   0  0  0  0  0  2  0  0  0  0  0  0
  191.6000  175.9510  136.1480 C   0  0  0  0  0  0  0  0  0  0  0  0
  191.4550  176.6790  140.5540 O   0  0  0  0  0  1  0  0  0  0  0  0
  184.3790  179.4400  142.8070 C   0  0  0  0  0  2  0  0  0  0  0  0
  184.0500  179.2170  144.2770 C   0  0  0  0  0  2  0  0  0  0  0  0
  185.3130  179.1740  145.1290 C   0  0  0  0  0  2  0  0  0  0  0  0
  188.1210  177.8180  146.0670 C   0  0  1  0  0  3  0  0  0  0  0  0
  187.1540  177.1970  144.6830 S   0  0  0  0  0  0  0  0  0  0  0  0
  185.6610  177.7470  145.5390 C   0  0  1  0  0  3  0  0  0  0  0  0
  187.2690  177.7000  147.3220 C   0  0  2  0  0  3  0  0  0  0  0  0
  185.8430  177.6580  146.9860 N   0  0  0  0  0  2  0  0  0  0  0  0
  187.5500  178.8370  148.3070 C   0  0  0  0  0  0  0  0  0  0  0  0
  187.4160  178.3840  149.6080 F   0  0  0  0  0  0  0  0  0  0  0  0
  186.6420  179.8600  148.0980 F   0  0  0  0  0  0  0  0  0  0  0  0
  188.8340  179.3250  148.1230 F   0  0  0  0  0  0  0  0  0  0  0  0
  189.5760  176.3090  147.2180 O   0  0  0  0  0  0  0  0  0  0  0  0
  190.3770  177.1230  145.1830 N   0  0  0  0  0  2  0  0  0  0  0  0
  191.6350  176.4010  145.2670 C   0  0  0  0  0  1  0  0  0  0  0  0
  189.3880  177.0370  146.2060 C   0  0  0  0  0  0  0  0  0  0  0  0
  183.8370  174.7200  137.7700 N   0  0  0  0  0  2  0  0  0  0  0  0
  180.8980  171.5650  135.4610 O   0  0  0  0  0  1  0  0  0  0  0  0
  184.7120  172.6130  136.8390 C   0  0  0  0  0  3  0  0  0  0  0  0
  184.5150  171.4130  136.1550 C   0  0  0  0  0  3  0  0  0  0  0  0
  182.1560  171.9210  135.9370 C   0  0  0  0  0  0  0  0  0  0  0  0
  182.3440  173.1250  136.6440 C   0  0  0  0  0  0  0  0  0  0  0  0
  183.2390  171.0690  135.7030 C   0  0  0  0  0  3  0  0  0  0  0  0
  183.6340  173.4770  137.0870 C   0  0  0  0  0  0  0  0  0  0  0  0
  181.2020  174.0770  136.8590 C   0  0  0  0  0  2  0  0  0  0  0  0
  179.8050  172.6830  138.2090 O   0  0  0  0  0  0  0  0  0  0  0  0
  180.4380  173.7680  138.1080 C   0  0  0  0  0  0  0  0  0  0  0  0
  180.4520  174.6590  139.1800 O   0  0  0  0  0  0  0  0  0  0  0  0
  179.6960  175.7640  139.1590 O   0  0  0  0  0  0  0  0  0  0  0  0
  180.5970  176.8250  139.2510 C   0  0  0  0  0  2  0  0  0  0  0  0
  179.9280  178.0960  138.7640 C   0  0  0  0  0  2  0  0  0  0  0  0
  181.4080  178.2980  136.8980 O   0  0  0  0  0  1  0  0  0  0  0  0
  180.9260  178.9660  138.0230 C   0  0  0  0  0  2  0  0  0  0  0  0
  1 21  1  6  0  0  0
  2  5  1  0  0  0  0
  2 19  1  0  0  0  0
  3 24  1  0  0  0  0
  4 27  1  1  0  0  0
  4  9  1  0  0  0  0
  5  4  1  0  0  0  0
  5 21  1  1  0  0  0
  6 26  1  0  0  0  0
  8 17  1  0  0  0  0
  9  1  1  0  0  0  0
  9  3  2  0  0  0  0
 11 45  1  1  0  0  0
 11 23  1  0  0  0  0
 11 10  1  0  0  0  0
 12  1  1  0  0  0  0
 12 10  1  0  0  0  0
 13 25  1  0  0  0  0
 14 29  1  0  0  0  0
 15 22  1  0  0  0  0
 16  7  1  0  0  0  0
 17 25  1  0  0  0  0
 17 22  2  0  0  0  0
 18 19  2  0  0  0  0
 18 16  1  0  0  0  0
 19 27  1  0  0  0  0
 20 15  2  0  0  0  0
 23  6  1  0  0  0  0
 24  8  2  0  0  0  0
 24 20  1  0  0  0  0
 25 14  2  0  0  0  0
 26 13  1  0  0  0  0
 27  7  2  0  0  0  0
 28 20  1  0  0  0  0
 29 30  1  0  0  0  0
 30 31  1  0  0  0  0
 32 44  1  1  0  0  0
 32 35  1  0  0  0  0
 33 34  1  0  0  0  0
 33 32  1  0  0  0  0
 34 31  1  1  0  0  0
 34 36  1  0  0  0  0
 35 37  1  1  0  0  0
 36 35  1  0  0  0  0
 37 38  1  0  0  0  0
 39 37  1  0  0  0  0
 40 37  1  0  0  0  0
 42 43  1  0  0  0  0
 42 44  1  0  0  0  0
 44 41  2  0  0  0  0
 46 49  1  0  0  0  0
 47 52  1  0  0  0  0
 48 47  2  0  0  0  0
 49 50  1  0  0  0  0
 50 53  1  0  0  0  0
 50 52  2  0  0  0  0
 51 49  2  0  0  0  0
 51 48  1  0  0  0  0
 52 45  1  0  0  0  0
 53 55  1  0  0  0  0
 55 54  2  0  0  0  0
 55 56  1  0  0  0  0
 57 56  1  0  0  0  0
 57 58  1  0  0  0  0
 59 58  1  0  0  0  0
 60 61  1  0  0  0  0
 61 59  1  0  0  0  0
M  END
>  <MODEL>
5

>  <REMARK>
 VINA RESULT:      -5.6      2.096      3.146
  Name = 
  15 active torsions:
  status: ('A' for Active; 'I' for Inactive)
    1  A    between atoms: C_1  and  C_8
    2  A    between atoms: C_1  and  C_25
    3  A    between atoms: O_2  and  C_58
    4  A    between atoms: O_2  and  O_59
    5  A    between atoms: C_8  and  C_26
    6  A    between atoms: C_9  and  C_57
    7  A    between atoms: C_11  and  C_49
    8  A    between atoms: C_11  and  C_58
    9  A    between atoms: C_20  and  C_29
   10  A    between atoms: C_21  and  N_35
   11  A    between atoms: C_23  and  C_37
   12  A    between atoms: C_23  and  O_59
   13  A    between atoms: C_25  and  C_28
   14  A    between atoms: N_35  and  C_55
   15  A    between atoms: C_37  and  C_47
                            x       y       z     vdW  Elec       q    Type
                         _______ _______ _______ _____ _____    ______ ____

>  <TORSDO>
F 15

$$$$
=
 OpenBabel11042413173D

 61 67  0  0  1  0  0  0  0  0999 V2000
  188.6230  175.9890  137.4400 C   0  0  1  0  0  3  0  0  0  0  0  0
  191.1700  174.9080  134.5950 S   0  0  0  0  0  0  0  0  0  0  0  0
  190.1910  177.3040  138.8300 N   0  0  0  0  0  0  0  0  0  0  0  0
  190.7080  176.9450  136.4820 C   0  0  1  0  0  3  0  0  0  0  0  0
  190.0020  176.1030  135.3980 C   0  0  2  0  0  3  0  0  0  0  0  0
  184.3920  177.7260  139.1550 C   0  0  0  0  0  2  0  0  0  0  0  0
  193.2090  176.7950  137.1940 C   0  0  0  0  0  3  0  0  0  0  0  0
  188.1850  177.8350  140.1660 C   0  0  0  0  0  3  0  0  0  0  0  0
  189.8430  176.8070  137.6790 C   0  0  0  0  0  0  0  0  0  0  0  0
  186.3950  176.0530  137.5760 C   0  0  0  0  0  2  0  0  0  0  0  0
  185.1720  176.7310  136.9740 C   0  0  2  0  0  3  0  0  0  0  0  0
  187.5220  176.8420  137.3260 O   0  0  0  0  0  0  0  0  0  0  0  0
  185.6970  179.4360  140.4450 C   0  0  0  0  0  2  0  0  0  0  0  0
  185.5430  178.4390  142.7130 C   0  0  0  0  0  3  0  0  0  0  0  0
  189.3530  176.6010  142.3900 C   0  0  0  0  0  3  0  0  0  0  0  0
  194.1660  176.0720  136.6330 O   0  0  0  0  0  0  0  0  0  0  0  0
  187.5020  177.8370  141.3970 C   0  0  0  0  0  0  0  0  0  0  0  0
  193.7000  175.2160  135.7650 N   0  0  0  0  0  0  0  0  0  0  0  0
  192.3670  175.3370  135.8230 C   0  0  0  0  0  0  0  0  0  0  0  0
  190.0260  176.6130  141.1680 C   0  0  0  0  0  0  0  0  0  0  0  0
  188.8910  175.3210  136.0940 C   0  0  0  0  0  2  0  0  0  0  0  0
  188.1030  177.2080  142.5040 C   0  0  0  0  0  3  0  0  0  0  0  0
  184.8420  178.0130  137.7320 C   0  0  0  0  0  2  0  0  0  0  0  0
  189.4390  177.2140  140.0450 C   0  0  0  0  0  0  0  0  0  0  0  0
  186.2030  178.5430  141.5520 C   0  0  0  0  0  0  0  0  0  0  0  0
  184.3190  179.0180  139.9440 C   0  0  0  0  0  2  0  0  0  0  0  0
  192.0280  176.3080  136.6790 C   0  0  0  0  0  0  0  0  0  0  0  0
  191.2790  176.0200  141.0740 O   0  0  0  0  0  1  0  0  0  0  0  0
  184.2720  179.1560  143.0350 C   0  0  0  0  0  2  0  0  0  0  0  0
  183.9910  179.0910  144.5300 C   0  0  0  0  0  2  0  0  0  0  0  0
  185.2830  179.0830  145.3390 C   0  0  0  0  0  2  0  0  0  0  0  0
  188.0910  177.7480  146.3080 C   0  0  1  0  0  3  0  0  0  0  0  0
  187.0790  177.0450  144.9970 S   0  0  0  0  0  0  0  0  0  0  0  0
  185.6170  177.6840  145.8440 C   0  0  1  0  0  3  0  0  0  0  0  0
  187.2670  177.7370  147.5880 C   0  0  2  0  0  3  0  0  0  0  0  0
  185.8330  177.6970  147.2890 N   0  0  0  0  0  2  0  0  0  0  0  0
  187.5910  178.9370  148.4810 C   0  0  0  0  0  0  0  0  0  0  0  0
  187.5280  178.5710  149.8130 F   0  0  0  0  0  0  0  0  0  0  0  0
  186.6670  179.9420  148.2520 F   0  0  0  0  0  0  0  0  0  0  0  0
  188.8610  179.4160  148.1980 F   0  0  0  0  0  0  0  0  0  0  0  0
  189.4350  176.0900  147.3870 O   0  0  0  0  0  0  0  0  0  0  0  0
  190.4420  177.1890  145.5910 N   0  0  0  0  0  2  0  0  0  0  0  0
  191.6950  176.4640  145.7100 C   0  0  0  0  0  1  0  0  0  0  0  0
  189.3470  176.9560  146.4750 C   0  0  0  0  0  0  0  0  0  0  0  0
  184.0210  175.8380  136.9630 N   0  0  0  0  0  2  0  0  0  0  0  0
  179.2040  175.0440  136.6670 O   0  0  0  0  0  1  0  0  0  0  0  0
  182.5620  177.3370  135.6610 C   0  0  0  0  0  3  0  0  0  0  0  0
  181.2970  177.6950  135.1920 C   0  0  0  0  0  3  0  0  0  0  0  0
  180.3310  175.7870  136.3310 C   0  0  0  0  0  0  0  0  0  0  0  0
  181.6070  175.4080  136.7920 C   0  0  0  0  0  0  0  0  0  0  0  0
  180.1830  176.9220  135.5280 C   0  0  0  0  0  3  0  0  0  0  0  0
  182.7270  176.1960  136.4620 C   0  0  0  0  0  0  0  0  0  0  0  0
  181.7760  174.2210  137.6970 C   0  0  0  0  0  2  0  0  0  0  0  0
  181.5160  171.8480  137.5790 O   0  0  0  0  0  0  0  0  0  0  0  0
  181.6890  172.9270  136.9510 C   0  0  0  0  0  0  0  0  0  0  0  0
  181.7630  172.9090  135.5590 O   0  0  0  0  0  0  0  0  0  0  0  0
  182.6590  172.1360  134.9320 O   0  0  0  0  0  0  0  0  0  0  0  0
  183.8950  172.7320  135.1820 C   0  0  0  0  0  2  0  0  0  0  0  0
  184.6760  171.8760  136.1610 C   0  0  0  0  0  2  0  0  0  0  0  0
  187.0470  171.9790  136.4490 O   0  0  0  0  0  1  0  0  0  0  0  0
  185.8560  172.6540  136.7150 C   0  0  0  0  0  2  0  0  0  0  0  0
  1 21  1  6  0  0  0
  1  9  1  0  0  0  0
  2  5  1  0  0  0  0
  2 19  1  0  0  0  0
  3 24  1  0  0  0  0
  4 27  1  1  0  0  0
  4  9  1  0  0  0  0
  5 21  1  1  0  0  0
  5  4  1  0  0  0  0
  6 26  1  0  0  0  0
  8 17  1  0  0  0  0
  9  3  2  0  0  0  0
 11 45  1  1  0  0  0
 11 10  1  0  0  0  0
 11 23  1  0  0  0  0
 12  1  1  0  0  0  0
 12 10  1  0  0  0  0
 13 25  1  0  0  0  0
 14 29  1  0  0  0  0
 15 22  1  0  0  0  0
 16  7  1  0  0  0  0
 17 25  1  0  0  0  0
 17 22  2  0  0  0  0
 18 19  2  0  0  0  0
 18 16  1  0  0  0  0
 19 27  1  0  0  0  0
 20 15  2  0  0  0  0
 23  6  1  0  0  0  0
 24  8  2  0  0  0  0
 24 20  1  0  0  0  0
 25 14  2  0  0  0  0
 26 13  1  0  0  0  0
 27  7  2  0  0  0  0
 28 20  1  0  0  0  0
 29 30  1  0  0  0  0
 30 31  1  0  0  0  0
 32 44  1  1  0  0  0
 32 35  1  0  0  0  0
 33 34  1  0  0  0  0
 33 32  1  0  0  0  0
 34 31  1  6  0  0  0
 34 36  1  0  0  0  0
 35 37  1  6  0  0  0
 36 35  1  0  0  0  0
 37 38  1  0  0  0  0
 39 37  1  0  0  0  0
 40 37  1  0  0  0  0
 42 43  1  0  0  0  0
 42 44  1  0  0  0  0
 44 41  2  0  0  0  0
 47 52  1  0  0  0  0
 48 51  1  0  0  0  0
 48 47  2  0  0  0  0
 49 46  1  0  0  0  0
 49 50  1  0  0  0  0
 50 53  1  0  0  0  0
 51 49  2  0  0  0  0
 52 50  2  0  0  0  0
 52 45  1  0  0  0  0
 55 54  2  0  0  0  0
 55 53  1  0  0  0  0
 56 55  1  0  0  0  0
 57 58  1  0  0  0  0
 57 56  1  0  0  0  0
 58 59  1  0  0  0  0
 59 61  1  0  0  0  0
 60 61  1  0  0  0  0
M  END
>  <MODEL>
6

>  <REMARK>
 VINA RESULT:      -5.0      2.292      4.265
  Name = 
  15 active torsions:
  status: ('A' for Active; 'I' for Inactive)
    1  A    between atoms: C_1  and  C_8
    2  A    between atoms: C_1  and  C_25
    3  A    between atoms: O_2  and  C_58
    4  A    between atoms: O_2  and  O_59
    5  A    between atoms: C_8  and  C_26
    6  A    between atoms: C_9  and  C_57
    7  A    between atoms: C_11  and  C_49
    8  A    between atoms: C_11  and  C_58
    9  A    between atoms: C_20  and  C_29
   10  A    between atoms: C_21  and  N_35
   11  A    between atoms: C_23  and  C_37
   12  A    between atoms: C_23  and  O_59
   13  A    between atoms: C_25  and  C_28
   14  A    between atoms: N_35  and  C_55
   15  A    between atoms: C_37  and  C_47
                            x       y       z     vdW  Elec       q    Type
                         _______ _______ _______ _____ _____    ______ ____

>  <TORSDO>
F 15

$$$$
=
 OpenBabel11042413173D

 61 67  0  0  1  0  0  0  0  0999 V2000
  189.0000  176.8180  142.5280 C   0  0  1  0  0  3  0  0  0  0  0  0
  191.6830  176.3580  145.4160 S   0  0  0  0  0  0  0  0  0  0  0  0
  187.5830  178.5160  143.6360 N   0  0  0  0  0  0  0  0  0  0  0  0
  189.8900  178.2510  144.3540 C   0  0  1  0  0  3  0  0  0  0  0  0
  190.9770  177.2350  143.9420 C   0  0  2  0  0  3  0  0  0  0  0  0
  187.5470  177.4640  137.9090 C   0  0  0  0  0  2  0  0  0  0  0  0
  189.0560  178.7520  146.7700 C   0  0  0  0  0  3  0  0  0  0  0  0
  186.3620  178.5500  141.4920 C   0  0  0  0  0  3  0  0  0  0  0  0
  188.7310  177.9230  143.4880 C   0  0  0  0  0  0  0  0  0  0  0  0
  188.9720  176.3190  140.3510 C   0  0  0  0  0  2  0  0  0  0  0  0
  189.6540  176.6530  139.0320 C   0  0  2  0  0  3  0  0  0  0  0  0
  189.1950  177.3620  141.2550 O   0  0  0  0  0  0  0  0  0  0  0  0
  186.2550  179.4750  138.6690 C   0  0  0  0  0  2  0  0  0  0  0  0
  183.9650  178.5190  138.6480 C   0  0  0  0  0  3  0  0  0  0  0  0
  184.0440  177.6970  142.8100 C   0  0  0  0  0  3  0  0  0  0  0  0
  189.5460  178.2840  147.9070 O   0  0  0  0  0  0  0  0  0  0  0  0
  185.1650  178.4040  140.7640 C   0  0  0  0  0  0  0  0  0  0  0  0
  190.4060  177.3190  147.7190 N   0  0  0  0  0  0  0  0  0  0  0  0
  190.4150  177.1010  146.3980 C   0  0  0  0  0  0  0  0  0  0  0  0
  185.2330  177.8540  143.5240 C   0  0  0  0  0  0  0  0  0  0  0  0
  190.3080  176.2120  143.0280 C   0  0  0  0  0  2  0  0  0  0  0  0
  184.0100  177.9710  141.4430 C   0  0  0  0  0  3  0  0  0  0  0  0
  188.9560  177.8260  138.3490 C   0  0  0  0  0  2  0  0  0  0  0  0
  186.4020  178.2630  142.8660 C   0  0  0  0  0  0  0  0  0  0  0  0
  185.0960  178.7620  139.3230 C   0  0  0  0  0  0  0  0  0  0  0  0
  186.8070  178.7110  137.4710 C   0  0  0  0  0  2  0  0  0  0  0  0
  189.6090  177.9720  145.7790 C   0  0  0  0  0  0  0  0  0  0  0  0
  185.2470  177.5960  144.8890 O   0  0  0  0  0  1  0  0  0  0  0  0
  183.7280  178.8980  137.2230 C   0  0  0  0  0  2  0  0  0  0  0  0
  182.2960  178.5730  136.8190 C   0  0  0  0  0  2  0  0  0  0  0  0
  181.3380  178.7230  137.9960 C   0  0  0  0  0  2  0  0  0  0  0  0
  180.4140  175.6170  137.6790 C   0  0  1  0  0  3  0  0  0  0  0  0
  180.1420  176.8500  136.3970 S   0  0  0  0  0  0  0  0  0  0  0  0
  179.9820  178.0970  137.6940 C   0  0  1  0  0  3  0  0  0  0  0  0
  179.6510  176.0580  138.9190 C   0  0  2  0  0  3  0  0  0  0  0  0
  179.4110  177.5030  138.9010 N   0  0  0  0  0  2  0  0  0  0  0  0
  180.3770  175.6550  140.2050 C   0  0  0  0  0  0  0  0  0  0  0  0
  180.0590  176.5320  141.2260 F   0  0  0  0  0  0  0  0  0  0  0  0
  181.7430  175.6980  139.9920 F   0  0  0  0  0  0  0  0  0  0  0  0
  180.0150  174.3700  140.5770 F   0  0  0  0  0  0  0  0  0  0  0  0
  178.9390  173.7350  137.7420 O   0  0  0  0  0  0  0  0  0  0  0  0
  180.6580  173.6140  136.1670 N   0  0  0  0  0  2  0  0  0  0  0  0
  180.2650  172.3020  135.6810 C   0  0  0  0  0  1  0  0  0  0  0  0
  179.9500  174.2750  137.2140 C   0  0  0  0  0  0  0  0  0  0  0  0
  189.6890  175.4980  138.1440 N   0  0  0  0  0  2  0  0  0  0  0  0
  191.9440  172.1830  135.3430 O   0  0  0  0  0  1  0  0  0  0  0  0
  192.1380  175.5220  137.8650 C   0  0  0  0  0  3  0  0  0  0  0  0
  193.3020  174.9870  137.3130 C   0  0  0  0  0  3  0  0  0  0  0  0
  191.9930  173.2830  136.1930 C   0  0  0  0  0  0  0  0  0  0  0  0
  190.8150  173.8050  136.7630 C   0  0  0  0  0  0  0  0  0  0  0  0
  193.2290  173.8710  136.4760 C   0  0  0  0  0  3  0  0  0  0  0  0
  190.8890  174.9390  137.5960 C   0  0  0  0  0  0  0  0  0  0  0  0
  189.4740  173.2180  136.4290 C   0  0  0  0  0  2  0  0  0  0  0  0
  189.3450  174.7490  134.5970 O   0  0  0  0  0  0  0  0  0  0  0  0
  188.7200  174.0560  135.4440 C   0  0  0  0  0  0  0  0  0  0  0  0
  187.3260  174.0480  135.4330 O   0  0  0  0  0  0  0  0  0  0  0  0
  186.6360  175.1950  135.4570 O   0  0  0  0  0  0  0  0  0  0  0  0
  185.3000  174.8150  135.5790 C   0  0  0  0  0  2  0  0  0  0  0  0
  184.7800  175.2350  136.9410 C   0  0  0  0  0  2  0  0  0  0  0  0
  184.9820  173.0800  137.9570 O   0  0  0  0  0  1  0  0  0  0  0  0
  184.0680  174.0760  137.6120 C   0  0  0  0  0  2  0  0  0  0  0  0
  1 21  1  1  0  0  0
  1  9  1  0  0  0  0
  2 19  1  0  0  0  0
  4  9  1  6  0  0  0
  4 27  1  0  0  0  0
  5 21  1  6  0  0  0
  5  4  1  0  0  0  0
  5  2  1  0  0  0  0
  6 23  1  0  0  0  0
  7 16  1  0  0  0  0
  8 24  1  0  0  0  0
  9  3  2  0  0  0  0
 10 12  1  0  0  0  0
 11 45  1  6  0  0  0
 11 10  1  0  0  0  0
 12  1  1  0  0  0  0
 13 25  1  0  0  0  0
 14 25  2  0  0  0  0
 15 20  1  0  0  0  0
 17 22  1  0  0  0  0
 17  8  2  0  0  0  0
 18 16  1  0  0  0  0
 19 18  2  0  0  0  0
 20 28  1  0  0  0  0
 22 15  2  0  0  0  0
 23 11  1  0  0  0  0
 24 20  2  0  0  0  0
 24  3  1  0  0  0  0
 25 17  1  0  0  0  0
 26  6  1  0  0  0  0
 26 13  1  0  0  0  0
 27 19  1  0  0  0  0
 27  7  2  0  0  0  0
 29 14  1  0  0  0  0
 30 29  1  0  0  0  0
 30 31  1  0  0  0  0
 32 44  1  6  0  0  0
 32 35  1  0  0  0  0
 33 32  1  0  0  0  0
 33 34  1  0  0  0  0
 34 31  1  1  0  0  0
 34 36  1  0  0  0  0
 35 37  1  1  0  0  0
 36 35  1  0  0  0  0
 37 40  1  0  0  0  0
 37 38  1  0  0  0  0
 39 37  1  0  0  0  0
 42 44  1  0  0  0  0
 43 42  1  0  0  0  0
 44 41  2  0  0  0  0
 46 49  1  0  0  0  0
 48 47  2  0  0  0  0
 49 51  2  0  0  0  0
 49 50  1  0  0  0  0
 50 52  2  0  0  0  0
 51 48  1  0  0  0  0
 52 47  1  0  0  0  0
 52 45  1  0  0  0  0
 53 50  1  0  0  0  0
 54 55  2  0  0  0  0
 55 53  1  0  0  0  0
 56 55  1  0  0  0  0
 56 57  1  0  0  0  0
 57 58  1  0  0  0  0
 58 59  1  0  0  0  0
 59 61  1  0  0  0  0
 61 60  1  0  0  0  0
M  END
>  <MODEL>
7

>  <REMARK>
 VINA RESULT:      -4.7      3.492      8.561
  Name = 
  15 active torsions:
  status: ('A' for Active; 'I' for Inactive)
    1  A    between atoms: C_1  and  C_8
    2  A    between atoms: C_1  and  C_25
    3  A    between atoms: O_2  and  C_58
    4  A    between atoms: O_2  and  O_59
    5  A    between atoms: C_8  and  C_26
    6  A    between atoms: C_9  and  C_57
    7  A    between atoms: C_11  and  C_49
    8  A    between atoms: C_11  and  C_58
    9  A    between atoms: C_20  and  C_29
   10  A    between atoms: C_21  and  N_35
   11  A    between atoms: C_23  and  C_37
   12  A    between atoms: C_23  and  O_59
   13  A    between atoms: C_25  and  C_28
   14  A    between atoms: N_35  and  C_55
   15  A    between atoms: C_37  and  C_47
                            x       y       z     vdW  Elec       q    Type
                         _______ _______ _______ _____ _____    ______ ____

>  <TORSDO>
F 15

$$$$
=
 OpenBabel11042413173D

 61 67  0  0  1  0  0  0  0  0999 V2000
  188.9700  176.8360  142.5770 C   0  0  1  0  0  3  0  0  0  0  0  0
  191.6810  176.3710  145.4380 S   0  0  0  0  0  0  0  0  0  0  0  0
  187.5490  178.5130  143.7120 N   0  0  0  0  0  0  0  0  0  0  0  0
  189.8640  178.2590  144.4080 C   0  0  1  0  0  3  0  0  0  0  0  0
  190.9550  177.2550  143.9780 C   0  0  2  0  0  3  0  0  0  0  0  0
  187.4740  177.5110  137.9760 C   0  0  0  0  0  2  0  0  0  0  0  0
  189.0470  178.7330  146.8350 C   0  0  0  0  0  3  0  0  0  0  0  0
  186.3100  178.5560  141.5780 C   0  0  0  0  0  3  0  0  0  0  0  0
  188.7010  177.9300  143.5490 C   0  0  0  0  0  0  0  0  0  0  0  0
  188.9280  176.3560  140.3960 C   0  0  0  0  0  2  0  0  0  0  0  0
  189.5960  176.7070  139.0740 C   0  0  2  0  0  3  0  0  0  0  0  0
  189.1500  177.3930  141.3080 O   0  0  0  0  0  0  0  0  0  0  0  0
  186.1730  179.5050  138.7650 C   0  0  0  0  0  2  0  0  0  0  0  0
  183.8900  178.5310  138.7540 C   0  0  0  0  0  3  0  0  0  0  0  0
  184.0100  177.6740  142.9080 C   0  0  0  0  0  3  0  0  0  0  0  0
  189.5490  178.2590  147.9640 O   0  0  0  0  0  0  0  0  0  0  0  0
  185.1080  178.4080  140.8590 C   0  0  0  0  0  0  0  0  0  0  0  0
  190.4150  177.3030  147.7610 N   0  0  0  0  0  0  0  0  0  0  0  0
  190.4150  177.0960  146.4370 C   0  0  0  0  0  0  0  0  0  0  0  0
  185.2040  177.8340  143.6130 C   0  0  0  0  0  0  0  0  0  0  0  0
  190.2870  176.2350  143.0610 C   0  0  0  0  0  2  0  0  0  0  0  0
  183.9630  177.9590  141.5430 C   0  0  0  0  0  3  0  0  0  0  0  0
  188.8840  177.8800  138.4070 C   0  0  0  0  0  2  0  0  0  0  0  0
  186.3640  178.2580  142.9500 C   0  0  0  0  0  0  0  0  0  0  0  0
  185.0250  178.7770  139.4210 C   0  0  0  0  0  0  0  0  0  0  0  0
  186.7200  178.7560  137.5550 C   0  0  0  0  0  2  0  0  0  0  0  0
  189.5980  177.9660  145.8330 C   0  0  0  0  0  0  0  0  0  0  0  0
  185.2320  177.5640  144.9760 O   0  0  0  0  0  1  0  0  0  0  0  0
  183.6380  178.9200  137.3340 C   0  0  0  0  0  2  0  0  0  0  0  0
  182.2120  178.5690  136.9330 C   0  0  0  0  0  2  0  0  0  0  0  0
  181.2140  179.5860  137.4750 C   0  0  0  0  0  2  0  0  0  0  0  0
  180.1750  177.7650  139.9670 C   0  0  1  0  0  3  0  0  0  0  0  0
  180.0820  177.2190  138.2550 S   0  0  0  0  0  0  0  0  0  0  0  0
  179.8630  178.9430  137.7640 C   0  0  1  0  0  3  0  0  0  0  0  0
  179.3230  179.0190  140.1020 C   0  0  2  0  0  3  0  0  0  0  0  0
  179.1550  179.6820  138.8070 N   0  0  0  0  0  2  0  0  0  0  0  0
  179.9060  179.9930  141.1280 C   0  0  0  0  0  0  0  0  0  0  0  0
  179.1150  180.0230  142.2620 F   0  0  0  0  0  0  0  0  0  0  0  0
  179.9460  181.2640  140.5810 F   0  0  0  0  0  0  0  0  0  0  0  0
  181.1920  179.6090  141.4770 F   0  0  0  0  0  0  0  0  0  0  0  0
  179.3150  176.9710  142.0530 O   0  0  0  0  0  0  0  0  0  0  0  0
  179.6570  175.3400  140.4180 N   0  0  0  0  0  2  0  0  0  0  0  0
  179.2110  174.2460  141.2640 C   0  0  0  0  0  1  0  0  0  0  0  0
  179.6910  176.6880  140.8830 C   0  0  0  0  0  0  0  0  0  0  0  0
  189.6330  175.5590  138.1760 N   0  0  0  0  0  2  0  0  0  0  0  0
  191.8960  172.2520  135.3740 O   0  0  0  0  0  1  0  0  0  0  0  0
  192.0610  175.6800  137.7750 C   0  0  0  0  0  3  0  0  0  0  0  0
  193.2200  175.1780  137.1820 C   0  0  0  0  0  3  0  0  0  0  0  0
  191.9370  173.3810  136.1850 C   0  0  0  0  0  0  0  0  0  0  0  0
  190.7660  173.8710  136.7960 C   0  0  0  0  0  0  0  0  0  0  0  0
  193.1580  174.0320  136.3870 C   0  0  0  0  0  3  0  0  0  0  0  0
  190.8280  175.0340  137.5870 C   0  0  0  0  0  0  0  0  0  0  0  0
  189.4380  173.2140  136.5480 C   0  0  0  0  0  2  0  0  0  0  0  0
  188.9440  174.5000  134.5940 O   0  0  0  0  0  0  0  0  0  0  0  0
  188.5390  174.0620  135.7030 C   0  0  0  0  0  0  0  0  0  0  0  0
  187.2380  174.3410  136.1200 O   0  0  0  0  0  0  0  0  0  0  0  0
  186.4440  173.3670  136.5820 O   0  0  0  0  0  0  0  0  0  0  0  0
  185.3900  174.0240  137.2170 C   0  0  0  0  0  2  0  0  0  0  0  0
  184.1670  173.1270  137.2190 C   0  0  0  0  0  2  0  0  0  0  0  0
  183.3160  175.0920  136.1560 O   0  0  0  0  0  1  0  0  0  0  0  0
  183.0670  173.7370  136.3710 C   0  0  0  0  0  2  0  0  0  0  0  0
  1 21  1  1  0  0  0
  1  9  1  0  0  0  0
  2 19  1  0  0  0  0
  4  9  1  6  0  0  0
  4 27  1  0  0  0  0
  5 21  1  6  0  0  0
  5  4  1  0  0  0  0
  5  2  1  0  0  0  0
  6 23  1  0  0  0  0
  7 16  1  0  0  0  0
  8 24  1  0  0  0  0
  9  3  2  0  0  0  0
 10 12  1  0  0  0  0
 11 45  1  6  0  0  0
 11 10  1  0  0  0  0
 12  1  1  0  0  0  0
 13 25  1  0  0  0  0
 14 25  2  0  0  0  0
 15 20  1  0  0  0  0
 17 22  1  0  0  0  0
 17  8  2  0  0  0  0
 18 16  1  0  0  0  0
 19 18  2  0  0  0  0
 20 28  1  0  0  0  0
 22 15  2  0  0  0  0
 23 11  1  0  0  0  0
 24 20  2  0  0  0  0
 24  3  1  0  0  0  0
 25 17  1  0  0  0  0
 26  6  1  0  0  0  0
 26 13  1  0  0  0  0
 27 19  1  0  0  0  0
 27  7  2  0  0  0  0
 29 14  1  0  0  0  0
 30 29  1  0  0  0  0
 30 31  1  0  0  0  0
 32 35  1  0  0  0  0
 32 44  1  1  0  0  0
 33 32  1  0  0  0  0
 34 31  1  1  0  0  0
 34 33  1  0  0  0  0
 34 36  1  0  0  0  0
 35 37  1  1  0  0  0
 36 35  1  0  0  0  0
 37 40  1  0  0  0  0
 37 38  1  0  0  0  0
 39 37  1  0  0  0  0
 42 44  1  0  0  0  0
 42 43  1  0  0  0  0
 44 41  2  0  0  0  0
 46 49  1  0  0  0  0
 48 47  2  0  0  0  0
 49 51  2  0  0  0  0
 49 50  1  0  0  0  0
 50 52  2  0  0  0  0
 51 48  1  0  0  0  0
 52 47  1  0  0  0  0
 52 45  1  0  0  0  0
 53 50  1  0  0  0  0
 54 55  2  0  0  0  0
 55 56  1  0  0  0  0
 55 53  1  0  0  0  0
 56 57  1  0  0  0  0
 57 58  1  0  0  0  0
 58 59  1  0  0  0  0
 60 61  1  0  0  0  0
 61 59  1  0  0  0  0
M  END
>  <MODEL>
8

>  <REMARK>
 VINA RESULT:      -4.6      3.150      8.174
  Name = 
  15 active torsions:
  status: ('A' for Active; 'I' for Inactive)
    1  A    between atoms: C_1  and  C_8
    2  A    between atoms: C_1  and  C_25
    3  A    between atoms: O_2  and  C_58
    4  A    between atoms: O_2  and  O_59
    5  A    between atoms: C_8  and  C_26
    6  A    between atoms: C_9  and  C_57
    7  A    between atoms: C_11  and  C_49
    8  A    between atoms: C_11  and  C_58
    9  A    between atoms: C_20  and  C_29
   10  A    between atoms: C_21  and  N_35
   11  A    between atoms: C_23  and  C_37
   12  A    between atoms: C_23  and  O_59
   13  A    between atoms: C_25  and  C_28
   14  A    between atoms: N_35  and  C_55
   15  A    between atoms: C_37  and  C_47
                            x       y       z     vdW  Elec       q    Type
                         _______ _______ _______ _____ _____    ______ ____

>  <TORSDO>
F 15

$$$$
=
 OpenBabel11042413173D

 61 67  0  0  1  0  0  0  0  0999 V2000
  188.9640  177.7360  139.0950 C   0  0  1  0  0  3  0  0  0  0  0  0
  192.7830  177.1130  139.9800 S   0  0  0  0  0  0  0  0  0  0  0  0
  188.8900  176.4780  136.9660 N   0  0  0  0  0  0  0  0  0  0  0  0
  190.6260  175.9590  138.5860 C   0  0  1  0  0  3  0  0  0  0  0  0
  190.9960  176.6180  139.9320 C   0  0  2  0  0  3  0  0  0  0  0  0
  184.1810  177.9410  140.0640 C   0  0  0  0  0  2  0  0  0  0  0  0
  192.2090  175.5500  136.5590 C   0  0  0  0  0  3  0  0  0  0  0  0
  186.4770  176.9950  137.0220 C   0  0  0  0  0  3  0  0  0  0  0  0
  189.4210  176.6970  138.1330 C   0  0  0  0  0  0  0  0  0  0  0  0
  187.1900  178.3910  140.2830 C   0  0  0  0  0  2  0  0  0  0  0  0
  186.2940  177.9680  141.4390 C   0  0  2  0  0  3  0  0  0  0  0  0
  187.8380  177.2620  139.7730 O   0  0  0  0  0  0  0  0  0  0  0  0
  183.7950  176.3750  138.1430 C   0  0  0  0  0  2  0  0  0  0  0  0
  182.9370  177.9920  136.4670 C   0  0  0  0  0  3  0  0  0  0  0  0
  186.7360  178.4150  134.6240 C   0  0  0  0  0  3  0  0  0  0  0  0
  193.5160  175.7510  136.5010 O   0  0  0  0  0  0  0  0  0  0  0  0
  185.3340  177.5610  136.4260 C   0  0  0  0  0  0  0  0  0  0  0  0
  193.9640  176.4140  137.5340 N   0  0  0  0  0  0  0  0  0  0  0  0
  192.8800  176.7230  138.2580 C   0  0  0  0  0  0  0  0  0  0  0  0
  187.8610  177.8420  135.2180 C   0  0  0  0  0  0  0  0  0  0  0  0
  190.1300  177.8670  140.0710 C   0  0  0  0  0  2  0  0  0  0  0  0
  185.4840  178.2750  135.2220 C   0  0  0  0  0  3  0  0  0  0  0  0
  185.1260  177.1270  140.9330 C   0  0  0  0  0  2  0  0  0  0  0  0
  187.7410  177.1440  136.4290 C   0  0  0  0  0  0  0  0  0  0  0  0
  183.9830  177.3580  137.0130 C   0  0  0  0  0  0  0  0  0  0  0  0
  183.1870  177.0240  139.3820 C   0  0  0  0  0  2  0  0  0  0  0  0
  191.7840  176.1960  137.6990 C   0  0  0  0  0  0  0  0  0  0  0  0
  189.0990  177.9740  134.6020 O   0  0  0  0  0  1  0  0  0  0  0  0
  181.5180  177.8200  136.9010 C   0  0  0  0  0  2  0  0  0  0  0  0
  180.6050  177.6970  135.6890 C   0  0  0  0  0  2  0  0  0  0  0  0
  180.9190  176.4440  134.8790 C   0  0  0  0  0  2  0  0  0  0  0  0
  180.3790  173.6060  136.3810 C   0  0  1  0  0  3  0  0  0  0  0  0
  180.2970  173.7930  134.5940 S   0  0  0  0  0  0  0  0  0  0  0  0
  179.7300  175.4900  134.8440 C   0  0  1  0  0  3  0  0  0  0  0  0
  179.3150  174.5050  136.9940 C   0  0  2  0  0  3  0  0  0  0  0  0
  178.9540  175.5900  136.0770 N   0  0  0  0  0  2  0  0  0  0  0  0
  179.7610  175.0730  138.3430 C   0  0  0  0  0  0  0  0  0  0  0  0
  179.3660  176.3940  138.4570 F   0  0  0  0  0  0  0  0  0  0  0  0
  181.1400  175.0130  138.4320 F   0  0  0  0  0  0  0  0  0  0  0  0
  179.2060  174.3390  139.3800 F   0  0  0  0  0  0  0  0  0  0  0  0
  180.6760  171.7160  137.8160 O   0  0  0  0  0  0  0  0  0  0  0  0
  179.3530  171.3480  135.9290 N   0  0  0  0  0  2  0  0  0  0  0  0
  179.1120  169.9490  136.2380 C   0  0  0  0  0  1  0  0  0  0  0  0
  180.1580  172.1780  136.7640 C   0  0  0  0  0  0  0  0  0  0  0  0
  185.8040  179.1230  142.1810 N   0  0  0  0  0  2  0  0  0  0  0  0
  186.1650  178.4050  147.0050 O   0  0  0  0  0  1  0  0  0  0  0  0
  183.8340  179.3220  143.6480 C   0  0  0  0  0  3  0  0  0  0  0  0
  183.2550  179.2720  144.9160 C   0  0  0  0  0  3  0  0  0  0  0  0
  185.4020  178.6940  145.8790 C   0  0  0  0  0  0  0  0  0  0  0  0
  185.9900  178.7240  144.5990 C   0  0  0  0  0  0  0  0  0  0  0  0
  184.0380  178.9610  146.0300 C   0  0  0  0  0  3  0  0  0  0  0  0
  185.2010  179.0510  143.4780 C   0  0  0  0  0  0  0  0  0  0  0  0
  187.4640  178.4920  144.4250 C   0  0  0  0  0  2  0  0  0  0  0  0
  186.8980  176.2090  143.9960 O   0  0  0  0  0  0  0  0  0  0  0  0
  187.7950  177.0370  144.3070 C   0  0  0  0  0  0  0  0  0  0  0  0
  189.1020  176.5940  144.5060 O   0  0  0  0  0  0  0  0  0  0  0  0
  189.7410  175.9020  143.5540 O   0  0  0  0  0  0  0  0  0  0  0  0
  191.0840  175.9160  143.9310 C   0  0  0  0  0  2  0  0  0  0  0  0
  191.2980  176.9850  144.9860 C   0  0  0  0  0  2  0  0  0  0  0  0
  191.7250  177.3260  147.3130 O   0  0  0  0  0  1  0  0  0  0  0  0
  191.5940  176.3460  146.3300 C   0  0  0  0  0  2  0  0  0  0  0  0
  1 12  1  0  0  0  0
  1 21  1  1  0  0  0
  3  9  2  0  0  0  0
  4 27  1  6  0  0  0
  4  5  1  0  0  0  0
  5  2  1  0  0  0  0
  5 21  1  6  0  0  0
  6 23  1  0  0  0  0
  7 27  2  0  0  0  0
  9  4  1  0  0  0  0
  9  1  1  0  0  0  0
 10 11  1  0  0  0  0
 11 45  1  6  0  0  0
 12 10  1  0  0  0  0
 13 26  1  0  0  0  0
 14 29  1  0  0  0  0
 14 25  2  0  0  0  0
 15 20  1  0  0  0  0
 15 22  2  0  0  0  0
 16  7  1  0  0  0  0
 16 18  1  0  0  0  0
 17 25  1  0  0  0  0
 17  8  2  0  0  0  0
 18 19  2  0  0  0  0
 19  2  1  0  0  0  0
 20 24  2  0  0  0  0
 22 17  1  0  0  0  0
 23 11  1  0  0  0  0
 24  3  1  0  0  0  0
 24  8  1  0  0  0  0
 25 13  1  0  0  0  0
 26  6  1  0  0  0  0
 27 19  1  0  0  0  0
 28 20  1  0  0  0  0
 30 29  1  0  0  0  0
 31 30  1  0  0  0  0
 32 44  1  6  0  0  0
 32 35  1  0  0  0  0
 33 34  1  0  0  0  0
 33 32  1  0  0  0  0
 34 31  1  1  0  0  0
 34 36  1  0  0  0  0
 35 37  1  1  0  0  0
 36 35  1  0  0  0  0
 37 39  1  0  0  0  0
 37 38  1  0  0  0  0
 37 40  1  0  0  0  0
 42 43  1  0  0  0  0
 42 44  1  0  0  0  0
 44 41  2  0  0  0  0
 45 52  1  0  0  0  0
 47 48  1  0  0  0  0
 48 51  2  0  0  0  0
 49 51  1  0  0  0  0
 49 46  1  0  0  0  0
 50 49  2  0  0  0  0
 52 47  2  0  0  0  0
 52 50  1  0  0  0  0
 53 50  1  0  0  0  0
 54 55  2  0  0  0  0
 55 53  1  0  0  0  0
 55 56  1  0  0  0  0
 57 58  1  0  0  0  0
 57 56  1  0  0  0  0
 58 59  1  0  0  0  0
 59 61  1  0  0  0  0
 61 60  1  0  0  0  0
M  END
>  <MODEL>
9

>  <REMARK>
 VINA RESULT:      -4.5      3.828      9.144
  Name = 
  15 active torsions:
  status: ('A' for Active; 'I' for Inactive)
    1  A    between atoms: C_1  and  C_8
    2  A    between atoms: C_1  and  C_25
    3  A    between atoms: O_2  and  C_58
    4  A    between atoms: O_2  and  O_59
    5  A    between atoms: C_8  and  C_26
    6  A    between atoms: C_9  and  C_57
    7  A    between atoms: C_11  and  C_49
    8  A    between atoms: C_11  and  C_58
    9  A    between atoms: C_20  and  C_29
   10  A    between atoms: C_21  and  N_35
   11  A    between atoms: C_23  and  C_37
   12  A    between atoms: C_23  and  O_59
   13  A    between atoms: C_25  and  C_28
   14  A    between atoms: N_35  and  C_55
   15  A    between atoms: C_37  and  C_47
                            x       y       z     vdW  Elec       q    Type
                         _______ _______ _______ _____ _____    ______ ____

>  <TORSDO>
F 15

$$$$
