=
 OpenBabel11032420143D

 36 40  0  0  1  0  0  0  0  0999 V2000
  181.5240  179.6530  139.6850 N   0  0  0  0  0  2  0  0  0  0  0  0
  182.5060  180.0970  138.7430 C   0  0  0  0  0  3  0  0  0  0  0  0
  183.4970  179.3240  138.4100 N   0  0  0  0  0  0  0  0  0  0  0  0
  183.6240  177.9320  138.8740 C   0  0  1  0  0  3  0  0  0  0  0  0
  180.9010  178.0410  141.2460 O   0  0  0  0  0  0  0  0  0  0  0  0
  181.7700  178.4710  140.4450 C   0  0  0  0  0  0  0  0  0  0  0  0
  183.0950  177.7790  140.3180 C   0  0  2  0  0  3  0  0  0  0  0  0
  183.0760  175.6460  138.4550 C   0  0  0  0  0  2  0  0  0  0  0  0
  183.5890  177.0700  136.6510 C   0  0  1  0  0  3  0  0  0  0  0  0
  182.9190  174.5780  136.2110 C   0  0  0  0  0  2  0  0  0  0  0  0
  183.7980  174.7890  137.4350 C   0  0  1  0  0  3  0  0  0  0  0  0
  182.9270  177.0180  137.9550 N   0  0  2  0  0  0  0  0  0  0  0  0
  183.9720  175.6660  136.2320 C   0  0  2  0  0  0  0  0  0  0  0  0
  182.6620  177.6970  135.6220 C   0  0  0  0  0  1  0  0  0  0  0  0
  185.2880  175.4030  135.5260 C   0  0  0  0  0  2  0  0  0  0  0  0
  186.1700  176.5440  135.6910 N   0  0  0  0  0  2  0  0  0  0  0  0
  187.4650  176.0160  136.0880 C   0  0  0  0  0  2  0  0  0  0  0  0
  187.7850  176.4060  137.5290 C   0  0  2  0  0  3  0  0  0  0  0  0
  186.7320  177.1400  138.0490 F   0  0  0  0  0  0  0  0  0  0  0  0
  189.1010  177.1880  137.6370 C   0  0  1  0  0  3  0  0  0  0  0  0
  188.5950  179.5930  137.2110 O   0  0  0  0  0  0  0  0  0  0  0  0
  188.8580  178.5830  138.1250 C   0  0  0  0  0  0  0  0  0  0  0  0
  188.8900  178.8480  139.3570 O   0  0  0  0  0  1  0  0  0  0  0  0
  190.0730  176.5100  138.5550 C   0  0  0  0  0  3  0  0  0  0  0  0
  190.5070  175.3320  138.2970 N   0  0  0  0  0  2  0  0  0  0  0  0
  185.2200  178.6110  143.0360 C   0  0  0  0  0  0  0  0  0  0  0  0
  184.8850  179.3300  141.0970 O   0  0  0  0  0  0  0  0  0  0  0  0
  185.6090  179.5480  142.1500 N   0  0  0  0  0  0  0  0  0  0  0  0
  184.0910  178.3080  141.3070 C   0  0  0  0  0  0  0  0  0  0  0  0
  184.2560  177.8030  142.5450 N   0  0  0  0  0  0  0  0  0  0  0  0
  185.7930  178.4720  144.3840 C   0  0  0  0  0  0  0  0  0  0  0  0
  185.1220  179.0030  145.4960 C   0  0  0  0  0  3  0  0  0  0  0  0
  187.0100  177.8040  144.5710 C   0  0  0  0  0  3  0  0  0  0  0  0
  185.6630  178.8630  146.7780 C   0  0  0  0  0  3  0  0  0  0  0  0
  186.8750  178.1940  146.9570 C   0  0  0  0  0  3  0  0  0  0  0  0
  187.5500  177.6650  145.8530 C   0  0  0  0  0  3  0  0  0  0  0  0
  1  6  1  0  0  0  0
  2  1  1  0  0  0  0
  3  2  2  0  0  0  0
  4  3  1  6  0  0  0
  4  7  1  0  0  0  0
  6  5  2  0  0  0  0
  7  6  1  0  0  0  0
  7 29  1  1  0  0  0
  9 14  1  6  0  0  0
  9 12  1  0  0  0  0
 10 13  1  0  0  0  0
 11 10  1  6  0  0  0
 11  8  1  0  0  0  0
 12  8  1  1  0  0  0
 12  4  1  0  0  0  0
 13 15  1  6  0  0  0
 13  9  1  0  0  0  0
 13 11  1  0  0  0  0
 15 16  1  0  0  0  0
 16 17  1  0  0  0  0
 17 18  1  0  0  0  0
 18 20  1  0  0  0  0
 18 19  1  6  0  0  0
 20 22  1  0  0  0  0
 20 24  1  1  0  0  0
 21 22  2  0  0  0  0
 22 23  1  0  0  0  0
 25 24  2  0  0  0  0
 26 31  1  0  0  0  0
 27 29  1  0  0  0  0
 27 28  1  0  0  0  0
 28 26  2  0  0  0  0
 29 30  2  0  0  0  0
 30 26  1  0  0  0  0
 31 33  2  0  0  0  0
 31 32  1  0  0  0  0
 32 34  2  0  0  0  0
 33 36  1  0  0  0  0
 34 35  1  0  0  0  0
 36 35  2  0  0  0  0
M  END
>  <MODEL>
1

>  <REMARK>
 VINA RESULT:      -7.5      0.000      0.000
  Name = 
  10 active torsions:
  status: ('A' for Active; 'I' for Inactive)
    1  A    between atoms: C_2  and  C_4
    2  A    between atoms: N_6  and  C_7
    3  A    between atoms: N_6  and  C_18
    4  A    between atoms: C_7  and  C_30
    5  A    between atoms: C_13  and  N_27
    6  A    between atoms: C_14  and  C_17
    7  A    between atoms: C_14  and  C_20
    8  A    between atoms: C_14  and  C_29
    9  A    between atoms: C_17  and  C_18
   10  A    between atoms: C_19  and  C_32
                            x       y       z     vdW  Elec       q    Type
                         _______ _______ _______ _____ _____    ______ ____

>  <TORSDO>
F 10

$$$$
=
 OpenBabel11032420143D

 36 40  0  0  1  0  0  0  0  0999 V2000
  189.9520  177.7290  136.7760 N   0  0  0  0  0  2  0  0  0  0  0  0
  189.9210  176.3010  136.8570 C   0  0  0  0  0  3  0  0  0  0  0  0
  188.9260  175.6950  137.4350 N   0  0  0  0  0  0  0  0  0  0  0  0
  187.7350  176.4000  137.9370 C   0  0  1  0  0  3  0  0  0  0  0  0
  189.0090  179.7470  137.4570 O   0  0  0  0  0  0  0  0  0  0  0  0
  189.0260  178.4930  137.5470 C   0  0  0  0  0  0  0  0  0  0  0  0
  188.1110  177.7880  138.5040 C   0  0  2  0  0  3  0  0  0  0  0  0
  186.0600  177.8230  137.0030 C   0  0  0  0  0  2  0  0  0  0  0  0
  185.6960  175.4980  137.0900 C   0  0  1  0  0  3  0  0  0  0  0  0
  183.9040  177.0700  136.0090 C   0  0  0  0  0  2  0  0  0  0  0  0
  184.5770  177.6380  137.2500 C   0  0  1  0  0  3  0  0  0  0  0  0
  186.7220  176.5190  136.8760 N   0  0  2  0  0  0  0  0  0  0  0  0
  184.3360  176.1630  137.1420 C   0  0  2  0  0  0  0  0  0  0  0  0
  185.7430  174.4710  135.9710 C   0  0  0  0  0  1  0  0  0  0  0  0
  183.2810  175.6880  138.1210 C   0  0  0  0  0  2  0  0  0  0  0  0
  182.4730  176.8140  138.5560 N   0  0  0  0  0  2  0  0  0  0  0  0
  182.5200  176.8250  140.0080 C   0  0  0  0  0  2  0  0  0  0  0  0
  181.9790  178.1440  140.5540 C   0  0  2  0  0  3  0  0  0  0  0  0
  181.4810  178.9020  139.5070 F   0  0  0  0  0  0  0  0  0  0  0  0
  183.0430  178.9260  141.3360 C   0  0  1  0  0  3  0  0  0  0  0  0
  181.6810  178.6690  143.4090 O   0  0  0  0  0  0  0  0  0  0  0  0
  182.9310  178.6620  142.8060 C   0  0  0  0  0  0  0  0  0  0  0  0
  183.9580  178.4350  143.4990 O   0  0  0  0  0  1  0  0  0  0  0  0
  184.4290  178.5790  140.8800 C   0  0  0  0  0  3  0  0  0  0  0  0
  185.1310  179.4210  140.2160 N   0  0  0  0  0  2  0  0  0  0  0  0
  189.0140  177.5790  141.9300 C   0  0  0  0  0  0  0  0  0  0  0  0
  190.0110  177.4810  140.0900 O   0  0  0  0  0  0  0  0  0  0  0  0
  190.2280  177.4250  141.3670 N   0  0  0  0  0  0  0  0  0  0  0  0
  188.7310  177.6530  139.8640 C   0  0  0  0  0  0  0  0  0  0  0  0
  188.0340  177.7300  141.0150 N   0  0  0  0  0  0  0  0  0  0  0  0
  188.7790  177.5670  143.3830 C   0  0  0  0  0  0  0  0  0  0  0  0
  187.4710  177.5260  143.8880 C   0  0  0  0  0  3  0  0  0  0  0  0
  189.8600  177.5910  144.2750 C   0  0  0  0  0  3  0  0  0  0  0  0
  187.2480  177.5060  145.2680 C   0  0  0  0  0  3  0  0  0  0  0  0
  188.3300  177.5280  146.1510 C   0  0  0  0  0  3  0  0  0  0  0  0
  189.6360  177.5720  145.6550 C   0  0  0  0  0  3  0  0  0  0  0  0
  1  2  1  0  0  0  0
  1  6  1  0  0  0  0
  2  3  2  0  0  0  0
  4  3  1  6  0  0  0
  4  7  1  0  0  0  0
  5  6  2  0  0  0  0
  6  7  1  0  0  0  0
  7 29  1  1  0  0  0
  8 11  1  0  0  0  0
  9 14  1  6  0  0  0
  9 13  1  0  0  0  0
 10 13  1  0  0  0  0
 11 10  1  6  0  0  0
 12  8  1  1  0  0  0
 12  9  1  0  0  0  0
 12  4  1  0  0  0  0
 13 11  1  0  0  0  0
 13 15  1  1  0  0  0
 15 16  1  0  0  0  0
 16 17  1  0  0  0  0
 17 18  1  0  0  0  0
 18 19  1  6  0  0  0
 18 20  1  0  0  0  0
 20 24  1  6  0  0  0
 20 22  1  0  0  0  0
 22 21  2  0  0  0  0
 22 23  1  0  0  0  0
 25 24  2  0  0  0  0
 26 31  1  0  0  0  0
 27 28  1  0  0  0  0
 28 26  2  0  0  0  0
 29 27  1  0  0  0  0
 29 30  2  0  0  0  0
 30 26  1  0  0  0  0
 31 32  2  0  0  0  0
 31 33  1  0  0  0  0
 32 34  1  0  0  0  0
 33 36  2  0  0  0  0
 34 35  2  0  0  0  0
 36 35  1  0  0  0  0
M  END
>  <MODEL>
2

>  <REMARK>
 VINA RESULT:      -7.4      2.039      5.548
  Name = 
  10 active torsions:
  status: ('A' for Active; 'I' for Inactive)
    1  A    between atoms: C_2  and  C_4
    2  A    between atoms: N_6  and  C_7
    3  A    between atoms: N_6  and  C_18
    4  A    between atoms: C_7  and  C_30
    5  A    between atoms: C_13  and  N_27
    6  A    between atoms: C_14  and  C_17
    7  A    between atoms: C_14  and  C_20
    8  A    between atoms: C_14  and  C_29
    9  A    between atoms: C_17  and  C_18
   10  A    between atoms: C_19  and  C_32
                            x       y       z     vdW  Elec       q    Type
                         _______ _______ _______ _____ _____    ______ ____

>  <TORSDO>
F 10

$$$$
=
 OpenBabel11032420143D

 36 40  0  0  1  0  0  0  0  0999 V2000
  189.8120  177.7740  136.8710 N   0  0  0  0  0  2  0  0  0  0  0  0
  189.6920  176.3510  136.9660 C   0  0  0  0  0  3  0  0  0  0  0  0
  188.6710  175.8140  137.5680 N   0  0  0  0  0  0  0  0  0  0  0  0
  187.5360  176.5980  138.0840 C   0  0  1  0  0  3  0  0  0  0  0  0
  189.0100  179.8530  137.5500 O   0  0  0  0  0  0  0  0  0  0  0  0
  188.9500  178.6010  137.6520 C   0  0  0  0  0  0  0  0  0  0  0  0
  188.0100  177.9630  138.6310 C   0  0  2  0  0  3  0  0  0  0  0  0
  185.6280  177.8750  137.4290 C   0  0  0  0  0  2  0  0  0  0  0  0
  185.6900  175.5630  136.9840 C   0  0  1  0  0  3  0  0  0  0  0  0
  183.6390  176.9970  136.2160 C   0  0  0  0  0  2  0  0  0  0  0  0
  184.2030  177.3800  137.5750 C   0  0  1  0  0  3  0  0  0  0  0  0
  186.5140  176.7720  137.0400 N   0  0  2  0  0  0  0  0  0  0  0  0
  184.2330  175.9490  137.1330 C   0  0  2  0  0  0  0  0  0  0  0  0
  185.9170  174.8400  135.6660 C   0  0  0  0  0  1  0  0  0  0  0  0
  183.2850  175.0860  137.9420 C   0  0  0  0  0  2  0  0  0  0  0  0
  182.8240  175.8230  139.1060 N   0  0  0  0  0  2  0  0  0  0  0  0
  181.3930  175.5870  139.2080 C   0  0  0  0  0  2  0  0  0  0  0  0
  180.6340  176.9090  139.2720 C   0  0  2  0  0  3  0  0  0  0  0  0
  181.0030  177.7020  138.1980 F   0  0  0  0  0  0  0  0  0  0  0  0
  180.8660  177.6450  140.5980 C   0  0  1  0  0  3  0  0  0  0  0  0
  182.9200  179.0500  140.4380 O   0  0  0  0  0  1  0  0  0  0  0  0
  181.5370  178.9650  140.3700 C   0  0  0  0  0  0  0  0  0  0  0  0
  180.8590  179.9960  140.1170 O   0  0  0  0  0  0  0  0  0  0  0  0
  179.5810  177.8700  141.3380 C   0  0  0  0  0  3  0  0  0  0  0  0
  179.5120  177.6890  142.6040 N   0  0  0  0  0  2  0  0  0  0  0  0
  188.9490  177.6750  142.0420 C   0  0  0  0  0  0  0  0  0  0  0  0
  189.9290  177.6410  140.1900 O   0  0  0  0  0  0  0  0  0  0  0  0
  190.1600  177.5530  141.4630 N   0  0  0  0  0  0  0  0  0  0  0  0
  188.6450  177.8010  139.9810 C   0  0  0  0  0  0  0  0  0  0  0  0
  187.9580  177.8370  141.1400 N   0  0  0  0  0  0  0  0  0  0  0  0
  188.7290  177.6210  143.4960 C   0  0  0  0  0  0  0  0  0  0  0  0
  189.8150  177.7030  144.3800 C   0  0  0  0  0  3  0  0  0  0  0  0
  187.4310  177.4930  144.0110 C   0  0  0  0  0  3  0  0  0  0  0  0
  189.6030  177.6610  145.7620 C   0  0  0  0  0  3  0  0  0  0  0  0
  188.3080  177.5360  146.2680 C   0  0  0  0  0  3  0  0  0  0  0  0
  187.2210  177.4500  145.3920 C   0  0  0  0  0  3  0  0  0  0  0  0
  1  2  1  0  0  0  0
  1  6  1  0  0  0  0
  2  3  2  0  0  0  0
  4  3  1  6  0  0  0
  4  7  1  0  0  0  0
  5  6  2  0  0  0  0
  6  7  1  0  0  0  0
  7 29  1  1  0  0  0
  8 11  1  0  0  0  0
  9 14  1  6  0  0  0
  9 12  1  0  0  0  0
  9 13  1  0  0  0  0
 10 13  1  0  0  0  0
 11 10  1  6  0  0  0
 12  8  1  1  0  0  0
 12  4  1  0  0  0  0
 13 11  1  0  0  0  0
 13 15  1  1  0  0  0
 15 16  1  0  0  0  0
 16 17  1  0  0  0  0
 17 18  1  0  0  0  0
 18 19  1  6  0  0  0
 18 20  1  0  0  0  0
 20 24  1  6  0  0  0
 22 21  1  0  0  0  0
 22 20  1  0  0  0  0
 23 22  2  0  0  0  0
 24 25  2  0  0  0  0
 26 31  1  0  0  0  0
 27 28  1  0  0  0  0
 28 26  2  0  0  0  0
 29 27  1  0  0  0  0
 29 30  2  0  0  0  0
 30 26  1  0  0  0  0
 31 33  2  0  0  0  0
 31 32  1  0  0  0  0
 32 34  2  0  0  0  0
 33 36  1  0  0  0  0
 34 35  1  0  0  0  0
 36 35  2  0  0  0  0
M  END
>  <MODEL>
3

>  <REMARK>
 VINA RESULT:      -7.2      2.199      5.973
  Name = 
  10 active torsions:
  status: ('A' for Active; 'I' for Inactive)
    1  A    between atoms: C_2  and  C_4
    2  A    between atoms: N_6  and  C_7
    3  A    between atoms: N_6  and  C_18
    4  A    between atoms: C_7  and  C_30
    5  A    between atoms: C_13  and  N_27
    6  A    between atoms: C_14  and  C_17
    7  A    between atoms: C_14  and  C_20
    8  A    between atoms: C_14  and  C_29
    9  A    between atoms: C_17  and  C_18
   10  A    between atoms: C_19  and  C_32
                            x       y       z     vdW  Elec       q    Type
                         _______ _______ _______ _____ _____    ______ ____

>  <TORSDO>
F 10

$$$$
=
 OpenBabel11032420143D

 36 40  0  0  1  0  0  0  0  0999 V2000
  192.0330  177.0890  144.6960 N   0  0  0  0  0  2  0  0  0  0  0  0
  191.5010  178.4160  144.7270 C   0  0  0  0  0  3  0  0  0  0  0  0
  190.3010  178.6560  144.2880 N   0  0  0  0  0  0  0  0  0  0  0  0
  189.3790  177.5970  143.8430 C   0  0  1  0  0  3  0  0  0  0  0  0
  191.7770  174.8960  143.9510 O   0  0  0  0  0  0  0  0  0  0  0  0
  191.3490  176.0790  143.9550 C   0  0  0  0  0  0  0  0  0  0  0  0
  190.1470  176.4550  143.1400 C   0  0  2  0  0  3  0  0  0  0  0  0
  187.3580  176.4870  144.4630 C   0  0  0  0  0  2  0  0  0  0  0  0
  188.2000  178.2170  145.8210 C   0  0  1  0  0  3  0  0  0  0  0  0
  186.0230  176.9400  146.5160 C   0  0  0  0  0  2  0  0  0  0  0  0
  186.1490  177.2080  145.0240 C   0  0  1  0  0  3  0  0  0  0  0  0
  188.5940  177.0870  144.9780 N   0  0  2  0  0  0  0  0  0  0  0  0
  186.6970  178.1970  146.0080 C   0  0  2  0  0  0  0  0  0  0  0  0
  188.9040  178.1330  147.1660 C   0  0  0  0  0  1  0  0  0  0  0  0
  185.9030  179.4880  146.0140 C   0  0  0  0  0  2  0  0  0  0  0  0
  184.5600  179.2400  145.5200 N   0  0  0  0  0  2  0  0  0  0  0  0
  184.4890  179.8300  144.1930 C   0  0  0  0  0  2  0  0  0  0  0  0
  183.4190  179.1370  143.3540 C   0  0  2  0  0  3  0  0  0  0  0  0
  182.6370  178.3410  144.1740 F   0  0  0  0  0  0  0  0  0  0  0  0
  184.0260  178.3120  142.2110 C   0  0  1  0  0  3  0  0  0  0  0  0
  182.0040  179.0470  140.9510 O   0  0  0  0  0  1  0  0  0  0  0  0
  183.0450  178.1410  141.0930 C   0  0  0  0  0  0  0  0  0  0  0  0
  183.1540  177.1830  140.2810 O   0  0  0  0  0  0  0  0  0  0  0  0
  185.2750  178.9450  141.6750 C   0  0  0  0  0  3  0  0  0  0  0  0
  185.3130  179.4130  140.4820 N   0  0  0  0  0  2  0  0  0  0  0  0
  190.4700  177.2550  139.6980 C   0  0  0  0  0  0  0  0  0  0  0  0
  191.7340  177.2020  141.3680 O   0  0  0  0  0  0  0  0  0  0  0  0
  191.7390  177.4650  140.0980 N   0  0  0  0  0  0  0  0  0  0  0  0
  190.5270  176.8530  141.7450 C   0  0  0  0  0  0  0  0  0  0  0  0
  189.6660  176.8620  140.7080 N   0  0  0  0  0  0  0  0  0  0  0  0
  190.0070  177.4470  138.3140 C   0  0  0  0  0  0  0  0  0  0  0  0
  190.4300  176.5770  137.2990 C   0  0  0  0  0  3  0  0  0  0  0  0
  189.1350  178.4980  137.9990 C   0  0  0  0  0  3  0  0  0  0  0  0
  189.9820  176.7540  135.9860 C   0  0  0  0  0  3  0  0  0  0  0  0
  189.1120  177.8020  135.6800 C   0  0  0  0  0  3  0  0  0  0  0  0
  188.6890  178.6760  136.6860 C   0  0  0  0  0  3  0  0  0  0  0  0
  1  2  1  0  0  0  0
  3  2  2  0  0  0  0
  4  3  1  1  0  0  0
  4 12  1  0  0  0  0
  5  6  2  0  0  0  0
  6  1  1  0  0  0  0
  7 29  1  6  0  0  0
  7  4  1  0  0  0  0
  7  6  1  0  0  0  0
  9 13  1  0  0  0  0
  9 14  1  1  0  0  0
 11  8  1  6  0  0  0
 11 13  1  0  0  0  0
 11 10  1  0  0  0  0
 12  8  1  6  0  0  0
 12  9  1  0  0  0  0
 13 15  1  1  0  0  0
 13 10  1  0  0  0  0
 16 15  1  0  0  0  0
 17 16  1  0  0  0  0
 18 19  1  1  0  0  0
 18 17  1  0  0  0  0
 20 24  1  6  0  0  0
 20 18  1  0  0  0  0
 21 22  1  0  0  0  0
 22 20  1  0  0  0  0
 23 22  2  0  0  0  0
 25 24  2  0  0  0  0
 26 28  2  0  0  0  0
 26 30  1  0  0  0  0
 27 29  1  0  0  0  0
 28 27  1  0  0  0  0
 30 29  2  0  0  0  0
 31 26  1  0  0  0  0
 32 31  2  0  0  0  0
 33 31  1  0  0  0  0
 34 32  1  0  0  0  0
 35 34  2  0  0  0  0
 35 36  1  0  0  0  0
 36 33  2  0  0  0  0
M  END
>  <MODEL>
4

>  <REMARK>
 VINA RESULT:      -7.2      3.441      8.992
  Name = 
  10 active torsions:
  status: ('A' for Active; 'I' for Inactive)
    1  A    between atoms: C_2  and  C_4
    2  A    between atoms: N_6  and  C_7
    3  A    between atoms: N_6  and  C_18
    4  A    between atoms: C_7  and  C_30
    5  A    between atoms: C_13  and  N_27
    6  A    between atoms: C_14  and  C_17
    7  A    between atoms: C_14  and  C_20
    8  A    between atoms: C_14  and  C_29
    9  A    between atoms: C_17  and  C_18
   10  A    between atoms: C_19  and  C_32
                            x       y       z     vdW  Elec       q    Type
                         _______ _______ _______ _____ _____    ______ ____

>  <TORSDO>
F 10

$$$$
=
 OpenBabel11032420143D

 36 40  0  0  1  0  0  0  0  0999 V2000
  187.5100  179.0710  136.8780 N   0  0  0  0  0  2  0  0  0  0  0  0
  188.9300  179.2420  136.8870 C   0  0  0  0  0  3  0  0  0  0  0  0
  189.7040  178.3060  137.3520 N   0  0  0  0  0  0  0  0  0  0  0  0
  189.2040  176.9900  137.7880 C   0  0  1  0  0  3  0  0  0  0  0  0
  185.6890  177.7970  137.5740 O   0  0  0  0  0  0  0  0  0  0  0  0
  186.9310  177.9890  137.6060 C   0  0  0  0  0  0  0  0  0  0  0  0
  187.8140  177.1190  138.4500 C   0  0  2  0  0  3  0  0  0  0  0  0
  188.5830  174.7870  137.1120 C   0  0  0  0  0  2  0  0  0  0  0  0
  190.5400  175.7630  136.2400 C   0  0  1  0  0  3  0  0  0  0  0  0
  189.8020  173.3750  135.4620 C   0  0  0  0  0  2  0  0  0  0  0  0
  189.5780  173.6560  136.9400 C   0  0  1  0  0  3  0  0  0  0  0  0
  189.1670  176.0530  136.6550 N   0  0  2  0  0  0  0  0  0  0  0  0
  190.7520  174.2640  136.2370 C   0  0  2  0  0  0  0  0  0  0  0  0
  190.7970  176.3390  134.8570 C   0  0  0  0  0  1  0  0  0  0  0  0
  192.0640  173.6690  136.7100 C   0  0  0  0  0  2  0  0  0  0  0  0
  193.0780  173.8380  135.6840 N   0  0  0  0  0  2  0  0  0  0  0  0
  193.9600  174.9000  136.1400 C   0  0  0  0  0  2  0  0  0  0  0  0
  194.3490  174.6850  137.6000 C   0  0  2  0  0  3  0  0  0  0  0  0
  193.9690  175.7910  138.3430 F   0  0  0  0  0  0  0  0  0  0  0  0
  195.8490  174.4070  137.7640 C   0  0  1  0  0  3  0  0  0  0  0  0
  197.2460  172.3490  137.5880 O   0  0  0  0  0  0  0  0  0  0  0  0
  196.0970  172.9610  138.0680 C   0  0  0  0  0  0  0  0  0  0  0  0
  195.2740  172.2970  138.7530 O   0  0  0  0  0  1  0  0  0  0  0  0
  196.6190  174.7890  136.5350 C   0  0  0  0  0  3  0  0  0  0  0  0
  197.4670  175.7480  136.5640 N   0  0  0  0  0  2  0  0  0  0  0  0
  188.5210  177.9270  141.8330 C   0  0  0  0  0  0  0  0  0  0  0  0
  187.2130  178.6190  140.3490 O   0  0  0  0  0  0  0  0  0  0  0  0
  187.5480  178.8260  141.5840 N   0  0  0  0  0  0  0  0  0  0  0  0
  187.9390  177.6490  139.8480 C   0  0  0  0  0  0  0  0  0  0  0  0
  188.7990  177.1560  140.7610 N   0  0  0  0  0  0  0  0  0  0  0  0
  189.2140  177.8080  143.1260 C   0  0  0  0  0  0  0  0  0  0  0  0
  190.5850  178.0860  143.2220 C   0  0  0  0  0  3  0  0  0  0  0  0
  188.5090  177.4220  144.2740 C   0  0  0  0  0  3  0  0  0  0  0  0
  191.2410  177.9820  144.4530 C   0  0  0  0  0  3  0  0  0  0  0  0
  190.5320  177.5980  145.5920 C   0  0  0  0  0  3  0  0  0  0  0  0
  189.1650  177.3170  145.5040 C   0  0  0  0  0  3  0  0  0  0  0  0
  1  2  1  0  0  0  0
  1  6  1  0  0  0  0
  2  3  2  0  0  0  0
  4  3  1  6  0  0  0
  4  7  1  0  0  0  0
  5  6  2  0  0  0  0
  6  7  1  0  0  0  0
  7 29  1  1  0  0  0
  9 14  1  6  0  0  0
  9 12  1  0  0  0  0
 10 13  1  0  0  0  0
 11 10  1  6  0  0  0
 11  8  1  0  0  0  0
 12  8  1  1  0  0  0
 12  4  1  0  0  0  0
 13  9  1  0  0  0  0
 13 15  1  1  0  0  0
 13 11  1  0  0  0  0
 16 17  1  0  0  0  0
 16 15  1  0  0  0  0
 17 18  1  0  0  0  0
 18 20  1  0  0  0  0
 18 19  1  1  0  0  0
 20 24  1  6  0  0  0
 20 22  1  0  0  0  0
 21 22  2  0  0  0  0
 22 23  1  0  0  0  0
 24 25  2  0  0  0  0
 26 31  1  0  0  0  0
 27 28  1  0  0  0  0
 28 26  2  0  0  0  0
 29 27  1  0  0  0  0
 29 30  2  0  0  0  0
 30 26  1  0  0  0  0
 31 32  2  0  0  0  0
 31 33  1  0  0  0  0
 32 34  1  0  0  0  0
 33 36  2  0  0  0  0
 34 35  2  0  0  0  0
 36 35  1  0  0  0  0
M  END
>  <MODEL>
5

>  <REMARK>
 VINA RESULT:      -6.8      4.426      6.367
  Name = 
  10 active torsions:
  status: ('A' for Active; 'I' for Inactive)
    1  A    between atoms: C_2  and  C_4
    2  A    between atoms: N_6  and  C_7
    3  A    between atoms: N_6  and  C_18
    4  A    between atoms: C_7  and  C_30
    5  A    between atoms: C_13  and  N_27
    6  A    between atoms: C_14  and  C_17
    7  A    between atoms: C_14  and  C_20
    8  A    between atoms: C_14  and  C_29
    9  A    between atoms: C_17  and  C_18
   10  A    between atoms: C_19  and  C_32
                            x       y       z     vdW  Elec       q    Type
                         _______ _______ _______ _____ _____    ______ ____

>  <TORSDO>
F 10

$$$$
=
 OpenBabel11032420143D

 36 40  0  0  1  0  0  0  0  0999 V2000
  187.4290  178.5780  136.5030 N   0  0  0  0  0  2  0  0  0  0  0  0
  186.5710  178.2550  137.6000 C   0  0  0  0  0  3  0  0  0  0  0  0
  186.9420  177.3880  138.4960 N   0  0  0  0  0  0  0  0  0  0  0  0
  188.2800  176.7730  138.5140 C   0  0  1  0  0  3  0  0  0  0  0  0
  189.3680  178.0620  135.3180 O   0  0  0  0  0  0  0  0  0  0  0  0
  188.5770  177.7690  136.2520 C   0  0  0  0  0  0  0  0  0  0  0  0
  188.8010  176.5370  137.0780 C   0  0  2  0  0  3  0  0  0  0  0  0
  190.5760  177.0840  139.0890 C   0  0  0  0  0  2  0  0  0  0  0  0
  188.9100  177.4550  140.7110 C   0  0  1  0  0  3  0  0  0  0  0  0
  191.4290  177.8560  141.2970 C   0  0  0  0  0  2  0  0  0  0  0  0
  191.1710  176.6460  140.4120 C   0  0  1  0  0  3  0  0  0  0  0  0
  189.2180  177.6020  139.2870 N   0  0  2  0  0  0  0  0  0  0  0  0
  190.1640  177.0380  141.4490 C   0  0  2  0  0  0  0  0  0  0  0  0
  188.3780  178.7670  141.2650 C   0  0  0  0  0  1  0  0  0  0  0  0
  190.0950  176.0300  142.5800 C   0  0  0  0  0  2  0  0  0  0  0  0
  191.2320  176.2070  143.4660 N   0  0  0  0  0  2  0  0  0  0  0  0
  190.6970  176.6220  144.7520 C   0  0  0  0  0  2  0  0  0  0  0  0
  189.7330  177.7920  144.5810 C   0  0  2  0  0  3  0  0  0  0  0  0
  190.4550  178.9520  144.3540 F   0  0  0  0  0  0  0  0  0  0  0  0
  188.8040  177.9570  145.7910 C   0  0  1  0  0  3  0  0  0  0  0  0
  186.9750  176.8290  144.5260 O   0  0  0  0  0  0  0  0  0  0  0  0
  187.3670  177.8460  145.3840 C   0  0  0  0  0  0  0  0  0  0  0  0
  186.5110  178.6660  145.8120 O   0  0  0  0  0  1  0  0  0  0  0  0
  189.0930  176.9370  146.8530 C   0  0  0  0  0  3  0  0  0  0  0  0
  188.4280  176.9240  147.9480 N   0  0  0  0  0  2  0  0  0  0  0  0
  186.8560  173.7340  136.1000 C   0  0  0  0  0  0  0  0  0  0  0  0
  188.5890  174.6900  135.4160 O   0  0  0  0  0  0  0  0  0  0  0  0
  187.8110  173.6870  135.1520 N   0  0  0  0  0  0  0  0  0  0  0  0
  188.1430  175.3350  136.4670 C   0  0  0  0  0  0  0  0  0  0  0  0
  187.0280  174.7610  136.9590 N   0  0  0  0  0  0  0  0  0  0  0  0
  185.7380  172.7800  136.1830 C   0  0  0  0  0  0  0  0  0  0  0  0
  184.7940  172.8840  137.2150 C   0  0  0  0  0  3  0  0  0  0  0  0
  185.6050  171.7620  135.2300 C   0  0  0  0  0  3  0  0  0  0  0  0
  183.7270  171.9820  137.2880 C   0  0  0  0  0  3  0  0  0  0  0  0
  183.5990  170.9720  136.3330 C   0  0  0  0  0  3  0  0  0  0  0  0
  184.5390  170.8600  135.3040 C   0  0  0  0  0  3  0  0  0  0  0  0
  1  2  1  0  0  0  0
  2  3  2  0  0  0  0
  4  3  1  6  0  0  0
  4 12  1  0  0  0  0
  5  6  2  0  0  0  0
  6  1  1  0  0  0  0
  6  7  1  0  0  0  0
  7 29  1  6  0  0  0
  7  4  1  0  0  0  0
  9 14  1  1  0  0  0
  9 13  1  0  0  0  0
 10 13  1  0  0  0  0
 11  8  1  6  0  0  0
 11 10  1  0  0  0  0
 11 13  1  0  0  0  0
 12  8  1  1  0  0  0
 12  9  1  0  0  0  0
 13 15  1  1  0  0  0
 15 16  1  0  0  0  0
 16 17  1  0  0  0  0
 18 19  1  1  0  0  0
 18 17  1  0  0  0  0
 18 20  1  0  0  0  0
 20 24  1  1  0  0  0
 21 22  2  0  0  0  0
 22 20  1  0  0  0  0
 22 23  1  0  0  0  0
 24 25  2  0  0  0  0
 26 31  1  0  0  0  0
 26 30  1  0  0  0  0
 27 29  1  0  0  0  0
 28 27  1  0  0  0  0
 28 26  2  0  0  0  0
 29 30  2  0  0  0  0
 31 32  1  0  0  0  0
 32 34  2  0  0  0  0
 33 36  1  0  0  0  0
 33 31  2  0  0  0  0
 35 34  1  0  0  0  0
 36 35  2  0  0  0  0
M  END
>  <MODEL>
6

>  <REMARK>
 VINA RESULT:      -6.5      3.676      8.628
  Name = 
  10 active torsions:
  status: ('A' for Active; 'I' for Inactive)
    1  A    between atoms: C_2  and  C_4
    2  A    between atoms: N_6  and  C_7
    3  A    between atoms: N_6  and  C_18
    4  A    between atoms: C_7  and  C_30
    5  A    between atoms: C_13  and  N_27
    6  A    between atoms: C_14  and  C_17
    7  A    between atoms: C_14  and  C_20
    8  A    between atoms: C_14  and  C_29
    9  A    between atoms: C_17  and  C_18
   10  A    between atoms: C_19  and  C_32
                            x       y       z     vdW  Elec       q    Type
                         _______ _______ _______ _____ _____    ______ ____

>  <TORSDO>
F 10

$$$$
=
 OpenBabel11032420143D

 36 40  0  0  1  0  0  0  0  0999 V2000
  190.1510  175.7270  135.5950 N   0  0  0  0  0  2  0  0  0  0  0  0
  189.9130  174.4590  136.2130 C   0  0  0  0  0  3  0  0  0  0  0  0
  188.8970  174.2920  137.0070 N   0  0  0  0  0  0  0  0  0  0  0  0
  187.8770  175.3280  137.2380 C   0  0  1  0  0  3  0  0  0  0  0  0
  189.5880  177.9850  135.4850 O   0  0  0  0  0  0  0  0  0  0  0  0
  189.4250  176.8700  136.0450 C   0  0  0  0  0  0  0  0  0  0  0  0
  188.5080  176.7390  137.2250 C   0  0  2  0  0  3  0  0  0  0  0  0
  186.0900  176.5040  136.1770 C   0  0  0  0  0  2  0  0  0  0  0  0
  185.8330  174.2230  136.7010 C   0  0  1  0  0  3  0  0  0  0  0  0
  183.9140  175.5160  135.4770 C   0  0  0  0  0  2  0  0  0  0  0  0
  184.6330  176.3200  136.5500 C   0  0  1  0  0  3  0  0  0  0  0  0
  186.7990  175.2210  136.2410 N   0  0  2  0  0  0  0  0  0  0  0  0
  184.4510  174.8430  136.7220 C   0  0  2  0  0  0  0  0  0  0  0  0
  185.8590  173.0130  135.7830 C   0  0  0  0  0  1  0  0  0  0  0  0
  183.4770  174.5200  137.8380 C   0  0  0  0  0  2  0  0  0  0  0  0
  182.5800  175.6420  138.0470 N   0  0  0  0  0  2  0  0  0  0  0  0
  182.6500  175.9740  139.4610 C   0  0  0  0  0  2  0  0  0  0  0  0
  182.5980  177.4860  139.6620 C   0  0  2  0  0  3  0  0  0  0  0  0
  182.4810  178.1080  138.4290 F   0  0  0  0  0  0  0  0  0  0  0  0
  183.8230  178.0100  140.4220 C   0  0  1  0  0  3  0  0  0  0  0  0
  185.7620  178.6310  138.9830 O   0  0  0  0  0  0  0  0  0  0  0  0
  184.5790  179.0080  139.6000 C   0  0  0  0  0  0  0  0  0  0  0  0
  184.1510  180.1860  139.4650 O   0  0  0  0  0  1  0  0  0  0  0  0
  183.4350  178.6410  141.7260 C   0  0  0  0  0  3  0  0  0  0  0  0
  184.2430  178.6410  142.7210 N   0  0  0  0  0  2  0  0  0  0  0  0
  189.6460  177.3730  140.5260 C   0  0  0  0  0  0  0  0  0  0  0  0
  190.5130  177.2250  138.6250 O   0  0  0  0  0  0  0  0  0  0  0  0
  190.8170  177.4500  139.8650 N   0  0  0  0  0  0  0  0  0  0  0  0
  189.2240  177.0110  138.5140 C   0  0  0  0  0  0  0  0  0  0  0  0
  188.6070  177.0990  139.7090 N   0  0  0  0  0  0  0  0  0  0  0  0
  189.5140  177.5520  141.9810 C   0  0  0  0  0  0  0  0  0  0  0  0
  188.3150  177.2220  142.6290 C   0  0  0  0  0  3  0  0  0  0  0  0
  190.5870  178.0480  142.7330 C   0  0  0  0  0  3  0  0  0  0  0  0
  188.1940  177.3830  144.0130 C   0  0  0  0  0  3  0  0  0  0  0  0
  189.2680  177.8760  144.7560 C   0  0  0  0  0  3  0  0  0  0  0  0
  190.4650  178.2100  144.1160 C   0  0  0  0  0  3  0  0  0  0  0  0
  1  6  1  0  0  0  0
  1  2  1  0  0  0  0
  2  3  2  0  0  0  0
  4  3  1  6  0  0  0
  5  6  2  0  0  0  0
  6  7  1  0  0  0  0
  7  4  1  0  0  0  0
  7 29  1  1  0  0  0
  8 11  1  0  0  0  0
  9 14  1  6  0  0  0
  9 13  1  0  0  0  0
 10 13  1  0  0  0  0
 11 10  1  6  0  0  0
 11 13  1  0  0  0  0
 12  8  1  1  0  0  0
 12  9  1  0  0  0  0
 12  4  1  0  0  0  0
 13 15  1  1  0  0  0
 15 16  1  0  0  0  0
 16 17  1  0  0  0  0
 17 18  1  0  0  0  0
 18 19  1  6  0  0  0
 18 20  1  0  0  0  0
 20 24  1  1  0  0  0
 21 22  2  0  0  0  0
 22 20  1  0  0  0  0
 23 22  1  0  0  0  0
 24 25  2  0  0  0  0
 26 31  1  0  0  0  0
 27 28  1  0  0  0  0
 28 26  2  0  0  0  0
 29 27  1  0  0  0  0
 29 30  2  0  0  0  0
 30 26  1  0  0  0  0
 31 32  2  0  0  0  0
 31 33  1  0  0  0  0
 32 34  1  0  0  0  0
 33 36  2  0  0  0  0
 34 35  2  0  0  0  0
 36 35  1  0  0  0  0
M  END
>  <MODEL>
7

>  <REMARK>
 VINA RESULT:      -6.4      2.308      5.786
  Name = 
  10 active torsions:
  status: ('A' for Active; 'I' for Inactive)
    1  A    between atoms: C_2  and  C_4
    2  A    between atoms: N_6  and  C_7
    3  A    between atoms: N_6  and  C_18
    4  A    between atoms: C_7  and  C_30
    5  A    between atoms: C_13  and  N_27
    6  A    between atoms: C_14  and  C_17
    7  A    between atoms: C_14  and  C_20
    8  A    between atoms: C_14  and  C_29
    9  A    between atoms: C_17  and  C_18
   10  A    between atoms: C_19  and  C_32
                            x       y       z     vdW  Elec       q    Type
                         _______ _______ _______ _____ _____    ______ ____

>  <TORSDO>
F 10

$$$$
=
 OpenBabel11032420143D

 36 40  0  0  1  0  0  0  0  0999 V2000
  182.1790  175.8490  137.1260 N   0  0  0  0  0  2  0  0  0  0  0  0
  182.3100  175.2730  138.4280 C   0  0  0  0  0  3  0  0  0  0  0  0
  182.4450  176.0320  139.4750 N   0  0  0  0  0  0  0  0  0  0  0  0
  182.3650  177.5020  139.4190 C   0  0  1  0  0  3  0  0  0  0  0  0
  182.2990  177.7720  135.8170 O   0  0  0  0  0  0  0  0  0  0  0  0
  182.4500  177.2380  136.9460 C   0  0  0  0  0  0  0  0  0  0  0  0
  182.9680  178.0400  138.1020 C   0  0  2  0  0  3  0  0  0  0  0  0
  180.9290  179.4090  139.4670 C   0  0  0  0  0  2  0  0  0  0  0  0
  180.5310  177.6160  140.9400 C   0  0  1  0  0  3  0  0  0  0  0  0
  178.9310  179.6880  140.9260 C   0  0  0  0  0  2  0  0  0  0  0  0
  180.4040  180.0260  140.7470 C   0  0  1  0  0  3  0  0  0  0  0  0
  180.9720  177.9480  139.5840 N   0  0  2  0  0  0  0  0  0  0  0  0
  180.0050  178.8680  141.6100 C   0  0  2  0  0  0  0  0  0  0  0  0
  179.4520  176.5470  140.8890 C   0  0  0  0  0  1  0  0  0  0  0  0
  180.2820  179.1330  143.0770 C   0  0  0  0  0  2  0  0  0  0  0  0
  181.5290  179.8650  143.2160 N   0  0  0  0  0  2  0  0  0  0  0  0
  182.4250  179.0200  143.9880 C   0  0  0  0  0  2  0  0  0  0  0  0
  183.8040  178.9640  143.3370 C   0  0  2  0  0  3  0  0  0  0  0  0
  183.7060  178.3320  142.1080 F   0  0  0  0  0  0  0  0  0  0  0  0
  184.8370  178.2630  144.2300 C   0  0  1  0  0  3  0  0  0  0  0  0
  187.0700  177.1730  144.0260 O   0  0  0  0  0  1  0  0  0  0  0  0
  186.1140  178.0210  143.4860 C   0  0  0  0  0  0  0  0  0  0  0  0
  186.3290  178.5810  142.3780 O   0  0  0  0  0  0  0  0  0  0  0  0
  185.1320  179.0610  145.4650 C   0  0  0  0  0  3  0  0  0  0  0  0
  184.8650  178.5940  146.6280 N   0  0  0  0  0  2  0  0  0  0  0  0
  186.4740  177.5760  137.7980 C   0  0  0  0  0  0  0  0  0  0  0  0
  185.1920  178.7000  139.0170 O   0  0  0  0  0  0  0  0  0  0  0  0
  186.4500  178.4530  138.8210 N   0  0  0  0  0  0  0  0  0  0  0  0
  184.4670  178.0220  138.1600 C   0  0  0  0  0  0  0  0  0  0  0  0
  185.2380  177.2710  137.3490 N   0  0  0  0  0  0  0  0  0  0  0  0
  187.7110  177.0230  137.2240 C   0  0  0  0  0  0  0  0  0  0  0  0
  188.9400  177.6600  137.4470 C   0  0  0  0  0  3  0  0  0  0  0  0
  187.6720  175.8530  136.4530 C   0  0  0  0  0  3  0  0  0  0  0  0
  190.1170  177.1290  136.9080 C   0  0  0  0  0  3  0  0  0  0  0  0
  190.0710  175.9620  136.1430 C   0  0  0  0  0  3  0  0  0  0  0  0
  188.8480  175.3240  135.9140 C   0  0  0  0  0  3  0  0  0  0  0  0
  1  2  1  0  0  0  0
  2  3  2  0  0  0  0
  4  3  1  6  0  0  0
  4 12  1  0  0  0  0
  5  6  2  0  0  0  0
  6  1  1  0  0  0  0
  6  7  1  0  0  0  0
  7 29  1  1  0  0  0
  7  4  1  0  0  0  0
  9 14  1  6  0  0  0
  9 13  1  0  0  0  0
 10 13  1  0  0  0  0
 11  8  1  6  0  0  0
 11 10  1  0  0  0  0
 11 13  1  0  0  0  0
 12  8  1  1  0  0  0
 12  9  1  0  0  0  0
 13 15  1  1  0  0  0
 15 16  1  0  0  0  0
 16 17  1  0  0  0  0
 18 19  1  6  0  0  0
 18 17  1  0  0  0  0
 18 20  1  0  0  0  0
 20 24  1  1  0  0  0
 22 21  1  0  0  0  0
 22 20  1  0  0  0  0
 23 22  2  0  0  0  0
 24 25  2  0  0  0  0
 26 28  2  0  0  0  0
 28 27  1  0  0  0  0
 29 27  1  0  0  0  0
 30 26  1  0  0  0  0
 30 29  2  0  0  0  0
 31 32  1  0  0  0  0
 31 26  1  0  0  0  0
 33 31  2  0  0  0  0
 34 32  2  0  0  0  0
 35 34  1  0  0  0  0
 36 35  2  0  0  0  0
 36 33  1  0  0  0  0
M  END
>  <MODEL>
8

>  <REMARK>
 VINA RESULT:      -6.2      2.464      6.978
  Name = 
  10 active torsions:
  status: ('A' for Active; 'I' for Inactive)
    1  A    between atoms: C_2  and  C_4
    2  A    between atoms: N_6  and  C_7
    3  A    between atoms: N_6  and  C_18
    4  A    between atoms: C_7  and  C_30
    5  A    between atoms: C_13  and  N_27
    6  A    between atoms: C_14  and  C_17
    7  A    between atoms: C_14  and  C_20
    8  A    between atoms: C_14  and  C_29
    9  A    between atoms: C_17  and  C_18
   10  A    between atoms: C_19  and  C_32
                            x       y       z     vdW  Elec       q    Type
                         _______ _______ _______ _____ _____    ______ ____

>  <TORSDO>
F 10

$$$$
=
 OpenBabel11032420143D

 36 40  0  0  1  0  0  0  0  0999 V2000
  190.2870  177.7990  137.8360 N   0  0  0  0  0  2  0  0  0  0  0  0
  190.2390  176.4410  138.2820 C   0  0  0  0  0  3  0  0  0  0  0  0
  189.0960  175.8480  138.4710 N   0  0  0  0  0  0  0  0  0  0  0  0
  187.8020  176.4710  138.1440 C   0  0  1  0  0  3  0  0  0  0  0  0
  189.1050  179.7610  137.4120 O   0  0  0  0  0  0  0  0  0  0  0  0
  189.0920  178.5790  137.8420 C   0  0  0  0  0  0  0  0  0  0  0  0
  187.8360  177.9920  138.4140 C   0  0  2  0  0  3  0  0  0  0  0  0
  186.6400  177.3120  136.2360 C   0  0  0  0  0  2  0  0  0  0  0  0
  186.5720  175.0080  136.7180 C   0  0  1  0  0  3  0  0  0  0  0  0
  185.3620  175.9440  134.5940 C   0  0  0  0  0  2  0  0  0  0  0  0
  185.2620  176.8350  135.8220 C   0  0  1  0  0  3  0  0  0  0  0  0
  187.4350  176.1900  136.7470 N   0  0  2  0  0  0  0  0  0  0  0  0
  185.2920  175.3460  135.9830 C   0  0  2  0  0  0  0  0  0  0  0  0
  187.2900  173.8570  136.0320 C   0  0  0  0  0  1  0  0  0  0  0  0
  183.9600  174.8020  136.4630 C   0  0  0  0  0  2  0  0  0  0  0  0
  183.9320  174.7810  137.9150 N   0  0  0  0  0  2  0  0  0  0  0  0
  182.5920  175.1810  138.3110 C   0  0  0  0  0  2  0  0  0  0  0  0
  182.5520  176.6700  138.6430 C   0  0  2  0  0  3  0  0  0  0  0  0
  183.8400  177.1230  138.8760 F   0  0  0  0  0  0  0  0  0  0  0  0
  181.6430  176.9710  139.8420 C   0  0  1  0  0  3  0  0  0  0  0  0
  181.8760  179.3600  139.1690 O   0  0  0  0  0  0  0  0  0  0  0  0
  181.6590  178.4310  140.1760 C   0  0  0  0  0  0  0  0  0  0  0  0
  181.4790  178.8230  141.3600 O   0  0  0  0  0  1  0  0  0  0  0  0
  180.2290  176.5420  139.5850 C   0  0  0  0  0  3  0  0  0  0  0  0
  179.3850  176.4550  140.5450 N   0  0  0  0  0  2  0  0  0  0  0  0
  186.9580  178.5290  141.8110 C   0  0  0  0  0  0  0  0  0  0  0  0
  188.6940  178.6910  140.6490 O   0  0  0  0  0  0  0  0  0  0  0  0
  188.2630  178.8580  141.8610 N   0  0  0  0  0  0  0  0  0  0  0  0
  187.7150  178.2720  139.8830 C   0  0  0  0  0  0  0  0  0  0  0  0
  186.5650  178.1530  140.5750 N   0  0  0  0  0  0  0  0  0  0  0  0
  186.0610  178.5590  142.9780 C   0  0  0  0  0  0  0  0  0  0  0  0
  186.4480  177.9540  144.1830 C   0  0  0  0  0  3  0  0  0  0  0  0
  184.8160  179.1960  142.8970 C   0  0  0  0  0  3  0  0  0  0  0  0
  185.6000  177.9920  145.2950 C   0  0  0  0  0  3  0  0  0  0  0  0
  184.3610  178.6300  145.2080 C   0  0  0  0  0  3  0  0  0  0  0  0
  183.9680  179.2320  144.0080 C   0  0  0  0  0  3  0  0  0  0  0  0
  1  6  1  0  0  0  0
  1  2  1  0  0  0  0
  2  3  2  0  0  0  0
  4  7  1  0  0  0  0
  4  3  1  6  0  0  0
  5  6  2  0  0  0  0
  6  7  1  0  0  0  0
  7 29  1  1  0  0  0
  9 14  1  6  0  0  0
  9 12  1  0  0  0  0
 10 13  1  0  0  0  0
 11 10  1  6  0  0  0
 11 13  1  0  0  0  0
 11  8  1  0  0  0  0
 12  8  1  1  0  0  0
 12  4  1  0  0  0  0
 13 15  1  1  0  0  0
 13  9  1  0  0  0  0
 15 16  1  0  0  0  0
 16 17  1  0  0  0  0
 17 18  1  0  0  0  0
 18 19  1  1  0  0  0
 18 20  1  0  0  0  0
 20 24  1  6  0  0  0
 20 22  1  0  0  0  0
 21 22  2  0  0  0  0
 22 23  1  0  0  0  0
 24 25  2  0  0  0  0
 26 28  2  0  0  0  0
 26 31  1  0  0  0  0
 27 28  1  0  0  0  0
 29 30  2  0  0  0  0
 29 27  1  0  0  0  0
 30 26  1  0  0  0  0
 31 32  1  0  0  0  0
 32 34  2  0  0  0  0
 33 31  2  0  0  0  0
 33 36  1  0  0  0  0
 35 34  1  0  0  0  0
 36 35  2  0  0  0  0
M  END
>  <MODEL>
9

>  <REMARK>
 VINA RESULT:      -6.0      1.894      5.629
  Name = 
  10 active torsions:
  status: ('A' for Active; 'I' for Inactive)
    1  A    between atoms: C_2  and  C_4
    2  A    between atoms: N_6  and  C_7
    3  A    between atoms: N_6  and  C_18
    4  A    between atoms: C_7  and  C_30
    5  A    between atoms: C_13  and  N_27
    6  A    between atoms: C_14  and  C_17
    7  A    between atoms: C_14  and  C_20
    8  A    between atoms: C_14  and  C_29
    9  A    between atoms: C_17  and  C_18
   10  A    between atoms: C_19  and  C_32
                            x       y       z     vdW  Elec       q    Type
                         _______ _______ _______ _____ _____    ______ ____

>  <TORSDO>
F 10

$$$$
