=
 OpenBabel11032420363D

 27 31  0  0  1  0  0  0  0  0999 V2000
  186.1340  178.0500  144.3140 C   0  0  0  0  0  0  0  0  0  0  0  0
  187.2810  177.7400  145.1920 C   0  0  0  0  0  0  0  0  0  0  0  0
  190.9900  177.6710  145.3300 C   0  0  2  0  0  3  0  0  0  0  0  0
  191.9680  177.3470  146.2680 O   0  0  0  0  0  1  0  0  0  0  0  0
  191.1960  177.5150  142.9220 C   0  0  0  0  0  3  0  0  0  0  0  0
  191.4470  178.3670  144.0990 C   0  0  0  0  0  2  0  0  0  0  0  0
  189.6830  177.4480  145.5980 C   0  0  0  0  0  0  0  0  0  0  0  0
  183.7910  178.5680  143.9390 C   0  0  0  0  0  0  0  0  0  0  0  0
  186.3640  178.1210  142.9410 C   0  0  2  0  0  3  0  0  0  0  0  0
  182.4200  178.8440  144.4810 C   0  0  0  0  0  2  0  0  0  0  0  0
  185.3220  178.4220  142.0600 C   0  0  0  0  0  3  0  0  0  0  0  0
  182.9890  178.9460  141.6740 O   0  0  0  0  0  0  0  0  0  0  0  0
  187.0360  177.4710  146.5430 C   0  0  0  0  0  3  0  0  0  0  0  0
  188.6040  177.6340  144.6610 C   0  0  0  0  0  0  0  0  0  0  0  0
  184.8420  178.2770  144.8140 C   0  0  0  0  0  3  0  0  0  0  0  0
  189.9680  177.1680  142.5670 C   0  0  0  0  0  0  0  0  0  0  0  0
  189.3760  177.1400  146.9340 C   0  0  0  0  0  3  0  0  0  0  0  0
  184.0360  178.6550  142.5560 C   0  0  0  0  0  0  0  0  0  0  0  0
  181.7040  179.3530  142.1460 C   0  0  0  0  0  2  0  0  0  0  0  0
  187.6440  177.8740  142.4560 O   0  0  0  0  0  0  0  0  0  0  0  0
  181.3450  178.5970  143.4220 C   0  0  0  0  0  2  0  0  0  0  0  0
  188.7430  177.6010  143.2910 C   0  0  0  0  0  0  0  0  0  0  0  0
  188.0710  177.1400  147.4020 C   0  0  0  0  0  3  0  0  0  0  0  0
  189.8150  176.3810  141.3080 C   0  0  0  0  0  2  0  0  0  0  0  0
  190.3510  177.1320  140.1870 N   0  0  0  0  0  2  0  0  0  0  0  0
  189.5370  178.0380  139.4980 C   0  0  0  0  0  0  0  0  0  0  0  0
  188.8640  178.7870  138.9300 N   0  0  0  0  0  0  0  0  0  0  0  0
  1 15  1  0  0  0  0
  1  2  2  0  0  0  0
  2 13  1  0  0  0  0
  3  7  1  0  0  0  0
  3  4  1  1  0  0  0
  5  6  1  0  0  0  0
  6  3  1  0  0  0  0
  7 17  2  0  0  0  0
  8 10  1  0  0  0  0
  8 15  2  0  0  0  0
  9 11  1  6  0  0  0
  9  1  1  0  0  0  0
 11 18  2  0  0  0  0
 12 19  1  0  0  0  0
 12 18  1  0  0  0  0
 13 23  2  0  0  0  0
 14  2  1  0  0  0  0
 14  7  1  0  0  0  0
 16  5  2  0  0  0  0
 16 22  1  0  0  0  0
 17 23  1  0  0  0  0
 18  8  1  0  0  0  0
 19 21  1  0  0  0  0
 20  9  1  0  0  0  0
 20 22  1  0  0  0  0
 21 10  1  0  0  0  0
 22 14  2  0  0  0  0
 24 16  1  0  0  0  0
 25 24  1  0  0  0  0
 26 25  1  0  0  0  0
 27 26  3  0  0  0  0
M  END
>  <MODEL>
1

>  <REMARK>
 VINA RESULT:     -10.4      0.000      0.000
  Name = 
  3 active torsions:
  status: ('A' for Active; 'I' for Inactive)
    1  A    between atoms: C_7  and  C_19
    2  A    between atoms: C_7  and  N_25
    3  A    between atoms: C_11  and  N_25
                            x       y       z     vdW  Elec       q    Type
                         _______ _______ _______ _____ _____    ______ ____

>  <TORSDO>
F 3

$$$$
=
 OpenBabel11032420363D

 27 31  0  0  1  0  0  0  0  0999 V2000
  188.4560  177.7420  142.3620 C   0  0  0  0  0  0  0  0  0  0  0  0
  187.0730  177.9380  142.8430 C   0  0  0  0  0  0  0  0  0  0  0  0
  185.0640  178.9160  145.8080 C   0  0  2  0  0  3  0  0  0  0  0  0
  183.7140  179.0640  146.1190 O   0  0  0  0  0  1  0  0  0  0  0  0
  186.8440  178.3500  147.3500 C   0  0  0  0  0  3  0  0  0  0  0  0
  186.0410  179.4540  146.7910 C   0  0  0  0  0  2  0  0  0  0  0  0
  185.4400  178.4010  144.6150 C   0  0  0  0  0  0  0  0  0  0  0  0
  190.1060  177.5140  140.5940 C   0  0  0  0  0  0  0  0  0  0  0  0
  189.4640  177.6010  143.3140 C   0  0  0  0  0  0  0  0  0  0  0  0
  190.4510  177.5050  139.1340 C   0  0  0  0  0  2  0  0  0  0  0  0
  190.7930  177.4250  142.9200 C   0  0  0  0  0  3  0  0  0  0  0  0
  192.4490  177.2020  141.1660 O   0  0  0  0  0  0  0  0  0  0  0  0
  186.0270  177.8850  141.9150 C   0  0  0  0  0  3  0  0  0  0  0  0
  186.7970  178.0960  144.2370 C   0  0  0  0  0  0  0  0  0  0  0  0
  188.7800  177.7010  140.9960 C   0  0  0  0  0  2  0  0  0  0  0  0
  187.6410  177.6160  146.5860 C   0  0  0  0  0  0  0  0  0  0  0  0
  184.4260  178.2910  143.6490 C   0  0  0  0  0  3  0  0  0  0  0  0
  191.1200  177.3900  141.5620 C   0  0  0  0  0  0  0  0  0  0  0  0
  192.8490  177.3270  139.8010 C   0  0  0  0  0  2  0  0  0  0  0  0
  189.1280  177.6230  144.6630 O   0  0  0  0  0  0  0  0  0  0  0  0
  191.7670  176.7690  138.8800 C   0  0  0  0  0  2  0  0  0  0  0  0
  187.8160  177.8320  145.1250 C   0  0  0  0  0  0  0  0  0  0  0  0
  184.7100  178.0260  142.3180 C   0  0  0  0  0  3  0  0  0  0  0  0
  188.4800  176.5850  147.2640 C   0  0  0  0  0  2  0  0  0  0  0  0
  189.6670  177.2050  147.8270 N   0  0  0  0  0  2  0  0  0  0  0  0
  190.9370  176.8050  147.3950 C   0  0  0  0  0  0  0  0  0  0  0  0
  191.9850  176.4740  147.0380 N   0  0  0  0  0  0  0  0  0  0  0  0
  1  2  2  0  0  0  0
  1  9  1  0  0  0  0
  2 14  1  0  0  0  0
  3  4  1  6  0  0  0
  3  6  1  0  0  0  0
  6  5  1  0  0  0  0
  7  3  1  0  0  0  0
  8 15  1  0  0  0  0
  8 18  2  0  0  0  0
  9 20  1  0  0  0  0
 10  8  1  0  0  0  0
 11  9  2  0  0  0  0
 12 18  1  0  0  0  0
 13 23  2  0  0  0  0
 13  2  1  0  0  0  0
 14  7  1  0  0  0  0
 14 22  2  0  0  0  0
 15  1  1  0  0  0  0
 16 24  1  0  0  0  0
 16  5  2  0  0  0  0
 17  7  2  0  0  0  0
 18 11  1  0  0  0  0
 19 12  1  0  0  0  0
 20 22  1  0  0  0  0
 21 10  1  0  0  0  0
 21 19  1  0  0  0  0
 22 16  1  0  0  0  0
 23 17  1  0  0  0  0
 24 25  1  0  0  0  0
 26 25  1  0  0  0  0
 27 26  3  0  0  0  0
M  END
>  <MODEL>
2

>  <REMARK>
 VINA RESULT:      -9.5      2.838      6.743
  Name = 
  3 active torsions:
  status: ('A' for Active; 'I' for Inactive)
    1  A    between atoms: C_7  and  C_19
    2  A    between atoms: C_7  and  N_25
    3  A    between atoms: C_11  and  N_25
                            x       y       z     vdW  Elec       q    Type
                         _______ _______ _______ _____ _____    ______ ____

>  <TORSDO>
F 3

$$$$
=
 OpenBabel11032420363D

 27 31  0  0  1  0  0  0  0  0999 V2000
  185.1200  178.3180  144.1820 C   0  0  0  0  0  0  0  0  0  0  0  0
  185.9520  178.1730  145.3940 C   0  0  0  0  0  0  0  0  0  0  0  0
  189.4590  177.9310  146.5850 C   0  0  2  0  0  3  0  0  0  0  0  0
  190.1120  177.7980  147.8090 O   0  0  0  0  0  1  0  0  0  0  0  0
  190.2630  177.1630  144.4330 C   0  0  0  0  0  3  0  0  0  0  0  0
  190.3040  178.2680  145.4090 C   0  0  0  0  0  2  0  0  0  0  0  0
  188.1110  177.8570  146.5160 C   0  0  0  0  0  0  0  0  0  0  0  0
  183.0380  178.8570  143.0540 C   0  0  0  0  0  0  0  0  0  0  0  0
  185.7060  178.0280  142.9500 C   0  0  2  0  0  3  0  0  0  0  0  0
  181.6180  179.3380  143.1100 C   0  0  0  0  0  2  0  0  0  0  0  0
  184.9740  178.1570  141.7670 C   0  0  0  0  0  3  0  0  0  0  0  0
  182.9050  178.6980  140.6300 O   0  0  0  0  0  0  0  0  0  0  0  0
  185.3330  178.2670  146.6450 C   0  0  0  0  0  3  0  0  0  0  0  0
  187.3440  177.8620  145.2960 C   0  0  0  0  0  0  0  0  0  0  0  0
  183.7810  178.7360  144.2320 C   0  0  0  0  0  3  0  0  0  0  0  0
  189.1360  176.8080  143.8340 C   0  0  0  0  0  0  0  0  0  0  0  0
  187.4310  177.9130  147.7450 C   0  0  0  0  0  3  0  0  0  0  0  0
  183.6430  178.5800  141.8130 C   0  0  0  0  0  0  0  0  0  0  0  0
  181.6030  179.2830  140.6150 C   0  0  0  0  0  2  0  0  0  0  0  0
  187.0270  177.5940  142.9150 O   0  0  0  0  0  0  0  0  0  0  0  0
  180.8330  178.8940  141.8740 C   0  0  0  0  0  2  0  0  0  0  0  0
  187.8280  177.4780  144.0650 C   0  0  0  0  0  0  0  0  0  0  0  0
  186.0600  178.1040  147.8130 C   0  0  0  0  0  3  0  0  0  0  0  0
  189.2190  175.7400  142.7950 C   0  0  0  0  0  2  0  0  0  0  0  0
  190.1890  176.1110  141.7790 N   0  0  0  0  0  2  0  0  0  0  0  0
  189.8380  177.0250  140.7790 C   0  0  0  0  0  0  0  0  0  0  0  0
  189.5490  177.7790  139.9510 N   0  0  0  0  0  0  0  0  0  0  0  0
  1 15  1  0  0  0  0
  1  2  2  0  0  0  0
  2 13  1  0  0  0  0
  3  4  1  1  0  0  0
  5  6  1  0  0  0  0
  6  3  1  0  0  0  0
  7  3  1  0  0  0  0
  7 17  2  0  0  0  0
  8 10  1  0  0  0  0
  8 15  2  0  0  0  0
  9 11  1  1  0  0  0
  9  1  1  0  0  0  0
 11 18  2  0  0  0  0
 12 18  1  0  0  0  0
 13 23  2  0  0  0  0
 14  2  1  0  0  0  0
 14  7  1  0  0  0  0
 16 22  1  0  0  0  0
 16  5  2  0  0  0  0
 17 23  1  0  0  0  0
 18  8  1  0  0  0  0
 19 12  1  0  0  0  0
 19 21  1  0  0  0  0
 20  9  1  0  0  0  0
 20 22  1  0  0  0  0
 21 10  1  0  0  0  0
 22 14  2  0  0  0  0
 24 16  1  0  0  0  0
 25 24  1  0  0  0  0
 26 25  1  0  0  0  0
 27 26  3  0  0  0  0
M  END
>  <MODEL>
3

>  <REMARK>
 VINA RESULT:      -9.5      1.198      1.595
  Name = 
  3 active torsions:
  status: ('A' for Active; 'I' for Inactive)
    1  A    between atoms: C_7  and  C_19
    2  A    between atoms: C_7  and  N_25
    3  A    between atoms: C_11  and  N_25
                            x       y       z     vdW  Elec       q    Type
                         _______ _______ _______ _____ _____    ______ ____

>  <TORSDO>
F 3

$$$$
=
 OpenBabel11032420363D

 27 31  0  0  1  0  0  0  0  0999 V2000
  187.5070  177.6960  145.0230 C   0  0  0  0  0  0  0  0  0  0  0  0
  186.1110  178.1530  144.8640 C   0  0  0  0  0  0  0  0  0  0  0  0
  183.3360  178.4460  142.4160 C   0  0  2  0  0  3  0  0  0  0  0  0
  182.0230  178.9130  142.4160 O   0  0  0  0  0  1  0  0  0  0  0  0
  184.8430  178.3860  140.5200 C   0  0  0  0  0  3  0  0  0  0  0  0
  183.7690  177.6650  141.2280 C   0  0  0  0  0  2  0  0  0  0  0  0
  184.1240  178.6190  143.5010 C   0  0  0  0  0  0  0  0  0  0  0  0
  189.4050  177.0120  146.3750 C   0  0  0  0  0  0  0  0  0  0  0  0
  188.2670  177.5090  143.8700 C   0  0  2  0  0  3  0  0  0  0  0  0
  190.0010  176.7110  147.7180 C   0  0  0  0  0  2  0  0  0  0  0  0
  189.5900  177.0680  143.9550 C   0  0  0  0  0  3  0  0  0  0  0  0
  191.4880  176.3780  145.2910 O   0  0  0  0  0  0  0  0  0  0  0  0
  185.3970  178.5340  146.0060 C   0  0  0  0  0  3  0  0  0  0  0  0
  185.5250  178.2840  143.5660 C   0  0  0  0  0  0  0  0  0  0  0  0
  188.0790  177.4440  146.2800 C   0  0  0  0  0  3  0  0  0  0  0  0
  186.0120  178.6280  141.0960 C   0  0  0  0  0  0  0  0  0  0  0  0
  183.4710  179.0330  144.6730 C   0  0  0  0  0  3  0  0  0  0  0  0
  190.1610  176.8090  145.2040 C   0  0  0  0  0  0  0  0  0  0  0  0
  192.0550  175.9440  146.5280 C   0  0  0  0  0  2  0  0  0  0  0  0
  187.6960  177.7830  142.6310 O   0  0  0  0  0  0  0  0  0  0  0  0
  191.5270  176.7950  147.6790 C   0  0  0  0  0  2  0  0  0  0  0  0
  186.3600  178.1950  142.4750 C   0  0  0  0  0  0  0  0  0  0  0  0
  184.0980  179.0030  145.9100 C   0  0  0  0  0  3  0  0  0  0  0  0
  187.0630  179.2820  140.2630 C   0  0  0  0  0  2  0  0  0  0  0  0
  187.5720  178.3430  139.2800 N   0  0  0  0  0  2  0  0  0  0  0  0
  188.8970  177.8980  139.3570 C   0  0  0  0  0  0  0  0  0  0  0  0
  189.9910  177.5300  139.4200 N   0  0  0  0  0  0  0  0  0  0  0  0
  1 15  1  0  0  0  0
  2  1  2  0  0  0  0
  2 13  1  0  0  0  0
  3  4  1  1  0  0  0
  3  7  1  0  0  0  0
  5 16  2  0  0  0  0
  5  6  1  0  0  0  0
  6  3  1  0  0  0  0
  7 14  1  0  0  0  0
  7 17  2  0  0  0  0
  8 10  1  0  0  0  0
  9 11  1  1  0  0  0
  9  1  1  0  0  0  0
 11 18  2  0  0  0  0
 12 19  1  0  0  0  0
 14  2  1  0  0  0  0
 15  8  2  0  0  0  0
 16 22  1  0  0  0  0
 17 23  1  0  0  0  0
 18 12  1  0  0  0  0
 18  8  1  0  0  0  0
 19 21  1  0  0  0  0
 20  9  1  0  0  0  0
 21 10  1  0  0  0  0
 22 20  1  0  0  0  0
 22 14  2  0  0  0  0
 23 13  2  0  0  0  0
 24 16  1  0  0  0  0
 25 26  1  0  0  0  0
 25 24  1  0  0  0  0
 26 27  3  0  0  0  0
M  END
>  <MODEL>
4

>  <REMARK>
 VINA RESULT:      -9.0      1.299      6.188
  Name = 
  3 active torsions:
  status: ('A' for Active; 'I' for Inactive)
    1  A    between atoms: C_7  and  C_19
    2  A    between atoms: C_7  and  N_25
    3  A    between atoms: C_11  and  N_25
                            x       y       z     vdW  Elec       q    Type
                         _______ _______ _______ _____ _____    ______ ____

>  <TORSDO>
F 3

$$$$
=
 OpenBabel11032420363D

 27 31  0  0  1  0  0  0  0  0999 V2000
  188.6940  178.0350  141.9510 C   0  0  0  0  0  0  0  0  0  0  0  0
  189.4910  177.9130  143.1880 C   0  0  0  0  0  0  0  0  0  0  0  0
  189.2590  177.1610  146.8160 C   0  0  2  0  0  3  0  0  0  0  0  0
  190.1350  177.0760  147.8960 O   0  0  0  0  0  1  0  0  0  0  0  0
  186.9100  177.7450  146.9090 C   0  0  0  0  0  3  0  0  0  0  0  0
  187.8820  176.6420  147.0280 C   0  0  0  0  0  2  0  0  0  0  0  0
  189.6950  177.6000  145.6130 C   0  0  0  0  0  0  0  0  0  0  0  0
  188.4740  178.1140  139.5330 C   0  0  0  0  0  0  0  0  0  0  0  0
  187.3150  178.1910  142.0760 C   0  0  0  0  0  0  0  0  0  0  0  0
  189.0950  178.0340  138.1690 C   0  0  0  0  0  2  0  0  0  0  0  0
  186.5060  178.3000  140.9420 C   0  0  0  0  0  3  0  0  0  0  0  0
  186.2720  178.3730  138.5320 O   0  0  0  0  0  0  0  0  0  0  0  0
  190.8870  177.9540  143.0920 C   0  0  0  0  0  3  0  0  0  0  0  0
  188.8550  177.8380  144.4660 C   0  0  0  0  0  0  0  0  0  0  0  0
  189.2750  177.9940  140.6720 C   0  0  0  0  0  2  0  0  0  0  0  0
  186.7510  178.4100  145.7730 C   0  0  0  0  0  0  0  0  0  0  0  0
  191.0890  177.6940  145.4640 C   0  0  0  0  0  3  0  0  0  0  0  0
  187.0790  178.2530  139.6680 C   0  0  0  0  0  0  0  0  0  0  0  0
  186.7910  178.1640  137.2190 C   0  0  0  0  0  2  0  0  0  0  0  0
  186.7540  178.2510  143.3470 O   0  0  0  0  0  0  0  0  0  0  0  0
  188.2130  178.7100  137.1190 C   0  0  0  0  0  2  0  0  0  0  0  0
  187.5070  178.1120  144.5270 C   0  0  0  0  0  0  0  0  0  0  0  0
  191.6810  177.8800  144.2240 C   0  0  0  0  0  3  0  0  0  0  0  0
  185.6770  179.4450  145.7300 C   0  0  0  0  0  2  0  0  0  0  0  0
  184.3750  178.8120  145.8460 N   0  0  0  0  0  2  0  0  0  0  0  0
  183.4510  178.9170  144.8010 C   0  0  0  0  0  0  0  0  0  0  0  0
  182.6870  179.0030  143.9370 N   0  0  0  0  0  0  0  0  0  0  0  0
  1  9  1  0  0  0  0
  1  2  2  0  0  0  0
  2 14  1  0  0  0  0
  3  6  1  0  0  0  0
  3  4  1  6  0  0  0
  5  6  1  0  0  0  0
  7  3  1  0  0  0  0
  8 18  2  0  0  0  0
  8 15  1  0  0  0  0
  9 20  1  0  0  0  0
 10  8  1  0  0  0  0
 11  9  2  0  0  0  0
 12 18  1  0  0  0  0
 13  2  1  0  0  0  0
 13 23  2  0  0  0  0
 14 22  2  0  0  0  0
 14  7  1  0  0  0  0
 15  1  1  0  0  0  0
 16  5  2  0  0  0  0
 17  7  2  0  0  0  0
 18 11  1  0  0  0  0
 19 12  1  0  0  0  0
 20 22  1  0  0  0  0
 21 19  1  0  0  0  0
 21 10  1  0  0  0  0
 22 16  1  0  0  0  0
 23 17  1  0  0  0  0
 24 16  1  0  0  0  0
 24 25  1  0  0  0  0
 26 25  1  0  0  0  0
 27 26  3  0  0  0  0
M  END
>  <MODEL>
5

>  <REMARK>
 VINA RESULT:      -8.9      2.735      5.325
  Name = 
  3 active torsions:
  status: ('A' for Active; 'I' for Inactive)
    1  A    between atoms: C_7  and  C_19
    2  A    between atoms: C_7  and  N_25
    3  A    between atoms: C_11  and  N_25
                            x       y       z     vdW  Elec       q    Type
                         _______ _______ _______ _____ _____    ______ ____

>  <TORSDO>
F 3

$$$$
=
 OpenBabel11032420363D

 27 31  0  0  1  0  0  0  0  0999 V2000
  185.7750  178.1820  144.5150 C   0  0  0  0  0  0  0  0  0  0  0  0
  184.4370  178.5100  143.9820 C   0  0  0  0  0  0  0  0  0  0  0  0
  182.2860  178.2430  140.9690 C   0  0  2  0  0  3  0  0  0  0  0  0
  180.9910  178.6100  140.6070 O   0  0  0  0  0  1  0  0  0  0  0  0
  184.1860  178.0120  139.4850 C   0  0  0  0  0  3  0  0  0  0  0  0
  183.0060  177.3280  140.0450 C   0  0  0  0  0  2  0  0  0  0  0  0
  182.7990  178.6280  142.1600 C   0  0  0  0  0  0  0  0  0  0  0  0
  187.3390  177.8400  146.3420 C   0  0  0  0  0  0  0  0  0  0  0  0
  186.7850  177.8820  143.6020 C   0  0  2  0  0  3  0  0  0  0  0  0
  187.6230  177.7820  147.8140 C   0  0  0  0  0  2  0  0  0  0  0  0
  188.0690  177.5530  144.0450 C   0  0  0  0  0  3  0  0  0  0  0  0
  189.6360  177.2030  145.8580 O   0  0  0  0  0  0  0  0  0  0  0  0
  183.4680  179.0020  144.8640 C   0  0  0  0  0  3  0  0  0  0  0  0
  184.1580  178.4070  142.5840 C   0  0  0  0  0  0  0  0  0  0  0  0
  186.0540  178.1580  145.8910 C   0  0  0  0  0  3  0  0  0  0  0  0
  185.1830  178.4180  140.2580 C   0  0  0  0  0  0  0  0  0  0  0  0
  181.8800  179.1620  143.0790 C   0  0  0  0  0  3  0  0  0  0  0  0
  188.3480  177.5210  145.4140 C   0  0  0  0  0  0  0  0  0  0  0  0
  189.9210  176.9960  147.2420 C   0  0  0  0  0  2  0  0  0  0  0  0
  186.5020  177.9290  142.2410 O   0  0  0  0  0  0  0  0  0  0  0  0
  189.1140  177.9680  148.0990 C   0  0  0  0  0  2  0  0  0  0  0  0
  185.2230  178.2190  141.7320 C   0  0  0  0  0  0  0  0  0  0  0  0
  182.2090  179.3590  144.4110 C   0  0  0  0  0  3  0  0  0  0  0  0
  186.3730  179.0160  139.5840 C   0  0  0  0  0  2  0  0  0  0  0  0
  186.5410  178.4310  138.2660 N   0  0  0  0  0  2  0  0  0  0  0  0
  187.6010  177.5500  138.0210 C   0  0  0  0  0  0  0  0  0  0  0  0
  188.4770  176.8230  137.8190 N   0  0  0  0  0  0  0  0  0  0  0  0
  1 15  1  0  0  0  0
  2  1  2  0  0  0  0
  2 13  1  0  0  0  0
  3  4  1  1  0  0  0
  3  7  1  0  0  0  0
  5  6  1  0  0  0  0
  5 16  2  0  0  0  0
  6  3  1  0  0  0  0
  7 14  1  0  0  0  0
  7 17  2  0  0  0  0
  8 10  1  0  0  0  0
  9 11  1  6  0  0  0
  9  1  1  0  0  0  0
 10 21  1  0  0  0  0
 11 18  2  0  0  0  0
 12 19  1  0  0  0  0
 14  2  1  0  0  0  0
 15  8  2  0  0  0  0
 16 22  1  0  0  0  0
 17 23  1  0  0  0  0
 18 12  1  0  0  0  0
 18  8  1  0  0  0  0
 19 21  1  0  0  0  0
 20  9  1  0  0  0  0
 22 20  1  0  0  0  0
 22 14  2  0  0  0  0
 23 13  2  0  0  0  0
 24 16  1  0  0  0  0
 25 24  1  0  0  0  0
 26 25  1  0  0  0  0
 27 26  3  0  0  0  0
M  END
>  <MODEL>
6

>  <REMARK>
 VINA RESULT:      -8.7      1.822      6.335
  Name = 
  3 active torsions:
  status: ('A' for Active; 'I' for Inactive)
    1  A    between atoms: C_7  and  C_19
    2  A    between atoms: C_7  and  N_25
    3  A    between atoms: C_11  and  N_25
                            x       y       z     vdW  Elec       q    Type
                         _______ _______ _______ _____ _____    ______ ____

>  <TORSDO>
F 3

$$$$
=
 OpenBabel11032420363D

 27 31  0  0  1  0  0  0  0  0999 V2000
  186.4300  178.1720  142.3130 C   0  0  0  0  0  0  0  0  0  0  0  0
  187.2310  177.8370  143.5090 C   0  0  0  0  0  0  0  0  0  0  0  0
  190.6800  177.8490  144.8780 C   0  0  2  0  0  3  0  0  0  0  0  0
  191.3020  177.4930  146.0730 O   0  0  0  0  0  1  0  0  0  0  0  0
  191.6840  177.8400  142.6740 C   0  0  0  0  0  3  0  0  0  0  0  0
  191.4920  178.6270  143.9070 C   0  0  0  0  0  2  0  0  0  0  0  0
  189.3700  177.5790  144.6820 C   0  0  0  0  0  0  0  0  0  0  0  0
  184.3260  178.6550  141.1990 C   0  0  0  0  0  0  0  0  0  0  0  0
  187.1010  178.3300  141.1020 C   0  0  2  0  0  3  0  0  0  0  0  0
  182.8420  178.8660  141.2630 C   0  0  0  0  0  2  0  0  0  0  0  0
  186.4000  178.6570  139.9380 C   0  0  0  0  0  3  0  0  0  0  0  0
  184.3100  179.1470  138.8170 O   0  0  0  0  0  0  0  0  0  0  0  0
  186.5600  177.4830  144.6850 C   0  0  0  0  0  3  0  0  0  0  0  0
  188.6580  177.7950  143.4470 C   0  0  0  0  0  0  0  0  0  0  0  0
  185.0360  178.3380  142.3610 C   0  0  0  0  0  3  0  0  0  0  0  0
  190.6600  177.4860  141.9110 C   0  0  0  0  0  0  0  0  0  0  0  0
  188.6480  177.1860  145.8210 C   0  0  0  0  0  3  0  0  0  0  0  0
  185.0140  178.8300  139.9840 C   0  0  0  0  0  0  0  0  0  0  0  0
  182.9250  179.4950  138.8500 C   0  0  0  0  0  2  0  0  0  0  0  0
  188.4790  178.1420  141.0620 O   0  0  0  0  0  0  0  0  0  0  0  0
  182.1940  178.6560  139.8940 C   0  0  0  0  0  2  0  0  0  0  0  0
  189.2470  177.8460  142.2030 C   0  0  0  0  0  0  0  0  0  0  0  0
  187.2630  177.1270  145.8240 C   0  0  0  0  0  3  0  0  0  0  0  0
  190.9690  176.7710  140.6380 C   0  0  0  0  0  2  0  0  0  0  0  0
  192.2420  177.2290  140.1100 N   0  0  0  0  0  2  0  0  0  0  0  0
  192.6750  176.7930  138.8530 C   0  0  0  0  0  0  0  0  0  0  0  0
  193.0330  176.4320  137.8140 N   0  0  0  0  0  0  0  0  0  0  0  0
  1 15  1  0  0  0  0
  1  2  2  0  0  0  0
  2 13  1  0  0  0  0
  3  4  1  1  0  0  0
  5  6  1  0  0  0  0
  6  3  1  0  0  0  0
  7  3  1  0  0  0  0
  7 17  2  0  0  0  0
  8 10  1  0  0  0  0
  8 15  2  0  0  0  0
  9 11  1  6  0  0  0
  9  1  1  0  0  0  0
 11 18  2  0  0  0  0
 12 19  1  0  0  0  0
 12 18  1  0  0  0  0
 13 23  2  0  0  0  0
 14  2  1  0  0  0  0
 14  7  1  0  0  0  0
 16 22  1  0  0  0  0
 16  5  2  0  0  0  0
 17 23  1  0  0  0  0
 18  8  1  0  0  0  0
 19 21  1  0  0  0  0
 20  9  1  0  0  0  0
 20 22  1  0  0  0  0
 21 10  1  0  0  0  0
 22 14  2  0  0  0  0
 24 16  1  0  0  0  0
 25 24  1  0  0  0  0
 26 25  1  0  0  0  0
 27 26  3  0  0  0  0
M  END
>  <MODEL>
7

>  <REMARK>
 VINA RESULT:      -8.5      1.808      2.303
  Name = 
  3 active torsions:
  status: ('A' for Active; 'I' for Inactive)
    1  A    between atoms: C_7  and  C_19
    2  A    between atoms: C_7  and  N_25
    3  A    between atoms: C_11  and  N_25
                            x       y       z     vdW  Elec       q    Type
                         _______ _______ _______ _____ _____    ______ ____

>  <TORSDO>
F 3

$$$$
=
 OpenBabel11032420363D

 27 31  0  0  1  0  0  0  0  0999 V2000
  186.7030  177.9020  143.7710 C   0  0  0  0  0  0  0  0  0  0  0  0
  185.2860  178.3080  143.8660 C   0  0  0  0  0  0  0  0  0  0  0  0
  182.1050  178.4810  141.9610 C   0  0  2  0  0  3  0  0  0  0  0  0
  180.7980  178.9020  142.1980 O   0  0  0  0  0  1  0  0  0  0  0  0
  183.2440  178.4540  139.8240 C   0  0  0  0  0  3  0  0  0  0  0  0
  182.3430  177.7030  140.7170 C   0  0  0  0  0  2  0  0  0  0  0  0
  183.0700  178.6910  142.8850 C   0  0  0  0  0  0  0  0  0  0  0  0
  188.8380  177.2970  144.7590 C   0  0  0  0  0  0  0  0  0  0  0  0
  187.2480  177.7290  142.5000 C   0  0  2  0  0  3  0  0  0  0  0  0
  189.6780  177.0300  145.9730 C   0  0  0  0  0  2  0  0  0  0  0  0
  188.5800  177.3340  142.3450 C   0  0  0  0  0  3  0  0  0  0  0  0
  190.7120  176.7230  143.3180 O   0  0  0  0  0  0  0  0  0  0  0  0
  184.7780  178.6760  145.1180 C   0  0  0  0  0  3  0  0  0  0  0  0
  184.4710  178.4060  142.6960 C   0  0  0  0  0  0  0  0  0  0  0  0
  187.5020  177.6820  144.9050 C   0  0  0  0  0  3  0  0  0  0  0  0
  184.4890  178.7410  140.1770 C   0  0  0  0  0  0  0  0  0  0  0  0
  182.6250  179.0950  144.1550 C   0  0  0  0  0  3  0  0  0  0  0  0
  189.3760  177.1080  143.4710 C   0  0  0  0  0  0  0  0  0  0  0  0
  191.5090  176.3220  144.4330 C   0  0  0  0  0  2  0  0  0  0  0  0
  186.4530  177.9700  141.3850 O   0  0  0  0  0  0  0  0  0  0  0  0
  191.1680  177.1660  145.6570 C   0  0  0  0  0  2  0  0  0  0  0  0
  185.0970  178.3350  141.4720 C   0  0  0  0  0  0  0  0  0  0  0  0
  183.4670  179.0990  145.2570 C   0  0  0  0  0  3  0  0  0  0  0  0
  185.3480  179.4230  139.1650 C   0  0  0  0  0  2  0  0  0  0  0  0
  185.6390  178.5150  138.0700 N   0  0  0  0  0  2  0  0  0  0  0  0
  186.8890  177.8910  137.9910 C   0  0  0  0  0  0  0  0  0  0  0  0
  187.9220  177.3750  137.9270 N   0  0  0  0  0  0  0  0  0  0  0  0
  1  2  2  0  0  0  0
  1 15  1  0  0  0  0
  2 13  1  0  0  0  0
  3  4  1  1  0  0  0
  3  7  1  0  0  0  0
  5 16  2  0  0  0  0
  5  6  1  0  0  0  0
  6  3  1  0  0  0  0
  7 17  2  0  0  0  0
  8 15  2  0  0  0  0
  8 10  1  0  0  0  0
  9 11  1  6  0  0  0
  9  1  1  0  0  0  0
 11 18  2  0  0  0  0
 12 18  1  0  0  0  0
 12 19  1  0  0  0  0
 13 23  2  0  0  0  0
 14  7  1  0  0  0  0
 14  2  1  0  0  0  0
 16 22  1  0  0  0  0
 17 23  1  0  0  0  0
 18  8  1  0  0  0  0
 19 21  1  0  0  0  0
 20 22  1  0  0  0  0
 20  9  1  0  0  0  0
 21 10  1  0  0  0  0
 22 14  2  0  0  0  0
 24 16  1  0  0  0  0
 25 24  1  0  0  0  0
 26 25  1  0  0  0  0
 27 26  3  0  0  0  0
M  END
>  <MODEL>
8

>  <REMARK>
 VINA RESULT:      -8.5      1.753      6.476
  Name = 
  3 active torsions:
  status: ('A' for Active; 'I' for Inactive)
    1  A    between atoms: C_7  and  C_19
    2  A    between atoms: C_7  and  N_25
    3  A    between atoms: C_11  and  N_25
                            x       y       z     vdW  Elec       q    Type
                         _______ _______ _______ _____ _____    ______ ____

>  <TORSDO>
F 3

$$$$
=
 OpenBabel11032420363D

 27 31  0  0  1  0  0  0  0  0999 V2000
  190.1900  177.2110  141.0950 C   0  0  0  0  0  0  0  0  0  0  0  0
  190.1420  177.4580  142.5500 C   0  0  0  0  0  0  0  0  0  0  0  0
  187.8460  177.6650  145.4600 C   0  0  2  0  0  3  0  0  0  0  0  0
  187.9550  177.9110  146.8270 O   0  0  0  0  0  1  0  0  0  0  0  0
  185.9230  178.1270  144.0620 C   0  0  0  0  0  3  0  0  0  0  0  0
  186.5400  177.1460  144.9750 C   0  0  0  0  0  2  0  0  0  0  0  0
  188.9230  177.7980  144.6520 C   0  0  0  0  0  0  0  0  0  0  0  0
  191.3660  176.6450  139.0460 C   0  0  0  0  0  0  0  0  0  0  0  0
  189.0010  177.3200  140.3750 C   0  0  2  0  0  3  0  0  0  0  0  0
  192.6300  176.2460  138.3430 C   0  0  0  0  0  2  0  0  0  0  0  0
  188.9800  177.0870  138.9970 C   0  0  0  0  0  3  0  0  0  0  0  0
  190.1410  176.5170  136.9490 O   0  0  0  0  0  0  0  0  0  0  0  0
  191.3480  177.5470  143.2540 C   0  0  0  0  0  3  0  0  0  0  0  0
  188.8970  177.6840  143.2150 C   0  0  0  0  0  0  0  0  0  0  0  0
  191.3770  176.8690  140.4260 C   0  0  0  0  0  3  0  0  0  0  0  0
  186.4960  178.4630  142.9150 C   0  0  0  0  0  0  0  0  0  0  0  0
  190.1630  177.9250  145.3000 C   0  0  0  0  0  3  0  0  0  0  0  0
  190.1580  176.7400  138.3300 C   0  0  0  0  0  0  0  0  0  0  0  0
  191.2790  176.0010  136.2600 C   0  0  0  0  0  2  0  0  0  0  0  0
  187.8360  177.6790  141.0450 O   0  0  0  0  0  0  0  0  0  0  0  0
  192.5620  176.5770  136.8510 C   0  0  0  0  0  2  0  0  0  0  0  0
  187.7830  177.8920  142.4340 C   0  0  0  0  0  0  0  0  0  0  0  0
  191.3620  177.8120  144.6130 C   0  0  0  0  0  3  0  0  0  0  0  0
  185.7460  179.3930  142.0210 C   0  0  0  0  0  2  0  0  0  0  0  0
  184.8270  178.6410  141.1850 N   0  0  0  0  0  2  0  0  0  0  0  0
  184.8080  178.8520  139.8010 C   0  0  0  0  0  0  0  0  0  0  0  0
  184.7940  179.0260  138.6580 N   0  0  0  0  0  0  0  0  0  0  0  0
  1  2  2  0  0  0  0
  2 14  1  0  0  0  0
  2 13  1  0  0  0  0
  3  4  1  1  0  0  0
  5  6  1  0  0  0  0
  6  3  1  0  0  0  0
  7 17  2  0  0  0  0
  7  3  1  0  0  0  0
  8 15  2  0  0  0  0
  9 11  1  6  0  0  0
  9 20  1  0  0  0  0
  9  1  1  0  0  0  0
 10  8  1  0  0  0  0
 12 18  1  0  0  0  0
 13 23  2  0  0  0  0
 14  7  1  0  0  0  0
 15  1  1  0  0  0  0
 16  5  2  0  0  0  0
 18 11  2  0  0  0  0
 18  8  1  0  0  0  0
 19 21  1  0  0  0  0
 19 12  1  0  0  0  0
 20 22  1  0  0  0  0
 21 10  1  0  0  0  0
 22 16  1  0  0  0  0
 22 14  2  0  0  0  0
 23 17  1  0  0  0  0
 24 16  1  0  0  0  0
 25 24  1  0  0  0  0
 26 25  1  0  0  0  0
 27 26  3  0  0  0  0
M  END
>  <MODEL>
9

>  <REMARK>
 VINA RESULT:      -8.4      2.533      6.337
  Name = 
  3 active torsions:
  status: ('A' for Active; 'I' for Inactive)
    1  A    between atoms: C_7  and  C_19
    2  A    between atoms: C_7  and  N_25
    3  A    between atoms: C_11  and  N_25
                            x       y       z     vdW  Elec       q    Type
                         _______ _______ _______ _____ _____    ______ ____

>  <TORSDO>
F 3

$$$$
