=
 OpenBabel11042409533D

 33 37  0  0  1  0  0  0  0  0999 V2000
  185.0140  178.2120  144.1760 N   0  0  0  0  0  2  0  0  0  0  0  0
  188.5010  177.3690  144.7270 C   0  0  0  0  0  3  0  0  0  0  0  0
  187.5760  178.0100  146.8910 C   0  0  0  0  0  3  0  0  0  0  0  0
  186.1950  178.0360  144.9290 C   0  0  0  0  0  0  0  0  0  0  0  0
  185.3150  177.8280  142.7960 C   0  0  2  0  0  3  0  0  0  0  0  0
  186.3250  178.2470  146.3000 C   0  0  0  0  0  3  0  0  0  0  0  0
  186.8350  177.4810  142.7390 C   0  0  2  0  0  3  0  0  0  0  0  0
  188.6600  177.5710  146.1070 C   0  0  0  0  0  3  0  0  0  0  0  0
  187.2470  177.6150  144.1620 C   0  0  0  0  0  0  0  0  0  0  0  0
  182.3900  176.7870  139.9800 C   0  0  0  0  0  3  0  0  0  0  0  0
  183.6770  179.6310  139.8060 C   0  0  0  0  0  3  0  0  0  0  0  0
  181.6270  177.5930  138.9920 C   0  0  0  0  0  2  0  0  0  0  0  0
  183.0870  179.5130  138.6150 C   0  0  0  0  0  3  0  0  0  0  0  0
  183.9460  178.5750  140.7550 N   0  0  0  0  0  0  0  0  0  0  0  0
  185.3670  180.0460  141.9020 O   0  0  0  0  0  0  0  0  0  0  0  0
  183.3900  177.2390  140.7390 C   0  0  0  0  0  3  0  0  0  0  0  0
  184.8690  178.8880  141.8180 C   0  0  0  0  0  0  0  0  0  0  0  0
  182.5960  178.2370  138.0290 C   0  0  2  0  0  3  0  0  0  0  0  0
  181.9350  178.4950  136.7140 C   0  0  0  0  0  0  0  0  0  0  0  0
  182.0950  177.7030  135.7460 O   0  0  0  0  0  0  0  0  0  0  0  0
  181.1320  179.6160  136.5590 O   0  0  0  0  0  1  0  0  0  0  0  0
  187.5830  178.4240  141.9130 N   0  0  0  0  0  2  0  0  0  0  0  0
  186.9470  178.3340  139.2040 N   0  0  0  0  0  0  0  0  0  0  0  0
  188.2470  177.9550  139.6650 C   0  0  0  0  0  0  0  0  0  0  0  0
  188.9350  177.4910  137.4190 N   0  0  0  0  0  0  0  0  0  0  0  0
  186.6190  178.2250  137.9510 C   0  0  0  0  0  3  0  0  0  0  0  0
  189.2600  177.5810  138.6730 C   0  0  0  0  0  0  0  0  0  0  0  0
  187.5590  177.6360  136.9260 C   0  0  0  0  0  2  0  0  0  0  0  0
  190.9640  177.4320  140.3320 C   0  0  0  0  0  0  0  0  0  0  0  0
  188.5740  178.0230  140.9620 C   0  0  0  0  0  0  0  0  0  0  0  0
  192.3890  177.2220  140.6960 C   0  0  0  0  0  1  0  0  0  0  0  0
  189.9510  177.6090  141.4370 C   0  0  0  0  0  2  0  0  0  0  0  0
  190.6160  177.3900  139.0810 N   0  0  0  0  0  0  0  0  0  0  0  0
  1  4  1  0  0  0  0
  2  8  1  0  0  0  0
  4  6  2  0  0  0  0
  5 17  1  6  0  0  0
  5  1  1  0  0  0  0
  6  3  1  0  0  0  0
  7 22  1  6  0  0  0
  7  5  1  0  0  0  0
  7  9  1  0  0  0  0
  8  3  2  0  0  0  0
  9  2  2  0  0  0  0
  9  4  1  0  0  0  0
 10 16  2  0  0  0  0
 11 14  1  0  0  0  0
 12 10  1  0  0  0  0
 13 11  2  0  0  0  0
 14 17  1  0  0  0  0
 16 14  1  0  0  0  0
 17 15  2  0  0  0  0
 18 19  1  6  0  0  0
 18 13  1  0  0  0  0
 18 12  1  0  0  0  0
 20 19  2  0  0  0  0
 21 19  1  0  0  0  0
 23 24  1  0  0  0  0
 24 30  2  0  0  0  0
 25 27  2  0  0  0  0
 26 23  2  0  0  0  0
 27 33  1  0  0  0  0
 27 24  1  0  0  0  0
 28 25  1  0  0  0  0
 28 26  1  0  0  0  0
 29 31  1  0  0  0  0
 29 32  1  0  0  0  0
 30 32  1  0  0  0  0
 30 22  1  0  0  0  0
 33 29  2  0  0  0  0
M  END
>  <MODEL>
1

>  <REMARK>
 VINA RESULT:      -8.5      0.000      0.000
  Name = 
  4 active torsions:
  status: ('A' for Active; 'I' for Inactive)
    1  A    between atoms: C_12  and  C_32
    2  A    between atoms: C_18  and  C_24
    3  A    between atoms: C_23  and  N_30
    4  A    between atoms: C_26  and  N_30
                            x       y       z     vdW  Elec       q    Type
                         _______ _______ _______ _____ _____    ______ ____

>  <TORSDO>
F 4

$$$$
=
 OpenBabel11042409533D

 33 37  0  0  1  0  0  0  0  0999 V2000
  184.2520  178.6380  144.0740 N   0  0  0  0  0  2  0  0  0  0  0  0
  187.3400  177.6000  145.6730 C   0  0  0  0  0  3  0  0  0  0  0  0
  186.0300  178.7780  147.3600 C   0  0  0  0  0  3  0  0  0  0  0  0
  185.1790  178.5140  145.1320 C   0  0  0  0  0  0  0  0  0  0  0  0
  184.8140  177.9380  142.9170 C   0  0  2  0  0  3  0  0  0  0  0  0
  185.0060  179.0020  146.4260 C   0  0  0  0  0  3  0  0  0  0  0  0
  186.2340  177.4420  143.3300 C   0  0  2  0  0  3  0  0  0  0  0  0
  187.1930  178.0780  146.9850 C   0  0  0  0  0  3  0  0  0  0  0  0
  186.3090  177.8380  144.7620 C   0  0  0  0  0  0  0  0  0  0  0  0
  182.1450  176.8720  139.8670 C   0  0  0  0  0  3  0  0  0  0  0  0
  184.0920  179.2670  139.3700 C   0  0  0  0  0  3  0  0  0  0  0  0
  181.7440  177.5560  138.6100 C   0  0  0  0  0  2  0  0  0  0  0  0
  183.6620  178.9900  138.1380 C   0  0  0  0  0  3  0  0  0  0  0  0
  183.9640  178.4370  140.5460 N   0  0  0  0  0  0  0  0  0  0  0  0
  185.5240  179.8190  141.6210 O   0  0  0  0  0  0  0  0  0  0  0  0
  183.1090  177.2790  140.6950 C   0  0  0  0  0  3  0  0  0  0  0  0
  184.7780  178.8010  141.6790 C   0  0  0  0  0  0  0  0  0  0  0  0
  182.9640  177.7390  137.7390 C   0  0  2  0  0  3  0  0  0  0  0  0
  182.5740  177.8030  136.2980 C   0  0  0  0  0  0  0  0  0  0  0  0
  181.5910  178.4990  135.9260 O   0  0  0  0  0  1  0  0  0  0  0  0
  183.3080  177.0930  135.3580 O   0  0  0  0  0  0  0  0  0  0  0  0
  187.2910  178.1090  142.5730 N   0  0  0  0  0  2  0  0  0  0  0  0
  188.1460  178.2410  139.9270 N   0  0  0  0  0  0  0  0  0  0  0  0
  188.8930  177.5090  140.9030 C   0  0  0  0  0  0  0  0  0  0  0  0
  190.5140  176.9090  139.2470 N   0  0  0  0  0  0  0  0  0  0  0  0
  188.4980  178.2480  138.6760 C   0  0  0  0  0  3  0  0  0  0  0  0
  190.1550  176.8850  140.4950 C   0  0  0  0  0  0  0  0  0  0  0  0
  189.6670  177.4370  138.1690 C   0  0  0  0  0  2  0  0  0  0  0  0
  190.6680  176.2430  142.7310 C   0  0  0  0  0  0  0  0  0  0  0  0
  188.5080  177.4640  142.1850 C   0  0  0  0  0  0  0  0  0  0  0  0
  191.6070  175.6400  143.7120 C   0  0  0  0  0  1  0  0  0  0  0  0
  189.3020  176.6770  143.2050 C   0  0  0  0  0  2  0  0  0  0  0  0
  191.0180  176.3190  141.4820 N   0  0  0  0  0  0  0  0  0  0  0  0
  1  4  1  0  0  0  0
  2  8  1  0  0  0  0
  4  6  2  0  0  0  0
  5 17  1  6  0  0  0
  5  7  1  0  0  0  0
  5  1  1  0  0  0  0
  6  3  1  0  0  0  0
  7 22  1  6  0  0  0
  7  9  1  0  0  0  0
  8  3  2  0  0  0  0
  9  4  1  0  0  0  0
  9  2  2  0  0  0  0
 10 16  2  0  0  0  0
 11 14  1  0  0  0  0
 12 10  1  0  0  0  0
 13 11  2  0  0  0  0
 14 16  1  0  0  0  0
 14 17  1  0  0  0  0
 15 17  2  0  0  0  0
 18 19  1  6  0  0  0
 18 13  1  0  0  0  0
 18 12  1  0  0  0  0
 20 19  1  0  0  0  0
 21 19  2  0  0  0  0
 23 24  1  0  0  0  0
 24 30  2  0  0  0  0
 25 27  2  0  0  0  0
 26 23  2  0  0  0  0
 27 24  1  0  0  0  0
 27 33  1  0  0  0  0
 28 26  1  0  0  0  0
 28 25  1  0  0  0  0
 29 32  1  0  0  0  0
 29 31  1  0  0  0  0
 30 22  1  0  0  0  0
 30 32  1  0  0  0  0
 33 29  2  0  0  0  0
M  END
>  <MODEL>
2

>  <REMARK>
 VINA RESULT:      -8.5      1.219      1.657
  Name = 
  4 active torsions:
  status: ('A' for Active; 'I' for Inactive)
    1  A    between atoms: C_12  and  C_32
    2  A    between atoms: C_18  and  C_24
    3  A    between atoms: C_23  and  N_30
    4  A    between atoms: C_26  and  N_30
                            x       y       z     vdW  Elec       q    Type
                         _______ _______ _______ _____ _____    ______ ____

>  <TORSDO>
F 4

$$$$
=
 OpenBabel11042409533D

 33 37  0  0  1  0  0  0  0  0999 V2000
  182.1660  178.7730  139.5800 N   0  0  0  0  0  2  0  0  0  0  0  0
  182.2500  178.7970  143.2080 C   0  0  0  0  0  3  0  0  0  0  0  0
  180.1450  179.8340  142.5410 C   0  0  0  0  0  3  0  0  0  0  0  0
  181.6860  179.0440  140.8800 C   0  0  0  0  0  0  0  0  0  0  0  0
  183.4470  178.0790  139.7240 C   0  0  2  0  0  3  0  0  0  0  0  0
  180.4710  179.6530  141.1870 C   0  0  0  0  0  3  0  0  0  0  0  0
  183.7690  178.0250  141.2490 C   0  0  2  0  0  3  0  0  0  0  0  0
  181.0320  179.4060  143.5480 C   0  0  0  0  0  3  0  0  0  0  0  0
  182.5520  178.6300  141.8540 C   0  0  0  0  0  0  0  0  0  0  0  0
  185.2470  175.7240  136.7600 C   0  0  0  0  0  3  0  0  0  0  0  0
  186.3360  178.6170  137.2270 C   0  0  0  0  0  3  0  0  0  0  0  0
  186.2010  176.0530  135.6700 C   0  0  0  0  0  2  0  0  0  0  0  0
  187.3110  178.0590  136.5070 C   0  0  0  0  0  3  0  0  0  0  0  0
  185.2550  177.9390  137.9050 N   0  0  0  0  0  0  0  0  0  0  0  0
  184.8090  179.9300  139.0610 O   0  0  0  0  0  0  0  0  0  0  0  0
  184.8470  176.5640  137.7170 C   0  0  0  0  0  3  0  0  0  0  0  0
  184.5190  178.7150  138.8720 C   0  0  0  0  0  0  0  0  0  0  0  0
  187.4720  176.5980  136.2760 C   0  0  2  0  0  3  0  0  0  0  0  0
  188.6350  176.3440  135.3730 C   0  0  0  0  0  0  0  0  0  0  0  0
  188.9040  175.1770  134.9800 O   0  0  0  0  0  1  0  0  0  0  0  0
  189.4240  177.4080  134.9580 O   0  0  0  0  0  0  0  0  0  0  0  0
  184.9440  178.8210  141.5920 N   0  0  0  0  0  2  0  0  0  0  0  0
  187.5210  178.4170  140.6200 N   0  0  0  0  0  0  0  0  0  0  0  0
  187.2020  178.1460  141.9870 C   0  0  0  0  0  0  0  0  0  0  0  0
  189.4630  177.4770  142.4060 N   0  0  0  0  0  0  0  0  0  0  0  0
  188.7020  178.1630  140.1400 C   0  0  0  0  0  3  0  0  0  0  0  0
  188.2790  177.7130  142.8840 C   0  0  0  0  0  0  0  0  0  0  0  0
  189.7800  177.5090  140.9720 C   0  0  0  0  0  2  0  0  0  0  0  0
  186.8550  177.8130  144.7920 C   0  0  0  0  0  0  0  0  0  0  0  0
  185.9740  178.3650  142.4740 C   0  0  0  0  0  0  0  0  0  0  0  0
  186.6650  177.7040  146.2620 C   0  0  0  0  0  1  0  0  0  0  0  0
  185.6480  178.0630  143.9210 C   0  0  0  0  0  2  0  0  0  0  0  0
  188.0380  177.6240  144.2900 N   0  0  0  0  0  0  0  0  0  0  0  0
  1  5  1  0  0  0  0
  1  4  1  0  0  0  0
  2  8  1  0  0  0  0
  3  8  2  0  0  0  0
  4  6  2  0  0  0  0
  4  9  1  0  0  0  0
  5 17  1  6  0  0  0
  5  7  1  0  0  0  0
  6  3  1  0  0  0  0
  7 22  1  6  0  0  0
  7  9  1  0  0  0  0
  9  2  2  0  0  0  0
 10 16  2  0  0  0  0
 11 14  1  0  0  0  0
 12 18  1  0  0  0  0
 12 10  1  0  0  0  0
 13 11  2  0  0  0  0
 14 17  1  0  0  0  0
 16 14  1  0  0  0  0
 17 15  2  0  0  0  0
 18 19  1  6  0  0  0
 18 13  1  0  0  0  0
 20 19  1  0  0  0  0
 21 19  2  0  0  0  0
 22 30  1  0  0  0  0
 23 24  1  0  0  0  0
 24 30  2  0  0  0  0
 24 27  1  0  0  0  0
 25 27  2  0  0  0  0
 26 23  2  0  0  0  0
 26 28  1  0  0  0  0
 27 33  1  0  0  0  0
 28 25  1  0  0  0  0
 29 31  1  0  0  0  0
 30 32  1  0  0  0  0
 32 29  1  0  0  0  0
 33 29  2  0  0  0  0
M  END
>  <MODEL>
3

>  <REMARK>
 VINA RESULT:      -8.2      2.739      5.432
  Name = 
  4 active torsions:
  status: ('A' for Active; 'I' for Inactive)
    1  A    between atoms: C_12  and  C_32
    2  A    between atoms: C_18  and  C_24
    3  A    between atoms: C_23  and  N_30
    4  A    between atoms: C_26  and  N_30
                            x       y       z     vdW  Elec       q    Type
                         _______ _______ _______ _____ _____    ______ ____

>  <TORSDO>
F 4

$$$$
=
 OpenBabel11042409533D

 33 37  0  0  1  0  0  0  0  0999 V2000
  184.9660  178.2350  144.3000 N   0  0  0  0  0  2  0  0  0  0  0  0
  188.4460  177.3900  144.8870 C   0  0  0  0  0  3  0  0  0  0  0  0
  187.4910  177.9950  147.0480 C   0  0  0  0  0  3  0  0  0  0  0  0
  186.1370  178.0490  145.0670 C   0  0  0  0  0  0  0  0  0  0  0  0
  185.2870  177.8730  142.9180 C   0  0  2  0  0  3  0  0  0  0  0  0
  186.2470  178.2390  146.4430 C   0  0  0  0  0  3  0  0  0  0  0  0
  186.8080  177.5290  142.8780 C   0  0  2  0  0  3  0  0  0  0  0  0
  188.5860  177.5700  146.2720 C   0  0  0  0  0  3  0  0  0  0  0  0
  187.2000  177.6420  144.3080 C   0  0  0  0  0  0  0  0  0  0  0  0
  182.4370  176.8580  140.0170 C   0  0  0  0  0  3  0  0  0  0  0  0
  183.6990  179.7170  139.9270 C   0  0  0  0  0  3  0  0  0  0  0  0
  181.6880  177.6760  139.0280 C   0  0  0  0  0  2  0  0  0  0  0  0
  183.1370  179.6160  138.7210 C   0  0  0  0  0  3  0  0  0  0  0  0
  183.9570  178.6460  140.8620 N   0  0  0  0  0  0  0  0  0  0  0  0
  185.3370  180.1080  142.0690 O   0  0  0  0  0  0  0  0  0  0  0  0
  183.4150  177.3050  140.8080 C   0  0  0  0  0  3  0  0  0  0  0  0
  184.8530  178.9470  141.9510 C   0  0  0  0  0  0  0  0  0  0  0  0
  182.6730  178.3470  138.0990 C   0  0  2  0  0  3  0  0  0  0  0  0
  182.0400  178.6240  136.7750 C   0  0  0  0  0  0  0  0  0  0  0  0
  182.2830  177.8920  135.7790 O   0  0  0  0  0  0  0  0  0  0  0  0
  181.1690  179.6970  136.6430 O   0  0  0  0  0  1  0  0  0  0  0  0
  187.5660  178.4870  142.0780 N   0  0  0  0  0  2  0  0  0  0  0  0
  190.2540  177.7640  141.9800 N   0  0  0  0  0  0  0  0  0  0  0  0
  189.4720  177.8420  140.7850 C   0  0  0  0  0  0  0  0  0  0  0  0
  191.3650  177.1860  139.4750 N   0  0  0  0  0  0  0  0  0  0  0  0
  191.5250  177.4980  141.9370 C   0  0  0  0  0  3  0  0  0  0  0  0
  190.0980  177.4690  139.5130 C   0  0  0  0  0  0  0  0  0  0  0  0
  192.2620  177.3240  140.6300 C   0  0  0  0  0  2  0  0  0  0  0  0
  188.0370  177.6620  138.3340 C   0  0  0  0  0  0  0  0  0  0  0  0
  188.1710  178.1590  140.8230 C   0  0  0  0  0  0  0  0  0  0  0  0
  187.2550  177.5180  137.0790 C   0  0  0  0  0  1  0  0  0  0  0  0
  187.3580  178.2480  139.5490 C   0  0  0  0  0  2  0  0  0  0  0  0
  189.2970  177.3460  138.3370 N   0  0  0  0  0  0  0  0  0  0  0  0
  1  4  1  0  0  0  0
  2  8  1  0  0  0  0
  4  6  2  0  0  0  0
  5 17  1  6  0  0  0
  5  1  1  0  0  0  0
  6  3  1  0  0  0  0
  7 22  1  6  0  0  0
  7  5  1  0  0  0  0
  7  9  1  0  0  0  0
  8  3  2  0  0  0  0
  9  2  2  0  0  0  0
  9  4  1  0  0  0  0
 10 16  2  0  0  0  0
 11 14  1  0  0  0  0
 12 10  1  0  0  0  0
 13 11  2  0  0  0  0
 14 17  1  0  0  0  0
 16 14  1  0  0  0  0
 17 15  2  0  0  0  0
 18 19  1  6  0  0  0
 18 13  1  0  0  0  0
 18 12  1  0  0  0  0
 20 19  2  0  0  0  0
 21 19  1  0  0  0  0
 24 30  2  0  0  0  0
 24 23  1  0  0  0  0
 25 27  2  0  0  0  0
 25 28  1  0  0  0  0
 26 23  2  0  0  0  0
 27 24  1  0  0  0  0
 28 26  1  0  0  0  0
 29 33  2  0  0  0  0
 29 32  1  0  0  0  0
 30 22  1  0  0  0  0
 31 29  1  0  0  0  0
 32 30  1  0  0  0  0
 33 27  1  0  0  0  0
M  END
>  <MODEL>
4

>  <REMARK>
 VINA RESULT:      -8.2      0.723      2.307
  Name = 
  4 active torsions:
  status: ('A' for Active; 'I' for Inactive)
    1  A    between atoms: C_12  and  C_32
    2  A    between atoms: C_18  and  C_24
    3  A    between atoms: C_23  and  N_30
    4  A    between atoms: C_26  and  N_30
                            x       y       z     vdW  Elec       q    Type
                         _______ _______ _______ _____ _____    ______ ____

>  <TORSDO>
F 4

$$$$
=
 OpenBabel11042409533D

 33 37  0  0  1  0  0  0  0  0999 V2000
  190.7060  177.5240  141.0220 N   0  0  0  0  0  2  0  0  0  0  0  0
  191.4870  175.8440  137.9010 C   0  0  0  0  0  3  0  0  0  0  0  0
  193.5830  176.7460  138.7630 C   0  0  0  0  0  3  0  0  0  0  0  0
  191.5350  177.0740  139.9710 C   0  0  0  0  0  0  0  0  0  0  0  0
  189.3510  177.0450  140.7440 C   0  0  2  0  0  3  0  0  0  0  0  0
  192.9100  177.2770  139.8760 C   0  0  0  0  0  3  0  0  0  0  0  0
  189.3950  176.3250  139.3610 C   0  0  2  0  0  3  0  0  0  0  0  0
  192.8730  176.0310  137.7790 C   0  0  0  0  0  3  0  0  0  0  0  0
  190.8400  176.3840  139.0150 C   0  0  0  0  0  0  0  0  0  0  0  0
  186.9030  177.1580  144.1450 C   0  0  0  0  0  3  0  0  0  0  0  0
  186.3930  179.2460  141.8750 C   0  0  0  0  0  3  0  0  0  0  0  0
  185.9300  178.1660  144.6390 C   0  0  0  0  0  2  0  0  0  0  0  0
  185.2740  179.3320  142.5970 C   0  0  0  0  0  3  0  0  0  0  0  0
  187.3930  178.2040  141.9350 N   0  0  0  0  0  0  0  0  0  0  0  0
  188.2880  179.0270  139.9290 O   0  0  0  0  0  0  0  0  0  0  0  0
  187.5310  177.2000  142.9680 C   0  0  0  0  0  3  0  0  0  0  0  0
  188.3390  178.1600  140.8480 C   0  0  0  0  0  0  0  0  0  0  0  0
  184.8360  178.3370  143.6130 C   0  0  2  0  0  3  0  0  0  0  0  0
  183.5710  178.7910  144.2650 C   0  0  0  0  0  0  0  0  0  0  0  0
  182.5170  178.9440  143.5910 O   0  0  0  0  0  0  0  0  0  0  0  0
  183.5560  179.0410  145.6300 O   0  0  0  0  0  1  0  0  0  0  0  0
  188.6130  177.0310  138.3490 N   0  0  0  0  0  2  0  0  0  0  0  0
  185.9870  177.9490  138.2300 N   0  0  0  0  0  0  0  0  0  0  0  0
  186.4030  176.8150  137.4640 C   0  0  0  0  0  0  0  0  0  0  0  0
  184.1980  176.5900  136.5570 N   0  0  0  0  0  0  0  0  0  0  0  0
  184.7470  178.3400  138.2360 C   0  0  0  0  0  3  0  0  0  0  0  0
  185.4320  176.1860  136.5620 C   0  0  0  0  0  0  0  0  0  0  0  0
  183.6670  177.5880  137.4950 C   0  0  0  0  0  2  0  0  0  0  0  0
  187.0830  174.7280  135.6530 C   0  0  0  0  0  0  0  0  0  0  0  0
  187.6700  176.3830  137.4900 C   0  0  0  0  0  0  0  0  0  0  0  0
  187.4750  173.6810  134.6750 C   0  0  0  0  0  1  0  0  0  0  0  0
  188.0940  175.1740  136.6820 C   0  0  0  0  0  2  0  0  0  0  0  0
  185.8660  175.1820  135.6430 N   0  0  0  0  0  0  0  0  0  0  0  0
  2  9  1  0  0  0  0
  3  6  2  0  0  0  0
  4  1  1  0  0  0  0
  5 17  1  6  0  0  0
  5  1  1  0  0  0  0
  6  4  1  0  0  0  0
  7 22  1  6  0  0  0
  7  5  1  0  0  0  0
  8  2  2  0  0  0  0
  8  3  1  0  0  0  0
  9  7  1  0  0  0  0
  9  4  2  0  0  0  0
 10 12  1  0  0  0  0
 11 14  1  0  0  0  0
 11 13  2  0  0  0  0
 13 18  1  0  0  0  0
 14 16  1  0  0  0  0
 15 17  2  0  0  0  0
 16 10  2  0  0  0  0
 17 14  1  0  0  0  0
 18 19  1  1  0  0  0
 18 12  1  0  0  0  0
 19 21  1  0  0  0  0
 20 19  2  0  0  0  0
 23 26  2  0  0  0  0
 24 30  2  0  0  0  0
 24 23  1  0  0  0  0
 25 27  2  0  0  0  0
 25 28  1  0  0  0  0
 27 24  1  0  0  0  0
 28 26  1  0  0  0  0
 29 32  1  0  0  0  0
 30 22  1  0  0  0  0
 31 29  1  0  0  0  0
 32 30  1  0  0  0  0
 33 29  2  0  0  0  0
 33 27  1  0  0  0  0
M  END
>  <MODEL>
5

>  <REMARK>
 VINA RESULT:      -7.7      2.610      6.134
  Name = 
  4 active torsions:
  status: ('A' for Active; 'I' for Inactive)
    1  A    between atoms: C_12  and  C_32
    2  A    between atoms: C_18  and  C_24
    3  A    between atoms: C_23  and  N_30
    4  A    between atoms: C_26  and  N_30
                            x       y       z     vdW  Elec       q    Type
                         _______ _______ _______ _____ _____    ______ ____

>  <TORSDO>
F 4

$$$$
=
 OpenBabel11042409533D

 33 37  0  0  1  0  0  0  0  0999 V2000
  184.0400  178.3890  143.6230 N   0  0  0  0  0  2  0  0  0  0  0  0
  187.2290  177.8150  145.2570 C   0  0  0  0  0  3  0  0  0  0  0  0
  185.6930  178.6280  146.9690 C   0  0  0  0  0  3  0  0  0  0  0  0
  184.9510  178.3640  144.7010 C   0  0  0  0  0  0  0  0  0  0  0  0
  184.7430  177.8780  142.4450 C   0  0  2  0  0  3  0  0  0  0  0  0
  184.6650  178.7270  146.0170 C   0  0  0  0  0  3  0  0  0  0  0  0
  186.2200  177.6160  142.8730 C   0  0  2  0  0  3  0  0  0  0  0  0
  186.9710  178.1720  146.5900 C   0  0  0  0  0  3  0  0  0  0  0  0
  186.1920  177.9250  144.3280 C   0  0  0  0  0  0  0  0  0  0  0  0
  181.5160  177.1900  139.8620 C   0  0  0  0  0  3  0  0  0  0  0  0
  183.5620  179.4340  139.1200 C   0  0  0  0  0  3  0  0  0  0  0  0
  180.9740  177.9650  138.7160 C   0  0  0  0  0  2  0  0  0  0  0  0
  182.9090  179.2540  137.9710 C   0  0  0  0  0  3  0  0  0  0  0  0
  183.5570  178.5610  140.2730 N   0  0  0  0  0  0  0  0  0  0  0  0
  185.3950  179.7530  141.1110 O   0  0  0  0  0  0  0  0  0  0  0  0
  182.6380  177.4730  140.5260 C   0  0  0  0  0  3  0  0  0  0  0  0
  184.5790  178.8000  141.2610 C   0  0  0  0  0  0  0  0  0  0  0  0
  182.0430  178.0860  137.6550 C   0  0  2  0  0  3  0  0  0  0  0  0
  181.4260  178.2530  136.3050 C   0  0  0  0  0  0  0  0  0  0  0  0
  181.1210  177.2490  135.6070 O   0  0  0  0  0  0  0  0  0  0  0  0
  181.1800  179.5290  135.8170 O   0  0  0  0  0  1  0  0  0  0  0  0
  187.1560  178.5080  142.1940 N   0  0  0  0  0  2  0  0  0  0  0  0
  189.6600  177.9880  143.2950 N   0  0  0  0  0  0  0  0  0  0  0  0
  189.4270  177.8250  141.8930 C   0  0  0  0  0  0  0  0  0  0  0  0
  191.6950  177.1280  141.5730 N   0  0  0  0  0  0  0  0  0  0  0  0
  190.8430  177.8180  143.8050 C   0  0  0  0  0  3  0  0  0  0  0  0
  190.5180  177.3150  141.0570 C   0  0  0  0  0  0  0  0  0  0  0  0
  192.0470  177.5060  142.9480 C   0  0  0  0  0  2  0  0  0  0  0  0
  189.1070  177.1700  139.1420 C   0  0  0  0  0  0  0  0  0  0  0  0
  188.2190  178.0430  141.3570 C   0  0  0  0  0  0  0  0  0  0  0  0
  188.9010  176.7790  137.7240 C   0  0  0  0  0  1  0  0  0  0  0  0
  187.9890  177.8780  139.8700 C   0  0  0  0  0  2  0  0  0  0  0  0
  190.2620  176.9560  139.6980 N   0  0  0  0  0  0  0  0  0  0  0  0
  1  4  1  0  0  0  0
  2  8  1  0  0  0  0
  4  6  2  0  0  0  0
  5 17  1  6  0  0  0
  5  7  1  0  0  0  0
  5  1  1  0  0  0  0
  6  3  1  0  0  0  0
  7 22  1  6  0  0  0
  7  9  1  0  0  0  0
  8  3  2  0  0  0  0
  9  4  1  0  0  0  0
  9  2  2  0  0  0  0
 10 16  2  0  0  0  0
 11 14  1  0  0  0  0
 12 10  1  0  0  0  0
 13 11  2  0  0  0  0
 14 16  1  0  0  0  0
 14 17  1  0  0  0  0
 15 17  2  0  0  0  0
 18 19  1  6  0  0  0
 18 13  1  0  0  0  0
 18 12  1  0  0  0  0
 20 19  2  0  0  0  0
 21 19  1  0  0  0  0
 23 26  2  0  0  0  0
 24 23  1  0  0  0  0
 25 28  1  0  0  0  0
 27 25  2  0  0  0  0
 27 24  1  0  0  0  0
 28 26  1  0  0  0  0
 29 33  2  0  0  0  0
 29 32  1  0  0  0  0
 30 24  2  0  0  0  0
 30 22  1  0  0  0  0
 31 29  1  0  0  0  0
 32 30  1  0  0  0  0
 33 27  1  0  0  0  0
M  END
>  <MODEL>
6

>  <REMARK>
 VINA RESULT:      -7.6      1.216      2.643
  Name = 
  4 active torsions:
  status: ('A' for Active; 'I' for Inactive)
    1  A    between atoms: C_12  and  C_32
    2  A    between atoms: C_18  and  C_24
    3  A    between atoms: C_23  and  N_30
    4  A    between atoms: C_26  and  N_30
                            x       y       z     vdW  Elec       q    Type
                         _______ _______ _______ _____ _____    ______ ____

>  <TORSDO>
F 4

$$$$
=
 OpenBabel11042409533D

 33 37  0  0  1  0  0  0  0  0999 V2000
  189.8280  177.3800  139.0930 N   0  0  0  0  0  2  0  0  0  0  0  0
  186.9750  177.7510  136.8810 C   0  0  0  0  0  3  0  0  0  0  0  0
  188.9730  177.8810  135.4880 C   0  0  0  0  0  3  0  0  0  0  0  0
  189.1680  177.5690  137.8600 C   0  0  0  0  0  0  0  0  0  0  0  0
  188.7960  177.2200  140.1200 C   0  0  2  0  0  3  0  0  0  0  0  0
  189.7880  177.7140  136.6190 C   0  0  0  0  0  3  0  0  0  0  0  0
  187.4180  177.4220  139.4180 C   0  0  2  0  0  3  0  0  0  0  0  0
  187.5710  177.8980  135.6190 C   0  0  0  0  0  3  0  0  0  0  0  0
  187.8070  177.5890  137.9920 C   0  0  0  0  0  0  0  0  0  0  0  0
  190.9160  175.6550  143.3790 C   0  0  0  0  0  3  0  0  0  0  0  0
  189.7610  178.5510  143.6090 C   0  0  0  0  0  3  0  0  0  0  0  0
  191.4610  176.2860  144.6090 C   0  0  0  0  0  2  0  0  0  0  0  0
  190.0450  178.2570  144.8790 C   0  0  0  0  0  3  0  0  0  0  0  0
  189.6750  177.6300  142.4980 N   0  0  0  0  0  0  0  0  0  0  0  0
  188.6380  179.3230  141.2490 O   0  0  0  0  0  0  0  0  0  0  0  0
  190.1480  176.2630  142.4730 C   0  0  0  0  0  3  0  0  0  0  0  0
  189.0470  178.1290  141.3000 C   0  0  0  0  0  0  0  0  0  0  0  0
  190.3220  176.8900  145.3970 C   0  0  2  0  0  3  0  0  0  0  0  0
  190.6630  176.9490  146.8500 C   0  0  0  0  0  0  0  0  0  0  0  0
  189.7690  177.1620  147.7130 O   0  0  0  0  0  1  0  0  0  0  0  0
  191.9780  176.7620  147.2530 O   0  0  0  0  0  0  0  0  0  0  0  0
  186.7310  178.6210  139.8900 N   0  0  0  0  0  2  0  0  0  0  0  0
  185.7150  178.7330  142.4800 N   0  0  0  0  0  0  0  0  0  0  0  0
  184.8400  178.7110  141.3490 C   0  0  0  0  0  0  0  0  0  0  0  0
  182.9330  178.8120  142.7940 N   0  0  0  0  0  0  0  0  0  0  0  0
  185.2490  178.7120  143.6930 C   0  0  0  0  0  3  0  0  0  0  0  0
  183.3950  178.8150  141.5800 C   0  0  0  0  0  0  0  0  0  0  0  0
  183.7710  178.5960  143.9810 C   0  0  0  0  0  2  0  0  0  0  0  0
  182.9380  178.9590  139.2460 C   0  0  0  0  0  0  0  0  0  0  0  0
  185.3170  178.6880  140.0980 C   0  0  0  0  0  0  0  0  0  0  0  0
  181.9710  179.1470  138.1350 C   0  0  0  0  0  1  0  0  0  0  0  0
  184.3780  178.6540  138.9110 C   0  0  0  0  0  2  0  0  0  0  0  0
  182.5110  178.9940  140.4730 N   0  0  0  0  0  0  0  0  0  0  0  0
  1  5  1  0  0  0  0
  2  9  1  0  0  0  0
  3  8  1  0  0  0  0
  3  6  2  0  0  0  0
  4  9  2  0  0  0  0
  4  1  1  0  0  0  0
  5 17  1  1  0  0  0
  6  4  1  0  0  0  0
  7 22  1  1  0  0  0
  7  5  1  0  0  0  0
  8  2  2  0  0  0  0
  9  7  1  0  0  0  0
 10 12  1  0  0  0  0
 11 13  2  0  0  0  0
 12 18  1  0  0  0  0
 13 18  1  0  0  0  0
 14 11  1  0  0  0  0
 15 17  2  0  0  0  0
 16 14  1  0  0  0  0
 16 10  2  0  0  0  0
 17 14  1  0  0  0  0
 18 19  1  1  0  0  0
 19 21  2  0  0  0  0
 19 20  1  0  0  0  0
 22 30  1  0  0  0  0
 23 26  2  0  0  0  0
 24 27  1  0  0  0  0
 24 23  1  0  0  0  0
 25 28  1  0  0  0  0
 26 28  1  0  0  0  0
 27 25  2  0  0  0  0
 29 33  2  0  0  0  0
 30 24  2  0  0  0  0
 31 29  1  0  0  0  0
 32 29  1  0  0  0  0
 32 30  1  0  0  0  0
 33 27  1  0  0  0  0
M  END
>  <MODEL>
7

>  <REMARK>
 VINA RESULT:      -7.6      2.793      8.449
  Name = 
  4 active torsions:
  status: ('A' for Active; 'I' for Inactive)
    1  A    between atoms: C_12  and  C_32
    2  A    between atoms: C_18  and  C_24
    3  A    between atoms: C_23  and  N_30
    4  A    between atoms: C_26  and  N_30
                            x       y       z     vdW  Elec       q    Type
                         _______ _______ _______ _____ _____    ______ ____

>  <TORSDO>
F 4

$$$$
=
 OpenBabel11042409533D

 33 37  0  0  1  0  0  0  0  0999 V2000
  189.6400  177.5570  139.1610 N   0  0  0  0  0  2  0  0  0  0  0  0
  186.6470  178.0840  137.1760 C   0  0  0  0  0  3  0  0  0  0  0  0
  188.5420  178.1970  135.6440 C   0  0  0  0  0  3  0  0  0  0  0  0
  188.8980  177.8050  137.9850 C   0  0  0  0  0  0  0  0  0  0  0  0
  188.6810  177.3970  140.2550 C   0  0  2  0  0  3  0  0  0  0  0  0
  189.4310  177.9700  136.7070 C   0  0  0  0  0  3  0  0  0  0  0  0
  187.2620  177.6630  139.6620 C   0  0  2  0  0  3  0  0  0  0  0  0
  187.1550  178.2530  135.8780 C   0  0  0  0  0  3  0  0  0  0  0  0
  187.5520  177.8630  138.2170 C   0  0  0  0  0  0  0  0  0  0  0  0
  190.8550  175.6270  143.3700 C   0  0  0  0  0  3  0  0  0  0  0  0
  189.8970  178.5830  143.7170 C   0  0  0  0  0  3  0  0  0  0  0  0
  191.4980  176.1940  144.5840 C   0  0  0  0  0  2  0  0  0  0  0  0
  190.2250  178.2420  144.9650 C   0  0  0  0  0  3  0  0  0  0  0  0
  189.6990  177.6960  142.5940 N   0  0  0  0  0  0  0  0  0  0  0  0
  188.7110  179.4790  141.4340 O   0  0  0  0  0  0  0  0  0  0  0  0
  190.0830  176.3020  142.5170 C   0  0  0  0  0  3  0  0  0  0  0  0
  189.0460  178.2600  141.4390 C   0  0  0  0  0  0  0  0  0  0  0  0
  190.4400  176.8480  145.4410 C   0  0  2  0  0  3  0  0  0  0  0  0
  190.8540  176.8520  146.8750 C   0  0  0  0  0  0  0  0  0  0  0  0
  190.0670  177.2560  147.7730 O   0  0  0  0  0  1  0  0  0  0  0  0
  192.1200  176.4000  147.2240 O   0  0  0  0  0  0  0  0  0  0  0  0
  186.6510  178.8670  140.2180 N   0  0  0  0  0  2  0  0  0  0  0  0
  184.1080  178.6480  139.1050 N   0  0  0  0  0  0  0  0  0  0  0  0
  184.2810  178.7690  140.5190 C   0  0  0  0  0  0  0  0  0  0  0  0
  181.9110  178.6610  140.8420 N   0  0  0  0  0  0  0  0  0  0  0  0
  182.9240  178.6190  138.5710 C   0  0  0  0  0  3  0  0  0  0  0  0
  183.0940  178.7080  141.3770 C   0  0  0  0  0  0  0  0  0  0  0  0
  181.6690  178.7770  139.3980 C   0  0  0  0  0  2  0  0  0  0  0  0
  184.4130  178.7150  143.3620 C   0  0  0  0  0  0  0  0  0  0  0  0
  185.5000  178.8440  141.0690 C   0  0  0  0  0  0  0  0  0  0  0  0
  184.5090  178.6280  144.8420 C   0  0  0  0  0  1  0  0  0  0  0  0
  185.6690  178.9820  142.5670 C   0  0  0  0  0  2  0  0  0  0  0  0
  183.2470  178.6280  142.7960 N   0  0  0  0  0  0  0  0  0  0  0  0
  1  5  1  0  0  0  0
  2  9  1  0  0  0  0
  3  8  1  0  0  0  0
  3  6  2  0  0  0  0
  4  9  2  0  0  0  0
  4  1  1  0  0  0  0
  5 17  1  1  0  0  0
  6  4  1  0  0  0  0
  7 22  1  1  0  0  0
  7  5  1  0  0  0  0
  8  2  2  0  0  0  0
  9  7  1  0  0  0  0
 10 12  1  0  0  0  0
 11 13  2  0  0  0  0
 12 18  1  0  0  0  0
 13 18  1  0  0  0  0
 14 11  1  0  0  0  0
 15 17  2  0  0  0  0
 16 14  1  0  0  0  0
 16 10  2  0  0  0  0
 17 14  1  0  0  0  0
 18 19  1  1  0  0  0
 19 21  2  0  0  0  0
 19 20  1  0  0  0  0
 22 30  1  0  0  0  0
 23 24  1  0  0  0  0
 24 30  2  0  0  0  0
 24 27  1  0  0  0  0
 25 27  2  0  0  0  0
 26 23  2  0  0  0  0
 26 28  1  0  0  0  0
 27 33  1  0  0  0  0
 28 25  1  0  0  0  0
 29 31  1  0  0  0  0
 30 32  1  0  0  0  0
 32 29  1  0  0  0  0
 33 29  2  0  0  0  0
M  END
>  <MODEL>
8

>  <REMARK>
 VINA RESULT:      -7.5      2.843      8.221
  Name = 
  4 active torsions:
  status: ('A' for Active; 'I' for Inactive)
    1  A    between atoms: C_12  and  C_32
    2  A    between atoms: C_18  and  C_24
    3  A    between atoms: C_23  and  N_30
    4  A    between atoms: C_26  and  N_30
                            x       y       z     vdW  Elec       q    Type
                         _______ _______ _______ _____ _____    ______ ____

>  <TORSDO>
F 4

$$$$
=
 OpenBabel11042409533D

 33 37  0  0  1  0  0  0  0  0999 V2000
  191.8450  176.8910  139.2740 N   0  0  0  0  0  2  0  0  0  0  0  0
  191.5240  175.1430  136.1090 C   0  0  0  0  0  3  0  0  0  0  0  0
  193.8190  175.9620  136.2370 C   0  0  0  0  0  3  0  0  0  0  0  0
  192.2770  176.3930  138.0260 C   0  0  0  0  0  0  0  0  0  0  0  0
  190.4540  176.4680  139.4540 C   0  0  2  0  0  3  0  0  0  0  0  0
  193.5580  176.5340  137.4930 C   0  0  0  0  0  3  0  0  0  0  0  0
  190.0280  175.7320  138.1470 C   0  0  2  0  0  3  0  0  0  0  0  0
  192.8050  175.2680  135.5480 C   0  0  0  0  0  3  0  0  0  0  0  0
  191.2890  175.7230  137.3580 C   0  0  0  0  0  0  0  0  0  0  0  0
  188.6160  176.3420  143.2190 C   0  0  0  0  0  3  0  0  0  0  0  0
  187.9210  178.7120  141.3030 C   0  0  0  0  0  3  0  0  0  0  0  0
  187.8260  177.3470  143.9760 C   0  0  0  0  0  2  0  0  0  0  0  0
  186.9460  178.7860  142.2110 C   0  0  0  0  0  3  0  0  0  0  0  0
  188.8240  177.6060  141.0790 N   0  0  0  0  0  0  0  0  0  0  0  0
  189.4450  178.5980  139.0470 O   0  0  0  0  0  0  0  0  0  0  0  0
  189.0430  176.4810  141.9620 C   0  0  0  0  0  3  0  0  0  0  0  0
  189.5720  177.6280  139.8470 C   0  0  0  0  0  0  0  0  0  0  0  0
  186.5970  177.7100  143.1770 C   0  0  2  0  0  3  0  0  0  0  0  0
  185.4990  178.1660  144.0820 C   0  0  0  0  0  0  0  0  0  0  0  0
  185.7290  178.4260  145.2940 O   0  0  0  0  0  1  0  0  0  0  0  0
  184.2140  178.3110  143.5790 O   0  0  0  0  0  0  0  0  0  0  0  0
  188.9910  176.4600  137.4200 N   0  0  0  0  0  2  0  0  0  0  0  0
  186.5670  177.7300  137.9340 N   0  0  0  0  0  0  0  0  0  0  0  0
  186.6060  176.4670  137.2640 C   0  0  0  0  0  0  0  0  0  0  0  0
  184.2180  176.4620  137.0880 N   0  0  0  0  0  0  0  0  0  0  0  0
  185.4380  178.2950  138.2420 C   0  0  0  0  0  3  0  0  0  0  0  0
  185.3440  175.8860  136.7940 C   0  0  0  0  0  0  0  0  0  0  0  0
  184.1100  177.6270  137.9750 C   0  0  0  0  0  2  0  0  0  0  0  0
  186.4720  174.1090  135.6770 C   0  0  0  0  0  0  0  0  0  0  0  0
  187.7670  175.8610  136.9840 C   0  0  0  0  0  0  0  0  0  0  0  0
  186.4310  172.9100  134.8000 C   0  0  0  0  0  1  0  0  0  0  0  0
  187.7920  174.5190  136.2840 C   0  0  0  0  0  2  0  0  0  0  0  0
  185.3660  174.7300  135.9540 N   0  0  0  0  0  0  0  0  0  0  0  0
  1  5  1  0  0  0  0
  2  9  1  0  0  0  0
  3  6  2  0  0  0  0
  4  1  1  0  0  0  0
  5 17  1  6  0  0  0
  6  4  1  0  0  0  0
  7 22  1  6  0  0  0
  7  5  1  0  0  0  0
  8  2  2  0  0  0  0
  8  3  1  0  0  0  0
  9  4  2  0  0  0  0
  9  7  1  0  0  0  0
 10 12  1  0  0  0  0
 11 13  2  0  0  0  0
 13 18  1  0  0  0  0
 14 11  1  0  0  0  0
 14 16  1  0  0  0  0
 15 17  2  0  0  0  0
 16 10  2  0  0  0  0
 17 14  1  0  0  0  0
 18 12  1  0  0  0  0
 18 19  1  1  0  0  0
 19 20  1  0  0  0  0
 21 19  2  0  0  0  0
 23 26  2  0  0  0  0
 24 23  1  0  0  0  0
 25 28  1  0  0  0  0
 27 25  2  0  0  0  0
 27 24  1  0  0  0  0
 28 26  1  0  0  0  0
 29 33  2  0  0  0  0
 29 32  1  0  0  0  0
 30 24  2  0  0  0  0
 30 22  1  0  0  0  0
 31 29  1  0  0  0  0
 32 30  1  0  0  0  0
 33 27  1  0  0  0  0
M  END
>  <MODEL>
9

>  <REMARK>
 VINA RESULT:      -7.5      2.922      7.196
  Name = 
  4 active torsions:
  status: ('A' for Active; 'I' for Inactive)
    1  A    between atoms: C_12  and  C_32
    2  A    between atoms: C_18  and  C_24
    3  A    between atoms: C_23  and  N_30
    4  A    between atoms: C_26  and  N_30
                            x       y       z     vdW  Elec       q    Type
                         _______ _______ _______ _____ _____    ______ ____

>  <TORSDO>
F 4

$$$$
