=
 OpenBabel11042410273D

 29 31  0  0  1  0  0  0  0  0999 V2000
  188.7920  178.5670  137.1540 S   0  0  0  0  0  0  0  0  0  0  0  0
  189.7970  176.0280  136.8510 C   0  0  0  0  0  2  0  0  0  0  0  0
  190.1960  175.8940  138.3150 C   0  0  2  0  0  3  0  0  0  0  0  0
  190.4800  177.2730  138.9300 C   0  0  1  0  0  3  0  0  0  0  0  0
  188.5080  176.8220  136.7090 C   0  0  0  0  0  2  0  0  0  0  0  0
  189.2620  178.2100  138.8820 C   0  0  2  0  0  3  0  0  0  0  0  0
  191.3310  175.0870  138.3950 O   0  0  0  0  0  1  0  0  0  0  0  0
  191.0680  177.1930  140.3080 C   0  0  0  0  0  0  0  0  0  0  0  0
  192.2050  177.6890  140.5220 O   0  0  0  0  0  0  0  0  0  0  0  0
  190.3280  176.5930  141.3770 N   0  0  0  0  0  2  0  0  0  0  0  0
  190.8600  176.4590  142.7260 C   0  0  0  0  0  2  0  0  0  0  0  0
  190.6190  177.7330  143.5260 C   0  0  0  0  0  2  0  0  0  0  0  0
  191.5720  177.8440  144.7090 C   0  0  0  0  0  2  0  0  0  0  0  0
  191.0630  177.0590  145.9060 C   0  0  0  0  0  2  0  0  0  0  0  0
  192.2130  175.8250  147.7170 C   0  0  0  0  0  1  0  0  0  0  0  0
  191.9930  175.9030  146.2220 C   0  0  0  0  0  2  0  0  0  0  0  0
  188.0530  177.6960  139.6640 C   0  0  0  0  0  2  0  0  0  0  0  0
  187.4090  178.7860  140.3880 N   0  0  0  0  0  2  0  0  0  0  0  0
  186.7140  178.6250  141.6310 C   0  0  0  0  0  0  0  0  0  0  0  0
  187.3090  177.9760  142.6620 C   0  0  0  0  0  3  0  0  0  0  0  0
  184.6530  178.3540  145.3220 N   0  0  0  0  0  0  0  0  0  0  0  0
  185.3110  179.2150  141.7450 C   0  0  0  0  0  0  0  0  0  0  0  0
  186.6550  177.8070  143.9790 C   0  0  0  0  0  0  0  0  0  0  0  0
  185.4500  178.3350  144.1530 C   0  0  0  0  0  0  0  0  0  0  0  0
  184.7620  179.0440  143.1300 C   0  0  0  0  0  0  0  0  0  0  0  0
  184.3870  178.5430  140.7440 C   0  0  0  0  0  1  0  0  0  0  0  0
  187.3190  177.1220  145.0350 N   0  0  0  0  0  1  0  0  0  0  0  0
  183.6400  179.4810  143.5870 N   0  0  0  0  0  0  0  0  0  0  0  0
  183.6040  179.0330  144.9550 C   0  0  0  0  0  2  0  0  0  0  0  0
  1  6  1  0  0  0  0
  2  3  1  0  0  0  0
  3  7  1  6  0  0  0
  3  4  1  0  0  0  0
  4  8  1  1  0  0  0
  5  2  1  0  0  0  0
  5  1  1  0  0  0  0
  6  4  1  0  0  0  0
  6 17  1  1  0  0  0
  8  9  2  0  0  0  0
  8 10  1  0  0  0  0
 10 11  1  0  0  0  0
 11 12  1  0  0  0  0
 12 13  1  0  0  0  0
 13 14  1  0  0  0  0
 14 16  1  0  0  0  0
 16 15  1  0  0  0  0
 17 18  1  0  0  0  0
 18 19  1  0  0  0  0
 19 22  2  0  0  0  0
 19 20  1  0  0  0  0
 20 23  2  0  0  0  0
 22 25  1  0  0  0  0
 23 24  1  0  0  0  0
 23 27  1  0  0  0  0
 24 21  2  0  0  0  0
 25 28  2  0  0  0  0
 25 24  1  0  0  0  0
 26 22  1  0  0  0  0
 28 29  1  0  0  0  0
 29 21  1  0  0  0  0
M  END
>  <MODEL>
1

>  <REMARK>
 VINA RESULT:      -7.7      0.000      0.000
  Name = 
  9 active torsions:
  status: ('A' for Active; 'I' for Inactive)
    1  A    between atoms: C_1  and  C_24
    2  A    between atoms: C_2  and  N_5
    3  A    between atoms: C_3  and  C_17
    4  A    between atoms: C_3  and  C_19
    5  A    between atoms: N_5  and  C_6
    6  A    between atoms: C_6  and  C_26
    7  A    between atoms: N_16  and  C_19
    8  A    between atoms: C_17  and  C_23
    9  A    between atoms: C_23  and  C_29
                            x       y       z     vdW  Elec       q    Type
                         _______ _______ _______ _____ _____    ______ ____

>  <TORSDO>
F 9

$$$$
=
 OpenBabel11042410273D

 29 31  0  0  1  0  0  0  0  0999 V2000
  191.0740  178.8040  143.9530 S   0  0  0  0  0  0  0  0  0  0  0  0
  190.9830  177.1260  146.1260 C   0  0  0  0  0  2  0  0  0  0  0  0
  189.5050  176.8020  145.9520 C   0  0  2  0  0  3  0  0  0  0  0  0
  188.7750  177.9560  145.2470 C   0  0  1  0  0  3  0  0  0  0  0  0
  191.6660  177.2900  144.7790 C   0  0  0  0  0  2  0  0  0  0  0  0
  189.3370  178.2500  143.8470 C   0  0  2  0  0  3  0  0  0  0  0  0
  188.9470  176.5760  147.2110 O   0  0  0  0  0  1  0  0  0  0  0  0
  187.2850  177.7830  145.2240 C   0  0  0  0  0  0  0  0  0  0  0  0
  186.7900  176.8030  144.6070 O   0  0  0  0  0  0  0  0  0  0  0  0
  186.4380  178.6980  145.9260 N   0  0  0  0  0  2  0  0  0  0  0  0
  184.9850  178.5970  145.9130 C   0  0  0  0  0  2  0  0  0  0  0  0
  184.3960  179.4840  144.8230 C   0  0  0  0  0  2  0  0  0  0  0  0
  183.4260  178.7160  143.9340 C   0  0  0  0  0  2  0  0  0  0  0  0
  184.0950  178.2660  142.6450 C   0  0  0  0  0  2  0  0  0  0  0  0
  185.6620  178.9720  140.8650 C   0  0  0  0  0  1  0  0  0  0  0  0
  185.2760  179.1600  142.3160 C   0  0  0  0  0  2  0  0  0  0  0  0
  189.2140  177.0800  142.8700 C   0  0  0  0  0  2  0  0  0  0  0  0
  189.0160  177.5660  141.5090 N   0  0  0  0  0  2  0  0  0  0  0  0
  189.9030  177.2860  140.4190 C   0  0  0  0  0  0  0  0  0  0  0  0
  191.2440  177.3690  140.5960 C   0  0  0  0  0  3  0  0  0  0  0  0
  192.4470  176.2640  137.1900 N   0  0  0  0  0  0  0  0  0  0  0  0
  189.2850  176.8840  139.0830 C   0  0  0  0  0  0  0  0  0  0  0  0
  192.2100  177.0590  139.5180 C   0  0  0  0  0  0  0  0  0  0  0  0
  191.7340  176.6640  138.3440 C   0  0  2  0  0  3  0  0  0  0  0  0
  190.3430  176.5350  138.0780 C   0  0  0  0  0  0  0  0  0  0  0  0
  188.4310  178.0210  138.5480 C   0  0  0  0  0  1  0  0  0  0  0  0
  193.6110  177.1560  139.7500 N   0  0  0  0  0  1  0  0  0  0  0  0
  190.1700  176.0940  136.8810 N   0  0  0  0  0  0  0  0  0  0  0  0
  191.5020  175.9360  136.3550 C   0  0  0  0  0  3  0  0  0  0  0  0
  1  5  1  0  0  0  0
  3  2  1  0  0  0  0
  3  7  1  1  0  0  0
  4  8  1  6  0  0  0
  4  3  1  0  0  0  0
  5  2  1  0  0  0  0
  6 17  1  6  0  0  0
  6  1  1  0  0  0  0
  6  4  1  0  0  0  0
  8 10  1  0  0  0  0
  9  8  2  0  0  0  0
 11 10  1  0  0  0  0
 12 11  1  0  0  0  0
 13 12  1  0  0  0  0
 14 13  1  0  0  0  0
 15 16  1  0  0  0  0
 16 14  1  0  0  0  0
 18 17  1  0  0  0  0
 19 20  1  0  0  0  0
 19 18  1  0  0  0  0
 22 19  2  0  0  0  0
 23 27  1  0  0  0  0
 23 20  2  0  0  0  0
 24 21  1  1  0  0  0
 24 23  1  0  0  0  0
 25 24  1  0  0  0  0
 25 22  1  0  0  0  0
 26 22  1  0  0  0  0
 28 25  2  0  0  0  0
 29 28  1  0  0  0  0
 29 21  2  0  0  0  0
M  END
>  <MODEL>
2

>  <REMARK>
 VINA RESULT:      -7.6      2.953      7.614
  Name = 
  9 active torsions:
  status: ('A' for Active; 'I' for Inactive)
    1  A    between atoms: C_1  and  C_24
    2  A    between atoms: C_2  and  N_5
    3  A    between atoms: C_3  and  C_17
    4  A    between atoms: C_3  and  C_19
    5  A    between atoms: N_5  and  C_6
    6  A    between atoms: C_6  and  C_26
    7  A    between atoms: N_16  and  C_19
    8  A    between atoms: C_17  and  C_23
    9  A    between atoms: C_23  and  C_29
                            x       y       z     vdW  Elec       q    Type
                         _______ _______ _______ _____ _____    ______ ____

>  <TORSDO>
F 9

$$$$
=
 OpenBabel11042410273D

 29 31  0  0  1  0  0  0  0  0999 V2000
  189.0060  178.9900  137.5730 S   0  0  0  0  0  0  0  0  0  0  0  0
  190.1060  176.5430  136.9860 C   0  0  0  0  0  2  0  0  0  0  0  0
  190.2230  176.1240  138.4470 C   0  0  2  0  0  3  0  0  0  0  0  0
  190.3550  177.3550  139.3570 C   0  0  1  0  0  3  0  0  0  0  0  0
  188.8500  177.3670  136.7560 C   0  0  0  0  0  2  0  0  0  0  0  0
  189.1470  178.3020  139.2570 C   0  0  2  0  0  3  0  0  0  0  0  0
  191.3400  175.2990  138.5850 O   0  0  0  0  0  1  0  0  0  0  0  0
  190.6710  177.0030  140.7800 C   0  0  0  0  0  0  0  0  0  0  0  0
  190.1150  176.0010  141.3040 O   0  0  0  0  0  0  0  0  0  0  0  0
  191.6220  177.7720  141.5230 N   0  0  0  0  0  2  0  0  0  0  0  0
  191.9450  177.4960  142.9160 C   0  0  0  0  0  2  0  0  0  0  0  0
  191.3200  178.5430  143.8290 C   0  0  0  0  0  2  0  0  0  0  0  0
  189.8180  178.3360  143.9780 C   0  0  0  0  0  2  0  0  0  0  0  0
  189.5090  177.1310  144.8510 C   0  0  0  0  0  2  0  0  0  0  0  0
  188.8630  177.3870  147.2260 C   0  0  0  0  0  1  0  0  0  0  0  0
  190.0270  177.3460  146.2610 C   0  0  0  0  0  2  0  0  0  0  0  0
  187.8230  177.6650  139.6820 C   0  0  0  0  0  2  0  0  0  0  0  0
  186.8380  178.6930  140.0000 N   0  0  0  0  0  2  0  0  0  0  0  0
  185.9410  178.6260  141.1160 C   0  0  0  0  0  0  0  0  0  0  0  0
  186.4120  178.3240  142.3500 C   0  0  0  0  0  3  0  0  0  0  0  0
  183.2410  178.6310  144.3800 N   0  0  0  0  0  0  0  0  0  0  0  0
  184.4650  178.9200  140.8610 C   0  0  0  0  0  0  0  0  0  0  0  0
  185.5400  178.2720  143.5450 C   0  0  0  0  0  0  0  0  0  0  0  0
  184.2520  178.5590  143.3940 C   0  0  0  0  0  0  0  0  0  0  0  0
  183.6790  178.9020  142.1380 C   0  0  0  0  0  0  0  0  0  0  0  0
  183.8940  177.8920  139.8980 C   0  0  0  0  0  1  0  0  0  0  0  0
  186.0790  177.9540  144.8230 N   0  0  0  0  0  1  0  0  0  0  0  0
  182.4300  179.1720  142.2930 N   0  0  0  0  0  0  0  0  0  0  0  0
  182.1900  178.9930  143.7020 C   0  0  0  0  0  2  0  0  0  0  0  0
  1  6  1  0  0  0  0
  2  3  1  0  0  0  0
  3  7  1  6  0  0  0
  3  4  1  0  0  0  0
  4  8  1  1  0  0  0
  5  2  1  0  0  0  0
  5  1  1  0  0  0  0
  6  4  1  0  0  0  0
  6 17  1  6  0  0  0
  8  9  2  0  0  0  0
  8 10  1  0  0  0  0
 10 11  1  0  0  0  0
 11 12  1  0  0  0  0
 12 13  1  0  0  0  0
 13 14  1  0  0  0  0
 14 16  1  0  0  0  0
 16 15  1  0  0  0  0
 17 18  1  0  0  0  0
 18 19  1  0  0  0  0
 19 20  1  0  0  0  0
 20 23  2  0  0  0  0
 22 19  2  0  0  0  0
 22 25  1  0  0  0  0
 23 27  1  0  0  0  0
 24 23  1  0  0  0  0
 24 21  2  0  0  0  0
 25 28  2  0  0  0  0
 25 24  1  0  0  0  0
 26 22  1  0  0  0  0
 28 29  1  0  0  0  0
 29 21  1  0  0  0  0
M  END
>  <MODEL>
3

>  <REMARK>
 VINA RESULT:      -7.4      1.310      1.521
  Name = 
  9 active torsions:
  status: ('A' for Active; 'I' for Inactive)
    1  A    between atoms: C_1  and  C_24
    2  A    between atoms: C_2  and  N_5
    3  A    between atoms: C_3  and  C_17
    4  A    between atoms: C_3  and  C_19
    5  A    between atoms: N_5  and  C_6
    6  A    between atoms: C_6  and  C_26
    7  A    between atoms: N_16  and  C_19
    8  A    between atoms: C_17  and  C_23
    9  A    between atoms: C_23  and  C_29
                            x       y       z     vdW  Elec       q    Type
                         _______ _______ _______ _____ _____    ______ ____

>  <TORSDO>
F 9

$$$$
=
 OpenBabel11042410273D

 29 31  0  0  1  0  0  0  0  0999 V2000
  184.1700  178.3590  142.5360 S   0  0  0  0  0  0  0  0  0  0  0  0
  185.0310  179.0320  145.0570 C   0  0  0  0  0  2  0  0  0  0  0  0
  186.4630  178.5780  144.8070 C   0  0  2  0  0  3  0  0  0  0  0  0
  186.5060  177.4760  143.7370 C   0  0  1  0  0  3  0  0  0  0  0  0
  184.4290  179.6450  143.8030 C   0  0  0  0  0  2  0  0  0  0  0  0
  185.9400  177.9370  142.3840 C   0  0  2  0  0  3  0  0  0  0  0  0
  186.9960  178.1050  146.0070 O   0  0  0  0  0  1  0  0  0  0  0  0
  187.8620  176.8510  143.5900 C   0  0  0  0  0  0  0  0  0  0  0  0
  187.9490  175.6560  143.2020 O   0  0  0  0  0  0  0  0  0  0  0  0
  189.0440  177.6150  143.8500 N   0  0  0  0  0  2  0  0  0  0  0  0
  190.3840  177.0520  143.7540 C   0  0  0  0  0  2  0  0  0  0  0  0
  191.1540  177.2790  145.0490 C   0  0  0  0  0  2  0  0  0  0  0  0
  190.2200  177.3970  146.2470 C   0  0  0  0  0  2  0  0  0  0  0  0
  190.7490  176.6180  147.4400 C   0  0  0  0  0  2  0  0  0  0  0  0
  192.8790  175.7070  148.3100 C   0  0  0  0  0  1  0  0  0  0  0  0
  192.0230  175.8810  147.0740 C   0  0  0  0  0  2  0  0  0  0  0  0
  186.7080  179.0990  141.7530 C   0  0  0  0  0  2  0  0  0  0  0  0
  186.9140  178.8650  140.3280 N   0  0  0  0  0  2  0  0  0  0  0  0
  187.9820  178.0770  139.7890 C   0  0  0  0  0  0  0  0  0  0  0  0
  189.2090  178.1130  140.3640 C   0  0  0  0  0  3  0  0  0  0  0  0
  191.0290  175.5770  138.2360 N   0  0  0  0  0  0  0  0  0  0  0  0
  187.6810  177.2030  138.5750 C   0  0  0  0  0  0  0  0  0  0  0  0
  190.3430  177.2970  139.8730 C   0  0  0  0  0  0  0  0  0  0  0  0
  190.1310  176.4850  138.8440 C   0  0  2  0  0  3  0  0  0  0  0  0
  188.8720  176.3740  138.1940 C   0  0  0  0  0  0  0  0  0  0  0  0
  187.2720  178.0760  137.4010 C   0  0  0  0  0  1  0  0  0  0  0  0
  191.6130  177.3640  140.5110 N   0  0  0  0  0  1  0  0  0  0  0  0
  188.9420  175.4860  137.2640 N   0  0  0  0  0  0  0  0  0  0  0  0
  190.3000  175.0090  137.3180 C   0  0  0  0  0  3  0  0  0  0  0  0
  1  5  1  0  0  0  0
  3  2  1  0  0  0  0
  3  7  1  1  0  0  0
  4  8  1  6  0  0  0
  4  3  1  0  0  0  0
  5  2  1  0  0  0  0
  6 17  1  1  0  0  0
  6  1  1  0  0  0  0
  6  4  1  0  0  0  0
  8 10  1  0  0  0  0
  9  8  2  0  0  0  0
 11 10  1  0  0  0  0
 11 12  1  0  0  0  0
 12 13  1  0  0  0  0
 13 14  1  0  0  0  0
 16 14  1  0  0  0  0
 16 15  1  0  0  0  0
 18 17  1  0  0  0  0
 19 18  1  0  0  0  0
 19 20  1  0  0  0  0
 21 24  1  0  0  0  0
 22 19  2  0  0  0  0
 23 20  2  0  0  0  0
 23 27  1  0  0  0  0
 24 25  1  1  0  0  0
 24 23  1  0  0  0  0
 25 22  1  0  0  0  0
 26 22  1  0  0  0  0
 28 29  1  0  0  0  0
 28 25  2  0  0  0  0
 29 21  2  0  0  0  0
M  END
>  <MODEL>
4

>  <REMARK>
 VINA RESULT:      -7.4      2.645      6.000
  Name = 
  9 active torsions:
  status: ('A' for Active; 'I' for Inactive)
    1  A    between atoms: C_1  and  C_24
    2  A    between atoms: C_2  and  N_5
    3  A    between atoms: C_3  and  C_17
    4  A    between atoms: C_3  and  C_19
    5  A    between atoms: N_5  and  C_6
    6  A    between atoms: C_6  and  C_26
    7  A    between atoms: N_16  and  C_19
    8  A    between atoms: C_17  and  C_23
    9  A    between atoms: C_23  and  C_29
                            x       y       z     vdW  Elec       q    Type
                         _______ _______ _______ _____ _____    ______ ____

>  <TORSDO>
F 9

$$$$
=
 OpenBabel11042410273D

 29 31  0  0  1  0  0  0  0  0999 V2000
  191.1990  178.4540  144.2500 S   0  0  0  0  0  0  0  0  0  0  0  0
  190.8870  177.0810  146.6080 C   0  0  0  0  0  2  0  0  0  0  0  0
  189.4130  176.7810  146.3650 C   0  0  2  0  0  3  0  0  0  0  0  0
  188.7820  177.8540  145.4630 C   0  0  1  0  0  3  0  0  0  0  0  0
  191.6710  177.0450  145.3070 C   0  0  0  0  0  2  0  0  0  0  0  0
  189.4540  177.9440  144.0840 C   0  0  2  0  0  3  0  0  0  0  0  0
  188.7580  176.7400  147.5960 O   0  0  0  0  0  1  0  0  0  0  0  0
  187.2910  177.7230  145.3490 C   0  0  0  0  0  0  0  0  0  0  0  0
  186.8060  176.7370  144.7350 O   0  0  0  0  0  0  0  0  0  0  0  0
  186.4310  178.6880  145.9620 N   0  0  0  0  0  2  0  0  0  0  0  0
  184.9790  178.6290  145.8580 C   0  0  0  0  0  2  0  0  0  0  0  0
  184.4910  179.4810  144.6930 C   0  0  0  0  0  2  0  0  0  0  0  0
  183.8410  178.6310  143.6080 C   0  0  0  0  0  2  0  0  0  0  0  0
  184.8140  178.3360  142.4780 C   0  0  0  0  0  2  0  0  0  0  0  0
  182.6670  178.4030  141.2510 C   0  0  0  0  0  1  0  0  0  0  0  0
  184.1630  178.5910  141.1320 C   0  0  0  0  0  2  0  0  0  0  0  0
  189.3550  176.6590  143.2600 C   0  0  0  0  0  2  0  0  0  0  0  0
  190.2250  176.7300  142.0910 N   0  0  0  0  0  2  0  0  0  0  0  0
  189.7680  177.0430  140.7690 C   0  0  0  0  0  0  0  0  0  0  0  0
  190.5570  176.7800  139.6980 C   0  0  0  0  0  3  0  0  0  0  0  0
  188.2610  177.8350  136.8900 N   0  0  0  0  0  0  0  0  0  0  0  0
  188.3790  177.6580  140.6210 C   0  0  2  0  0  3  0  0  0  0  0  0
  190.1280  177.0500  138.3070 C   0  0  0  0  0  0  0  0  0  0  0  0
  188.9120  177.5470  138.1120 C   0  0  0  0  0  0  0  0  0  0  0  0
  188.0160  177.8370  139.1770 C   0  0  0  0  0  0  0  0  0  0  0  0
  188.3330  179.0020  141.3280 C   0  0  0  0  0  1  0  0  0  0  0  0
  190.9880  176.7540  137.2130 N   0  0  0  0  0  1  0  0  0  0  0  0
  186.8990  178.2630  138.6980 N   0  0  0  0  0  0  0  0  0  0  0  0
  187.0860  178.2510  137.2700 C   0  0  0  0  0  3  0  0  0  0  0  0
  1  5  1  0  0  0  0
  3  2  1  0  0  0  0
  3  7  1  1  0  0  0
  4  8  1  6  0  0  0
  4  3  1  0  0  0  0
  5  2  1  0  0  0  0
  6 17  1  1  0  0  0
  6  1  1  0  0  0  0
  6  4  1  0  0  0  0
  8 10  1  0  0  0  0
  9  8  2  0  0  0  0
 11 10  1  0  0  0  0
 12 11  1  0  0  0  0
 13 12  1  0  0  0  0
 14 13  1  0  0  0  0
 16 15  1  0  0  0  0
 16 14  1  0  0  0  0
 18 17  1  0  0  0  0
 19 18  1  0  0  0  0
 20 19  2  0  0  0  0
 21 29  2  0  0  0  0
 21 24  1  0  0  0  0
 22 19  1  0  0  0  0
 22 26  1  1  0  0  0
 23 20  1  0  0  0  0
 24 23  2  0  0  0  0
 24 25  1  0  0  0  0
 25 22  1  0  0  0  0
 27 23  1  0  0  0  0
 28 25  2  0  0  0  0
 29 28  1  0  0  0  0
M  END
>  <MODEL>
5

>  <REMARK>
 VINA RESULT:      -7.3      2.909      7.241
  Name = 
  9 active torsions:
  status: ('A' for Active; 'I' for Inactive)
    1  A    between atoms: C_1  and  C_24
    2  A    between atoms: C_2  and  N_5
    3  A    between atoms: C_3  and  C_17
    4  A    between atoms: C_3  and  C_19
    5  A    between atoms: N_5  and  C_6
    6  A    between atoms: C_6  and  C_26
    7  A    between atoms: N_16  and  C_19
    8  A    between atoms: C_17  and  C_23
    9  A    between atoms: C_23  and  C_29
                            x       y       z     vdW  Elec       q    Type
                         _______ _______ _______ _____ _____    ______ ____

>  <TORSDO>
F 9

$$$$
=
 OpenBabel11042410273D

 29 31  0  0  1  0  0  0  0  0999 V2000
  191.1830  178.6300  144.3220 S   0  0  0  0  0  0  0  0  0  0  0  0
  190.9090  177.0430  146.5470 C   0  0  0  0  0  2  0  0  0  0  0  0
  189.4380  176.7450  146.2870 C   0  0  2  0  0  3  0  0  0  0  0  0
  188.7840  177.8860  145.4910 C   0  0  1  0  0  3  0  0  0  0  0  0
  191.6830  177.1380  145.2430 C   0  0  0  0  0  2  0  0  0  0  0  0
  189.4440  178.1110  144.1210 C   0  0  2  0  0  3  0  0  0  0  0  0
  188.7930  176.5820  147.5140 O   0  0  0  0  0  1  0  0  0  0  0  0
  187.2950  177.7440  145.3760 C   0  0  0  0  0  0  0  0  0  0  0  0
  186.8190  176.8070  144.6820 O   0  0  0  0  0  0  0  0  0  0  0  0
  186.4250  178.6400  146.0750 N   0  0  0  0  0  2  0  0  0  0  0  0
  184.9740  178.5690  145.9750 C   0  0  0  0  0  2  0  0  0  0  0  0
  184.4790  179.3830  144.7860 C   0  0  0  0  0  2  0  0  0  0  0  0
  183.2760  178.7280  144.1180 C   0  0  0  0  0  2  0  0  0  0  0  0
  183.4750  178.6060  142.6160 C   0  0  0  0  0  2  0  0  0  0  0  0
  182.3110  178.1190  140.4880 C   0  0  0  0  0  1  0  0  0  0  0  0
  182.1420  178.6490  141.8950 C   0  0  0  0  0  2  0  0  0  0  0  0
  189.3570  176.9060  143.1840 C   0  0  0  0  0  2  0  0  0  0  0  0
  190.0020  177.1990  141.9090 N   0  0  0  0  0  2  0  0  0  0  0  0
  189.2940  177.5180  140.7050 C   0  0  0  0  0  0  0  0  0  0  0  0
  187.9900  177.8820  140.7610 C   0  0  0  0  0  3  0  0  0  0  0  0
  187.3360  178.6190  137.1140 N   0  0  0  0  0  0  0  0  0  0  0  0
  190.0610  177.4470  139.3880 C   0  0  0  0  0  0  0  0  0  0  0  0
  187.2150  178.2550  139.5560 C   0  0  0  0  0  0  0  0  0  0  0  0
  187.8390  178.2520  138.3840 C   0  0  2  0  0  3  0  0  0  0  0  0
  189.2090  177.9000  138.2390 C   0  0  0  0  0  0  0  0  0  0  0  0
  190.5320  176.0240  139.1420 C   0  0  0  0  0  1  0  0  0  0  0  0
  185.8480  178.6340  139.6620 N   0  0  0  0  0  1  0  0  0  0  0  0
  189.5600  178.0270  137.0070 N   0  0  0  0  0  0  0  0  0  0  0  0
  188.3680  178.4760  136.3330 C   0  0  0  0  0  3  0  0  0  0  0  0
  1  5  1  0  0  0  0
  3  2  1  0  0  0  0
  3  7  1  1  0  0  0
  4  8  1  6  0  0  0
  4  3  1  0  0  0  0
  5  2  1  0  0  0  0
  6 17  1  6  0  0  0
  6  1  1  0  0  0  0
  6  4  1  0  0  0  0
  8 10  1  0  0  0  0
  9  8  2  0  0  0  0
 11 10  1  0  0  0  0
 12 11  1  0  0  0  0
 13 12  1  0  0  0  0
 14 13  1  0  0  0  0
 15 16  1  0  0  0  0
 16 14  1  0  0  0  0
 18 17  1  0  0  0  0
 19 20  1  0  0  0  0
 19 18  1  0  0  0  0
 22 19  2  0  0  0  0
 23 27  1  0  0  0  0
 23 20  2  0  0  0  0
 24 21  1  1  0  0  0
 24 23  1  0  0  0  0
 25 24  1  0  0  0  0
 25 22  1  0  0  0  0
 26 22  1  0  0  0  0
 28 25  2  0  0  0  0
 29 28  1  0  0  0  0
 29 21  2  0  0  0  0
M  END
>  <MODEL>
6

>  <REMARK>
 VINA RESULT:      -7.2      2.920      7.460
  Name = 
  9 active torsions:
  status: ('A' for Active; 'I' for Inactive)
    1  A    between atoms: C_1  and  C_24
    2  A    between atoms: C_2  and  N_5
    3  A    between atoms: C_3  and  C_17
    4  A    between atoms: C_3  and  C_19
    5  A    between atoms: N_5  and  C_6
    6  A    between atoms: C_6  and  C_26
    7  A    between atoms: N_16  and  C_19
    8  A    between atoms: C_17  and  C_23
    9  A    between atoms: C_23  and  C_29
                            x       y       z     vdW  Elec       q    Type
                         _______ _______ _______ _____ _____    ______ ____

>  <TORSDO>
F 9

$$$$
=
 OpenBabel11042410273D

 29 31  0  0  1  0  0  0  0  0999 V2000
  184.9340  180.0150  144.1470 S   0  0  0  0  0  0  0  0  0  0  0  0
  182.4010  179.0340  143.7410 C   0  0  0  0  0  2  0  0  0  0  0  0
  182.7780  178.2820  142.4710 C   0  0  2  0  0  3  0  0  0  0  0  0
  183.9720  178.9540  141.7760 C   0  0  1  0  0  3  0  0  0  0  0  0
  183.5390  179.0070  144.7480 C   0  0  0  0  0  2  0  0  0  0  0  0
  185.2290  178.9990  142.6600 C   0  0  2  0  0  3  0  0  0  0  0  0
  181.6720  178.2620  141.6200 O   0  0  0  0  0  1  0  0  0  0  0  0
  184.2640  178.3780  140.4210 C   0  0  0  0  0  0  0  0  0  0  0  0
  183.5430  177.4430  139.9830 O   0  0  0  0  0  0  0  0  0  0  0  0
  185.3250  178.9090  139.6210 N   0  0  0  0  0  2  0  0  0  0  0  0
  185.6730  178.3700  138.3140 C   0  0  0  0  0  2  0  0  0  0  0  0
  187.1580  178.0370  138.2500 C   0  0  0  0  0  2  0  0  0  0  0  0
  187.8420  178.2520  139.5940 C   0  0  0  0  0  2  0  0  0  0  0  0
  189.3550  178.2650  139.4500 C   0  0  0  0  0  2  0  0  0  0  0  0
  191.4630  177.1280  140.0710 C   0  0  0  0  0  1  0  0  0  0  0  0
  189.9570  176.9930  140.0170 C   0  0  0  0  0  2  0  0  0  0  0  0
  185.7580  177.6200  143.0580 C   0  0  0  0  0  2  0  0  0  0  0  0
  187.2160  177.6110  143.0620 N   0  0  0  0  0  2  0  0  0  0  0  0
  188.0150  177.5090  144.2480 C   0  0  0  0  0  0  0  0  0  0  0  0
  187.4380  177.6290  145.4680 C   0  0  0  0  0  3  0  0  0  0  0  0
  190.4270  177.0130  147.6950 N   0  0  0  0  0  0  0  0  0  0  0  0
  189.5100  177.2510  144.0790 C   0  0  0  0  0  0  0  0  0  0  0  0
  188.2050  177.5000  146.7280 C   0  0  0  0  0  0  0  0  0  0  0  0
  189.5030  177.2340  146.6470 C   0  0  0  0  0  0  0  0  0  0  0  0
  190.1840  177.0770  145.4080 C   0  0  0  0  0  0  0  0  0  0  0  0
  190.1510  178.4070  143.3310 C   0  0  0  0  0  1  0  0  0  0  0  0
  187.5560  177.6290  147.9880 N   0  0  0  0  0  1  0  0  0  0  0  0
  191.4180  176.7820  145.6280 N   0  0  0  0  0  0  0  0  0  0  0  0
  191.5360  176.7510  147.0630 C   0  0  0  0  0  2  0  0  0  0  0  0
  1  5  1  0  0  0  0
  2  5  1  0  0  0  0
  3  7  1  6  0  0  0
  3  2  1  0  0  0  0
  4  8  1  6  0  0  0
  4  3  1  0  0  0  0
  4  6  1  0  0  0  0
  6 17  1  1  0  0  0
  6  1  1  0  0  0  0
  9  8  2  0  0  0  0
 10  8  1  0  0  0  0
 11 10  1  0  0  0  0
 12 11  1  0  0  0  0
 12 13  1  0  0  0  0
 14 13  1  0  0  0  0
 14 16  1  0  0  0  0
 16 15  1  0  0  0  0
 17 18  1  0  0  0  0
 18 19  1  0  0  0  0
 19 20  1  0  0  0  0
 20 23  2  0  0  0  0
 22 19  2  0  0  0  0
 22 25  1  0  0  0  0
 23 27  1  0  0  0  0
 24 23  1  0  0  0  0
 24 21  2  0  0  0  0
 25 28  2  0  0  0  0
 25 24  1  0  0  0  0
 26 22  1  0  0  0  0
 28 29  1  0  0  0  0
 29 21  1  0  0  0  0
M  END
>  <MODEL>
7

>  <REMARK>
 VINA RESULT:      -7.1      3.452      6.852
  Name = 
  9 active torsions:
  status: ('A' for Active; 'I' for Inactive)
    1  A    between atoms: C_1  and  C_24
    2  A    between atoms: C_2  and  N_5
    3  A    between atoms: C_3  and  C_17
    4  A    between atoms: C_3  and  C_19
    5  A    between atoms: N_5  and  C_6
    6  A    between atoms: C_6  and  C_26
    7  A    between atoms: N_16  and  C_19
    8  A    between atoms: C_17  and  C_23
    9  A    between atoms: C_23  and  C_29
                            x       y       z     vdW  Elec       q    Type
                         _______ _______ _______ _____ _____    ______ ____

>  <TORSDO>
F 9

$$$$
=
 OpenBabel11042410273D

 29 31  0  0  1  0  0  0  0  0999 V2000
  183.0120  176.9010  139.5140 S   0  0  0  0  0  0  0  0  0  0  0  0
  181.1560  178.3260  140.9530 C   0  0  0  0  0  2  0  0  0  0  0  0
  182.2030  179.0580  141.7840 C   0  0  2  0  0  3  0  0  0  0  0  0
  183.4860  178.2210  141.9030 C   0  0  1  0  0  3  0  0  0  0  0  0
  181.6460  178.1080  139.5310 C   0  0  0  0  0  2  0  0  0  0  0  0
  184.1280  177.9170  140.5400 C   0  0  2  0  0  3  0  0  0  0  0  0
  181.6710  179.3090  143.0500 O   0  0  0  0  0  1  0  0  0  0  0  0
  184.4770  178.7990  142.8700 C   0  0  0  0  0  0  0  0  0  0  0  0
  185.1900  179.7720  142.5110 O   0  0  0  0  0  0  0  0  0  0  0  0
  184.5840  178.2740  144.1980 N   0  0  0  0  0  2  0  0  0  0  0  0
  185.5490  178.7740  145.1680 C   0  0  0  0  0  2  0  0  0  0  0  0
  186.4110  177.6370  145.7010 C   0  0  0  0  0  2  0  0  0  0  0  0
  187.8330  177.7060  145.1580 C   0  0  0  0  0  2  0  0  0  0  0  0
  188.8470  177.2730  146.2040 C   0  0  0  0  0  2  0  0  0  0  0  0
  188.9950  178.2550  148.4700 C   0  0  0  0  0  1  0  0  0  0  0  0
  188.2280  177.2940  147.5890 C   0  0  0  0  0  2  0  0  0  0  0  0
  184.5670  179.1630  139.7690 C   0  0  0  0  0  2  0  0  0  0  0  0
  185.5020  178.8070  138.7080 N   0  0  0  0  0  2  0  0  0  0  0  0
  186.7970  178.2380  138.9360 C   0  0  0  0  0  0  0  0  0  0  0  0
  187.3800  178.3430  140.1550 C   0  0  0  0  0  3  0  0  0  0  0  0
  190.5460  176.3680  139.5650 N   0  0  0  0  0  0  0  0  0  0  0  0
  187.4700  177.5110  137.7750 C   0  0  0  0  0  0  0  0  0  0  0  0
  188.7010  177.7480  140.4600 C   0  0  0  0  0  0  0  0  0  0  0  0
  189.3180  177.0670  139.5020 C   0  0  2  0  0  3  0  0  0  0  0  0
  188.7700  176.8950  138.2010 C   0  0  0  0  0  0  0  0  0  0  0  0
  187.7180  178.4820  136.6340 C   0  0  0  0  0  1  0  0  0  0  0  0
  189.2730  177.8790  141.7570 N   0  0  0  0  0  1  0  0  0  0  0  0
  189.5560  176.1590  137.4950 N   0  0  0  0  0  0  0  0  0  0  0  0
  190.6540  175.8490  138.3750 C   0  0  0  0  0  3  0  0  0  0  0  0
  1  5  1  0  0  0  0
  1  6  1  0  0  0  0
  2  3  1  0  0  0  0
  3  4  1  0  0  0  0
  3  7  1  1  0  0  0
  4  8  1  1  0  0  0
  5  2  1  0  0  0  0
  6 17  1  6  0  0  0
  6  4  1  0  0  0  0
  8 10  1  0  0  0  0
  9  8  2  0  0  0  0
 10 11  1  0  0  0  0
 11 12  1  0  0  0  0
 13 12  1  0  0  0  0
 13 14  1  0  0  0  0
 14 16  1  0  0  0  0
 16 15  1  0  0  0  0
 18 19  1  0  0  0  0
 18 17  1  0  0  0  0
 19 20  1  0  0  0  0
 20 23  2  0  0  0  0
 22 25  1  0  0  0  0
 22 19  2  0  0  0  0
 23 27  1  0  0  0  0
 24 25  1  1  0  0  0
 24 21  1  0  0  0  0
 24 23  1  0  0  0  0
 26 22  1  0  0  0  0
 28 25  2  0  0  0  0
 28 29  1  0  0  0  0
 29 21  2  0  0  0  0
M  END
>  <MODEL>
8

>  <REMARK>
 VINA RESULT:      -6.9      3.371      6.514
  Name = 
  9 active torsions:
  status: ('A' for Active; 'I' for Inactive)
    1  A    between atoms: C_1  and  C_24
    2  A    between atoms: C_2  and  N_5
    3  A    between atoms: C_3  and  C_17
    4  A    between atoms: C_3  and  C_19
    5  A    between atoms: N_5  and  C_6
    6  A    between atoms: C_6  and  C_26
    7  A    between atoms: N_16  and  C_19
    8  A    between atoms: C_17  and  C_23
    9  A    between atoms: C_23  and  C_29
                            x       y       z     vdW  Elec       q    Type
                         _______ _______ _______ _____ _____    ______ ____

>  <TORSDO>
F 9

$$$$
=
 OpenBabel11042410273D

 29 31  0  0  1  0  0  0  0  0999 V2000
  191.6150  178.9530  143.9670 S   0  0  0  0  0  0  0  0  0  0  0  0
  190.3500  177.4050  145.8510 C   0  0  0  0  0  2  0  0  0  0  0  0
  189.2530  176.9490  144.8980 C   0  0  2  0  0  3  0  0  0  0  0  0
  189.0210  177.9950  143.7960 C   0  0  1  0  0  3  0  0  0  0  0  0
  191.6780  177.5450  145.1240 C   0  0  0  0  0  2  0  0  0  0  0  0
  190.2750  178.2520  142.9450 C   0  0  2  0  0  3  0  0  0  0  0  0
  188.0810  176.7530  145.6300 O   0  0  0  0  0  1  0  0  0  0  0  0
  187.8210  177.6980  142.9450 C   0  0  0  0  0  0  0  0  0  0  0  0
  187.6490  176.5270  142.5130 O   0  0  0  0  0  0  0  0  0  0  0  0
  186.8640  178.7220  142.6590 N   0  0  0  0  0  2  0  0  0  0  0  0
  185.6990  178.4990  141.8140 C   0  0  0  0  0  2  0  0  0  0  0  0
  184.4520  178.2940  142.6650 C   0  0  0  0  0  2  0  0  0  0  0  0
  184.3450  179.3380  143.7690 C   0  0  0  0  0  2  0  0  0  0  0  0
  184.4400  178.7010  145.1460 C   0  0  0  0  0  2  0  0  0  0  0  0
  185.6830  178.6270  147.2840 C   0  0  0  0  0  1  0  0  0  0  0  0
  185.6630  179.2080  145.8860 C   0  0  0  0  0  2  0  0  0  0  0  0
  190.7760  177.0200  142.1890 C   0  0  0  0  0  2  0  0  0  0  0  0
  191.4200  177.4100  140.9400 N   0  0  0  0  0  2  0  0  0  0  0  0
  190.9370  177.0490  139.6400 C   0  0  0  0  0  0  0  0  0  0  0  0
  191.8050  176.6400  138.6830 C   0  0  0  0  0  3  0  0  0  0  0  0
  189.3960  175.8290  135.8880 N   0  0  0  0  0  0  0  0  0  0  0  0
  189.4330  177.1280  139.3920 C   0  0  2  0  0  3  0  0  0  0  0  0
  191.3620  176.2230  137.3330 C   0  0  0  0  0  0  0  0  0  0  0  0
  190.0610  176.2310  137.0700 C   0  0  0  0  0  0  0  0  0  0  0  0
  189.0820  176.6290  138.0210 C   0  0  0  0  0  0  0  0  0  0  0  0
  188.9600  178.5620  139.5480 C   0  0  0  0  0  1  0  0  0  0  0  0
  192.3090  175.7980  136.3590 N   0  0  0  0  0  1  0  0  0  0  0  0
  187.9060  176.4960  137.5140 N   0  0  0  0  0  0  0  0  0  0  0  0
  188.1380  175.9960  136.1830 C   0  0  0  0  0  3  0  0  0  0  0  0
  1  5  1  0  0  0  0
  3  7  1  1  0  0  0
  3  2  1  0  0  0  0
  4  8  1  6  0  0  0
  4  3  1  0  0  0  0
  5  2  1  0  0  0  0
  6 17  1  1  0  0  0
  6  4  1  0  0  0  0
  6  1  1  0  0  0  0
  9  8  2  0  0  0  0
 10  8  1  0  0  0  0
 11 10  1  0  0  0  0
 11 12  1  0  0  0  0
 12 13  1  0  0  0  0
 13 14  1  0  0  0  0
 14 16  1  0  0  0  0
 16 15  1  0  0  0  0
 18 17  1  0  0  0  0
 19 18  1  0  0  0  0
 20 19  2  0  0  0  0
 21 29  2  0  0  0  0
 21 24  1  0  0  0  0
 22 26  1  6  0  0  0
 22 19  1  0  0  0  0
 23 20  1  0  0  0  0
 24 23  2  0  0  0  0
 24 25  1  0  0  0  0
 25 22  1  0  0  0  0
 27 23  1  0  0  0  0
 28 25  2  0  0  0  0
 29 28  1  0  0  0  0
M  END
>  <MODEL>
9

>  <REMARK>
 VINA RESULT:      -6.9      2.900      7.048
  Name = 
  9 active torsions:
  status: ('A' for Active; 'I' for Inactive)
    1  A    between atoms: C_1  and  C_24
    2  A    between atoms: C_2  and  N_5
    3  A    between atoms: C_3  and  C_17
    4  A    between atoms: C_3  and  C_19
    5  A    between atoms: N_5  and  C_6
    6  A    between atoms: C_6  and  C_26
    7  A    between atoms: N_16  and  C_19
    8  A    between atoms: C_17  and  C_23
    9  A    between atoms: C_23  and  C_29
                            x       y       z     vdW  Elec       q    Type
                         _______ _______ _______ _____ _____    ______ ____

>  <TORSDO>
F 9

$$$$
