=
 OpenBabel11032420163D

 28 30  0  0  1  0  0  0  0  0999 V2000
  190.8440  177.0260  140.8280 C   0  0  0  0  0  0  0  0  0  0  0  0
  188.8260  176.2380  141.9390 O   0  0  0  0  0  0  0  0  0  0  0  0
  188.3160  176.7790  143.1350 C   0  0  1  0  0  3  0  0  0  0  0  0
  189.4610  177.8180  145.2000 C   0  0  0  0  0  1  0  0  0  0  0  0
  190.6800  176.7260  143.3160 C   0  0  1  0  0  3  0  0  0  0  0  0
  191.9100  177.6830  140.9830 O   0  0  0  0  0  0  0  0  0  0  0  0
  191.5160  175.6640  143.6610 O   0  0  0  0  0  1  0  0  0  0  0  0
  190.1540  176.5230  141.9830 N   0  0  0  0  0  0  0  0  0  0  0  0
  189.4480  176.7000  144.1670 C   0  0  2  0  0  3  0  0  0  0  0  0
  190.8010  175.6550  138.7950 N   0  0  0  0  0  0  0  0  0  0  0  0
  189.0120  177.2830  137.5430 N   0  0  0  0  0  0  0  0  0  0  0  0
  190.3370  176.7480  139.4610 C   0  0  0  0  0  0  0  0  0  0  0  0
  188.8640  178.7400  139.4430 N   0  0  0  0  0  1  0  0  0  0  0  0
  190.4000  175.3570  137.5320 C   0  0  0  0  0  3  0  0  0  0  0  0
  189.4100  177.5890  138.8050 C   0  0  0  0  0  0  0  0  0  0  0  0
  189.4860  176.1900  136.8920 C   0  0  0  0  0  3  0  0  0  0  0  0
  187.8000  178.2060  142.8910 C   0  0  0  0  0  2  0  0  0  0  0  0
  186.2170  179.3980  141.5380 O   0  0  0  0  0  1  0  0  0  0  0  0
  186.3810  178.2480  142.3170 C   0  0  2  0  0  3  0  0  0  0  0  0
  185.7180  178.9560  144.6650 C   0  0  0  0  0  2  0  0  0  0  0  0
  183.3680  178.9900  145.3510 N   0  0  0  0  0  2  0  0  0  0  0  0
  184.7220  178.6640  145.7810 C   0  0  0  0  0  2  0  0  0  0  0  0
  181.7750  179.0680  143.6600 O   0  0  0  0  0  0  0  0  0  0  0  0
  182.9750  178.8610  143.9810 C   0  0  0  0  0  0  0  0  0  0  0  0
  183.9650  178.5630  142.9800 N   0  0  0  0  0  0  0  0  0  0  0  0
  185.3140  178.1560  143.4240 C   0  0  1  0  0  3  0  0  0  0  0  0
  183.2290  177.5420  140.8800 C   0  0  0  0  0  1  0  0  0  0  0  0
  183.6580  178.8220  141.5730 C   0  0  0  0  0  2  0  0  0  0  0  0
  1  6  2  0  0  0  0
  1  8  1  0  0  0  0
  2  8  1  0  0  0  0
  2  3  1  0  0  0  0
  3 17  1  6  0  0  0
  3  9  1  0  0  0  0
  5  7  1  1  0  0  0
  5  9  1  0  0  0  0
  8  5  1  0  0  0  0
  9  4  1  1  0  0  0
 10 12  1  0  0  0  0
 11 15  1  0  0  0  0
 12  1  1  0  0  0  0
 14 10  2  0  0  0  0
 15 13  1  0  0  0  0
 15 12  2  0  0  0  0
 16 14  1  0  0  0  0
 16 11  2  0  0  0  0
 19 18  1  1  0  0  0
 19 17  1  0  0  0  0
 20 22  1  0  0  0  0
 21 22  1  0  0  0  0
 23 24  2  0  0  0  0
 24 21  1  0  0  0  0
 25 26  1  0  0  0  0
 25 24  1  0  0  0  0
 26 19  1  6  0  0  0
 26 20  1  0  0  0  0
 27 28  1  0  0  0  0
 28 25  1  0  0  0  0
M  END
>  <MODEL>
1

>  <REMARK>
 VINA RESULT:      -8.1      0.000      0.000
  Name = 
  5 active torsions:
  status: ('A' for Active; 'I' for Inactive)
    1  A    between atoms: C_1  and  C_13
    2  A    between atoms: C_1  and  C_28
    3  A    between atoms: C_3  and  C_11
    4  A    between atoms: N_21  and  C_23
    5  A    between atoms: C_25  and  C_28
                            x       y       z     vdW  Elec       q    Type
                         _______ _______ _______ _____ _____    ______ ____

>  <TORSDO>
F 5

$$$$
=
 OpenBabel11032420163D

 28 30  0  0  1  0  0  0  0  0999 V2000
  189.3840  178.0810  143.8120 C   0  0  0  0  0  0  0  0  0  0  0  0
  187.2420  176.9490  144.0650 O   0  0  0  0  0  0  0  0  0  0  0  0
  186.2070  177.3920  144.9100 C   0  0  1  0  0  3  0  0  0  0  0  0
  186.2170  178.6170  147.1800 C   0  0  0  0  0  1  0  0  0  0  0  0
  188.2610  177.7560  146.0360 C   0  0  1  0  0  3  0  0  0  0  0  0
  190.1700  178.9150  144.3380 O   0  0  0  0  0  0  0  0  0  0  0  0
  189.0410  176.8590  146.7660 O   0  0  0  0  0  1  0  0  0  0  0  0
  188.3710  177.4630  144.6220 N   0  0  0  0  0  0  0  0  0  0  0  0
  186.8100  177.5130  146.3140 C   0  0  2  0  0  3  0  0  0  0  0  0
  188.7790  178.3660  141.4520 N   0  0  0  0  0  0  0  0  0  0  0  0
  190.4760  176.4050  140.6160 N   0  0  0  0  0  0  0  0  0  0  0  0
  189.5350  177.7170  142.3820 C   0  0  0  0  0  0  0  0  0  0  0  0
  191.2480  175.9900  142.8490 N   0  0  0  0  0  1  0  0  0  0  0  0
  188.8480  178.0630  140.1300 C   0  0  0  0  0  3  0  0  0  0  0  0
  190.4120  176.7000  141.9410 C   0  0  0  0  0  0  0  0  0  0  0  0
  189.7140  177.0610  139.7030 C   0  0  0  0  0  3  0  0  0  0  0  0
  185.6140  178.7050  144.3750 C   0  0  0  0  0  2  0  0  0  0  0  0
  185.5590  179.8020  142.2420 O   0  0  0  0  0  1  0  0  0  0  0  0
  185.1930  178.6260  142.9050 C   0  0  2  0  0  3  0  0  0  0  0  0
  182.8400  179.3410  143.5440 C   0  0  0  0  0  2  0  0  0  0  0  0
  180.9230  178.7530  142.1380 N   0  0  0  0  0  2  0  0  0  0  0  0
  181.3870  178.8830  143.5150 C   0  0  0  0  0  2  0  0  0  0  0  0
  181.3670  178.1920  139.9270 O   0  0  0  0  0  0  0  0  0  0  0  0
  181.8190  178.3790  141.0880 C   0  0  0  0  0  0  0  0  0  0  0  0
  183.2310  178.2850  141.3530 N   0  0  0  0  0  0  0  0  0  0  0  0
  183.6870  178.3380  142.7580 C   0  0  1  0  0  3  0  0  0  0  0  0
  183.9940  179.5630  139.4100 C   0  0  0  0  0  1  0  0  0  0  0  0
  184.1710  178.3000  140.2320 C   0  0  0  0  0  2  0  0  0  0  0  0
  1  6  2  0  0  0  0
  1  8  1  0  0  0  0
  2  8  1  0  0  0  0
  2  3  1  0  0  0  0
  3 17  1  6  0  0  0
  3  9  1  0  0  0  0
  5  9  1  0  0  0  0
  5  7  1  1  0  0  0
  8  5  1  0  0  0  0
  9  4  1  6  0  0  0
 10 12  1  0  0  0  0
 11 15  1  0  0  0  0
 12  1  1  0  0  0  0
 14 10  2  0  0  0  0
 15 12  2  0  0  0  0
 15 13  1  0  0  0  0
 16 14  1  0  0  0  0
 16 11  2  0  0  0  0
 19 18  1  1  0  0  0
 19 17  1  0  0  0  0
 21 22  1  0  0  0  0
 22 20  1  0  0  0  0
 23 24  2  0  0  0  0
 24 25  1  0  0  0  0
 24 21  1  0  0  0  0
 25 26  1  0  0  0  0
 26 19  1  6  0  0  0
 26 20  1  0  0  0  0
 27 28  1  0  0  0  0
 28 25  1  0  0  0  0
M  END
>  <MODEL>
2

>  <REMARK>
 VINA RESULT:      -8.0      2.203      3.321
  Name = 
  5 active torsions:
  status: ('A' for Active; 'I' for Inactive)
    1  A    between atoms: C_1  and  C_13
    2  A    between atoms: C_1  and  C_28
    3  A    between atoms: C_3  and  C_11
    4  A    between atoms: N_21  and  C_23
    5  A    between atoms: C_25  and  C_28
                            x       y       z     vdW  Elec       q    Type
                         _______ _______ _______ _____ _____    ______ ____

>  <TORSDO>
F 5

$$$$
=
 OpenBabel11032420163D

 28 30  0  0  1  0  0  0  0  0999 V2000
  188.4630  178.4000  138.8510 C   0  0  0  0  0  0  0  0  0  0  0  0
  188.5770  176.6710  140.5620 O   0  0  0  0  0  0  0  0  0  0  0  0
  189.4370  176.7140  141.6760 C   0  0  1  0  0  3  0  0  0  0  0  0
  191.8030  177.6850  142.0110 C   0  0  0  0  0  1  0  0  0  0  0  0
  190.6290  177.5670  139.8120 C   0  0  1  0  0  3  0  0  0  0  0  0
  189.0720  179.3800  138.3420 O   0  0  0  0  0  0  0  0  0  0  0  0
  191.2940  176.8790  138.7980 O   0  0  0  0  0  1  0  0  0  0  0  0
  189.1980  177.4440  139.6310 N   0  0  0  0  0  0  0  0  0  0  0  0
  190.8580  176.8850  141.1250 C   0  0  2  0  0  3  0  0  0  0  0  0
  186.1230  178.7530  139.4970 N   0  0  0  0  0  0  0  0  0  0  0  0
  185.1570  177.3550  137.3690 N   0  0  0  0  0  0  0  0  0  0  0  0
  187.0090  178.2230  138.6090 C   0  0  0  0  0  0  0  0  0  0  0  0
  187.3630  176.9290  136.5270 N   0  0  0  0  0  1  0  0  0  0  0  0
  184.7810  178.6050  139.3510 C   0  0  0  0  0  3  0  0  0  0  0  0
  186.5010  177.4970  137.5080 C   0  0  0  0  0  0  0  0  0  0  0  0
  184.2880  177.8900  138.2640 C   0  0  0  0  0  3  0  0  0  0  0  0
  189.0040  177.8360  142.6330 C   0  0  0  0  0  2  0  0  0  0  0  0
  187.7460  176.0230  143.5730 O   0  0  0  0  0  1  0  0  0  0  0  0
  188.1550  177.3400  143.8060 C   0  0  2  0  0  3  0  0  0  0  0  0
  185.8490  178.0740  143.0340 C   0  0  0  0  0  2  0  0  0  0  0  0
  184.2640  179.0890  144.6010 N   0  0  0  0  0  2  0  0  0  0  0  0
  184.7890  179.1500  143.2420 C   0  0  0  0  0  2  0  0  0  0  0  0
  184.6230  178.7060  146.8650 O   0  0  0  0  0  0  0  0  0  0  0  0
  185.0830  178.6640  145.6930 C   0  0  0  0  0  0  0  0  0  0  0  0
  186.3960  178.1320  145.4350 N   0  0  0  0  0  0  0  0  0  0  0  0
  186.9550  178.2670  144.0740 C   0  0  1  0  0  3  0  0  0  0  0  0
  187.9840  178.2220  147.2960 C   0  0  0  0  0  1  0  0  0  0  0  0
  187.0620  177.3430  146.4710 C   0  0  0  0  0  2  0  0  0  0  0  0
  1  8  1  0  0  0  0
  2  3  1  0  0  0  0
  3 17  1  1  0  0  0
  5  7  1  6  0  0  0
  5  9  1  0  0  0  0
  6  1  2  0  0  0  0
  8  5  1  0  0  0  0
  8  2  1  0  0  0  0
  9  3  1  0  0  0  0
  9  4  1  1  0  0  0
 11 15  2  0  0  0  0
 11 16  1  0  0  0  0
 12  1  1  0  0  0  0
 12 10  2  0  0  0  0
 13 15  1  0  0  0  0
 14 10  1  0  0  0  0
 15 12  1  0  0  0  0
 16 14  2  0  0  0  0
 17 19  1  0  0  0  0
 19 18  1  6  0  0  0
 20 22  1  0  0  0  0
 20 26  1  0  0  0  0
 21 24  1  0  0  0  0
 22 21  1  0  0  0  0
 24 23  2  0  0  0  0
 25 24  1  0  0  0  0
 25 28  1  0  0  0  0
 26 19  1  6  0  0  0
 26 25  1  0  0  0  0
 28 27  1  0  0  0  0
M  END
>  <MODEL>
3

>  <REMARK>
 VINA RESULT:      -7.9      2.290      4.009
  Name = 
  5 active torsions:
  status: ('A' for Active; 'I' for Inactive)
    1  A    between atoms: C_1  and  C_13
    2  A    between atoms: C_1  and  C_28
    3  A    between atoms: C_3  and  C_11
    4  A    between atoms: N_21  and  C_23
    5  A    between atoms: C_25  and  C_28
                            x       y       z     vdW  Elec       q    Type
                         _______ _______ _______ _____ _____    ______ ____

>  <TORSDO>
F 5

$$$$
=
 OpenBabel11032420163D

 28 30  0  0  1  0  0  0  0  0999 V2000
  187.4360  177.3840  146.1270 C   0  0  0  0  0  0  0  0  0  0  0  0
  189.2290  178.3620  144.8010 O   0  0  0  0  0  0  0  0  0  0  0  0
  190.4280  177.6980  144.4780 C   0  0  1  0  0  3  0  0  0  0  0  0
  191.8480  175.9570  145.7440 C   0  0  0  0  0  1  0  0  0  0  0  0
  189.8650  177.1250  146.7090 C   0  0  1  0  0  3  0  0  0  0  0  0
  187.1480  176.4670  146.9450 O   0  0  0  0  0  0  0  0  0  0  0  0
  190.0870  177.8380  147.8870 O   0  0  0  0  0  1  0  0  0  0  0  0
  188.8110  177.7570  145.9450 N   0  0  0  0  0  0  0  0  0  0  0  0
  191.0530  177.2540  145.8060 C   0  0  2  0  0  3  0  0  0  0  0  0
  186.1250  177.7700  144.0900 N   0  0  0  0  0  0  0  0  0  0  0  0
  184.6180  179.7260  145.2400 N   0  0  0  0  0  0  0  0  0  0  0  0
  186.3560  178.0900  145.3940 C   0  0  0  0  0  0  0  0  0  0  0  0
  185.7390  179.4830  147.3470 N   0  0  0  0  0  1  0  0  0  0  0  0
  185.1720  178.3960  143.3530 C   0  0  0  0  0  3  0  0  0  0  0  0
  185.5710  179.1060  145.9830 C   0  0  0  0  0  0  0  0  0  0  0  0
  184.4020  179.3960  143.9410 C   0  0  0  0  0  3  0  0  0  0  0  0
  190.1460  176.5410  143.5080 C   0  0  0  0  0  2  0  0  0  0  0  0
  191.6490  177.8030  142.1280 O   0  0  0  0  0  1  0  0  0  0  0  0
  190.6930  176.7820  142.0990 C   0  0  2  0  0  3  0  0  0  0  0  0
  188.7550  178.3170  141.5130 C   0  0  0  0  0  2  0  0  0  0  0  0
  187.9800  178.5360  139.2010 N   0  0  0  0  0  2  0  0  0  0  0  0
  187.5490  178.4440  140.5910 C   0  0  0  0  0  2  0  0  0  0  0  0
  189.4630  177.9070  137.5250 O   0  0  0  0  0  0  0  0  0  0  0  0
  189.1670  177.8780  138.7490 C   0  0  0  0  0  0  0  0  0  0  0  0
  190.0420  177.2500  139.7040 N   0  0  0  0  0  0  0  0  0  0  0  0
  189.5660  177.0890  141.0940 C   0  0  1  0  0  3  0  0  0  0  0  0
  191.4470  175.7300  138.3970 C   0  0  0  0  0  1  0  0  0  0  0  0
  191.4170  176.9380  139.3150 C   0  0  0  0  0  2  0  0  0  0  0  0
  1  6  2  0  0  0  0
  2  8  1  0  0  0  0
  3 17  1  6  0  0  0
  3  2  1  0  0  0  0
  3  9  1  0  0  0  0
  5  7  1  1  0  0  0
  8  1  1  0  0  0  0
  8  5  1  0  0  0  0
  9  4  1  6  0  0  0
  9  5  1  0  0  0  0
 10 12  1  0  0  0  0
 11 15  1  0  0  0  0
 12 15  2  0  0  0  0
 12  1  1  0  0  0  0
 14 16  1  0  0  0  0
 14 10  2  0  0  0  0
 15 13  1  0  0  0  0
 16 11  2  0  0  0  0
 19 18  1  1  0  0  0
 19 17  1  0  0  0  0
 21 22  1  0  0  0  0
 22 20  1  0  0  0  0
 23 24  2  0  0  0  0
 24 21  1  0  0  0  0
 24 25  1  0  0  0  0
 25 26  1  0  0  0  0
 26 20  1  0  0  0  0
 26 19  1  1  0  0  0
 27 28  1  0  0  0  0
 28 25  1  0  0  0  0
M  END
>  <MODEL>
4

>  <REMARK>
 VINA RESULT:      -7.9      2.440      6.655
  Name = 
  5 active torsions:
  status: ('A' for Active; 'I' for Inactive)
    1  A    between atoms: C_1  and  C_13
    2  A    between atoms: C_1  and  C_28
    3  A    between atoms: C_3  and  C_11
    4  A    between atoms: N_21  and  C_23
    5  A    between atoms: C_25  and  C_28
                            x       y       z     vdW  Elec       q    Type
                         _______ _______ _______ _____ _____    ______ ____

>  <TORSDO>
F 5

$$$$
=
 OpenBabel11032420163D

 28 30  0  0  1  0  0  0  0  0999 V2000
  186.3380  177.6820  138.4780 C   0  0  0  0  0  0  0  0  0  0  0  0
  187.3580  178.8230  140.3730 O   0  0  0  0  0  0  0  0  0  0  0  0
  186.8540  178.7830  141.6870 C   0  0  1  0  0  3  0  0  0  0  0  0
  184.4560  178.6330  142.6260 C   0  0  0  0  0  1  0  0  0  0  0  0
  185.0040  178.9210  140.2090 C   0  0  1  0  0  3  0  0  0  0  0  0
  185.2780  177.1450  138.0550 O   0  0  0  0  0  0  0  0  0  0  0  0
  184.4540  180.0400  139.5850 O   0  0  0  0  0  1  0  0  0  0  0  0
  186.2700  178.5880  139.5910 N   0  0  0  0  0  0  0  0  0  0  0  0
  185.4000  179.2650  141.6120 C   0  0  2  0  0  3  0  0  0  0  0  0
  188.2430  176.2080  138.0160 N   0  0  0  0  0  0  0  0  0  0  0  0
  189.4710  178.0330  136.4100 N   0  0  0  0  0  0  0  0  0  0  0  0
  187.6310  177.4060  137.8040 C   0  0  0  0  0  0  0  0  0  0  0  0
  187.6890  179.6160  136.6860 N   0  0  0  0  0  1  0  0  0  0  0  0
  189.4400  175.9010  137.4520 C   0  0  0  0  0  3  0  0  0  0  0  0
  188.2740  178.3490  136.9710 C   0  0  0  0  0  0  0  0  0  0  0  0
  190.0670  176.8350  136.6320 C   0  0  0  0  0  3  0  0  0  0  0  0
  187.0090  177.3690  142.2690 C   0  0  0  0  0  2  0  0  0  0  0  0
  188.6600  175.8570  143.1320 O   0  0  0  0  0  1  0  0  0  0  0  0
  188.2660  177.2000  143.1250 C   0  0  2  0  0  3  0  0  0  0  0  0
  186.7720  177.2000  145.1800 C   0  0  0  0  0  2  0  0  0  0  0  0
  187.6770  177.7410  147.3900 N   0  0  0  0  0  2  0  0  0  0  0  0
  186.5340  177.9200  146.5020 C   0  0  0  0  0  2  0  0  0  0  0  0
  189.9760  177.5390  147.6700 O   0  0  0  0  0  0  0  0  0  0  0  0
  189.0030  177.6040  146.8720 C   0  0  0  0  0  0  0  0  0  0  0  0
  189.2050  177.4780  145.4520 N   0  0  0  0  0  0  0  0  0  0  0  0
  188.0610  177.7380  144.5540 C   0  0  1  0  0  3  0  0  0  0  0  0
  191.4000  178.0800  144.5520 C   0  0  0  0  0  1  0  0  0  0  0  0
  190.4750  176.9470  144.9560 C   0  0  0  0  0  2  0  0  0  0  0  0
  1  8  1  0  0  0  0
  2  3  1  0  0  0  0
  3 17  1  6  0  0  0
  5  7  1  6  0  0  0
  5  9  1  0  0  0  0
  6  1  2  0  0  0  0
  8  5  1  0  0  0  0
  8  2  1  0  0  0  0
  9  3  1  0  0  0  0
  9  4  1  1  0  0  0
 11 16  2  0  0  0  0
 11 15  1  0  0  0  0
 12 10  1  0  0  0  0
 12  1  1  0  0  0  0
 13 15  1  0  0  0  0
 14 10  2  0  0  0  0
 15 12  2  0  0  0  0
 16 14  1  0  0  0  0
 17 19  1  0  0  0  0
 19 18  1  1  0  0  0
 20 22  1  0  0  0  0
 22 21  1  0  0  0  0
 24 21  1  0  0  0  0
 24 23  2  0  0  0  0
 25 24  1  0  0  0  0
 26 19  1  6  0  0  0
 26 20  1  0  0  0  0
 26 25  1  0  0  0  0
 27 28  1  0  0  0  0
 28 25  1  0  0  0  0
M  END
>  <MODEL>
5

>  <REMARK>
 VINA RESULT:      -7.7      2.545      5.119
  Name = 
  5 active torsions:
  status: ('A' for Active; 'I' for Inactive)
    1  A    between atoms: C_1  and  C_13
    2  A    between atoms: C_1  and  C_28
    3  A    between atoms: C_3  and  C_11
    4  A    between atoms: N_21  and  C_23
    5  A    between atoms: C_25  and  C_28
                            x       y       z     vdW  Elec       q    Type
                         _______ _______ _______ _____ _____    ______ ____

>  <TORSDO>
F 5

$$$$
=
 OpenBabel11032420163D

 28 30  0  0  1  0  0  0  0  0999 V2000
  188.4060  178.2880  137.8800 C   0  0  0  0  0  0  0  0  0  0  0  0
  188.9850  176.4670  139.3900 O   0  0  0  0  0  0  0  0  0  0  0  0
  190.2000  176.3780  140.0960 C   0  0  1  0  0  3  0  0  0  0  0  0
  192.6010  177.1290  139.5280 C   0  0  0  0  0  1  0  0  0  0  0  0
  190.6820  177.2270  137.9350 C   0  0  1  0  0  3  0  0  0  0  0  0
  188.8730  179.2390  137.1960 O   0  0  0  0  0  0  0  0  0  0  0  0
  190.8480  176.5400  136.7330 O   0  0  0  0  0  1  0  0  0  0  0  0
  189.2830  177.2330  138.3070 N   0  0  0  0  0  0  0  0  0  0  0  0
  191.3190  176.4580  139.0510 C   0  0  2  0  0  3  0  0  0  0  0  0
  186.5440  178.6650  139.4320 N   0  0  0  0  0  0  0  0  0  0  0  0
  184.6830  177.7270  137.6780 N   0  0  0  0  0  0  0  0  0  0  0  0
  186.9580  178.2460  138.2040 C   0  0  0  0  0  0  0  0  0  0  0  0
  186.3400  177.3220  135.9910 N   0  0  0  0  0  1  0  0  0  0  0  0
  185.2390  178.6280  139.8020 C   0  0  0  0  0  3  0  0  0  0  0  0
  185.9880  177.7600  137.3000 C   0  0  0  0  0  0  0  0  0  0  0  0
  184.2880  178.1480  138.9060 C   0  0  0  0  0  3  0  0  0  0  0  0
  190.2700  177.4800  141.1660 C   0  0  0  0  0  2  0  0  0  0  0  0
  190.5440  175.5420  142.5530 O   0  0  0  0  0  1  0  0  0  0  0  0
  190.4800  176.9390  142.5820 C   0  0  2  0  0  3  0  0  0  0  0  0
  188.1930  176.4820  143.5910 C   0  0  0  0  0  2  0  0  0  0  0  0
  187.5570  177.4490  145.7490 N   0  0  0  0  0  2  0  0  0  0  0  0
  187.0810  177.1280  144.4090 C   0  0  0  0  0  2  0  0  0  0  0  0
  189.2810  178.1550  147.1400 O   0  0  0  0  0  0  0  0  0  0  0  0
  188.9230  177.8000  145.9850 C   0  0  0  0  0  0  0  0  0  0  0  0
  189.8850  177.6820  144.9200 N   0  0  0  0  0  0  0  0  0  0  0  0
  189.3900  177.4350  143.5500 C   0  0  1  0  0  3  0  0  0  0  0  0
  191.6800  176.3220  145.8790 C   0  0  0  0  0  1  0  0  0  0  0  0
  191.3110  177.6500  145.2460 C   0  0  0  0  0  2  0  0  0  0  0  0
  1 12  1  0  0  0  0
  1  8  1  0  0  0  0
  2  3  1  0  0  0  0
  3 17  1  1  0  0  0
  5  7  1  6  0  0  0
  5  8  1  0  0  0  0
  5  9  1  0  0  0  0
  6  1  2  0  0  0  0
  8  2  1  0  0  0  0
  9  4  1  1  0  0  0
  9  3  1  0  0  0  0
 10 14  1  0  0  0  0
 11 16  1  0  0  0  0
 12 10  2  0  0  0  0
 13 15  1  0  0  0  0
 15 11  2  0  0  0  0
 15 12  1  0  0  0  0
 16 14  2  0  0  0  0
 17 19  1  0  0  0  0
 19 18  1  6  0  0  0
 20 22  1  0  0  0  0
 21 24  1  0  0  0  0
 22 21  1  0  0  0  0
 24 23  2  0  0  0  0
 25 28  1  0  0  0  0
 25 24  1  0  0  0  0
 26 19  1  6  0  0  0
 26 20  1  0  0  0  0
 26 25  1  0  0  0  0
 28 27  1  0  0  0  0
M  END
>  <MODEL>
6

>  <REMARK>
 VINA RESULT:      -7.7      2.919      5.492
  Name = 
  5 active torsions:
  status: ('A' for Active; 'I' for Inactive)
    1  A    between atoms: C_1  and  C_13
    2  A    between atoms: C_1  and  C_28
    3  A    between atoms: C_3  and  C_11
    4  A    between atoms: N_21  and  C_23
    5  A    between atoms: C_25  and  C_28
                            x       y       z     vdW  Elec       q    Type
                         _______ _______ _______ _____ _____    ______ ____

>  <TORSDO>
F 5

$$$$
=
 OpenBabel11032420163D

 28 30  0  0  1  0  0  0  0  0999 V2000
  190.1330  176.4110  143.2120 C   0  0  0  0  0  0  0  0  0  0  0  0
  189.1030  178.4970  142.4910 O   0  0  0  0  0  0  0  0  0  0  0  0
  188.2880  178.6260  141.3500 C   0  0  1  0  0  3  0  0  0  0  0  0
  188.3030  177.4420  139.0590 C   0  0  0  0  0  1  0  0  0  0  0  0
  190.0560  177.1410  140.8090 C   0  0  1  0  0  3  0  0  0  0  0  0
  190.4670  175.2520  142.8420 O   0  0  0  0  0  0  0  0  0  0  0  0
  191.3650  177.4280  140.4220 O   0  0  0  0  0  1  0  0  0  0  0  0
  189.8890  177.4210  142.2200 N   0  0  0  0  0  0  0  0  0  0  0  0
  189.1110  178.1070  140.1640 C   0  0  2  0  0  3  0  0  0  0  0  0
  191.1760  176.8630  145.3850 N   0  0  0  0  0  0  0  0  0  0  0  0
  188.7820  177.1370  146.6560 N   0  0  0  0  0  0  0  0  0  0  0  0
  190.0320  176.7300  144.6570 C   0  0  0  0  0  0  0  0  0  0  0  0
  187.5550  176.7650  144.6280 N   0  0  0  0  0  1  0  0  0  0  0  0
  191.1550  177.1270  146.7170 C   0  0  0  0  0  3  0  0  0  0  0  0
  188.7940  176.8710  145.3230 C   0  0  0  0  0  0  0  0  0  0  0  0
  189.9310  177.2660  147.3660 C   0  0  0  0  0  3  0  0  0  0  0  0
  186.9630  177.8770  141.5610 C   0  0  0  0  0  2  0  0  0  0  0  0
  186.1370  180.1270  141.4680 O   0  0  0  0  0  1  0  0  0  0  0  0
  185.7350  178.7880  141.5040 C   0  0  2  0  0  3  0  0  0  0  0  0
  185.0680  179.4230  143.8720 C   0  0  0  0  0  2  0  0  0  0  0  0
  182.8000  179.0010  144.6940 N   0  0  0  0  0  2  0  0  0  0  0  0
  184.2130  178.9700  145.0500 C   0  0  0  0  0  2  0  0  0  0  0  0
  181.1360  178.7010  143.0980 O   0  0  0  0  0  0  0  0  0  0  0  0
  182.3690  178.7520  143.3530 C   0  0  0  0  0  0  0  0  0  0  0  0
  183.3440  178.6290  142.3010 N   0  0  0  0  0  0  0  0  0  0  0  0
  184.7700  178.5180  142.6740 C   0  0  1  0  0  3  0  0  0  0  0  0
  182.7280  177.4130  140.2680 C   0  0  0  0  0  1  0  0  0  0  0  0
  182.9160  178.7740  140.9100 C   0  0  0  0  0  2  0  0  0  0  0  0
  1 12  1  0  0  0  0
  3 17  1  1  0  0  0
  3  2  1  0  0  0  0
  5  7  1  6  0  0  0
  5  8  1  0  0  0  0
  6  1  2  0  0  0  0
  8  2  1  0  0  0  0
  8  1  1  0  0  0  0
  9  4  1  6  0  0  0
  9  5  1  0  0  0  0
  9  3  1  0  0  0  0
 10 14  1  0  0  0  0
 11 16  1  0  0  0  0
 12 15  1  0  0  0  0
 12 10  2  0  0  0  0
 13 15  1  0  0  0  0
 14 16  2  0  0  0  0
 15 11  2  0  0  0  0
 19 18  1  1  0  0  0
 19 17  1  0  0  0  0
 20 22  1  0  0  0  0
 21 22  1  0  0  0  0
 23 24  2  0  0  0  0
 24 21  1  0  0  0  0
 25 26  1  0  0  0  0
 25 24  1  0  0  0  0
 26 19  1  6  0  0  0
 26 20  1  0  0  0  0
 27 28  1  0  0  0  0
 28 25  1  0  0  0  0
M  END
>  <MODEL>
7

>  <REMARK>
 VINA RESULT:      -7.7      1.867      4.438
  Name = 
  5 active torsions:
  status: ('A' for Active; 'I' for Inactive)
    1  A    between atoms: C_1  and  C_13
    2  A    between atoms: C_1  and  C_28
    3  A    between atoms: C_3  and  C_11
    4  A    between atoms: N_21  and  C_23
    5  A    between atoms: C_25  and  C_28
                            x       y       z     vdW  Elec       q    Type
                         _______ _______ _______ _____ _____    ______ ____

>  <TORSDO>
F 5

$$$$
=
 OpenBabel11032420163D

 28 30  0  0  1  0  0  0  0  0999 V2000
  190.9360  177.1240  140.6630 C   0  0  0  0  0  0  0  0  0  0  0  0
  189.2010  176.1490  142.0660 O   0  0  0  0  0  0  0  0  0  0  0  0
  188.8050  176.6680  143.3130 C   0  0  1  0  0  3  0  0  0  0  0  0
  190.1000  177.8970  145.1750 C   0  0  0  0  0  1  0  0  0  0  0  0
  191.1610  176.8900  143.1540 C   0  0  1  0  0  3  0  0  0  0  0  0
  191.9280  177.9030  140.6530 O   0  0  0  0  0  0  0  0  0  0  0  0
  192.1560  175.9420  143.3920 O   0  0  0  0  0  1  0  0  0  0  0  0
  190.4800  176.5840  141.9130 N   0  0  0  0  0  0  0  0  0  0  0  0
  190.0730  176.7510  144.1730 C   0  0  2  0  0  3  0  0  0  0  0  0
  190.6690  175.6040  138.7570 N   0  0  0  0  0  0  0  0  0  0  0  0
  188.7380  177.1380  137.6000 N   0  0  0  0  0  0  0  0  0  0  0  0
  190.2770  176.7450  139.3890 C   0  0  0  0  0  0  0  0  0  0  0  0
  188.7990  178.7340  139.3900 N   0  0  0  0  0  1  0  0  0  0  0  0
  190.1270  175.2130  137.5750 C   0  0  0  0  0  3  0  0  0  0  0  0
  189.2760  177.5370  138.7820 C   0  0  0  0  0  0  0  0  0  0  0  0
  189.1410  175.9970  136.9830 C   0  0  0  0  0  3  0  0  0  0  0  0
  188.0950  178.0170  143.1230 C   0  0  0  0  0  2  0  0  0  0  0  0
  186.4590  178.2370  141.3820 O   0  0  0  0  0  1  0  0  0  0  0  0
  186.6240  177.8780  142.7240 C   0  0  2  0  0  3  0  0  0  0  0  0
  184.2890  178.8170  143.0730 C   0  0  0  0  0  2  0  0  0  0  0  0
  183.4730  179.3520  145.3180 N   0  0  0  0  0  2  0  0  0  0  0  0
  183.4940  179.7950  143.9290 C   0  0  0  0  0  2  0  0  0  0  0  0
  184.5560  178.3370  147.1070 O   0  0  0  0  0  0  0  0  0  0  0  0
  184.5700  178.6280  145.8810 C   0  0  0  0  0  0  0  0  0  0  0  0
  185.6430  178.1830  145.0300 N   0  0  0  0  0  0  0  0  0  0  0  0
  185.7030  178.6980  143.6470 C   0  0  1  0  0  3  0  0  0  0  0  0
  187.3020  177.5910  146.7300 C   0  0  0  0  0  1  0  0  0  0  0  0
  186.5390  177.1280  145.5030 C   0  0  0  0  0  2  0  0  0  0  0  0
  1  8  1  0  0  0  0
  2  3  1  0  0  0  0
  3 17  1  6  0  0  0
  3  9  1  0  0  0  0
  5  7  1  1  0  0  0
  5  9  1  0  0  0  0
  6  1  2  0  0  0  0
  8  2  1  0  0  0  0
  8  5  1  0  0  0  0
  9  4  1  1  0  0  0
 10 12  1  0  0  0  0
 11 15  1  0  0  0  0
 12  1  1  0  0  0  0
 14 10  2  0  0  0  0
 15 12  2  0  0  0  0
 15 13  1  0  0  0  0
 16 14  1  0  0  0  0
 16 11  2  0  0  0  0
 19 18  1  6  0  0  0
 19 17  1  0  0  0  0
 20 26  1  0  0  0  0
 20 22  1  0  0  0  0
 21 24  1  0  0  0  0
 22 21  1  0  0  0  0
 24 23  2  0  0  0  0
 25 28  1  0  0  0  0
 25 24  1  0  0  0  0
 26 19  1  6  0  0  0
 26 25  1  0  0  0  0
 28 27  1  0  0  0  0
M  END
>  <MODEL>
8

>  <REMARK>
 VINA RESULT:      -7.3      1.283      2.132
  Name = 
  5 active torsions:
  status: ('A' for Active; 'I' for Inactive)
    1  A    between atoms: C_1  and  C_13
    2  A    between atoms: C_1  and  C_28
    3  A    between atoms: C_3  and  C_11
    4  A    between atoms: N_21  and  C_23
    5  A    between atoms: C_25  and  C_28
                            x       y       z     vdW  Elec       q    Type
                         _______ _______ _______ _____ _____    ______ ____

>  <TORSDO>
F 5

$$$$
=
 OpenBabel11032420163D

 28 30  0  0  1  0  0  0  0  0999 V2000
  185.3590  177.1850  137.5200 C   0  0  0  0  0  0  0  0  0  0  0  0
  185.0730  179.1200  138.9710 O   0  0  0  0  0  0  0  0  0  0  0  0
  184.1930  179.1640  140.0690 C   0  0  1  0  0  3  0  0  0  0  0  0
  181.9010  178.0660  140.5060 C   0  0  0  0  0  1  0  0  0  0  0  0
  183.1140  177.9700  138.3280 C   0  0  1  0  0  3  0  0  0  0  0  0
  184.8370  176.0990  137.1450 O   0  0  0  0  0  0  0  0  0  0  0  0
  182.4220  178.4570  137.2190 O   0  0  0  0  0  1  0  0  0  0  0  0
  184.5350  178.1800  138.1500 N   0  0  0  0  0  0  0  0  0  0  0  0
  182.8030  178.8080  139.5290 C   0  0  2  0  0  3  0  0  0  0  0  0
  187.6740  177.3430  138.3150 N   0  0  0  0  0  0  0  0  0  0  0  0
  188.6330  178.0560  135.8670 N   0  0  0  0  0  0  0  0  0  0  0  0
  186.8000  177.4400  137.2750 C   0  0  0  0  0  0  0  0  0  0  0  0
  186.4570  177.9160  134.8680 N   0  0  0  0  0  1  0  0  0  0  0  0
  189.0010  177.5910  138.1650 C   0  0  0  0  0  3  0  0  0  0  0  0
  187.3040  177.8120  136.0080 C   0  0  0  0  0  0  0  0  0  0  0  0
  189.4910  177.9550  136.9150 C   0  0  0  0  0  3  0  0  0  0  0  0
  184.6870  178.2230  141.1790 C   0  0  0  0  0  2  0  0  0  0  0  0
  186.9750  178.9180  141.3770 O   0  0  0  0  0  1  0  0  0  0  0  0
  185.7620  178.8480  142.0710 C   0  0  2  0  0  3  0  0  0  0  0  0
  187.3790  177.9890  143.8330 C   0  0  0  0  0  2  0  0  0  0  0  0
  186.6270  177.5520  146.1220 N   0  0  0  0  0  2  0  0  0  0  0  0
  187.4730  177.0640  145.0400 C   0  0  0  0  0  2  0  0  0  0  0  0
  184.6650  178.5950  146.8070 O   0  0  0  0  0  0  0  0  0  0  0  0
  185.4160  178.2630  145.8510 C   0  0  0  0  0  0  0  0  0  0  0  0
  185.1010  178.6480  144.5000 N   0  0  0  0  0  0  0  0  0  0  0  0
  185.9140  178.0860  143.4010 C   0  0  1  0  0  3  0  0  0  0  0  0
  182.7310  179.0790  144.0640 C   0  0  0  0  0  1  0  0  0  0  0  0
  184.1030  179.6930  144.2690 C   0  0  0  0  0  2  0  0  0  0  0  0
  1  8  1  0  0  0  0
  2  3  1  0  0  0  0
  3 17  1  1  0  0  0
  5  7  1  6  0  0  0
  5  9  1  0  0  0  0
  6  1  2  0  0  0  0
  8  5  1  0  0  0  0
  8  2  1  0  0  0  0
  9  3  1  0  0  0  0
  9  4  1  1  0  0  0
 11 15  2  0  0  0  0
 11 16  1  0  0  0  0
 12  1  1  0  0  0  0
 12 10  2  0  0  0  0
 13 15  1  0  0  0  0
 14 10  1  0  0  0  0
 15 12  1  0  0  0  0
 16 14  2  0  0  0  0
 17 19  1  0  0  0  0
 19 18  1  6  0  0  0
 20 22  1  0  0  0  0
 22 21  1  0  0  0  0
 24 21  1  0  0  0  0
 24 23  2  0  0  0  0
 25 24  1  0  0  0  0
 26 19  1  6  0  0  0
 26 20  1  0  0  0  0
 26 25  1  0  0  0  0
 27 28  1  0  0  0  0
 28 25  1  0  0  0  0
M  END
>  <MODEL>
9

>  <REMARK>
 VINA RESULT:      -7.3      2.764      5.230
  Name = 
  5 active torsions:
  status: ('A' for Active; 'I' for Inactive)
    1  A    between atoms: C_1  and  C_13
    2  A    between atoms: C_1  and  C_28
    3  A    between atoms: C_3  and  C_11
    4  A    between atoms: N_21  and  C_23
    5  A    between atoms: C_25  and  C_28
                            x       y       z     vdW  Elec       q    Type
                         _______ _______ _______ _____ _____    ______ ____

>  <TORSDO>
F 5

$$$$
