=
 OpenBabel11042410113D

 62 68  0  0  1  0  0  0  0  0999 V2000
  184.9990  178.7050  138.0310 O   0  0  0  0  0  0  0  0  0  0  0  0
  187.0160  173.7880  136.2640 C   0  0  1  0  0  3  0  0  0  0  0  0
  182.7910  177.7350  138.0410 C   0  0  2  0  0  3  0  0  0  0  0  0
  183.1460  171.7820  135.2230 C   0  0  0  0  0  0  0  0  0  0  0  0
  187.0760  178.8370  139.8550 O   0  0  0  0  0  0  0  0  0  0  0  0
  188.1380  174.7550  136.1550 C   0  0  1  0  0  3  0  0  0  0  0  0
  182.7290  174.1490  135.4360 C   0  0  0  0  0  0  0  0  0  0  0  0
  184.0960  177.9580  138.8000 C   0  0  0  0  0  2  0  0  0  0  0  0
  184.9230  173.3390  135.0640 C   0  0  0  0  0  0  0  0  0  0  0  0
  184.0590  174.3690  135.2560 N   0  0  0  0  0  0  0  0  0  0  0  0
  183.0180  176.9180  136.9310 O   0  0  0  0  0  0  0  0  0  0  0  0
  186.1080  177.9300  137.9370 N   0  0  0  0  0  2  0  0  0  0  0  0
  184.4630  172.0610  135.0540 N   0  0  0  0  0  0  0  0  0  0  0  0
  182.2270  172.8350  135.4210 C   0  0  0  0  0  0  0  0  0  0  0  0
  188.4250  175.3540  137.5140 C   0  0  0  0  0  2  0  0  0  0  0  0
  187.1870  178.0610  138.8680 C   0  0  0  0  0  0  0  0  0  0  0  0
  186.3770  173.6030  134.9010 C   0  0  0  0  0  2  0  0  0  0  0  0
  188.4230  177.2220  138.7050 C   0  0  1  0  0  3  0  0  0  0  0  0
  188.5320  176.7390  137.3950 O   0  0  0  0  0  0  0  0  0  0  0  0
  188.3610  173.3640  136.2080 O   0  0  0  0  0  0  0  0  0  0  0  0
  182.7120  170.3540  135.1900 C   0  0  0  0  0  1  0  0  0  0  0  0
  181.8150  175.3140  135.6470 C   0  0  0  0  0  2  0  0  0  0  0  0
  182.0400  175.9190  137.0160 C   0  0  0  0  0  2  0  0  0  0  0  0
  179.9320  173.4250  134.6200 C   0  0  0  0  0  1  0  0  0  0  0  0
  180.7460  172.6000  135.5980 C   0  0  2  0  0  3  0  0  0  0  0  0
  180.3470  172.8620  136.9100 O   0  0  0  0  0  0  0  0  0  0  0  0
  179.9350  171.6250  137.4100 C   0  0  0  0  0  1  0  0  0  0  0  0
  182.1800  179.0660  137.6080 C   0  0  0  0  0  2  0  0  0  0  0  0
  181.5080  178.7330  139.8430 C   0  0  0  0  0  2  0  0  0  0  0  0
  180.5610  179.1870  140.9440 C   0  0  2  0  0  0  0  0  0  0  0  0
  179.9250  179.3660  138.1910 C   0  0  0  0  0  2  0  0  0  0  0  0
  179.0880  179.3610  140.5800 C   0  0  0  0  0  2  0  0  0  0  0  0
  181.3010  179.5620  138.6550 N   0  0  0  0  0  0  0  0  0  0  0  0
  181.0540  180.2940  141.6470 O   0  0  0  0  0  0  0  0  0  0  0  0
  178.9310  179.9880  139.1850 C   0  0  1  0  0  3  0  0  0  0  0  0
  180.9310  179.0920  142.3760 C   0  0  2  0  0  3  0  0  0  0  0  0
  182.1980  178.5330  142.5480 O   0  0  0  0  0  0  0  0  0  0  0  0
  182.4430  178.6020  143.9190 C   0  0  0  0  0  2  0  0  0  0  0  0
  183.5190  179.6300  144.1940 C   0  0  0  0  0  1  0  0  0  0  0  0
  179.0830  181.5020  139.2550 C   0  0  0  0  0  2  0  0  0  0  0  0
  179.7330  183.3990  136.1770 O   0  0  0  0  0  0  0  0  0  0  0  0
  179.9550  182.8710  137.2990 C   0  0  0  0  0  0  0  0  0  0  0  0
  181.2740  183.0790  137.9540 C   0  0  0  0  0  1  0  0  0  0  0  0
  178.9310  182.0970  137.9310 N   0  0  0  0  0  2  0  0  0  0  0  0
  189.6970  177.9710  139.0960 C   0  0  0  0  0  2  0  0  0  0  0  0
  190.9480  177.1210  138.9020 C   0  0  0  0  0  2  0  0  0  0  0  0
  191.6840  176.9490  140.1900 C   0  0  0  0  0  0  0  0  0  0  0  0
  191.0070  176.4350  141.3420 N   0  0  0  0  0  2  0  0  0  0  0  0
  192.8850  177.3100  140.2650 O   0  0  0  0  0  0  0  0  0  0  0  0
  191.6570  176.2360  142.6310 C   0  0  1  0  0  3  0  0  0  0  0  0
  190.7840  176.6100  143.7900 C   0  0  2  0  0  3  0  0  0  0  0  0
  190.9530  175.2730  143.3790 O   0  0  0  0  0  0  0  0  0  0  0  0
  189.3640  177.0810  143.4340 C   0  0  1  0  0  3  0  0  0  0  0  0
  188.3990  176.8660  144.6110 C   0  0  2  0  0  3  0  0  0  0  0  0
  186.8140  177.7260  144.3310 S   0  0  0  0  0  0  0  0  0  0  0  0
  188.9860  177.3570  145.8480 N   0  0  0  0  0  2  0  0  0  0  0  0
  187.8840  177.5420  146.7750 C   0  0  0  0  0  2  0  0  0  0  0  0
  185.4490  177.9700  146.6780 C   0  0  0  0  0  1  0  0  0  0  0  0
  186.7890  178.2830  146.0490 C   0  0  2  0  0  3  0  0  0  0  0  0
  188.5230  178.9900  142.2510 O   0  0  0  0  0  0  0  0  0  0  0  0
  190.4140  179.3460  143.4910 O   0  0  0  0  0  1  0  0  0  0  0  0
  189.4000  178.5200  143.0190 C   0  0  0  0  0  0  0  0  0  0  0  0
  1  8  1  0  0  0  0
  2 17  1  6  0  0  0
  3 28  1  6  0  0  0
  3  8  1  0  0  0  0
  4 14  1  0  0  0  0
  6 20  1  0  0  0  0
  6  2  1  0  0  0  0
  6 15  1  1  0  0  0
  7 22  1  0  0  0  0
  9 10  2  0  0  0  0
 10  7  1  0  0  0  0
 11 23  1  0  0  0  0
 11  3  1  0  0  0  0
 12  1  1  0  0  0  0
 12 16  1  0  0  0  0
 13  9  1  0  0  0  0
 13  4  2  0  0  0  0
 14  7  2  0  0  0  0
 14 25  1  0  0  0  0
 16  5  2  0  0  0  0
 17  9  1  0  0  0  0
 18 16  1  0  0  0  0
 18 45  1  6  0  0  0
 19 15  1  0  0  0  0
 19 18  1  0  0  0  0
 20  2  1  0  0  0  0
 21  4  1  0  0  0  0
 22 23  1  0  0  0  0
 25 24  1  6  0  0  0
 25 26  1  0  0  0  0
 26 27  1  0  0  0  0
 28 33  1  0  0  0  0
 30 29  1  6  0  0  0
 30 34  1  0  0  0  0
 30 36  1  0  0  0  0
 31 33  1  0  0  0  0
 31 35  1  0  0  0  0
 32 30  1  0  0  0  0
 33 29  1  0  0  0  0
 34 36  1  0  0  0  0
 35 40  1  1  0  0  0
 35 32  1  0  0  0  0
 36 37  1  6  0  0  0
 37 38  1  0  0  0  0
 38 39  1  0  0  0  0
 41 42  2  0  0  0  0
 42 44  1  0  0  0  0
 42 43  1  0  0  0  0
 44 40  1  0  0  0  0
 46 45  1  0  0  0  0
 46 47  1  0  0  0  0
 47 49  2  0  0  0  0
 47 48  1  0  0  0  0
 50 48  1  6  0  0  0
 50 52  1  0  0  0  0
 50 51  1  0  0  0  0
 51 53  1  6  0  0  0
 52 51  1  0  0  0  0
 53 62  1  1  0  0  0
 54 53  1  6  0  0  0
 54 56  1  0  0  0  0
 55 54  1  0  0  0  0
 55 59  1  0  0  0  0
 56 57  1  0  0  0  0
 59 58  1  1  0  0  0
 59 57  1  0  0  0  0
 60 62  2  0  0  0  0
 62 61  1  0  0  0  0
M  END
>  <MODEL>
1

>  <REMARK>
 VINA RESULT:      -6.7      0.000      0.000
  Name = 
  15 active torsions:
  status: ('A' for Active; 'I' for Inactive)
    1  A    between atoms: C_1  and  C_30
    2  A    between atoms: C_4  and  C_53
    3  A    between atoms: C_5  and  N_10
    4  A    between atoms: C_8  and  C_41
    5  A    between atoms: C_17  and  C_30
    6  A    between atoms: O_22  and  C_45
    7  A    between atoms: O_22  and  C_60
    8  A    between atoms: N_24  and  C_41
    9  A    between atoms: C_26  and  C_39
   10  A    between atoms: C_26  and  O_44
   11  A    between atoms: C_30  and  C_34
   12  A    between atoms: C_37  and  C_51
   13  A    between atoms: C_49  and  C_61
   14  A    between atoms: C_51  and  N_52
   15  A    between atoms: C_53  and  C_61
                            x       y       z     vdW  Elec       q    Type
                         _______ _______ _______ _____ _____    ______ ____

>  <TORSDO>
F 15

$$$$
=
 OpenBabel11042410113D

 62 68  0  0  1  0  0  0  0  0999 V2000
  185.5150  178.6420  137.9300 O   0  0  0  0  0  0  0  0  0  0  0  0
  187.0600  173.6500  135.9150 C   0  0  1  0  0  3  0  0  0  0  0  0
  183.2550  177.8170  138.0960 C   0  0  2  0  0  3  0  0  0  0  0  0
  182.9960  171.9240  135.1440 C   0  0  0  0  0  0  0  0  0  0  0  0
  187.7310  178.5960  139.5870 O   0  0  0  0  0  0  0  0  0  0  0  0
  188.2310  174.5460  135.7360 C   0  0  1  0  0  3  0  0  0  0  0  0
  182.7550  174.3070  135.4360 C   0  0  0  0  0  0  0  0  0  0  0  0
  184.6270  177.9370  138.7530 C   0  0  0  0  0  2  0  0  0  0  0  0
  184.8550  173.3670  134.8760 C   0  0  0  0  0  0  0  0  0  0  0  0
  184.0780  174.4450  135.1550 N   0  0  0  0  0  0  0  0  0  0  0  0
  183.3410  177.0140  136.9560 O   0  0  0  0  0  0  0  0  0  0  0  0
  186.5600  177.8000  137.7340 N   0  0  0  0  0  2  0  0  0  0  0  0
  184.3120  172.1210  134.8780 N   0  0  0  0  0  0  0  0  0  0  0  0
  182.1670  173.0290  135.4350 C   0  0  0  0  0  0  0  0  0  0  0  0
  188.6610  175.0910  137.0800 C   0  0  0  0  0  2  0  0  0  0  0  0
  187.7140  177.8390  138.5800 C   0  0  0  0  0  0  0  0  0  0  0  0
  186.3060  173.5400  134.6040 C   0  0  0  0  0  2  0  0  0  0  0  0
  188.8750  176.9260  138.3030 C   0  0  1  0  0  3  0  0  0  0  0  0
  188.8500  176.4690  136.9790 O   0  0  0  0  0  0  0  0  0  0  0  0
  188.3650  173.1420  135.7450 O   0  0  0  0  0  0  0  0  0  0  0  0
  182.4670  170.5280  135.1180 C   0  0  0  0  0  1  0  0  0  0  0  0
  181.9380  175.5230  135.7400 C   0  0  0  0  0  2  0  0  0  0  0  0
  182.3090  176.0790  137.0980 C   0  0  0  0  0  2  0  0  0  0  0  0
  179.8650  173.8320  134.8750 C   0  0  0  0  0  1  0  0  0  0  0  0
  180.6920  172.8860  135.7230 C   0  0  2  0  0  3  0  0  0  0  0  0
  180.4210  173.0810  137.0790 O   0  0  0  0  0  0  0  0  0  0  0  0
  179.8820  171.8680  137.5120 C   0  0  0  0  0  1  0  0  0  0  0  0
  182.7020  179.1950  137.7380 C   0  0  0  0  0  2  0  0  0  0  0  0
  181.3430  180.8940  138.6450 C   0  0  0  0  0  2  0  0  0  0  0  0
  180.1100  181.1930  139.4860 C   0  0  2  0  0  0  0  0  0  0  0  0
  181.6840  178.8650  139.8290 C   0  0  0  0  0  2  0  0  0  0  0  0
  179.9530  180.4350  140.8020 C   0  0  0  0  0  2  0  0  0  0  0  0
  181.4880  179.4450  138.4980 N   0  0  0  0  0  0  0  0  0  0  0  0
  178.9310  181.1650  138.7290 O   0  0  0  0  0  0  0  0  0  0  0  0
  180.3900  178.9690  140.6540 C   0  0  1  0  0  3  0  0  0  0  0  0
  179.3000  182.4160  139.2710 C   0  0  2  0  0  3  0  0  0  0  0  0
  179.8260  183.2140  138.2530 O   0  0  0  0  0  0  0  0  0  0  0  0
  178.9630  184.3040  138.1630 C   0  0  0  0  0  2  0  0  0  0  0  0
  179.6510  185.4430  137.4430 C   0  0  0  0  0  1  0  0  0  0  0  0
  179.2710  178.1320  140.0490 C   0  0  0  0  0  2  0  0  0  0  0  0
  179.1240  174.4670  140.2660 O   0  0  0  0  0  0  0  0  0  0  0  0
  179.1300  175.6130  139.7420 C   0  0  0  0  0  0  0  0  0  0  0  0
  178.9310  175.7420  138.2730 C   0  0  0  0  0  1  0  0  0  0  0  0
  179.3120  176.7670  140.5660 N   0  0  0  0  0  2  0  0  0  0  0  0
  190.2230  177.5820  138.6070 C   0  0  0  0  0  2  0  0  0  0  0  0
  191.2450  176.5810  139.1330 C   0  0  0  0  0  2  0  0  0  0  0  0
  191.9230  177.1020  140.3580 C   0  0  0  0  0  0  0  0  0  0  0  0
  191.3680  176.8420  141.6520 N   0  0  0  0  0  2  0  0  0  0  0  0
  192.9520  177.8130  140.2360 O   0  0  0  0  0  0  0  0  0  0  0  0
  191.9730  177.3130  142.8910 C   0  0  1  0  0  3  0  0  0  0  0  0
  191.0010  177.3700  144.0310 C   0  0  2  0  0  3  0  0  0  0  0  0
  191.9080  176.3030  143.8710 O   0  0  0  0  0  0  0  0  0  0  0  0
  189.5760  176.8830  143.7210 C   0  0  1  0  0  3  0  0  0  0  0  0
  188.7640  176.6900  145.0110 C   0  0  2  0  0  3  0  0  0  0  0  0
  187.3540  177.8470  145.0840 S   0  0  0  0  0  0  0  0  0  0  0  0
  189.6050  176.9020  146.1790 N   0  0  0  0  0  2  0  0  0  0  0  0
  188.7030  177.1560  147.2880 C   0  0  0  0  0  2  0  0  0  0  0  0
  186.4090  178.0170  147.6350 C   0  0  0  0  0  1  0  0  0  0  0  0
  187.6820  178.1680  146.8310 C   0  0  2  0  0  3  0  0  0  0  0  0
  187.9570  177.4840  142.0560 O   0  0  0  0  0  0  0  0  0  0  0  0
  189.3290  179.1760  142.7620 O   0  0  0  0  0  1  0  0  0  0  0  0
  188.9030  177.8530  142.7970 C   0  0  0  0  0  0  0  0  0  0  0  0
  1  8  1  0  0  0  0
  2 17  1  6  0  0  0
  3 28  1  6  0  0  0
  3  8  1  0  0  0  0
  4 14  1  0  0  0  0
  6 20  1  0  0  0  0
  6  2  1  0  0  0  0
  6 15  1  1  0  0  0
  7 22  1  0  0  0  0
  9 13  1  0  0  0  0
  9 10  2  0  0  0  0
 10  7  1  0  0  0  0
 11 23  1  0  0  0  0
 11  3  1  0  0  0  0
 12  1  1  0  0  0  0
 12 16  1  0  0  0  0
 13  4  2  0  0  0  0
 14  7  2  0  0  0  0
 14 25  1  0  0  0  0
 16  5  2  0  0  0  0
 17  9  1  0  0  0  0
 18 16  1  0  0  0  0
 18 45  1  6  0  0  0
 19 15  1  0  0  0  0
 19 18  1  0  0  0  0
 20  2  1  0  0  0  0
 21  4  1  0  0  0  0
 22 23  1  0  0  0  0
 25 24  1  6  0  0  0
 25 26  1  0  0  0  0
 26 27  1  0  0  0  0
 28 33  1  0  0  0  0
 30 29  1  6  0  0  0
 30 32  1  0  0  0  0
 31 35  1  0  0  0  0
 33 29  1  0  0  0  0
 33 31  1  0  0  0  0
 34 36  1  0  0  0  0
 34 30  1  0  0  0  0
 35 40  1  6  0  0  0
 35 32  1  0  0  0  0
 36 37  1  6  0  0  0
 36 30  1  0  0  0  0
 38 37  1  0  0  0  0
 39 38  1  0  0  0  0
 40 44  1  0  0  0  0
 42 41  2  0  0  0  0
 42 44  1  0  0  0  0
 43 42  1  0  0  0  0
 45 46  1  0  0  0  0
 46 47  1  0  0  0  0
 47 48  1  0  0  0  0
 49 47  2  0  0  0  0
 50 48  1  6  0  0  0
 50 52  1  0  0  0  0
 50 51  1  0  0  0  0
 51 53  1  6  0  0  0
 52 51  1  0  0  0  0
 53 62  1  6  0  0  0
 54 53  1  6  0  0  0
 54 55  1  0  0  0  0
 54 56  1  0  0  0  0
 55 59  1  0  0  0  0
 56 57  1  0  0  0  0
 59 57  1  0  0  0  0
 59 58  1  1  0  0  0
 60 62  2  0  0  0  0
 61 62  1  0  0  0  0
M  END
>  <MODEL>
2

>  <REMARK>
 VINA RESULT:      -6.5      1.526      3.024
  Name = 
  15 active torsions:
  status: ('A' for Active; 'I' for Inactive)
    1  A    between atoms: C_1  and  C_30
    2  A    between atoms: C_4  and  C_53
    3  A    between atoms: C_5  and  N_10
    4  A    between atoms: C_8  and  C_41
    5  A    between atoms: C_17  and  C_30
    6  A    between atoms: O_22  and  C_45
    7  A    between atoms: O_22  and  C_60
    8  A    between atoms: N_24  and  C_41
    9  A    between atoms: C_26  and  C_39
   10  A    between atoms: C_26  and  O_44
   11  A    between atoms: C_30  and  C_34
   12  A    between atoms: C_37  and  C_51
   13  A    between atoms: C_49  and  C_61
   14  A    between atoms: C_51  and  N_52
   15  A    between atoms: C_53  and  C_61
                            x       y       z     vdW  Elec       q    Type
                         _______ _______ _______ _____ _____    ______ ____

>  <TORSDO>
F 15

$$$$
=
 OpenBabel11042410113D

 62 68  0  0  1  0  0  0  0  0999 V2000
  185.6550  179.0340  138.1150 O   0  0  0  0  0  0  0  0  0  0  0  0
  185.5520  173.6500  136.5750 C   0  0  1  0  0  3  0  0  0  0  0  0
  183.4030  178.7860  138.9410 C   0  0  2  0  0  3  0  0  0  0  0  0
  181.1670  172.8690  137.0730 C   0  0  0  0  0  0  0  0  0  0  0  0
  188.1760  178.6230  139.1790 O   0  0  0  0  0  0  0  0  0  0  0  0
  186.7900  174.2220  135.9850 C   0  0  1  0  0  3  0  0  0  0  0  0
  181.5030  175.2570  137.0460 C   0  0  0  0  0  0  0  0  0  0  0  0
  184.8960  178.6400  139.2240 C   0  0  0  0  0  2  0  0  0  0  0  0
  183.1390  173.7990  136.1500 C   0  0  0  0  0  0  0  0  0  0  0  0
  182.7030  175.0520  136.4390 N   0  0  0  0  0  0  0  0  0  0  0  0
  183.0150  177.8810  137.9500 O   0  0  0  0  0  0  0  0  0  0  0  0
  186.4150  177.9540  137.8050 N   0  0  0  0  0  2  0  0  0  0  0  0
  182.3750  172.7230  136.4720 N   0  0  0  0  0  0  0  0  0  0  0  0
  180.6890  174.1600  137.3820 C   0  0  0  0  0  0  0  0  0  0  0  0
  187.6650  174.7760  137.0870 C   0  0  0  0  0  2  0  0  0  0  0  0
  187.7360  177.7980  138.3330 C   0  0  0  0  0  0  0  0  0  0  0  0
  184.4680  173.5970  135.5140 C   0  0  0  0  0  2  0  0  0  0  0  0
  188.5690  176.6150  137.9290 C   0  0  1  0  0  3  0  0  0  0  0  0
  188.0970  176.0540  136.7350 O   0  0  0  0  0  0  0  0  0  0  0  0
  186.6320  172.8340  136.1760 O   0  0  0  0  0  0  0  0  0  0  0  0
  180.3770  171.6410  137.3880 C   0  0  0  0  0  1  0  0  0  0  0  0
  181.0640  176.6550  137.3480 C   0  0  0  0  0  2  0  0  0  0  0  0
  181.8900  177.2340  138.4770 C   0  0  0  0  0  2  0  0  0  0  0  0
  179.1270  175.8680  138.3300 C   0  0  0  0  0  1  0  0  0  0  0  0
  179.3480  174.3980  138.0330 C   0  0  2  0  0  3  0  0  0  0  0  0
  179.2110  173.6380  139.1970 O   0  0  0  0  0  0  0  0  0  0  0  0
  179.7850  174.4190  140.2020 C   0  0  0  0  0  1  0  0  0  0  0  0
  183.0680  180.2150  138.5210 C   0  0  0  0  0  2  0  0  0  0  0  0
  181.4370  179.6270  140.1180 C   0  0  0  0  0  2  0  0  0  0  0  0
  180.0660  179.9630  140.6860 C   0  0  2  0  0  0  0  0  0  0  0  0
  180.7930  180.4850  138.0000 C   0  0  0  0  0  2  0  0  0  0  0  0
  178.9320  180.2080  139.6930 C   0  0  0  0  0  2  0  0  0  0  0  0
  181.7800  180.5980  139.0770 N   0  0  0  0  0  0  0  0  0  0  0  0
  180.1250  180.9670  141.6610 O   0  0  0  0  0  0  0  0  0  0  0  0
  179.4240  181.0020  138.4720 C   0  0  1  0  0  3  0  0  0  0  0  0
  179.7220  179.6880  142.1010 C   0  0  2  0  0  3  0  0  0  0  0  0
  180.7800  179.0880  142.7850 O   0  0  0  0  0  0  0  0  0  0  0  0
  180.2150  178.5710  143.9500 C   0  0  0  0  0  2  0  0  0  0  0  0
  178.9550  179.3380  144.2890 C   0  0  0  0  0  1  0  0  0  0  0  0
  179.4650  182.4930  138.7810 C   0  0  0  0  0  2  0  0  0  0  0  0
  179.8980  184.7650  135.9270 O   0  0  0  0  0  0  0  0  0  0  0  0
  180.2060  184.0730  136.9340 C   0  0  0  0  0  0  0  0  0  0  0  0
  181.6020  184.1150  137.4460 C   0  0  0  0  0  1  0  0  0  0  0  0
  179.2070  183.2750  137.5750 N   0  0  0  0  0  2  0  0  0  0  0  0
  190.0530  176.9600  137.7970 C   0  0  0  0  0  2  0  0  0  0  0  0
  190.5670  177.7590  138.9890 C   0  0  0  0  0  2  0  0  0  0  0  0
  190.8880  176.8590  140.1380 C   0  0  0  0  0  0  0  0  0  0  0  0
  189.9420  176.6800  141.1970 N   0  0  0  0  0  2  0  0  0  0  0  0
  192.0150  176.3060  140.1890 O   0  0  0  0  0  0  0  0  0  0  0  0
  190.1810  175.8180  142.3470 C   0  0  1  0  0  3  0  0  0  0  0  0
  190.1680  176.5610  143.6490 C   0  0  2  0  0  3  0  0  0  0  0  0
  189.0560  175.8240  143.1940 O   0  0  0  0  0  0  0  0  0  0  0  0
  189.8590  178.0640  143.5570 C   0  0  1  0  0  3  0  0  0  0  0  0
  188.5700  178.4110  144.3170 C   0  0  2  0  0  3  0  0  0  0  0  0
  188.6640  177.8760  146.0590 S   0  0  0  0  0  0  0  0  0  0  0  0
  187.4220  177.7720  143.6920 N   0  0  0  0  0  2  0  0  0  0  0  0
  186.3680  177.7630  144.6910 C   0  0  0  0  0  2  0  0  0  0  0  0
  186.1700  177.8060  147.1570 C   0  0  0  0  0  1  0  0  0  0  0  0
  186.9640  177.2700  145.9860 C   0  0  2  0  0  3  0  0  0  0  0  0
  192.0270  178.2680  144.5650 O   0  0  0  0  0  1  0  0  0  0  0  0
  190.9940  180.2390  144.0270 O   0  0  0  0  0  0  0  0  0  0  0  0
  191.0230  178.8500  144.0800 C   0  0  0  0  0  0  0  0  0  0  0  0
  1  8  1  0  0  0  0
  2 17  1  6  0  0  0
  3 28  1  6  0  0  0
  3  8  1  0  0  0  0
  4 14  1  0  0  0  0
  4 21  1  0  0  0  0
  6 20  1  0  0  0  0
  6  2  1  0  0  0  0
  6 15  1  1  0  0  0
  7 22  1  0  0  0  0
  7 14  2  0  0  0  0
  9 10  2  0  0  0  0
  9 13  1  0  0  0  0
 10  7  1  0  0  0  0
 11 23  1  0  0  0  0
 11  3  1  0  0  0  0
 12  1  1  0  0  0  0
 12 16  1  0  0  0  0
 13  4  2  0  0  0  0
 14 25  1  0  0  0  0
 16  5  2  0  0  0  0
 17  9  1  0  0  0  0
 18 45  1  6  0  0  0
 18 16  1  0  0  0  0
 19 15  1  0  0  0  0
 19 18  1  0  0  0  0
 20  2  1  0  0  0  0
 22 23  1  0  0  0  0
 25 24  1  1  0  0  0
 25 26  1  0  0  0  0
 26 27  1  0  0  0  0
 28 33  1  0  0  0  0
 29 30  1  0  0  0  0
 30 32  1  6  0  0  0
 30 34  1  0  0  0  0
 30 36  1  0  0  0  0
 31 35  1  0  0  0  0
 31 33  1  0  0  0  0
 33 29  1  0  0  0  0
 34 36  1  0  0  0  0
 35 40  1  1  0  0  0
 35 32  1  0  0  0  0
 36 37  1  1  0  0  0
 37 38  1  0  0  0  0
 38 39  1  0  0  0  0
 41 42  2  0  0  0  0
 42 43  1  0  0  0  0
 42 44  1  0  0  0  0
 44 40  1  0  0  0  0
 45 46  1  0  0  0  0
 46 47  1  0  0  0  0
 47 49  2  0  0  0  0
 47 48  1  0  0  0  0
 50 48  1  6  0  0  0
 50 52  1  0  0  0  0
 50 51  1  0  0  0  0
 51 53  1  6  0  0  0
 52 51  1  0  0  0  0
 53 62  1  1  0  0  0
 54 53  1  6  0  0  0
 54 55  1  0  0  0  0
 56 54  1  0  0  0  0
 56 57  1  0  0  0  0
 57 59  1  0  0  0  0
 59 55  1  0  0  0  0
 59 58  1  1  0  0  0
 61 62  2  0  0  0  0
 62 60  1  0  0  0  0
M  END
>  <MODEL>
3

>  <REMARK>
 VINA RESULT:      -6.2      1.602      2.008
  Name = 
  15 active torsions:
  status: ('A' for Active; 'I' for Inactive)
    1  A    between atoms: C_1  and  C_30
    2  A    between atoms: C_4  and  C_53
    3  A    between atoms: C_5  and  N_10
    4  A    between atoms: C_8  and  C_41
    5  A    between atoms: C_17  and  C_30
    6  A    between atoms: O_22  and  C_45
    7  A    between atoms: O_22  and  C_60
    8  A    between atoms: N_24  and  C_41
    9  A    between atoms: C_26  and  C_39
   10  A    between atoms: C_26  and  O_44
   11  A    between atoms: C_30  and  C_34
   12  A    between atoms: C_37  and  C_51
   13  A    between atoms: C_49  and  C_61
   14  A    between atoms: C_51  and  N_52
   15  A    between atoms: C_53  and  C_61
                            x       y       z     vdW  Elec       q    Type
                         _______ _______ _______ _____ _____    ______ ____

>  <TORSDO>
F 15

$$$$
=
 OpenBabel11042410113D

 62 68  0  0  1  0  0  0  0  0999 V2000
  187.4280  176.8060  136.6170 O   0  0  0  0  0  0  0  0  0  0  0  0
  185.4500  178.6230  141.5320 C   0  0  1  0  0  3  0  0  0  0  0  0
  185.3940  177.5740  135.5750 C   0  0  2  0  0  3  0  0  0  0  0  0
  181.1980  179.3780  140.3330 C   0  0  0  0  0  0  0  0  0  0  0  0
  189.8620  177.9720  137.2300 O   0  0  0  0  0  0  0  0  0  0  0  0
  186.6730  177.8410  141.8450 C   0  0  1  0  0  3  0  0  0  0  0  0
  182.2190  177.9970  138.6390 C   0  0  0  0  0  0  0  0  0  0  0  0
  186.8010  177.9240  136.0510 C   0  0  0  0  0  2  0  0  0  0  0  0
  183.1560  178.1340  140.8100 C   0  0  0  0  0  0  0  0  0  0  0  0
  183.1720  177.6440  139.5430 N   0  0  0  0  0  0  0  0  0  0  0  0
  184.5810  177.2710  136.6690 O   0  0  0  0  0  0  0  0  0  0  0  0
  187.7630  177.1880  137.8750 N   0  0  0  0  0  2  0  0  0  0  0  0
  182.1770  178.9970  141.1910 N   0  0  0  0  0  0  0  0  0  0  0  0
  181.1910  178.8810  139.0120 C   0  0  0  0  0  0  0  0  0  0  0  0
  187.8590  178.4470  141.1280 C   0  0  0  0  0  2  0  0  0  0  0  0
  189.0500  177.7400  138.1660 C   0  0  0  0  0  0  0  0  0  0  0  0
  184.2260  177.7590  141.7710 C   0  0  0  0  0  2  0  0  0  0  0  0
  189.4060  178.1050  139.5800 C   0  0  1  0  0  3  0  0  0  0  0  0
  188.5800  177.4370  140.4930 O   0  0  0  0  0  0  0  0  0  0  0  0
  186.1470  178.7880  142.7470 O   0  0  0  0  0  0  0  0  0  0  0  0
  180.1500  180.3210  140.8250 C   0  0  0  0  0  1  0  0  0  0  0  0
  182.2780  177.4340  137.2540 C   0  0  0  0  0  2  0  0  0  0  0  0
  183.4300  178.0470  136.4860 C   0  0  0  0  0  2  0  0  0  0  0  0
  179.3430  178.0300  137.5560 C   0  0  0  0  0  1  0  0  0  0  0  0
  180.1230  179.2480  138.0100 C   0  0  2  0  0  3  0  0  0  0  0  0
  180.6700  179.9160  136.9120 O   0  0  0  0  0  0  0  0  0  0  0  0
  179.7910  180.9720  136.6640 C   0  0  0  0  0  1  0  0  0  0  0  0
  185.4280  176.4040  134.5940 C   0  0  0  0  0  2  0  0  0  0  0  0
  186.2120  174.2260  135.0380 C   0  0  0  0  0  2  0  0  0  0  0  0
  185.9000  172.8980  135.7140 C   0  0  2  0  0  0  0  0  0  0  0  0
  183.8970  174.6270  134.7070 C   0  0  0  0  0  2  0  0  0  0  0  0
  184.5160  172.2970  135.4810 C   0  0  0  0  0  2  0  0  0  0  0  0
  185.1230  175.1680  135.2970 N   0  0  0  0  0  0  0  0  0  0  0  0
  186.2410  172.8990  137.0720 O   0  0  0  0  0  0  0  0  0  0  0  0
  183.4290  173.3860  135.4860 C   0  0  1  0  0  3  0  0  0  0  0  0
  186.9730  172.0230  136.2420 C   0  0  2  0  0  3  0  0  0  0  0  0
  188.2400  172.5620  136.0160 O   0  0  0  0  0  0  0  0  0  0  0  0
  188.6090  173.1430  137.2290 C   0  0  0  0  0  2  0  0  0  0  0  0
  189.9950  173.7390  137.1090 C   0  0  0  0  0  1  0  0  0  0  0  0
  183.0270  173.7390  136.9120 C   0  0  0  0  0  2  0  0  0  0  0  0
  179.8890  172.2670  138.1270 O   0  0  0  0  0  0  0  0  0  0  0  0
  180.6700  173.1240  137.6350 C   0  0  0  0  0  0  0  0  0  0  0  0
  180.1510  174.4790  137.3060 C   0  0  0  0  0  1  0  0  0  0  0  0
  182.0430  172.7870  137.4190 N   0  0  0  0  0  2  0  0  0  0  0  0
  190.8760  177.8330  139.9040 C   0  0  0  0  0  2  0  0  0  0  0  0
  191.3560  176.5070  139.3270 C   0  0  0  0  0  2  0  0  0  0  0  0
  192.5860  176.6970  138.5000 C   0  0  0  0  0  0  0  0  0  0  0  0
  192.7480  175.9730  137.2760 N   0  0  0  0  0  2  0  0  0  0  0  0
  193.4960  177.4570  138.9170 O   0  0  0  0  0  0  0  0  0  0  0  0
  193.9160  176.1080  136.4150 C   0  0  1  0  0  3  0  0  0  0  0  0
  194.9870  175.1040  136.7210 C   0  0  2  0  0  3  0  0  0  0  0  0
  194.0860  174.9370  135.6510 O   0  0  0  0  0  0  0  0  0  0  0  0
  194.6590  174.0930  137.8310 C   0  0  1  0  0  3  0  0  0  0  0  0
  194.6870  172.6540  137.2940 C   0  0  2  0  0  3  0  0  0  0  0  0
  196.0010  172.4390  136.0450 S   0  0  0  0  0  0  0  0  0  0  0  0
  193.4080  172.3090  136.6930 N   0  0  0  0  0  2  0  0  0  0  0  0
  193.6580  171.1650  135.8340 C   0  0  0  0  0  2  0  0  0  0  0  0
  195.5560  170.1750  134.5940 C   0  0  0  0  0  1  0  0  0  0  0  0
  194.8850  171.4660  135.0100 C   0  0  2  0  0  3  0  0  0  0  0  0
  196.6090  173.5000  139.0960 O   0  0  0  0  0  0  0  0  0  0  0  0
  195.4160  175.2850  139.8920 O   0  0  0  0  0  1  0  0  0  0  0  0
  195.6200  174.2650  138.9680 C   0  0  0  0  0  0  0  0  0  0  0  0
  1 12  1  0  0  0  0
  2 17  1  1  0  0  0
  2  6  1  0  0  0  0
  2 20  1  0  0  0  0
  3 28  1  6  0  0  0
  3  8  1  0  0  0  0
  3 11  1  0  0  0  0
  4 21  1  0  0  0  0
  4 13  2  0  0  0  0
  5 16  2  0  0  0  0
  6 15  1  6  0  0  0
  6 20  1  0  0  0  0
  7 14  2  0  0  0  0
  7 10  1  0  0  0  0
  8  1  1  0  0  0  0
  9 13  1  0  0  0  0
  9 17  1  0  0  0  0
 10  9  2  0  0  0  0
 12 16  1  0  0  0  0
 14  4  1  0  0  0  0
 16 18  1  0  0  0  0
 18 45  1  1  0  0  0
 18 19  1  0  0  0  0
 19 15  1  0  0  0  0
 22  7  1  0  0  0  0
 23 11  1  0  0  0  0
 23 22  1  0  0  0  0
 25 24  1  6  0  0  0
 25 14  1  0  0  0  0
 26 25  1  0  0  0  0
 27 26  1  0  0  0  0
 28 33  1  0  0  0  0
 29 33  1  0  0  0  0
 30 29  1  6  0  0  0
 30 36  1  0  0  0  0
 30 34  1  0  0  0  0
 31 33  1  0  0  0  0
 31 35  1  0  0  0  0
 32 35  1  0  0  0  0
 32 30  1  0  0  0  0
 35 40  1  1  0  0  0
 36 37  1  6  0  0  0
 36 34  1  0  0  0  0
 37 38  1  0  0  0  0
 39 38  1  0  0  0  0
 40 44  1  0  0  0  0
 42 41  2  0  0  0  0
 43 42  1  0  0  0  0
 44 42  1  0  0  0  0
 46 45  1  0  0  0  0
 47 49  2  0  0  0  0
 47 46  1  0  0  0  0
 48 47  1  0  0  0  0
 50 51  1  0  0  0  0
 50 48  1  1  0  0  0
 51 53  1  1  0  0  0
 52 50  1  0  0  0  0
 52 51  1  0  0  0  0
 53 62  1  1  0  0  0
 54 53  1  6  0  0  0
 55 54  1  0  0  0  0
 56 54  1  0  0  0  0
 57 56  1  0  0  0  0
 59 58  1  1  0  0  0
 59 57  1  0  0  0  0
 59 55  1  0  0  0  0
 62 60  2  0  0  0  0
 62 61  1  0  0  0  0
M  END
>  <MODEL>
4

>  <REMARK>
 VINA RESULT:      -6.0      3.611      8.281
  Name = 
  15 active torsions:
  status: ('A' for Active; 'I' for Inactive)
    1  A    between atoms: C_1  and  C_30
    2  A    between atoms: C_4  and  C_53
    3  A    between atoms: C_5  and  N_10
    4  A    between atoms: C_8  and  C_41
    5  A    between atoms: C_17  and  C_30
    6  A    between atoms: O_22  and  C_45
    7  A    between atoms: O_22  and  C_60
    8  A    between atoms: N_24  and  C_41
    9  A    between atoms: C_26  and  C_39
   10  A    between atoms: C_26  and  O_44
   11  A    between atoms: C_30  and  C_34
   12  A    between atoms: C_37  and  C_51
   13  A    between atoms: C_49  and  C_61
   14  A    between atoms: C_51  and  N_52
   15  A    between atoms: C_53  and  C_61
                            x       y       z     vdW  Elec       q    Type
                         _______ _______ _______ _____ _____    ______ ____

>  <TORSDO>
F 15

$$$$
=
 OpenBabel11042410113D

 62 68  0  0  1  0  0  0  0  0999 V2000
  187.0230  176.8580  136.9400 O   0  0  0  0  0  0  0  0  0  0  0  0
  184.6760  179.0020  141.5510 C   0  0  1  0  0  3  0  0  0  0  0  0
  185.1240  177.6380  135.6750 C   0  0  2  0  0  3  0  0  0  0  0  0
  180.5850  179.8380  139.9250 C   0  0  0  0  0  0  0  0  0  0  0  0
  189.4340  177.9710  137.7180 O   0  0  0  0  0  0  0  0  0  0  0  0
  185.8350  178.1970  142.0170 C   0  0  1  0  0  3  0  0  0  0  0  0
  181.7010  178.3340  138.4050 C   0  0  0  0  0  0  0  0  0  0  0  0
  186.4940  177.9650  136.2630 C   0  0  0  0  0  2  0  0  0  0  0  0
  182.4400  178.5550  140.6440 C   0  0  0  0  0  0  0  0  0  0  0  0
  182.5530  177.9980  139.4110 N   0  0  0  0  0  0  0  0  0  0  0  0
  184.2030  177.4220  136.7030 O   0  0  0  0  0  0  0  0  0  0  0  0
  187.2550  177.2950  138.2030 N   0  0  0  0  0  2  0  0  0  0  0  0
  181.4660  179.4690  140.8890 N   0  0  0  0  0  0  0  0  0  0  0  0
  180.6790  179.2720  138.6360 C   0  0  0  0  0  0  0  0  0  0  0  0
  187.1030  178.7230  141.3840 C   0  0  0  0  0  2  0  0  0  0  0  0
  188.5320  177.8170  138.5850 C   0  0  0  0  0  0  0  0  0  0  0  0
  183.4030  178.1950  141.7190 C   0  0  0  0  0  2  0  0  0  0  0  0
  188.7710  178.2450  140.0050 C   0  0  1  0  0  3  0  0  0  0  0  0
  187.8390  177.6560  140.8700 O   0  0  0  0  0  0  0  0  0  0  0  0
  185.2660  179.2080  142.8170 O   0  0  0  0  0  0  0  0  0  0  0  0
  179.5340  180.8410  140.2690 C   0  0  0  0  0  1  0  0  0  0  0  0
  181.8650  177.6960  137.0620 C   0  0  0  0  0  2  0  0  0  0  0  0
  183.1050  178.2270  136.3750 C   0  0  0  0  0  2  0  0  0  0  0  0
  179.1020  178.3800  136.9100 C   0  0  0  0  0  1  0  0  0  0  0  0
  179.7220  179.6210  137.5210 C   0  0  2  0  0  3  0  0  0  0  0  0
  180.3510  180.3880  136.5390 O   0  0  0  0  0  0  0  0  0  0  0  0
  179.6610  180.0940  135.3610 C   0  0  0  0  0  1  0  0  0  0  0  0
  185.2020  176.4170  134.7620 C   0  0  0  0  0  2  0  0  0  0  0  0
  185.6220  174.1610  135.3020 C   0  0  0  0  0  2  0  0  0  0  0  0
  185.0650  172.9100  135.9650 C   0  0  2  0  0  0  0  0  0  0  0  0
  183.4250  174.8810  134.7650 C   0  0  0  0  0  2  0  0  0  0  0  0
  183.6330  172.5070  135.6200 C   0  0  0  0  0  2  0  0  0  0  0  0
  184.6630  175.2560  135.4530 N   0  0  0  0  0  0  0  0  0  0  0  0
  185.2880  172.8960  137.3480 O   0  0  0  0  0  0  0  0  0  0  0  0
  182.7200  173.7400  135.5160 C   0  0  1  0  0  3  0  0  0  0  0  0
  185.9520  171.9030  136.5960 C   0  0  2  0  0  3  0  0  0  0  0  0
  187.2990  172.2500  136.4740 O   0  0  0  0  0  0  0  0  0  0  0  0
  187.9320  171.0960  136.0160 C   0  0  0  0  0  2  0  0  0  0  0  0
  186.9470  170.2460  135.2420 C   0  0  0  0  0  1  0  0  0  0  0  0
  182.2540  174.1830  136.8970 C   0  0  0  0  0  2  0  0  0  0  0  0
  178.9600  173.7130  138.4550 O   0  0  0  0  0  0  0  0  0  0  0  0
  180.1320  174.1490  138.2940 C   0  0  0  0  0  0  0  0  0  0  0  0
  180.7280  175.0340  139.3310 C   0  0  0  0  0  1  0  0  0  0  0  0
  180.8730  173.7730  137.1300 N   0  0  0  0  0  2  0  0  0  0  0  0
  190.1930  177.9410  140.4790 C   0  0  0  0  0  2  0  0  0  0  0  0
  190.3180  177.9960  141.9970 C   0  0  0  0  0  2  0  0  0  0  0  0
  190.7350  176.6710  142.5480 C   0  0  0  0  0  0  0  0  0  0  0  0
  191.7070  176.6020  143.5960 N   0  0  0  0  0  2  0  0  0  0  0  0
  190.2640  175.6200  142.0460 O   0  0  0  0  0  0  0  0  0  0  0  0
  192.1620  175.3500  144.1860 C   0  0  1  0  0  3  0  0  0  0  0  0
  192.0480  175.3320  145.6810 C   0  0  2  0  0  3  0  0  0  0  0  0
  191.0930  174.7150  144.8480 O   0  0  0  0  0  0  0  0  0  0  0  0
  191.4360  176.5890  146.3200 C   0  0  1  0  0  3  0  0  0  0  0  0
  189.9020  176.5100  146.3370 C   0  0  2  0  0  3  0  0  0  0  0  0
  189.1560  177.9990  145.5900 S   0  0  0  0  0  0  0  0  0  0  0  0
  189.4130  176.3740  147.7000 N   0  0  0  0  0  2  0  0  0  0  0  0
  188.0140  176.7650  147.6700 C   0  0  0  0  0  2  0  0  0  0  0  0
  186.5300  178.1890  146.2960 C   0  0  0  0  0  1  0  0  0  0  0  0
  187.9120  178.0560  146.8980 C   0  0  2  0  0  3  0  0  0  0  0  0
  191.6780  177.7730  148.3920 O   0  0  0  0  0  1  0  0  0  0  0  0
  192.8380  175.8060  148.2330 O   0  0  0  0  0  0  0  0  0  0  0  0
  191.9840  176.7670  147.7040 C   0  0  0  0  0  0  0  0  0  0  0  0
  1 12  1  0  0  0  0
  2 17  1  1  0  0  0
  2  6  1  0  0  0  0
  2 20  1  0  0  0  0
  3 28  1  1  0  0  0
  3  8  1  0  0  0  0
  3 11  1  0  0  0  0
  4 21  1  0  0  0  0
  4 13  2  0  0  0  0
  5 16  2  0  0  0  0
  6 15  1  6  0  0  0
  6 20  1  0  0  0  0
  7 14  2  0  0  0  0
  7 10  1  0  0  0  0
  8  1  1  0  0  0  0
  9 13  1  0  0  0  0
  9 17  1  0  0  0  0
 10  9  2  0  0  0  0
 12 16  1  0  0  0  0
 14  4  1  0  0  0  0
 16 18  1  0  0  0  0
 18 45  1  1  0  0  0
 18 19  1  0  0  0  0
 19 15  1  0  0  0  0
 22  7  1  0  0  0  0
 23 11  1  0  0  0  0
 23 22  1  0  0  0  0
 25 24  1  6  0  0  0
 25 14  1  0  0  0  0
 26 25  1  0  0  0  0
 27 26  1  0  0  0  0
 28 33  1  0  0  0  0
 29 33  1  0  0  0  0
 30 29  1  6  0  0  0
 30 36  1  0  0  0  0
 30 34  1  0  0  0  0
 31 33  1  0  0  0  0
 31 35  1  0  0  0  0
 32 30  1  0  0  0  0
 35 32  1  0  0  0  0
 35 40  1  1  0  0  0
 36 37  1  6  0  0  0
 36 34  1  0  0  0  0
 38 37  1  0  0  0  0
 39 38  1  0  0  0  0
 40 44  1  0  0  0  0
 42 41  2  0  0  0  0
 42 43  1  0  0  0  0
 44 42  1  0  0  0  0
 45 46  1  0  0  0  0
 46 47  1  0  0  0  0
 47 48  1  0  0  0  0
 49 47  2  0  0  0  0
 50 48  1  6  0  0  0
 50 52  1  0  0  0  0
 50 51  1  0  0  0  0
 51 53  1  6  0  0  0
 52 51  1  0  0  0  0
 53 62  1  1  0  0  0
 54 53  1  1  0  0  0
 54 56  1  0  0  0  0
 55 54  1  0  0  0  0
 55 59  1  0  0  0  0
 57 56  1  0  0  0  0
 59 58  1  6  0  0  0
 59 57  1  0  0  0  0
 62 61  2  0  0  0  0
 62 60  1  0  0  0  0
M  END
>  <MODEL>
5

>  <REMARK>
 VINA RESULT:      -6.0      2.314      6.664
  Name = 
  15 active torsions:
  status: ('A' for Active; 'I' for Inactive)
    1  A    between atoms: C_1  and  C_30
    2  A    between atoms: C_4  and  C_53
    3  A    between atoms: C_5  and  N_10
    4  A    between atoms: C_8  and  C_41
    5  A    between atoms: C_17  and  C_30
    6  A    between atoms: O_22  and  C_45
    7  A    between atoms: O_22  and  C_60
    8  A    between atoms: N_24  and  C_41
    9  A    between atoms: C_26  and  C_39
   10  A    between atoms: C_26  and  O_44
   11  A    between atoms: C_30  and  C_34
   12  A    between atoms: C_37  and  C_51
   13  A    between atoms: C_49  and  C_61
   14  A    between atoms: C_51  and  N_52
   15  A    between atoms: C_53  and  C_61
                            x       y       z     vdW  Elec       q    Type
                         _______ _______ _______ _____ _____    ______ ____

>  <TORSDO>
F 15

$$$$
=
 OpenBabel11042410113D

 62 68  0  0  1  0  0  0  0  0999 V2000
  186.9850  178.9660  139.3630 O   0  0  0  0  0  0  0  0  0  0  0  0
  189.1430  174.2840  137.1730 C   0  0  1  0  0  3  0  0  0  0  0  0
  184.7820  178.1110  138.8840 C   0  0  2  0  0  3  0  0  0  0  0  0
  185.4400  172.6440  135.2530 C   0  0  0  0  0  0  0  0  0  0  0  0
  188.7520  178.7220  141.4790 O   0  0  0  0  0  0  0  0  0  0  0  0
  190.2900  175.2030  137.3880 C   0  0  1  0  0  3  0  0  0  0  0  0
  185.0490  174.9680  135.7700 C   0  0  0  0  0  0  0  0  0  0  0  0
  185.9560  178.1550  139.8580 C   0  0  0  0  0  2  0  0  0  0  0  0
  187.2550  174.1220  135.6130 C   0  0  0  0  0  0  0  0  0  0  0  0
  186.3960  175.1500  135.8310 N   0  0  0  0  0  0  0  0  0  0  0  0
  185.1620  177.4620  137.7070 O   0  0  0  0  0  0  0  0  0  0  0  0
  188.0780  178.1620  139.3180 N   0  0  0  0  0  2  0  0  0  0  0  0
  186.7730  172.8830  135.3320 N   0  0  0  0  0  0  0  0  0  0  0  0
  184.5260  173.6960  135.4720 C   0  0  0  0  0  0  0  0  0  0  0  0
  190.3720  175.5740  138.8520 C   0  0  0  0  0  2  0  0  0  0  0  0
  188.9990  178.1000  140.4110 C   0  0  0  0  0  0  0  0  0  0  0  0
  188.7230  174.3380  135.7160 C   0  0  0  0  0  2  0  0  0  0  0  0
  190.2260  177.2380  140.3080 C   0  0  1  0  0  3  0  0  0  0  0  0
  190.5280  176.9550  138.9700 O   0  0  0  0  0  0  0  0  0  0  0  0
  190.4700  173.8110  137.2560 O   0  0  0  0  0  0  0  0  0  0  0  0
  184.9840  171.2600  134.9310 C   0  0  0  0  0  1  0  0  0  0  0  0
  184.1400  176.1290  136.0190 C   0  0  0  0  0  2  0  0  0  0  0  0
  184.1610  176.5080  137.4840 C   0  0  0  0  0  2  0  0  0  0  0  0
  182.3580  174.6970  134.7250 C   0  0  0  0  0  1  0  0  0  0  0  0
  183.0300  173.5080  135.3820 C   0  0  2  0  0  3  0  0  0  0  0  0
  182.4760  173.2660  136.6410 O   0  0  0  0  0  0  0  0  0  0  0  0
  181.5310  174.2790  136.8140 C   0  0  0  0  0  1  0  0  0  0  0  0
  184.2780  179.5190  138.5780 C   0  0  0  0  0  2  0  0  0  0  0  0
  182.6570  178.7810  140.1220 C   0  0  0  0  0  2  0  0  0  0  0  0
  181.1850  178.8220  140.5040 C   0  0  2  0  0  0  0  0  0  0  0  0
  182.0940  179.0790  137.8360 C   0  0  0  0  0  2  0  0  0  0  0  0
  180.1610  178.5890  139.3960 C   0  0  0  0  0  2  0  0  0  0  0  0
  182.8750  179.6260  138.9470 N   0  0  0  0  0  0  0  0  0  0  0  0
  180.8660  179.9500  141.2730 O   0  0  0  0  0  0  0  0  0  0  0  0
  180.5900  179.2770  138.0900 C   0  0  1  0  0  3  0  0  0  0  0  0
  180.7430  178.6980  141.9140 C   0  0  2  0  0  3  0  0  0  0  0  0
  181.8230  178.5240  142.7820 O   0  0  0  0  0  0  0  0  0  0  0  0
  181.2960  178.7080  144.0590 C   0  0  0  0  0  2  0  0  0  0  0  0
  179.8240  178.3590  144.0600 C   0  0  0  0  0  1  0  0  0  0  0  0
  180.2160  180.7540  138.1120 C   0  0  0  0  0  2  0  0  0  0  0  0
  180.6560  183.0900  135.3110 O   0  0  0  0  0  0  0  0  0  0  0  0
  180.6930  182.6530  136.4920 C   0  0  0  0  0  0  0  0  0  0  0  0
  181.1680  183.5460  137.5840 C   0  0  0  0  0  1  0  0  0  0  0  0
  180.2630  181.3170  136.7660 N   0  0  0  0  0  2  0  0  0  0  0  0
  191.4400  177.8590  141.0010 C   0  0  0  0  0  2  0  0  0  0  0  0
  191.1090  178.3550  142.4040 C   0  0  0  0  0  2  0  0  0  0  0  0
  191.3200  177.2770  143.4160 C   0  0  0  0  0  0  0  0  0  0  0  0
  191.2200  177.5730  144.8130 N   0  0  0  0  0  2  0  0  0  0  0  0
  191.6370  176.1240  143.0300 O   0  0  0  0  0  0  0  0  0  0  0  0
  191.4080  176.5760  145.8590 C   0  0  1  0  0  3  0  0  0  0  0  0
  190.4430  176.7310  146.9950 C   0  0  2  0  0  3  0  0  0  0  0  0
  190.2540  175.7780  145.9740 O   0  0  0  0  0  0  0  0  0  0  0  0
  189.4070  177.8570  146.8450 C   0  0  1  0  0  3  0  0  0  0  0  0
  188.1460  177.3560  146.1240 C   0  0  2  0  0  3  0  0  0  0  0  0
  187.8960  178.2310  144.5420 S   0  0  0  0  0  0  0  0  0  0  0  0
  186.9700  177.5510  146.9590 N   0  0  0  0  0  2  0  0  0  0  0  0
  185.8250  177.4940  146.0670 C   0  0  0  0  0  2  0  0  0  0  0  0
  185.3350  177.8920  143.6750 C   0  0  0  0  0  1  0  0  0  0  0  0
  186.1260  178.3670  144.8740 C   0  0  2  0  0  3  0  0  0  0  0  0
  187.9860  179.0160  148.3910 O   0  0  0  0  0  0  0  0  0  0  0  0
  189.9750  178.2690  149.2420 O   0  0  0  0  0  1  0  0  0  0  0  0
  189.0730  178.4160  148.1940 C   0  0  0  0  0  0  0  0  0  0  0  0
  1  8  1  0  0  0  0
  2 17  1  6  0  0  0
  2 20  1  0  0  0  0
  2  6  1  0  0  0  0
  3 28  1  6  0  0  0
  3  8  1  0  0  0  0
  4 13  2  0  0  0  0
  4 14  1  0  0  0  0
  6 15  1  1  0  0  0
  7 10  1  0  0  0  0
  7 22  1  0  0  0  0
  9 17  1  0  0  0  0
  9 10  2  0  0  0  0
 11  3  1  0  0  0  0
 12  1  1  0  0  0  0
 12 16  1  0  0  0  0
 13  9  1  0  0  0  0
 14  7  2  0  0  0  0
 15 19  1  0  0  0  0
 16  5  2  0  0  0  0
 18 16  1  0  0  0  0
 18 45  1  6  0  0  0
 19 18  1  0  0  0  0
 20  6  1  0  0  0  0
 21  4  1  0  0  0  0
 22 23  1  0  0  0  0
 23 11  1  0  0  0  0
 25 24  1  1  0  0  0
 25 14  1  0  0  0  0
 25 26  1  0  0  0  0
 26 27  1  0  0  0  0
 28 33  1  0  0  0  0
 29 30  1  0  0  0  0
 30 32  1  6  0  0  0
 30 34  1  0  0  0  0
 30 36  1  0  0  0  0
 31 35  1  0  0  0  0
 31 33  1  0  0  0  0
 33 29  1  0  0  0  0
 34 36  1  0  0  0  0
 35 40  1  1  0  0  0
 35 32  1  0  0  0  0
 36 37  1  1  0  0  0
 37 38  1  0  0  0  0
 38 39  1  0  0  0  0
 41 42  2  0  0  0  0
 42 44  1  0  0  0  0
 42 43  1  0  0  0  0
 44 40  1  0  0  0  0
 45 46  1  0  0  0  0
 46 47  1  0  0  0  0
 47 48  1  0  0  0  0
 49 47  2  0  0  0  0
 50 48  1  6  0  0  0
 50 52  1  0  0  0  0
 50 51  1  0  0  0  0
 51 53  1  6  0  0  0
 52 51  1  0  0  0  0
 53 62  1  1  0  0  0
 54 53  1  1  0  0  0
 54 56  1  0  0  0  0
 55 59  1  0  0  0  0
 55 54  1  0  0  0  0
 57 56  1  0  0  0  0
 59 58  1  6  0  0  0
 59 57  1  0  0  0  0
 62 60  2  0  0  0  0
 62 61  1  0  0  0  0
M  END
>  <MODEL>
6

>  <REMARK>
 VINA RESULT:      -5.5      1.891      2.644
  Name = 
  15 active torsions:
  status: ('A' for Active; 'I' for Inactive)
    1  A    between atoms: C_1  and  C_30
    2  A    between atoms: C_4  and  C_53
    3  A    between atoms: C_5  and  N_10
    4  A    between atoms: C_8  and  C_41
    5  A    between atoms: C_17  and  C_30
    6  A    between atoms: O_22  and  C_45
    7  A    between atoms: O_22  and  C_60
    8  A    between atoms: N_24  and  C_41
    9  A    between atoms: C_26  and  C_39
   10  A    between atoms: C_26  and  O_44
   11  A    between atoms: C_30  and  C_34
   12  A    between atoms: C_37  and  C_51
   13  A    between atoms: C_49  and  C_61
   14  A    between atoms: C_51  and  N_52
   15  A    between atoms: C_53  and  C_61
                            x       y       z     vdW  Elec       q    Type
                         _______ _______ _______ _____ _____    ______ ____

>  <TORSDO>
F 15

$$$$
=
 OpenBabel11042410113D

 62 68  0  0  1  0  0  0  0  0999 V2000
  186.0330  177.8920  138.5740 O   0  0  0  0  0  0  0  0  0  0  0  0
  187.1440  172.9170  136.2540 C   0  0  1  0  0  3  0  0  0  0  0  0
  188.2840  178.5790  138.0500 C   0  0  2  0  0  3  0  0  0  0  0  0
  191.5930  173.3040  135.8770 C   0  0  0  0  0  0  0  0  0  0  0  0
  183.6220  177.9230  137.2160 O   0  0  0  0  0  0  0  0  0  0  0  0
  185.8270  172.7720  136.9260 C   0  0  1  0  0  3  0  0  0  0  0  0
  190.8210  175.0020  137.4070 C   0  0  0  0  0  0  0  0  0  0  0  0
  186.8420  178.4420  137.5710 C   0  0  0  0  0  2  0  0  0  0  0  0
  189.4920  173.0970  136.9480 C   0  0  0  0  0  0  0  0  0  0  0  0
  189.6860  174.2760  137.5930 N   0  0  0  0  0  0  0  0  0  0  0  0
  188.8420  177.3150  138.2540 O   0  0  0  0  0  0  0  0  0  0  0  0
  185.4890  176.7800  138.0190 N   0  0  0  0  0  2  0  0  0  0  0  0
  190.4390  172.6260  136.0960 N   0  0  0  0  0  0  0  0  0  0  0  0
  191.8210  174.5310  136.5370 C   0  0  0  0  0  0  0  0  0  0  0  0
  184.8540  173.7790  136.3550 C   0  0  0  0  0  2  0  0  0  0  0  0
  184.2150  176.8210  137.3690 C   0  0  0  0  0  0  0  0  0  0  0  0
  188.2290  172.3370  137.1420 C   0  0  0  0  0  2  0  0  0  0  0  0
  183.6190  175.5610  136.8100 C   0  0  1  0  0  3  0  0  0  0  0  0
  184.1970  174.4280  137.3990 O   0  0  0  0  0  0  0  0  0  0  0  0
  186.2380  171.8950  135.9010 O   0  0  0  0  0  0  0  0  0  0  0  0
  192.5940  172.7200  134.9350 C   0  0  0  0  0  1  0  0  0  0  0  0
  190.9910  176.2970  138.1370 C   0  0  0  0  0  2  0  0  0  0  0  0
  190.0620  177.3480  137.5670 C   0  0  0  0  0  2  0  0  0  0  0  0
  193.1450  175.9820  134.9880 C   0  0  0  0  0  1  0  0  0  0  0  0
  193.0890  175.3300  136.3550 C   0  0  2  0  0  3  0  0  0  0  0  0
  194.2200  174.5370  136.5660 O   0  0  0  0  0  0  0  0  0  0  0  0
  194.4310  174.5790  137.9450 C   0  0  0  0  0  1  0  0  0  0  0  0
  188.3530  179.4070  139.3320 C   0  0  0  0  0  2  0  0  0  0  0  0
  187.2040  178.9980  141.3490 C   0  0  0  0  0  2  0  0  0  0  0  0
  187.1420  178.1320  142.5980 C   0  0  2  0  0  0  0  0  0  0  0  0
  189.5510  178.6720  141.2130 C   0  0  0  0  0  2  0  0  0  0  0  0
  188.4470  177.8860  143.3520 C   0  0  0  0  0  2  0  0  0  0  0  0
  188.2880  178.5250  140.4860 N   0  0  0  0  0  0  0  0  0  0  0  0
  186.4360  176.9400  142.3860 O   0  0  0  0  0  0  0  0  0  0  0  0
  189.6180  177.6710  142.3790 C   0  0  1  0  0  3  0  0  0  0  0  0
  185.8610  177.8570  143.2920 C   0  0  2  0  0  3  0  0  0  0  0  0
  184.7880  178.4980  142.6710 O   0  0  0  0  0  0  0  0  0  0  0  0
  183.8500  178.7000  143.6820 C   0  0  0  0  0  2  0  0  0  0  0  0
  184.5600  178.9580  144.9930 C   0  0  0  0  0  1  0  0  0  0  0  0
  189.6460  176.2320  141.8790 C   0  0  0  0  0  2  0  0  0  0  0  0
  192.0580  174.9680  144.3440 O   0  0  0  0  0  0  0  0  0  0  0  0
  191.4830  175.7860  143.5770 C   0  0  0  0  0  0  0  0  0  0  0  0
  192.0230  177.1660  143.4460 C   0  0  0  0  0  1  0  0  0  0  0  0
  190.3340  175.3690  142.8340 N   0  0  0  0  0  2  0  0  0  0  0  0
  182.0980  175.5130  136.9620 C   0  0  0  0  0  2  0  0  0  0  0  0
  181.6710  175.3060  138.4110 C   0  0  0  0  0  2  0  0  0  0  0  0
  180.4060  176.0440  138.7070 C   0  0  0  0  0  0  0  0  0  0  0  0
  180.1740  177.3320  138.1270 N   0  0  0  0  0  2  0  0  0  0  0  0
  179.5770  175.5480  139.5100 O   0  0  0  0  0  0  0  0  0  0  0  0
  178.9650  178.1120  138.3650 C   0  0  1  0  0  3  0  0  0  0  0  0
  179.2510  179.4930  138.8720 C   0  0  2  0  0  3  0  0  0  0  0  0
  178.9470  179.2380  137.5200 O   0  0  0  0  0  0  0  0  0  0  0  0
  180.7370  179.8640  139.0030 C   0  0  1  0  0  3  0  0  0  0  0  0
  180.9310  181.3870  138.9700 C   0  0  2  0  0  3  0  0  0  0  0  0
  179.5930  182.2050  138.0350 S   0  0  0  0  0  0  0  0  0  0  0  0
  182.2060  181.7260  138.3560 N   0  0  0  0  0  2  0  0  0  0  0  0
  182.1060  183.1170  137.9530 C   0  0  0  0  0  2  0  0  0  0  0  0
  180.3350  184.7370  137.3520 C   0  0  0  0  0  1  0  0  0  0  0  0
  180.7900  183.2980  137.2390 C   0  0  2  0  0  3  0  0  0  0  0  0
  182.4880  178.8870  140.3200 O   0  0  0  0  0  0  0  0  0  0  0  0
  180.4790  179.1570  141.3850 O   0  0  0  0  0  1  0  0  0  0  0  0
  181.2930  179.2750  140.2640 C   0  0  0  0  0  0  0  0  0  0  0  0
  2  6  1  0  0  0  0
  2 17  1  1  0  0  0
  3 11  1  0  0  0  0
  3 28  1  1  0  0  0
  4 13  2  0  0  0  0
  4 14  1  0  0  0  0
  5 16  2  0  0  0  0
  6 15  1  6  0  0  0
  7 10  1  0  0  0  0
  7 22  1  0  0  0  0
  8  3  1  0  0  0  0
  8  1  1  0  0  0  0
  9 17  1  0  0  0  0
  9 10  2  0  0  0  0
 12  1  1  0  0  0  0
 13  9  1  0  0  0  0
 14  7  2  0  0  0  0
 15 19  1  0  0  0  0
 16 12  1  0  0  0  0
 18 45  1  1  0  0  0
 18 16  1  0  0  0  0
 18 19  1  0  0  0  0
 20  2  1  0  0  0  0
 20  6  1  0  0  0  0
 21  4  1  0  0  0  0
 23 22  1  0  0  0  0
 23 11  1  0  0  0  0
 25 24  1  6  0  0  0
 25 14  1  0  0  0  0
 25 26  1  0  0  0  0
 26 27  1  0  0  0  0
 28 33  1  0  0  0  0
 30 29  1  6  0  0  0
 30 36  1  0  0  0  0
 30 32  1  0  0  0  0
 31 35  1  0  0  0  0
 33 31  1  0  0  0  0
 33 29  1  0  0  0  0
 34 30  1  0  0  0  0
 34 36  1  0  0  0  0
 35 40  1  6  0  0  0
 35 32  1  0  0  0  0
 36 37  1  6  0  0  0
 37 38  1  0  0  0  0
 38 39  1  0  0  0  0
 40 44  1  0  0  0  0
 42 41  2  0  0  0  0
 43 42  1  0  0  0  0
 44 42  1  0  0  0  0
 45 46  1  0  0  0  0
 46 47  1  0  0  0  0
 47 49  2  0  0  0  0
 48 47  1  0  0  0  0
 50 48  1  6  0  0  0
 50 51  1  0  0  0  0
 51 53  1  6  0  0  0
 52 50  1  0  0  0  0
 52 51  1  0  0  0  0
 53 62  1  1  0  0  0
 54 53  1  6  0  0  0
 55 54  1  0  0  0  0
 56 54  1  0  0  0  0
 57 56  1  0  0  0  0
 59 58  1  1  0  0  0
 59 57  1  0  0  0  0
 59 55  1  0  0  0  0
 62 60  2  0  0  0  0
 62 61  1  0  0  0  0
M  END
>  <MODEL>
7

>  <REMARK>
 VINA RESULT:      -5.4      2.848      9.358
  Name = 
  15 active torsions:
  status: ('A' for Active; 'I' for Inactive)
    1  A    between atoms: C_1  and  C_30
    2  A    between atoms: C_4  and  C_53
    3  A    between atoms: C_5  and  N_10
    4  A    between atoms: C_8  and  C_41
    5  A    between atoms: C_17  and  C_30
    6  A    between atoms: O_22  and  C_45
    7  A    between atoms: O_22  and  C_60
    8  A    between atoms: N_24  and  C_41
    9  A    between atoms: C_26  and  C_39
   10  A    between atoms: C_26  and  O_44
   11  A    between atoms: C_30  and  C_34
   12  A    between atoms: C_37  and  C_51
   13  A    between atoms: C_49  and  C_61
   14  A    between atoms: C_51  and  N_52
   15  A    between atoms: C_53  and  C_61
                            x       y       z     vdW  Elec       q    Type
                         _______ _______ _______ _____ _____    ______ ____

>  <TORSDO>
F 15

$$$$
=
 OpenBabel11042410113D

 62 68  0  0  1  0  0  0  0  0999 V2000
  186.7460  177.3650  137.7690 O   0  0  0  0  0  0  0  0  0  0  0  0
  189.2690  177.2820  142.7690 C   0  0  1  0  0  3  0  0  0  0  0  0
  184.9230  178.5860  138.7690 C   0  0  2  0  0  3  0  0  0  0  0  0
  185.8430  178.6770  145.2990 C   0  0  0  0  0  0  0  0  0  0  0  0
  189.1650  178.0690  136.6230 O   0  0  0  0  0  0  0  0  0  0  0  0
  190.0550  176.3710  141.8970 C   0  0  1  0  0  3  0  0  0  0  0  0
  184.9630  177.9900  143.1610 C   0  0  0  0  0  0  0  0  0  0  0  0
  186.3000  178.6470  138.1140 C   0  0  0  0  0  2  0  0  0  0  0  0
  187.0860  177.2370  143.8900 C   0  0  0  0  0  0  0  0  0  0  0  0
  186.0970  177.2660  142.9600 N   0  0  0  0  0  0  0  0  0  0  0  0
  185.0090  177.9350  140.0020 O   0  0  0  0  0  0  0  0  0  0  0  0
  187.9320  177.2190  138.4110 N   0  0  0  0  0  2  0  0  0  0  0  0
  186.9550  177.9430  145.0430 N   0  0  0  0  0  0  0  0  0  0  0  0
  184.7990  178.7220  144.3510 C   0  0  0  0  0  0  0  0  0  0  0  0
  190.5670  177.1370  140.6970 C   0  0  0  0  0  2  0  0  0  0  0  0
  189.1690  177.5450  137.7700 C   0  0  0  0  0  0  0  0  0  0  0  0
  188.3300  176.4630  143.6350 C   0  0  0  0  0  2  0  0  0  0  0  0
  190.4680  177.3230  138.4920 C   0  0  1  0  0  3  0  0  0  0  0  0
  190.3090  176.4060  139.5390 O   0  0  0  0  0  0  0  0  0  0  0  0
  190.6020  176.9320  143.0690 O   0  0  0  0  0  0  0  0  0  0  0  0
  185.7640  179.4190  146.5920 C   0  0  0  0  0  1  0  0  0  0  0  0
  183.9000  177.9940  142.1080 C   0  0  0  0  0  2  0  0  0  0  0  0
  184.3580  178.7870  140.9030 C   0  0  0  0  0  2  0  0  0  0  0  0
  182.4490  178.6420  145.2030 C   0  0  0  0  0  1  0  0  0  0  0  0
  183.5270  179.5030  144.5770 C   0  0  2  0  0  3  0  0  0  0  0  0
  183.0680  180.0740  143.3870 O   0  0  0  0  0  0  0  0  0  0  0  0
  181.7320  179.6810  143.2970 C   0  0  0  0  0  1  0  0  0  0  0  0
  183.9210  177.8780  137.8600 C   0  0  0  0  0  2  0  0  0  0  0  0
  182.8010  179.8720  138.4310 C   0  0  0  0  0  2  0  0  0  0  0  0
  181.4440  180.5210  138.6620 C   0  0  2  0  0  0  0  0  0  0  0  0
  181.9330  177.7680  139.1060 C   0  0  0  0  0  2  0  0  0  0  0  0
  180.4420  179.7690  139.5340 C   0  0  0  0  0  2  0  0  0  0  0  0
  182.6070  178.4810  138.0180 N   0  0  0  0  0  0  0  0  0  0  0  0
  180.8590  180.9700  137.4710 O   0  0  0  0  0  0  0  0  0  0  0  0
  180.4820  178.2580  139.2500 C   0  0  1  0  0  3  0  0  0  0  0  0
  181.2190  181.9640  138.4070 C   0  0  2  0  0  3  0  0  0  0  0  0
  182.3820  182.6010  137.9700 O   0  0  0  0  0  0  0  0  0  0  0  0
  182.0240  183.9380  137.8040 C   0  0  0  0  0  2  0  0  0  0  0  0
  181.1300  184.0810  136.5920 C   0  0  0  0  0  1  0  0  0  0  0  0
  179.6530  177.9200  138.0180 C   0  0  0  0  0  2  0  0  0  0  0  0
  180.8260  176.3820  134.8940 O   0  0  0  0  0  0  0  0  0  0  0  0
  180.1230  177.0930  135.6610 C   0  0  0  0  0  0  0  0  0  0  0  0
  178.9520  177.8240  135.1060 C   0  0  0  0  0  1  0  0  0  0  0  0
  180.4500  177.1700  137.0510 N   0  0  0  0  0  2  0  0  0  0  0  0
  191.5890  176.8650  137.5580 C   0  0  0  0  0  2  0  0  0  0  0  0
  191.3640  175.4490  137.0410 C   0  0  0  0  0  2  0  0  0  0  0  0
  190.5370  175.4580  135.7960 C   0  0  0  0  0  0  0  0  0  0  0  0
  189.2700  174.7940  135.7700 N   0  0  0  0  0  2  0  0  0  0  0  0
  190.9900  176.0080  134.7610 O   0  0  0  0  0  0  0  0  0  0  0  0
  188.4060  174.7620  134.5970 C   0  0  1  0  0  3  0  0  0  0  0  0
  187.0530  174.1830  134.8820 C   0  0  2  0  0  3  0  0  0  0  0  0
  187.2750  175.5730  134.8120 O   0  0  0  0  0  0  0  0  0  0  0  0
  186.7930  173.7780  136.3420 C   0  0  1  0  0  3  0  0  0  0  0  0
  185.3700  174.1600  136.7770 C   0  0  2  0  0  3  0  0  0  0  0  0
  184.4020  172.6840  137.2420 S   0  0  0  0  0  0  0  0  0  0  0  0
  184.6770  174.8550  135.7020 N   0  0  0  0  0  2  0  0  0  0  0  0
  183.2600  174.7640  136.0070 C   0  0  0  0  0  2  0  0  0  0  0  0
  181.7410  173.2760  137.2710 C   0  0  0  0  0  1  0  0  0  0  0  0
  182.9570  173.3330  136.3730 C   0  0  2  0  0  3  0  0  0  0  0  0
  186.5350  171.4800  135.7020 O   0  0  0  0  0  0  0  0  0  0  0  0
  187.8160  171.8540  137.5620 O   0  0  0  0  0  1  0  0  0  0  0  0
  187.0330  172.3080  136.5070 C   0  0  0  0  0  0  0  0  0  0  0  0
  1  8  1  0  0  0  0
  1 12  1  0  0  0  0
  2 20  1  0  0  0  0
  2 17  1  1  0  0  0
  3 28  1  6  0  0  0
  3 11  1  0  0  0  0
  4 21  1  0  0  0  0
  5 16  2  0  0  0  0
  6 15  1  6  0  0  0
  6  2  1  0  0  0  0
  6 20  1  0  0  0  0
  7 14  2  0  0  0  0
  8  3  1  0  0  0  0
  9 13  1  0  0  0  0
 10  7  1  0  0  0  0
 10  9  2  0  0  0  0
 11 23  1  0  0  0  0
 13  4  2  0  0  0  0
 14 25  1  0  0  0  0
 14  4  1  0  0  0  0
 16 12  1  0  0  0  0
 16 18  1  0  0  0  0
 17  9  1  0  0  0  0
 18 45  1  6  0  0  0
 18 19  1  0  0  0  0
 19 15  1  0  0  0  0
 22  7  1  0  0  0  0
 23 22  1  0  0  0  0
 25 24  1  6  0  0  0
 26 25  1  0  0  0  0
 27 26  1  0  0  0  0
 28 33  1  0  0  0  0
 30 29  1  6  0  0  0
 30 32  1  0  0  0  0
 31 35  1  0  0  0  0
 33 29  1  0  0  0  0
 33 31  1  0  0  0  0
 34 36  1  0  0  0  0
 34 30  1  0  0  0  0
 35 40  1  6  0  0  0
 35 32  1  0  0  0  0
 36 37  1  6  0  0  0
 36 30  1  0  0  0  0
 38 37  1  0  0  0  0
 39 38  1  0  0  0  0
 41 42  2  0  0  0  0
 42 44  1  0  0  0  0
 43 42  1  0  0  0  0
 44 40  1  0  0  0  0
 46 45  1  0  0  0  0
 47 46  1  0  0  0  0
 48 47  1  0  0  0  0
 49 47  2  0  0  0  0
 50 52  1  0  0  0  0
 50 51  1  0  0  0  0
 50 48  1  1  0  0  0
 51 53  1  1  0  0  0
 52 51  1  0  0  0  0
 53 62  1  6  0  0  0
 54 53  1  6  0  0  0
 54 55  1  0  0  0  0
 56 57  1  0  0  0  0
 56 54  1  0  0  0  0
 57 59  1  0  0  0  0
 59 55  1  0  0  0  0
 59 58  1  1  0  0  0
 60 62  2  0  0  0  0
 62 61  1  0  0  0  0
M  END
>  <MODEL>
8

>  <REMARK>
 VINA RESULT:      -5.4      2.377      7.670
  Name = 
  15 active torsions:
  status: ('A' for Active; 'I' for Inactive)
    1  A    between atoms: C_1  and  C_30
    2  A    between atoms: C_4  and  C_53
    3  A    between atoms: C_5  and  N_10
    4  A    between atoms: C_8  and  C_41
    5  A    between atoms: C_17  and  C_30
    6  A    between atoms: O_22  and  C_45
    7  A    between atoms: O_22  and  C_60
    8  A    between atoms: N_24  and  C_41
    9  A    between atoms: C_26  and  C_39
   10  A    between atoms: C_26  and  O_44
   11  A    between atoms: C_30  and  C_34
   12  A    between atoms: C_37  and  C_51
   13  A    between atoms: C_49  and  C_61
   14  A    between atoms: C_51  and  N_52
   15  A    between atoms: C_53  and  C_61
                            x       y       z     vdW  Elec       q    Type
                         _______ _______ _______ _____ _____    ______ ____

>  <TORSDO>
F 15

$$$$
=
 OpenBabel11042410113D

 62 68  0  0  1  0  0  0  0  0999 V2000
  186.7240  177.4340  138.0580 O   0  0  0  0  0  0  0  0  0  0  0  0
  189.4690  177.2460  142.9360 C   0  0  1  0  0  3  0  0  0  0  0  0
  184.9540  178.6430  139.1610 C   0  0  2  0  0  3  0  0  0  0  0  0
  186.1680  178.6060  145.6440 C   0  0  0  0  0  0  0  0  0  0  0  0
  189.0930  178.1490  136.8180 O   0  0  0  0  0  0  0  0  0  0  0  0
  190.2110  176.3480  142.0130 C   0  0  1  0  0  3  0  0  0  0  0  0
  185.1890  177.9630  143.5350 C   0  0  0  0  0  0  0  0  0  0  0  0
  186.3010  178.7110  138.4460 C   0  0  0  0  0  2  0  0  0  0  0  0
  187.3390  177.1880  144.1540 C   0  0  0  0  0  0  0  0  0  0  0  0
  186.3090  177.2390  143.2700 N   0  0  0  0  0  0  0  0  0  0  0  0
  185.0930  177.9690  140.3770 O   0  0  0  0  0  0  0  0  0  0  0  0
  187.9370  177.2700  138.6430 N   0  0  0  0  0  2  0  0  0  0  0  0
  187.2630  177.8720  145.3250 N   0  0  0  0  0  0  0  0  0  0  0  0
  185.0820  178.6740  144.7450 C   0  0  0  0  0  0  0  0  0  0  0  0
  190.6730  177.1340  140.8070 C   0  0  0  0  0  2  0  0  0  0  0  0
  189.1460  177.6030  137.9530 C   0  0  0  0  0  0  0  0  0  0  0  0
  188.5670  176.4140  143.8280 C   0  0  0  0  0  2  0  0  0  0  0  0
  190.4750  177.3620  138.6120 C   0  0  1  0  0  3  0  0  0  0  0  0
  190.3590  176.4260  139.6470 O   0  0  0  0  0  0  0  0  0  0  0  0
  190.8130  176.8840  143.1700 O   0  0  0  0  0  0  0  0  0  0  0  0
  186.1500  179.3240  146.9530 C   0  0  0  0  0  1  0  0  0  0  0  0
  184.0800  177.9920  142.5320 C   0  0  0  0  0  2  0  0  0  0  0  0
  184.4860  178.8060  141.3220 C   0  0  0  0  0  2  0  0  0  0  0  0
  182.5810  178.6340  144.7700 C   0  0  0  0  0  1  0  0  0  0  0  0
  183.8250  179.4560  145.0420 C   0  0  2  0  0  3  0  0  0  0  0  0
  183.7910  180.6500  144.3190 O   0  0  0  0  0  0  0  0  0  0  0  0
  185.1150  180.8700  143.9340 C   0  0  0  0  0  1  0  0  0  0  0  0
  183.9090  177.9560  138.2850 C   0  0  0  0  0  2  0  0  0  0  0  0
  181.9300  178.5320  139.4290 C   0  0  0  0  0  2  0  0  0  0  0  0
  180.6390  179.3350  139.3660 C   0  0  2  0  0  0  0  0  0  0  0  0
  181.9350  178.3170  137.0650 C   0  0  0  0  0  2  0  0  0  0  0  0
  179.8120  179.2430  138.0860 C   0  0  0  0  0  2  0  0  0  0  0  0
  182.7120  178.7790  138.2170 N   0  0  0  0  0  0  0  0  0  0  0  0
  180.8190  180.6640  139.7710 O   0  0  0  0  0  0  0  0  0  0  0  0
  180.7150  179.2260  136.8410 C   0  0  1  0  0  3  0  0  0  0  0  0
  179.9930  179.8660  140.5900 C   0  0  2  0  0  3  0  0  0  0  0  0
  180.6980  179.5150  141.7430 O   0  0  0  0  0  0  0  0  0  0  0  0
  179.8520  179.8420  142.8010 C   0  0  0  0  0  2  0  0  0  0  0  0
  179.3020  178.5780  143.4250 C   0  0  0  0  0  1  0  0  0  0  0  0
  181.1340  180.6400  136.4600 C   0  0  0  0  0  2  0  0  0  0  0  0
  179.2880  183.7440  137.1330 O   0  0  0  0  0  0  0  0  0  0  0  0
  180.0320  182.9290  136.5250 C   0  0  0  0  0  0  0  0  0  0  0  0
  180.6940  183.3510  135.2610 C   0  0  0  0  0  1  0  0  0  0  0  0
  180.2400  181.6220  137.0670 N   0  0  0  0  0  2  0  0  0  0  0  0
  191.5500  176.9180  137.6190 C   0  0  0  0  0  2  0  0  0  0  0  0
  191.5710  175.4050  137.4330 C   0  0  0  0  0  2  0  0  0  0  0  0
  190.9370  175.0160  136.1380 C   0  0  0  0  0  0  0  0  0  0  0  0
  189.5980  174.5120  136.1160 N   0  0  0  0  0  2  0  0  0  0  0  0
  191.6090  175.0870  135.0780 O   0  0  0  0  0  0  0  0  0  0  0  0
  188.9110  174.1160  134.8930 C   0  0  1  0  0  3  0  0  0  0  0  0
  187.4620  173.7990  135.1120 C   0  0  2  0  0  3  0  0  0  0  0  0
  187.8900  175.0390  134.5950 O   0  0  0  0  0  0  0  0  0  0  0  0
  186.9450  173.9920  136.5460 C   0  0  1  0  0  3  0  0  0  0  0  0
  185.5700  174.6770  136.5510 C   0  0  2  0  0  3  0  0  0  0  0  0
  184.3590  173.7380  135.5590 S   0  0  0  0  0  0  0  0  0  0  0  0
  185.6700  176.0260  136.0140 N   0  0  0  0  0  2  0  0  0  0  0  0
  184.3240  176.4120  135.6310 C   0  0  0  0  0  2  0  0  0  0  0  0
  182.2130  175.3080  134.9620 C   0  0  0  0  0  1  0  0  0  0  0  0
  183.7210  175.2720  134.8490 C   0  0  2  0  0  3  0  0  0  0  0  0
  186.0470  172.4510  138.1510 O   0  0  0  0  0  1  0  0  0  0  0  0
  187.7840  171.6640  136.8830 O   0  0  0  0  0  0  0  0  0  0  0  0
  186.8910  172.6670  137.2440 C   0  0  0  0  0  0  0  0  0  0  0  0
  1  8  1  0  0  0  0
  1 12  1  0  0  0  0
  2 20  1  0  0  0  0
  2 17  1  1  0  0  0
  3 28  1  6  0  0  0
  3 11  1  0  0  0  0
  4 21  1  0  0  0  0
  5 16  2  0  0  0  0
  6 15  1  6  0  0  0
  6  2  1  0  0  0  0
  6 20  1  0  0  0  0
  7 14  2  0  0  0  0
  8  3  1  0  0  0  0
  9 13  1  0  0  0  0
 10  7  1  0  0  0  0
 10  9  2  0  0  0  0
 11 23  1  0  0  0  0
 13  4  2  0  0  0  0
 14 25  1  0  0  0  0
 14  4  1  0  0  0  0
 16 18  1  0  0  0  0
 16 12  1  0  0  0  0
 17  9  1  0  0  0  0
 18 45  1  6  0  0  0
 18 19  1  0  0  0  0
 19 15  1  0  0  0  0
 22  7  1  0  0  0  0
 23 22  1  0  0  0  0
 25 24  1  6  0  0  0
 26 25  1  0  0  0  0
 27 26  1  0  0  0  0
 30 32  1  6  0  0  0
 30 29  1  0  0  0  0
 30 34  1  0  0  0  0
 30 36  1  0  0  0  0
 31 33  1  0  0  0  0
 33 28  1  0  0  0  0
 33 29  1  0  0  0  0
 34 36  1  0  0  0  0
 35 40  1  1  0  0  0
 35 31  1  0  0  0  0
 35 32  1  0  0  0  0
 36 37  1  1  0  0  0
 37 38  1  0  0  0  0
 38 39  1  0  0  0  0
 40 44  1  0  0  0  0
 42 44  1  0  0  0  0
 42 41  2  0  0  0  0
 43 42  1  0  0  0  0
 46 45  1  0  0  0  0
 47 46  1  0  0  0  0
 48 47  1  0  0  0  0
 49 47  2  0  0  0  0
 50 51  1  0  0  0  0
 50 48  1  1  0  0  0
 51 53  1  1  0  0  0
 52 50  1  0  0  0  0
 52 51  1  0  0  0  0
 53 62  1  6  0  0  0
 54 53  1  6  0  0  0
 55 54  1  0  0  0  0
 56 54  1  0  0  0  0
 57 56  1  0  0  0  0
 59 58  1  1  0  0  0
 59 55  1  0  0  0  0
 59 57  1  0  0  0  0
 61 62  2  0  0  0  0
 62 60  1  0  0  0  0
M  END
>  <MODEL>
9

>  <REMARK>
 VINA RESULT:      -5.2      2.544      7.442
  Name = 
  15 active torsions:
  status: ('A' for Active; 'I' for Inactive)
    1  A    between atoms: C_1  and  C_30
    2  A    between atoms: C_4  and  C_53
    3  A    between atoms: C_5  and  N_10
    4  A    between atoms: C_8  and  C_41
    5  A    between atoms: C_17  and  C_30
    6  A    between atoms: O_22  and  C_45
    7  A    between atoms: O_22  and  C_60
    8  A    between atoms: N_24  and  C_41
    9  A    between atoms: C_26  and  C_39
   10  A    between atoms: C_26  and  O_44
   11  A    between atoms: C_30  and  C_34
   12  A    between atoms: C_37  and  C_51
   13  A    between atoms: C_49  and  C_61
   14  A    between atoms: C_51  and  N_52
   15  A    between atoms: C_53  and  C_61
                            x       y       z     vdW  Elec       q    Type
                         _______ _______ _______ _____ _____    ______ ____

>  <TORSDO>
F 15

$$$$
