=
 OpenBabel11042410403D

 44 46  0  0  1  0  0  0  0  0999 V2000
  186.8520  178.4810  142.8230 C   0  0  0  0  0  2  0  0  0  0  0  0
  187.2000  177.0660  143.2500 C   0  0  0  0  0  2  0  0  0  0  0  0
  189.6340  177.5050  141.1870 C   0  0  1  0  0  3  0  0  0  0  0  0
  189.8870  176.1730  141.8480 C   0  0  0  0  0  3  0  0  0  0  0  0
  189.7190  178.6890  142.1670 C   0  0  0  0  0  2  0  0  0  0  0  0
  189.3050  178.3620  143.6150 C   0  0  2  0  0  3  0  0  0  0  0  0
  190.4280  178.4240  144.4290 O   0  0  0  0  0  1  0  0  0  0  0  0
  188.6180  176.9980  143.7830 C   0  0  2  0  0  3  0  0  0  0  0  0
  189.4040  175.9290  143.0700 C   0  0  0  0  0  3  0  0  0  0  0  0
  190.5060  177.7310  139.9430 C   0  0  2  0  0  3  0  0  0  0  0  0
  188.5150  177.4790  138.3880 C   0  0  0  0  0  0  0  0  0  0  0  0
  187.8360  178.2990  139.0580 O   0  0  0  0  0  0  0  0  0  0  0  0
  189.8560  177.1630  138.7660 N   0  0  0  0  0  2  0  0  0  0  0  0
  187.9440  176.8660  137.2370 N   0  0  0  0  0  0  0  0  0  0  0  0
  187.3820  175.5340  137.3510 C   0  0  0  0  0  2  0  0  0  0  0  0
  188.4090  174.5070  136.9360 C   0  0  0  0  0  1  0  0  0  0  0  0
  187.7590  177.6080  135.9830 C   0  0  0  0  0  3  0  0  0  0  0  0
  185.9360  177.5040  134.6000 C   0  0  0  0  0  1  0  0  0  0  0  0
  186.4190  178.0450  135.8020 O   0  0  0  0  0  0  0  0  0  0  0  0
  188.2550  176.8970  134.8770 O   0  0  0  0  0  0  0  0  0  0  0  0
  189.5730  177.3340  134.7230 C   0  0  0  0  0  1  0  0  0  0  0  0
  191.9190  177.1690  140.1040 C   0  0  0  0  0  2  0  0  0  0  0  0
  192.4380  176.6690  138.7710 C   0  0  0  0  0  1  0  0  0  0  0  0
  185.3470  178.7150  142.9730 C   0  0  1  0  0  3  0  0  0  0  0  0
  184.4290  178.5860  140.5870 C   0  0  0  0  0  0  0  0  0  0  0  0
  184.8870  179.7220  140.3000 O   0  0  0  0  0  0  0  0  0  0  0  0
  184.6150  178.0460  141.9020 N   0  0  0  0  0  2  0  0  0  0  0  0
  182.8320  176.7890  139.9570 C   0  0  0  0  0  3  0  0  0  0  0  0
  182.3050  176.3160  137.6450 C   0  0  0  0  0  0  0  0  0  0  0  0
  182.1370  176.0460  139.0050 C   0  0  0  0  0  3  0  0  0  0  0  0
  183.8740  178.0860  138.2070 C   0  0  0  0  0  3  0  0  0  0  0  0
  183.1770  177.3440  137.2450 C   0  0  0  0  0  3  0  0  0  0  0  0
  183.7020  177.8150  139.5760 C   0  0  0  0  0  0  0  0  0  0  0  0
  181.1830  174.2200  136.9630 C   0  0  0  0  0  1  0  0  0  0  0  0
  181.6000  175.5480  136.7070 O   0  0  0  0  0  0  0  0  0  0  0  0
  184.7270  178.3720  144.3430 C   0  0  1  0  0  3  0  0  0  0  0  0
  184.7770  178.7230  146.7380 O   0  0  0  0  0  0  0  0  0  0  0  0
  185.4250  179.0430  145.5300 C   0  0  1  0  0  3  0  0  0  0  0  0
  185.9420  177.9990  146.4400 C   0  0  1  0  0  3  0  0  0  0  0  0
  187.0990  178.5430  147.2570 C   0  0  0  0  0  2  0  0  0  0  0  0
  187.8190  177.4030  147.9370 C   0  0  0  0  0  2  0  0  0  0  0  0
  189.2880  177.4530  147.5730 C   0  0  0  0  0  1  0  0  0  0  0  0
  183.2750  178.7470  144.3200 C   0  0  0  0  0  3  0  0  0  0  0  0
  182.9360  179.8660  143.9650 O   0  0  0  0  0  0  0  0  0  0  0  0
  1  2  1  0  0  0  0
  3 10  1  6  0  0  0
  3  4  1  0  0  0  0
  3  5  1  0  0  0  0
  4  9  2  0  0  0  0
  5  6  1  0  0  0  0
  6  8  1  0  0  0  0
  6  7  1  1  0  0  0
  8  2  1  6  0  0  0
  9  8  1  0  0  0  0
 10 22  1  1  0  0  0
 11 13  1  0  0  0  0
 11 12  2  0  0  0  0
 13 10  1  0  0  0  0
 14 15  1  0  0  0  0
 14 11  1  0  0  0  0
 16 15  1  0  0  0  0
 17 14  1  0  0  0  0
 18 19  1  0  0  0  0
 19 17  1  0  0  0  0
 20 17  1  0  0  0  0
 21 20  1  0  0  0  0
 23 22  1  0  0  0  0
 24  1  1  1  0  0  0
 24 36  1  0  0  0  0
 25 27  1  0  0  0  0
 26 25  2  0  0  0  0
 27 24  1  0  0  0  0
 29 30  1  0  0  0  0
 30 28  2  0  0  0  0
 31 33  2  0  0  0  0
 32 29  2  0  0  0  0
 32 31  1  0  0  0  0
 33 28  1  0  0  0  0
 33 25  1  0  0  0  0
 35 34  1  0  0  0  0
 35 29  1  0  0  0  0
 36 43  1  6  0  0  0
 38 36  1  6  0  0  0
 38 39  1  0  0  0  0
 38 37  1  0  0  0  0
 39 37  1  0  0  0  0
 39 40  1  1  0  0  0
 40 41  1  0  0  0  0
 42 41  1  0  0  0  0
 44 43  2  0  0  0  0
M  END
>  <MODEL>
1

>  <REMARK>
 VINA RESULT:      -6.8      0.000      0.000
  Name = 
  18 active torsions:
  status: ('A' for Active; 'I' for Inactive)
    1  A    between atoms: C_1  and  C_28
    2  A    between atoms: C_6  and  C_26
    3  A    between atoms: C_6  and  C_37
    4  A    between atoms: C_8  and  C_27
    5  A    between atoms: C_8  and  C_31
    6  A    between atoms: C_9  and  C_43
    7  A    between atoms: C_11  and  O_20
    8  A    between atoms: C_11  and  N_35
    9  A    between atoms: C_11  and  O_41
   10  A    between atoms: C_14  and  C_29
   11  A    between atoms: C_16  and  N_35
   12  A    between atoms: O_17  and  C_25
   13  A    between atoms: N_18  and  C_31
   14  A    between atoms: C_21  and  C_29
   15  A    between atoms: N_22  and  C_28
   16  A    between atoms: C_27  and  C_34
   17  A    between atoms: C_28  and  C_30
   18  A    between atoms: C_29  and  C_31
                            x       y       z     vdW  Elec       q    Type
                         _______ _______ _______ _____ _____    ______ ____

>  <TORSDO>
F 18

$$$$
=
 OpenBabel11042410403D

 44 46  0  0  1  0  0  0  0  0999 V2000
  184.9870  178.5570  143.5620 C   0  0  0  0  0  2  0  0  0  0  0  0
  184.4000  177.9370  142.3070 C   0  0  0  0  0  2  0  0  0  0  0  0
  183.3930  177.1350  139.3540 C   0  0  1  0  0  3  0  0  0  0  0  0
  184.2350  178.3750  139.1810 C   0  0  0  0  0  3  0  0  0  0  0  0
  182.1080  177.3890  140.1630 C   0  0  0  0  0  2  0  0  0  0  0  0
  182.2190  178.5000  141.2240 C   0  0  2  0  0  3  0  0  0  0  0  0
  181.4340  179.5760  140.8330 O   0  0  0  0  0  1  0  0  0  0  0  0
  183.6550  178.9770  141.4920 C   0  0  2  0  0  3  0  0  0  0  0  0
  184.3650  179.2420  140.1910 C   0  0  0  0  0  3  0  0  0  0  0  0
  183.1000  176.4210  138.0260 C   0  0  2  0  0  3  0  0  0  0  0  0
  181.3560  174.6910  137.3830 C   0  0  0  0  0  0  0  0  0  0  0  0
  181.0930  175.2950  136.3110 O   0  0  0  0  0  0  0  0  0  0  0  0
  182.3540  175.1900  138.2740 N   0  0  0  0  0  2  0  0  0  0  0  0
  180.6560  173.4940  137.7070 N   0  0  0  0  0  0  0  0  0  0  0  0
  179.5260  173.5590  138.6120 C   0  0  0  0  0  2  0  0  0  0  0  0
  179.8660  174.4350  139.7950 C   0  0  0  0  0  1  0  0  0  0  0  0
  180.9440  172.2270  137.0220 C   0  0  0  0  0  3  0  0  0  0  0  0
  183.1040  171.4660  137.0000 C   0  0  0  0  0  1  0  0  0  0  0  0
  182.1740  172.2600  136.3120 O   0  0  0  0  0  0  0  0  0  0  0  0
  179.8660  171.8070  136.2260 O   0  0  0  0  0  0  0  0  0  0  0  0
  180.2130  172.1660  134.9210 C   0  0  0  0  0  1  0  0  0  0  0  0
  184.3660  176.1320  137.2210 C   0  0  0  0  0  2  0  0  0  0  0  0
  184.2720  176.7730  135.8510 C   0  0  0  0  0  1  0  0  0  0  0  0
  186.0550  177.6310  144.1490 C   0  0  1  0  0  3  0  0  0  0  0  0
  188.1500  176.6810  143.0260 C   0  0  0  0  0  0  0  0  0  0  0  0
  187.8320  175.5020  143.3260 O   0  0  0  0  0  0  0  0  0  0  0  0
  187.3140  177.7760  143.4240 N   0  0  0  0  0  2  0  0  0  0  0  0
  189.3370  177.1120  140.8860 C   0  0  0  0  0  3  0  0  0  0  0  0
  191.7350  177.4180  140.8070 C   0  0  0  0  0  0  0  0  0  0  0  0
  190.5010  177.3520  140.1570 C   0  0  0  0  0  3  0  0  0  0  0  0
  190.6230  177.0010  142.9280 C   0  0  0  0  0  3  0  0  0  0  0  0
  191.7940  177.2440  142.2010 C   0  0  0  0  0  3  0  0  0  0  0  0
  189.3800  176.9370  142.2730 C   0  0  0  0  0  0  0  0  0  0  0  0
  193.2760  176.8300  138.9640 C   0  0  0  0  0  1  0  0  0  0  0  0
  192.8910  177.6530  140.0480 O   0  0  0  0  0  0  0  0  0  0  0  0
  186.2980  177.7310  145.6690 C   0  0  1  0  0  3  0  0  0  0  0  0
  187.9120  178.1380  147.4270 O   0  0  0  0  0  0  0  0  0  0  0  0
  187.6770  178.2820  146.0470 C   0  0  1  0  0  3  0  0  0  0  0  0
  188.5040  177.1830  146.5870 C   0  0  1  0  0  3  0  0  0  0  0  0
  189.9770  177.5030  146.4150 C   0  0  0  0  0  2  0  0  0  0  0  0
  190.8050  176.5270  147.2170 C   0  0  0  0  0  2  0  0  0  0  0  0
  191.9670  176.0480  146.3730 C   0  0  0  0  0  1  0  0  0  0  0  0
  185.2210  178.5830  146.2720 C   0  0  0  0  0  3  0  0  0  0  0  0
  185.5140  179.5790  146.9160 O   0  0  0  0  0  0  0  0  0  0  0  0
  2  1  1  0  0  0  0
  3 10  1  6  0  0  0
  3  5  1  0  0  0  0
  4  3  1  0  0  0  0
  4  9  2  0  0  0  0
  5  6  1  0  0  0  0
  6  7  1  6  0  0  0
  6  8  1  0  0  0  0
  8  2  1  6  0  0  0
  9  8  1  0  0  0  0
 10 22  1  1  0  0  0
 10 13  1  0  0  0  0
 11 14  1  0  0  0  0
 11 13  1  0  0  0  0
 12 11  2  0  0  0  0
 14 15  1  0  0  0  0
 15 16  1  0  0  0  0
 17 14  1  0  0  0  0
 19 18  1  0  0  0  0
 19 17  1  0  0  0  0
 20 17  1  0  0  0  0
 21 20  1  0  0  0  0
 23 22  1  0  0  0  0
 24  1  1  6  0  0  0
 24 36  1  0  0  0  0
 25 26  2  0  0  0  0
 25 27  1  0  0  0  0
 27 24  1  0  0  0  0
 28 33  1  0  0  0  0
 29 32  2  0  0  0  0
 30 29  1  0  0  0  0
 30 28  2  0  0  0  0
 32 31  1  0  0  0  0
 33 31  2  0  0  0  0
 33 25  1  0  0  0  0
 34 35  1  0  0  0  0
 35 29  1  0  0  0  0
 36 43  1  6  0  0  0
 38 36  1  1  0  0  0
 38 39  1  0  0  0  0
 38 37  1  0  0  0  0
 39 40  1  6  0  0  0
 39 37  1  0  0  0  0
 40 41  1  0  0  0  0
 42 41  1  0  0  0  0
 43 44  2  0  0  0  0
M  END
>  <MODEL>
2

>  <REMARK>
 VINA RESULT:      -6.7      2.803      7.167
  Name = 
  18 active torsions:
  status: ('A' for Active; 'I' for Inactive)
    1  A    between atoms: C_1  and  C_28
    2  A    between atoms: C_6  and  C_26
    3  A    between atoms: C_6  and  C_37
    4  A    between atoms: C_8  and  C_27
    5  A    between atoms: C_8  and  C_31
    6  A    between atoms: C_9  and  C_43
    7  A    between atoms: C_11  and  O_20
    8  A    between atoms: C_11  and  N_35
    9  A    between atoms: C_11  and  O_41
   10  A    between atoms: C_14  and  C_29
   11  A    between atoms: C_16  and  N_35
   12  A    between atoms: O_17  and  C_25
   13  A    between atoms: N_18  and  C_31
   14  A    between atoms: C_21  and  C_29
   15  A    between atoms: N_22  and  C_28
   16  A    between atoms: C_27  and  C_34
   17  A    between atoms: C_28  and  C_30
   18  A    between atoms: C_29  and  C_31
                            x       y       z     vdW  Elec       q    Type
                         _______ _______ _______ _____ _____    ______ ____

>  <TORSDO>
F 18

$$$$
=
 OpenBabel11042410403D

 44 46  0  0  1  0  0  0  0  0999 V2000
  187.4780  178.6650  141.0280 C   0  0  0  0  0  2  0  0  0  0  0  0
  188.3530  177.6340  140.3390 C   0  0  0  0  0  2  0  0  0  0  0  0
  188.7490  176.0560  137.5580 C   0  0  1  0  0  3  0  0  0  0  0  0
  190.1380  176.3460  138.0710 C   0  0  0  0  0  3  0  0  0  0  0  0
  187.9660  177.3300  137.1910 C   0  0  0  0  0  2  0  0  0  0  0  0
  188.3260  178.5750  138.0240 C   0  0  2  0  0  3  0  0  0  0  0  0
  188.9700  179.4930  137.2050 O   0  0  0  0  0  1  0  0  0  0  0  0
  189.1950  178.2810  139.2560 C   0  0  2  0  0  3  0  0  0  0  0  0
  190.3500  177.3910  138.8770 C   0  0  0  0  0  3  0  0  0  0  0  0
  188.7340  175.0290  136.4170 C   0  0  2  0  0  3  0  0  0  0  0  0
  186.3720  174.1150  136.6020 C   0  0  0  0  0  0  0  0  0  0  0  0
  186.6220  173.5810  137.7130 O   0  0  0  0  0  0  0  0  0  0  0  0
  187.3740  174.8630  135.9110 N   0  0  0  0  0  2  0  0  0  0  0  0
  185.0740  173.9810  136.0320 N   0  0  0  0  0  0  0  0  0  0  0  0
  184.8480  172.9650  135.0230 C   0  0  0  0  0  2  0  0  0  0  0  0
  184.9840  171.5920  135.6380 C   0  0  0  0  0  1  0  0  0  0  0  0
  183.9240  174.7290  136.5550 C   0  0  0  0  0  3  0  0  0  0  0  0
  184.0190  176.9750  136.1180 C   0  0  0  0  0  1  0  0  0  0  0  0
  184.2930  175.9950  137.0840 O   0  0  0  0  0  0  0  0  0  0  0  0
  183.1680  173.9610  137.4570 O   0  0  0  0  0  0  0  0  0  0  0  0
  181.8520  174.0470  136.9960 C   0  0  0  0  0  1  0  0  0  0  0  0
  189.3240  173.6810  136.8310 C   0  0  0  0  0  2  0  0  0  0  0  0
  189.7810  172.9130  135.6070 C   0  0  0  0  0  1  0  0  0  0  0  0
  186.7990  178.0390  142.2500 C   0  0  1  0  0  3  0  0  0  0  0  0
  188.4130  176.7800  143.7870 C   0  0  0  0  0  0  0  0  0  0  0  0
  188.2080  175.6930  143.1890 O   0  0  0  0  0  0  0  0  0  0  0  0
  187.7280  177.9700  143.3730 N   0  0  0  0  0  2  0  0  0  0  0  0
  190.7170  176.6230  144.7040 C   0  0  0  0  0  3  0  0  0  0  0  0
  191.1640  176.9090  147.0640 C   0  0  0  0  0  0  0  0  0  0  0  0
  191.6190  176.6640  145.7660 C   0  0  0  0  0  3  0  0  0  0  0  0
  188.8910  177.0750  146.2180 C   0  0  0  0  0  3  0  0  0  0  0  0
  189.7920  177.1180  147.2890 C   0  0  0  0  0  3  0  0  0  0  0  0
  189.3500  176.8290  144.9120 C   0  0  0  0  0  0  0  0  0  0  0  0
  192.8980  175.8250  148.4550 C   0  0  0  0  0  1  0  0  0  0  0  0
  192.0910  176.9370  148.1150 O   0  0  0  0  0  0  0  0  0  0  0  0
  185.4630  178.6660  142.6960 C   0  0  1  0  0  3  0  0  0  0  0  0
  183.1290  178.8380  142.0740 O   0  0  0  0  0  0  0  0  0  0  0  0
  184.2240  177.9550  142.1440 C   0  0  1  0  0  3  0  0  0  0  0  0
  183.8210  178.6000  140.8760 C   0  0  1  0  0  3  0  0  0  0  0  0
  183.0320  177.6260  140.0210 C   0  0  0  0  0  2  0  0  0  0  0  0
  181.6950  178.2320  139.6670 C   0  0  0  0  0  2  0  0  0  0  0  0
  181.0890  177.4610  138.5120 C   0  0  0  0  0  1  0  0  0  0  0  0
  185.4190  178.6870  144.1950 C   0  0  0  0  0  3  0  0  0  0  0  0
  184.7060  179.4900  144.7770 O   0  0  0  0  0  0  0  0  0  0  0  0
  2  1  1  0  0  0  0
  3 10  1  6  0  0  0
  3  4  1  0  0  0  0
  4  9  2  0  0  0  0
  5  3  1  0  0  0  0
  5  6  1  0  0  0  0
  6  7  1  6  0  0  0
  6  8  1  0  0  0  0
  8  2  1  1  0  0  0
  9  8  1  0  0  0  0
 10 22  1  1  0  0  0
 11 12  2  0  0  0  0
 13 10  1  0  0  0  0
 13 11  1  0  0  0  0
 14 17  1  0  0  0  0
 14 11  1  0  0  0  0
 15 16  1  0  0  0  0
 15 14  1  0  0  0  0
 17 19  1  0  0  0  0
 17 20  1  0  0  0  0
 18 19  1  0  0  0  0
 21 20  1  0  0  0  0
 23 22  1  0  0  0  0
 24  1  1  6  0  0  0
 24 36  1  0  0  0  0
 24 27  1  0  0  0  0
 25 33  1  0  0  0  0
 26 25  2  0  0  0  0
 27 25  1  0  0  0  0
 28 33  2  0  0  0  0
 28 30  1  0  0  0  0
 29 32  1  0  0  0  0
 29 35  1  0  0  0  0
 30 29  2  0  0  0  0
 31 32  2  0  0  0  0
 33 31  1  0  0  0  0
 35 34  1  0  0  0  0
 36 43  1  1  0  0  0
 37 38  1  0  0  0  0
 38 36  1  1  0  0  0
 39 40  1  6  0  0  0
 39 37  1  0  0  0  0
 39 38  1  0  0  0  0
 41 40  1  0  0  0  0
 42 41  1  0  0  0  0
 43 44  2  0  0  0  0
M  END
>  <MODEL>
3

>  <REMARK>
 VINA RESULT:      -6.7      2.377      7.164
  Name = 
  18 active torsions:
  status: ('A' for Active; 'I' for Inactive)
    1  A    between atoms: C_1  and  C_28
    2  A    between atoms: C_6  and  C_26
    3  A    between atoms: C_6  and  C_37
    4  A    between atoms: C_8  and  C_27
    5  A    between atoms: C_8  and  C_31
    6  A    between atoms: C_9  and  C_43
    7  A    between atoms: C_11  and  O_20
    8  A    between atoms: C_11  and  N_35
    9  A    between atoms: C_11  and  O_41
   10  A    between atoms: C_14  and  C_29
   11  A    between atoms: C_16  and  N_35
   12  A    between atoms: O_17  and  C_25
   13  A    between atoms: N_18  and  C_31
   14  A    between atoms: C_21  and  C_29
   15  A    between atoms: N_22  and  C_28
   16  A    between atoms: C_27  and  C_34
   17  A    between atoms: C_28  and  C_30
   18  A    between atoms: C_29  and  C_31
                            x       y       z     vdW  Elec       q    Type
                         _______ _______ _______ _____ _____    ______ ____

>  <TORSDO>
F 18

$$$$
=
 OpenBabel11042410403D

 44 46  0  0  1  0  0  0  0  0999 V2000
  187.8620  178.7460  140.7140 C   0  0  0  0  0  2  0  0  0  0  0  0
  188.6550  177.8400  139.7900 C   0  0  0  0  0  2  0  0  0  0  0  0
  188.2540  175.9280  137.2280 C   0  0  1  0  0  3  0  0  0  0  0  0
  189.6040  176.5780  137.0520 C   0  0  0  0  0  3  0  0  0  0  0  0
  187.0890  176.9330  137.1670 C   0  0  0  0  0  2  0  0  0  0  0  0
  187.4280  178.3480  137.6730 C   0  0  2  0  0  3  0  0  0  0  0  0
  187.4130  179.2260  136.5970 O   0  0  0  0  0  1  0  0  0  0  0  0
  188.7730  178.4520  138.4070 C   0  0  2  0  0  3  0  0  0  0  0  0
  189.8530  177.7660  137.6130 C   0  0  0  0  0  3  0  0  0  0  0  0
  188.0330  174.7410  136.2790 C   0  0  2  0  0  3  0  0  0  0  0  0
  185.7290  173.8300  136.8350 C   0  0  0  0  0  0  0  0  0  0  0  0
  186.1530  173.2830  137.8860 O   0  0  0  0  0  0  0  0  0  0  0  0
  186.6080  174.5830  135.9990 N   0  0  0  0  0  2  0  0  0  0  0  0
  184.3550  173.7050  136.4810 N   0  0  0  0  0  0  0  0  0  0  0  0
  183.9640  172.7010  135.5120 C   0  0  0  0  0  2  0  0  0  0  0  0
  184.1290  171.3220  136.1070 C   0  0  0  0  0  1  0  0  0  0  0  0
  183.3070  174.4500  137.1920 C   0  0  0  0  0  3  0  0  0  0  0  0
  181.1900  173.6160  137.4490 C   0  0  0  0  0  1  0  0  0  0  0  0
  182.0340  174.3190  136.5760 O   0  0  0  0  0  0  0  0  0  0  0  0
  183.6740  175.7890  137.4080 O   0  0  0  0  0  0  0  0  0  0  0  0
  182.8790  176.5310  136.5320 C   0  0  0  0  0  1  0  0  0  0  0  0
  188.6240  173.4380  136.8190 C   0  0  0  0  0  2  0  0  0  0  0  0
  190.1360  173.4720  136.7240 C   0  0  0  0  0  1  0  0  0  0  0  0
  187.1810  177.9120  141.8020 C   0  0  1  0  0  3  0  0  0  0  0  0
  188.7670  176.7190  143.4180 C   0  0  0  0  0  0  0  0  0  0  0  0
  188.7230  175.6550  142.7470 O   0  0  0  0  0  0  0  0  0  0  0  0
  188.0080  177.8630  143.0030 N   0  0  0  0  0  2  0  0  0  0  0  0
  190.9660  176.5380  144.5610 C   0  0  0  0  0  3  0  0  0  0  0  0
  191.1890  176.9020  146.9420 C   0  0  0  0  0  0  0  0  0  0  0  0
  191.7610  176.5950  145.7050 C   0  0  0  0  0  3  0  0  0  0  0  0
  189.0140  177.0930  145.8720 C   0  0  0  0  0  3  0  0  0  0  0  0
  189.8080  177.1540  147.0240 C   0  0  0  0  0  3  0  0  0  0  0  0
  189.5910  176.7860  144.6270 C   0  0  0  0  0  0  0  0  0  0  0  0
  192.8320  175.8630  148.4710 C   0  0  0  0  0  1  0  0  0  0  0  0
  192.0100  176.9450  148.0770 O   0  0  0  0  0  0  0  0  0  0  0  0
  185.7320  178.2990  142.1650 C   0  0  1  0  0  3  0  0  0  0  0  0
  184.2770  179.6060  143.5920 O   0  0  0  0  0  0  0  0  0  0  0  0
  185.6220  179.2680  143.3460 C   0  0  1  0  0  3  0  0  0  0  0  0
  184.8400  178.6270  144.4250 C   0  0  1  0  0  3  0  0  0  0  0  0
  185.1940  179.2440  145.7650 C   0  0  0  0  0  2  0  0  0  0  0  0
  185.6630  178.1650  146.7110 C   0  0  0  0  0  2  0  0  0  0  0  0
  186.5710  178.7780  147.7570 C   0  0  0  0  0  1  0  0  0  0  0  0
  185.0750  178.8890  140.9530 C   0  0  0  0  0  3  0  0  0  0  0  0
  183.8950  178.6700  140.7260 O   0  0  0  0  0  0  0  0  0  0  0  0
  2  1  1  0  0  0  0
  3 10  1  6  0  0  0
  4  3  1  0  0  0  0
  4  9  2  0  0  0  0
  5  3  1  0  0  0  0
  5  6  1  0  0  0  0
  6  7  1  6  0  0  0
  6  8  1  0  0  0  0
  8  2  1  1  0  0  0
  9  8  1  0  0  0  0
 10 22  1  1  0  0  0
 11 12  2  0  0  0  0
 13 10  1  0  0  0  0
 13 11  1  0  0  0  0
 14 11  1  0  0  0  0
 14 17  1  0  0  0  0
 15 16  1  0  0  0  0
 15 14  1  0  0  0  0
 17 20  1  0  0  0  0
 19 17  1  0  0  0  0
 19 18  1  0  0  0  0
 21 20  1  0  0  0  0
 23 22  1  0  0  0  0
 24  1  1  6  0  0  0
 24 36  1  0  0  0  0
 24 27  1  0  0  0  0
 25 33  1  0  0  0  0
 26 25  2  0  0  0  0
 27 25  1  0  0  0  0
 28 33  2  0  0  0  0
 28 30  1  0  0  0  0
 29 32  1  0  0  0  0
 29 35  1  0  0  0  0
 30 29  2  0  0  0  0
 31 32  2  0  0  0  0
 33 31  1  0  0  0  0
 35 34  1  0  0  0  0
 36 43  1  6  0  0  0
 37 39  1  0  0  0  0
 38 36  1  6  0  0  0
 38 37  1  0  0  0  0
 38 39  1  0  0  0  0
 39 40  1  1  0  0  0
 40 41  1  0  0  0  0
 41 42  1  0  0  0  0
 44 43  2  0  0  0  0
M  END
>  <MODEL>
4

>  <REMARK>
 VINA RESULT:      -6.6      2.288      6.824
  Name = 
  18 active torsions:
  status: ('A' for Active; 'I' for Inactive)
    1  A    between atoms: C_1  and  C_28
    2  A    between atoms: C_6  and  C_26
    3  A    between atoms: C_6  and  C_37
    4  A    between atoms: C_8  and  C_27
    5  A    between atoms: C_8  and  C_31
    6  A    between atoms: C_9  and  C_43
    7  A    between atoms: C_11  and  O_20
    8  A    between atoms: C_11  and  N_35
    9  A    between atoms: C_11  and  O_41
   10  A    between atoms: C_14  and  C_29
   11  A    between atoms: C_16  and  N_35
   12  A    between atoms: O_17  and  C_25
   13  A    between atoms: N_18  and  C_31
   14  A    between atoms: C_21  and  C_29
   15  A    between atoms: N_22  and  C_28
   16  A    between atoms: C_27  and  C_34
   17  A    between atoms: C_28  and  C_30
   18  A    between atoms: C_29  and  C_31
                            x       y       z     vdW  Elec       q    Type
                         _______ _______ _______ _____ _____    ______ ____

>  <TORSDO>
F 18

$$$$
=
 OpenBabel11042410403D

 44 46  0  0  1  0  0  0  0  0999 V2000
  190.0880  176.5590  139.9080 C   0  0  0  0  0  2  0  0  0  0  0  0
  190.2150  177.7610  140.8270 C   0  0  0  0  0  2  0  0  0  0  0  0
  188.2030  177.3380  143.3070 C   0  0  1  0  0  3  0  0  0  0  0  0
  189.2220  178.3490  143.7690 C   0  0  0  0  0  3  0  0  0  0  0  0
  188.8110  175.9490  143.0400 C   0  0  0  0  0  2  0  0  0  0  0  0
  190.2760  175.9640  142.5630 C   0  0  2  0  0  3  0  0  0  0  0  0
  191.0800  175.4290  143.5610 O   0  0  0  0  0  1  0  0  0  0  0  0
  190.7970  177.3540  142.1670 C   0  0  2  0  0  3  0  0  0  0  0  0
  190.4450  178.3630  143.2280 C   0  0  0  0  0  3  0  0  0  0  0  0
  186.9790  177.2560  144.2310 C   0  0  2  0  0  3  0  0  0  0  0  0
  185.4060  178.5210  142.6900 C   0  0  0  0  0  0  0  0  0  0  0  0
  186.1780  179.5130  142.6490 O   0  0  0  0  0  0  0  0  0  0  0  0
  185.7520  177.3590  143.4460 N   0  0  0  0  0  2  0  0  0  0  0  0
  184.1790  178.5520  141.9660 N   0  0  0  0  0  0  0  0  0  0  0  0
  182.9570  178.8930  142.6660 C   0  0  0  0  0  2  0  0  0  0  0  0
  183.2290  179.0140  144.1470 C   0  0  0  0  0  1  0  0  0  0  0  0
  184.1450  178.4130  140.5050 C   0  0  0  0  0  3  0  0  0  0  0  0
  183.6310  180.0580  138.9960 C   0  0  0  0  0  1  0  0  0  0  0  0
  184.6410  179.5650  139.8370 O   0  0  0  0  0  0  0  0  0  0  0  0
  182.8760  178.0210  140.0470 O   0  0  0  0  0  0  0  0  0  0  0  0
  183.0220  176.6850  139.6650 C   0  0  0  0  0  1  0  0  0  0  0  0
  187.0030  178.3130  145.3350 C   0  0  0  0  0  2  0  0  0  0  0  0
  185.9750  177.9820  146.3980 C   0  0  0  0  0  1  0  0  0  0  0  0
  190.5570  176.9300  138.4990 C   0  0  1  0  0  3  0  0  0  0  0  0
  192.9340  176.0180  138.2370 C   0  0  0  0  0  0  0  0  0  0  0  0
  193.4240  176.9820  138.8800 O   0  0  0  0  0  0  0  0  0  0  0  0
  191.5210  175.9510  138.0050 N   0  0  0  0  0  2  0  0  0  0  0  0
  193.4570  174.2460  136.5750 C   0  0  0  0  0  3  0  0  0  0  0  0
  195.4790  172.9270  136.7230 C   0  0  0  0  0  0  0  0  0  0  0  0
  194.2800  173.2380  136.0760 C   0  0  0  0  0  3  0  0  0  0  0  0
  195.0160  174.6500  138.3740 C   0  0  0  0  0  3  0  0  0  0  0  0
  195.8490  173.6390  137.8770 C   0  0  0  0  0  3  0  0  0  0  0  0
  193.8110  174.9630  137.7220 C   0  0  0  0  0  0  0  0  0  0  0  0
  197.2070  171.1780  136.9960 C   0  0  0  0  0  1  0  0  0  0  0  0
  196.2840  171.9030  136.2050 O   0  0  0  0  0  0  0  0  0  0  0  0
  189.4570  177.1770  137.4470 C   0  0  1  0  0  3  0  0  0  0  0  0
  187.1530  176.8150  136.7960 O   0  0  0  0  0  0  0  0  0  0  0  0
  188.1190  176.5060  137.7720 C   0  0  1  0  0  3  0  0  0  0  0  0
  187.7760  175.5620  136.6880 C   0  0  1  0  0  3  0  0  0  0  0  0
  186.8410  174.4860  137.2080 C   0  0  0  0  0  2  0  0  0  0  0  0
  187.3100  173.1330  136.7280 C   0  0  0  0  0  2  0  0  0  0  0  0
  188.4020  173.3220  135.6960 C   0  0  0  0  0  1  0  0  0  0  0  0
  189.2660  178.6560  137.2900 C   0  0  0  0  0  3  0  0  0  0  0  0
  188.8150  179.3180  138.2120 O   0  0  0  0  0  0  0  0  0  0  0  0
  1  2  1  0  0  0  0
  3  4  1  0  0  0  0
  3 10  1  1  0  0  0
  5  3  1  0  0  0  0
  6  5  1  0  0  0  0
  6  7  1  1  0  0  0
  8  2  1  6  0  0  0
  8  6  1  0  0  0  0
  8  9  1  0  0  0  0
  9  4  2  0  0  0  0
 10 22  1  1  0  0  0
 11 13  1  0  0  0  0
 12 11  2  0  0  0  0
 13 10  1  0  0  0  0
 14 15  1  0  0  0  0
 14 11  1  0  0  0  0
 15 16  1  0  0  0  0
 17 14  1  0  0  0  0
 18 19  1  0  0  0  0
 19 17  1  0  0  0  0
 20 17  1  0  0  0  0
 21 20  1  0  0  0  0
 22 23  1  0  0  0  0
 24  1  1  1  0  0  0
 25 26  2  0  0  0  0
 27 25  1  0  0  0  0
 27 24  1  0  0  0  0
 28 33  1  0  0  0  0
 29 32  2  0  0  0  0
 30 28  2  0  0  0  0
 30 29  1  0  0  0  0
 32 31  1  0  0  0  0
 33 25  1  0  0  0  0
 33 31  2  0  0  0  0
 35 29  1  0  0  0  0
 35 34  1  0  0  0  0
 36 43  1  1  0  0  0
 36 24  1  0  0  0  0
 37 38  1  0  0  0  0
 38 36  1  6  0  0  0
 39 37  1  0  0  0  0
 39 40  1  1  0  0  0
 39 38  1  0  0  0  0
 41 40  1  0  0  0  0
 42 41  1  0  0  0  0
 43 44  2  0  0  0  0
M  END
>  <MODEL>
5

>  <REMARK>
 VINA RESULT:      -6.3      2.849      8.780
  Name = 
  18 active torsions:
  status: ('A' for Active; 'I' for Inactive)
    1  A    between atoms: C_1  and  C_28
    2  A    between atoms: C_6  and  C_26
    3  A    between atoms: C_6  and  C_37
    4  A    between atoms: C_8  and  C_27
    5  A    between atoms: C_8  and  C_31
    6  A    between atoms: C_9  and  C_43
    7  A    between atoms: C_11  and  O_20
    8  A    between atoms: C_11  and  N_35
    9  A    between atoms: C_11  and  O_41
   10  A    between atoms: C_14  and  C_29
   11  A    between atoms: C_16  and  N_35
   12  A    between atoms: O_17  and  C_25
   13  A    between atoms: N_18  and  C_31
   14  A    between atoms: C_21  and  C_29
   15  A    between atoms: N_22  and  C_28
   16  A    between atoms: C_27  and  C_34
   17  A    between atoms: C_28  and  C_30
   18  A    between atoms: C_29  and  C_31
                            x       y       z     vdW  Elec       q    Type
                         _______ _______ _______ _____ _____    ______ ____

>  <TORSDO>
F 18

$$$$
=
 OpenBabel11042410403D

 44 46  0  0  1  0  0  0  0  0999 V2000
  189.6140  176.8530  141.8620 C   0  0  0  0  0  2  0  0  0  0  0  0
  188.8870  176.8790  140.5290 C   0  0  0  0  0  2  0  0  0  0  0  0
  188.9780  176.0890  137.4070 C   0  0  1  0  0  3  0  0  0  0  0  0
  190.4110  176.3220  137.8170 C   0  0  0  0  0  3  0  0  0  0  0  0
  188.1170  177.3630  137.4760 C   0  0  0  0  0  2  0  0  0  0  0  0
  188.5420  178.3750  138.5580 C   0  0  2  0  0  3  0  0  0  0  0  0
  189.0500  179.5090  137.9380 O   0  0  0  0  0  1  0  0  0  0  0  0
  189.5670  177.8310  139.5640 C   0  0  2  0  0  3  0  0  0  0  0  0
  190.6910  177.1390  138.8380 C   0  0  0  0  0  3  0  0  0  0  0  0
  188.8510  175.3870  136.0470 C   0  0  2  0  0  3  0  0  0  0  0  0
  186.5440  174.3770  136.3710 C   0  0  0  0  0  0  0  0  0  0  0  0
  186.9350  173.6960  137.3540 O   0  0  0  0  0  0  0  0  0  0  0  0
  187.4430  175.2500  135.6850 N   0  0  0  0  0  2  0  0  0  0  0  0
  185.1890  174.2820  135.9430 N   0  0  0  0  0  0  0  0  0  0  0  0
  184.8600  173.4150  134.8290 C   0  0  0  0  0  2  0  0  0  0  0  0
  185.3150  172.0060  135.1240 C   0  0  0  0  0  1  0  0  0  0  0  0
  184.0980  174.9070  136.7020 C   0  0  0  0  0  3  0  0  0  0  0  0
  184.0790  177.1720  137.0440 C   0  0  0  0  0  1  0  0  0  0  0  0
  184.5550  175.9520  137.5500 O   0  0  0  0  0  0  0  0  0  0  0  0
  183.3210  173.9540  137.3810 O   0  0  0  0  0  0  0  0  0  0  0  0
  182.0380  174.0780  136.8420 C   0  0  0  0  0  1  0  0  0  0  0  0
  189.5510  174.0290  136.0180 C   0  0  0  0  0  2  0  0  0  0  0  0
  189.6420  173.5170  134.5950 C   0  0  0  0  0  1  0  0  0  0  0  0
  189.4430  178.1970  142.5740 C   0  0  1  0  0  3  0  0  0  0  0  0
  187.0220  177.6840  143.2290 C   0  0  0  0  0  0  0  0  0  0  0  0
  187.3270  176.5320  143.6320 O   0  0  0  0  0  0  0  0  0  0  0  0
  188.0290  178.5450  142.6800 N   0  0  0  0  0  2  0  0  0  0  0  0
  185.0950  178.5350  144.5470 C   0  0  0  0  0  3  0  0  0  0  0  0
  182.9660  179.0230  143.5080 C   0  0  0  0  0  0  0  0  0  0  0  0
  183.7750  178.9720  144.6460 C   0  0  0  0  0  3  0  0  0  0  0  0
  184.8210  178.1950  142.1720 C   0  0  0  0  0  3  0  0  0  0  0  0
  183.4950  178.6350  142.2650 C   0  0  0  0  0  3  0  0  0  0  0  0
  185.6350  178.1450  143.3180 C   0  0  0  0  0  0  0  0  0  0  0  0
  180.5310  178.6520  143.2900 C   0  0  0  0  0  1  0  0  0  0  0  0
  181.6400  179.4590  143.6370 O   0  0  0  0  0  0  0  0  0  0  0  0
  190.1370  178.3480  143.9420 C   0  0  1  0  0  3  0  0  0  0  0  0
  191.0420  177.0410  145.7690 O   0  0  0  0  0  0  0  0  0  0  0  0
  189.9650  177.1380  144.8670 C   0  0  1  0  0  3  0  0  0  0  0  0
  189.8580  177.6090  146.2640 C   0  0  1  0  0  3  0  0  0  0  0  0
  189.1180  176.5860  147.1050 C   0  0  0  0  0  2  0  0  0  0  0  0
  187.9060  177.2300  147.7350 C   0  0  0  0  0  2  0  0  0  0  0  0
  188.3590  178.2560  148.7520 C   0  0  0  0  0  1  0  0  0  0  0  0
  191.5940  178.6190  143.7140 C   0  0  0  0  0  3  0  0  0  0  0  0
  192.1230  179.5980  144.2180 O   0  0  0  0  0  0  0  0  0  0  0  0
  2  1  1  0  0  0  0
  3 10  1  6  0  0  0
  3  5  1  0  0  0  0
  3  4  1  0  0  0  0
  4  9  2  0  0  0  0
  5  6  1  0  0  0  0
  6  7  1  6  0  0  0
  6  8  1  0  0  0  0
  8  2  1  1  0  0  0
  9  8  1  0  0  0  0
 10 22  1  1  0  0  0
 11 12  2  0  0  0  0
 13 10  1  0  0  0  0
 13 11  1  0  0  0  0
 14 11  1  0  0  0  0
 14 17  1  0  0  0  0
 15 16  1  0  0  0  0
 15 14  1  0  0  0  0
 17 20  1  0  0  0  0
 17 19  1  0  0  0  0
 18 19  1  0  0  0  0
 21 20  1  0  0  0  0
 23 22  1  0  0  0  0
 24  1  1  1  0  0  0
 24 27  1  0  0  0  0
 24 36  1  0  0  0  0
 25 33  1  0  0  0  0
 25 26  2  0  0  0  0
 27 25  1  0  0  0  0
 28 30  1  0  0  0  0
 29 35  1  0  0  0  0
 29 30  2  0  0  0  0
 31 32  2  0  0  0  0
 31 33  1  0  0  0  0
 32 29  1  0  0  0  0
 33 28  2  0  0  0  0
 34 35  1  0  0  0  0
 36 43  1  6  0  0  0
 37 39  1  0  0  0  0
 38 36  1  6  0  0  0
 38 37  1  0  0  0  0
 38 39  1  0  0  0  0
 39 40  1  1  0  0  0
 40 41  1  0  0  0  0
 41 42  1  0  0  0  0
 43 44  2  0  0  0  0
M  END
>  <MODEL>
6

>  <REMARK>
 VINA RESULT:      -6.2      2.179      5.219
  Name = 
  18 active torsions:
  status: ('A' for Active; 'I' for Inactive)
    1  A    between atoms: C_1  and  C_28
    2  A    between atoms: C_6  and  C_26
    3  A    between atoms: C_6  and  C_37
    4  A    between atoms: C_8  and  C_27
    5  A    between atoms: C_8  and  C_31
    6  A    between atoms: C_9  and  C_43
    7  A    between atoms: C_11  and  O_20
    8  A    between atoms: C_11  and  N_35
    9  A    between atoms: C_11  and  O_41
   10  A    between atoms: C_14  and  C_29
   11  A    between atoms: C_16  and  N_35
   12  A    between atoms: O_17  and  C_25
   13  A    between atoms: N_18  and  C_31
   14  A    between atoms: C_21  and  C_29
   15  A    between atoms: N_22  and  C_28
   16  A    between atoms: C_27  and  C_34
   17  A    between atoms: C_28  and  C_30
   18  A    between atoms: C_29  and  C_31
                            x       y       z     vdW  Elec       q    Type
                         _______ _______ _______ _____ _____    ______ ____

>  <TORSDO>
F 18

$$$$
=
 OpenBabel11042410403D

 44 46  0  0  1  0  0  0  0  0999 V2000
  184.6790  178.6560  142.5940 C   0  0  0  0  0  2  0  0  0  0  0  0
  184.2560  177.8950  141.3500 C   0  0  0  0  0  2  0  0  0  0  0  0
  183.6790  177.1410  138.2720 C   0  0  1  0  0  3  0  0  0  0  0  0
  183.9230  178.6290  138.2940 C   0  0  0  0  0  3  0  0  0  0  0  0
  182.4060  176.7280  139.0340 C   0  0  0  0  0  2  0  0  0  0  0  0
  182.0400  177.6350  140.2240 C   0  0  2  0  0  3  0  0  0  0  0  0
  180.8750  178.3280  139.9210 O   0  0  0  0  0  1  0  0  0  0  0  0
  183.1430  178.6270  140.6250 C   0  0  2  0  0  3  0  0  0  0  0  0
  183.6770  179.3310  139.4050 C   0  0  0  0  0  3  0  0  0  0  0  0
  183.7120  176.5490  136.8550 C   0  0  2  0  0  3  0  0  0  0  0  0
  186.2420  176.5110  136.6430 C   0  0  0  0  0  0  0  0  0  0  0  0
  186.3560  175.7650  137.6500 O   0  0  0  0  0  0  0  0  0  0  0  0
  184.9540  176.9250  136.1850 N   0  0  0  0  0  2  0  0  0  0  0  0
  187.4090  176.9380  135.9460 N   0  0  0  0  0  0  0  0  0  0  0  0
  187.9570  178.2500  136.2260 C   0  0  0  0  0  2  0  0  0  0  0  0
  188.0660  178.4530  137.7180 C   0  0  0  0  0  1  0  0  0  0  0  0
  188.1640  176.0230  135.0800 C   0  0  0  0  0  3  0  0  0  0  0  0
  188.3060  173.7900  134.5940 C   0  0  0  0  0  1  0  0  0  0  0  0
  187.4170  174.8670  134.7270 O   0  0  0  0  0  0  0  0  0  0  0  0
  189.4240  175.7150  135.6180 O   0  0  0  0  0  0  0  0  0  0  0  0
  190.3370  176.0060  134.6010 C   0  0  0  0  0  1  0  0  0  0  0  0
  182.5010  176.9600  136.0180 C   0  0  0  0  0  2  0  0  0  0  0  0
  182.9540  177.5990  134.7210 C   0  0  0  0  0  1  0  0  0  0  0  0
  185.6750  177.8200  143.4020 C   0  0  1  0  0  3  0  0  0  0  0  0
  187.9640  176.8640  142.7710 C   0  0  0  0  0  0  0  0  0  0  0  0
  187.6710  175.7330  143.2380 O   0  0  0  0  0  0  0  0  0  0  0  0
  187.0170  177.9380  142.8410 N   0  0  0  0  0  2  0  0  0  0  0  0
  189.3950  177.2270  140.7720 C   0  0  0  0  0  3  0  0  0  0  0  0
  191.7910  177.4950  140.9630 C   0  0  0  0  0  0  0  0  0  0  0  0
  190.6380  177.4320  140.1760 C   0  0  0  0  0  3  0  0  0  0  0  0
  190.4360  177.1440  142.9500 C   0  0  0  0  0  3  0  0  0  0  0  0
  191.6880  177.3530  142.3570 C   0  0  0  0  0  3  0  0  0  0  0  0
  189.2760  177.0830  142.1580 C   0  0  0  0  0  0  0  0  0  0  0  0
  193.4740  176.9090  139.2460 C   0  0  0  0  0  1  0  0  0  0  0  0
  193.0300  177.6950  140.3360 O   0  0  0  0  0  0  0  0  0  0  0  0
  185.7060  178.0630  144.9240 C   0  0  1  0  0  3  0  0  0  0  0  0
  187.0750  178.5710  146.8570 O   0  0  0  0  0  0  0  0  0  0  0  0
  187.0560  178.5650  145.4490 C   0  0  1  0  0  3  0  0  0  0  0  0
  187.7030  177.4870  146.2250 C   0  0  1  0  0  3  0  0  0  0  0  0
  189.2070  177.6900  146.2490 C   0  0  0  0  0  2  0  0  0  0  0  0
  189.7610  177.2180  147.5720 C   0  0  0  0  0  2  0  0  0  0  0  0
  191.0480  176.4580  147.3310 C   0  0  0  0  0  1  0  0  0  0  0  0
  184.6220  179.0370  145.2780 C   0  0  0  0  0  3  0  0  0  0  0  0
  183.8320  178.7790  146.1730 O   0  0  0  0  0  0  0  0  0  0  0  0
  2  1  1  0  0  0  0
  3 10  1  6  0  0  0
  3  4  1  0  0  0  0
  3  5  1  0  0  0  0
  4  9  2  0  0  0  0
  5  6  1  0  0  0  0
  6  7  1  6  0  0  0
  6  8  1  0  0  0  0
  8  2  1  6  0  0  0
  9  8  1  0  0  0  0
 10 22  1  6  0  0  0
 11 12  2  0  0  0  0
 13 11  1  0  0  0  0
 13 10  1  0  0  0  0
 14 15  1  0  0  0  0
 14 11  1  0  0  0  0
 15 16  1  0  0  0  0
 17 20  1  0  0  0  0
 17 14  1  0  0  0  0
 18 19  1  0  0  0  0
 19 17  1  0  0  0  0
 21 20  1  0  0  0  0
 23 22  1  0  0  0  0
 24  1  1  6  0  0  0
 24 36  1  0  0  0  0
 25 27  1  0  0  0  0
 25 26  2  0  0  0  0
 27 24  1  0  0  0  0
 28 33  1  0  0  0  0
 29 32  2  0  0  0  0
 30 28  2  0  0  0  0
 30 29  1  0  0  0  0
 32 31  1  0  0  0  0
 33 25  1  0  0  0  0
 33 31  2  0  0  0  0
 34 35  1  0  0  0  0
 35 29  1  0  0  0  0
 36 43  1  6  0  0  0
 38 36  1  1  0  0  0
 38 39  1  0  0  0  0
 38 37  1  0  0  0  0
 39 40  1  6  0  0  0
 39 37  1  0  0  0  0
 40 41  1  0  0  0  0
 42 41  1  0  0  0  0
 43 44  2  0  0  0  0
M  END
>  <MODEL>
7

>  <REMARK>
 VINA RESULT:      -6.2      1.983      6.184
  Name = 
  18 active torsions:
  status: ('A' for Active; 'I' for Inactive)
    1  A    between atoms: C_1  and  C_28
    2  A    between atoms: C_6  and  C_26
    3  A    between atoms: C_6  and  C_37
    4  A    between atoms: C_8  and  C_27
    5  A    between atoms: C_8  and  C_31
    6  A    between atoms: C_9  and  C_43
    7  A    between atoms: C_11  and  O_20
    8  A    between atoms: C_11  and  N_35
    9  A    between atoms: C_11  and  O_41
   10  A    between atoms: C_14  and  C_29
   11  A    between atoms: C_16  and  N_35
   12  A    between atoms: O_17  and  C_25
   13  A    between atoms: N_18  and  C_31
   14  A    between atoms: C_21  and  C_29
   15  A    between atoms: N_22  and  C_28
   16  A    between atoms: C_27  and  C_34
   17  A    between atoms: C_28  and  C_30
   18  A    between atoms: C_29  and  C_31
                            x       y       z     vdW  Elec       q    Type
                         _______ _______ _______ _____ _____    ______ ____

>  <TORSDO>
F 18

$$$$
=
 OpenBabel11042410403D

 44 46  0  0  1  0  0  0  0  0999 V2000
  185.0880  178.7610  143.5850 C   0  0  0  0  0  2  0  0  0  0  0  0
  184.1440  178.0320  142.6460 C   0  0  0  0  0  2  0  0  0  0  0  0
  183.0330  177.0390  139.7900 C   0  0  1  0  0  3  0  0  0  0  0  0
  183.8680  178.2630  139.5060 C   0  0  0  0  0  3  0  0  0  0  0  0
  181.7770  177.3470  140.6260 C   0  0  0  0  0  2  0  0  0  0  0  0
  181.9250  178.5250  141.6070 C   0  0  2  0  0  3  0  0  0  0  0  0
  181.1250  179.5740  141.1740 O   0  0  0  0  0  1  0  0  0  0  0  0
  183.3690  179.0170  141.7910 C   0  0  2  0  0  3  0  0  0  0  0  0
  184.0330  179.1940  140.4510 C   0  0  0  0  0  3  0  0  0  0  0  0
  182.6930  176.2390  138.5240 C   0  0  2  0  0  3  0  0  0  0  0  0
  184.5230  174.8420  137.4530 C   0  0  0  0  0  0  0  0  0  0  0  0
  184.0600  173.7820  137.9480 O   0  0  0  0  0  0  0  0  0  0  0  0
  183.8810  176.0960  137.6880 N   0  0  0  0  0  2  0  0  0  0  0  0
  185.6920  174.7880  136.6410 N   0  0  0  0  0  0  0  0  0  0  0  0
  186.9770  175.1030  137.2340 C   0  0  0  0  0  2  0  0  0  0  0  0
  187.3240  176.5490  136.9660 C   0  0  0  0  0  1  0  0  0  0  0  0
  185.6520  174.2640  135.2700 C   0  0  0  0  0  3  0  0  0  0  0  0
  184.1220  175.8540  134.6590 C   0  0  0  0  0  1  0  0  0  0  0  0
  184.3960  174.4780  134.6420 O   0  0  0  0  0  0  0  0  0  0  0  0
  186.0700  172.9230  135.2120 O   0  0  0  0  0  0  0  0  0  0  0  0
  184.9210  172.1970  134.8890 C   0  0  0  0  0  1  0  0  0  0  0  0
  181.5440  176.8580  137.7280 C   0  0  0  0  0  2  0  0  0  0  0  0
  180.3260  175.9570  137.7810 C   0  0  0  0  0  1  0  0  0  0  0  0
  186.1270  177.7830  144.1400 C   0  0  1  0  0  3  0  0  0  0  0  0
  188.2320  176.8200  143.0480 C   0  0  0  0  0  0  0  0  0  0  0  0
  187.9090  175.6430  143.3580 O   0  0  0  0  0  0  0  0  0  0  0  0
  187.3920  177.9190  143.4260 N   0  0  0  0  0  2  0  0  0  0  0  0
  189.4710  177.0410  140.9060 C   0  0  0  0  0  3  0  0  0  0  0  0
  191.8410  177.5250  140.8580 C   0  0  0  0  0  0  0  0  0  0  0  0
  190.6430  177.2700  140.1860 C   0  0  0  0  0  3  0  0  0  0  0  0
  190.6750  177.3210  142.9810 C   0  0  0  0  0  3  0  0  0  0  0  0
  191.8540  177.5540  142.2630 C   0  0  0  0  0  3  0  0  0  0  0  0
  189.4690  177.0660  142.3040 C   0  0  0  0  0  0  0  0  0  0  0  0
  193.3290  176.9900  138.9560 C   0  0  0  0  0  1  0  0  0  0  0  0
  193.0050  177.7450  140.1090 O   0  0  0  0  0  0  0  0  0  0  0  0
  186.3650  177.8190  145.6640 C   0  0  1  0  0  3  0  0  0  0  0  0
  187.9530  178.1620  147.4590 O   0  0  0  0  0  0  0  0  0  0  0  0
  187.7770  178.2560  146.0650 C   0  0  1  0  0  3  0  0  0  0  0  0
  188.4770  177.1120  146.6890 C   0  0  1  0  0  3  0  0  0  0  0  0
  189.9790  177.2830  146.5560 C   0  0  0  0  0  2  0  0  0  0  0  0
  190.6670  175.9770  146.8780 C   0  0  0  0  0  2  0  0  0  0  0  0
  192.0490  176.2640  147.4260 C   0  0  0  0  0  1  0  0  0  0  0  0
  185.3490  178.7290  146.2870 C   0  0  0  0  0  3  0  0  0  0  0  0
  184.4060  178.2630  146.9090 O   0  0  0  0  0  0  0  0  0  0  0  0
  2  1  1  0  0  0  0
  3 10  1  6  0  0  0
  3  5  1  0  0  0  0
  4  3  1  0  0  0  0
  4  9  2  0  0  0  0
  5  6  1  0  0  0  0
  6  7  1  6  0  0  0
  6  8  1  0  0  0  0
  8  2  1  1  0  0  0
  9  8  1  0  0  0  0
 10 22  1  6  0  0  0
 11 13  1  0  0  0  0
 11 12  2  0  0  0  0
 13 10  1  0  0  0  0
 14 15  1  0  0  0  0
 14 11  1  0  0  0  0
 16 15  1  0  0  0  0
 17 14  1  0  0  0  0
 19 18  1  0  0  0  0
 19 17  1  0  0  0  0
 20 17  1  0  0  0  0
 21 20  1  0  0  0  0
 22 23  1  0  0  0  0
 24  1  1  6  0  0  0
 24 36  1  0  0  0  0
 25 26  2  0  0  0  0
 25 27  1  0  0  0  0
 27 24  1  0  0  0  0
 28 33  1  0  0  0  0
 29 32  2  0  0  0  0
 30 29  1  0  0  0  0
 30 28  2  0  0  0  0
 32 31  1  0  0  0  0
 33 31  2  0  0  0  0
 33 25  1  0  0  0  0
 34 35  1  0  0  0  0
 35 29  1  0  0  0  0
 36 43  1  1  0  0  0
 38 36  1  1  0  0  0
 38 39  1  0  0  0  0
 38 37  1  0  0  0  0
 39 40  1  6  0  0  0
 39 37  1  0  0  0  0
 40 41  1  0  0  0  0
 41 42  1  0  0  0  0
 43 44  2  0  0  0  0
M  END
>  <MODEL>
8

>  <REMARK>
 VINA RESULT:      -6.0      2.361      6.493
  Name = 
  18 active torsions:
  status: ('A' for Active; 'I' for Inactive)
    1  A    between atoms: C_1  and  C_28
    2  A    between atoms: C_6  and  C_26
    3  A    between atoms: C_6  and  C_37
    4  A    between atoms: C_8  and  C_27
    5  A    between atoms: C_8  and  C_31
    6  A    between atoms: C_9  and  C_43
    7  A    between atoms: C_11  and  O_20
    8  A    between atoms: C_11  and  N_35
    9  A    between atoms: C_11  and  O_41
   10  A    between atoms: C_14  and  C_29
   11  A    between atoms: C_16  and  N_35
   12  A    between atoms: O_17  and  C_25
   13  A    between atoms: N_18  and  C_31
   14  A    between atoms: C_21  and  C_29
   15  A    between atoms: N_22  and  C_28
   16  A    between atoms: C_27  and  C_34
   17  A    between atoms: C_28  and  C_30
   18  A    between atoms: C_29  and  C_31
                            x       y       z     vdW  Elec       q    Type
                         _______ _______ _______ _____ _____    ______ ____

>  <TORSDO>
F 18

$$$$
=
 OpenBabel11042410403D

 44 46  0  0  1  0  0  0  0  0999 V2000
  185.0240  178.7750  142.9190 C   0  0  0  0  0  2  0  0  0  0  0  0
  184.0530  177.9950  142.0520 C   0  0  0  0  0  2  0  0  0  0  0  0
  182.9970  176.6940  139.3000 C   0  0  1  0  0  3  0  0  0  0  0  0
  183.9340  177.8060  138.8990 C   0  0  0  0  0  3  0  0  0  0  0  0
  181.7320  177.2020  140.0170 C   0  0  0  0  0  2  0  0  0  0  0  0
  181.9270  178.4920  140.8370 C   0  0  2  0  0  3  0  0  0  0  0  0
  181.2290  179.5240  140.2230 O   0  0  0  0  0  1  0  0  0  0  0  0
  183.3940  178.9030  141.0310 C   0  0  2  0  0  3  0  0  0  0  0  0
  184.1280  178.8460  139.7170 C   0  0  0  0  0  3  0  0  0  0  0  0
  182.6530  175.7520  138.1370 C   0  0  2  0  0  3  0  0  0  0  0  0
  184.4100  175.6880  136.3050 C   0  0  0  0  0  0  0  0  0  0  0  0
  183.8450  176.6180  135.6740 O   0  0  0  0  0  0  0  0  0  0  0  0
  183.8770  175.2200  137.5450 N   0  0  0  0  0  2  0  0  0  0  0  0
  185.5980  175.1020  135.7820 N   0  0  0  0  0  0  0  0  0  0  0  0
  185.5060  173.8600  135.0410 C   0  0  0  0  0  2  0  0  0  0  0  0
  185.3810  172.6990  135.9990 C   0  0  0  0  0  1  0  0  0  0  0  0
  186.8870  175.8050  135.8310 C   0  0  0  0  0  3  0  0  0  0  0  0
  187.1390  177.8780  134.8910 C   0  0  0  0  0  1  0  0  0  0  0  0
  187.1730  176.5000  134.6250 O   0  0  0  0  0  0  0  0  0  0  0  0
  187.9310  174.9540  136.2310 O   0  0  0  0  0  0  0  0  0  0  0  0
  188.3310  175.4290  137.4820 C   0  0  0  0  0  1  0  0  0  0  0  0
  181.7860  176.4240  137.0720 C   0  0  0  0  0  2  0  0  0  0  0  0
  180.7100  175.4700  136.5950 C   0  0  0  0  0  1  0  0  0  0  0  0
  186.0050  177.8140  143.5960 C   0  0  1  0  0  3  0  0  0  0  0  0
  188.2070  176.7850  142.7940 C   0  0  0  0  0  0  0  0  0  0  0  0
  187.8810  175.6450  143.2170 O   0  0  0  0  0  0  0  0  0  0  0  0
  187.3210  177.8980  142.9710 N   0  0  0  0  0  2  0  0  0  0  0  0
  190.6520  177.2210  142.8690 C   0  0  0  0  0  3  0  0  0  0  0  0
  191.9780  177.3520  140.8500 C   0  0  0  0  0  0  0  0  0  0  0  0
  191.8840  177.4070  142.2430 C   0  0  0  0  0  3  0  0  0  0  0  0
  189.5890  176.9200  140.7220 C   0  0  0  0  0  3  0  0  0  0  0  0
  190.8240  177.1040  140.0870 C   0  0  0  0  0  3  0  0  0  0  0  0
  189.4950  176.9740  142.1240 C   0  0  0  0  0  0  0  0  0  0  0  0
  193.5800  176.9670  139.0060 C   0  0  0  0  0  1  0  0  0  0  0  0
  193.2270  177.5490  140.2460 O   0  0  0  0  0  0  0  0  0  0  0  0
  186.1310  177.9230  145.1290 C   0  0  1  0  0  3  0  0  0  0  0  0
  187.5110  178.5720  147.0110 O   0  0  0  0  0  0  0  0  0  0  0  0
  187.4830  178.4630  145.6070 C   0  0  1  0  0  3  0  0  0  0  0  0
  188.1370  177.4450  146.4560 C   0  0  1  0  0  3  0  0  0  0  0  0
  189.6410  177.6510  146.4550 C   0  0  0  0  0  2  0  0  0  0  0  0
  190.3230  176.4010  146.9570 C   0  0  0  0  0  2  0  0  0  0  0  0
  191.6910  176.2890  146.3180 C   0  0  0  0  0  1  0  0  0  0  0  0
  185.0200  178.7890  145.6430 C   0  0  0  0  0  3  0  0  0  0  0  0
  184.5300  178.5730  146.7410 O   0  0  0  0  0  0  0  0  0  0  0  0
  2  1  1  0  0  0  0
  3 10  1  6  0  0  0
  3  5  1  0  0  0  0
  4  3  1  0  0  0  0
  4  9  2  0  0  0  0
  5  6  1  0  0  0  0
  6  7  1  6  0  0  0
  6  8  1  0  0  0  0
  8  2  1  1  0  0  0
  9  8  1  0  0  0  0
 10 22  1  6  0  0  0
 11 13  1  0  0  0  0
 12 11  2  0  0  0  0
 13 10  1  0  0  0  0
 14 17  1  0  0  0  0
 14 11  1  0  0  0  0
 15 14  1  0  0  0  0
 15 16  1  0  0  0  0
 17 20  1  0  0  0  0
 19 18  1  0  0  0  0
 19 17  1  0  0  0  0
 20 21  1  0  0  0  0
 23 22  1  0  0  0  0
 24  1  1  6  0  0  0
 24 36  1  0  0  0  0
 25 27  1  0  0  0  0
 25 26  2  0  0  0  0
 27 24  1  0  0  0  0
 29 30  2  0  0  0  0
 30 28  1  0  0  0  0
 31 33  1  0  0  0  0
 32 31  2  0  0  0  0
 32 29  1  0  0  0  0
 33 25  1  0  0  0  0
 33 28  2  0  0  0  0
 34 35  1  0  0  0  0
 35 29  1  0  0  0  0
 36 43  1  6  0  0  0
 38 36  1  1  0  0  0
 38 39  1  0  0  0  0
 38 37  1  0  0  0  0
 39 40  1  6  0  0  0
 39 37  1  0  0  0  0
 40 41  1  0  0  0  0
 42 41  1  0  0  0  0
 43 44  2  0  0  0  0
M  END
>  <MODEL>
9

>  <REMARK>
 VINA RESULT:      -5.9      2.133      6.384
  Name = 
  18 active torsions:
  status: ('A' for Active; 'I' for Inactive)
    1  A    between atoms: C_1  and  C_28
    2  A    between atoms: C_6  and  C_26
    3  A    between atoms: C_6  and  C_37
    4  A    between atoms: C_8  and  C_27
    5  A    between atoms: C_8  and  C_31
    6  A    between atoms: C_9  and  C_43
    7  A    between atoms: C_11  and  O_20
    8  A    between atoms: C_11  and  N_35
    9  A    between atoms: C_11  and  O_41
   10  A    between atoms: C_14  and  C_29
   11  A    between atoms: C_16  and  N_35
   12  A    between atoms: O_17  and  C_25
   13  A    between atoms: N_18  and  C_31
   14  A    between atoms: C_21  and  C_29
   15  A    between atoms: N_22  and  C_28
   16  A    between atoms: C_27  and  C_34
   17  A    between atoms: C_28  and  C_30
   18  A    between atoms: C_29  and  C_31
                            x       y       z     vdW  Elec       q    Type
                         _______ _______ _______ _____ _____    ______ ____

>  <TORSDO>
F 18

$$$$
