=
 OpenBabel11042410593D

 56 61  0  0  1  0  0  0  0  0999 V2000
  189.1600  177.0560  142.1610 C   0  0  0  0  0  2  0  0  0  0  0  0
  190.4750  177.7740  141.8330 C   0  0  1  0  0  3  0  0  0  0  0  0
  186.2520  178.0220  143.0680 C   0  0  0  0  0  3  0  0  0  0  0  0
  185.0200  178.5470  145.1220 C   0  0  0  0  0  0  0  0  0  0  0  0
  189.3770  177.4070  144.7230 C   0  0  0  0  0  0  0  0  0  0  0  0
  191.4320  176.3190  143.7830 C   0  0  0  0  0  2  0  0  0  0  0  0
  186.1780  178.3280  145.8900 C   0  0  0  0  0  3  0  0  0  0  0  0
  185.0530  178.3990  143.7100 C   0  0  0  0  0  0  0  0  0  0  0  0
  187.3750  177.7940  143.8610 C   0  0  0  0  0  0  0  0  0  0  0  0
  188.5600  177.7280  145.7540 N   0  0  0  0  0  0  0  0  0  0  0  0
  190.8610  177.2200  144.8700 C   0  0  0  0  0  2  0  0  0  0  0  0
  191.7010  177.0930  142.4890 C   0  0  0  0  0  2  0  0  0  0  0  0
  188.6650  177.4380  143.5210 C   0  0  0  0  0  0  0  0  0  0  0  0
  187.3440  177.9550  145.2220 C   0  0  0  0  0  0  0  0  0  0  0  0
  183.8120  178.9200  145.7850 N   0  0  0  0  0  1  0  0  0  0  0  0
  190.6790  177.8580  140.3090 C   0  0  1  0  0  3  0  0  0  0  0  0
  192.0380  178.0070  140.0050 O   0  0  0  0  0  1  0  0  0  0  0  0
  191.7190  175.2030  135.3540 C   0  0  0  0  0  2  0  0  0  0  0  0
  189.7230  176.9760  138.1220 C   0  0  0  0  0  2  0  0  0  0  0  0
  191.1300  175.6160  139.5140 O   0  0  0  0  0  0  0  0  0  0  0  0
  192.3150  174.4140  137.7180 C   0  0  0  0  0  2  0  0  0  0  0  0
  190.4230  175.9280  137.3260 C   0  0  2  0  0  3  0  0  0  0  0  0
  190.1360  176.6290  139.5570 C   0  0  1  0  0  3  0  0  0  0  0  0
  191.6010  175.6640  138.1980 C   0  0  1  0  0  3  0  0  0  0  0  0
  190.9330  176.3710  135.9690 C   0  0  0  0  0  2  0  0  0  0  0  0
  192.8420  174.7000  136.2940 C   0  0  1  0  0  3  0  0  0  0  0  0
  194.5660  174.0120  134.6070 C   0  0  0  0  0  1  0  0  0  0  0  0
  193.6340  173.5210  135.6980 C   0  0  0  0  0  0  0  0  0  0  0  0
  194.4880  172.8690  136.7720 C   0  0  0  0  0  1  0  0  0  0  0  0
  192.7020  172.4740  135.1110 C   0  0  0  0  0  1  0  0  0  0  0  0
  188.9400  177.8860  147.1540 C   0  0  0  0  0  2  0  0  0  0  0  0
  187.8100  177.8140  149.2470 O   0  0  0  0  0  1  0  0  0  0  0  0
  187.9750  177.1250  148.0430 C   0  0  0  0  0  2  0  0  0  0  0  0
  183.8480  178.7610  142.8970 C   0  0  0  0  0  2  0  0  0  0  0  0
  183.7170  177.9040  141.6460 C   0  0  0  0  0  2  0  0  0  0  0  0
  182.7860  178.5520  140.6280 C   0  0  1  0  0  3  0  0  0  0  0  0
  183.5430  179.0190  139.4050 C   0  0  0  0  0  0  0  0  0  0  0  0
  184.4600  179.8110  139.5410 O   0  0  0  0  0  0  0  0  0  0  0  0
  183.1480  178.5940  138.0210 C   0  0  0  0  0  2  0  0  0  0  0  0
  183.7890  177.2680  137.6410 C   0  0  2  0  0  3  0  0  0  0  0  0
  187.0340  176.1120  135.7870 C   0  0  0  0  0  2  0  0  0  0  0  0
  185.0330  177.5390  136.9660 N   0  0  0  0  0  0  0  0  0  0  0  0
  185.7740  176.6030  136.4980 C   0  0  0  0  0  0  0  0  0  0  0  0
  186.0930  175.1330  136.2250 C   0  0  0  0  0  2  0  0  0  0  0  0
  182.8950  176.5240  136.7610 N   0  0  0  0  0  2  0  0  0  0  0  0
  181.7050  177.2590  136.6700 N   0  0  0  0  0  1  0  0  0  0  0  0
  181.6910  177.5550  140.2770 C   0  0  0  0  0  2  0  0  0  0  0  0
  180.3170  178.1430  140.5520 C   0  0  1  0  0  3  0  0  0  0  0  0
  179.5690  177.3470  141.5800 C   0  0  0  0  0  0  0  0  0  0  0  0
  179.2960  176.0020  141.3820 O   0  0  0  0  0  0  0  0  0  0  0  0
  179.1920  177.8970  142.6460 O   0  0  0  0  0  1  0  0  0  0  0  0
  180.4960  179.5780  141.0200 C   0  0  0  0  0  2  0  0  0  0  0  0
  179.4460  180.4700  140.3810 C   0  0  1  0  0  3  0  0  0  0  0  0
  179.4860  181.7360  140.9640 O   0  0  0  0  0  1  0  0  0  0  0  0
  180.7030  181.2030  138.5280 O   0  0  0  0  0  0  0  0  0  0  0  0
  179.7180  180.5970  138.9190 C   0  0  0  0  0  3  0  0  0  0  0  0
  1 13  1  0  0  0  0
  2 16  1  6  0  0  0
  2  1  1  0  0  0  0
  2 12  1  0  0  0  0
  3  8  2  0  0  0  0
  3  9  1  0  0  0  0
  4 15  1  0  0  0  0
  4  7  2  0  0  0  0
  5 11  1  0  0  0  0
  5 10  1  0  0  0  0
  6 11  1  0  0  0  0
  8  4  1  0  0  0  0
  9 14  2  0  0  0  0
 10 31  1  0  0  0  0
 12  6  1  0  0  0  0
 13  9  1  0  0  0  0
 13  5  2  0  0  0  0
 14 10  1  0  0  0  0
 14  7  1  0  0  0  0
 16 17  1  1  0  0  0
 18 25  1  0  0  0  0
 18 26  1  0  0  0  0
 19 23  1  0  0  0  0
 20 23  1  0  0  0  0
 22 25  1  6  0  0  0
 22 19  1  0  0  0  0
 22 24  1  0  0  0  0
 23 16  1  6  0  0  0
 24 21  1  6  0  0  0
 24 20  1  0  0  0  0
 26 28  1  6  0  0  0
 26 21  1  0  0  0  0
 27 28  1  0  0  0  0
 28 29  1  0  0  0  0
 30 28  1  0  0  0  0
 31 33  1  0  0  0  0
 33 32  1  0  0  0  0
 34  8  1  0  0  0  0
 35 34  1  0  0  0  0
 36 47  1  6  0  0  0
 36 35  1  0  0  0  0
 37 38  2  0  0  0  0
 37 36  1  0  0  0  0
 39 37  1  0  0  0  0
 40 39  1  6  0  0  0
 41 44  1  0  0  0  0
 41 43  1  0  0  0  0
 42 40  1  0  0  0  0
 43 42  2  0  0  0  0
 44 43  1  0  0  0  0
 45 40  1  0  0  0  0
 46 45  1  0  0  0  0
 48 47  1  1  0  0  0
 48 52  1  0  0  0  0
 48 49  1  0  0  0  0
 49 51  1  0  0  0  0
 50 49  2  0  0  0  0
 53 54  1  1  0  0  0
 53 52  1  0  0  0  0
 55 56  2  0  0  0  0
 56 53  1  0  0  0  0
M  END
>  <MODEL>
1

>  <REMARK>
 VINA RESULT:      -8.0      0.000      0.000
  Name = 
  19 active torsions:
  status: ('A' for Active; 'I' for Inactive)
    1  A    between atoms: C_4  and  C_28
    2  A    between atoms: C_4  and  C_46
    3  A    between atoms: C_6  and  C_15
    4  A    between atoms: C_6  and  C_39
    5  A    between atoms: C_10  and  C_23
    6  A    between atoms: C_10  and  C_28
    7  A    between atoms: C_11  and  C_50
    8  A    between atoms: N_13  and  C_40
    9  A    between atoms: C_14  and  C_36
   10  A    between atoms: C_14  and  C_46
   11  A    between atoms: C_16  and  C_36
   12  A    between atoms: C_17  and  C_53
   13  A    between atoms: C_19  and  C_30
   14  A    between atoms: C_19  and  C_56
   15  A    between atoms: C_23  and  C_40
   16  A    between atoms: N_24  and  C_40
   17  A    between atoms: C_28  and  C_56
   18  A    between atoms: N_32  and  C_50
   19  A    between atoms: C_37  and  C_46
                            x       y       z     vdW  Elec       q    Type
                         _______ _______ _______ _____ _____    ______ ____

>  <TORSDO>
F 19

$$$$
=
 OpenBabel11042410593D

 56 61  0  0  1  0  0  0  0  0999 V2000
  182.1060  178.0030  139.1540 C   0  0  0  0  0  2  0  0  0  0  0  0
  181.2010  176.8620  138.6720 C   0  0  1  0  0  3  0  0  0  0  0  0
  184.0090  178.4300  141.6850 C   0  0  0  0  0  3  0  0  0  0  0  0
  183.8810  179.2350  143.9970 C   0  0  0  0  0  0  0  0  0  0  0  0
  180.4930  178.7510  141.0430 C   0  0  0  0  0  0  0  0  0  0  0  0
  179.3140  178.6650  138.8310 C   0  0  0  0  0  2  0  0  0  0  0  0
  182.4920  179.4140  143.8730 C   0  0  0  0  0  3  0  0  0  0  0  0
  184.6440  178.7400  142.9070 C   0  0  0  0  0  0  0  0  0  0  0  0
  182.6340  178.6370  141.5910 C   0  0  0  0  0  0  0  0  0  0  0  0
  180.5930  179.1650  142.3290 N   0  0  0  0  0  0  0  0  0  0  0  0
  179.1800  178.5360  140.3430 C   0  0  0  0  0  2  0  0  0  0  0  0
  179.8170  177.3650  138.1940 C   0  0  0  0  0  2  0  0  0  0  0  0
  181.7550  178.4130  140.5500 C   0  0  0  0  0  0  0  0  0  0  0  0
  181.8990  179.0990  142.6510 C   0  0  0  0  0  0  0  0  0  0  0  0
  184.5110  179.5620  145.2360 N   0  0  0  0  0  1  0  0  0  0  0  0
  181.8860  176.0700  137.5430 C   0  0  1  0  0  3  0  0  0  0  0  0
  182.9180  176.8270  136.9730 O   0  0  0  0  0  1  0  0  0  0  0  0
  185.0660  171.8840  135.2960 C   0  0  0  0  0  2  0  0  0  0  0  0
  182.0970  173.5820  137.0520 C   0  0  0  0  0  2  0  0  0  0  0  0
  183.8760  174.8090  138.0990 O   0  0  0  0  0  0  0  0  0  0  0  0
  185.7630  173.6270  137.0420 C   0  0  0  0  0  2  0  0  0  0  0  0
  183.4180  172.9420  136.7990 C   0  0  2  0  0  3  0  0  0  0  0  0
  182.4610  174.7210  138.0120 C   0  0  1  0  0  3  0  0  0  0  0  0
  184.3250  174.1100  136.9740 C   0  0  1  0  0  3  0  0  0  0  0  0
  183.6210  172.3950  135.4000 C   0  0  0  0  0  2  0  0  0  0  0  0
  186.0960  172.9760  135.6810 C   0  0  1  0  0  3  0  0  0  0  0  0
  188.3660  173.3940  134.6990 C   0  0  0  0  0  1  0  0  0  0  0  0
  187.5510  172.4790  135.5930 C   0  0  0  0  0  0  0  0  0  0  0  0
  188.1930  172.4920  136.9700 C   0  0  0  0  0  1  0  0  0  0  0  0
  187.6170  171.0660  135.0360 C   0  0  0  0  0  1  0  0  0  0  0  0
  179.4940  179.5260  143.2190 C   0  0  0  0  0  2  0  0  0  0  0  0
  179.6830  177.2980  144.0320 O   0  0  0  0  0  1  0  0  0  0  0  0
  179.4940  178.6210  144.4370 C   0  0  0  0  0  2  0  0  0  0  0  0
  186.0980  178.4340  143.0960 C   0  0  0  0  0  2  0  0  0  0  0  0
  186.3210  177.0990  143.7940 C   0  0  0  0  0  2  0  0  0  0  0  0
  187.7740  176.9370  144.2230 C   0  0  1  0  0  3  0  0  0  0  0  0
  188.6660  176.6130  143.0450 C   0  0  0  0  0  0  0  0  0  0  0  0
  188.9820  175.4530  142.8420 O   0  0  0  0  0  0  0  0  0  0  0  0
  189.2330  177.6870  142.1640 C   0  0  0  0  0  2  0  0  0  0  0  0
  188.7480  177.5450  140.7290 C   0  0  2  0  0  3  0  0  0  0  0  0
  190.1320  175.7520  137.5390 C   0  0  0  0  0  2  0  0  0  0  0  0
  189.8300  177.0220  139.9320 N   0  0  0  0  0  0  0  0  0  0  0  0
  189.6310  176.4630  138.7950 C   0  0  0  0  0  0  0  0  0  0  0  0
  188.7300  175.9870  137.6560 C   0  0  0  0  0  2  0  0  0  0  0  0
  188.3360  178.8460  140.2180 N   0  0  0  0  0  2  0  0  0  0  0  0
  187.2760  178.6190  139.3270 N   0  0  0  0  0  1  0  0  0  0  0  0
  188.2090  178.2100  144.9360 C   0  0  0  0  0  2  0  0  0  0  0  0
  188.9050  177.8840  146.2460 C   0  0  1  0  0  3  0  0  0  0  0  0
  187.9200  177.6320  147.3490 C   0  0  0  0  0  0  0  0  0  0  0  0
  186.7590  178.3830  147.4560 O   0  0  0  0  0  0  0  0  0  0  0  0
  188.1370  176.7190  148.1860 O   0  0  0  0  0  1  0  0  0  0  0  0
  189.7830  176.6620  146.0300 C   0  0  0  0  0  2  0  0  0  0  0  0
  191.2280  177.0870  145.8300 C   0  0  1  0  0  3  0  0  0  0  0  0
  191.9640  176.8060  146.9820 O   0  0  0  0  0  1  0  0  0  0  0  0
  192.0550  175.1450  144.7830 O   0  0  0  0  0  0  0  0  0  0  0  0
  191.8160  176.3380  144.6810 C   0  0  0  0  0  3  0  0  0  0  0  0
  1 13  1  0  0  0  0
  2 16  1  6  0  0  0
  2  1  1  0  0  0  0
  3  8  1  0  0  0  0
  4 15  1  0  0  0  0
  5 10  1  0  0  0  0
  6 11  1  0  0  0  0
  7  4  1  0  0  0  0
  8 34  1  0  0  0  0
  8  4  2  0  0  0  0
  9  3  2  0  0  0  0
  9 14  1  0  0  0  0
 10 14  1  0  0  0  0
 10 31  1  0  0  0  0
 11  5  1  0  0  0  0
 12  2  1  0  0  0  0
 12  6  1  0  0  0  0
 13  5  2  0  0  0  0
 13  9  1  0  0  0  0
 14  7  2  0  0  0  0
 16 17  1  1  0  0  0
 18 25  1  0  0  0  0
 18 26  1  0  0  0  0
 19 23  1  0  0  0  0
 22 25  1  6  0  0  0
 22 24  1  0  0  0  0
 22 19  1  0  0  0  0
 23 16  1  6  0  0  0
 23 20  1  0  0  0  0
 24 21  1  1  0  0  0
 24 20  1  0  0  0  0
 26 28  1  1  0  0  0
 26 21  1  0  0  0  0
 27 28  1  0  0  0  0
 28 29  1  0  0  0  0
 30 28  1  0  0  0  0
 31 33  1  0  0  0  0
 32 33  1  0  0  0  0
 34 35  1  0  0  0  0
 36 35  1  6  0  0  0
 36 47  1  0  0  0  0
 37 36  1  0  0  0  0
 38 37  2  0  0  0  0
 39 37  1  0  0  0  0
 40 39  1  1  0  0  0
 41 44  1  0  0  0  0
 41 43  1  0  0  0  0
 42 40  1  0  0  0  0
 43 42  2  0  0  0  0
 44 43  1  0  0  0  0
 45 40  1  0  0  0  0
 46 45  1  0  0  0  0
 48 47  1  6  0  0  0
 48 49  1  0  0  0  0
 49 50  2  0  0  0  0
 49 51  1  0  0  0  0
 52 48  1  0  0  0  0
 53 52  1  0  0  0  0
 53 54  1  1  0  0  0
 56 55  2  0  0  0  0
 56 53  1  0  0  0  0
M  END
>  <MODEL>
2

>  <REMARK>
 VINA RESULT:      -7.8      2.776      8.370
  Name = 
  19 active torsions:
  status: ('A' for Active; 'I' for Inactive)
    1  A    between atoms: C_4  and  C_28
    2  A    between atoms: C_4  and  C_46
    3  A    between atoms: C_6  and  C_15
    4  A    between atoms: C_6  and  C_39
    5  A    between atoms: C_10  and  C_23
    6  A    between atoms: C_10  and  C_28
    7  A    between atoms: C_11  and  C_50
    8  A    between atoms: N_13  and  C_40
    9  A    between atoms: C_14  and  C_36
   10  A    between atoms: C_14  and  C_46
   11  A    between atoms: C_16  and  C_36
   12  A    between atoms: C_17  and  C_53
   13  A    between atoms: C_19  and  C_30
   14  A    between atoms: C_19  and  C_56
   15  A    between atoms: C_23  and  C_40
   16  A    between atoms: N_24  and  C_40
   17  A    between atoms: C_28  and  C_56
   18  A    between atoms: N_32  and  C_50
   19  A    between atoms: C_37  and  C_46
                            x       y       z     vdW  Elec       q    Type
                         _______ _______ _______ _____ _____    ______ ____

>  <TORSDO>
F 19

$$$$
=
 OpenBabel11042410593D

 56 61  0  0  1  0  0  0  0  0999 V2000
  188.2670  177.7720  138.5070 C   0  0  0  0  0  2  0  0  0  0  0  0
  189.3020  176.9070  139.2370 C   0  0  1  0  0  3  0  0  0  0  0  0
  185.1180  177.5470  138.0120 C   0  0  0  0  0  3  0  0  0  0  0  0
  183.5500  176.5410  136.4190 C   0  0  0  0  0  0  0  0  0  0  0  0
  188.0540  176.1600  136.4850 C   0  0  0  0  0  0  0  0  0  0  0  0
  190.4480  176.7900  136.8900 C   0  0  0  0  0  2  0  0  0  0  0  0
  184.6160  175.9440  135.7240 C   0  0  0  0  0  3  0  0  0  0  0  0
  183.7950  177.3400  137.5660 C   0  0  0  0  0  0  0  0  0  0  0  0
  186.1520  176.9570  137.2890 C   0  0  0  0  0  0  0  0  0  0  0  0
  187.0620  175.6770  135.7000 N   0  0  0  0  0  0  0  0  0  0  0  0
  189.4900  175.7300  136.3630 C   0  0  0  0  0  2  0  0  0  0  0  0
  190.5980  176.7120  138.4130 C   0  0  0  0  0  2  0  0  0  0  0  0
  187.5180  176.9680  137.4900 C   0  0  0  0  0  0  0  0  0  0  0  0
  185.9100  176.1720  136.1920 C   0  0  0  0  0  0  0  0  0  0  0  0
  182.2170  176.3300  135.9510 N   0  0  0  0  0  1  0  0  0  0  0  0
  189.6450  177.5170  140.6090 C   0  0  1  0  0  3  0  0  0  0  0  0
  188.6900  178.4780  140.9670 O   0  0  0  0  0  1  0  0  0  0  0  0
  190.4530  177.5280  146.2680 C   0  0  0  0  0  2  0  0  0  0  0  0
  191.0110  176.6420  142.5680 C   0  0  0  0  0  2  0  0  0  0  0  0
  188.6100  176.5830  142.5890 O   0  0  0  0  0  0  0  0  0  0  0  0
  188.2860  177.0420  144.9880 C   0  0  0  0  0  2  0  0  0  0  0  0
  190.4810  176.6500  143.9610 C   0  0  2  0  0  3  0  0  0  0  0  0
  189.7380  176.4690  141.7320 C   0  0  1  0  0  3  0  0  0  0  0  0
  189.1200  177.2100  143.7310 C   0  0  1  0  0  3  0  0  0  0  0  0
  191.2070  177.5640  144.9300 C   0  0  0  0  0  2  0  0  0  0  0  0
  188.9550  177.8810  146.1010 C   0  0  1  0  0  3  0  0  0  0  0  0
  186.8060  178.4570  147.2590 C   0  0  0  0  0  1  0  0  0  0  0  0
  188.1810  177.8400  147.4320 C   0  0  0  0  0  0  0  0  0  0  0  0
  187.9850  176.4020  147.8790 C   0  0  0  0  0  1  0  0  0  0  0  0
  188.9230  178.5950  148.5220 C   0  0  0  0  0  1  0  0  0  0  0  0
  187.2020  174.7340  134.5950 C   0  0  0  0  0  2  0  0  0  0  0  0
  185.6230  172.9550  134.6280 O   0  0  0  0  0  1  0  0  0  0  0  0
  186.8940  173.3270  135.0710 C   0  0  0  0  0  2  0  0  0  0  0  0
  182.6420  177.8610  138.3690 C   0  0  0  0  0  2  0  0  0  0  0  0
  182.5150  179.3760  138.2820 C   0  0  0  0  0  2  0  0  0  0  0  0
  181.8730  179.9480  139.5390 C   0  0  1  0  0  3  0  0  0  0  0  0
  180.8290  180.9900  139.2020 C   0  0  0  0  0  0  0  0  0  0  0  0
  179.6630  180.7760  139.4880 O   0  0  0  0  0  0  0  0  0  0  0  0
  181.1780  182.2460  138.4590 C   0  0  0  0  0  2  0  0  0  0  0  0
  180.2240  182.4910  137.2990 C   0  0  2  0  0  3  0  0  0  0  0  0
  180.7360  179.5310  134.7940 C   0  0  0  0  0  2  0  0  0  0  0  0
  180.7990  181.9180  136.1080 N   0  0  0  0  0  0  0  0  0  0  0  0
  180.5540  180.7130  135.7440 C   0  0  0  0  0  0  0  0  0  0  0  0
  179.8750  179.3540  135.9170 C   0  0  0  0  0  2  0  0  0  0  0  0
  180.0270  183.9240  137.1190 N   0  0  0  0  0  2  0  0  0  0  0  0
  181.1850  184.4230  136.5040 N   0  0  0  0  0  1  0  0  0  0  0  0
  181.2910  178.7970  140.3480 C   0  0  0  0  0  2  0  0  0  0  0  0
  181.4920  179.0270  141.8360 C   0  0  1  0  0  3  0  0  0  0  0  0
  180.2950  178.5970  142.6300 C   0  0  0  0  0  0  0  0  0  0  0  0
  180.1340  178.9910  143.9500 O   0  0  0  0  0  1  0  0  0  0  0  0
  179.4110  177.8800  142.0940 O   0  0  0  0  0  0  0  0  0  0  0  0
  182.7250  178.2550  142.2770 C   0  0  0  0  0  2  0  0  0  0  0  0
  183.6480  179.1590  143.0770 C   0  0  1  0  0  3  0  0  0  0  0  0
  183.8630  178.6110  144.3420 O   0  0  0  0  0  1  0  0  0  0  0  0
  184.9900  179.5650  141.1830 O   0  0  0  0  0  0  0  0  0  0  0  0
  184.9570  179.2880  142.3720 C   0  0  0  0  0  3  0  0  0  0  0  0
  1  2  1  0  0  0  0
  2 16  1  1  0  0  0
  4  8  2  0  0  0  0
  5 13  2  0  0  0  0
  6 12  1  0  0  0  0
  7 14  2  0  0  0  0
  7  4  1  0  0  0  0
  8  3  1  0  0  0  0
  8 34  1  0  0  0  0
  9 13  1  0  0  0  0
  9  3  2  0  0  0  0
 10 14  1  0  0  0  0
 10  5  1  0  0  0  0
 11  5  1  0  0  0  0
 11  6  1  0  0  0  0
 12  2  1  0  0  0  0
 13  1  1  0  0  0  0
 14  9  1  0  0  0  0
 15  4  1  0  0  0  0
 16 17  1  1  0  0  0
 20 24  1  0  0  0  0
 21 26  1  0  0  0  0
 22 19  1  6  0  0  0
 22 25  1  0  0  0  0
 23 16  1  6  0  0  0
 23 19  1  0  0  0  0
 23 20  1  0  0  0  0
 24 22  1  0  0  0  0
 24 21  1  1  0  0  0
 25 18  1  0  0  0  0
 26 18  1  0  0  0  0
 26 28  1  1  0  0  0
 27 28  1  0  0  0  0
 28 29  1  0  0  0  0
 28 30  1  0  0  0  0
 31 33  1  0  0  0  0
 31 10  1  0  0  0  0
 32 33  1  0  0  0  0
 35 34  1  0  0  0  0
 36 35  1  6  0  0  0
 36 47  1  0  0  0  0
 37 38  2  0  0  0  0
 37 36  1  0  0  0  0
 39 37  1  0  0  0  0
 40 39  1  1  0  0  0
 41 43  1  0  0  0  0
 41 44  1  0  0  0  0
 42 40  1  0  0  0  0
 43 44  1  0  0  0  0
 43 42  2  0  0  0  0
 45 40  1  0  0  0  0
 46 45  1  0  0  0  0
 48 47  1  6  0  0  0
 48 52  1  0  0  0  0
 48 49  1  0  0  0  0
 49 50  1  0  0  0  0
 51 49  2  0  0  0  0
 52 53  1  0  0  0  0
 53 54  1  1  0  0  0
 55 56  2  0  0  0  0
 56 53  1  0  0  0  0
M  END
>  <MODEL>
3

>  <REMARK>
 VINA RESULT:      -7.8      2.978      7.873
  Name = 
  19 active torsions:
  status: ('A' for Active; 'I' for Inactive)
    1  A    between atoms: C_4  and  C_28
    2  A    between atoms: C_4  and  C_46
    3  A    between atoms: C_6  and  C_15
    4  A    between atoms: C_6  and  C_39
    5  A    between atoms: C_10  and  C_23
    6  A    between atoms: C_10  and  C_28
    7  A    between atoms: C_11  and  C_50
    8  A    between atoms: N_13  and  C_40
    9  A    between atoms: C_14  and  C_36
   10  A    between atoms: C_14  and  C_46
   11  A    between atoms: C_16  and  C_36
   12  A    between atoms: C_17  and  C_53
   13  A    between atoms: C_19  and  C_30
   14  A    between atoms: C_19  and  C_56
   15  A    between atoms: C_23  and  C_40
   16  A    between atoms: N_24  and  C_40
   17  A    between atoms: C_28  and  C_56
   18  A    between atoms: N_32  and  C_50
   19  A    between atoms: C_37  and  C_46
                            x       y       z     vdW  Elec       q    Type
                         _______ _______ _______ _____ _____    ______ ____

>  <TORSDO>
F 19

$$$$
=
 OpenBabel11042410593D

 56 61  0  0  1  0  0  0  0  0999 V2000
  188.6040  176.6240  144.0900 C   0  0  0  0  0  2  0  0  0  0  0  0
  190.0010  177.2010  144.3540 C   0  0  1  0  0  3  0  0  0  0  0  0
  185.8670  177.8250  142.9590 C   0  0  0  0  0  3  0  0  0  0  0  0
  183.8640  178.9810  143.7710 C   0  0  0  0  0  0  0  0  0  0  0  0
  187.5210  177.7810  146.1440 C   0  0  0  0  0  0  0  0  0  0  0  0
  189.5390  176.4530  146.8160 C   0  0  0  0  0  2  0  0  0  0  0  0
  184.3980  179.0230  145.0710 C   0  0  0  0  0  3  0  0  0  0  0  0
  184.5970  178.3850  142.7110 C   0  0  0  0  0  0  0  0  0  0  0  0
  186.3580  177.8660  144.2620 C   0  0  0  0  0  0  0  0  0  0  0  0
  186.3580  178.4160  146.4280 N   0  0  0  0  0  0  0  0  0  0  0  0
  188.6560  177.6550  147.1220 C   0  0  0  0  0  2  0  0  0  0  0  0
  190.5700  176.7700  145.7270 C   0  0  0  0  0  2  0  0  0  0  0  0
  187.5520  177.4230  144.7940 C   0  0  0  0  0  0  0  0  0  0  0  0
  185.6550  178.4570  145.2800 C   0  0  0  0  0  0  0  0  0  0  0  0
  182.5730  179.5450  143.5360 N   0  0  0  0  0  1  0  0  0  0  0  0
  190.9750  176.7890  143.2350 C   0  0  1  0  0  3  0  0  0  0  0  0
  190.6220  175.5360  142.7170 O   0  0  0  0  0  1  0  0  0  0  0  0
  189.5210  176.9010  137.7060 C   0  0  0  0  0  2  0  0  0  0  0  0
  191.7250  177.2200  140.8410 C   0  0  0  0  0  2  0  0  0  0  0  0
  189.7150  178.1970  141.7200 O   0  0  0  0  0  0  0  0  0  0  0  0
  188.3620  178.0820  139.6640 C   0  0  0  0  0  2  0  0  0  0  0  0
  190.7500  177.5210  139.7550 C   0  0  2  0  0  3  0  0  0  0  0  0
  191.0320  177.8040  142.0780 C   0  0  1  0  0  3  0  0  0  0  0  0
  189.4740  177.5120  140.5250 C   0  0  1  0  0  3  0  0  0  0  0  0
  190.6470  176.4760  138.6620 C   0  0  0  0  0  2  0  0  0  0  0  0
  188.1850  177.1380  138.4520 C   0  0  1  0  0  3  0  0  0  0  0  0
  185.9500  178.2670  138.2990 C   0  0  0  0  0  1  0  0  0  0  0  0
  187.0470  177.5750  137.5120 C   0  0  0  0  0  0  0  0  0  0  0  0
  187.5680  178.5650  136.4840 C   0  0  0  0  0  1  0  0  0  0  0  0
  186.4480  176.3830  136.7840 C   0  0  0  0  0  1  0  0  0  0  0  0
  185.9800  179.0170  147.7020 C   0  0  0  0  0  2  0  0  0  0  0  0
  185.7260  181.1400  148.7460 O   0  0  0  0  0  1  0  0  0  0  0  0
  186.4310  180.4650  147.7480 C   0  0  0  0  0  2  0  0  0  0  0  0
  184.0710  178.4640  141.3100 C   0  0  0  0  0  2  0  0  0  0  0  0
  183.2080  177.2630  140.9490 C   0  0  0  0  0  2  0  0  0  0  0  0
  182.1570  177.6310  139.9090 C   0  0  1  0  0  3  0  0  0  0  0  0
  182.1650  176.6630  138.7470 C   0  0  0  0  0  0  0  0  0  0  0  0
  183.2300  176.2220  138.3480 O   0  0  0  0  0  0  0  0  0  0  0  0
  180.9050  176.2860  138.0240 C   0  0  0  0  0  2  0  0  0  0  0  0
  180.5880  174.8070  138.1890 C   0  0  2  0  0  3  0  0  0  0  0  0
  180.1000  171.7380  135.8130 C   0  0  0  0  0  2  0  0  0  0  0  0
  180.4460  174.2230  136.8790 N   0  0  0  0  0  0  0  0  0  0  0  0
  180.2820  172.9620  136.7080 C   0  0  0  0  0  0  0  0  0  0  0  0
  180.1290  171.5310  137.2240 C   0  0  0  0  0  2  0  0  0  0  0  0
  179.3500  174.6500  138.9430 N   0  0  0  0  0  2  0  0  0  0  0  0
  179.6920  174.0790  140.1770 N   0  0  0  0  0  1  0  0  0  0  0  0
  180.8010  177.6880  140.5970 C   0  0  0  0  0  2  0  0  0  0  0  0
  180.1560  179.0510  140.4070 C   0  0  1  0  0  3  0  0  0  0  0  0
  179.6690  179.6190  141.7060 C   0  0  0  0  0  0  0  0  0  0  0  0
  179.6770  180.9870  141.9350 O   0  0  0  0  0  0  0  0  0  0  0  0
  179.2330  178.8520  142.6030 O   0  0  0  0  0  1  0  0  0  0  0  0
  181.1780  179.9790  139.7720 C   0  0  0  0  0  2  0  0  0  0  0  0
  180.5250  180.8010  138.6740 C   0  0  1  0  0  3  0  0  0  0  0  0
  181.3250  181.9040  138.3740 O   0  0  0  0  0  1  0  0  0  0  0  0
  181.1850  180.0400  136.5430 O   0  0  0  0  0  0  0  0  0  0  0  0
  180.3680  179.9650  137.4480 C   0  0  0  0  0  3  0  0  0  0  0  0
  1  2  1  0  0  0  0
  1 13  1  0  0  0  0
  2 16  1  6  0  0  0
  2 12  1  0  0  0  0
  3  9  1  0  0  0  0
  4  7  2  0  0  0  0
  5 10  1  0  0  0  0
  5 11  1  0  0  0  0
  6 11  1  0  0  0  0
  7 14  1  0  0  0  0
  8  3  2  0  0  0  0
  8  4  1  0  0  0  0
  9 13  1  0  0  0  0
  9 14  2  0  0  0  0
 10 31  1  0  0  0  0
 12  6  1  0  0  0  0
 13  5  2  0  0  0  0
 14 10  1  0  0  0  0
 15  4  1  0  0  0  0
 16 17  1  6  0  0  0
 18 26  1  0  0  0  0
 18 25  1  0  0  0  0
 19 23  1  0  0  0  0
 20 23  1  0  0  0  0
 22 25  1  6  0  0  0
 22 24  1  0  0  0  0
 22 19  1  0  0  0  0
 23 16  1  1  0  0  0
 24 21  1  6  0  0  0
 24 20  1  0  0  0  0
 26 28  1  6  0  0  0
 26 21  1  0  0  0  0
 28 27  1  0  0  0  0
 29 28  1  0  0  0  0
 30 28  1  0  0  0  0
 31 33  1  0  0  0  0
 33 32  1  0  0  0  0
 34  8  1  0  0  0  0
 35 34  1  0  0  0  0
 36 47  1  1  0  0  0
 36 35  1  0  0  0  0
 37 36  1  0  0  0  0
 38 37  2  0  0  0  0
 39 37  1  0  0  0  0
 40 39  1  6  0  0  0
 40 45  1  0  0  0  0
 41 43  1  0  0  0  0
 41 44  1  0  0  0  0
 42 40  1  0  0  0  0
 43 42  2  0  0  0  0
 43 44  1  0  0  0  0
 45 46  1  0  0  0  0
 48 52  1  1  0  0  0
 48 47  1  0  0  0  0
 48 49  1  0  0  0  0
 49 50  2  0  0  0  0
 49 51  1  0  0  0  0
 53 54  1  6  0  0  0
 53 52  1  0  0  0  0
 55 56  2  0  0  0  0
 56 53  1  0  0  0  0
M  END
>  <MODEL>
4

>  <REMARK>
 VINA RESULT:      -7.8      2.484      4.113
  Name = 
  19 active torsions:
  status: ('A' for Active; 'I' for Inactive)
    1  A    between atoms: C_4  and  C_28
    2  A    between atoms: C_4  and  C_46
    3  A    between atoms: C_6  and  C_15
    4  A    between atoms: C_6  and  C_39
    5  A    between atoms: C_10  and  C_23
    6  A    between atoms: C_10  and  C_28
    7  A    between atoms: C_11  and  C_50
    8  A    between atoms: N_13  and  C_40
    9  A    between atoms: C_14  and  C_36
   10  A    between atoms: C_14  and  C_46
   11  A    between atoms: C_16  and  C_36
   12  A    between atoms: C_17  and  C_53
   13  A    between atoms: C_19  and  C_30
   14  A    between atoms: C_19  and  C_56
   15  A    between atoms: C_23  and  C_40
   16  A    between atoms: N_24  and  C_40
   17  A    between atoms: C_28  and  C_56
   18  A    between atoms: N_32  and  C_50
   19  A    between atoms: C_37  and  C_46
                            x       y       z     vdW  Elec       q    Type
                         _______ _______ _______ _____ _____    ______ ____

>  <TORSDO>
F 19

$$$$
=
 OpenBabel11042410593D

 56 61  0  0  1  0  0  0  0  0999 V2000
  188.9380  176.8150  141.8840 C   0  0  0  0  0  2  0  0  0  0  0  0
  190.2420  177.4880  141.4360 C   0  0  1  0  0  3  0  0  0  0  0  0
  186.0990  177.8870  142.8840 C   0  0  0  0  0  3  0  0  0  0  0  0
  184.9910  178.5680  144.9620 C   0  0  0  0  0  0  0  0  0  0  0  0
  189.3040  177.3320  144.4000 C   0  0  0  0  0  0  0  0  0  0  0  0
  191.2880  176.1500  143.4230 C   0  0  0  0  0  2  0  0  0  0  0  0
  186.1880  178.3810  145.6780 C   0  0  0  0  0  3  0  0  0  0  0  0
  184.9430  178.3250  143.5640 C   0  0  0  0  0  0  0  0  0  0  0  0
  187.2620  177.6940  143.6260 C   0  0  0  0  0  0  0  0  0  0  0  0
  188.5500  177.7340  145.4510 N   0  0  0  0  0  0  0  0  0  0  0  0
  190.7920  177.1310  144.4770 C   0  0  0  0  0  2  0  0  0  0  0  0
  191.4940  176.8320  142.0660 C   0  0  0  0  0  2  0  0  0  0  0  0
  188.5250  177.2950  143.2400 C   0  0  0  0  0  0  0  0  0  0  0  0
  187.3090  177.9450  144.9730 C   0  0  0  0  0  0  0  0  0  0  0  0
  183.8270  179.0040  145.6650 N   0  0  0  0  0  1  0  0  0  0  0  0
  190.3600  177.4660  139.9000 C   0  0  1  0  0  3  0  0  0  0  0  0
  191.6360  177.8850  139.5020 O   0  0  0  0  0  1  0  0  0  0  0  0
  191.7450  174.6570  135.1170 C   0  0  0  0  0  2  0  0  0  0  0  0
  189.5300  176.1850  137.8640 C   0  0  0  0  0  2  0  0  0  0  0  0
  191.2810  175.3200  139.2610 O   0  0  0  0  0  0  0  0  0  0  0  0
  192.6230  174.2530  137.4910 C   0  0  0  0  0  2  0  0  0  0  0  0
  190.4140  175.2530  137.1090 C   0  0  2  0  0  3  0  0  0  0  0  0
  190.0820  176.0800  139.2910 C   0  0  1  0  0  3  0  0  0  0  0  0
  191.6630  175.3490  137.9160 C   0  0  1  0  0  3  0  0  0  0  0  0
  190.7400  175.6690  135.6880 C   0  0  0  0  0  2  0  0  0  0  0  0
  192.9990  174.5150  136.0150 C   0  0  1  0  0  3  0  0  0  0  0  0
  193.3100  172.4710  134.5940 C   0  0  0  0  0  1  0  0  0  0  0  0
  194.0130  173.4960  135.4630 C   0  0  0  0  0  0  0  0  0  0  0  0
  195.0450  174.2000  134.5980 C   0  0  0  0  0  1  0  0  0  0  0  0
  194.7320  172.7710  136.5900 C   0  0  0  0  0  1  0  0  0  0  0  0
  189.0110  177.9790  146.8130 C   0  0  0  0  0  2  0  0  0  0  0  0
  187.9640  177.1980  148.8020 O   0  0  0  0  0  1  0  0  0  0  0  0
  188.6980  176.7810  147.6900 C   0  0  0  0  0  2  0  0  0  0  0  0
  183.6980  178.6520  142.7970 C   0  0  0  0  0  2  0  0  0  0  0  0
  183.6070  177.8790  141.4890 C   0  0  0  0  0  2  0  0  0  0  0  0
  183.2300  178.7960  140.3310 C   0  0  1  0  0  3  0  0  0  0  0  0
  184.4530  179.2580  139.5710 C   0  0  0  0  0  0  0  0  0  0  0  0
  184.4490  180.3620  139.0530 O   0  0  0  0  0  0  0  0  0  0  0  0
  185.6440  178.3660  139.3720 C   0  0  0  0  0  2  0  0  0  0  0  0
  186.0130  178.2490  137.9010 C   0  0  2  0  0  3  0  0  0  0  0  0
  185.9060  175.4490  135.1700 C   0  0  0  0  0  2  0  0  0  0  0  0
  185.8070  176.8830  137.4860 N   0  0  0  0  0  0  0  0  0  0  0  0
  185.9460  176.5120  136.2660 C   0  0  0  0  0  0  0  0  0  0  0  0
  186.2660  176.7770  134.7950 C   0  0  0  0  0  2  0  0  0  0  0  0
  187.4100  178.6220  137.7130 N   0  0  0  0  0  2  0  0  0  0  0  0
  187.4270  179.7190  136.8400 N   0  0  0  0  0  1  0  0  0  0  0  0
  182.2450  178.0580  139.4350 C   0  0  0  0  0  2  0  0  0  0  0  0
  180.8140  178.4320  139.7830 C   0  0  1  0  0  3  0  0  0  0  0  0
  180.3750  179.6710  139.0610 C   0  0  0  0  0  0  0  0  0  0  0  0
  180.4100  180.9110  139.6810 O   0  0  0  0  0  1  0  0  0  0  0  0
  179.9780  179.5940  137.8690 O   0  0  0  0  0  0  0  0  0  0  0  0
  179.9120  177.2620  139.4260 C   0  0  0  0  0  2  0  0  0  0  0  0
  180.7260  176.1530  138.7830 C   0  0  1  0  0  3  0  0  0  0  0  0
  180.7540  175.0410  139.6250 O   0  0  0  0  0  1  0  0  0  0  0  0
  179.3140  176.5150  136.9320 O   0  0  0  0  0  0  0  0  0  0  0  0
  180.1060  175.7650  137.4830 C   0  0  0  0  0  3  0  0  0  0  0  0
  1 13  1  0  0  0  0
  2 16  1  6  0  0  0
  2  1  1  0  0  0  0
  2 12  1  0  0  0  0
  3  8  2  0  0  0  0
  3  9  1  0  0  0  0
  4 15  1  0  0  0  0
  4  7  2  0  0  0  0
  5 11  1  0  0  0  0
  5 10  1  0  0  0  0
  6 11  1  0  0  0  0
  8  4  1  0  0  0  0
  9 14  2  0  0  0  0
 10 31  1  0  0  0  0
 12  6  1  0  0  0  0
 13  9  1  0  0  0  0
 13  5  2  0  0  0  0
 14 10  1  0  0  0  0
 14  7  1  0  0  0  0
 16 17  1  1  0  0  0
 18 25  1  0  0  0  0
 18 26  1  0  0  0  0
 19 23  1  0  0  0  0
 20 23  1  0  0  0  0
 22 25  1  6  0  0  0
 22 19  1  0  0  0  0
 22 24  1  0  0  0  0
 23 16  1  6  0  0  0
 24 21  1  1  0  0  0
 24 20  1  0  0  0  0
 26 28  1  6  0  0  0
 26 21  1  0  0  0  0
 27 28  1  0  0  0  0
 28 30  1  0  0  0  0
 29 28  1  0  0  0  0
 31 33  1  0  0  0  0
 33 32  1  0  0  0  0
 34  8  1  0  0  0  0
 35 34  1  0  0  0  0
 36 47  1  6  0  0  0
 36 35  1  0  0  0  0
 37 36  1  0  0  0  0
 38 37  2  0  0  0  0
 39 37  1  0  0  0  0
 40 39  1  1  0  0  0
 41 43  1  0  0  0  0
 42 40  1  0  0  0  0
 43 42  2  0  0  0  0
 44 41  1  0  0  0  0
 44 43  1  0  0  0  0
 45 40  1  0  0  0  0
 46 45  1  0  0  0  0
 47 48  1  0  0  0  0
 48 52  1  6  0  0  0
 49 50  1  0  0  0  0
 49 48  1  0  0  0  0
 51 49  2  0  0  0  0
 53 52  1  0  0  0  0
 53 54  1  1  0  0  0
 55 56  2  0  0  0  0
 56 53  1  0  0  0  0
M  END
>  <MODEL>
5

>  <REMARK>
 VINA RESULT:      -7.8      1.324      2.368
  Name = 
  19 active torsions:
  status: ('A' for Active; 'I' for Inactive)
    1  A    between atoms: C_4  and  C_28
    2  A    between atoms: C_4  and  C_46
    3  A    between atoms: C_6  and  C_15
    4  A    between atoms: C_6  and  C_39
    5  A    between atoms: C_10  and  C_23
    6  A    between atoms: C_10  and  C_28
    7  A    between atoms: C_11  and  C_50
    8  A    between atoms: N_13  and  C_40
    9  A    between atoms: C_14  and  C_36
   10  A    between atoms: C_14  and  C_46
   11  A    between atoms: C_16  and  C_36
   12  A    between atoms: C_17  and  C_53
   13  A    between atoms: C_19  and  C_30
   14  A    between atoms: C_19  and  C_56
   15  A    between atoms: C_23  and  C_40
   16  A    between atoms: N_24  and  C_40
   17  A    between atoms: C_28  and  C_56
   18  A    between atoms: N_32  and  C_50
   19  A    between atoms: C_37  and  C_46
                            x       y       z     vdW  Elec       q    Type
                         _______ _______ _______ _____ _____    ______ ____

>  <TORSDO>
F 19

$$$$
=
 OpenBabel11042410593D

 56 61  0  0  1  0  0  0  0  0999 V2000
  188.3270  177.2130  142.6520 C   0  0  0  0  0  2  0  0  0  0  0  0
  189.6450  177.9980  142.6210 C   0  0  1  0  0  3  0  0  0  0  0  0
  185.2380  178.0290  142.6050 C   0  0  0  0  0  3  0  0  0  0  0  0
  183.4510  178.6490  144.1650 C   0  0  0  0  0  0  0  0  0  0  0  0
  187.7930  177.8220  145.1170 C   0  0  0  0  0  0  0  0  0  0  0  0
  190.0800  176.8160  144.9110 C   0  0  0  0  0  2  0  0  0  0  0  0
  184.3530  178.5960  145.2420 C   0  0  0  0  0  3  0  0  0  0  0  0
  183.8890  178.3700  142.8440 C   0  0  0  0  0  0  0  0  0  0  0  0
  186.1000  177.9670  143.6980 C   0  0  0  0  0  0  0  0  0  0  0  0
  186.7020  178.1750  145.8390 N   0  0  0  0  0  0  0  0  0  0  0  0
  189.1820  177.7690  145.6890 C   0  0  0  0  0  2  0  0  0  0  0  0
  190.6660  177.4810  143.6620 C   0  0  0  0  0  2  0  0  0  0  0  0
  187.4490  177.6830  143.7700 C   0  0  0  0  0  0  0  0  0  0  0  0
  185.6770  178.2540  144.9690 C   0  0  0  0  0  0  0  0  0  0  0  0
  182.0870  178.9870  144.4220 N   0  0  0  0  0  1  0  0  0  0  0  0
  190.2670  177.9520  141.2130 C   0  0  1  0  0  3  0  0  0  0  0  0
  191.6640  177.8940  141.2980 O   0  0  0  0  0  1  0  0  0  0  0  0
  190.8850  176.0970  135.8410 C   0  0  0  0  0  2  0  0  0  0  0  0
  189.1160  177.2190  139.0650 C   0  0  0  0  0  2  0  0  0  0  0  0
  190.8660  175.9090  140.0590 O   0  0  0  0  0  0  0  0  0  0  0  0
  191.9120  175.1150  137.9740 C   0  0  0  0  0  2  0  0  0  0  0  0
  189.8140  176.3850  138.0460 C   0  0  2  0  0  3  0  0  0  0  0  0
  189.7730  176.7600  140.3720 C   0  0  1  0  0  3  0  0  0  0  0  0
  191.1300  176.1850  138.7130 C   0  0  1  0  0  3  0  0  0  0  0  0
  190.0620  177.0590  136.7100 C   0  0  0  0  0  2  0  0  0  0  0  0
  192.1870  175.6440  136.5480 C   0  0  1  0  0  3  0  0  0  0  0  0
  194.1160  175.4200  134.9610 C   0  0  0  0  0  1  0  0  0  0  0  0
  193.0210  174.6700  135.6950 C   0  0  0  0  0  0  0  0  0  0  0  0
  193.6890  173.6360  136.5850 C   0  0  0  0  0  1  0  0  0  0  0  0
  192.1520  173.9510  134.6760 C   0  0  0  0  0  1  0  0  0  0  0  0
  186.6630  178.4950  147.2620 C   0  0  0  0  0  2  0  0  0  0  0  0
  188.3480  178.1580  148.9070 O   0  0  0  0  0  1  0  0  0  0  0  0
  187.4800  177.4850  148.0440 C   0  0  0  0  0  2  0  0  0  0  0  0
  182.9470  178.5570  141.6940 C   0  0  0  0  0  2  0  0  0  0  0  0
  183.6180  179.2240  140.5010 C   0  0  0  0  0  2  0  0  0  0  0  0
  183.2320  178.5370  139.1960 C   0  0  1  0  0  3  0  0  0  0  0  0
  182.4170  179.4520  138.3090 C   0  0  0  0  0  0  0  0  0  0  0  0
  182.0000  179.0290  137.2440 O   0  0  0  0  0  0  0  0  0  0  0  0
  182.1710  180.8880  138.6690 C   0  0  0  0  0  2  0  0  0  0  0  0
  180.8910  181.4100  138.0350 C   0  0  2  0  0  3  0  0  0  0  0  0
  180.9280  185.0490  136.5990 C   0  0  0  0  0  2  0  0  0  0  0  0
  180.8520  182.8420  138.1970 N   0  0  0  0  0  0  0  0  0  0  0  0
  180.9010  183.6440  137.1970 C   0  0  0  0  0  0  0  0  0  0  0  0
  180.9850  183.9430  135.7010 C   0  0  0  0  0  2  0  0  0  0  0  0
  179.7360  180.8030  138.6860 N   0  0  0  0  0  2  0  0  0  0  0  0
  179.3180  181.6890  139.6880 N   0  0  0  0  0  1  0  0  0  0  0  0
  184.5050  178.0600  138.5100 C   0  0  0  0  0  2  0  0  0  0  0  0
  184.1970  176.9640  137.5040 C   0  0  1  0  0  3  0  0  0  0  0  0
  185.4470  176.4220  136.8760 C   0  0  0  0  0  0  0  0  0  0  0  0
  186.2140  177.2010  136.0240 O   0  0  0  0  0  0  0  0  0  0  0  0
  185.8180  175.2470  137.1310 O   0  0  0  0  0  1  0  0  0  0  0  0
  183.4400  175.8570  138.2190 C   0  0  0  0  0  2  0  0  0  0  0  0
  182.2390  175.4290  137.3940 C   0  0  1  0  0  3  0  0  0  0  0  0
  181.9630  176.3970  136.4280 O   0  0  0  0  0  1  0  0  0  0  0  0
  182.6180  173.1040  137.3690 O   0  0  0  0  0  0  0  0  0  0  0  0
  182.5310  174.1330  136.7170 C   0  0  0  0  0  3  0  0  0  0  0  0
  1 13  1  0  0  0  0
  2 16  1  6  0  0  0
  2  1  1  0  0  0  0
  2 12  1  0  0  0  0
  3  8  2  0  0  0  0
  3  9  1  0  0  0  0
  4 15  1  0  0  0  0
  4  7  2  0  0  0  0
  5 11  1  0  0  0  0
  5 10  1  0  0  0  0
  6 11  1  0  0  0  0
  8  4  1  0  0  0  0
  9 13  1  0  0  0  0
  9 14  2  0  0  0  0
 10 31  1  0  0  0  0
 12  6  1  0  0  0  0
 13  5  2  0  0  0  0
 14  7  1  0  0  0  0
 14 10  1  0  0  0  0
 16 17  1  1  0  0  0
 18 26  1  0  0  0  0
 18 25  1  0  0  0  0
 19 23  1  0  0  0  0
 20 23  1  0  0  0  0
 22 25  1  6  0  0  0
 22 24  1  0  0  0  0
 22 19  1  0  0  0  0
 23 16  1  6  0  0  0
 24 21  1  6  0  0  0
 24 20  1  0  0  0  0
 26 28  1  6  0  0  0
 26 21  1  0  0  0  0
 27 28  1  0  0  0  0
 28 29  1  0  0  0  0
 30 28  1  0  0  0  0
 31 33  1  0  0  0  0
 33 32  1  0  0  0  0
 34  8  1  0  0  0  0
 35 34  1  0  0  0  0
 36 47  1  6  0  0  0
 36 35  1  0  0  0  0
 37 39  1  0  0  0  0
 37 36  1  0  0  0  0
 38 37  2  0  0  0  0
 40 42  1  0  0  0  0
 40 39  1  1  0  0  0
 40 45  1  0  0  0  0
 41 43  1  0  0  0  0
 43 42  2  0  0  0  0
 44 41  1  0  0  0  0
 44 43  1  0  0  0  0
 45 46  1  0  0  0  0
 48 52  1  1  0  0  0
 48 47  1  0  0  0  0
 49 51  1  0  0  0  0
 49 48  1  0  0  0  0
 50 49  2  0  0  0  0
 53 54  1  6  0  0  0
 53 52  1  0  0  0  0
 56 55  2  0  0  0  0
 56 53  1  0  0  0  0
M  END
>  <MODEL>
6

>  <REMARK>
 VINA RESULT:      -7.5      2.492      4.305
  Name = 
  19 active torsions:
  status: ('A' for Active; 'I' for Inactive)
    1  A    between atoms: C_4  and  C_28
    2  A    between atoms: C_4  and  C_46
    3  A    between atoms: C_6  and  C_15
    4  A    between atoms: C_6  and  C_39
    5  A    between atoms: C_10  and  C_23
    6  A    between atoms: C_10  and  C_28
    7  A    between atoms: C_11  and  C_50
    8  A    between atoms: N_13  and  C_40
    9  A    between atoms: C_14  and  C_36
   10  A    between atoms: C_14  and  C_46
   11  A    between atoms: C_16  and  C_36
   12  A    between atoms: C_17  and  C_53
   13  A    between atoms: C_19  and  C_30
   14  A    between atoms: C_19  and  C_56
   15  A    between atoms: C_23  and  C_40
   16  A    between atoms: N_24  and  C_40
   17  A    between atoms: C_28  and  C_56
   18  A    between atoms: N_32  and  C_50
   19  A    between atoms: C_37  and  C_46
                            x       y       z     vdW  Elec       q    Type
                         _______ _______ _______ _____ _____    ______ ____

>  <TORSDO>
F 19

$$$$
=
 OpenBabel11042410593D

 56 61  0  0  1  0  0  0  0  0999 V2000
  188.9080  176.6670  143.4160 C   0  0  0  0  0  2  0  0  0  0  0  0
  190.3190  177.2530  143.5520 C   0  0  1  0  0  3  0  0  0  0  0  0
  186.0470  177.8780  142.6670 C   0  0  0  0  0  3  0  0  0  0  0  0
  184.1360  178.9560  143.7600 C   0  0  0  0  0  0  0  0  0  0  0  0
  188.0520  177.6980  145.6380 C   0  0  0  0  0  0  0  0  0  0  0  0
  190.1480  176.3720  146.0070 C   0  0  0  0  0  2  0  0  0  0  0  0
  184.8130  178.9400  144.9920 C   0  0  0  0  0  3  0  0  0  0  0  0
  184.7500  178.4290  142.5930 C   0  0  0  0  0  0  0  0  0  0  0  0
  186.6820  177.8610  143.9070 C   0  0  0  0  0  0  0  0  0  0  0  0
  186.9220  178.2970  146.0850 N   0  0  0  0  0  0  0  0  0  0  0  0
  189.2910  177.5410  146.4740 C   0  0  0  0  0  2  0  0  0  0  0  0
  191.0440  176.7610  144.8270 C   0  0  0  0  0  2  0  0  0  0  0  0
  187.9330  177.4100  144.2760 C   0  0  0  0  0  0  0  0  0  0  0  0
  186.0920  178.3850  145.0270 C   0  0  0  0  0  0  0  0  0  0  0  0
  182.8210  179.5100  143.7020 N   0  0  0  0  0  1  0  0  0  0  0  0
  191.1640  176.9170  142.3090 C   0  0  1  0  0  3  0  0  0  0  0  0
  190.8640  175.6280  141.8490 O   0  0  0  0  0  1  0  0  0  0  0  0
  188.9300  176.8140  137.0480 C   0  0  0  0  0  2  0  0  0  0  0  0
  191.5230  177.3730  139.8320 C   0  0  0  0  0  2  0  0  0  0  0  0
  189.5810  178.1860  140.9880 O   0  0  0  0  0  0  0  0  0  0  0  0
  187.9630  177.9210  139.1480 C   0  0  0  0  0  2  0  0  0  0  0  0
  190.3800  177.5710  138.8970 C   0  0  2  0  0  3  0  0  0  0  0  0
  190.9650  177.9140  141.1530 C   0  0  1  0  0  3  0  0  0  0  0  0
  189.2330  177.4630  139.8410 C   0  0  1  0  0  3  0  0  0  0  0  0
  190.2140  176.5040  137.8330 C   0  0  0  0  0  2  0  0  0  0  0  0
  187.6990  176.9460  137.9780 C   0  0  1  0  0  3  0  0  0  0  0  0
  185.5880  178.3010  137.9620 C   0  0  0  0  0  1  0  0  0  0  0  0
  186.4030  177.2670  137.2090 C   0  0  0  0  0  0  0  0  0  0  0  0
  186.7350  177.8490  135.8450 C   0  0  0  0  0  1  0  0  0  0  0  0
  185.5560  176.0200  137.0160 C   0  0  0  0  0  1  0  0  0  0  0  0
  186.6840  178.8250  147.4240 C   0  0  0  0  0  2  0  0  0  0  0  0
  188.1270  178.3350  149.2500 O   0  0  0  0  0  1  0  0  0  0  0  0
  187.1010  177.8050  148.4660 C   0  0  0  0  0  2  0  0  0  0  0  0
  184.0690  178.5710  141.2670 C   0  0  0  0  0  2  0  0  0  0  0  0
  182.8520  177.6640  141.1430 C   0  0  0  0  0  2  0  0  0  0  0  0
  182.4090  177.5310  139.6910 C   0  0  1  0  0  3  0  0  0  0  0  0
  181.7740  176.1840  139.4280 C   0  0  0  0  0  0  0  0  0  0  0  0
  182.4870  175.2390  139.1340 O   0  0  0  0  0  0  0  0  0  0  0  0
  180.2850  175.9940  139.4450 C   0  0  0  0  0  2  0  0  0  0  0  0
  179.8970  174.6960  140.1360 C   0  0  2  0  0  3  0  0  0  0  0  0
  179.4110  172.3110  137.0730 C   0  0  0  0  0  2  0  0  0  0  0  0
  179.0670  173.9320  139.2380 N   0  0  0  0  0  0  0  0  0  0  0  0
  179.5610  173.2350  138.2800 C   0  0  0  0  0  0  0  0  0  0  0  0
  180.7300  172.6940  137.4580 C   0  0  0  0  0  2  0  0  0  0  0  0
  179.1650  174.9910  141.3620 N   0  0  0  0  0  2  0  0  0  0  0  0
  179.2840  173.8670  142.1910 N   0  0  0  0  0  1  0  0  0  0  0  0
  181.4630  178.6810  139.3710 C   0  0  0  0  0  2  0  0  0  0  0  0
  181.7880  179.2840  138.0150 C   0  0  1  0  0  3  0  0  0  0  0  0
  181.6320  178.2810  136.9100 C   0  0  0  0  0  0  0  0  0  0  0  0
  180.3800  177.8110  136.5440 O   0  0  0  0  0  1  0  0  0  0  0  0
  182.6460  177.8650  136.2930 O   0  0  0  0  0  0  0  0  0  0  0  0
  180.8670  180.4720  137.7860 C   0  0  0  0  0  2  0  0  0  0  0  0
  181.4120  181.6990  138.4970 C   0  0  1  0  0  3  0  0  0  0  0  0
  182.7790  181.5410  138.7260 O   0  0  0  0  0  1  0  0  0  0  0  0
  180.3420  183.7270  137.9540 O   0  0  0  0  0  0  0  0  0  0  0  0
  181.1950  182.9070  137.6490 C   0  0  0  0  0  3  0  0  0  0  0  0
  1  2  1  0  0  0  0
  1 13  1  0  0  0  0
  2 16  1  6  0  0  0
  2 12  1  0  0  0  0
  3  9  1  0  0  0  0
  4  7  2  0  0  0  0
  5 10  1  0  0  0  0
  5 11  1  0  0  0  0
  6 11  1  0  0  0  0
  7 14  1  0  0  0  0
  8  3  2  0  0  0  0
  8  4  1  0  0  0  0
  9 13  1  0  0  0  0
  9 14  2  0  0  0  0
 10 31  1  0  0  0  0
 12  6  1  0  0  0  0
 13  5  2  0  0  0  0
 14 10  1  0  0  0  0
 15  4  1  0  0  0  0
 16 17  1  6  0  0  0
 18 25  1  0  0  0  0
 18 26  1  0  0  0  0
 19 23  1  0  0  0  0
 20 23  1  0  0  0  0
 22 25  1  6  0  0  0
 22 19  1  0  0  0  0
 22 24  1  0  0  0  0
 23 16  1  1  0  0  0
 24 21  1  6  0  0  0
 24 20  1  0  0  0  0
 26 28  1  6  0  0  0
 26 21  1  0  0  0  0
 28 27  1  0  0  0  0
 29 28  1  0  0  0  0
 30 28  1  0  0  0  0
 31 33  1  0  0  0  0
 33 32  1  0  0  0  0
 34  8  1  0  0  0  0
 35 34  1  0  0  0  0
 36 47  1  1  0  0  0
 36 35  1  0  0  0  0
 37 39  1  0  0  0  0
 37 36  1  0  0  0  0
 38 37  2  0  0  0  0
 40 39  1  6  0  0  0
 40 45  1  0  0  0  0
 41 44  1  0  0  0  0
 41 43  1  0  0  0  0
 42 40  1  0  0  0  0
 43 42  2  0  0  0  0
 44 43  1  0  0  0  0
 45 46  1  0  0  0  0
 48 52  1  6  0  0  0
 48 47  1  0  0  0  0
 49 48  1  0  0  0  0
 50 49  1  0  0  0  0
 51 49  2  0  0  0  0
 52 53  1  0  0  0  0
 53 54  1  6  0  0  0
 56 55  2  0  0  0  0
 56 53  1  0  0  0  0
M  END
>  <MODEL>
7

>  <REMARK>
 VINA RESULT:      -7.5      2.741      4.402
  Name = 
  19 active torsions:
  status: ('A' for Active; 'I' for Inactive)
    1  A    between atoms: C_4  and  C_28
    2  A    between atoms: C_4  and  C_46
    3  A    between atoms: C_6  and  C_15
    4  A    between atoms: C_6  and  C_39
    5  A    between atoms: C_10  and  C_23
    6  A    between atoms: C_10  and  C_28
    7  A    between atoms: C_11  and  C_50
    8  A    between atoms: N_13  and  C_40
    9  A    between atoms: C_14  and  C_36
   10  A    between atoms: C_14  and  C_46
   11  A    between atoms: C_16  and  C_36
   12  A    between atoms: C_17  and  C_53
   13  A    between atoms: C_19  and  C_30
   14  A    between atoms: C_19  and  C_56
   15  A    between atoms: C_23  and  C_40
   16  A    between atoms: N_24  and  C_40
   17  A    between atoms: C_28  and  C_56
   18  A    between atoms: N_32  and  C_50
   19  A    between atoms: C_37  and  C_46
                            x       y       z     vdW  Elec       q    Type
                         _______ _______ _______ _____ _____    ______ ____

>  <TORSDO>
F 19

$$$$
=
 OpenBabel11042410593D

 56 61  0  0  1  0  0  0  0  0999 V2000
  188.8400  176.6730  143.4630 C   0  0  0  0  0  2  0  0  0  0  0  0
  190.2590  177.2490  143.5570 C   0  0  1  0  0  3  0  0  0  0  0  0
  185.9670  177.9080  142.8080 C   0  0  0  0  0  3  0  0  0  0  0  0
  184.0990  178.9960  143.9650 C   0  0  0  0  0  0  0  0  0  0  0  0
  188.0610  177.7010  145.7150 C   0  0  0  0  0  0  0  0  0  0  0  0
  190.1580  176.3580  146.0130 C   0  0  0  0  0  2  0  0  0  0  0  0
  184.8140  178.9690  145.1750 C   0  0  0  0  0  3  0  0  0  0  0  0
  184.6720  178.4690  142.7780 C   0  0  0  0  0  0  0  0  0  0  0  0
  186.6400  177.8810  144.0280 C   0  0  0  0  0  0  0  0  0  0  0  0
  186.9500  178.3060  146.1990 N   0  0  0  0  0  0  0  0  0  0  0  0
  189.3250  177.5310  146.5110 C   0  0  0  0  0  2  0  0  0  0  0  0
  191.0200  176.7460  144.8070 C   0  0  0  0  0  2  0  0  0  0  0  0
  187.8980  177.4200  144.3560 C   0  0  0  0  0  0  0  0  0  0  0  0
  186.0890  178.4050  145.1690 C   0  0  0  0  0  0  0  0  0  0  0  0
  182.7860  179.5590  143.9510 N   0  0  0  0  0  1  0  0  0  0  0  0
  191.0630  176.9110  142.2880 C   0  0  1  0  0  3  0  0  0  0  0  0
  190.7300  175.6310  141.8240 O   0  0  0  0  0  1  0  0  0  0  0  0
  188.8110  176.8500  137.0330 C   0  0  0  0  0  2  0  0  0  0  0  0
  191.4060  177.4080  139.8150 C   0  0  0  0  0  2  0  0  0  0  0  0
  189.4560  178.1750  140.9900 O   0  0  0  0  0  0  0  0  0  0  0  0
  187.8360  177.9120  139.1520 C   0  0  0  0  0  2  0  0  0  0  0  0
  190.2560  177.6030  138.8870 C   0  0  2  0  0  3  0  0  0  0  0  0
  190.8450  177.9220  141.1460 C   0  0  1  0  0  3  0  0  0  0  0  0
  189.1150  177.4640  139.8340 C   0  0  1  0  0  3  0  0  0  0  0  0
  190.1020  176.5480  137.8090 C   0  0  0  0  0  2  0  0  0  0  0  0
  187.5810  176.9500  137.9690 C   0  0  1  0  0  3  0  0  0  0  0  0
  185.4560  178.2840  137.9730 C   0  0  0  0  0  1  0  0  0  0  0  0
  186.2790  177.2630  137.2090 C   0  0  0  0  0  0  0  0  0  0  0  0
  186.5960  177.8570  135.8480 C   0  0  0  0  0  1  0  0  0  0  0  0
  185.4430  176.0090  137.0130 C   0  0  0  0  0  1  0  0  0  0  0  0
  186.7580  178.8300  147.5470 C   0  0  0  0  0  2  0  0  0  0  0  0
  188.3050  178.2500  149.2590 O   0  0  0  0  0  1  0  0  0  0  0  0
  187.1790  177.7930  148.5720 C   0  0  0  0  0  2  0  0  0  0  0  0
  183.9510  178.6220  141.4740 C   0  0  0  0  0  2  0  0  0  0  0  0
  183.4270  177.2940  140.9450 C   0  0  0  0  0  2  0  0  0  0  0  0
  182.0970  177.4740  140.2220 C   0  0  1  0  0  3  0  0  0  0  0  0
  181.6550  178.9200  140.2290 C   0  0  0  0  0  0  0  0  0  0  0  0
  180.9680  179.3260  141.1520 O   0  0  0  0  0  0  0  0  0  0  0  0
  181.9750  179.8500  139.0960 C   0  0  0  0  0  2  0  0  0  0  0  0
  180.7670  180.6880  138.7040 C   0  0  2  0  0  3  0  0  0  0  0  0
  179.8770  178.3670  135.6840 C   0  0  0  0  0  2  0  0  0  0  0  0
  179.8510  179.8530  137.9690 N   0  0  0  0  0  0  0  0  0  0  0  0
  180.1890  179.2610  136.8820 C   0  0  0  0  0  0  0  0  0  0  0  0
  181.1930  178.9070  135.7850 C   0  0  0  0  0  2  0  0  0  0  0  0
  181.1940  181.8100  137.8760 N   0  0  0  0  0  2  0  0  0  0  0  0
  180.1660  182.7630  137.9160 N   0  0  0  0  0  1  0  0  0  0  0  0
  182.2420  176.9270  138.8080 C   0  0  0  0  0  2  0  0  0  0  0  0
  181.6770  175.5200  138.7140 C   0  0  1  0  0  3  0  0  0  0  0  0
  180.2640  175.4550  139.2120 C   0  0  0  0  0  0  0  0  0  0  0  0
  179.2580  176.1910  138.6040 O   0  0  0  0  0  0  0  0  0  0  0  0
  179.9760  174.7150  140.1870 O   0  0  0  0  0  1  0  0  0  0  0  0
  181.7490  175.0720  137.2630 C   0  0  0  0  0  2  0  0  0  0  0  0
  182.0200  173.5790  137.1900 C   0  0  1  0  0  3  0  0  0  0  0  0
  180.8270  172.8960  136.9500 O   0  0  0  0  0  1  0  0  0  0  0  0
  183.0810  174.0750  135.1460 O   0  0  0  0  0  0  0  0  0  0  0  0
  182.9760  173.2960  136.0800 C   0  0  0  0  0  3  0  0  0  0  0  0
  1  2  1  0  0  0  0
  1 13  1  0  0  0  0
  2 16  1  6  0  0  0
  2 12  1  0  0  0  0
  3  9  1  0  0  0  0
  4  7  2  0  0  0  0
  5 10  1  0  0  0  0
  5 11  1  0  0  0  0
  6 11  1  0  0  0  0
  8  3  2  0  0  0  0
  8  4  1  0  0  0  0
  9 13  1  0  0  0  0
  9 14  2  0  0  0  0
 10 31  1  0  0  0  0
 12  6  1  0  0  0  0
 13  5  2  0  0  0  0
 14  7  1  0  0  0  0
 14 10  1  0  0  0  0
 15  4  1  0  0  0  0
 16 17  1  6  0  0  0
 18 25  1  0  0  0  0
 18 26  1  0  0  0  0
 19 23  1  0  0  0  0
 20 23  1  0  0  0  0
 22 25  1  6  0  0  0
 22 19  1  0  0  0  0
 22 24  1  0  0  0  0
 23 16  1  1  0  0  0
 24 21  1  6  0  0  0
 24 20  1  0  0  0  0
 26 28  1  6  0  0  0
 26 21  1  0  0  0  0
 28 27  1  0  0  0  0
 29 28  1  0  0  0  0
 30 28  1  0  0  0  0
 31 33  1  0  0  0  0
 33 32  1  0  0  0  0
 34  8  1  0  0  0  0
 35 34  1  0  0  0  0
 36 47  1  6  0  0  0
 36 37  1  0  0  0  0
 36 35  1  0  0  0  0
 37 38  2  0  0  0  0
 39 37  1  0  0  0  0
 40 39  1  6  0  0  0
 41 44  1  0  0  0  0
 41 43  1  0  0  0  0
 42 40  1  0  0  0  0
 43 42  2  0  0  0  0
 44 43  1  0  0  0  0
 45 46  1  0  0  0  0
 45 40  1  0  0  0  0
 48 52  1  6  0  0  0
 48 47  1  0  0  0  0
 48 49  1  0  0  0  0
 49 51  1  0  0  0  0
 50 49  2  0  0  0  0
 53 54  1  6  0  0  0
 53 52  1  0  0  0  0
 55 56  2  0  0  0  0
 56 53  1  0  0  0  0
M  END
>  <MODEL>
8

>  <REMARK>
 VINA RESULT:      -7.4      2.520      4.634
  Name = 
  19 active torsions:
  status: ('A' for Active; 'I' for Inactive)
    1  A    between atoms: C_4  and  C_28
    2  A    between atoms: C_4  and  C_46
    3  A    between atoms: C_6  and  C_15
    4  A    between atoms: C_6  and  C_39
    5  A    between atoms: C_10  and  C_23
    6  A    between atoms: C_10  and  C_28
    7  A    between atoms: C_11  and  C_50
    8  A    between atoms: N_13  and  C_40
    9  A    between atoms: C_14  and  C_36
   10  A    between atoms: C_14  and  C_46
   11  A    between atoms: C_16  and  C_36
   12  A    between atoms: C_17  and  C_53
   13  A    between atoms: C_19  and  C_30
   14  A    between atoms: C_19  and  C_56
   15  A    between atoms: C_23  and  C_40
   16  A    between atoms: N_24  and  C_40
   17  A    between atoms: C_28  and  C_56
   18  A    between atoms: N_32  and  C_50
   19  A    between atoms: C_37  and  C_46
                            x       y       z     vdW  Elec       q    Type
                         _______ _______ _______ _____ _____    ______ ____

>  <TORSDO>
F 19

$$$$
=
 OpenBabel11042410593D

 56 61  0  0  1  0  0  0  0  0999 V2000
  185.0400  179.0030  142.0000 C   0  0  0  0  0  2  0  0  0  0  0  0
  183.6150  178.4420  142.0760 C   0  0  1  0  0  3  0  0  0  0  0  0
  187.9420  177.7010  141.6910 C   0  0  0  0  0  3  0  0  0  0  0  0
  189.7260  176.7740  143.0930 C   0  0  0  0  0  0  0  0  0  0  0  0
  185.6690  178.2730  144.4090 C   0  0  0  0  0  0  0  0  0  0  0  0
  183.5660  179.6390  144.3990 C   0  0  0  0  0  2  0  0  0  0  0  0
  188.9360  176.9530  144.2420 C   0  0  0  0  0  3  0  0  0  0  0  0
  189.2320  177.1430  141.8140 C   0  0  0  0  0  0  0  0  0  0  0  0
  187.1930  177.8820  142.8520 C   0  0  0  0  0  0  0  0  0  0  0  0
  186.7430  177.7370  145.0360 N   0  0  0  0  0  0  0  0  0  0  0  0
  184.3580  178.5400  145.0950 C   0  0  0  0  0  2  0  0  0  0  0  0
  182.7790  179.0980  143.2010 C   0  0  0  0  0  2  0  0  0  0  0  0
  185.9190  178.3790  143.0390 C   0  0  0  0  0  0  0  0  0  0  0  0
  187.6670  177.5090  144.0830 C   0  0  0  0  0  0  0  0  0  0  0  0
  191.0340  176.2160  143.2340 N   0  0  0  0  0  1  0  0  0  0  0  0
  182.8950  178.6120  140.7250 C   0  0  1  0  0  3  0  0  0  0  0  0
  183.7700  178.3340  139.6670 O   0  0  0  0  0  1  0  0  0  0  0  0
  180.1200  175.9560  136.4910 C   0  0  0  0  0  2  0  0  0  0  0  0
  180.6810  178.2520  139.5240 C   0  0  0  0  0  2  0  0  0  0  0  0
  182.0430  176.4020  140.2230 O   0  0  0  0  0  0  0  0  0  0  0  0
  181.5770  174.9070  138.3210 C   0  0  0  0  0  2  0  0  0  0  0  0
  180.4310  177.0470  138.6830 C   0  0  2  0  0  3  0  0  0  0  0  0
  181.6490  177.7170  140.5850 C   0  0  1  0  0  3  0  0  0  0  0  0
  181.7160  176.3160  138.8660 C   0  0  1  0  0  3  0  0  0  0  0  0
  180.2480  177.3120  137.2010 C   0  0  0  0  0  2  0  0  0  0  0  0
  181.3170  175.0220  136.8020 C   0  0  1  0  0  3  0  0  0  0  0  0
  182.3580  172.7590  136.5080 C   0  0  0  0  0  1  0  0  0  0  0  0
  181.2010  173.6530  136.1060 C   0  0  0  0  0  0  0  0  0  0  0  0
  179.9170  172.9590  136.5280 C   0  0  0  0  0  1  0  0  0  0  0  0
  181.2010  173.8040  134.5940 C   0  0  0  0  0  1  0  0  0  0  0  0
  186.8470  177.3900  146.4490 C   0  0  0  0  0  2  0  0  0  0  0  0
  188.6510  178.3320  147.6820 O   0  0  0  0  0  1  0  0  0  0  0  0
  187.3500  178.5820  147.2410 C   0  0  0  0  0  2  0  0  0  0  0  0
  190.0340  176.8270  140.5890 C   0  0  0  0  0  2  0  0  0  0  0  0
  189.1630  176.7030  139.3460 C   0  0  0  0  0  2  0  0  0  0  0  0
  190.0100  176.6870  138.0790 C   0  0  1  0  0  3  0  0  0  0  0  0
  189.6070  177.7920  137.1290 C   0  0  0  0  0  0  0  0  0  0  0  0
  189.4300  178.9170  137.5670 O   0  0  0  0  0  0  0  0  0  0  0  0
  189.3460  177.5280  135.6750 C   0  0  0  0  0  2  0  0  0  0  0  0
  188.0640  176.7350  135.4740 C   0  0  2  0  0  3  0  0  0  0  0  0
  184.3090  177.1320  136.4950 C   0  0  0  0  0  2  0  0  0  0  0  0
  187.0100  177.3740  136.2210 N   0  0  0  0  0  0  0  0  0  0  0  0
  185.7860  177.0020  136.1280 C   0  0  0  0  0  0  0  0  0  0  0  0
  184.6770  176.1080  135.5730 C   0  0  0  0  0  2  0  0  0  0  0  0
  188.2530  175.3680  135.9460 N   0  0  0  0  0  2  0  0  0  0  0  0
  188.0640  174.5240  134.8420 N   0  0  0  0  0  1  0  0  0  0  0  0
  191.4760  176.7840  138.4800 C   0  0  0  0  0  2  0  0  0  0  0  0
  192.3500  175.9840  137.5290 C   0  0  1  0  0  3  0  0  0  0  0  0
  193.7880  176.0000  137.9540 C   0  0  0  0  0  0  0  0  0  0  0  0
  194.1460  176.3170  139.2550 O   0  0  0  0  0  1  0  0  0  0  0  0
  194.6890  175.7090  137.1250 O   0  0  0  0  0  0  0  0  0  0  0  0
  191.8260  174.5580  137.4830 C   0  0  0  0  0  2  0  0  0  0  0  0
  191.5980  174.1330  136.0430 C   0  0  1  0  0  3  0  0  0  0  0  0
  191.6410  175.2510  135.2100 O   0  0  0  0  0  1  0  0  0  0  0  0
  193.1220  172.3790  136.4340 O   0  0  0  0  0  0  0  0  0  0  0  0
  192.6630  173.1730  135.6280 C   0  0  0  0  0  3  0  0  0  0  0  0
  1  2  1  0  0  0  0
  1 13  1  0  0  0  0
  2 16  1  6  0  0  0
  2 12  1  0  0  0  0
  3  8  2  0  0  0  0
  3  9  1  0  0  0  0
  4 15  1  0  0  0  0
  4  7  2  0  0  0  0
  5 10  1  0  0  0  0
  5 11  1  0  0  0  0
  6 11  1  0  0  0  0
  8  4  1  0  0  0  0
  9 13  1  0  0  0  0
  9 14  2  0  0  0  0
 10 31  1  0  0  0  0
 12  6  1  0  0  0  0
 13  5  2  0  0  0  0
 14  7  1  0  0  0  0
 14 10  1  0  0  0  0
 16 17  1  6  0  0  0
 18 26  1  0  0  0  0
 18 25  1  0  0  0  0
 19 23  1  0  0  0  0
 20 23  1  0  0  0  0
 22 25  1  6  0  0  0
 22 24  1  0  0  0  0
 22 19  1  0  0  0  0
 23 16  1  6  0  0  0
 24 21  1  1  0  0  0
 24 20  1  0  0  0  0
 26 28  1  1  0  0  0
 26 21  1  0  0  0  0
 28 27  1  0  0  0  0
 28 29  1  0  0  0  0
 30 28  1  0  0  0  0
 31 33  1  0  0  0  0
 33 32  1  0  0  0  0
 34  8  1  0  0  0  0
 35 34  1  0  0  0  0
 36 47  1  1  0  0  0
 36 35  1  0  0  0  0
 37 38  2  0  0  0  0
 37 36  1  0  0  0  0
 39 37  1  0  0  0  0
 40 39  1  1  0  0  0
 40 45  1  0  0  0  0
 40 42  1  0  0  0  0
 43 42  2  0  0  0  0
 43 41  1  0  0  0  0
 44 43  1  0  0  0  0
 44 41  1  0  0  0  0
 46 45  1  0  0  0  0
 48 52  1  1  0  0  0
 48 49  1  0  0  0  0
 48 47  1  0  0  0  0
 49 50  1  0  0  0  0
 51 49  2  0  0  0  0
 53 54  1  6  0  0  0
 53 52  1  0  0  0  0
 56 53  1  0  0  0  0
 56 55  2  0  0  0  0
M  END
>  <MODEL>
9

>  <REMARK>
 VINA RESULT:      -7.4      2.556      9.070
  Name = 
  19 active torsions:
  status: ('A' for Active; 'I' for Inactive)
    1  A    between atoms: C_4  and  C_28
    2  A    between atoms: C_4  and  C_46
    3  A    between atoms: C_6  and  C_15
    4  A    between atoms: C_6  and  C_39
    5  A    between atoms: C_10  and  C_23
    6  A    between atoms: C_10  and  C_28
    7  A    between atoms: C_11  and  C_50
    8  A    between atoms: N_13  and  C_40
    9  A    between atoms: C_14  and  C_36
   10  A    between atoms: C_14  and  C_46
   11  A    between atoms: C_16  and  C_36
   12  A    between atoms: C_17  and  C_53
   13  A    between atoms: C_19  and  C_30
   14  A    between atoms: C_19  and  C_56
   15  A    between atoms: C_23  and  C_40
   16  A    between atoms: N_24  and  C_40
   17  A    between atoms: C_28  and  C_56
   18  A    between atoms: N_32  and  C_50
   19  A    between atoms: C_37  and  C_46
                            x       y       z     vdW  Elec       q    Type
                         _______ _______ _______ _____ _____    ______ ____

>  <TORSDO>
F 19

$$$$
