=
 OpenBabel11032419153D

 30 35  0  0  1  0  0  0  0  0999 V2000
  184.7840  178.3490  141.9060 C   0  0  0  0  0  0  0  0  0  0  0  0
  180.6680  179.9690  138.0480 C   0  0  1  0  0  3  0  0  0  0  0  0
  181.9310  179.4370  138.7630 C   0  0  2  0  0  3  0  0  0  0  0  0
  180.0020  177.5170  137.5800 C   0  0  0  0  0  2  0  0  0  0  0  0
  186.2980  178.9760  140.1980 C   0  0  0  0  0  2  0  0  0  0  0  0
  180.9570  180.4490  136.6300 C   0  0  0  0  0  1  0  0  0  0  0  0
  183.0620  180.4400  138.8540 C   0  0  0  0  0  0  0  0  0  0  0  0
  179.5540  178.9170  138.0360 C   0  0  0  0  0  2  0  0  0  0  0  0
  181.4940  177.4320  137.2450 C   0  0  0  0  0  2  0  0  0  0  0  0
  182.3600  178.0090  138.3690 C   0  0  2  0  0  3  0  0  0  0  0  0
  182.8250  181.6550  138.6160 O   0  0  0  0  0  0  0  0  0  0  0  0
  184.9080  178.7730  139.6120 C   0  0  1  0  0  3  0  0  0  0  0  0
  184.1740  178.1400  140.7440 C   0  0  0  0  0  0  0  0  0  0  0  0
  183.0300  177.2130  140.5910 C   0  0  0  0  0  3  0  0  0  0  0  0
  182.2640  177.1450  139.5420 N   0  0  0  0  0  0  0  0  0  0  0  0
  184.3700  180.0990  139.3230 N   0  0  0  0  0  2  0  0  0  0  0  0
  186.0930  179.0350  141.7080 C   0  0  0  0  0  2  0  0  0  0  0  0
  188.4060  176.9530  145.8030 N   0  0  0  0  0  0  0  0  0  0  0  0
  189.1760  177.1920  146.9010 C   0  0  0  0  0  3  0  0  0  0  0  0
  188.7440  178.0920  147.8830 C   0  0  0  0  0  3  0  0  0  0  0  0
  185.5700  179.1670  146.4080 N   0  0  0  0  0  0  0  0  0  0  0  0
  184.8270  178.9210  145.2980 C   0  0  0  0  0  0  0  0  0  0  0  0
  185.2240  178.0150  144.3490 C   0  0  0  0  0  0  0  0  0  0  0  0
  186.4240  177.3120  144.4960 C   0  0  0  0  0  3  0  0  0  0  0  0
  186.7570  178.5190  146.5860 C   0  0  0  0  0  0  0  0  0  0  0  0
  187.5290  178.7570  147.7210 C   0  0  0  0  0  3  0  0  0  0  0  0
  183.0990  178.8500  143.6870 C   0  0  0  0  0  3  0  0  0  0  0  0
  184.2340  177.9000  143.2440 C   0  0  1  0  0  3  0  0  0  0  0  0
  187.2110  177.5800  145.6250 C   0  0  0  0  0  0  0  0  0  0  0  0
  183.5140  179.5220  145.0030 C   0  0  0  0  0  3  0  0  0  0  0  0
  2  6  1  6  0  0  0
  2  3  1  0  0  0  0
  3  7  1  6  0  0  0
  4  8  1  0  0  0  0
  5 17  1  0  0  0  0
  7 16  1  0  0  0  0
  8  2  1  0  0  0  0
  9  4  1  0  0  0  0
 10  9  1  6  0  0  0
 10  3  1  0  0  0  0
 10 15  1  0  0  0  0
 11  7  2  0  0  0  0
 12  5  1  1  0  0  0
 12 13  1  0  0  0  0
 13  1  2  0  0  0  0
 14 13  1  0  0  0  0
 15 14  2  0  0  0  0
 16 12  1  0  0  0  0
 17  1  1  0  0  0  0
 18 19  1  0  0  0  0
 19 20  2  0  0  0  0
 21 25  1  0  0  0  0
 22 21  2  0  0  0  0
 23 24  2  0  0  0  0
 23 22  1  0  0  0  0
 24 29  1  0  0  0  0
 25 26  2  0  0  0  0
 26 20  1  0  0  0  0
 27 30  2  0  0  0  0
 28  1  1  6  0  0  0
 28 27  1  0  0  0  0
 28 23  1  0  0  0  0
 29 18  2  0  0  0  0
 29 25  1  0  0  0  0
 30 22  1  0  0  0  0
M  END
>  <MODEL>
1

>  <REMARK>
 VINA RESULT:      -8.8      0.000      0.000
  Name = 
  1 active torsions:
  status: ('A' for Active; 'I' for Inactive)
    1  A    between atoms: C_1  and  C_19
                            x       y       z     vdW  Elec       q    Type
                         _______ _______ _______ _____ _____    ______ ____

>  <TORSDO>
F 1

$$$$
=
 OpenBabel11032419153D

 30 35  0  0  1  0  0  0  0  0999 V2000
  183.2630  178.5840  140.0060 C   0  0  0  0  0  0  0  0  0  0  0  0
  180.6940  180.8100  135.2210 C   0  0  1  0  0  3  0  0  0  0  0  0
  181.0260  180.1380  136.5730 C   0  0  2  0  0  3  0  0  0  0  0  0
  179.7350  182.8100  136.5460 C   0  0  0  0  0  2  0  0  0  0  0  0
  181.5410  176.9640  139.8890 C   0  0  0  0  0  2  0  0  0  0  0  0
  179.4160  180.2610  134.5940 C   0  0  0  0  0  1  0  0  0  0  0  0
  181.1770  178.6340  136.4990 C   0  0  0  0  0  0  0  0  0  0  0  0
  180.6010  182.3320  135.3680 C   0  0  0  0  0  2  0  0  0  0  0  0
  179.1430  181.6650  137.3730 C   0  0  0  0  0  2  0  0  0  0  0  0
  180.2160  180.6500  137.7810 C   0  0  2  0  0  3  0  0  0  0  0  0
  181.3000  178.0850  135.3700 O   0  0  0  0  0  0  0  0  0  0  0  0
  181.1650  178.1830  139.0590 C   0  0  1  0  0  3  0  0  0  0  0  0
  182.2060  179.1730  139.4560 C   0  0  0  0  0  0  0  0  0  0  0  0
  182.0160  180.6420  139.4480 C   0  0  0  0  0  3  0  0  0  0  0  0
  181.1290  181.2710  138.7360 N   0  0  0  0  0  0  0  0  0  0  0  0
  181.3180  177.8060  137.6580 N   0  0  0  0  0  2  0  0  0  0  0  0
  183.0290  177.1220  140.1870 C   0  0  0  0  0  2  0  0  0  0  0  0
  184.3000  178.9130  145.3980 N   0  0  0  0  0  0  0  0  0  0  0  0
  184.8900  178.5100  146.5570 C   0  0  0  0  0  3  0  0  0  0  0  0
  186.1600  177.9210  146.5360 C   0  0  0  0  0  3  0  0  0  0  0  0
  186.8090  177.9460  142.9320 N   0  0  0  0  0  0  0  0  0  0  0  0
  186.1940  178.3440  141.7890 C   0  0  0  0  0  0  0  0  0  0  0  0
  184.9670  178.9540  141.8030 C   0  0  0  0  0  0  0  0  0  0  0  0
  184.3020  179.1830  143.0120 C   0  0  0  0  0  3  0  0  0  0  0  0
  186.1920  178.1310  144.1350 C   0  0  0  0  0  0  0  0  0  0  0  0
  186.8110  177.7320  145.3170 C   0  0  0  0  0  3  0  0  0  0  0  0
  185.7020  178.8930  139.5430 C   0  0  0  0  0  3  0  0  0  0  0  0
  184.5150  179.3210  140.4340 C   0  0  1  0  0  3  0  0  0  0  0  0
  184.9170  178.7500  144.1950 C   0  0  0  0  0  0  0  0  0  0  0  0
  186.7660  178.2380  140.4350 C   0  0  0  0  0  3  0  0  0  0  0  0
  1 17  1  0  0  0  0
  2  6  1  1  0  0  0
  2  8  1  0  0  0  0
  2  3  1  0  0  0  0
  3  7  1  6  0  0  0
  3 10  1  0  0  0  0
  4  9  1  0  0  0  0
  5 17  1  0  0  0  0
  7 16  1  0  0  0  0
  8  4  1  0  0  0  0
 10  9  1  6  0  0  0
 10 15  1  0  0  0  0
 11  7  2  0  0  0  0
 12 13  1  0  0  0  0
 12  5  1  1  0  0  0
 13  1  2  0  0  0  0
 14 13  1  0  0  0  0
 15 14  2  0  0  0  0
 16 12  1  0  0  0  0
 18 19  1  0  0  0  0
 20 19  2  0  0  0  0
 21 25  1  0  0  0  0
 22 23  1  0  0  0  0
 22 21  2  0  0  0  0
 23 24  2  0  0  0  0
 24 29  1  0  0  0  0
 25 29  1  0  0  0  0
 25 26  2  0  0  0  0
 26 20  1  0  0  0  0
 27 28  1  0  0  0  0
 27 30  2  0  0  0  0
 28  1  1  6  0  0  0
 28 23  1  0  0  0  0
 29 18  2  0  0  0  0
 30 22  1  0  0  0  0
M  END
>  <MODEL>
2

>  <REMARK>
 VINA RESULT:      -7.8      1.890      3.873
  Name = 
  1 active torsions:
  status: ('A' for Active; 'I' for Inactive)
    1  A    between atoms: C_1  and  C_19
                            x       y       z     vdW  Elec       q    Type
                         _______ _______ _______ _____ _____    ______ ____

>  <TORSDO>
F 1

$$$$
=
 OpenBabel11032419153D

 30 35  0  0  1  0  0  0  0  0999 V2000
  185.9140  178.2910  144.5760 C   0  0  0  0  0  0  0  0  0  0  0  0
  181.7520  177.6380  140.4890 C   0  0  1  0  0  3  0  0  0  0  0  0
  182.8310  178.1620  141.4640 C   0  0  2  0  0  3  0  0  0  0  0  0
  183.4490  177.9640  138.5680 C   0  0  0  0  0  2  0  0  0  0  0  0
  184.8950  180.3960  144.9410 C   0  0  0  0  0  2  0  0  0  0  0  0
  180.7230  178.7050  140.1280 C   0  0  0  0  0  1  0  0  0  0  0  0
  182.2810  178.7080  142.7640 C   0  0  0  0  0  0  0  0  0  0  0  0
  182.3870  177.0620  139.2190 C   0  0  0  0  0  2  0  0  0  0  0  0
  183.6930  179.2690  139.3320 C   0  0  0  0  0  2  0  0  0  0  0  0
  183.9440  179.0140  140.8210 C   0  0  2  0  0  3  0  0  0  0  0  0
  181.0850  178.4590  143.0770 O   0  0  0  0  0  0  0  0  0  0  0  0
  184.4720  179.8410  143.5890 C   0  0  1  0  0  3  0  0  0  0  0  0
  185.3900  178.6800  143.4180 C   0  0  0  0  0  0  0  0  0  0  0  0
  185.8440  178.1520  142.1110 C   0  0  0  0  0  3  0  0  0  0  0  0
  185.2220  178.3260  140.9840 N   0  0  0  0  0  0  0  0  0  0  0  0
  183.0900  179.3910  143.7280 N   0  0  0  0  0  2  0  0  0  0  0  0
  185.5310  179.2220  145.6770 C   0  0  0  0  0  2  0  0  0  0  0  0
  189.6790  177.4120  140.6630 N   0  0  0  0  0  0  0  0  0  0  0  0
  190.9260  177.4990  140.1230 C   0  0  0  0  0  3  0  0  0  0  0  0
  192.0560  177.5030  140.9510 C   0  0  0  0  0  3  0  0  0  0  0  0
  190.4380  177.3070  144.2310 N   0  0  0  0  0  0  0  0  0  0  0  0
  189.1830  177.2340  144.7450 C   0  0  0  0  0  0  0  0  0  0  0  0
  188.0740  177.1940  143.9420 C   0  0  0  0  0  0  0  0  0  0  0  0
  188.2040  177.2310  142.5500 C   0  0  0  0  0  3  0  0  0  0  0  0
  190.6140  177.3640  142.8790 C   0  0  0  0  0  0  0  0  0  0  0  0
  191.8950  177.4360  142.3350 C   0  0  0  0  0  3  0  0  0  0  0  0
  187.3270  177.0030  146.1900 C   0  0  0  0  0  3  0  0  0  0  0  0
  186.8190  177.0870  144.7340 C   0  0  1  0  0  3  0  0  0  0  0  0
  189.4940  177.3340  142.0100 C   0  0  0  0  0  0  0  0  0  0  0  0
  188.8570  177.1280  146.1780 C   0  0  0  0  0  3  0  0  0  0  0  0
  1 17  1  0  0  0  0
  2  6  1  6  0  0  0
  2  3  1  0  0  0  0
  3  7  1  1  0  0  0
  4  8  1  0  0  0  0
  4  9  1  0  0  0  0
  5 17  1  0  0  0  0
  7 11  2  0  0  0  0
  7 16  1  0  0  0  0
  8  2  1  0  0  0  0
 10  9  1  6  0  0  0
 10 15  1  0  0  0  0
 10  3  1  0  0  0  0
 12 16  1  0  0  0  0
 12  5  1  1  0  0  0
 13 12  1  0  0  0  0
 13  1  2  0  0  0  0
 14 13  1  0  0  0  0
 15 14  2  0  0  0  0
 18 29  1  0  0  0  0
 19 18  2  0  0  0  0
 19 20  1  0  0  0  0
 20 26  2  0  0  0  0
 21 22  1  0  0  0  0
 22 30  1  0  0  0  0
 23 28  1  0  0  0  0
 23 22  2  0  0  0  0
 24 23  1  0  0  0  0
 25 21  2  0  0  0  0
 26 25  1  0  0  0  0
 28  1  1  1  0  0  0
 28 27  1  0  0  0  0
 29 24  2  0  0  0  0
 29 25  1  0  0  0  0
 30 27  2  0  0  0  0
M  END
>  <MODEL>
3

>  <REMARK>
 VINA RESULT:      -7.7      2.876      4.608
  Name = 
  1 active torsions:
  status: ('A' for Active; 'I' for Inactive)
    1  A    between atoms: C_1  and  C_19
                            x       y       z     vdW  Elec       q    Type
                         _______ _______ _______ _____ _____    ______ ____

>  <TORSDO>
F 1

$$$$
=
 OpenBabel11032419153D

 30 35  0  0  1  0  0  0  0  0999 V2000
  185.6770  177.5440  137.4710 C   0  0  0  0  0  0  0  0  0  0  0  0
  180.5270  180.2850  136.8320 C   0  0  1  0  0  3  0  0  0  0  0  0
  181.6880  179.3400  137.2160 C   0  0  2  0  0  3  0  0  0  0  0  0
  180.6320  181.2520  139.2260 C   0  0  0  0  0  2  0  0  0  0  0  0
  184.3530  175.5850  137.5910 C   0  0  0  0  0  2  0  0  0  0  0  0
  179.1690  179.5910  136.8780 C   0  0  0  0  0  1  0  0  0  0  0  0
  181.7920  178.1010  136.3530 C   0  0  0  0  0  0  0  0  0  0  0  0
  180.5140  181.5350  137.7180 C   0  0  0  0  0  2  0  0  0  0  0  0
  180.7670  179.7630  139.5590 C   0  0  0  0  0  2  0  0  0  0  0  0
  181.8670  179.0950  138.7280 C   0  0  2  0  0  3  0  0  0  0  0  0
  181.1520  178.0540  135.2680 O   0  0  0  0  0  0  0  0  0  0  0  0
  183.4890  176.8130  137.8440 C   0  0  1  0  0  3  0  0  0  0  0  0
  184.5060  177.8930  137.9930 C   0  0  0  0  0  0  0  0  0  0  0  0
  184.3190  179.1170  138.8060 C   0  0  0  0  0  3  0  0  0  0  0  0
  183.1670  179.6150  139.1420 N   0  0  0  0  0  0  0  0  0  0  0  0
  182.6860  177.0220  136.6430 N   0  0  0  0  0  2  0  0  0  0  0  0
  185.6600  176.1230  137.0170 C   0  0  0  0  0  2  0  0  0  0  0  0
  188.8660  177.9160  141.9380 N   0  0  0  0  0  0  0  0  0  0  0  0
  189.9440  177.5880  142.7020 C   0  0  0  0  0  3  0  0  0  0  0  0
  191.1500  177.2120  142.0990 C   0  0  0  0  0  3  0  0  0  0  0  0
  190.1850  177.4200  138.5720 N   0  0  0  0  0  0  0  0  0  0  0  0
  189.0920  177.7390  137.8320 C   0  0  0  0  0  0  0  0  0  0  0  0
  187.9190  178.1430  138.4130 C   0  0  0  0  0  0  0  0  0  0  0  0
  187.8100  178.2350  139.8040 C   0  0  0  0  0  3  0  0  0  0  0  0
  190.1220  177.4770  139.9340 C   0  0  0  0  0  0  0  0  0  0  0  0
  191.2360  177.1560  140.7080 C   0  0  0  0  0  3  0  0  0  0  0  0
  187.6170  178.2500  136.0580 C   0  0  0  0  0  3  0  0  0  0  0  0
  186.8790  178.4630  137.3980 C   0  0  1  0  0  3  0  0  0  0  0  0
  188.9250  177.8810  140.5780 C   0  0  0  0  0  0  0  0  0  0  0  0
  189.0390  177.7560  136.3590 C   0  0  0  0  0  3  0  0  0  0  0  0
  1 13  2  0  0  0  0
  2  6  1  1  0  0  0
  2  3  1  0  0  0  0
  2  8  1  0  0  0  0
  3  7  1  6  0  0  0
  3 10  1  0  0  0  0
  4  9  1  0  0  0  0
  7 16  1  0  0  0  0
  8  4  1  0  0  0  0
 10 15  1  0  0  0  0
 10  9  1  1  0  0  0
 11  7  2  0  0  0  0
 12  5  1  6  0  0  0
 12 13  1  0  0  0  0
 13 14  1  0  0  0  0
 14 15  2  0  0  0  0
 16 12  1  0  0  0  0
 17  1  1  0  0  0  0
 17  5  1  0  0  0  0
 18 19  1  0  0  0  0
 20 19  2  0  0  0  0
 21 25  1  0  0  0  0
 22 23  1  0  0  0  0
 22 21  2  0  0  0  0
 23 24  2  0  0  0  0
 24 29  1  0  0  0  0
 25 29  1  0  0  0  0
 25 26  2  0  0  0  0
 26 20  1  0  0  0  0
 27 30  2  0  0  0  0
 27 28  1  0  0  0  0
 28  1  1  6  0  0  0
 28 23  1  0  0  0  0
 29 18  2  0  0  0  0
 30 22  1  0  0  0  0
M  END
>  <MODEL>
4

>  <REMARK>
 VINA RESULT:      -7.5      3.708      5.459
  Name = 
  1 active torsions:
  status: ('A' for Active; 'I' for Inactive)
    1  A    between atoms: C_1  and  C_19
                            x       y       z     vdW  Elec       q    Type
                         _______ _______ _______ _____ _____    ______ ____

>  <TORSDO>
F 1

$$$$
=
 OpenBabel11032419153D

 30 35  0  0  1  0  0  0  0  0999 V2000
  189.8980  177.3730  139.2290 C   0  0  0  0  0  0  0  0  0  0  0  0
  193.4200  173.1900  137.0950 C   0  0  1  0  0  3  0  0  0  0  0  0
  192.5080  174.4180  137.3140 C   0  0  2  0  0  3  0  0  0  0  0  0
  195.4300  174.8070  136.9720 C   0  0  0  0  0  2  0  0  0  0  0  0
  188.9310  177.3320  137.0680 C   0  0  0  0  0  2  0  0  0  0  0  0
  193.3860  172.6860  135.6550 C   0  0  0  0  0  1  0  0  0  0  0  0
  191.0550  174.1860  136.9570 C   0  0  0  0  0  0  0  0  0  0  0  0
  194.8610  173.4870  137.5200 C   0  0  0  0  0  2  0  0  0  0  0  0
  194.4320  175.5950  136.1180 C   0  0  0  0  0  2  0  0  0  0  0  0
  193.0870  175.7640  136.8320 C   0  0  2  0  0  3  0  0  0  0  0  0
  190.6470  173.0060  136.7880 O   0  0  0  0  0  0  0  0  0  0  0  0
  190.3030  176.6740  137.0360 C   0  0  1  0  0  3  0  0  0  0  0  0
  190.8550  177.0220  138.3760 C   0  0  0  0  0  0  0  0  0  0  0  0
  192.2970  177.1740  138.6770 C   0  0  0  0  0  3  0  0  0  0  0  0
  193.2600  176.6450  137.9830 N   0  0  0  0  0  0  0  0  0  0  0  0
  190.0820  175.2350  136.9260 N   0  0  0  0  0  2  0  0  0  0  0  0
  188.5740  177.4460  138.5470 C   0  0  0  0  0  2  0  0  0  0  0  0
  185.7260  179.5520  142.0730 N   0  0  0  0  0  0  0  0  0  0  0  0
  184.6520  179.4950  142.9090 C   0  0  0  0  0  3  0  0  0  0  0  0
  184.5960  178.5290  143.9220 C   0  0  0  0  0  3  0  0  0  0  0  0
  187.7520  176.7780  143.3010 N   0  0  0  0  0  0  0  0  0  0  0  0
  188.8050  176.8480  142.4470 C   0  0  0  0  0  0  0  0  0  0  0  0
  188.8850  177.8110  141.4760 C   0  0  0  0  0  0  0  0  0  0  0  0
  187.8680  178.7600  141.3320 C   0  0  0  0  0  3  0  0  0  0  0  0
  186.7260  177.6700  143.1880 C   0  0  0  0  0  0  0  0  0  0  0  0
  185.6400  177.6140  144.0580 C   0  0  0  0  0  3  0  0  0  0  0  0
  190.8840  176.5290  141.3680 C   0  0  0  0  0  3  0  0  0  0  0  0
  190.1420  177.7000  140.6870 C   0  0  1  0  0  3  0  0  0  0  0  0
  186.7630  178.6780  142.1910 C   0  0  0  0  0  0  0  0  0  0  0  0
  189.9910  175.9730  142.4860 C   0  0  0  0  0  3  0  0  0  0  0  0
  2  6  1  6  0  0  0
  2  3  1  0  0  0  0
  2  8  1  0  0  0  0
  3  7  1  6  0  0  0
  4  8  1  0  0  0  0
  5 17  1  0  0  0  0
  9  4  1  0  0  0  0
 10  9  1  1  0  0  0
 10  3  1  0  0  0  0
 10 15  1  0  0  0  0
 11  7  2  0  0  0  0
 12  5  1  1  0  0  0
 12 13  1  0  0  0  0
 13 14  1  0  0  0  0
 13  1  2  0  0  0  0
 15 14  2  0  0  0  0
 16  7  1  0  0  0  0
 16 12  1  0  0  0  0
 17  1  1  0  0  0  0
 18 29  2  0  0  0  0
 18 19  1  0  0  0  0
 19 20  2  0  0  0  0
 20 26  1  0  0  0  0
 22 30  1  0  0  0  0
 22 21  2  0  0  0  0
 23 22  1  0  0  0  0
 24 23  2  0  0  0  0
 24 29  1  0  0  0  0
 25 21  1  0  0  0  0
 25 26  2  0  0  0  0
 27 30  2  0  0  0  0
 28  1  1  6  0  0  0
 28 27  1  0  0  0  0
 28 23  1  0  0  0  0
 29 25  1  0  0  0  0
M  END
>  <MODEL>
5

>  <REMARK>
 VINA RESULT:      -7.5      6.466      9.052
  Name = 
  1 active torsions:
  status: ('A' for Active; 'I' for Inactive)
    1  A    between atoms: C_1  and  C_19
                            x       y       z     vdW  Elec       q    Type
                         _______ _______ _______ _____ _____    ______ ____

>  <TORSDO>
F 1

$$$$
=
 OpenBabel11032419153D

 30 35  0  0  1  0  0  0  0  0999 V2000
  187.7560  177.9150  138.8490 C   0  0  0  0  0  0  0  0  0  0  0  0
  190.4020  173.2960  136.3760 C   0  0  1  0  0  3  0  0  0  0  0  0
  189.6120  174.5880  136.6810 C   0  0  2  0  0  3  0  0  0  0  0  0
  192.2740  174.7750  135.3840 C   0  0  0  0  0  2  0  0  0  0  0  0
  186.1520  177.6160  137.1340 C   0  0  0  0  0  2  0  0  0  0  0  0
  189.9110  172.5950  135.1130 C   0  0  0  0  0  1  0  0  0  0  0  0
  188.1200  174.3820  136.8380 C   0  0  0  0  0  0  0  0  0  0  0  0
  191.9050  173.5770  136.2760 C   0  0  0  0  0  2  0  0  0  0  0  0
  191.0580  175.4830  134.7780 C   0  0  0  0  0  2  0  0  0  0  0  0
  190.0120  175.8200  135.8440 C   0  0  2  0  0  3  0  0  0  0  0  0
  187.6750  173.2120  136.9870 O   0  0  0  0  0  0  0  0  0  0  0  0
  187.4400  176.8910  136.7730 C   0  0  1  0  0  3  0  0  0  0  0  0
  188.3910  177.3980  137.8020 C   0  0  0  0  0  0  0  0  0  0  0  0
  189.8540  177.5180  137.6080 C   0  0  0  0  0  3  0  0  0  0  0  0
  190.5450  176.8460  136.7350 N   0  0  0  0  0  0  0  0  0  0  0  0
  187.1910  175.4650  136.9560 N   0  0  0  0  0  2  0  0  0  0  0  0
  186.2840  177.9580  138.6150 C   0  0  0  0  0  2  0  0  0  0  0  0
  184.5910  179.5690  143.0320 N   0  0  0  0  0  0  0  0  0  0  0  0
  183.9470  179.4010  144.2200 C   0  0  0  0  0  3  0  0  0  0  0  0
  184.4800  178.5550  145.2000 C   0  0  0  0  0  3  0  0  0  0  0  0
  187.4680  177.3640  143.4490 N   0  0  0  0  0  0  0  0  0  0  0  0
  188.0850  177.5390  142.2520 C   0  0  0  0  0  0  0  0  0  0  0  0
  187.5890  178.3920  141.3010 C   0  0  0  0  0  0  0  0  0  0  0  0
  186.4160  179.1150  141.5380 C   0  0  0  0  0  3  0  0  0  0  0  0
  186.3110  178.0340  143.7190 C   0  0  0  0  0  0  0  0  0  0  0  0
  185.6670  177.8690  144.9440 C   0  0  0  0  0  3  0  0  0  0  0  0
  189.6250  177.4990  140.4590 C   0  0  0  0  0  3  0  0  0  0  0  0
  188.4530  178.4340  140.0900 C   0  0  1  0  0  3  0  0  0  0  0  0
  185.7570  178.9210  142.7610 C   0  0  0  0  0  0  0  0  0  0  0  0
  189.3550  176.9080  141.8510 C   0  0  0  0  0  3  0  0  0  0  0  0
  2  6  1  6  0  0  0
  2  3  1  0  0  0  0
  3  7  1  6  0  0  0
  4  8  1  0  0  0  0
  5 17  1  0  0  0  0
  7 16  1  0  0  0  0
  7 11  2  0  0  0  0
  8  2  1  0  0  0  0
  9  4  1  0  0  0  0
 10  9  1  6  0  0  0
 10  3  1  0  0  0  0
 10 15  1  0  0  0  0
 12 16  1  0  0  0  0
 12  5  1  1  0  0  0
 12 13  1  0  0  0  0
 13  1  2  0  0  0  0
 14 13  1  0  0  0  0
 15 14  2  0  0  0  0
 17  1  1  0  0  0  0
 18 19  1  0  0  0  0
 19 20  2  0  0  0  0
 21 25  1  0  0  0  0
 22 21  2  0  0  0  0
 23 24  2  0  0  0  0
 23 22  1  0  0  0  0
 24 29  1  0  0  0  0
 25 26  2  0  0  0  0
 26 20  1  0  0  0  0
 27 30  2  0  0  0  0
 28  1  1  6  0  0  0
 28 27  1  0  0  0  0
 28 23  1  0  0  0  0
 29 18  2  0  0  0  0
 29 25  1  0  0  0  0
 30 22  1  0  0  0  0
M  END
>  <MODEL>
6

>  <REMARK>
 VINA RESULT:      -7.4      5.173      7.377
  Name = 
  1 active torsions:
  status: ('A' for Active; 'I' for Inactive)
    1  A    between atoms: C_1  and  C_19
                            x       y       z     vdW  Elec       q    Type
                         _______ _______ _______ _____ _____    ______ ____

>  <TORSDO>
F 1

$$$$
=
 OpenBabel11032419153D

 30 35  0  0  1  0  0  0  0  0999 V2000
  186.2320  177.7630  138.0590 C   0  0  0  0  0  0  0  0  0  0  0  0
  190.1470  176.3000  142.1800 C   0  0  1  0  0  3  0  0  0  0  0  0
  189.3050  176.9990  141.0890 C   0  0  2  0  0  3  0  0  0  0  0  0
  189.0600  177.8780  143.9120 C   0  0  0  0  0  2  0  0  0  0  0  0
  188.0380  178.9550  137.1000 C   0  0  0  0  0  2  0  0  0  0  0  0
  191.5870  176.8030  142.2190 C   0  0  0  0  0  1  0  0  0  0  0  0
  189.8630  176.8600  139.6880 C   0  0  0  0  0  0  0  0  0  0  0  0
  189.4970  176.4460  143.5590 C   0  0  0  0  0  2  0  0  0  0  0  0
  189.3360  178.8930  142.7990 C   0  0  0  0  0  2  0  0  0  0  0  0
  188.7990  178.4110  141.4480 C   0  0  2  0  0  3  0  0  0  0  0  0
  190.7600  176.0030  139.4680 O   0  0  0  0  0  0  0  0  0  0  0  0
  188.3400  178.6390  138.5570 C   0  0  1  0  0  3  0  0  0  0  0  0
  187.0250  178.1420  139.0550 C   0  0  0  0  0  0  0  0  0  0  0  0
  186.5610  178.2530  140.4570 C   0  0  0  0  0  3  0  0  0  0  0  0
  187.3400  178.3960  141.4870 N   0  0  0  0  0  0  0  0  0  0  0  0
  189.3320  177.5680  138.5630 N   0  0  0  0  0  2  0  0  0  0  0  0
  186.8440  178.0780  136.7360 C   0  0  0  0  0  2  0  0  0  0  0  0
  181.9740  181.1570  138.8330 N   0  0  0  0  0  0  0  0  0  0  0  0
  180.8960  181.8820  138.4230 C   0  0  0  0  0  3  0  0  0  0  0  0
  180.1070  181.4330  137.3560 C   0  0  0  0  0  3  0  0  0  0  0  0
  181.9060  178.3640  136.4860 N   0  0  0  0  0  0  0  0  0  0  0  0
  182.9930  177.6670  136.9050 C   0  0  0  0  0  0  0  0  0  0  0  0
  183.7490  178.0790  137.9710 C   0  0  0  0  0  0  0  0  0  0  0  0
  183.4220  179.2490  138.6630 C   0  0  0  0  0  3  0  0  0  0  0  0
  181.5580  179.5220  137.1190 C   0  0  0  0  0  0  0  0  0  0  0  0
  180.4430  180.2470  136.7030 C   0  0  0  0  0  3  0  0  0  0  0  0
  184.6530  176.0140  137.2180 C   0  0  0  0  0  3  0  0  0  0  0  0
  184.8660  177.1380  138.2550 C   0  0  1  0  0  3  0  0  0  0  0  0
  182.3180  179.9910  138.2200 C   0  0  0  0  0  0  0  0  0  0  0  0
  183.4530  176.3870  136.3360 C   0  0  0  0  0  3  0  0  0  0  0  0
  1 13  2  0  0  0  0
  2  6  1  1  0  0  0
  2  8  1  0  0  0  0
  3  7  1  6  0  0  0
  3 10  1  0  0  0  0
  3  2  1  0  0  0  0
  8  4  1  0  0  0  0
  9  4  1  0  0  0  0
 10 15  1  0  0  0  0
 10  9  1  1  0  0  0
 11  7  2  0  0  0  0
 12  5  1  6  0  0  0
 12 16  1  0  0  0  0
 12 13  1  0  0  0  0
 13 14  1  0  0  0  0
 14 15  2  0  0  0  0
 16  7  1  0  0  0  0
 17  5  1  0  0  0  0
 17  1  1  0  0  0  0
 19 18  1  0  0  0  0
 20 19  2  0  0  0  0
 21 22  2  0  0  0  0
 21 25  1  0  0  0  0
 22 23  1  0  0  0  0
 23 28  1  0  0  0  0
 23 24  2  0  0  0  0
 25 29  1  0  0  0  0
 26 25  2  0  0  0  0
 26 20  1  0  0  0  0
 27 28  1  0  0  0  0
 28  1  1  6  0  0  0
 29 24  1  0  0  0  0
 29 18  2  0  0  0  0
 30 22  1  0  0  0  0
 30 27  2  0  0  0  0
M  END
>  <MODEL>
7

>  <REMARK>
 VINA RESULT:      -6.7      3.568      8.836
  Name = 
  1 active torsions:
  status: ('A' for Active; 'I' for Inactive)
    1  A    between atoms: C_1  and  C_19
                            x       y       z     vdW  Elec       q    Type
                         _______ _______ _______ _____ _____    ______ ____

>  <TORSDO>
F 1

$$$$
=
 OpenBabel11032419153D

 30 35  0  0  1  0  0  0  0  0999 V2000
  181.4140  178.7870  141.7650 C   0  0  0  0  0  0  0  0  0  0  0  0
  180.3060  174.3000  138.1480 C   0  0  1  0  0  3  0  0  0  0  0  0
  180.2370  175.5400  139.0680 C   0  0  2  0  0  3  0  0  0  0  0  0
  179.9680  175.8800  136.1320 C   0  0  0  0  0  2  0  0  0  0  0  0
  179.2590  178.3200  142.6250 C   0  0  0  0  0  2  0  0  0  0  0  0
  178.9910  173.5260  138.1110 C   0  0  0  0  0  1  0  0  0  0  0  0
  179.8620  175.2300  140.5020 C   0  0  0  0  0  0  0  0  0  0  0  0
  180.7340  174.6860  136.7290 C   0  0  0  0  0  2  0  0  0  0  0  0
  178.9310  176.4790  137.0860 C   0  0  0  0  0  2  0  0  0  0  0  0
  179.5320  176.7710  138.4640 C   0  0  2  0  0  3  0  0  0  0  0  0
  179.9060  174.0360  140.9020 O   0  0  0  0  0  0  0  0  0  0  0  0
  179.4210  177.6800  141.2540 C   0  0  1  0  0  3  0  0  0  0  0  0
  180.6930  178.2860  140.7680 C   0  0  0  0  0  0  0  0  0  0  0  0
  181.0290  178.5060  139.3420 C   0  0  0  0  0  3  0  0  0  0  0  0
  180.4980  177.8600  138.3470 N   0  0  0  0  0  0  0  0  0  0  0  0
  179.5810  176.2460  141.4710 N   0  0  0  0  0  2  0  0  0  0  0  0
  180.6680  178.7150  143.0550 C   0  0  0  0  0  2  0  0  0  0  0  0
  184.6640  179.0030  146.1970 N   0  0  0  0  0  0  0  0  0  0  0  0
  185.6500  178.5420  147.0150 C   0  0  0  0  0  3  0  0  0  0  0  0
  186.7320  177.8270  146.4850 C   0  0  0  0  0  3  0  0  0  0  0  0
  185.7910  177.7900  142.9460 N   0  0  0  0  0  0  0  0  0  0  0  0
  184.7890  178.2490  142.1530 C   0  0  0  0  0  0  0  0  0  0  0  0
  183.7450  178.9800  142.6580 C   0  0  0  0  0  0  0  0  0  0  0  0
  183.6800  179.2740  144.0230 C   0  0  0  0  0  3  0  0  0  0  0  0
  185.7610  178.0360  144.2880 C   0  0  0  0  0  0  0  0  0  0  0  0
  186.7840  177.5740  145.1140 C   0  0  0  0  0  3  0  0  0  0  0  0
  183.4440  178.8480  140.3040 C   0  0  0  0  0  3  0  0  0  0  0  0
  182.7920  179.3930  141.5930 C   0  0  1  0  0  3  0  0  0  0  0  0
  184.6960  178.7800  144.8540 C   0  0  0  0  0  0  0  0  0  0  0  0
  184.7210  178.0870  140.6900 C   0  0  0  0  0  3  0  0  0  0  0  0
  1 17  1  0  0  0  0
  2  6  1  6  0  0  0
  2  3  1  0  0  0  0
  3  7  1  1  0  0  0
  4  8  1  0  0  0  0
  4  9  1  0  0  0  0
  5 17  1  0  0  0  0
  7 11  2  0  0  0  0
  7 16  1  0  0  0  0
  8  2  1  0  0  0  0
 10  9  1  6  0  0  0
 10  3  1  0  0  0  0
 12 16  1  0  0  0  0
 12  5  1  1  0  0  0
 13 12  1  0  0  0  0
 13  1  2  0  0  0  0
 14 13  1  0  0  0  0
 15 10  1  0  0  0  0
 15 14  2  0  0  0  0
 18 19  1  0  0  0  0
 20 19  2  0  0  0  0
 21 25  1  0  0  0  0
 22 23  1  0  0  0  0
 22 21  2  0  0  0  0
 23 24  2  0  0  0  0
 24 29  1  0  0  0  0
 25 29  1  0  0  0  0
 25 26  2  0  0  0  0
 26 20  1  0  0  0  0
 27 30  2  0  0  0  0
 27 28  1  0  0  0  0
 28  1  1  1  0  0  0
 28 23  1  0  0  0  0
 29 18  2  0  0  0  0
 30 22  1  0  0  0  0
M  END
>  <MODEL>
8

>  <REMARK>
 VINA RESULT:      -6.7      2.762      4.486
  Name = 
  1 active torsions:
  status: ('A' for Active; 'I' for Inactive)
    1  A    between atoms: C_1  and  C_19
                            x       y       z     vdW  Elec       q    Type
                         _______ _______ _______ _____ _____    ______ ____

>  <TORSDO>
F 1

$$$$
=
 OpenBabel11032419153D

 30 35  0  0  1  0  0  0  0  0999 V2000
  183.8410  177.8560  138.0440 C   0  0  0  0  0  0  0  0  0  0  0  0
  189.0900  175.2400  137.7950 C   0  0  1  0  0  3  0  0  0  0  0  0
  187.7650  175.9810  137.5020 C   0  0  2  0  0  3  0  0  0  0  0  0
  190.3140  177.5010  137.5370 C   0  0  0  0  0  2  0  0  0  0  0  0
  183.5650  176.9840  135.8600 C   0  0  0  0  0  2  0  0  0  0  0  0
  189.6270  174.4980  136.5750 C   0  0  0  0  0  1  0  0  0  0  0  0
  186.6520  175.0870  136.9990 C   0  0  0  0  0  0  0  0  0  0  0  0
  190.1510  176.2000  138.3420 C   0  0  0  0  0  2  0  0  0  0  0  0
  189.3580  177.6040  136.3440 C   0  0  0  0  0  2  0  0  0  0  0  0
  187.9100  177.3210  136.7540 C   0  0  2  0  0  3  0  0  0  0  0  0
  186.7700  173.8370  137.1120 O   0  0  0  0  0  0  0  0  0  0  0  0
  185.0390  176.9810  136.2390 C   0  0  1  0  0  3  0  0  0  0  0  0
  185.0490  177.7860  137.4930 C   0  0  0  0  0  0  0  0  0  0  0  0
  186.1970  178.5930  137.9650 C   0  0  0  0  0  3  0  0  0  0  0  0
  187.4340  178.3990  137.6160 N   0  0  0  0  0  0  0  0  0  0  0  0
  185.4050  175.5940  136.5120 N   0  0  0  0  0  2  0  0  0  0  0  0
  182.8140  177.2230  137.1660 C   0  0  0  0  0  2  0  0  0  0  0  0
  181.1170  182.6320  137.9040 N   0  0  0  0  0  0  0  0  0  0  0  0
  179.9990  183.4050  137.9720 C   0  0  0  0  0  3  0  0  0  0  0  0
  178.9310  183.0320  138.7980 C   0  0  0  0  0  3  0  0  0  0  0  0
  180.2480  179.8980  140.1580 N   0  0  0  0  0  0  0  0  0  0  0  0
  181.3690  179.1380  140.0630 C   0  0  0  0  0  0  0  0  0  0  0  0
  182.4330  179.5130  139.2860 C   0  0  0  0  0  0  0  0  0  0  0  0
  182.3930  180.7040  138.5540 C   0  0  0  0  0  3  0  0  0  0  0  0
  180.1550  181.0590  139.4480 C   0  0  0  0  0  0  0  0  0  0  0  0
  179.0130  181.8520  139.5370 C   0  0  0  0  0  3  0  0  0  0  0  0
  183.0370  177.4940  140.3850 C   0  0  0  0  0  3  0  0  0  0  0  0
  183.5520  178.5350  139.3660 C   0  0  1  0  0  3  0  0  0  0  0  0
  181.2280  181.4820  138.6240 C   0  0  0  0  0  0  0  0  0  0  0  0
  181.6130  177.8870  140.8030 C   0  0  0  0  0  3  0  0  0  0  0  0
  2  6  1  6  0  0  0
  2  8  1  0  0  0  0
  3  7  1  6  0  0  0
  3  2  1  0  0  0  0
  4  8  1  0  0  0  0
  5 17  1  0  0  0  0
  7 11  2  0  0  0  0
  9  4  1  0  0  0  0
 10  9  1  1  0  0  0
 10  3  1  0  0  0  0
 10 15  1  0  0  0  0
 12  5  1  1  0  0  0
 12 16  1  0  0  0  0
 12 13  1  0  0  0  0
 13 14  1  0  0  0  0
 13  1  2  0  0  0  0
 15 14  2  0  0  0  0
 16  7  1  0  0  0  0
 17  1  1  0  0  0  0
 18 19  2  0  0  0  0
 18 29  1  0  0  0  0
 19 20  1  0  0  0  0
 20 26  2  0  0  0  0
 22 21  1  0  0  0  0
 22 30  1  0  0  0  0
 23 28  1  0  0  0  0
 23 22  2  0  0  0  0
 24 29  2  0  0  0  0
 24 23  1  0  0  0  0
 25 26  1  0  0  0  0
 25 21  2  0  0  0  0
 27 30  2  0  0  0  0
 28  1  1  6  0  0  0
 28 27  1  0  0  0  0
 29 25  1  0  0  0  0
M  END
>  <MODEL>
9

>  <REMARK>
 VINA RESULT:      -6.6      5.039      8.261
  Name = 
  1 active torsions:
  status: ('A' for Active; 'I' for Inactive)
    1  A    between atoms: C_1  and  C_19
                            x       y       z     vdW  Elec       q    Type
                         _______ _______ _______ _____ _____    ______ ____

>  <TORSDO>
F 1

$$$$
