=
 OpenBabel11042411453D

 25 27  0  0  1  0  0  0  0  0999 V2000
  189.3800  175.2680  143.0780 O   0  0  0  0  0  1  0  0  0  0  0  0
  189.0220  176.6100  143.2260 C   0  0  1  0  0  0  0  0  0  0  0  0
  187.8350  176.6670  144.1360 C   0  0  0  0  0  0  0  0  0  0  0  0
  188.1670  177.2860  145.3950 C   0  0  0  0  0  0  0  0  0  0  0  0
  190.1120  177.3320  144.0720 C   0  0  2  0  0  3  0  0  0  0  0  0
  186.7030  176.1810  143.8660 O   0  0  0  0  0  0  0  0  0  0  0  0
  189.4520  177.6410  145.3860 C   0  0  0  0  0  0  0  0  0  0  0  0
  190.6620  178.6180  143.4580 C   0  0  0  0  0  1  0  0  0  0  0  0
  190.0160  177.7560  138.2680 C   0  0  0  0  0  0  0  0  0  0  0  0
  190.9130  176.2320  140.8860 C   0  0  0  0  0  1  0  0  0  0  0  0
  189.6660  177.0480  140.7660 C   0  0  0  0  0  0  0  0  0  0  0  0
  189.3710  177.6870  139.5600 C   0  0  0  0  0  0  0  0  0  0  0  0
  189.2410  178.6040  137.4220 N   0  0  0  0  0  0  0  0  0  0  0  0
  188.2320  179.0280  138.0780 N   0  0  0  0  0  0  0  0  0  0  0  0
  187.3860  178.7220  140.4380 C   0  0  0  0  0  3  0  0  0  0  0  0
  187.6410  178.0920  141.6670 C   0  0  0  0  0  3  0  0  0  0  0  0
  188.7630  177.2370  141.8530 C   0  0  0  0  0  0  0  0  0  0  0  0
  188.2760  178.4890  139.3980 C   0  0  0  0  0  0  0  0  0  0  0  0
  191.0800  177.1790  137.9200 O   0  0  0  0  0  0  0  0  0  0  0  0
  187.2320  177.4420  146.4310 O   0  0  0  0  0  0  0  0  0  0  0  0
  186.2540  178.4010  146.4530 C   0  0  0  0  0  0  0  0  0  0  0  0
  185.4260  179.2090  146.4700 N   0  0  0  0  0  0  0  0  0  0  0  0
  190.2080  178.2300  146.5340 C   0  0  0  0  0  2  0  0  0  0  0  0
  190.4590  177.1740  147.5920 C   0  0  0  0  0  2  0  0  0  0  0  0
  191.6700  176.3520  147.2090 C   0  0  0  0  0  1  0  0  0  0  0  0
  2  1  1  6  0  0  0
  2  5  1  0  0  0  0
  2  3  1  0  0  0  0
  3  4  1  0  0  0  0
  4 20  1  0  0  0  0
  5  8  1  6  0  0  0
  5  7  1  0  0  0  0
  6  3  2  0  0  0  0
  7  4  2  0  0  0  0
  7 23  1  0  0  0  0
  9 12  1  0  0  0  0
 11 10  1  0  0  0  0
 11 17  1  0  0  0  0
 12 11  2  0  0  0  0
 13 14  2  0  0  0  0
 13  9  1  0  0  0  0
 14 18  1  0  0  0  0
 15 16  1  0  0  0  0
 16 17  2  0  0  0  0
 17  2  1  0  0  0  0
 18 12  1  0  0  0  0
 18 15  2  0  0  0  0
 19  9  2  0  0  0  0
 20 21  1  0  0  0  0
 21 22  3  0  0  0  0
 23 24  1  0  0  0  0
 25 24  1  0  0  0  0
M  END
>  <MODEL>
1

>  <REMARK>
 VINA RESULT:      -6.3      0.000      0.000
  Name = 
  5 active torsions:
  status: ('A' for Active; 'I' for Inactive)
    1  A    between atoms: O_1  and  C_4
    2  A    between atoms: O_1  and  C_12
    3  A    between atoms: C_6  and  C_9
    4  A    between atoms: C_9  and  C_20
    5  A    between atoms: C_10  and  C_22
                            x       y       z     vdW  Elec       q    Type
                         _______ _______ _______ _____ _____    ______ ____

>  <TORSDO>
F 5

$$$$
=
 OpenBabel11042411453D

 25 27  0  0  1  0  0  0  0  0999 V2000
  189.3840  179.7420  143.2080 O   0  0  0  0  0  1  0  0  0  0  0  0
  189.6720  178.3760  143.2510 C   0  0  1  0  0  0  0  0  0  0  0  0
  190.9510  178.2030  144.0080 C   0  0  0  0  0  0  0  0  0  0  0  0
  190.7300  177.5370  145.2680 C   0  0  0  0  0  0  0  0  0  0  0  0
  188.6440  177.6730  144.1860 C   0  0  2  0  0  3  0  0  0  0  0  0
  192.0720  178.6380  143.6270 O   0  0  0  0  0  0  0  0  0  0  0  0
  189.4330  177.2570  145.3960 C   0  0  0  0  0  0  0  0  0  0  0  0
  187.9470  176.4550  143.5830 C   0  0  0  0  0  1  0  0  0  0  0  0
  188.0060  177.5030  138.4190 C   0  0  0  0  0  0  0  0  0  0  0  0
  187.5090  178.9230  141.1960 C   0  0  0  0  0  1  0  0  0  0  0  0
  188.7000  178.0780  140.8790 C   0  0  0  0  0  0  0  0  0  0  0  0
  188.8140  177.4900  139.6170 C   0  0  0  0  0  0  0  0  0  0  0  0
  188.6340  176.6760  137.4420 N   0  0  0  0  0  0  0  0  0  0  0  0
  189.7040  176.1900  137.9400 N   0  0  0  0  0  0  0  0  0  0  0  0
  190.8580  176.3560  140.1800 C   0  0  0  0  0  3  0  0  0  0  0  0
  190.7860  176.9320  141.4590 C   0  0  0  0  0  3  0  0  0  0  0  0
  189.7290  177.8090  141.8290 C   0  0  0  0  0  0  0  0  0  0  0  0
  189.8500  176.6660  139.2780 C   0  0  0  0  0  0  0  0  0  0  0  0
  186.9260  178.1270  138.2380 O   0  0  0  0  0  0  0  0  0  0  0  0
  191.7680  177.2740  146.1750 O   0  0  0  0  0  0  0  0  0  0  0  0
  192.1310  176.0200  146.5920 C   0  0  0  0  0  0  0  0  0  0  0  0
  192.4380  174.9620  146.9480 N   0  0  0  0  0  0  0  0  0  0  0  0
  188.7800  176.6520  146.5970 C   0  0  0  0  0  2  0  0  0  0  0  0
  187.9420  177.6910  147.3170 C   0  0  0  0  0  2  0  0  0  0  0  0
  188.6960  178.1970  148.5280 C   0  0  0  0  0  1  0  0  0  0  0  0
  2  1  1  6  0  0  0
  2  3  1  0  0  0  0
  2  5  1  0  0  0  0
  3  4  1  0  0  0  0
  4  7  2  0  0  0  0
  4 20  1  0  0  0  0
  5  8  1  6  0  0  0
  5  7  1  0  0  0  0
  6  3  2  0  0  0  0
  7 23  1  0  0  0  0
  9 12  1  0  0  0  0
 11 10  1  0  0  0  0
 11 17  1  0  0  0  0
 12 11  2  0  0  0  0
 13 14  2  0  0  0  0
 13  9  1  0  0  0  0
 14 18  1  0  0  0  0
 15 16  1  0  0  0  0
 16 17  2  0  0  0  0
 17  2  1  0  0  0  0
 18 12  1  0  0  0  0
 18 15  2  0  0  0  0
 19  9  2  0  0  0  0
 20 21  1  0  0  0  0
 21 22  3  0  0  0  0
 23 24  1  0  0  0  0
 24 25  1  0  0  0  0
M  END
>  <MODEL>
2

>  <REMARK>
 VINA RESULT:      -6.3      2.691      3.684
  Name = 
  5 active torsions:
  status: ('A' for Active; 'I' for Inactive)
    1  A    between atoms: O_1  and  C_4
    2  A    between atoms: O_1  and  C_12
    3  A    between atoms: C_6  and  C_9
    4  A    between atoms: C_9  and  C_20
    5  A    between atoms: C_10  and  C_22
                            x       y       z     vdW  Elec       q    Type
                         _______ _______ _______ _____ _____    ______ ____

>  <TORSDO>
F 5

$$$$
=
 OpenBabel11042411453D

 25 27  0  0  1  0  0  0  0  0999 V2000
  187.9260  175.4280  142.9110 O   0  0  0  0  0  1  0  0  0  0  0  0
  188.7740  176.5360  142.9850 C   0  0  1  0  0  0  0  0  0  0  0  0
  190.0660  176.1650  142.3260 C   0  0  0  0  0  0  0  0  0  0  0  0
  190.2650  176.9070  141.1050 C   0  0  0  0  0  0  0  0  0  0  0  0
  188.2350  177.6480  142.0380 C   0  0  2  0  0  3  0  0  0  0  0  0
  190.8530  175.2750  142.7470 O   0  0  0  0  0  0  0  0  0  0  0  0
  189.2300  177.7250  140.9140 C   0  0  0  0  0  0  0  0  0  0  0  0
  188.0770  179.0250  142.6800 C   0  0  0  0  0  1  0  0  0  0  0  0
  187.2340  178.1920  147.6510 C   0  0  0  0  0  0  0  0  0  0  0  0
  186.4170  177.3050  144.7310 C   0  0  0  0  0  1  0  0  0  0  0  0
  187.8200  177.3280  145.2470 C   0  0  0  0  0  0  0  0  0  0  0  0
  188.0680  177.7470  146.5560 C   0  0  0  0  0  0  0  0  0  0  0  0
  188.0760  178.5180  148.7550 N   0  0  0  0  0  0  0  0  0  0  0  0
  189.2910  178.3150  148.4200 N   0  0  0  0  0  0  0  0  0  0  0  0
  190.4500  177.5280  146.3200 C   0  0  0  0  0  3  0  0  0  0  0  0
  190.2450  177.0950  144.9990 C   0  0  0  0  0  3  0  0  0  0  0  0
  188.9410  176.9700  144.4440 C   0  0  0  0  0  0  0  0  0  0  0  0
  189.3280  177.8410  147.0750 C   0  0  0  0  0  0  0  0  0  0  0  0
  185.9780  178.2870  147.6580 O   0  0  0  0  0  0  0  0  0  0  0  0
  191.3920  176.7280  140.2880 O   0  0  0  0  0  0  0  0  0  0  0  0
  191.3420  176.3240  138.9800 C   0  0  0  0  0  0  0  0  0  0  0  0
  191.2970  175.9830  137.8740 N   0  0  0  0  0  0  0  0  0  0  0  0
  189.0090  178.5970  139.7190 C   0  0  0  0  0  2  0  0  0  0  0  0
  188.0910  177.9060  138.7300 C   0  0  0  0  0  2  0  0  0  0  0  0
  188.4550  178.3280  137.3230 C   0  0  0  0  0  1  0  0  0  0  0  0
  2  1  1  6  0  0  0
  2 17  1  0  0  0  0
  3  6  2  0  0  0  0
  3  2  1  0  0  0  0
  4  3  1  0  0  0  0
  5  8  1  1  0  0  0
  5  2  1  0  0  0  0
  7  4  2  0  0  0  0
  7  5  1  0  0  0  0
  9 19  2  0  0  0  0
  9 13  1  0  0  0  0
 10 11  1  0  0  0  0
 11 12  1  0  0  0  0
 12 18  2  0  0  0  0
 12  9  1  0  0  0  0
 14 13  2  0  0  0  0
 15 18  1  0  0  0  0
 16 15  2  0  0  0  0
 17 16  1  0  0  0  0
 17 11  2  0  0  0  0
 18 14  1  0  0  0  0
 20  4  1  0  0  0  0
 21 20  1  0  0  0  0
 22 21  3  0  0  0  0
 23  7  1  0  0  0  0
 24 23  1  0  0  0  0
 25 24  1  0  0  0  0
M  END
>  <MODEL>
3

>  <REMARK>
 VINA RESULT:      -6.2      1.851      7.188
  Name = 
  5 active torsions:
  status: ('A' for Active; 'I' for Inactive)
    1  A    between atoms: O_1  and  C_4
    2  A    between atoms: O_1  and  C_12
    3  A    between atoms: C_6  and  C_9
    4  A    between atoms: C_9  and  C_20
    5  A    between atoms: C_10  and  C_22
                            x       y       z     vdW  Elec       q    Type
                         _______ _______ _______ _____ _____    ______ ____

>  <TORSDO>
F 5

$$$$
=
 OpenBabel11042411453D

 25 27  0  0  1  0  0  0  0  0999 V2000
  190.4840  179.3660  142.6410 O   0  0  0  0  0  1  0  0  0  0  0  0
  189.6380  178.2640  142.4900 C   0  0  1  0  0  0  0  0  0  0  0  0
  188.6950  178.5650  141.3680 C   0  0  0  0  0  0  0  0  0  0  0  0
  188.9430  177.7140  140.2300 C   0  0  0  0  0  0  0  0  0  0  0  0
  190.4590  177.0730  141.9120 C   0  0  2  0  0  3  0  0  0  0  0  0
  187.8330  179.4850  141.3860 O   0  0  0  0  0  0  0  0  0  0  0  0
  189.9510  176.8880  140.5100 C   0  0  0  0  0  0  0  0  0  0  0  0
  190.3290  175.7620  142.6840 C   0  0  0  0  0  1  0  0  0  0  0  0
  189.2680  177.4270  147.5940 C   0  0  0  0  0  0  0  0  0  0  0  0
  191.1180  178.1370  145.1340 C   0  0  0  0  0  1  0  0  0  0  0  0
  189.6440  177.9070  145.0450 C   0  0  0  0  0  0  0  0  0  0  0  0
  188.9230  177.5910  146.1990 C   0  0  0  0  0  0  0  0  0  0  0  0
  188.0880  177.0690  148.3100 N   0  0  0  0  0  0  0  0  0  0  0  0
  187.1110  177.0060  147.4910 N   0  0  0  0  0  0  0  0  0  0  0  0
  186.8540  177.3360  145.0010 C   0  0  0  0  0  3  0  0  0  0  0  0
  187.5390  177.6570  143.8170 C   0  0  0  0  0  3  0  0  0  0  0  0
  188.9280  177.9640  143.8140 C   0  0  0  0  0  0  0  0  0  0  0  0
  187.5840  177.3190  146.1810 C   0  0  0  0  0  0  0  0  0  0  0  0
  190.4050  177.5690  148.1160 O   0  0  0  0  0  0  0  0  0  0  0  0
  188.2060  177.8110  139.0390 O   0  0  0  0  0  0  0  0  0  0  0  0
  188.5200  178.6480  138.0010 C   0  0  0  0  0  0  0  0  0  0  0  0
  188.7870  179.3570  137.1260 N   0  0  0  0  0  0  0  0  0  0  0  0
  190.5750  175.9130  139.5640 C   0  0  0  0  0  2  0  0  0  0  0  0
  191.6330  176.6020  138.7240 C   0  0  0  0  0  2  0  0  0  0  0  0
  191.3500  176.3610  137.2570 C   0  0  0  0  0  1  0  0  0  0  0  0
  2  1  1  1  0  0  0
  2 17  1  0  0  0  0
  3  6  2  0  0  0  0
  3  2  1  0  0  0  0
  4  7  2  0  0  0  0
  4  3  1  0  0  0  0
  5  2  1  0  0  0  0
  5  8  1  1  0  0  0
  7  5  1  0  0  0  0
  9 19  2  0  0  0  0
  9 13  1  0  0  0  0
 11 10  1  0  0  0  0
 11 12  1  0  0  0  0
 12  9  1  0  0  0  0
 14 13  2  0  0  0  0
 15 18  1  0  0  0  0
 16 15  2  0  0  0  0
 17 16  1  0  0  0  0
 17 11  2  0  0  0  0
 18 12  2  0  0  0  0
 18 14  1  0  0  0  0
 20  4  1  0  0  0  0
 21 20  1  0  0  0  0
 22 21  3  0  0  0  0
 23  7  1  0  0  0  0
 24 23  1  0  0  0  0
 25 24  1  0  0  0  0
M  END
>  <MODEL>
4

>  <REMARK>
 VINA RESULT:      -6.0      2.166      6.800
  Name = 
  5 active torsions:
  status: ('A' for Active; 'I' for Inactive)
    1  A    between atoms: O_1  and  C_4
    2  A    between atoms: O_1  and  C_12
    3  A    between atoms: C_6  and  C_9
    4  A    between atoms: C_9  and  C_20
    5  A    between atoms: C_10  and  C_22
                            x       y       z     vdW  Elec       q    Type
                         _______ _______ _______ _____ _____    ______ ____

>  <TORSDO>
F 5

$$$$
=
 OpenBabel11042411453D

 25 27  0  0  1  0  0  0  0  0999 V2000
  190.5660  175.4260  143.2510 O   0  0  0  0  0  1  0  0  0  0  0  0
  189.8320  176.6100  143.1420 C   0  0  1  0  0  0  0  0  0  0  0  0
  188.4710  176.3550  143.7060 C   0  0  0  0  0  0  0  0  0  0  0  0
  188.2590  177.0980  144.9250 C   0  0  0  0  0  0  0  0  0  0  0  0
  190.4080  177.6550  144.1430 C   0  0  2  0  0  3  0  0  0  0  0  0
  187.6330  175.5480  143.2190 O   0  0  0  0  0  0  0  0  0  0  0  0
  189.3500  177.8120  145.1990 C   0  0  0  0  0  0  0  0  0  0  0  0
  190.7370  179.0180  143.5380 C   0  0  0  0  0  1  0  0  0  0  0  0
  187.7560  178.6270  138.8400 C   0  0  0  0  0  0  0  0  0  0  0  0
  187.3820  177.8810  141.8860 C   0  0  0  0  0  1  0  0  0  0  0  0
  188.6420  177.6690  141.1120 C   0  0  0  0  0  0  0  0  0  0  0  0
  188.6950  178.0300  139.7640 C   0  0  0  0  0  0  0  0  0  0  0  0
  188.3840  178.7290  137.5630 N   0  0  0  0  0  0  0  0  0  0  0  0
  189.5680  178.2590  137.6470 N   0  0  0  0  0  0  0  0  0  0  0  0
  190.9410  177.2170  139.4920 C   0  0  0  0  0  3  0  0  0  0  0  0
  190.9340  176.8450  140.8470 C   0  0  0  0  0  3  0  0  0  0  0  0
  189.8060  177.0750  141.6830 C   0  0  0  0  0  0  0  0  0  0  0  0
  189.7970  177.8170  138.9850 C   0  0  0  0  0  0  0  0  0  0  0  0
  186.5800  179.0030  139.0890 O   0  0  0  0  0  0  0  0  0  0  0  0
  187.0680  177.0170  145.6630 O   0  0  0  0  0  0  0  0  0  0  0  0
  186.0920  177.9780  145.6640 C   0  0  0  0  0  0  0  0  0  0  0  0
  185.2650  178.7880  145.6620 N   0  0  0  0  0  0  0  0  0  0  0  0
  189.5710  178.6450  146.4220 C   0  0  0  0  0  2  0  0  0  0  0  0
  189.5680  177.7690  147.6590 C   0  0  0  0  0  2  0  0  0  0  0  0
  188.4840  178.2350  148.6060 C   0  0  0  0  0  1  0  0  0  0  0  0
  2  1  1  1  0  0  0
  2  3  1  0  0  0  0
  2  5  1  0  0  0  0
  3  4  1  0  0  0  0
  4  7  2  0  0  0  0
  4 20  1  0  0  0  0
  5  8  1  6  0  0  0
  5  7  1  0  0  0  0
  6  3  2  0  0  0  0
  7 23  1  0  0  0  0
  9 19  2  0  0  0  0
  9 12  1  0  0  0  0
 11 17  1  0  0  0  0
 11 10  1  0  0  0  0
 12 11  2  0  0  0  0
 13 14  2  0  0  0  0
 13  9  1  0  0  0  0
 14 18  1  0  0  0  0
 15 16  1  0  0  0  0
 16 17  2  0  0  0  0
 17  2  1  0  0  0  0
 18 15  2  0  0  0  0
 18 12  1  0  0  0  0
 20 21  1  0  0  0  0
 22 21  3  0  0  0  0
 23 24  1  0  0  0  0
 24 25  1  0  0  0  0
M  END
>  <MODEL>
5

>  <REMARK>
 VINA RESULT:      -5.8      1.386      2.106
  Name = 
  5 active torsions:
  status: ('A' for Active; 'I' for Inactive)
    1  A    between atoms: O_1  and  C_4
    2  A    between atoms: O_1  and  C_12
    3  A    between atoms: C_6  and  C_9
    4  A    between atoms: C_9  and  C_20
    5  A    between atoms: C_10  and  C_22
                            x       y       z     vdW  Elec       q    Type
                         _______ _______ _______ _____ _____    ______ ____

>  <TORSDO>
F 5

$$$$
=
 OpenBabel11042411453D

 25 27  0  0  1  0  0  0  0  0999 V2000
  187.6520  175.7690  143.2180 O   0  0  0  0  0  1  0  0  0  0  0  0
  187.5760  177.1510  143.4110 C   0  0  1  0  0  0  0  0  0  0  0  0
  188.4650  177.8010  142.3990 C   0  0  0  0  0  0  0  0  0  0  0  0
  187.7010  178.5470  141.4290 C   0  0  0  0  0  0  0  0  0  0  0  0
  186.1670  177.6460  142.9700 C   0  0  2  0  0  3  0  0  0  0  0  0
  189.7180  177.6680  142.3560 O   0  0  0  0  0  0  0  0  0  0  0  0
  186.4040  178.4460  141.7210 C   0  0  0  0  0  0  0  0  0  0  0  0
  185.4310  178.5020  143.9980 C   0  0  0  0  0  1  0  0  0  0  0  0
  190.6210  177.3930  147.6010 C   0  0  0  0  0  0  0  0  0  0  0  0
  190.3190  176.5670  144.5670 C   0  0  0  0  0  1  0  0  0  0  0  0
  189.2430  177.2130  145.3800 C   0  0  0  0  0  0  0  0  0  0  0  0
  189.4840  177.5290  146.7180 C   0  0  0  0  0  0  0  0  0  0  0  0
  190.2520  177.8770  148.8910 N   0  0  0  0  0  0  0  0  0  0  0  0
  189.0380  178.2720  148.8500 N   0  0  0  0  0  0  0  0  0  0  0  0
  187.2480  178.3410  147.0710 C   0  0  0  0  0  3  0  0  0  0  0  0
  186.9660  178.0450  145.7270 C   0  0  0  0  0  3  0  0  0  0  0  0
  187.9480  177.4970  144.8560 C   0  0  0  0  0  0  0  0  0  0  0  0
  188.5300  178.0730  147.5320 C   0  0  0  0  0  0  0  0  0  0  0  0
  191.7560  176.9290  147.3110 O   0  0  0  0  0  0  0  0  0  0  0  0
  188.2990  179.2340  140.3620 O   0  0  0  0  0  0  0  0  0  0  0  0
  188.8430  178.6280  139.2590 C   0  0  0  0  0  0  0  0  0  0  0  0
  189.2980  178.1160  138.3270 N   0  0  0  0  0  0  0  0  0  0  0  0
  185.2760  178.9980  140.9080 C   0  0  0  0  0  2  0  0  0  0  0  0
  184.1440  177.9920  140.8330 C   0  0  0  0  0  2  0  0  0  0  0  0
  182.8700  178.6260  141.3480 C   0  0  0  0  0  1  0  0  0  0  0  0
  2  1  1  6  0  0  0
  2 17  1  0  0  0  0
  3  2  1  0  0  0  0
  4  7  2  0  0  0  0
  4  3  1  0  0  0  0
  5  2  1  0  0  0  0
  5  8  1  1  0  0  0
  6  3  2  0  0  0  0
  7  5  1  0  0  0  0
  9 13  1  0  0  0  0
 10 11  1  0  0  0  0
 11 12  1  0  0  0  0
 12 18  2  0  0  0  0
 12  9  1  0  0  0  0
 14 13  2  0  0  0  0
 15 18  1  0  0  0  0
 16 15  2  0  0  0  0
 17 11  2  0  0  0  0
 17 16  1  0  0  0  0
 18 14  1  0  0  0  0
 19  9  2  0  0  0  0
 20  4  1  0  0  0  0
 21 20  1  0  0  0  0
 22 21  3  0  0  0  0
 23  7  1  0  0  0  0
 24 23  1  0  0  0  0
 24 25  1  0  0  0  0
M  END
>  <MODEL>
6

>  <REMARK>
 VINA RESULT:      -5.6      2.527      6.934
  Name = 
  5 active torsions:
  status: ('A' for Active; 'I' for Inactive)
    1  A    between atoms: O_1  and  C_4
    2  A    between atoms: O_1  and  C_12
    3  A    between atoms: C_6  and  C_9
    4  A    between atoms: C_9  and  C_20
    5  A    between atoms: C_10  and  C_22
                            x       y       z     vdW  Elec       q    Type
                         _______ _______ _______ _____ _____    ______ ____

>  <TORSDO>
F 5

$$$$
=
 OpenBabel11042411453D

 25 27  0  0  1  0  0  0  0  0999 V2000
  186.4260  175.9180  143.9680 O   0  0  0  0  0  1  0  0  0  0  0  0
  186.6730  177.2490  144.3150 C   0  0  1  0  0  0  0  0  0  0  0  0
  186.8480  178.0250  143.0480 C   0  0  0  0  0  0  0  0  0  0  0  0
  185.7640  178.9560  142.8480 C   0  0  0  0  0  0  0  0  0  0  0  0
  185.3690  177.8690  144.8980 C   0  0  2  0  0  3  0  0  0  0  0  0
  187.7870  177.8500  142.2250 O   0  0  0  0  0  0  0  0  0  0  0  0
  184.9090  178.8600  143.8660 C   0  0  0  0  0  0  0  0  0  0  0  0
  185.5300  178.5670  146.2460 C   0  0  0  0  0  1  0  0  0  0  0  0
  191.5550  176.3880  145.8370 C   0  0  0  0  0  0  0  0  0  0  0  0
  189.3590  176.0390  143.5930 C   0  0  0  0  0  1  0  0  0  0  0  0
  189.1400  176.7520  144.8880 C   0  0  0  0  0  0  0  0  0  0  0  0
  190.1810  176.8400  145.8140 C   0  0  0  0  0  0  0  0  0  0  0  0
  192.1290  176.7550  147.0900 N   0  0  0  0  0  0  0  0  0  0  0  0
  191.2470  177.3610  147.7860 N   0  0  0  0  0  0  0  0  0  0  0  0
  188.8240  177.9820  147.4380 C   0  0  0  0  0  3  0  0  0  0  0  0
  187.7520  177.9220  146.5330 C   0  0  0  0  0  3  0  0  0  0  0  0
  187.8860  177.3290  145.2470 C   0  0  0  0  0  0  0  0  0  0  0  0
  190.0340  177.4320  147.0370 C   0  0  0  0  0  0  0  0  0  0  0  0
  192.1660  175.7730  144.9240 O   0  0  0  0  0  0  0  0  0  0  0  0
  185.6820  179.7890  141.7220 O   0  0  0  0  0  0  0  0  0  0  0  0
  185.2610  179.3780  140.4840 C   0  0  0  0  0  0  0  0  0  0  0  0
  184.9010  179.0320  139.4400 N   0  0  0  0  0  0  0  0  0  0  0  0
  183.6080  179.5870  143.9910 C   0  0  0  0  0  2  0  0  0  0  0  0
  182.5520  178.9230  143.1290 C   0  0  0  0  0  2  0  0  0  0  0  0
  181.3280  178.6280  143.9690 C   0  0  0  0  0  1  0  0  0  0  0  0
  2  1  1  6  0  0  0
  2  5  1  0  0  0  0
  2 17  1  0  0  0  0
  3  2  1  0  0  0  0
  4  3  1  0  0  0  0
  4  7  2  0  0  0  0
  5  8  1  1  0  0  0
  6  3  2  0  0  0  0
  7 23  1  0  0  0  0
  7  5  1  0  0  0  0
  9 13  1  0  0  0  0
 10 11  1  0  0  0  0
 11 17  2  0  0  0  0
 11 12  1  0  0  0  0
 12  9  1  0  0  0  0
 12 18  2  0  0  0  0
 13 14  2  0  0  0  0
 16 15  2  0  0  0  0
 17 16  1  0  0  0  0
 18 15  1  0  0  0  0
 18 14  1  0  0  0  0
 19  9  2  0  0  0  0
 20  4  1  0  0  0  0
 21 20  1  0  0  0  0
 22 21  3  0  0  0  0
 24 25  1  0  0  0  0
 24 23  1  0  0  0  0
M  END
>  <MODEL>
7

>  <REMARK>
 VINA RESULT:      -5.6      3.151      6.465
  Name = 
  5 active torsions:
  status: ('A' for Active; 'I' for Inactive)
    1  A    between atoms: O_1  and  C_4
    2  A    between atoms: O_1  and  C_12
    3  A    between atoms: C_6  and  C_9
    4  A    between atoms: C_9  and  C_20
    5  A    between atoms: C_10  and  C_22
                            x       y       z     vdW  Elec       q    Type
                         _______ _______ _______ _____ _____    ______ ____

>  <TORSDO>
F 5

$$$$
=
 OpenBabel11042411453D

 25 27  0  0  1  0  0  0  0  0999 V2000
  185.2660  178.8560  139.3950 O   0  0  0  0  0  1  0  0  0  0  0  0
  183.9150  178.6660  139.6930 C   0  0  1  0  0  0  0  0  0  0  0  0
  183.1280  179.6590  138.8970 C   0  0  0  0  0  0  0  0  0  0  0  0
  182.3300  179.0090  137.8870 C   0  0  0  0  0  0  0  0  0  0  0  0
  183.4470  177.3140  139.0780 C   0  0  2  0  0  3  0  0  0  0  0  0
  183.1980  180.9090  139.0440 O   0  0  0  0  0  0  0  0  0  0  0  0
  182.5200  177.6910  137.9570 C   0  0  0  0  0  0  0  0  0  0  0  0
  182.7290  176.3750  140.0450 C   0  0  0  0  0  1  0  0  0  0  0  0
  185.2440  178.6440  144.7050 C   0  0  0  0  0  0  0  0  0  0  0  0
  186.1730  178.3820  141.6970 C   0  0  0  0  0  1  0  0  0  0  0  0
  184.7670  178.6490  142.1290 C   0  0  0  0  0  0  0  0  0  0  0  0
  184.4670  178.7380  143.4890 C   0  0  0  0  0  0  0  0  0  0  0  0
  184.3630  178.7930  145.8170 N   0  0  0  0  0  0  0  0  0  0  0  0
  183.1750  178.9580  145.3810 N   0  0  0  0  0  0  0  0  0  0  0  0
  182.1150  179.0410  143.0900 C   0  0  0  0  0  3  0  0  0  0  0  0
  182.3740  178.9650  141.7110 C   0  0  0  0  0  3  0  0  0  0  0  0
  183.6910  178.7870  141.2040 C   0  0  0  0  0  0  0  0  0  0  0  0
  183.1960  178.9290  143.9540 C   0  0  0  0  0  0  0  0  0  0  0  0
  186.4870  178.4620  144.7990 O   0  0  0  0  0  0  0  0  0  0  0  0
  181.5160  179.7220  136.9930 O   0  0  0  0  0  0  0  0  0  0  0  0
  180.2450  180.1470  137.2740 C   0  0  0  0  0  0  0  0  0  0  0  0
  179.1720  180.5080  137.5140 N   0  0  0  0  0  0  0  0  0  0  0  0
  181.9460  176.6710  137.0260 C   0  0  0  0  0  2  0  0  0  0  0  0
  183.0600  175.9350  136.3060 C   0  0  0  0  0  2  0  0  0  0  0  0
  183.6500  176.8310  135.2390 C   0  0  0  0  0  1  0  0  0  0  0  0
  2  1  1  6  0  0  0
  2 17  1  0  0  0  0
  3  6  2  0  0  0  0
  3  2  1  0  0  0  0
  4  7  2  0  0  0  0
  4  3  1  0  0  0  0
  5  2  1  0  0  0  0
  5  8  1  1  0  0  0
  7  5  1  0  0  0  0
  9 19  2  0  0  0  0
  9 13  1  0  0  0  0
 10 11  1  0  0  0  0
 11 12  1  0  0  0  0
 12 18  2  0  0  0  0
 12  9  1  0  0  0  0
 14 13  2  0  0  0  0
 15 18  1  0  0  0  0
 16 15  2  0  0  0  0
 17 16  1  0  0  0  0
 17 11  2  0  0  0  0
 18 14  1  0  0  0  0
 20 21  1  0  0  0  0
 20  4  1  0  0  0  0
 21 22  3  0  0  0  0
 23  7  1  0  0  0  0
 24 23  1  0  0  0  0
 25 24  1  0  0  0  0
M  END
>  <MODEL>
8

>  <REMARK>
 VINA RESULT:      -5.6      5.369      8.980
  Name = 
  5 active torsions:
  status: ('A' for Active; 'I' for Inactive)
    1  A    between atoms: O_1  and  C_4
    2  A    between atoms: O_1  and  C_12
    3  A    between atoms: C_6  and  C_9
    4  A    between atoms: C_9  and  C_20
    5  A    between atoms: C_10  and  C_22
                            x       y       z     vdW  Elec       q    Type
                         _______ _______ _______ _____ _____    ______ ____

>  <TORSDO>
F 5

$$$$
=
 OpenBabel11042411453D

 25 27  0  0  1  0  0  0  0  0999 V2000
  190.8730  179.5060  143.9040 O   0  0  0  0  0  1  0  0  0  0  0  0
  190.2130  178.2750  143.8670 C   0  0  1  0  0  0  0  0  0  0  0  0
  191.2210  177.2090  144.1640 C   0  0  0  0  0  0  0  0  0  0  0  0
  190.9600  176.5790  145.4350 C   0  0  0  0  0  0  0  0  0  0  0  0
  189.2630  178.1740  145.0970 C   0  0  2  0  0  3  0  0  0  0  0  0
  192.2090  176.9350  143.4300 O   0  0  0  0  0  0  0  0  0  0  0  0
  189.8790  177.1300  145.9850 C   0  0  0  0  0  0  0  0  0  0  0  0
  187.8220  177.7880  144.7720 C   0  0  0  0  0  1  0  0  0  0  0  0
  189.9110  177.3030  138.7820 C   0  0  0  0  0  0  0  0  0  0  0  0
  191.7310  177.5030  141.3570 C   0  0  0  0  0  1  0  0  0  0  0  0
  190.2540  177.7320  141.3440 C   0  0  0  0  0  0  0  0  0  0  0  0
  189.5480  177.6250  140.1450 C   0  0  0  0  0  0  0  0  0  0  0  0
  188.7390  177.3800  137.9730 N   0  0  0  0  0  0  0  0  0  0  0  0
  187.7510  177.7090  138.7100 N   0  0  0  0  0  0  0  0  0  0  0  0
  187.4600  178.2510  141.1590 C   0  0  0  0  0  3  0  0  0  0  0  0
  188.1300  178.3640  142.3880 C   0  0  0  0  0  3  0  0  0  0  0  0
  189.5210  178.0940  142.5130 C   0  0  0  0  0  0  0  0  0  0  0  0
  188.2070  177.8700  140.0530 C   0  0  0  0  0  0  0  0  0  0  0  0
  191.0570  177.0040  138.3530 O   0  0  0  0  0  0  0  0  0  0  0  0
  191.7750  175.5600  145.9540 O   0  0  0  0  0  0  0  0  0  0  0  0
  192.4230  175.6270  147.1590 C   0  0  0  0  0  0  0  0  0  0  0  0
  192.9680  175.6850  148.1780 N   0  0  0  0  0  0  0  0  0  0  0  0
  189.3310  176.8220  147.3420 C   0  0  0  0  0  2  0  0  0  0  0  0
  189.3120  178.0750  148.1960 C   0  0  0  0  0  2  0  0  0  0  0  0
  187.9470  178.2350  148.8280 C   0  0  0  0  0  1  0  0  0  0  0  0
  2  1  1  1  0  0  0
  2  3  1  0  0  0  0
  2  5  1  0  0  0  0
  3  4  1  0  0  0  0
  4 20  1  0  0  0  0
  4  7  2  0  0  0  0
  5  8  1  6  0  0  0
  5  7  1  0  0  0  0
  6  3  2  0  0  0  0
  7 23  1  0  0  0  0
  9 12  1  0  0  0  0
 11 10  1  0  0  0  0
 11 17  1  0  0  0  0
 12 11  2  0  0  0  0
 13 14  2  0  0  0  0
 13  9  1  0  0  0  0
 14 18  1  0  0  0  0
 15 16  1  0  0  0  0
 16 17  2  0  0  0  0
 17  2  1  0  0  0  0
 18 12  1  0  0  0  0
 18 15  2  0  0  0  0
 19  9  2  0  0  0  0
 20 21  1  0  0  0  0
 21 22  3  0  0  0  0
 23 24  1  0  0  0  0
 24 25  1  0  0  0  0
M  END
>  <MODEL>
9

>  <REMARK>
 VINA RESULT:      -5.5      2.534      3.301
  Name = 
  5 active torsions:
  status: ('A' for Active; 'I' for Inactive)
    1  A    between atoms: O_1  and  C_4
    2  A    between atoms: O_1  and  C_12
    3  A    between atoms: C_6  and  C_9
    4  A    between atoms: C_9  and  C_20
    5  A    between atoms: C_10  and  C_22
                            x       y       z     vdW  Elec       q    Type
                         _______ _______ _______ _____ _____    ______ ____

>  <TORSDO>
F 5

$$$$
