=
 OpenBabel11042412163D

 34 37  0  0  1  0  0  0  0  0999 V2000
  189.6400  177.2280  140.9770 C   0  0  0  0  0  0  0  0  0  0  0  0
  188.1790  177.1350  142.9570 C   0  0  1  0  0  3  0  0  0  0  0  0
  187.4730  178.3910  142.3900 C   0  0  1  0  0  3  0  0  0  0  0  0
  188.2210  179.1160  141.4350 O   0  0  0  0  0  0  0  0  0  0  0  0
  189.4240  176.7140  142.2040 C   0  0  0  0  0  0  0  0  0  0  0  0
  188.7170  178.2230  140.5340 N   0  0  0  0  0  2  0  0  0  0  0  0
  190.2420  175.5970  142.7710 C   0  0  0  0  0  1  0  0  0  0  0  0
  187.4100  178.1380  147.6860 C   0  0  0  0  0  0  0  0  0  0  0  0
  186.0760  178.5480  147.5050 C   0  0  0  0  0  3  0  0  0  0  0  0
  187.5520  177.7110  145.3120 C   0  0  0  0  0  0  0  0  0  0  0  0
  188.4410  177.2980  144.3860 N   0  0  0  0  0  0  0  0  0  0  0  0
  189.4240  177.3030  146.3860 C   0  0  0  0  0  0  0  0  0  0  0  0
  186.2270  178.1030  145.1040 C   0  0  0  0  0  3  0  0  0  0  0  0
  190.3870  177.1710  147.3790 O   0  0  0  0  0  1  0  0  0  0  0  0
  188.1230  177.7240  146.5580 C   0  0  0  0  0  0  0  0  0  0  0  0
  189.6060  177.0370  145.0310 C   0  0  0  0  0  3  0  0  0  0  0  0
  185.4760  178.5270  146.2190 C   0  0  0  0  0  0  0  0  0  0  0  0
  187.9830  178.1380  148.9500 O   0  0  0  0  0  1  0  0  0  0  0  0
  184.1430  178.9040  146.0360 O   0  0  0  0  0  0  0  0  0  0  0  0
  183.5220  178.9350  144.7560 C   0  0  0  0  0  1  0  0  0  0  0  0
  190.5550  175.8260  139.0620 N   0  0  0  0  0  2  0  0  0  0  0  0
  191.8780  177.3550  140.2130 O   0  0  0  0  0  0  0  0  0  0  0  0
  190.7410  176.8290  140.0660 C   0  0  0  0  0  0  0  0  0  0  0  0
  191.6220  175.3280  138.2970 N   0  0  0  0  0  2  0  0  0  0  0  0
  191.0530  174.6950  137.1170 C   0  0  2  0  0  3  0  0  0  0  0  0
  190.1500  173.6880  137.4990 O   0  0  0  0  0  0  0  0  0  0  0  0
  189.4870  173.2880  136.3230 C   0  0  0  0  0  2  0  0  0  0  0  0
  191.8500  172.7550  135.7970 N   0  0  0  0  0  2  0  0  0  0  0  0
  192.1680  174.1180  136.2270 C   0  0  0  0  0  2  0  0  0  0  0  0
  190.4680  172.6880  135.3020 C   0  0  0  0  0  2  0  0  0  0  0  0
  186.1350  178.0890  141.8960 N   0  0  0  0  0  2  0  0  0  0  0  0
  185.4490  179.3640  141.6860 C   0  0  0  0  0  2  0  0  0  0  0  0
  184.9760  179.4440  140.3140 N   0  0  0  0  0  2  0  0  0  0  0  0
  183.7650  178.6390  140.2090 C   0  0  0  0  0  1  0  0  0  0  0  0
  1  5  2  0  0  0  0
  2 11  1  1  0  0  0
  3 31  1  6  0  0  0
  3  2  1  0  0  0  0
  4  3  1  0  0  0  0
  5  7  1  0  0  0  0
  5  2  1  0  0  0  0
  6  1  1  0  0  0  0
  6  4  1  0  0  0  0
  8 18  1  0  0  0  0
  9  8  1  0  0  0  0
 10 15  1  0  0  0  0
 11 16  1  0  0  0  0
 11 10  1  0  0  0  0
 12 15  1  0  0  0  0
 12 14  1  0  0  0  0
 13 10  2  0  0  0  0
 13 17  1  0  0  0  0
 15  8  2  0  0  0  0
 16 12  2  0  0  0  0
 17  9  2  0  0  0  0
 19 17  1  0  0  0  0
 20 19  1  0  0  0  0
 21 23  1  0  0  0  0
 23 22  2  0  0  0  0
 23  1  1  0  0  0  0
 24 21  1  0  0  0  0
 25 26  1  0  0  0  0
 25 24  1  1  0  0  0
 27 26  1  0  0  0  0
 28 29  1  0  0  0  0
 29 25  1  0  0  0  0
 30 28  1  0  0  0  0
 30 27  1  0  0  0  0
 32 31  1  0  0  0  0
 33 32  1  0  0  0  0
 34 33  1  0  0  0  0
M  END
>  <MODEL>
1

>  <REMARK>
 VINA RESULT:      -9.4      0.000      0.000
  Name = 
  8 active torsions:
  status: ('A' for Active; 'I' for Inactive)
    1  A    between atoms: C_2  and  C_33
    2  A    between atoms: C_3  and  N_20
    3  A    between atoms: N_7  and  N_20
    4  A    between atoms: N_9  and  C_11
    5  A    between atoms: C_10  and  N_13
    6  A    between atoms: C_10  and  N_31
    7  A    between atoms: C_17  and  N_31
    8  A    between atoms: O_19  and  C_29
                            x       y       z     vdW  Elec       q    Type
                         _______ _______ _______ _____ _____    ______ ____

>  <TORSDO>
F 8

$$$$
=
 OpenBabel11042412163D

 34 37  0  0  1  0  0  0  0  0999 V2000
  190.0420  176.7980  141.0070 C   0  0  0  0  0  0  0  0  0  0  0  0
  188.9300  177.8930  142.9110 C   0  0  1  0  0  3  0  0  0  0  0  0
  189.5800  176.8090  143.8050 C   0  0  1  0  0  3  0  0  0  0  0  0
  190.0100  175.6500  143.1210 O   0  0  0  0  0  0  0  0  0  0  0  0
  189.1100  177.6780  141.4220 C   0  0  0  0  0  0  0  0  0  0  0  0
  190.7110  176.0520  142.0250 N   0  0  0  0  0  2  0  0  0  0  0  0
  188.3930  178.6010  140.4890 C   0  0  0  0  0  1  0  0  0  0  0  0
  184.9170  178.4790  145.6520 C   0  0  0  0  0  0  0  0  0  0  0  0
  185.6000  178.4030  146.8810 C   0  0  0  0  0  3  0  0  0  0  0  0
  187.0260  178.1790  144.5140 C   0  0  0  0  0  0  0  0  0  0  0  0
  187.5210  178.0680  143.2640 N   0  0  0  0  0  0  0  0  0  0  0  0
  185.3150  178.3570  143.1480 C   0  0  0  0  0  0  0  0  0  0  0  0
  187.7320  178.1090  145.7170 C   0  0  0  0  0  3  0  0  0  0  0  0
  184.0320  178.4990  142.6350 O   0  0  0  0  0  1  0  0  0  0  0  0
  185.6680  178.3600  144.4800 C   0  0  0  0  0  0  0  0  0  0  0  0
  186.4780  178.1800  142.4030 C   0  0  0  0  0  3  0  0  0  0  0  0
  187.0070  178.2240  146.9210 C   0  0  0  0  0  0  0  0  0  0  0  0
  183.5430  178.6760  145.6200 O   0  0  0  0  0  1  0  0  0  0  0  0
  187.6970  178.1780  148.1350 O   0  0  0  0  0  0  0  0  0  0  0  0
  189.1170  178.1350  148.2120 C   0  0  0  0  0  1  0  0  0  0  0  0
  191.7510  176.8250  139.1220 N   0  0  0  0  0  2  0  0  0  0  0  0
  189.5450  176.1670  138.7780 O   0  0  0  0  0  0  0  0  0  0  0  0
  190.4240  176.5630  139.5930 C   0  0  0  0  0  0  0  0  0  0  0  0
  192.0880  176.7550  137.7610 N   0  0  0  0  0  2  0  0  0  0  0  0
  193.0940  175.7150  137.6140 C   0  0  2  0  0  3  0  0  0  0  0  0
  194.1080  175.8870  138.5720 O   0  0  0  0  0  0  0  0  0  0  0  0
  194.9070  174.7290  138.5100 C   0  0  0  0  0  2  0  0  0  0  0  0
  195.1410  175.6490  136.2200 N   0  0  0  0  0  2  0  0  0  0  0  0
  193.6800  175.7320  136.1910 C   0  0  0  0  0  2  0  0  0  0  0  0
  195.5730  174.5800  137.1310 C   0  0  0  0  0  2  0  0  0  0  0  0
  190.6430  177.3560  144.6400 N   0  0  0  0  0  2  0  0  0  0  0  0
  191.1760  176.2570  145.4440 C   0  0  0  0  0  2  0  0  0  0  0  0
  191.8740  176.7910  146.6020 N   0  0  0  0  0  2  0  0  0  0  0  0
  192.3200  175.6660  147.4160 C   0  0  0  0  0  1  0  0  0  0  0  0
  1  5  2  0  0  0  0
  1  6  1  0  0  0  0
  2 11  1  6  0  0  0
  2  3  1  0  0  0  0
  3 31  1  6  0  0  0
  4  3  1  0  0  0  0
  5  2  1  0  0  0  0
  6  4  1  0  0  0  0
  7  5  1  0  0  0  0
  8  9  1  0  0  0  0
  9 17  2  0  0  0  0
 10 13  2  0  0  0  0
 11 10  1  0  0  0  0
 12 15  1  0  0  0  0
 13 17  1  0  0  0  0
 14 12  1  0  0  0  0
 15 10  1  0  0  0  0
 15  8  2  0  0  0  0
 16 12  2  0  0  0  0
 16 11  1  0  0  0  0
 17 19  1  0  0  0  0
 18  8  1  0  0  0  0
 19 20  1  0  0  0  0
 21 23  1  0  0  0  0
 22 23  2  0  0  0  0
 23  1  1  0  0  0  0
 24 21  1  0  0  0  0
 25 24  1  6  0  0  0
 25 26  1  0  0  0  0
 27 26  1  0  0  0  0
 28 30  1  0  0  0  0
 29 28  1  0  0  0  0
 29 25  1  0  0  0  0
 30 27  1  0  0  0  0
 31 32  1  0  0  0  0
 32 33  1  0  0  0  0
 33 34  1  0  0  0  0
M  END
>  <MODEL>
2

>  <REMARK>
 VINA RESULT:      -8.6      2.345      4.670
  Name = 
  8 active torsions:
  status: ('A' for Active; 'I' for Inactive)
    1  A    between atoms: C_2  and  C_33
    2  A    between atoms: C_3  and  N_20
    3  A    between atoms: N_7  and  N_20
    4  A    between atoms: N_9  and  C_11
    5  A    between atoms: C_10  and  N_13
    6  A    between atoms: C_10  and  N_31
    7  A    between atoms: C_17  and  N_31
    8  A    between atoms: O_19  and  C_29
                            x       y       z     vdW  Elec       q    Type
                         _______ _______ _______ _____ _____    ______ ____

>  <TORSDO>
F 8

$$$$
=
 OpenBabel11042412163D

 34 37  0  0  1  0  0  0  0  0999 V2000
  189.8350  176.8960  141.3120 C   0  0  0  0  0  0  0  0  0  0  0  0
  188.0440  177.8190  142.7280 C   0  0  1  0  0  3  0  0  0  0  0  0
  188.1890  176.5450  143.5950 C   0  0  1  0  0  3  0  0  0  0  0  0
  188.8280  175.4570  142.9570 O   0  0  0  0  0  0  0  0  0  0  0  0
  188.8530  177.8080  141.4470 C   0  0  0  0  0  0  0  0  0  0  0  0
  189.9560  175.9330  142.3600 N   0  0  0  0  0  2  0  0  0  0  0  0
  188.6580  178.9380  140.4860 C   0  0  0  0  0  1  0  0  0  0  0  0
  183.3530  178.9230  143.5790 C   0  0  0  0  0  0  0  0  0  0  0  0
  183.4900  178.9580  144.9800 C   0  0  0  0  0  3  0  0  0  0  0  0
  185.7010  178.3860  143.4070 C   0  0  0  0  0  0  0  0  0  0  0  0
  186.6330  178.1050  142.4740 N   0  0  0  0  0  0  0  0  0  0  0  0
  184.6850  178.4880  141.4630 C   0  0  0  0  0  0  0  0  0  0  0  0
  185.8710  178.4230  144.7930 C   0  0  0  0  0  3  0  0  0  0  0  0
  183.7230  178.6340  140.4700 O   0  0  0  0  0  1  0  0  0  0  0  0
  184.4880  178.6310  142.8200 C   0  0  0  0  0  0  0  0  0  0  0  0
  186.0240  178.1670  141.2620 C   0  0  0  0  0  3  0  0  0  0  0  0
  184.7470  178.7150  145.5940 C   0  0  0  0  0  0  0  0  0  0  0  0
  182.1250  179.1850  142.9850 O   0  0  0  0  0  1  0  0  0  0  0  0
  184.9000  178.7770  146.9800 O   0  0  0  0  0  0  0  0  0  0  0  0
  186.1690  178.7100  147.6180 C   0  0  0  0  0  1  0  0  0  0  0  0
  190.5590  175.9800  139.0510 N   0  0  0  0  0  2  0  0  0  0  0  0
  191.8530  177.5100  140.2340 O   0  0  0  0  0  0  0  0  0  0  0  0
  190.7900  176.8310  140.1790 C   0  0  0  0  0  0  0  0  0  0  0  0
  191.5210  175.7910  138.0480 N   0  0  0  0  0  2  0  0  0  0  0  0
  190.8340  175.8550  136.7670 C   0  0  2  0  0  3  0  0  0  0  0  0
  189.9690  176.9630  136.7400 O   0  0  0  0  0  0  0  0  0  0  0  0
  189.5230  177.0800  135.4090 C   0  0  0  0  0  2  0  0  0  0  0  0
  188.7000  174.8280  136.0390 N   0  0  0  0  0  2  0  0  0  0  0  0
  190.0590  174.5510  136.5090 C   0  0  0  0  0  2  0  0  0  0  0  0
  188.7250  175.8390  134.9730 C   0  0  0  0  0  2  0  0  0  0  0  0
  188.7980  176.8300  144.8890 N   0  0  0  0  0  2  0  0  0  0  0  0
  189.4550  178.1320  144.7850 C   0  0  0  0  0  2  0  0  0  0  0  0
  190.8880  177.9750  144.9770 N   0  0  0  0  0  2  0  0  0  0  0  0
  191.5670  178.7840  143.9720 C   0  0  0  0  0  1  0  0  0  0  0  0
  1  5  2  0  0  0  0
  1  6  1  0  0  0  0
  2 11  1  6  0  0  0
  2  3  1  0  0  0  0
  3 31  1  1  0  0  0
  4  3  1  0  0  0  0
  5  2  1  0  0  0  0
  6  4  1  0  0  0  0
  7  5  1  0  0  0  0
  8  9  1  0  0  0  0
  9 17  2  0  0  0  0
 10 13  2  0  0  0  0
 11 10  1  0  0  0  0
 12 15  1  0  0  0  0
 13 17  1  0  0  0  0
 14 12  1  0  0  0  0
 15 10  1  0  0  0  0
 15  8  2  0  0  0  0
 16 12  2  0  0  0  0
 16 11  1  0  0  0  0
 17 19  1  0  0  0  0
 18  8  1  0  0  0  0
 19 20  1  0  0  0  0
 21 23  1  0  0  0  0
 23 22  2  0  0  0  0
 23  1  1  0  0  0  0
 24 21  1  0  0  0  0
 25 24  1  1  0  0  0
 26 25  1  0  0  0  0
 27 26  1  0  0  0  0
 28 29  1  0  0  0  0
 29 25  1  0  0  0  0
 30 27  1  0  0  0  0
 30 28  1  0  0  0  0
 32 31  1  0  0  0  0
 32 33  1  0  0  0  0
 34 33  1  0  0  0  0
M  END
>  <MODEL>
3

>  <REMARK>
 VINA RESULT:      -8.5      2.065      4.347
  Name = 
  8 active torsions:
  status: ('A' for Active; 'I' for Inactive)
    1  A    between atoms: C_2  and  C_33
    2  A    between atoms: C_3  and  N_20
    3  A    between atoms: N_7  and  N_20
    4  A    between atoms: N_9  and  C_11
    5  A    between atoms: C_10  and  N_13
    6  A    between atoms: C_10  and  N_31
    7  A    between atoms: C_17  and  N_31
    8  A    between atoms: O_19  and  C_29
                            x       y       z     vdW  Elec       q    Type
                         _______ _______ _______ _____ _____    ______ ____

>  <TORSDO>
F 8

$$$$
=
 OpenBabel11042412163D

 34 37  0  0  1  0  0  0  0  0999 V2000
  190.1010  176.8220  141.1620 C   0  0  0  0  0  0  0  0  0  0  0  0
  188.9600  177.8690  143.0760 C   0  0  1  0  0  3  0  0  0  0  0  0
  189.6020  176.7670  143.9540 C   0  0  1  0  0  3  0  0  0  0  0  0
  190.0450  175.6240  143.2480 O   0  0  0  0  0  0  0  0  0  0  0  0
  189.1620  177.6890  141.5860 C   0  0  0  0  0  0  0  0  0  0  0  0
  190.7590  176.0550  142.1710 N   0  0  0  0  0  2  0  0  0  0  0  0
  188.4540  178.6320  140.6640 C   0  0  0  0  0  1  0  0  0  0  0  0
  184.9210  178.4960  145.7690 C   0  0  0  0  0  0  0  0  0  0  0  0
  185.5980  178.4870  147.0030 C   0  0  0  0  0  3  0  0  0  0  0  0
  187.0420  178.1880  144.6550 C   0  0  0  0  0  0  0  0  0  0  0  0
  187.5470  178.0320  143.4150 N   0  0  0  0  0  0  0  0  0  0  0  0
  185.3360  178.2730  143.2750 C   0  0  0  0  0  0  0  0  0  0  0  0
  187.7420  178.1850  145.8640 C   0  0  0  0  0  3  0  0  0  0  0  0
  184.0530  178.3670  142.7490 O   0  0  0  0  0  1  0  0  0  0  0  0
  185.6810  178.3410  144.6070 C   0  0  0  0  0  0  0  0  0  0  0  0
  186.5070  178.0860  142.5440 C   0  0  0  0  0  3  0  0  0  0  0  0
  187.0080  178.3380  147.0590 C   0  0  0  0  0  0  0  0  0  0  0  0
  183.5440  178.6650  145.7210 O   0  0  0  0  0  1  0  0  0  0  0  0
  187.6910  178.3580  148.2760 O   0  0  0  0  0  0  0  0  0  0  0  0
  189.0950  178.1480  148.3750 C   0  0  0  0  0  1  0  0  0  0  0  0
  189.6350  175.9830  138.8060 N   0  0  0  0  0  2  0  0  0  0  0  0
  191.6560  176.9830  139.3820 O   0  0  0  0  0  0  0  0  0  0  0  0
  190.5030  176.6220  139.7480 C   0  0  0  0  0  0  0  0  0  0  0  0
  190.0570  175.6490  137.5100 N   0  0  0  0  0  2  0  0  0  0  0  0
  189.0190  176.0850  136.5880 C   0  0  2  0  0  3  0  0  0  0  0  0
  189.4750  177.1780  135.8320 O   0  0  0  0  0  0  0  0  0  0  0  0
  188.5120  177.3880  134.8260 C   0  0  0  0  0  2  0  0  0  0  0  0
  187.1890  177.7270  136.8940 N   0  0  0  0  0  2  0  0  0  0  0  0
  187.7380  176.4510  137.3570 C   0  0  0  0  0  2  0  0  0  0  0  0
  187.1460  177.7600  135.4260 C   0  0  0  0  0  2  0  0  0  0  0  0
  190.6520  177.2960  144.8150 N   0  0  0  0  0  2  0  0  0  0  0  0
  191.0800  176.2120  145.6990 C   0  0  0  0  0  2  0  0  0  0  0  0
  191.8050  176.7620  146.8320 N   0  0  0  0  0  2  0  0  0  0  0  0
  192.4510  175.6570  147.5310 C   0  0  0  0  0  1  0  0  0  0  0  0
  1  5  2  0  0  0  0
  1  6  1  0  0  0  0
  2 11  1  6  0  0  0
  2  3  1  0  0  0  0
  3 31  1  6  0  0  0
  4  3  1  0  0  0  0
  5  2  1  0  0  0  0
  6  4  1  0  0  0  0
  7  5  1  0  0  0  0
  8  9  1  0  0  0  0
  9 17  2  0  0  0  0
 10 13  2  0  0  0  0
 11 10  1  0  0  0  0
 12 15  1  0  0  0  0
 13 17  1  0  0  0  0
 14 12  1  0  0  0  0
 15 10  1  0  0  0  0
 15  8  2  0  0  0  0
 16 12  2  0  0  0  0
 16 11  1  0  0  0  0
 17 19  1  0  0  0  0
 18  8  1  0  0  0  0
 19 20  1  0  0  0  0
 21 23  1  0  0  0  0
 22 23  2  0  0  0  0
 23  1  1  0  0  0  0
 24 21  1  0  0  0  0
 25 29  1  0  0  0  0
 25 24  1  1  0  0  0
 26 25  1  0  0  0  0
 27 30  1  0  0  0  0
 27 26  1  0  0  0  0
 28 29  1  0  0  0  0
 30 28  1  0  0  0  0
 31 32  1  0  0  0  0
 32 33  1  0  0  0  0
 33 34  1  0  0  0  0
M  END
>  <MODEL>
4

>  <REMARK>
 VINA RESULT:      -8.4      2.422      4.756
  Name = 
  8 active torsions:
  status: ('A' for Active; 'I' for Inactive)
    1  A    between atoms: C_2  and  C_33
    2  A    between atoms: C_3  and  N_20
    3  A    between atoms: N_7  and  N_20
    4  A    between atoms: N_9  and  C_11
    5  A    between atoms: C_10  and  N_13
    6  A    between atoms: C_10  and  N_31
    7  A    between atoms: C_17  and  N_31
    8  A    between atoms: O_19  and  C_29
                            x       y       z     vdW  Elec       q    Type
                         _______ _______ _______ _____ _____    ______ ____

>  <TORSDO>
F 8

$$$$
=
 OpenBabel11042412163D

 34 37  0  0  1  0  0  0  0  0999 V2000
  188.1390  178.2100  140.0960 C   0  0  0  0  0  0  0  0  0  0  0  0
  187.7500  177.4640  142.4100 C   0  0  1  0  0  3  0  0  0  0  0  0
  186.6020  178.5010  142.4610 C   0  0  1  0  0  3  0  0  0  0  0  0
  186.6720  179.5190  141.4830 O   0  0  0  0  0  0  0  0  0  0  0  0
  188.6030  177.5250  141.1590 C   0  0  0  0  0  0  0  0  0  0  0  0
  186.9160  178.9220  140.2830 N   0  0  0  0  0  2  0  0  0  0  0  0
  189.8160  176.6530  141.0960 C   0  0  0  0  0  1  0  0  0  0  0  0
  188.9100  177.8740  147.1470 C   0  0  0  0  0  0  0  0  0  0  0  0
  187.5820  178.0480  147.5800 C   0  0  0  0  0  3  0  0  0  0  0  0
  188.0980  177.6980  144.8790 C   0  0  0  0  0  0  0  0  0  0  0  0
  188.5630  177.5420  143.6230 N   0  0  0  0  0  0  0  0  0  0  0  0
  190.2840  177.5450  145.0380 C   0  0  0  0  0  0  0  0  0  0  0  0
  186.7700  177.8580  145.2800 C   0  0  0  0  0  3  0  0  0  0  0  0
  191.5820  177.5020  145.5310 O   0  0  0  0  0  1  0  0  0  0  0  0
  189.1320  177.7020  145.7790 C   0  0  0  0  0  0  0  0  0  0  0  0
  189.9140  177.4410  143.7000 C   0  0  0  0  0  3  0  0  0  0  0  0
  186.5070  178.0350  146.6540 C   0  0  0  0  0  0  0  0  0  0  0  0
  189.9550  177.8650  148.0610 O   0  0  0  0  0  1  0  0  0  0  0  0
  185.1840  178.1760  147.0790 O   0  0  0  0  0  0  0  0  0  0  0  0
  184.1440  178.6280  146.2190 C   0  0  0  0  0  1  0  0  0  0  0  0
  188.9830  177.0870  137.9750 N   0  0  0  0  0  2  0  0  0  0  0  0
  189.2300  179.3710  138.3420 O   0  0  0  0  0  0  0  0  0  0  0  0
  188.7920  178.2650  138.7650 C   0  0  0  0  0  0  0  0  0  0  0  0
  189.7320  177.0960  136.7880 N   0  0  0  0  0  2  0  0  0  0  0  0
  191.0170  176.4790  137.0800 C   0  0  2  0  0  3  0  0  0  0  0  0
  191.6310  176.0600  135.8870 O   0  0  0  0  0  0  0  0  0  0  0  0
  192.9450  175.6880  136.2320 C   0  0  0  0  0  2  0  0  0  0  0  0
  191.5860  174.1230  137.5910 N   0  0  0  0  0  2  0  0  0  0  0  0
  190.8370  175.2960  138.0460 C   0  0  0  0  0  2  0  0  0  0  0  0
  192.9540  174.5060  137.2160 C   0  0  0  0  0  2  0  0  0  0  0  0
  185.2900  177.8650  142.4700 N   0  0  0  0  0  2  0  0  0  0  0  0
  184.2930  178.9210  142.6370 C   0  0  0  0  0  2  0  0  0  0  0  0
  183.1330  178.6350  141.8090 N   0  0  0  0  0  2  0  0  0  0  0  0
  181.9400  178.8340  142.6240 C   0  0  0  0  0  1  0  0  0  0  0  0
  1  6  1  0  0  0  0
  1  5  2  0  0  0  0
  2  3  1  0  0  0  0
  2 11  1  1  0  0  0
  3 31  1  6  0  0  0
  4  3  1  0  0  0  0
  5  2  1  0  0  0  0
  6  4  1  0  0  0  0
  7  5  1  0  0  0  0
  8  9  1  0  0  0  0
  8 18  1  0  0  0  0
 10 13  2  0  0  0  0
 10 15  1  0  0  0  0
 11 16  1  0  0  0  0
 11 10  1  0  0  0  0
 12 14  1  0  0  0  0
 12 15  1  0  0  0  0
 13 17  1  0  0  0  0
 15  8  2  0  0  0  0
 16 12  2  0  0  0  0
 17 19  1  0  0  0  0
 17  9  2  0  0  0  0
 20 19  1  0  0  0  0
 21 23  1  0  0  0  0
 22 23  2  0  0  0  0
 23  1  1  0  0  0  0
 24 21  1  0  0  0  0
 25 24  1  6  0  0  0
 25 29  1  0  0  0  0
 26 27  1  0  0  0  0
 26 25  1  0  0  0  0
 27 30  1  0  0  0  0
 28 29  1  0  0  0  0
 30 28  1  0  0  0  0
 31 32  1  0  0  0  0
 33 34  1  0  0  0  0
 33 32  1  0  0  0  0
M  END
>  <MODEL>
5

>  <REMARK>
 VINA RESULT:      -7.9      1.794      2.164
  Name = 
  8 active torsions:
  status: ('A' for Active; 'I' for Inactive)
    1  A    between atoms: C_2  and  C_33
    2  A    between atoms: C_3  and  N_20
    3  A    between atoms: N_7  and  N_20
    4  A    between atoms: N_9  and  C_11
    5  A    between atoms: C_10  and  N_13
    6  A    between atoms: C_10  and  N_31
    7  A    between atoms: C_17  and  N_31
    8  A    between atoms: O_19  and  C_29
                            x       y       z     vdW  Elec       q    Type
                         _______ _______ _______ _____ _____    ______ ____

>  <TORSDO>
F 8

$$$$
=
 OpenBabel11042412163D

 34 37  0  0  1  0  0  0  0  0999 V2000
  183.3120  178.8680  144.0250 C   0  0  0  0  0  0  0  0  0  0  0  0
  185.5590  177.8800  143.8280 C   0  0  1  0  0  3  0  0  0  0  0  0
  185.9100  178.6290  145.1370 C   0  0  1  0  0  3  0  0  0  0  0  0
  185.0550  179.7080  145.4560 O   0  0  0  0  0  0  0  0  0  0  0  0
  184.2030  178.2250  143.2460 C   0  0  0  0  0  0  0  0  0  0  0  0
  183.7720  179.2740  145.3150 N   0  0  0  0  0  2  0  0  0  0  0  0
  183.8490  177.6520  141.9100 C   0  0  0  0  0  1  0  0  0  0  0  0
  190.0030  177.6640  141.7880 C   0  0  0  0  0  0  0  0  0  0  0  0
  190.6220  177.0830  142.9120 C   0  0  0  0  0  3  0  0  0  0  0  0
  187.9120  177.6640  142.9980 C   0  0  0  0  0  0  0  0  0  0  0  0
  186.6270  178.0450  142.8430 N   0  0  0  0  0  0  0  0  0  0  0  0
  187.7550  178.5260  140.9830 C   0  0  0  0  0  0  0  0  0  0  0  0
  188.4960  177.0800  144.1230 C   0  0  0  0  0  3  0  0  0  0  0  0
  188.0520  178.9860  139.7060 O   0  0  0  0  0  1  0  0  0  0  0  0
  188.6370  177.9430  141.8680 C   0  0  0  0  0  0  0  0  0  0  0  0
  186.5090  178.5780  141.6010 C   0  0  0  0  0  3  0  0  0  0  0  0
  189.8740  176.7830  144.0800 C   0  0  0  0  0  0  0  0  0  0  0  0
  190.7360  177.9330  140.6400 O   0  0  0  0  0  1  0  0  0  0  0  0
  190.4730  176.1800  145.1880 O   0  0  0  0  0  0  0  0  0  0  0  0
  191.5830  176.7530  145.8700 C   0  0  0  0  0  1  0  0  0  0  0  0
  181.5950  180.0930  142.6010 N   0  0  0  0  0  2  0  0  0  0  0  0
  180.9720  178.6270  144.2970 O   0  0  0  0  0  0  0  0  0  0  0  0
  181.9090  179.1680  143.6480 C   0  0  0  0  0  0  0  0  0  0  0  0
  180.2800  180.5030  142.3360 N   0  0  0  0  0  2  0  0  0  0  0  0
  179.9950  180.1810  140.9460 C   0  0  2  0  0  3  0  0  0  0  0  0
  181.1390  179.6410  140.3330 O   0  0  0  0  0  0  0  0  0  0  0  0
  180.7200  179.1550  139.0790 C   0  0  0  0  0  2  0  0  0  0  0  0
  180.1940  181.5710  138.9040 N   0  0  0  0  0  2  0  0  0  0  0  0
  179.5120  181.4330  140.1930 C   0  0  0  0  0  2  0  0  0  0  0  0
  180.1890  180.2890  138.1860 C   0  0  0  0  0  2  0  0  0  0  0  0
  186.0560  177.7180  146.2660 N   0  0  0  0  0  2  0  0  0  0  0  0
  186.9020  178.3810  147.2560 C   0  0  0  0  0  2  0  0  0  0  0  0
  187.9250  177.4600  147.7220 N   0  0  0  0  0  2  0  0  0  0  0  0
  189.0370  178.2480  148.2400 C   0  0  0  0  0  1  0  0  0  0  0  0
  1  6  1  0  0  0  0
  2 11  1  6  0  0  0
  2  3  1  0  0  0  0
  3  4  1  0  0  0  0
  3 31  1  1  0  0  0
  5  2  1  0  0  0  0
  5  1  2  0  0  0  0
  6  4  1  0  0  0  0
  7  5  1  0  0  0  0
  8 15  2  0  0  0  0
  8  9  1  0  0  0  0
  9 17  2  0  0  0  0
 10 13  2  0  0  0  0
 11 10  1  0  0  0  0
 12 16  2  0  0  0  0
 12 15  1  0  0  0  0
 14 12  1  0  0  0  0
 15 10  1  0  0  0  0
 16 11  1  0  0  0  0
 17 13  1  0  0  0  0
 17 19  1  0  0  0  0
 18  8  1  0  0  0  0
 19 20  1  0  0  0  0
 21 23  1  0  0  0  0
 23  1  1  0  0  0  0
 23 22  2  0  0  0  0
 24 21  1  0  0  0  0
 25 24  1  1  0  0  0
 26 25  1  0  0  0  0
 27 26  1  0  0  0  0
 28 29  1  0  0  0  0
 29 25  1  0  0  0  0
 30 28  1  0  0  0  0
 30 27  1  0  0  0  0
 31 32  1  0  0  0  0
 32 33  1  0  0  0  0
 33 34  1  0  0  0  0
M  END
>  <MODEL>
6

>  <REMARK>
 VINA RESULT:      -7.8      3.878      8.507
  Name = 
  8 active torsions:
  status: ('A' for Active; 'I' for Inactive)
    1  A    between atoms: C_2  and  C_33
    2  A    between atoms: C_3  and  N_20
    3  A    between atoms: N_7  and  N_20
    4  A    between atoms: N_9  and  C_11
    5  A    between atoms: C_10  and  N_13
    6  A    between atoms: C_10  and  N_31
    7  A    between atoms: C_17  and  N_31
    8  A    between atoms: O_19  and  C_29
                            x       y       z     vdW  Elec       q    Type
                         _______ _______ _______ _____ _____    ______ ____

>  <TORSDO>
F 8

$$$$
=
 OpenBabel11042412163D

 34 37  0  0  1  0  0  0  0  0999 V2000
  184.1330  178.8660  144.0760 C   0  0  0  0  0  0  0  0  0  0  0  0
  182.8020  179.1870  142.0290 C   0  0  1  0  0  3  0  0  0  0  0  0
  181.5510  178.9190  142.9010 C   0  0  1  0  0  3  0  0  0  0  0  0
  181.8060  178.2530  144.1220 O   0  0  0  0  0  0  0  0  0  0  0  0
  184.1250  178.9610  142.7320 C   0  0  0  0  0  0  0  0  0  0  0  0
  182.8590  178.8760  144.7210 N   0  0  0  0  0  2  0  0  0  0  0  0
  185.3760  179.0610  141.9190 C   0  0  0  0  0  1  0  0  0  0  0  0
  182.0150  178.2150  137.2970 C   0  0  0  0  0  0  0  0  0  0  0  0
  181.5500  179.5070  136.9860 C   0  0  0  0  0  3  0  0  0  0  0  0
  182.3250  178.9280  139.5840 C   0  0  0  0  0  0  0  0  0  0  0  0
  182.7210  178.4370  140.7760 N   0  0  0  0  0  0  0  0  0  0  0  0
  182.8520  176.8220  139.2470 C   0  0  0  0  0  0  0  0  0  0  0  0
  181.8780  180.2210  139.3030 C   0  0  0  0  0  3  0  0  0  0  0  0
  183.0670  175.5820  138.6580 O   0  0  0  0  0  1  0  0  0  0  0  0
  182.3960  177.9600  138.6170 C   0  0  0  0  0  0  0  0  0  0  0  0
  183.0550  177.1350  140.5880 C   0  0  0  0  0  3  0  0  0  0  0  0
  181.4850  180.5160  137.9810 C   0  0  0  0  0  0  0  0  0  0  0  0
  182.0990  177.2390  136.3130 O   0  0  0  0  0  1  0  0  0  0  0  0
  181.0530  181.8090  137.6750 O   0  0  0  0  0  0  0  0  0  0  0  0
  180.4370  182.1410  136.4360 C   0  0  0  0  0  1  0  0  0  0  0  0
  186.3120  177.7230  144.7240 N   0  0  0  0  0  2  0  0  0  0  0  0
  185.5160  179.5950  145.8550 O   0  0  0  0  0  0  0  0  0  0  0  0
  185.3500  178.7660  144.9180 C   0  0  0  0  0  0  0  0  0  0  0  0
  187.3850  177.5240  145.6060 N   0  0  0  0  0  2  0  0  0  0  0  0
  188.5360  177.1300  144.8080 C   0  0  2  0  0  3  0  0  0  0  0  0
  189.6360  177.9510  145.1100 O   0  0  0  0  0  0  0  0  0  0  0  0
  190.7490  177.3660  144.4750 C   0  0  0  0  0  2  0  0  0  0  0  0
  189.2610  177.8740  142.5590 N   0  0  0  0  0  2  0  0  0  0  0  0
  188.1990  177.1990  143.3080 C   0  0  0  0  0  2  0  0  0  0  0  0
  190.5750  177.3440  142.9470 C   0  0  0  0  0  2  0  0  0  0  0  0
  180.7630  180.1270  143.1130 N   0  0  0  0  0  2  0  0  0  0  0  0
  179.6360  180.0810  142.1820 C   0  0  0  0  0  2  0  0  0  0  0  0
  179.0150  178.7680  142.2290 N   0  0  0  0  0  2  0  0  0  0  0  0
  178.9310  178.2630  140.8630 C   0  0  0  0  0  1  0  0  0  0  0  0
  1  6  1  0  0  0  0
  1 23  1  0  0  0  0
  2 11  1  6  0  0  0
  2  5  1  0  0  0  0
  2  3  1  0  0  0  0
  3 31  1  1  0  0  0
  3  4  1  0  0  0  0
  4  6  1  0  0  0  0
  5  1  2  0  0  0  0
  7  5  1  0  0  0  0
  8 15  1  0  0  0  0
  9  8  2  0  0  0  0
  9 17  1  0  0  0  0
 10 11  1  0  0  0  0
 12 16  2  0  0  0  0
 13 10  1  0  0  0  0
 14 12  1  0  0  0  0
 15 12  1  0  0  0  0
 15 10  2  0  0  0  0
 16 11  1  0  0  0  0
 17 13  2  0  0  0  0
 18  8  1  0  0  0  0
 19 17  1  0  0  0  0
 20 19  1  0  0  0  0
 21 23  1  0  0  0  0
 21 24  1  0  0  0  0
 23 22  2  0  0  0  0
 25 26  1  0  0  0  0
 25 24  1  1  0  0  0
 27 26  1  0  0  0  0
 28 30  1  0  0  0  0
 28 29  1  0  0  0  0
 29 25  1  0  0  0  0
 30 27  1  0  0  0  0
 32 33  1  0  0  0  0
 32 31  1  0  0  0  0
 34 33  1  0  0  0  0
M  END
>  <MODEL>
7

>  <REMARK>
 VINA RESULT:      -7.5      4.105      8.447
  Name = 
  8 active torsions:
  status: ('A' for Active; 'I' for Inactive)
    1  A    between atoms: C_2  and  C_33
    2  A    between atoms: C_3  and  N_20
    3  A    between atoms: N_7  and  N_20
    4  A    between atoms: N_9  and  C_11
    5  A    between atoms: C_10  and  N_13
    6  A    between atoms: C_10  and  N_31
    7  A    between atoms: C_17  and  N_31
    8  A    between atoms: O_19  and  C_29
                            x       y       z     vdW  Elec       q    Type
                         _______ _______ _______ _____ _____    ______ ____

>  <TORSDO>
F 8

$$$$
=
 OpenBabel11042412163D

 34 37  0  0  1  0  0  0  0  0999 V2000
  182.3240  178.9830  142.1140 C   0  0  0  0  0  0  0  0  0  0  0  0
  182.8730  178.7630  139.7240 C   0  0  1  0  0  3  0  0  0  0  0  0
  181.3870  179.0900  139.4390 C   0  0  1  0  0  3  0  0  0  0  0  0
  180.5120  178.8960  140.5330 O   0  0  0  0  0  0  0  0  0  0  0  0
  183.2090  178.5660  141.1880 C   0  0  0  0  0  0  0  0  0  0  0  0
  181.0790  179.4820  141.6240 N   0  0  0  0  0  2  0  0  0  0  0  0
  184.5900  178.1090  141.5340 C   0  0  0  0  0  1  0  0  0  0  0  0
  185.6630  176.0210  136.7820 C   0  0  0  0  0  0  0  0  0  0  0  0
  186.6660  176.9960  136.6260 C   0  0  0  0  0  3  0  0  0  0  0  0
  184.4620  177.5510  138.2140 C   0  0  0  0  0  0  0  0  0  0  0  0
  183.3110  177.6280  138.9120 N   0  0  0  0  0  0  0  0  0  0  0  0
  183.4240  175.6390  137.9160 C   0  0  0  0  0  0  0  0  0  0  0  0
  185.4460  178.5340  138.0850 C   0  0  0  0  0  3  0  0  0  0  0  0
  183.0910  174.3570  137.4950 O   0  0  0  0  0  1  0  0  0  0  0  0
  184.5670  176.3360  137.5890 C   0  0  0  0  0  0  0  0  0  0  0  0
  182.6550  176.4520  138.7430 C   0  0  0  0  0  3  0  0  0  0  0  0
  186.5680  178.2520  137.2790 C   0  0  0  0  0  0  0  0  0  0  0  0
  185.7770  174.7850  136.1590 O   0  0  0  0  0  1  0  0  0  0  0  0
  187.5720  179.2140  137.1540 O   0  0  0  0  0  0  0  0  0  0  0  0
  188.9570  178.8930  137.2190 C   0  0  0  0  0  1  0  0  0  0  0  0
  183.8310  179.2980  144.1400 N   0  0  0  0  0  2  0  0  0  0  0  0
  181.6120  178.6280  144.3450 O   0  0  0  0  0  0  0  0  0  0  0  0
  182.5540  178.9740  143.5800 C   0  0  0  0  0  0  0  0  0  0  0  0
  184.1070  179.1460  145.5070 N   0  0  0  0  0  2  0  0  0  0  0  0
  185.5470  178.9980  145.6470 C   0  0  2  0  0  3  0  0  0  0  0  0
  185.9760  177.8250  145.0010 O   0  0  0  0  0  0  0  0  0  0  0  0
  187.3830  177.8760  144.9880 C   0  0  0  0  0  2  0  0  0  0  0  0
  186.8820  177.8890  147.4160 N   0  0  0  0  0  2  0  0  0  0  0  0
  185.9440  178.9770  147.1340 C   0  0  0  0  0  2  0  0  0  0  0  0
  187.9580  177.8730  146.4150 C   0  0  0  0  0  2  0  0  0  0  0  0
  181.2200  180.4160  138.8580 N   0  0  0  0  0  2  0  0  0  0  0  0
  180.5800  180.2450  137.5550 C   0  0  0  0  0  2  0  0  0  0  0  0
  180.8020  181.4290  136.7410 N   0  0  0  0  0  2  0  0  0  0  0  0
  180.9390  182.5710  137.6370 C   0  0  0  0  0  1  0  0  0  0  0  0
  1 23  1  0  0  0  0
  2 11  1  6  0  0  0
  2  5  1  0  0  0  0
  3 31  1  1  0  0  0
  3  2  1  0  0  0  0
  3  4  1  0  0  0  0
  4  6  1  0  0  0  0
  5  7  1  0  0  0  0
  5  1  2  0  0  0  0
  6  1  1  0  0  0  0
  8 15  1  0  0  0  0
  9  8  2  0  0  0  0
  9 17  1  0  0  0  0
 10 11  1  0  0  0  0
 12 16  2  0  0  0  0
 13 10  1  0  0  0  0
 14 12  1  0  0  0  0
 15 12  1  0  0  0  0
 15 10  2  0  0  0  0
 16 11  1  0  0  0  0
 17 13  2  0  0  0  0
 18  8  1  0  0  0  0
 19 20  1  0  0  0  0
 19 17  1  0  0  0  0
 21 24  1  0  0  0  0
 23 21  1  0  0  0  0
 23 22  2  0  0  0  0
 25 24  1  1  0  0  0
 25 29  1  0  0  0  0
 26 25  1  0  0  0  0
 27 26  1  0  0  0  0
 27 30  1  0  0  0  0
 29 28  1  0  0  0  0
 30 28  1  0  0  0  0
 32 31  1  0  0  0  0
 33 32  1  0  0  0  0
 33 34  1  0  0  0  0
M  END
>  <MODEL>
8

>  <REMARK>
 VINA RESULT:      -7.4      4.310      9.471
  Name = 
  8 active torsions:
  status: ('A' for Active; 'I' for Inactive)
    1  A    between atoms: C_2  and  C_33
    2  A    between atoms: C_3  and  N_20
    3  A    between atoms: N_7  and  N_20
    4  A    between atoms: N_9  and  C_11
    5  A    between atoms: C_10  and  N_13
    6  A    between atoms: C_10  and  N_31
    7  A    between atoms: C_17  and  N_31
    8  A    between atoms: O_19  and  C_29
                            x       y       z     vdW  Elec       q    Type
                         _______ _______ _______ _____ _____    ______ ____

>  <TORSDO>
F 8

$$$$
=
 OpenBabel11042412163D

 34 37  0  0  1  0  0  0  0  0999 V2000
  180.9050  178.8180  137.4020 C   0  0  0  0  0  0  0  0  0  0  0  0
  182.0930  177.8850  139.3460 C   0  0  1  0  0  3  0  0  0  0  0  0
  181.2790  176.5890  139.1150 C   0  0  1  0  0  3  0  0  0  0  0  0
  180.1090  176.7490  138.3380 O   0  0  0  0  0  0  0  0  0  0  0  0
  181.6800  179.0560  138.4780 C   0  0  0  0  0  0  0  0  0  0  0  0
  180.4420  177.4770  137.2360 N   0  0  0  0  0  2  0  0  0  0  0  0
  182.3210  180.3820  138.7380 C   0  0  0  0  0  1  0  0  0  0  0  0
  183.7860  179.0110  143.7990 C   0  0  0  0  0  0  0  0  0  0  0  0
  185.1420  178.8710  143.4490 C   0  0  0  0  0  3  0  0  0  0  0  0
  183.1900  178.4320  141.5300 C   0  0  0  0  0  0  0  0  0  0  0  0
  182.0970  178.2400  140.7650 N   0  0  0  0  0  0  0  0  0  0  0  0
  181.4520  178.7980  142.8230 C   0  0  0  0  0  0  0  0  0  0  0  0
  184.5280  178.2960  141.1520 C   0  0  0  0  0  3  0  0  0  0  0  0
  180.6450  179.0900  143.9160 O   0  0  0  0  0  1  0  0  0  0  0  0
  182.8300  178.7800  142.8060 C   0  0  0  0  0  0  0  0  0  0  0  0
  181.0100  178.4660  141.5460 C   0  0  0  0  0  3  0  0  0  0  0  0
  185.5210  178.5210  142.1270 C   0  0  0  0  0  0  0  0  0  0  0  0
  183.4240  179.3770  145.0880 O   0  0  0  0  0  1  0  0  0  0  0  0
  186.8650  178.4100  141.7640 O   0  0  0  0  0  0  0  0  0  0  0  0
  187.8540  177.8630  142.6290 C   0  0  0  0  0  1  0  0  0  0  0  0
  179.4370  180.7430  136.6180 N   0  0  0  0  0  2  0  0  0  0  0  0
  181.1240  179.8550  135.2840 O   0  0  0  0  0  0  0  0  0  0  0  0
  180.5160  179.8300  136.3890 C   0  0  0  0  0  0  0  0  0  0  0  0
  178.9580  181.6000  135.6150 N   0  0  0  0  0  2  0  0  0  0  0  0
  179.4400  182.9380  135.9200 C   0  0  2  0  0  3  0  0  0  0  0  0
  180.5420  183.2510  135.1060 O   0  0  0  0  0  0  0  0  0  0  0  0
  180.7980  184.6220  135.3020 C   0  0  0  0  0  2  0  0  0  0  0  0
  181.1100  183.7020  137.5820 N   0  0  0  0  0  2  0  0  0  0  0  0
  179.8120  183.0480  137.4090 C   0  0  0  0  0  2  0  0  0  0  0  0
  181.1820  184.9190  136.7610 C   0  0  0  0  0  2  0  0  0  0  0  0
  182.1090  175.5050  138.6050 N   0  0  0  0  0  2  0  0  0  0  0  0
  183.4310  176.0630  138.3210 C   0  0  0  0  0  2  0  0  0  0  0  0
  183.7260  175.9280  136.9040 N   0  0  0  0  0  2  0  0  0  0  0  0
  184.3750  177.1560  136.4610 C   0  0  0  0  0  1  0  0  0  0  0  0
  1  5  2  0  0  0  0
  2 11  1  1  0  0  0
  3 31  1  6  0  0  0
  3  2  1  0  0  0  0
  4  3  1  0  0  0  0
  5  7  1  0  0  0  0
  5  2  1  0  0  0  0
  6  1  1  0  0  0  0
  6  4  1  0  0  0  0
  8 18  1  0  0  0  0
  9  8  1  0  0  0  0
 10 15  1  0  0  0  0
 11 10  1  0  0  0  0
 11 16  1  0  0  0  0
 12 14  1  0  0  0  0
 13 10  2  0  0  0  0
 13 17  1  0  0  0  0
 15 12  1  0  0  0  0
 15  8  2  0  0  0  0
 16 12  2  0  0  0  0
 17  9  2  0  0  0  0
 19 17  1  0  0  0  0
 19 20  1  0  0  0  0
 22 23  2  0  0  0  0
 23 21  1  0  0  0  0
 23  1  1  0  0  0  0
 24 21  1  0  0  0  0
 25 24  1  1  0  0  0
 25 29  1  0  0  0  0
 26 27  1  0  0  0  0
 26 25  1  0  0  0  0
 27 30  1  0  0  0  0
 29 28  1  0  0  0  0
 30 28  1  0  0  0  0
 32 31  1  0  0  0  0
 33 32  1  0  0  0  0
 34 33  1  0  0  0  0
M  END
>  <MODEL>
9

>  <REMARK>
 VINA RESULT:      -7.2      5.168      9.640
  Name = 
  8 active torsions:
  status: ('A' for Active; 'I' for Inactive)
    1  A    between atoms: C_2  and  C_33
    2  A    between atoms: C_3  and  N_20
    3  A    between atoms: N_7  and  N_20
    4  A    between atoms: N_9  and  C_11
    5  A    between atoms: C_10  and  N_13
    6  A    between atoms: C_10  and  N_31
    7  A    between atoms: C_17  and  N_31
    8  A    between atoms: O_19  and  C_29
                            x       y       z     vdW  Elec       q    Type
                         _______ _______ _______ _____ _____    ______ ____

>  <TORSDO>
F 8

$$$$
