=
 OpenBabel11042410493D

 31 33  0  0  1  0  0  0  0  0999 V2000
  186.8300  177.8050  143.1420 C   0  0  0  0  0  2  0  0  0  0  0  0
  187.1910  177.1400  144.4670 C   0  0  0  0  0  2  0  0  0  0  0  0
  188.3250  177.8840  145.1610 C   0  0  0  0  0  2  0  0  0  0  0  0
  189.7090  177.4290  144.6670 C   0  0  0  0  0  2  0  0  0  0  0  0
  190.2810  178.2250  143.5670 N   0  0  0  0  0  0  0  0  0  0  0  0
  191.2680  179.1420  144.1190 C   0  0  0  0  0  1  0  0  0  0  0  0
  189.9730  177.0600  141.4470 C   0  0  1  0  0  3  0  0  0  0  0  0
  190.2720  176.0250  142.5100 C   0  0  0  0  0  2  0  0  0  0  0  0
  190.9430  177.3840  142.5690 C   0  0  2  0  0  3  0  0  0  0  0  0
  189.1530  177.9760  138.7690 N   0  0  0  0  0  2  0  0  0  0  0  0
  191.0630  176.9060  137.9500 O   0  0  0  0  0  0  0  0  0  0  0  0
  190.3470  177.2060  138.9430 C   0  0  0  0  0  0  0  0  0  0  0  0
  190.7410  176.7730  140.2460 N   0  0  0  0  0  2  0  0  0  0  0  0
  187.1990  178.2100  137.3350 C   0  0  0  0  0  1  0  0  0  0  0  0
  188.6950  178.4310  137.4630 C   0  0  1  0  0  3  0  0  0  0  0  0
  188.9730  179.7890  137.3240 O   0  0  0  0  0  1  0  0  0  0  0  0
  185.5840  178.6740  143.2670 C   0  0  2  0  0  3  0  0  0  0  0  0
  183.5050  179.0980  144.5820 C   0  0  0  0  0  1  0  0  0  0  0  0
  184.7320  178.2190  144.4440 C   0  0  0  0  0  2  0  0  0  0  0  0
  184.8120  178.6380  142.0300 N   0  0  0  0  0  0  0  0  0  0  0  0
  185.1450  179.3330  141.0150 N   0  0  0  0  0  0  0  0  0  0  0  0
  184.3840  179.2900  139.8060 C   0  0  0  0  0  0  0  0  0  0  0  0
  184.3600  180.3050  139.0600 O   0  0  0  0  0  0  0  0  0  0  0  0
  182.3570  177.8490  137.5470 N   0  0  0  0  0  0  0  0  0  0  0  0
  179.8710  178.7720  138.5620 S   0  0  0  0  0  0  0  0  0  0  0  0
  180.3470  179.7660  140.0270 C   0  0  0  0  0  2  0  0  0  0  0  0
  181.4840  178.0350  138.6360 C   0  0  2  0  0  3  0  0  0  0  0  0
  181.4800  179.0430  140.7580 C   0  0  0  0  0  2  0  0  0  0  0  0
  182.1450  178.2030  139.7320 C   0  0  2  0  0  3  0  0  0  0  0  0
  183.6040  178.0590  139.4390 C   0  0  1  0  0  3  0  0  0  0  0  0
  183.6890  177.7910  137.9920 N   0  0  0  0  0  0  0  0  0  0  0  0
  1  2  1  0  0  0  0
  2  3  1  0  0  0  0
  4  3  1  0  0  0  0
  5  6  1  0  0  0  0
  5  4  1  0  0  0  0
  7 13  1  6  0  0  0
  7  8  1  0  0  0  0
  7  9  1  0  0  0  0
  8  9  1  0  0  0  0
  9  5  1  1  0  0  0
 10 12  1  0  0  0  0
 11 12  2  0  0  0  0
 12 13  1  0  0  0  0
 15 14  1  1  0  0  0
 15 10  1  0  0  0  0
 16 15  1  0  0  0  0
 17  1  1  6  0  0  0
 17 19  1  0  0  0  0
 19 18  1  0  0  0  0
 20 17  1  0  0  0  0
 21 20  2  0  0  0  0
 22 21  1  0  0  0  0
 23 22  2  0  0  0  0
 24 31  2  0  0  0  0
 25 27  1  0  0  0  0
 25 26  1  0  0  0  0
 26 28  1  0  0  0  0
 27 24  1  6  0  0  0
 27 29  1  0  0  0  0
 29 28  1  6  0  0  0
 30 29  1  0  0  0  0
 30 22  1  6  0  0  0
 31 30  1  0  0  0  0
M  END
>  <MODEL>
1

>  <REMARK>
 VINA RESULT:      -7.0      0.000      0.000
  Name = 
  12 active torsions:
  status: ('A' for Active; 'I' for Inactive)
    1  A    between atoms: C_3  and  N_28
    2  A    between atoms: C_7  and  C_13
    3  A    between atoms: C_7  and  C_29
    4  A    between atoms: N_9  and  C_25
    5  A    between atoms: C_10  and  N_12
    6  A    between atoms: C_10  and  C_26
    7  A    between atoms: C_13  and  C_15
    8  A    between atoms: N_14  and  C_24
    9  A    between atoms: C_15  and  N_16
   10  A    between atoms: N_16  and  C_27
   11  A    between atoms: C_18  and  C_25
   12  A    between atoms: C_25  and  C_29
                            x       y       z     vdW  Elec       q    Type
                         _______ _______ _______ _____ _____    ______ ____

>  <TORSDO>
F 12

$$$$
=
 OpenBabel11042410493D

 31 33  0  0  1  0  0  0  0  0999 V2000
  187.9160  178.6170  141.4080 C   0  0  0  0  0  2  0  0  0  0  0  0
  186.6430  178.6120  140.5680 C   0  0  0  0  0  2  0  0  0  0  0  0
  185.4460  179.0780  141.3860 C   0  0  0  0  0  2  0  0  0  0  0  0
  185.2160  178.2060  142.6320 C   0  0  0  0  0  2  0  0  0  0  0  0
  185.3160  178.9080  143.9230 N   0  0  0  0  0  0  0  0  0  0  0  0
  184.0300  179.5190  144.2230 C   0  0  0  0  0  1  0  0  0  0  0  0
  187.0820  178.2590  145.4750 C   0  0  1  0  0  3  0  0  0  0  0  0
  186.7810  177.0710  144.5870 C   0  0  0  0  0  2  0  0  0  0  0  0
  185.6580  177.9970  145.0160 C   0  0  2  0  0  3  0  0  0  0  0  0
  189.5750  177.1480  146.5880 N   0  0  0  0  0  2  0  0  0  0  0  0
  188.4270  176.9160  148.6100 O   0  0  0  0  0  0  0  0  0  0  0  0
  188.4060  177.2790  147.4040 C   0  0  0  0  0  0  0  0  0  0  0  0
  187.2050  177.8260  146.8580 N   0  0  0  0  0  2  0  0  0  0  0  0
  191.7820  176.3550  145.9330 C   0  0  0  0  0  1  0  0  0  0  0  0
  190.8210  176.5840  147.0850 C   0  0  1  0  0  3  0  0  0  0  0  0
  191.3980  177.4680  147.9950 O   0  0  0  0  0  1  0  0  0  0  0  0
  188.6520  177.2840  141.3270 C   0  0  2  0  0  3  0  0  0  0  0  0
  190.0750  175.9020  142.8410 C   0  0  0  0  0  1  0  0  0  0  0  0
  189.8570  177.2830  142.2570 C   0  0  0  0  0  2  0  0  0  0  0  0
  189.0630  177.0130  139.9530 N   0  0  0  0  0  0  0  0  0  0  0  0
  189.7630  177.8460  139.2900 N   0  0  0  0  0  0  0  0  0  0  0  0
  190.1630  177.5710  137.9460 C   0  0  0  0  0  0  0  0  0  0  0  0
  191.1730  176.8460  137.7420 O   0  0  0  0  0  0  0  0  0  0  0  0
  187.4570  179.3180  136.9890 N   0  0  0  0  0  0  0  0  0  0  0  0
  185.6360  177.1570  136.7130 S   0  0  0  0  0  0  0  0  0  0  0  0
  186.6420  175.6890  137.1500 C   0  0  0  0  0  2  0  0  0  0  0  0
  187.1620  178.0370  136.4870 C   0  0  2  0  0  3  0  0  0  0  0  0
  188.0380  175.8590  136.5480 C   0  0  0  0  0  2  0  0  0  0  0  0
  188.2310  177.3210  136.3930 C   0  0  2  0  0  3  0  0  0  0  0  0
  189.4040  178.1590  136.7880 C   0  0  1  0  0  3  0  0  0  0  0  0
  188.8460  179.4770  137.1380 N   0  0  0  0  0  0  0  0  0  0  0  0
  2  3  1  0  0  0  0
  2  1  1  0  0  0  0
  3  4  1  0  0  0  0
  4  5  1  0  0  0  0
  5  6  1  0  0  0  0
  7 13  1  1  0  0  0
  8  9  1  0  0  0  0
  8  7  1  0  0  0  0
  9  5  1  6  0  0  0
  9  7  1  0  0  0  0
 10 15  1  0  0  0  0
 10 12  1  0  0  0  0
 12 11  2  0  0  0  0
 13 12  1  0  0  0  0
 15 14  1  6  0  0  0
 15 16  1  0  0  0  0
 17  1  1  6  0  0  0
 17 19  1  0  0  0  0
 19 18  1  0  0  0  0
 20 17  1  0  0  0  0
 21 20  2  0  0  0  0
 22 21  1  0  0  0  0
 23 22  2  0  0  0  0
 24 31  2  0  0  0  0
 25 26  1  0  0  0  0
 27 25  1  1  0  0  0
 27 24  1  0  0  0  0
 28 26  1  0  0  0  0
 29 27  1  0  0  0  0
 29 28  1  1  0  0  0
 29 30  1  0  0  0  0
 30 31  1  0  0  0  0
 30 22  1  1  0  0  0
M  END
>  <MODEL>
2

>  <REMARK>
 VINA RESULT:      -6.9      3.465      6.912
  Name = 
  12 active torsions:
  status: ('A' for Active; 'I' for Inactive)
    1  A    between atoms: C_3  and  N_28
    2  A    between atoms: C_7  and  C_13
    3  A    between atoms: C_7  and  C_29
    4  A    between atoms: N_9  and  C_25
    5  A    between atoms: C_10  and  N_12
    6  A    between atoms: C_10  and  C_26
    7  A    between atoms: C_13  and  C_15
    8  A    between atoms: N_14  and  C_24
    9  A    between atoms: C_15  and  N_16
   10  A    between atoms: N_16  and  C_27
   11  A    between atoms: C_18  and  C_25
   12  A    between atoms: C_25  and  C_29
                            x       y       z     vdW  Elec       q    Type
                         _______ _______ _______ _____ _____    ______ ____

>  <TORSDO>
F 12

$$$$
=
 OpenBabel11042410493D

 31 33  0  0  1  0  0  0  0  0999 V2000
  185.0330  178.4190  144.0430 C   0  0  0  0  0  2  0  0  0  0  0  0
  185.3270  179.1400  145.3550 C   0  0  0  0  0  2  0  0  0  0  0  0
  185.9630  178.1950  146.3670 C   0  0  0  0  0  2  0  0  0  0  0  0
  186.9550  177.2190  145.7110 C   0  0  0  0  0  2  0  0  0  0  0  0
  188.2510  177.8020  145.3210 N   0  0  0  0  0  0  0  0  0  0  0  0
  189.0730  177.9500  146.5130 C   0  0  0  0  0  1  0  0  0  0  0  0
  189.0440  177.6420  143.0200 C   0  0  1  0  0  3  0  0  0  0  0  0
  188.0410  176.5320  143.2470 C   0  0  0  0  0  2  0  0  0  0  0  0
  188.9690  176.9520  144.3710 C   0  0  2  0  0  3  0  0  0  0  0  0
  189.3910  177.9450  140.1100 N   0  0  0  0  0  2  0  0  0  0  0  0
  191.4010  176.7760  140.3490 O   0  0  0  0  0  0  0  0  0  0  0  0
  190.3740  177.2620  140.8940 C   0  0  0  0  0  0  0  0  0  0  0  0
  190.2010  177.1270  142.3060 N   0  0  0  0  0  2  0  0  0  0  0  0
  188.7880  176.9600  137.9660 C   0  0  0  0  0  1  0  0  0  0  0  0
  189.5070  178.0990  138.6660 C   0  0  1  0  0  3  0  0  0  0  0  0
  188.9320  179.3090  138.2840 O   0  0  0  0  0  1  0  0  0  0  0  0
  183.9580  179.1360  143.2340 C   0  0  2  0  0  3  0  0  0  0  0  0
  181.5160  179.0580  142.7270 C   0  0  0  0  0  1  0  0  0  0  0  0
  182.5750  178.8170  143.7830 C   0  0  0  0  0  2  0  0  0  0  0  0
  184.0500  178.7650  141.8260 N   0  0  0  0  0  0  0  0  0  0  0  0
  184.8110  179.3920  141.0190 N   0  0  0  0  0  0  0  0  0  0  0  0
  184.8960  179.0210  139.6410 C   0  0  0  0  0  0  0  0  0  0  0  0
  185.9390  178.4530  139.2220 O   0  0  0  0  0  0  0  0  0  0  0  0
  181.6810  179.9560  139.3560 N   0  0  0  0  0  0  0  0  0  0  0  0
  180.4790  177.3880  139.5110 S   0  0  0  0  0  0  0  0  0  0  0  0
  181.9090  176.2550  139.6940 C   0  0  0  0  0  2  0  0  0  0  0  0
  181.6260  178.6150  138.9340 C   0  0  2  0  0  3  0  0  0  0  0  0
  183.0350  176.7410  138.7800 C   0  0  0  0  0  2  0  0  0  0  0  0
  182.7960  178.1930  138.5890 C   0  0  2  0  0  3  0  0  0  0  0  0
  183.7650  179.3260  138.6980 C   0  0  1  0  0  3  0  0  0  0  0  0
  182.9750  180.4750  139.1740 N   0  0  0  0  0  0  0  0  0  0  0  0
  1  2  1  0  0  0  0
  2  3  1  0  0  0  0
  4  3  1  0  0  0  0
  5  4  1  0  0  0  0
  5  6  1  0  0  0  0
  7 13  1  6  0  0  0
  7  8  1  0  0  0  0
  7  9  1  0  0  0  0
  8  9  1  0  0  0  0
  9  5  1  1  0  0  0
 10 12  1  0  0  0  0
 11 12  2  0  0  0  0
 12 13  1  0  0  0  0
 15 14  1  6  0  0  0
 15 10  1  0  0  0  0
 16 15  1  0  0  0  0
 17 19  1  1  0  0  0
 17  1  1  0  0  0  0
 18 19  1  0  0  0  0
 20 17  1  0  0  0  0
 21 20  2  0  0  0  0
 22 21  1  0  0  0  0
 23 22  2  0  0  0  0
 25 26  1  0  0  0  0
 27 24  1  1  0  0  0
 27 25  1  0  0  0  0
 28 26  1  0  0  0  0
 29 30  1  0  0  0  0
 29 28  1  1  0  0  0
 29 27  1  0  0  0  0
 30 31  1  0  0  0  0
 30 22  1  1  0  0  0
 31 24  2  0  0  0  0
M  END
>  <MODEL>
3

>  <REMARK>
 VINA RESULT:      -6.8      1.683      2.292
  Name = 
  12 active torsions:
  status: ('A' for Active; 'I' for Inactive)
    1  A    between atoms: C_3  and  N_28
    2  A    between atoms: C_7  and  C_13
    3  A    between atoms: C_7  and  C_29
    4  A    between atoms: N_9  and  C_25
    5  A    between atoms: C_10  and  N_12
    6  A    between atoms: C_10  and  C_26
    7  A    between atoms: C_13  and  C_15
    8  A    between atoms: N_14  and  C_24
    9  A    between atoms: C_15  and  N_16
   10  A    between atoms: N_16  and  C_27
   11  A    between atoms: C_18  and  C_25
   12  A    between atoms: C_25  and  C_29
                            x       y       z     vdW  Elec       q    Type
                         _______ _______ _______ _____ _____    ______ ____

>  <TORSDO>
F 12

$$$$
=
 OpenBabel11042410493D

 31 33  0  0  1  0  0  0  0  0999 V2000
  184.3230  179.3630  144.0800 C   0  0  0  0  0  2  0  0  0  0  0  0
  184.5580  178.5650  145.3590 C   0  0  0  0  0  2  0  0  0  0  0  0
  185.9320  178.8650  145.9460 C   0  0  0  0  0  2  0  0  0  0  0  0
  186.8190  177.6120  146.0230 C   0  0  0  0  0  2  0  0  0  0  0  0
  188.2230  177.8050  145.6190 N   0  0  0  0  0  0  0  0  0  0  0  0
  189.0780  177.5650  146.7720 C   0  0  0  0  0  1  0  0  0  0  0  0
  188.7040  177.6280  143.2340 C   0  0  1  0  0  3  0  0  0  0  0  0
  187.5010  176.7590  143.5340 C   0  0  0  0  0  2  0  0  0  0  0  0
  188.6180  176.8810  144.5550 C   0  0  2  0  0  3  0  0  0  0  0  0
  188.6660  177.8980  140.3000 N   0  0  0  0  0  2  0  0  0  0  0  0
  190.4350  176.3720  140.2570 O   0  0  0  0  0  0  0  0  0  0  0  0
  189.6100  177.0340  140.9410 C   0  0  0  0  0  0  0  0  0  0  0  0
  189.6260  176.9150  142.3650 N   0  0  0  0  0  2  0  0  0  0  0  0
  187.1580  177.8760  138.3880 C   0  0  0  0  0  1  0  0  0  0  0  0
  188.5930  178.0470  138.8530 C   0  0  1  0  0  3  0  0  0  0  0  0
  189.0440  179.3160  138.4960 O   0  0  0  0  0  1  0  0  0  0  0  0
  183.7880  178.4840  142.9560 C   0  0  2  0  0  3  0  0  0  0  0  0
  184.3520  179.0600  140.5930 C   0  0  0  0  0  1  0  0  0  0  0  0
  184.8220  178.3490  141.8460 C   0  0  0  0  0  2  0  0  0  0  0  0
  182.5410  179.0310  142.4320 N   0  0  0  0  0  0  0  0  0  0  0  0
  181.4860  179.0870  143.1440 N   0  0  0  0  0  0  0  0  0  0  0  0
  180.2690  179.6260  142.6240 C   0  0  0  0  0  0  0  0  0  0  0  0
  179.9820  180.8300  142.8570 O   0  0  0  0  0  0  0  0  0  0  0  0
  179.8740  176.7210  140.9830 N   0  0  0  0  0  0  0  0  0  0  0  0
  180.8190  177.5430  138.4350 S   0  0  0  0  0  0  0  0  0  0  0  0
  181.2560  179.3060  138.6870 C   0  0  0  0  0  2  0  0  0  0  0  0
  179.8600  177.6500  139.9250 C   0  0  2  0  0  3  0  0  0  0  0  0
  180.1900  179.9490  139.5760 C   0  0  0  0  0  2  0  0  0  0  0  0
  179.5980  178.8360  140.3590 C   0  0  2  0  0  3  0  0  0  0  0  0
  179.3310  178.7620  141.8280 C   0  0  1  0  0  3  0  0  0  0  0  0
  179.4900  177.3410  142.1840 N   0  0  0  0  0  0  0  0  0  0  0  0
  1  2  1  0  0  0  0
  2  3  1  0  0  0  0
  3  4  1  0  0  0  0
  5  4  1  0  0  0  0
  5  6  1  0  0  0  0
  7 13  1  6  0  0  0
  7  8  1  0  0  0  0
  7  9  1  0  0  0  0
  8  9  1  0  0  0  0
  9  5  1  1  0  0  0
 10 12  1  0  0  0  0
 11 12  2  0  0  0  0
 12 13  1  0  0  0  0
 15 14  1  1  0  0  0
 15 10  1  0  0  0  0
 16 15  1  0  0  0  0
 17 19  1  6  0  0  0
 17  1  1  0  0  0  0
 18 19  1  0  0  0  0
 20 17  1  0  0  0  0
 20 21  2  0  0  0  0
 22 23  2  0  0  0  0
 22 21  1  0  0  0  0
 24 31  2  0  0  0  0
 25 26  1  0  0  0  0
 26 28  1  0  0  0  0
 27 25  1  1  0  0  0
 27 29  1  0  0  0  0
 27 24  1  0  0  0  0
 29 28  1  1  0  0  0
 29 30  1  0  0  0  0
 30 31  1  0  0  0  0
 30 22  1  1  0  0  0
M  END
>  <MODEL>
4

>  <REMARK>
 VINA RESULT:      -6.8      2.358      3.196
  Name = 
  12 active torsions:
  status: ('A' for Active; 'I' for Inactive)
    1  A    between atoms: C_3  and  N_28
    2  A    between atoms: C_7  and  C_13
    3  A    between atoms: C_7  and  C_29
    4  A    between atoms: N_9  and  C_25
    5  A    between atoms: C_10  and  N_12
    6  A    between atoms: C_10  and  C_26
    7  A    between atoms: C_13  and  C_15
    8  A    between atoms: N_14  and  C_24
    9  A    between atoms: C_15  and  N_16
   10  A    between atoms: N_16  and  C_27
   11  A    between atoms: C_18  and  C_25
   12  A    between atoms: C_25  and  C_29
                            x       y       z     vdW  Elec       q    Type
                         _______ _______ _______ _____ _____    ______ ____

>  <TORSDO>
F 12

$$$$
=
 OpenBabel11042410493D

 31 33  0  0  1  0  0  0  0  0999 V2000
  186.8040  178.1720  146.7790 C   0  0  0  0  0  2  0  0  0  0  0  0
  185.6720  177.8700  145.8020 C   0  0  0  0  0  2  0  0  0  0  0  0
  185.1070  179.1530  145.2070 C   0  0  0  0  0  2  0  0  0  0  0  0
  184.9490  179.0670  143.6800 C   0  0  0  0  0  2  0  0  0  0  0  0
  183.6810  178.4850  143.2060 N   0  0  0  0  0  0  0  0  0  0  0  0
  182.6080  178.9260  144.0860 C   0  0  0  0  0  1  0  0  0  0  0  0
  183.4680  177.7220  140.9000 C   0  0  1  0  0  3  0  0  0  0  0  0
  184.5780  178.7500  140.9510 C   0  0  0  0  0  2  0  0  0  0  0  0
  183.3600  178.9080  141.8430 C   0  0  2  0  0  3  0  0  0  0  0  0
  183.2220  175.8340  138.6510 N   0  0  0  0  0  2  0  0  0  0  0  0
  181.7410  177.3630  137.6860 O   0  0  0  0  0  0  0  0  0  0  0  0
  182.4940  177.0660  138.6510 C   0  0  0  0  0  0  0  0  0  0  0  0
  182.6140  177.9720  139.7500 N   0  0  0  0  0  2  0  0  0  0  0  0
  184.3340  173.9310  137.6150 C   0  0  0  0  0  1  0  0  0  0  0  0
  183.1510  174.8810  137.5520 C   0  0  1  0  0  3  0  0  0  0  0  0
  181.9690  174.1500  137.6510 O   0  0  0  0  0  1  0  0  0  0  0  0
  188.0250  177.2980  146.5160 C   0  0  2  0  0  3  0  0  0  0  0  0
  188.4180  178.1930  148.8130 C   0  0  0  0  0  1  0  0  0  0  0  0
  189.0230  177.4180  147.6600 C   0  0  0  0  0  2  0  0  0  0  0  0
  188.6500  177.6630  145.2500 N   0  0  0  0  0  0  0  0  0  0  0  0
  189.9160  177.7270  145.1240 N   0  0  0  0  0  0  0  0  0  0  0  0
  190.5200  178.0840  143.8790 C   0  0  0  0  0  0  0  0  0  0  0  0
  190.8200  179.2890  143.6650 O   0  0  0  0  0  0  0  0  0  0  0  0
  191.7400  177.4610  140.8110 N   0  0  0  0  0  0  0  0  0  0  0  0
  189.3910  177.9920  139.3070 S   0  0  0  0  0  0  0  0  0  0  0  0
  188.1570  178.4480  140.5840 C   0  0  0  0  0  2  0  0  0  0  0  0
  190.3590  177.2750  140.6120 C   0  0  2  0  0  3  0  0  0  0  0  0
  188.3440  177.5290  141.7920 C   0  0  0  0  0  2  0  0  0  0  0  0
  189.7550  177.0750  141.7340 C   0  0  2  0  0  3  0  0  0  0  0  0
  190.7740  177.0400  142.8270 C   0  0  1  0  0  3  0  0  0  0  0  0
  192.0710  177.2640  142.1630 N   0  0  0  0  0  0  0  0  0  0  0  0
  2  1  1  0  0  0  0
  3  2  1  0  0  0  0
  4  3  1  0  0  0  0
  5  4  1  0  0  0  0
  5  6  1  0  0  0  0
  7 13  1  6  0  0  0
  7  8  1  0  0  0  0
  7  9  1  0  0  0  0
  8  9  1  0  0  0  0
  9  5  1  1  0  0  0
 10 12  1  0  0  0  0
 11 12  2  0  0  0  0
 12 13  1  0  0  0  0
 15 14  1  1  0  0  0
 15 16  1  0  0  0  0
 15 10  1  0  0  0  0
 17  1  1  1  0  0  0
 17 19  1  0  0  0  0
 19 18  1  0  0  0  0
 20 17  1  0  0  0  0
 21 20  2  0  0  0  0
 22 21  1  0  0  0  0
 23 22  2  0  0  0  0
 24 31  2  0  0  0  0
 25 26  1  0  0  0  0
 26 28  1  0  0  0  0
 27 25  1  1  0  0  0
 27 24  1  0  0  0  0
 27 29  1  0  0  0  0
 29 28  1  1  0  0  0
 29 30  1  0  0  0  0
 30 22  1  1  0  0  0
 31 30  1  0  0  0  0
M  END
>  <MODEL>
5

>  <REMARK>
 VINA RESULT:      -6.8      3.172      7.205
  Name = 
  12 active torsions:
  status: ('A' for Active; 'I' for Inactive)
    1  A    between atoms: C_3  and  N_28
    2  A    between atoms: C_7  and  C_13
    3  A    between atoms: C_7  and  C_29
    4  A    between atoms: N_9  and  C_25
    5  A    between atoms: C_10  and  N_12
    6  A    between atoms: C_10  and  C_26
    7  A    between atoms: C_13  and  C_15
    8  A    between atoms: N_14  and  C_24
    9  A    between atoms: C_15  and  N_16
   10  A    between atoms: N_16  and  C_27
   11  A    between atoms: C_18  and  C_25
   12  A    between atoms: C_25  and  C_29
                            x       y       z     vdW  Elec       q    Type
                         _______ _______ _______ _____ _____    ______ ____

>  <TORSDO>
F 12

$$$$
=
 OpenBabel11042410493D

 31 33  0  0  1  0  0  0  0  0999 V2000
  186.5490  177.9130  143.0890 C   0  0  0  0  0  2  0  0  0  0  0  0
  186.9240  177.1810  144.3740 C   0  0  0  0  0  2  0  0  0  0  0  0
  188.0000  177.9380  145.1410 C   0  0  0  0  0  2  0  0  0  0  0  0
  189.4180  177.4880  144.7530 C   0  0  0  0  0  2  0  0  0  0  0  0
  190.0180  178.2020  143.6110 N   0  0  0  0  0  0  0  0  0  0  0  0
  190.9770  179.1720  144.1200 C   0  0  0  0  0  1  0  0  0  0  0  0
  189.8950  177.0790  141.4500 C   0  0  1  0  0  3  0  0  0  0  0  0
  189.9200  176.0170  142.5270 C   0  0  0  0  0  2  0  0  0  0  0  0
  190.7220  177.2920  142.7060 C   0  0  2  0  0  3  0  0  0  0  0  0
  189.5160  177.9930  138.6740 N   0  0  0  0  0  2  0  0  0  0  0  0
  191.4300  176.7650  138.1360 O   0  0  0  0  0  0  0  0  0  0  0  0
  190.6130  177.1410  139.0180 C   0  0  0  0  0  0  0  0  0  0  0  0
  190.7940  176.7090  140.3680 N   0  0  0  0  0  2  0  0  0  0  0  0
  188.1470  177.6450  136.6900 C   0  0  0  0  0  1  0  0  0  0  0  0
  189.2730  178.4500  137.3130 C   0  0  1  0  0  3  0  0  0  0  0  0
  188.9180  179.7970  137.3360 O   0  0  0  0  0  1  0  0  0  0  0  0
  185.4260  178.9170  143.3180 C   0  0  2  0  0  3  0  0  0  0  0  0
  184.1760  179.0300  145.4750 C   0  0  0  0  0  1  0  0  0  0  0  0
  184.3180  178.2960  144.1570 C   0  0  0  0  0  2  0  0  0  0  0  0
  184.8990  179.3910  142.0420 N   0  0  0  0  0  0  0  0  0  0  0  0
  184.7040  178.5970  141.0650 N   0  0  0  0  0  0  0  0  0  0  0  0
  184.1860  179.0690  139.8200 C   0  0  0  0  0  0  0  0  0  0  0  0
  184.7610  180.0280  139.2390 O   0  0  0  0  0  0  0  0  0  0  0  0
  182.1860  176.3700  139.7440 N   0  0  0  0  0  0  0  0  0  0  0  0
  183.5620  174.8800  137.7570 S   0  0  0  0  0  0  0  0  0  0  0  0
  184.9680  175.9650  137.3030 C   0  0  0  0  0  2  0  0  0  0  0  0
  182.7930  176.3100  138.4760 C   0  0  2  0  0  3  0  0  0  0  0  0
  184.4720  177.4110  137.2560 C   0  0  0  0  0  2  0  0  0  0  0  0
  183.2870  177.4560  138.1470 C   0  0  2  0  0  3  0  0  0  0  0  0
  182.9570  178.4450  139.2190 C   0  0  1  0  0  3  0  0  0  0  0  0
  182.2000  177.6880  140.2320 N   0  0  0  0  0  0  0  0  0  0  0  0
  1  2  1  0  0  0  0
  2  3  1  0  0  0  0
  4  3  1  0  0  0  0
  5  6  1  0  0  0  0
  5  4  1  0  0  0  0
  7 13  1  6  0  0  0
  7  8  1  0  0  0  0
  7  9  1  0  0  0  0
  8  9  1  0  0  0  0
  9  5  1  1  0  0  0
 10 12  1  0  0  0  0
 11 12  2  0  0  0  0
 12 13  1  0  0  0  0
 15 14  1  1  0  0  0
 15 16  1  0  0  0  0
 15 10  1  0  0  0  0
 17  1  1  6  0  0  0
 17 19  1  0  0  0  0
 19 18  1  0  0  0  0
 20 17  1  0  0  0  0
 21 20  2  0  0  0  0
 22 21  1  0  0  0  0
 23 22  2  0  0  0  0
 24 31  2  0  0  0  0
 26 25  1  0  0  0  0
 27 25  1  1  0  0  0
 27 24  1  0  0  0  0
 28 26  1  0  0  0  0
 29 28  1  1  0  0  0
 29 27  1  0  0  0  0
 29 30  1  0  0  0  0
 30 22  1  1  0  0  0
 30 31  1  0  0  0  0
M  END
>  <MODEL>
6

>  <REMARK>
 VINA RESULT:      -6.7      1.538      2.024
  Name = 
  12 active torsions:
  status: ('A' for Active; 'I' for Inactive)
    1  A    between atoms: C_3  and  N_28
    2  A    between atoms: C_7  and  C_13
    3  A    between atoms: C_7  and  C_29
    4  A    between atoms: N_9  and  C_25
    5  A    between atoms: C_10  and  N_12
    6  A    between atoms: C_10  and  C_26
    7  A    between atoms: C_13  and  C_15
    8  A    between atoms: N_14  and  C_24
    9  A    between atoms: C_15  and  N_16
   10  A    between atoms: N_16  and  C_27
   11  A    between atoms: C_18  and  C_25
   12  A    between atoms: C_25  and  C_29
                            x       y       z     vdW  Elec       q    Type
                         _______ _______ _______ _____ _____    ______ ____

>  <TORSDO>
F 12

$$$$
=
 OpenBabel11042410493D

 31 33  0  0  1  0  0  0  0  0999 V2000
  191.1100  176.7680  144.9380 C   0  0  0  0  0  2  0  0  0  0  0  0
  191.8970  177.9340  144.3490 C   0  0  0  0  0  2  0  0  0  0  0  0
  191.2980  178.3850  143.0230 C   0  0  0  0  0  2  0  0  0  0  0  0
  190.7560  177.2050  142.1980 C   0  0  0  0  0  2  0  0  0  0  0  0
  190.3250  177.5370  140.8280 N   0  0  0  0  0  0  0  0  0  0  0  0
  190.9470  176.5990  139.9040 C   0  0  0  0  0  1  0  0  0  0  0  0
  188.3630  178.6310  139.8790 C   0  0  1  0  0  3  0  0  0  0  0  0
  188.1990  178.6000  141.3830 C   0  0  0  0  0  2  0  0  0  0  0  0
  188.8740  177.4410  140.6730 C   0  0  2  0  0  3  0  0  0  0  0  0
  188.2480  177.4870  137.1660 N   0  0  0  0  0  2  0  0  0  0  0  0
  185.9260  177.4120  137.4270 O   0  0  0  0  0  0  0  0  0  0  0  0
  187.0490  177.7040  137.9180 C   0  0  0  0  0  0  0  0  0  0  0  0
  187.1160  178.2520  139.2360 N   0  0  0  0  0  2  0  0  0  0  0  0
  189.4430  177.4620  135.0440 C   0  0  0  0  0  1  0  0  0  0  0  0
  188.2400  176.9470  135.8140 C   0  0  1  0  0  3  0  0  0  0  0  0
  188.2920  175.5560  135.8720 O   0  0  0  0  0  1  0  0  0  0  0  0
  190.2370  177.2070  146.1080 C   0  0  2  0  0  3  0  0  0  0  0  0
  192.0390  176.1710  147.4890 C   0  0  0  0  0  1  0  0  0  0  0  0
  190.5450  176.3740  147.3450 C   0  0  0  0  0  2  0  0  0  0  0  0
  188.8250  177.1040  145.7570 N   0  0  0  0  0  0  0  0  0  0  0  0
  188.1550  178.1200  145.3800 N   0  0  0  0  0  0  0  0  0  0  0  0
  186.7720  178.0090  145.0360 C   0  0  0  0  0  0  0  0  0  0  0  0
  186.3860  177.0210  144.3570 O   0  0  0  0  0  0  0  0  0  0  0  0
  183.6470  178.6550  146.0880 N   0  0  0  0  0  0  0  0  0  0  0  0
  182.3940  178.9160  143.5530 S   0  0  0  0  0  0  0  0  0  0  0  0
  183.7640  178.6420  142.3660 C   0  0  0  0  0  2  0  0  0  0  0  0
  183.6320  179.2060  144.7930 C   0  0  2  0  0  3  0  0  0  0  0  0
  185.0170  179.3370  142.9010 C   0  0  0  0  0  2  0  0  0  0  0  0
  184.8310  179.4220  144.3710 C   0  0  2  0  0  3  0  0  0  0  0  0
  185.7940  179.0690  145.4590 C   0  0  1  0  0  3  0  0  0  0  0  0
  184.9620  178.6030  146.5830 N   0  0  0  0  0  0  0  0  0  0  0  0
  2  1  1  0  0  0  0
  3  2  1  0  0  0  0
  4  3  1  0  0  0  0
  5  4  1  0  0  0  0
  6  5  1  0  0  0  0
  7 13  1  6  0  0  0
  7  9  1  0  0  0  0
  7  8  1  0  0  0  0
  9  5  1  1  0  0  0
  9  8  1  0  0  0  0
 10 12  1  0  0  0  0
 11 12  2  0  0  0  0
 12 13  1  0  0  0  0
 15 14  1  6  0  0  0
 15 16  1  0  0  0  0
 15 10  1  0  0  0  0
 17  1  1  6  0  0  0
 17 19  1  0  0  0  0
 19 18  1  0  0  0  0
 20 17  1  0  0  0  0
 21 20  2  0  0  0  0
 22 21  1  0  0  0  0
 23 22  2  0  0  0  0
 24 31  2  0  0  0  0
 26 28  1  0  0  0  0
 26 25  1  0  0  0  0
 27 25  1  6  0  0  0
 27 24  1  0  0  0  0
 29 28  1  6  0  0  0
 29 27  1  0  0  0  0
 29 30  1  0  0  0  0
 30 22  1  6  0  0  0
 30 31  1  0  0  0  0
M  END
>  <MODEL>
7

>  <REMARK>
 VINA RESULT:      -6.7      2.791      5.276
  Name = 
  12 active torsions:
  status: ('A' for Active; 'I' for Inactive)
    1  A    between atoms: C_3  and  N_28
    2  A    between atoms: C_7  and  C_13
    3  A    between atoms: C_7  and  C_29
    4  A    between atoms: N_9  and  C_25
    5  A    between atoms: C_10  and  N_12
    6  A    between atoms: C_10  and  C_26
    7  A    between atoms: C_13  and  C_15
    8  A    between atoms: N_14  and  C_24
    9  A    between atoms: C_15  and  N_16
   10  A    between atoms: N_16  and  C_27
   11  A    between atoms: C_18  and  C_25
   12  A    between atoms: C_25  and  C_29
                            x       y       z     vdW  Elec       q    Type
                         _______ _______ _______ _____ _____    ______ ____

>  <TORSDO>
F 12

$$$$
=
 OpenBabel11042410493D

 31 33  0  0  1  0  0  0  0  0999 V2000
  191.0940  177.1850  145.0530 C   0  0  0  0  0  2  0  0  0  0  0  0
  191.3340  178.4770  144.2780 C   0  0  0  0  0  2  0  0  0  0  0  0
  191.4730  178.2020  142.7860 C   0  0  0  0  0  2  0  0  0  0  0  0
  190.9500  176.8090  142.3990 C   0  0  0  0  0  2  0  0  0  0  0  0
  189.8590  176.7950  141.4090 N   0  0  0  0  0  0  0  0  0  0  0  0
  188.6980  177.4570  141.9860 C   0  0  0  0  0  1  0  0  0  0  0  0
  190.1020  176.5590  138.9940 C   0  0  1  0  0  3  0  0  0  0  0  0
  191.4650  176.8700  139.5730 C   0  0  0  0  0  2  0  0  0  0  0  0
  190.2260  177.4990  140.1800 C   0  0  2  0  0  3  0  0  0  0  0  0
  187.6600  176.3340  137.3600 N   0  0  0  0  0  2  0  0  0  0  0  0
  188.5870  177.9670  135.9670 O   0  0  0  0  0  0  0  0  0  0  0  0
  188.7000  177.2480  136.9960 C   0  0  0  0  0  0  0  0  0  0  0  0
  189.8770  177.3560  137.7990 N   0  0  0  0  0  2  0  0  0  0  0  0
  185.8460  174.8010  136.8260 C   0  0  0  0  0  1  0  0  0  0  0  0
  186.4470  176.1710  136.5720 C   0  0  1  0  0  3  0  0  0  0  0  0
  185.5260  177.1520  136.9330 O   0  0  0  0  0  1  0  0  0  0  0  0
  190.3620  177.4400  146.3650 C   0  0  2  0  0  3  0  0  0  0  0  0
  191.9930  175.6330  146.9180 C   0  0  0  0  0  1  0  0  0  0  0  0
  190.8810  176.5120  147.4550 C   0  0  0  0  0  2  0  0  0  0  0  0
  188.9240  177.2700  146.1870 N   0  0  0  0  0  0  0  0  0  0  0  0
  188.2510  178.0370  145.4240 N   0  0  0  0  0  0  0  0  0  0  0  0
  186.8430  177.8620  145.2540 C   0  0  0  0  0  0  0  0  0  0  0  0
  186.4090  176.7640  144.8120 O   0  0  0  0  0  0  0  0  0  0  0  0
  183.6780  178.6920  146.0170 N   0  0  0  0  0  0  0  0  0  0  0  0
  182.6680  178.9760  143.3780 S   0  0  0  0  0  0  0  0  0  0  0  0
  184.1190  178.6080  142.3210 C   0  0  0  0  0  2  0  0  0  0  0  0
  183.8060  179.2210  144.7190 C   0  0  2  0  0  3  0  0  0  0  0  0
  185.3570  179.2440  142.9550 C   0  0  0  0  0  2  0  0  0  0  0  0
  185.0480  179.3640  144.4010 C   0  0  2  0  0  3  0  0  0  0  0  0
  185.8910  178.9800  145.5750 C   0  0  1  0  0  3  0  0  0  0  0  0
  184.9390  178.5790  146.6260 N   0  0  0  0  0  0  0  0  0  0  0  0
  2  1  1  0  0  0  0
  3  2  1  0  0  0  0
  4  3  1  0  0  0  0
  5  6  1  0  0  0  0
  5  4  1  0  0  0  0
  7 13  1  6  0  0  0
  7  8  1  0  0  0  0
  7  9  1  0  0  0  0
  8  9  1  0  0  0  0
  9  5  1  1  0  0  0
 11 12  2  0  0  0  0
 12 10  1  0  0  0  0
 12 13  1  0  0  0  0
 15 14  1  1  0  0  0
 15 16  1  0  0  0  0
 15 10  1  0  0  0  0
 17  1  1  6  0  0  0
 17 19  1  0  0  0  0
 18 19  1  0  0  0  0
 20 17  1  0  0  0  0
 21 20  2  0  0  0  0
 22 21  1  0  0  0  0
 23 22  2  0  0  0  0
 24 31  2  0  0  0  0
 26 28  1  0  0  0  0
 26 25  1  0  0  0  0
 27 25  1  6  0  0  0
 27 24  1  0  0  0  0
 29 28  1  6  0  0  0
 29 27  1  0  0  0  0
 29 30  1  0  0  0  0
 30 22  1  6  0  0  0
 30 31  1  0  0  0  0
M  END
>  <MODEL>
8

>  <REMARK>
 VINA RESULT:      -6.6      2.933      5.245
  Name = 
  12 active torsions:
  status: ('A' for Active; 'I' for Inactive)
    1  A    between atoms: C_3  and  N_28
    2  A    between atoms: C_7  and  C_13
    3  A    between atoms: C_7  and  C_29
    4  A    between atoms: N_9  and  C_25
    5  A    between atoms: C_10  and  N_12
    6  A    between atoms: C_10  and  C_26
    7  A    between atoms: C_13  and  C_15
    8  A    between atoms: N_14  and  C_24
    9  A    between atoms: C_15  and  N_16
   10  A    between atoms: N_16  and  C_27
   11  A    between atoms: C_18  and  C_25
   12  A    between atoms: C_25  and  C_29
                            x       y       z     vdW  Elec       q    Type
                         _______ _______ _______ _____ _____    ______ ____

>  <TORSDO>
F 12

$$$$
=
 OpenBabel11042410493D

 31 33  0  0  1  0  0  0  0  0999 V2000
  184.9120  178.8220  142.1020 C   0  0  0  0  0  2  0  0  0  0  0  0
  183.5140  178.7950  141.4950 C   0  0  0  0  0  2  0  0  0  0  0  0
  183.4270  177.7760  140.3660 C   0  0  0  0  0  2  0  0  0  0  0  0
  184.0150  178.3130  139.0500 C   0  0  0  0  0  2  0  0  0  0  0  0
  184.2240  177.3070  137.9930 N   0  0  0  0  0  0  0  0  0  0  0  0
  183.0430  177.2720  137.1430 C   0  0  0  0  0  1  0  0  0  0  0  0
  186.5750  176.7930  137.5970 C   0  0  1  0  0  3  0  0  0  0  0  0
  186.4770  178.2470  138.0040 C   0  0  0  0  0  2  0  0  0  0  0  0
  185.3820  177.6250  137.1570 C   0  0  2  0  0  3  0  0  0  0  0  0
  189.4790  176.4010  137.9100 N   0  0  0  0  0  2  0  0  0  0  0  0
  189.6040  176.3720  135.5760 O   0  0  0  0  0  0  0  0  0  0  0  0
  188.8880  176.4720  136.6080 C   0  0  0  0  0  0  0  0  0  0  0  0
  187.4780  176.6540  136.4660 N   0  0  0  0  0  2  0  0  0  0  0  0
  191.3230  176.8690  139.4290 C   0  0  0  0  0  1  0  0  0  0  0  0
  190.9110  176.2320  138.1140 C   0  0  1  0  0  3  0  0  0  0  0  0
  191.2150  174.8730  138.1460 O   0  0  0  0  0  1  0  0  0  0  0  0
  184.9250  178.2540  143.5170 C   0  0  2  0  0  3  0  0  0  0  0  0
  185.4010  179.0030  145.8500 C   0  0  0  0  0  1  0  0  0  0  0  0
  184.7330  179.3660  144.5390 C   0  0  0  0  0  2  0  0  0  0  0  0
  186.1710  177.5370  143.7660 N   0  0  0  0  0  0  0  0  0  0  0  0
  187.1690  177.6400  142.9810 N   0  0  0  0  0  0  0  0  0  0  0  0
  188.3860  176.9360  143.2330 C   0  0  0  0  0  0  0  0  0  0  0  0
  188.3810  175.6760  143.2200 O   0  0  0  0  0  0  0  0  0  0  0  0
  191.6220  176.6990  144.1070 N   0  0  0  0  0  0  0  0  0  0  0  0
  191.2990  176.6910  146.9280 S   0  0  0  0  0  0  0  0  0  0  0  0
  189.4850  176.8240  147.1520 C   0  0  0  0  0  2  0  0  0  0  0  0
  191.0550  177.2640  145.2640 C   0  0  2  0  0  3  0  0  0  0  0  0
  188.9370  177.8110  146.1200 C   0  0  0  0  0  2  0  0  0  0  0  0
  189.9120  177.8010  145.0020 C   0  0  2  0  0  3  0  0  0  0  0  0
  189.6540  177.6860  143.5340 C   0  0  1  0  0  3  0  0  0  0  0  0
  190.8270  176.9840  142.9830 N   0  0  0  0  0  0  0  0  0  0  0  0
  2  1  1  0  0  0  0
  3  2  1  0  0  0  0
  4  3  1  0  0  0  0
  5  4  1  0  0  0  0
  6  5  1  0  0  0  0
  7 13  1  6  0  0  0
  7  8  1  0  0  0  0
  9  7  1  0  0  0  0
  9  5  1  1  0  0  0
  9  8  1  0  0  0  0
 10 15  1  0  0  0  0
 11 12  2  0  0  0  0
 12 10  1  0  0  0  0
 13 12  1  0  0  0  0
 15 16  1  0  0  0  0
 15 14  1  1  0  0  0
 17  1  1  6  0  0  0
 17 20  1  0  0  0  0
 17 19  1  0  0  0  0
 19 18  1  0  0  0  0
 21 22  1  0  0  0  0
 21 20  2  0  0  0  0
 23 22  2  0  0  0  0
 25 26  1  0  0  0  0
 27 24  1  6  0  0  0
 27 25  1  0  0  0  0
 28 26  1  0  0  0  0
 29 27  1  0  0  0  0
 29 28  1  1  0  0  0
 30 22  1  1  0  0  0
 30 29  1  0  0  0  0
 31 30  1  0  0  0  0
 31 24  2  0  0  0  0
M  END
>  <MODEL>
9

>  <REMARK>
 VINA RESULT:      -6.6      3.476      7.175
  Name = 
  12 active torsions:
  status: ('A' for Active; 'I' for Inactive)
    1  A    between atoms: C_3  and  N_28
    2  A    between atoms: C_7  and  C_13
    3  A    between atoms: C_7  and  C_29
    4  A    between atoms: N_9  and  C_25
    5  A    between atoms: C_10  and  N_12
    6  A    between atoms: C_10  and  C_26
    7  A    between atoms: C_13  and  C_15
    8  A    between atoms: N_14  and  C_24
    9  A    between atoms: C_15  and  N_16
   10  A    between atoms: N_16  and  C_27
   11  A    between atoms: C_18  and  C_25
   12  A    between atoms: C_25  and  C_29
                            x       y       z     vdW  Elec       q    Type
                         _______ _______ _______ _____ _____    ______ ____

>  <TORSDO>
F 12

$$$$
