=
 OpenBabel11042410563D

 26 29  0  0  1  0  0  0  0  0999 V2000
  190.2310  177.9620  142.4290 C   0  0  1  0  0  3  0  0  0  0  0  0
  189.8690  176.6590  140.3080 N   0  0  0  0  0  0  0  0  0  0  0  0
  191.9390  177.5730  140.6450 N   0  0  0  0  0  2  0  0  0  0  0  0
  190.3710  175.6250  138.1420 C   0  0  0  0  0  3  0  0  0  0  0  0
  190.6770  177.3950  141.1160 C   0  0  0  0  0  0  0  0  0  0  0  0
  192.6710  176.0160  137.3980 C   0  0  0  0  0  3  0  0  0  0  0  0
  190.6760  176.3680  139.2800 C   0  0  0  0  0  0  0  0  0  0  0  0
  191.9090  176.9110  139.4790 C   0  0  0  0  0  0  0  0  0  0  0  0
  191.3930  175.4510  137.1890 C   0  0  0  0  0  3  0  0  0  0  0  0
  192.9440  176.7600  138.5600 C   0  0  0  0  0  3  0  0  0  0  0  0
  188.1010  178.4400  141.1490 C   0  0  0  0  0  3  0  0  0  0  0  0
  188.0360  177.0960  143.2350 C   0  0  0  0  0  3  0  0  0  0  0  0
  186.7470  177.1240  143.5680 C   0  0  0  0  0  3  0  0  0  0  0  0
  184.4140  178.4270  144.2540 Cl  0  0  0  0  0  0  0  0  0  0  0  0
  185.7880  178.1850  143.1980 C   0  0  0  0  0  0  0  0  0  0  0  0
  186.8220  178.7680  140.9750 C   0  0  0  0  0  3  0  0  0  0  0  0
  188.7150  178.2030  142.4950 C   0  0  1  0  0  3  0  0  0  0  0  0
  185.8090  178.8640  142.0450 C   0  0  0  0  0  3  0  0  0  0  0  0
  191.8850  175.9540  145.8670 C   0  0  0  0  0  0  0  0  0  0  0  0
  191.3780  175.9650  143.4950 C   0  0  0  0  0  3  0  0  0  0  0  0
  190.8190  177.2460  143.6150 C   0  0  0  0  0  0  0  0  0  0  0  0
  190.7950  177.8730  144.8650 C   0  0  0  0  0  3  0  0  0  0  0  0
  191.9090  175.3220  144.6150 C   0  0  0  0  0  3  0  0  0  0  0  0
  191.3260  177.2300  145.9860 C   0  0  0  0  0  3  0  0  0  0  0  0
  192.7930  176.0370  148.0680 O   0  0  0  0  0  1  0  0  0  0  0  0
  192.4100  175.3290  146.9970 O   0  0  0  0  0  0  0  0  0  0  0  0
  1  5  1  6  0  0  0
  1 21  1  0  0  0  0
  2  5  2  0  0  0  0
  3  5  1  0  0  0  0
  4  7  1  0  0  0  0
  6 10  2  0  0  0  0
  7  8  2  0  0  0  0
  7  2  1  0  0  0  0
  8  3  1  0  0  0  0
  9  6  1  0  0  0  0
  9  4  2  0  0  0  0
 10  8  1  0  0  0  0
 11 17  1  0  0  0  0
 12 13  2  0  0  0  0
 15 13  1  0  0  0  0
 15 14  1  0  0  0  0
 16 11  2  0  0  0  0
 16 18  1  0  0  0  0
 17  1  1  6  0  0  0
 17 12  1  0  0  0  0
 18 15  2  0  0  0  0
 19 24  1  0  0  0  0
 19 26  1  0  0  0  0
 20 21  2  0  0  0  0
 20 23  1  0  0  0  0
 21 22  1  0  0  0  0
 22 24  2  0  0  0  0
 23 19  2  0  0  0  0
 26 25  1  0  0  0  0
M  END
>  <MODEL>
1

>  <REMARK>
 VINA RESULT:      -8.4      0.000      0.000
  Name = 
  4 active torsions:
  status: ('A' for Active; 'I' for Inactive)
    1  A    between atoms: C_2  and  O_11
    2  A    between atoms: C_7  and  C_24
    3  A    between atoms: C_10  and  C_24
    4  A    between atoms: C_22  and  C_24
                            x       y       z     vdW  Elec       q    Type
                         _______ _______ _______ _____ _____    ______ ____

>  <TORSDO>
F 4

$$$$
=
 OpenBabel11042410563D

 26 29  0  0  1  0  0  0  0  0999 V2000
  188.6560  178.6170  141.6140 C   0  0  1  0  0  3  0  0  0  0  0  0
  188.9620  176.8560  139.8430 N   0  0  0  0  0  0  0  0  0  0  0  0
  188.8130  179.0330  139.1530 N   0  0  0  0  0  2  0  0  0  0  0  0
  189.2400  175.8750  137.6140 C   0  0  0  0  0  3  0  0  0  0  0  0
  188.8080  178.1610  140.1950 C   0  0  0  0  0  0  0  0  0  0  0  0
  189.2300  177.5430  135.8200 C   0  0  0  0  0  3  0  0  0  0  0  0
  189.0660  176.9270  138.5100 C   0  0  0  0  0  0  0  0  0  0  0  0
  188.9770  178.2220  138.0980 C   0  0  0  0  0  0  0  0  0  0  0  0
  189.3230  176.1990  136.2460 C   0  0  0  0  0  3  0  0  0  0  0  0
  189.0550  178.5800  136.7550 C   0  0  0  0  0  3  0  0  0  0  0  0
  186.2250  178.6190  140.9110 C   0  0  0  0  0  3  0  0  0  0  0  0
  186.8840  177.7600  143.1450 C   0  0  0  0  0  3  0  0  0  0  0  0
  185.7320  177.7480  143.8120 C   0  0  0  0  0  3  0  0  0  0  0  0
  183.4900  178.9620  144.8650 Cl  0  0  0  0  0  0  0  0  0  0  0  0
  184.5700  178.6160  143.5330 C   0  0  0  0  0  0  0  0  0  0  0  0
  184.9100  178.7900  141.0420 C   0  0  0  0  0  3  0  0  0  0  0  0
  187.1880  178.7340  142.0530 C   0  0  1  0  0  3  0  0  0  0  0  0
  184.2000  179.0280  142.3140 C   0  0  0  0  0  3  0  0  0  0  0  0
  191.2360  176.5730  144.3980 C   0  0  0  0  0  0  0  0  0  0  0  0
  189.7030  176.4900  142.5200 C   0  0  0  0  0  3  0  0  0  0  0  0
  189.5560  177.8850  142.5720 C   0  0  0  0  0  0  0  0  0  0  0  0
  190.2500  178.6150  143.5420 C   0  0  0  0  0  3  0  0  0  0  0  0
  190.5400  175.8370  143.4280 C   0  0  0  0  0  3  0  0  0  0  0  0
  191.0870  177.9620  144.4510 C   0  0  0  0  0  3  0  0  0  0  0  0
  192.1680  176.3650  146.5810 O   0  0  0  0  0  1  0  0  0  0  0  0
  192.0750  175.9400  145.3140 O   0  0  0  0  0  0  0  0  0  0  0  0
  1  5  1  6  0  0  0
  1 21  1  0  0  0  0
  2  5  2  0  0  0  0
  3  5  1  0  0  0  0
  4  7  1  0  0  0  0
  6  9  1  0  0  0  0
  6 10  2  0  0  0  0
  7  2  1  0  0  0  0
  8  7  2  0  0  0  0
  8  3  1  0  0  0  0
  9  4  2  0  0  0  0
 10  8  1  0  0  0  0
 11 16  2  0  0  0  0
 11 17  1  0  0  0  0
 12 13  2  0  0  0  0
 15 13  1  0  0  0  0
 15 14  1  0  0  0  0
 16 18  1  0  0  0  0
 17  1  1  6  0  0  0
 17 12  1  0  0  0  0
 18 15  2  0  0  0  0
 19 24  1  0  0  0  0
 19 26  1  0  0  0  0
 20 21  2  0  0  0  0
 20 23  1  0  0  0  0
 21 22  1  0  0  0  0
 22 24  2  0  0  0  0
 23 19  2  0  0  0  0
 26 25  1  0  0  0  0
M  END
>  <MODEL>
2

>  <REMARK>
 VINA RESULT:      -8.3      1.789      2.233
  Name = 
  4 active torsions:
  status: ('A' for Active; 'I' for Inactive)
    1  A    between atoms: C_2  and  O_11
    2  A    between atoms: C_7  and  C_24
    3  A    between atoms: C_10  and  C_24
    4  A    between atoms: C_22  and  C_24
                            x       y       z     vdW  Elec       q    Type
                         _______ _______ _______ _____ _____    ______ ____

>  <TORSDO>
F 4

$$$$
=
 OpenBabel11042410563D

 26 29  0  0  1  0  0  0  0  0999 V2000
  189.7520  177.8340  142.3510 C   0  0  1  0  0  3  0  0  0  0  0  0
  191.5540  177.4550  140.6370 N   0  0  0  0  0  0  0  0  0  0  0  0
  189.4490  176.7120  140.1370 N   0  0  0  0  0  2  0  0  0  0  0  0
  192.6100  176.7280  138.5470 C   0  0  0  0  0  3  0  0  0  0  0  0
  190.2600  177.3290  141.0360 C   0  0  0  0  0  0  0  0  0  0  0  0
  191.0510  175.6290  137.0120 C   0  0  0  0  0  3  0  0  0  0  0  0
  191.5410  176.8830  139.4270 C   0  0  0  0  0  0  0  0  0  0  0  0
  190.2890  176.4400  139.1280 C   0  0  0  0  0  0  0  0  0  0  0  0
  192.3510  176.0880  137.3200 C   0  0  0  0  0  3  0  0  0  0  0  0
  189.9940  175.8040  137.9250 C   0  0  0  0  0  3  0  0  0  0  0  0
  187.7210  177.8650  143.8600 C   0  0  0  0  0  3  0  0  0  0  0  0
  187.6310  178.9160  141.6120 C   0  0  0  0  0  3  0  0  0  0  0  0
  186.3230  179.0440  141.3950 C   0  0  0  0  0  3  0  0  0  0  0  0
  183.7700  178.0390  141.1030 Cl  0  0  0  0  0  0  0  0  0  0  0  0
  185.2670  178.2030  141.9940 C   0  0  0  0  0  0  0  0  0  0  0  0
  186.4330  177.7650  144.1850 C   0  0  0  0  0  3  0  0  0  0  0  0
  188.2190  177.8240  142.4470 C   0  0  1  0  0  3  0  0  0  0  0  0
  185.3110  177.6870  143.2290 C   0  0  0  0  0  3  0  0  0  0  0  0
  191.8410  176.0880  145.6940 C   0  0  0  0  0  0  0  0  0  0  0  0
  190.6300  177.9550  144.7300 C   0  0  0  0  0  3  0  0  0  0  0  0
  190.4720  177.2410  143.5320 C   0  0  0  0  0  0  0  0  0  0  0  0
  191.0050  175.9520  143.4230 C   0  0  0  0  0  3  0  0  0  0  0  0
  191.3100  177.3820  145.8060 C   0  0  0  0  0  3  0  0  0  0  0  0
  191.6850  175.3780  144.5000 C   0  0  0  0  0  3  0  0  0  0  0  0
  192.6180  176.1080  147.9470 O   0  0  0  0  0  1  0  0  0  0  0  0
  192.5240  175.4990  146.7570 O   0  0  0  0  0  0  0  0  0  0  0  0
  1  5  1  6  0  0  0
  1 21  1  0  0  0  0
  2  5  2  0  0  0  0
  3  5  1  0  0  0  0
  4  7  1  0  0  0  0
  6  9  1  0  0  0  0
  6 10  2  0  0  0  0
  7  2  1  0  0  0  0
  8  7  2  0  0  0  0
  8  3  1  0  0  0  0
  9  4  2  0  0  0  0
 10  8  1  0  0  0  0
 11 16  2  0  0  0  0
 12 17  1  0  0  0  0
 13 12  2  0  0  0  0
 13 15  1  0  0  0  0
 14 15  1  0  0  0  0
 15 18  2  0  0  0  0
 17  1  1  1  0  0  0
 17 11  1  0  0  0  0
 18 16  1  0  0  0  0
 19 23  1  0  0  0  0
 19 26  1  0  0  0  0
 20 23  2  0  0  0  0
 21 20  1  0  0  0  0
 22 21  2  0  0  0  0
 22 24  1  0  0  0  0
 24 19  2  0  0  0  0
 26 25  1  0  0  0  0
M  END
>  <MODEL>
3

>  <REMARK>
 VINA RESULT:      -8.2      0.823      2.052
  Name = 
  4 active torsions:
  status: ('A' for Active; 'I' for Inactive)
    1  A    between atoms: C_2  and  O_11
    2  A    between atoms: C_7  and  C_24
    3  A    between atoms: C_10  and  C_24
    4  A    between atoms: C_22  and  C_24
                            x       y       z     vdW  Elec       q    Type
                         _______ _______ _______ _____ _____    ______ ____

>  <TORSDO>
F 4

$$$$
=
 OpenBabel11042410563D

 26 29  0  0  1  0  0  0  0  0999 V2000
  186.2770  179.1540  141.7180 C   0  0  1  0  0  3  0  0  0  0  0  0
  184.2120  177.8200  141.1830 N   0  0  0  0  0  0  0  0  0  0  0  0
  184.5560  179.7530  140.0060 N   0  0  0  0  0  2  0  0  0  0  0  0
  182.1100  177.1960  140.0850 C   0  0  0  0  0  3  0  0  0  0  0  0
  185.0040  178.9050  140.9690 C   0  0  0  0  0  0  0  0  0  0  0  0
  181.4040  178.7990  138.3730 C   0  0  0  0  0  3  0  0  0  0  0  0
  183.2190  178.0100  140.3050 C   0  0  0  0  0  0  0  0  0  0  0  0
  183.4220  179.1600  139.6040 C   0  0  0  0  0  0  0  0  0  0  0  0
  181.1920  177.6060  139.1000 C   0  0  0  0  0  3  0  0  0  0  0  0
  182.5360  179.5970  138.6220 C   0  0  0  0  0  3  0  0  0  0  0  0
  184.7510  179.0790  143.7340 C   0  0  0  0  0  3  0  0  0  0  0  0
  186.6990  177.5490  143.5780 C   0  0  0  0  0  3  0  0  0  0  0  0
  186.8490  177.1280  144.8330 C   0  0  0  0  0  3  0  0  0  0  0  0
  187.2980  177.5350  147.5240 Cl  0  0  0  0  0  0  0  0  0  0  0  0
  186.4300  177.8660  146.0410 C   0  0  0  0  0  0  0  0  0  0  0  0
  184.4250  179.0030  145.0240 C   0  0  0  0  0  3  0  0  0  0  0  0
  186.1480  178.8930  143.2260 C   0  0  1  0  0  3  0  0  0  0  0  0
  185.3460  178.6480  146.1210 C   0  0  0  0  0  3  0  0  0  0  0  0
  189.7040  177.4000  139.7750 C   0  0  0  0  0  0  0  0  0  0  0  0
  188.6490  178.2530  141.7860 C   0  0  0  0  0  3  0  0  0  0  0  0
  187.4820  178.5360  141.0600 C   0  0  0  0  0  0  0  0  0  0  0  0
  187.4350  178.2510  139.6920 C   0  0  0  0  0  3  0  0  0  0  0  0
  189.7550  177.6870  141.1470 C   0  0  0  0  0  3  0  0  0  0  0  0
  188.5410  177.6840  139.0520 C   0  0  0  0  0  3  0  0  0  0  0  0
  190.7820  175.5560  138.7180 O   0  0  0  0  0  1  0  0  0  0  0  0
  190.7960  176.8350  139.1190 O   0  0  0  0  0  0  0  0  0  0  0  0
  1  5  1  6  0  0  0
  3  5  1  0  0  0  0
  4  7  1  0  0  0  0
  5  2  2  0  0  0  0
  6 10  2  0  0  0  0
  6  9  1  0  0  0  0
  7  2  1  0  0  0  0
  8  3  1  0  0  0  0
  8  7  2  0  0  0  0
  9  4  2  0  0  0  0
 10  8  1  0  0  0  0
 11 16  2  0  0  0  0
 12 13  2  0  0  0  0
 13 15  1  0  0  0  0
 15 18  2  0  0  0  0
 15 14  1  0  0  0  0
 16 18  1  0  0  0  0
 17  1  1  6  0  0  0
 17 12  1  0  0  0  0
 17 11  1  0  0  0  0
 19 23  1  0  0  0  0
 21  1  1  0  0  0  0
 21 20  1  0  0  0  0
 22 21  2  0  0  0  0
 23 20  2  0  0  0  0
 24 22  1  0  0  0  0
 24 19  2  0  0  0  0
 25 26  1  0  0  0  0
 26 19  1  0  0  0  0
M  END
>  <MODEL>
4

>  <REMARK>
 VINA RESULT:      -8.0      4.080      6.715
  Name = 
  4 active torsions:
  status: ('A' for Active; 'I' for Inactive)
    1  A    between atoms: C_2  and  O_11
    2  A    between atoms: C_7  and  C_24
    3  A    between atoms: C_10  and  C_24
    4  A    between atoms: C_22  and  C_24
                            x       y       z     vdW  Elec       q    Type
                         _______ _______ _______ _____ _____    ______ ____

>  <TORSDO>
F 4

$$$$
=
 OpenBabel11042410563D

 26 29  0  0  1  0  0  0  0  0999 V2000
  188.0190  178.5750  141.8770 C   0  0  1  0  0  3  0  0  0  0  0  0
  189.5170  177.0080  140.6010 N   0  0  0  0  0  0  0  0  0  0  0  0
  188.4250  178.6270  139.4100 N   0  0  0  0  0  2  0  0  0  0  0  0
  190.6870  176.0010  138.6960 C   0  0  0  0  0  3  0  0  0  0  0  0
  188.6570  178.0610  140.6230 C   0  0  0  0  0  0  0  0  0  0  0  0
  190.1870  177.1050  136.5670 C   0  0  0  0  0  3  0  0  0  0  0  0
  189.8310  176.9180  139.3030 C   0  0  0  0  0  0  0  0  0  0  0  0
  189.1820  177.8810  138.5930 C   0  0  0  0  0  0  0  0  0  0  0  0
  190.8620  176.1050  137.3030 C   0  0  0  0  0  3  0  0  0  0  0  0
  189.3300  178.0140  137.2150 C   0  0  0  0  0  3  0  0  0  0  0  0
  185.8500  178.9590  143.1230 C   0  0  0  0  0  3  0  0  0  0  0  0
  185.8960  179.0030  140.6410 C   0  0  0  0  0  3  0  0  0  0  0  0
  184.6110  178.8740  140.3160 C   0  0  0  0  0  3  0  0  0  0  0  0
  182.2000  177.5320  140.3160 Cl  0  0  0  0  0  0  0  0  0  0  0  0
  183.5790  178.2200  141.1460 C   0  0  0  0  0  0  0  0  0  0  0  0
  184.5500  178.8410  143.3870 C   0  0  0  0  0  3  0  0  0  0  0  0
  186.4910  178.4180  141.8810 C   0  0  1  0  0  3  0  0  0  0  0  0
  183.5430  178.2510  142.4840 C   0  0  0  0  0  3  0  0  0  0  0  0
  190.0530  177.3060  145.4600 C   0  0  0  0  0  0  0  0  0  0  0  0
  188.1390  177.1560  143.9780 C   0  0  0  0  0  3  0  0  0  0  0  0
  188.7150  178.1140  143.1290 C   0  0  0  0  0  0  0  0  0  0  0  0
  189.9580  178.6650  143.4550 C   0  0  0  0  0  3  0  0  0  0  0  0
  188.8060  176.7530  145.1370 C   0  0  0  0  0  3  0  0  0  0  0  0
  190.6260  178.2620  144.6140 C   0  0  0  0  0  3  0  0  0  0  0  0
  192.0570  176.7020  146.5990 O   0  0  0  0  0  1  0  0  0  0  0  0
  190.7340  176.9170  146.6120 O   0  0  0  0  0  0  0  0  0  0  0  0
  1  5  1  6  0  0  0
  1 21  1  0  0  0  0
  2  5  2  0  0  0  0
  3  5  1  0  0  0  0
  4  7  1  0  0  0  0
  6 10  2  0  0  0  0
  6  9  1  0  0  0  0
  7  2  1  0  0  0  0
  8  7  2  0  0  0  0
  8  3  1  0  0  0  0
  9  4  2  0  0  0  0
 10  8  1  0  0  0  0
 11 16  2  0  0  0  0
 12 17  1  0  0  0  0
 13 12  2  0  0  0  0
 13 15  1  0  0  0  0
 14 15  1  0  0  0  0
 15 18  2  0  0  0  0
 17  1  1  1  0  0  0
 17 11  1  0  0  0  0
 18 16  1  0  0  0  0
 19 26  1  0  0  0  0
 20 23  2  0  0  0  0
 21 22  2  0  0  0  0
 21 20  1  0  0  0  0
 22 24  1  0  0  0  0
 23 19  1  0  0  0  0
 24 19  2  0  0  0  0
 25 26  1  0  0  0  0
M  END
>  <MODEL>
5

>  <REMARK>
 VINA RESULT:      -7.9      1.814      2.819
  Name = 
  4 active torsions:
  status: ('A' for Active; 'I' for Inactive)
    1  A    between atoms: C_2  and  O_11
    2  A    between atoms: C_7  and  C_24
    3  A    between atoms: C_10  and  C_24
    4  A    between atoms: C_22  and  C_24
                            x       y       z     vdW  Elec       q    Type
                         _______ _______ _______ _____ _____    ______ ____

>  <TORSDO>
F 4

$$$$
=
 OpenBabel11042410563D

 26 29  0  0  1  0  0  0  0  0999 V2000
  188.0790  176.9770  142.8620 C   0  0  1  0  0  3  0  0  0  0  0  0
  188.0500  178.1700  140.6470 N   0  0  0  0  0  0  0  0  0  0  0  0
  189.4570  176.3780  140.8630 N   0  0  0  0  0  2  0  0  0  0  0  0
  188.6210  178.6940  138.3210 C   0  0  0  0  0  3  0  0  0  0  0  0
  188.5320  177.1820  141.4490 C   0  0  0  0  0  0  0  0  0  0  0  0
  190.2990  177.1800  137.3760 C   0  0  0  0  0  3  0  0  0  0  0  0
  188.7180  177.9650  139.5040 C   0  0  0  0  0  0  0  0  0  0  0  0
  189.5550  176.9000  139.6310 C   0  0  0  0  0  0  0  0  0  0  0  0
  189.4300  178.2860  137.2430 C   0  0  0  0  0  3  0  0  0  0  0  0
  190.3690  176.4670  138.5870 C   0  0  0  0  0  3  0  0  0  0  0  0
  190.1030  178.2950  143.6140 C   0  0  0  0  0  3  0  0  0  0  0  0
  188.6780  177.1280  145.2770 C   0  0  0  0  0  3  0  0  0  0  0  0
  189.4520  177.0900  146.3600 C   0  0  0  0  0  3  0  0  0  0  0  0
  191.7440  176.3710  147.7180 Cl  0  0  0  0  0  0  0  0  0  0  0  0
  190.9290  177.1150  146.3600 C   0  0  0  0  0  0  0  0  0  0  0  0
  191.2090  178.5540  144.3100 C   0  0  0  0  0  3  0  0  0  0  0  0
  189.2180  177.1170  143.8840 C   0  0  1  0  0  3  0  0  0  0  0  0
  191.6810  177.7930  145.4840 C   0  0  0  0  0  3  0  0  0  0  0  0
  184.4520  179.1280  143.7570 C   0  0  0  0  0  0  0  0  0  0  0  0
  186.4040  177.9100  144.5250 C   0  0  0  0  0  3  0  0  0  0  0  0
  186.8200  177.7290  143.1970 C   0  0  0  0  0  0  0  0  0  0  0  0
  186.0450  178.2490  142.1550 C   0  0  0  0  0  3  0  0  0  0  0  0
  185.2260  178.6060  144.8040 C   0  0  0  0  0  3  0  0  0  0  0  0
  184.8660  178.9470  142.4340 C   0  0  0  0  0  3  0  0  0  0  0  0
  182.0890  179.3770  143.5750 O   0  0  0  0  0  1  0  0  0  0  0  0
  183.2730  179.8250  144.0150 O   0  0  0  0  0  0  0  0  0  0  0  0
  1  5  1  6  0  0  0
  1 21  1  0  0  0  0
  2  5  2  0  0  0  0
  3  5  1  0  0  0  0
  4  7  1  0  0  0  0
  6 10  2  0  0  0  0
  7  8  2  0  0  0  0
  7  2  1  0  0  0  0
  8  3  1  0  0  0  0
  9  6  1  0  0  0  0
  9  4  2  0  0  0  0
 10  8  1  0  0  0  0
 11 17  1  0  0  0  0
 11 16  2  0  0  0  0
 12 13  2  0  0  0  0
 15 13  1  0  0  0  0
 15 14  1  0  0  0  0
 16 18  1  0  0  0  0
 17  1  1  6  0  0  0
 17 12  1  0  0  0  0
 18 15  2  0  0  0  0
 19 26  1  0  0  0  0
 19 23  1  0  0  0  0
 20 23  2  0  0  0  0
 21 20  1  0  0  0  0
 22 24  1  0  0  0  0
 22 21  2  0  0  0  0
 24 19  2  0  0  0  0
 25 26  1  0  0  0  0
M  END
>  <MODEL>
6

>  <REMARK>
 VINA RESULT:      -7.8      3.795      5.580
  Name = 
  4 active torsions:
  status: ('A' for Active; 'I' for Inactive)
    1  A    between atoms: C_2  and  O_11
    2  A    between atoms: C_7  and  C_24
    3  A    between atoms: C_10  and  C_24
    4  A    between atoms: C_22  and  C_24
                            x       y       z     vdW  Elec       q    Type
                         _______ _______ _______ _____ _____    ______ ____

>  <TORSDO>
F 4

$$$$
=
 OpenBabel11042410563D

 26 29  0  0  1  0  0  0  0  0999 V2000
  185.7670  179.0300  141.0500 C   0  0  1  0  0  3  0  0  0  0  0  0
  188.1530  178.3070  141.3910 N   0  0  0  0  0  0  0  0  0  0  0  0
  187.3280  178.2520  139.2580 N   0  0  0  0  0  2  0  0  0  0  0  0
  190.4030  177.5030  140.8410 C   0  0  0  0  0  3  0  0  0  0  0  0
  187.0920  178.5230  140.5680 C   0  0  0  0  0  0  0  0  0  0  0  0
  190.7060  177.0470  138.4540 C   0  0  0  0  0  3  0  0  0  0  0  0
  189.0950  177.8780  140.5420 C   0  0  0  0  0  0  0  0  0  0  0  0
  188.6050  177.8440  139.2720 C   0  0  0  0  0  0  0  0  0  0  0  0
  191.2150  177.0810  139.7710 C   0  0  0  0  0  3  0  0  0  0  0  0
  189.3790  177.4330  138.1890 C   0  0  0  0  0  3  0  0  0  0  0  0
  183.5990  177.7290  140.9670 C   0  0  0  0  0  3  0  0  0  0  0  0
  183.9440  179.6900  139.4830 C   0  0  0  0  0  3  0  0  0  0  0  0
  182.9960  179.5360  138.5610 C   0  0  0  0  0  3  0  0  0  0  0  0
  181.7360  178.1430  136.5400 Cl  0  0  0  0  0  0  0  0  0  0  0  0
  182.3890  178.2510  138.1600 C   0  0  0  0  0  0  0  0  0  0  0  0
  182.5530  177.1220  140.4070 C   0  0  0  0  0  3  0  0  0  0  0  0
  184.5900  178.5430  140.1920 C   0  0  1  0  0  3  0  0  0  0  0  0
  182.1630  177.2220  138.9870 C   0  0  0  0  0  3  0  0  0  0  0  0
  185.1820  178.6480  145.3050 C   0  0  0  0  0  0  0  0  0  0  0  0
  186.2540  177.8910  143.2660 C   0  0  0  0  0  3  0  0  0  0  0  0
  185.5820  178.8830  142.5360 C   0  0  0  0  0  0  0  0  0  0  0  0
  184.7090  179.7530  143.1990 C   0  0  0  0  0  3  0  0  0  0  0  0
  186.0560  177.7740  144.6430 C   0  0  0  0  0  3  0  0  0  0  0  0
  184.5110  179.6370  144.5770 C   0  0  0  0  0  3  0  0  0  0  0  0
  185.6800  179.2820  147.5470 O   0  0  0  0  0  1  0  0  0  0  0  0
  184.9700  178.5480  146.6780 O   0  0  0  0  0  0  0  0  0  0  0  0
  1  5  1  6  0  0  0
  1 21  1  0  0  0  0
  3  8  1  0  0  0  0
  3  5  1  0  0  0  0
  5  2  2  0  0  0  0
  6  9  1  0  0  0  0
  7  4  1  0  0  0  0
  7  2  1  0  0  0  0
  8  7  2  0  0  0  0
  9  4  2  0  0  0  0
 10  6  2  0  0  0  0
 10  8  1  0  0  0  0
 12 17  1  0  0  0  0
 13 12  2  0  0  0  0
 14 15  1  0  0  0  0
 15 13  1  0  0  0  0
 15 18  2  0  0  0  0
 16 11  2  0  0  0  0
 17 11  1  0  0  0  0
 17  1  1  1  0  0  0
 18 16  1  0  0  0  0
 19 26  1  0  0  0  0
 20 23  2  0  0  0  0
 21 22  2  0  0  0  0
 21 20  1  0  0  0  0
 22 24  1  0  0  0  0
 23 19  1  0  0  0  0
 24 19  2  0  0  0  0
 26 25  1  0  0  0  0
M  END
>  <MODEL>
7

>  <REMARK>
 VINA RESULT:      -7.8      3.711      5.479
  Name = 
  4 active torsions:
  status: ('A' for Active; 'I' for Inactive)
    1  A    between atoms: C_2  and  O_11
    2  A    between atoms: C_7  and  C_24
    3  A    between atoms: C_10  and  C_24
    4  A    between atoms: C_22  and  C_24
                            x       y       z     vdW  Elec       q    Type
                         _______ _______ _______ _____ _____    ______ ____

>  <TORSDO>
F 4

$$$$
=
 OpenBabel11042410563D

 26 29  0  0  1  0  0  0  0  0999 V2000
  188.4360  176.5750  143.3150 C   0  0  1  0  0  3  0  0  0  0  0  0
  186.7020  177.5310  144.8660 N   0  0  0  0  0  0  0  0  0  0  0  0
  186.2670  177.6080  142.6210 N   0  0  0  0  0  2  0  0  0  0  0  0
  184.6180  178.6010  145.5910 C   0  0  0  0  0  3  0  0  0  0  0  0
  187.1290  177.2450  143.6070 C   0  0  0  0  0  0  0  0  0  0  0  0
  183.1500  179.2100  143.7270 C   0  0  0  0  0  3  0  0  0  0  0  0
  185.5120  178.1040  144.6450 C   0  0  0  0  0  0  0  0  0  0  0  0
  185.2520  178.1500  143.3090 C   0  0  0  0  0  0  0  0  0  0  0  0
  183.4180  179.1630  145.1130 C   0  0  0  0  0  3  0  0  0  0  0  0
  184.0770  178.6970  142.8010 C   0  0  0  0  0  3  0  0  0  0  0  0
  188.3970  178.1720  141.3520 C   0  0  0  0  0  3  0  0  0  0  0  0
  190.4850  176.9700  141.9510 C   0  0  0  0  0  3  0  0  0  0  0  0
  191.2300  177.1010  140.8540 C   0  0  0  0  0  3  0  0  0  0  0  0
  191.7210  176.7550  138.1610 Cl  0  0  0  0  0  0  0  0  0  0  0  0
  190.7130  177.2980  139.4850 C   0  0  0  0  0  0  0  0  0  0  0  0
  188.6560  178.6080  140.1200 C   0  0  0  0  0  3  0  0  0  0  0  0
  188.9920  176.9210  141.9250 C   0  0  1  0  0  3  0  0  0  0  0  0
  189.6110  177.9940  139.1770 C   0  0  0  0  0  3  0  0  0  0  0  0
  191.2150  176.9030  146.5940 C   0  0  0  0  0  0  0  0  0  0  0  0
  190.6890  176.0810  144.3740 C   0  0  0  0  0  3  0  0  0  0  0  0
  189.4230  176.6820  144.4450 C   0  0  0  0  0  0  0  0  0  0  0  0
  189.0610  177.3900  145.5960 C   0  0  0  0  0  3  0  0  0  0  0  0
  191.5810  176.1910  145.4430 C   0  0  0  0  0  3  0  0  0  0  0  0
  189.9530  177.5010  146.6660 C   0  0  0  0  0  3  0  0  0  0  0  0
  192.8760  176.0040  148.0480 O   0  0  0  0  0  1  0  0  0  0  0  0
  192.0910  177.0240  147.6720 O   0  0  0  0  0  0  0  0  0  0  0  0
  1  5  1  1  0  0  0
  1 21  1  0  0  0  0
  3  8  1  0  0  0  0
  3  5  1  0  0  0  0
  5  2  2  0  0  0  0
  6  9  2  0  0  0  0
  7  2  1  0  0  0  0
  7  4  2  0  0  0  0
  8  7  1  0  0  0  0
  9  4  1  0  0  0  0
 10  8  2  0  0  0  0
 10  6  1  0  0  0  0
 11 17  1  0  0  0  0
 13 12  2  0  0  0  0
 14 15  1  0  0  0  0
 15 13  1  0  0  0  0
 16 11  2  0  0  0  0
 17 12  1  0  0  0  0
 17  1  1  1  0  0  0
 18 15  2  0  0  0  0
 18 16  1  0  0  0  0
 19 24  1  0  0  0  0
 19 26  1  0  0  0  0
 20 21  2  0  0  0  0
 20 23  1  0  0  0  0
 21 22  1  0  0  0  0
 22 24  2  0  0  0  0
 23 19  2  0  0  0  0
 26 25  1  0  0  0  0
M  END
>  <MODEL>
8

>  <REMARK>
 VINA RESULT:      -7.8      2.783      5.898
  Name = 
  4 active torsions:
  status: ('A' for Active; 'I' for Inactive)
    1  A    between atoms: C_2  and  O_11
    2  A    between atoms: C_7  and  C_24
    3  A    between atoms: C_10  and  C_24
    4  A    between atoms: C_22  and  C_24
                            x       y       z     vdW  Elec       q    Type
                         _______ _______ _______ _____ _____    ______ ____

>  <TORSDO>
F 4

$$$$
=
 OpenBabel11042410563D

 26 29  0  0  1  0  0  0  0  0999 V2000
  185.5310  178.8720  140.5600 C   0  0  1  0  0  3  0  0  0  0  0  0
  186.5560  177.8410  142.6130 N   0  0  0  0  0  0  0  0  0  0  0  0
  184.7770  179.2480  142.9140 N   0  0  0  0  0  2  0  0  0  0  0  0
  186.9020  177.3170  144.9830 C   0  0  0  0  0  3  0  0  0  0  0  0
  185.6280  178.6520  142.0380 C   0  0  0  0  0  0  0  0  0  0  0  0
  185.3110  178.4500  146.4610 C   0  0  0  0  0  3  0  0  0  0  0  0
  186.2630  177.9430  143.9150 C   0  0  0  0  0  0  0  0  0  0  0  0
  185.2050  178.7800  144.0960 C   0  0  0  0  0  0  0  0  0  0  0  0
  186.4100  177.5810  146.2750 C   0  0  0  0  0  3  0  0  0  0  0  0
  184.6910  179.0650  145.3590 C   0  0  0  0  0  3  0  0  0  0  0  0
  186.3820  178.1410  138.2920 C   0  0  0  0  0  3  0  0  0  0  0  0
  187.9770  178.6780  140.1170 C   0  0  0  0  0  3  0  0  0  0  0  0
  189.1130  178.1280  139.6920 C   0  0  0  0  0  3  0  0  0  0  0  0
  190.6540  175.9880  138.8820 Cl  0  0  0  0  0  0  0  0  0  0  0  0
  189.2170  176.9800  138.7690 C   0  0  0  0  0  0  0  0  0  0  0  0
  187.1470  177.4820  137.4230 C   0  0  0  0  0  3  0  0  0  0  0  0
  186.6260  178.1400  139.7700 C   0  0  1  0  0  3  0  0  0  0  0  0
  188.3750  176.7350  137.7570 C   0  0  0  0  0  3  0  0  0  0  0  0
  181.5190  178.3420  139.0720 C   0  0  0  0  0  0  0  0  0  0  0  0
  183.5220  179.6990  139.2480 C   0  0  0  0  0  3  0  0  0  0  0  0
  184.1340  178.7050  140.0260 C   0  0  0  0  0  0  0  0  0  0  0  0
  183.4310  177.5330  140.3240 C   0  0  0  0  0  3  0  0  0  0  0  0
  182.2210  179.5190  138.7730 C   0  0  0  0  0  3  0  0  0  0  0  0
  182.1300  177.3520  139.8480 C   0  0  0  0  0  3  0  0  0  0  0  0
  179.2550  177.6830  139.4170 O   0  0  0  0  0  1  0  0  0  0  0  0
  180.2200  178.1430  138.6080 O   0  0  0  0  0  0  0  0  0  0  0  0
  1 21  1  6  0  0  0
  1  5  1  0  0  0  0
  2  7  1  0  0  0  0
  3  8  1  0  0  0  0
  4  9  1  0  0  0  0
  5  2  2  0  0  0  0
  5  3  1  0  0  0  0
  7  8  1  0  0  0  0
  7  4  2  0  0  0  0
  8 10  2  0  0  0  0
  9  6  2  0  0  0  0
 10  6  1  0  0  0  0
 11 17  1  0  0  0  0
 13 12  2  0  0  0  0
 15 14  1  0  0  0  0
 15 13  1  0  0  0  0
 16 18  1  0  0  0  0
 16 11  2  0  0  0  0
 17 12  1  0  0  0  0
 17  1  1  1  0  0  0
 18 15  2  0  0  0  0
 19 24  1  0  0  0  0
 20 21  2  0  0  0  0
 21 22  1  0  0  0  0
 23 19  2  0  0  0  0
 23 20  1  0  0  0  0
 24 22  2  0  0  0  0
 26 19  1  0  0  0  0
 26 25  1  0  0  0  0
M  END
>  <MODEL>
9

>  <REMARK>
 VINA RESULT:      -7.6      5.613      8.837
  Name = 
  4 active torsions:
  status: ('A' for Active; 'I' for Inactive)
    1  A    between atoms: C_2  and  O_11
    2  A    between atoms: C_7  and  C_24
    3  A    between atoms: C_10  and  C_24
    4  A    between atoms: C_22  and  C_24
                            x       y       z     vdW  Elec       q    Type
                         _______ _______ _______ _____ _____    ______ ____

>  <TORSDO>
F 4

$$$$
